EQI.pdb
     RDKit          3D

 27 26  0  0  1  0  0  0  0  0999 V2000
    7.0382  -17.5038   19.4542 N   0  0  0  0  0  0  0  0  0  0  0  0
    8.0750  -17.7118   20.4237 C   0  0  1  0  0  0  0  0  0  0  0  0
    9.3869  -17.1093   20.0857 C   0  0  0  0  0  0  0  0  0  0  0  0
   10.0319  -17.6423   18.8447 C   0  0  0  0  0  0  0  0  0  0  0  0
   11.4131  -17.2173   18.6326 C   0  0  0  0  0  0  0  0  0  0  0  0
   12.0344  -17.4564   17.5904 O   0  0  0  0  0  0  0  0  0  0  0  0
    7.6135  -17.2631   21.7959 C   0  0  0  0  0  0  0  0  0  0  0  0
    7.0785  -16.1368   21.8723 O   0  0  0  0  0  0  0  0  0  0  0  0
   12.0673  -16.5095   19.6510 O   0  0  0  0  0  0  0  0  0  0  0  0
    6.7787  -20.8503   26.8285 N   0  0  0  0  0  0  0  0  0  0  0  0
    6.0846  -20.9768   25.5887 C   0  0  0  0  0  0  0  0  0  0  0  0
    5.3182  -21.9308   25.4009 O   0  0  0  0  0  0  0  0  0  0  0  0
    6.3626  -19.8828   24.5833 C   0  0  0  0  0  0  0  0  0  0  0  0
    7.1762  -18.8163   25.2317 C   0  0  0  0  0  0  0  0  0  0  0  0
    7.4855  -17.7168   24.2581 C   0  0  2  0  0  0  0  0  0  0  0  0
    7.7917  -18.1053   22.9175 N   0  0  0  0  0  0  0  0  0  0  0  0
    8.3696  -16.6552   24.8048 C   0  0  0  0  0  0  0  0  0  0  0  0
    9.5597  -16.7312   24.4670 O   0  0  0  0  0  0  0  0  0  0  0  0
    5.6860  -12.0267   26.0813 C   0  0  0  0  0  0  0  0  0  0  0  0
    6.7256  -13.0504   25.7043 C   0  0  0  0  0  0  0  0  0  0  0  0
    7.4795  -13.5994   26.9104 C   0  0  2  0  0  0  0  0  0  0  0  0
    8.2750  -12.5335   27.5981 C   0  0  0  0  0  0  0  0  0  0  0  0
    8.4398  -14.6973   26.4807 C   0  0  2  0  0  0  0  0  0  0  0  0
    7.8457  -15.6615   25.6369 N   0  0  0  0  0  0  0  0  0  0  0  0
    9.2964  -15.1315   27.5967 C   0  0  0  0  0  0  0  0  0  0  0  0
   10.3299  -14.2696   28.0474 O   0  0  0  0  0  0  0  0  0  0  0  0
    9.1968  -16.1936   28.1834 O   0  0  0  0  0  0  0  0  0  0  0  0
  2  1  1  6
  2  3  1  0
  3  4  1  0
  4  5  1  0
  5  6  2  0
  7  8  2  0
  7  2  1  0
  9  5  1  0
 10 11  1  0
 11 13  1  0
 12 11  2  0
 13 14  1  0
 15 14  1  1
 15 16  1  0
 16  7  1  0
 17 18  2  0
 17 15  1  0
 20 19  1  0
 21 20  1  0
 21 22  1  6
 23 24  1  1
 23 21  1  0
 24 17  1  0
 25 23  1  0
 26 25  1  0
 27 25  2  0
M  END
$$$$
