EQI.pdb
     RDKit          3D

 27 26  0  0  1  0  0  0  0  0999 V2000
   10.9668  -19.6684   21.1426 N   0  0  0  0  0  0  0  0  0  0  0  0
   11.5622  -18.3634   21.1690 C   0  0  1  0  0  0  0  0  0  0  0  0
   12.1887  -17.9283   19.8975 C   0  0  0  0  0  0  0  0  0  0  0  0
   11.2864  -17.9472   18.7036 C   0  0  0  0  0  0  0  0  0  0  0  0
   11.8907  -17.4700   17.4625 C   0  0  0  0  0  0  0  0  0  0  0  0
   12.0697  -16.2699   17.2234 O   0  0  0  0  0  0  0  0  0  0  0  0
   10.5607  -17.3351   21.6558 C   0  0  0  0  0  0  0  0  0  0  0  0
   10.9641  -16.1571   21.7578 O   0  0  0  0  0  0  0  0  0  0  0  0
   12.2852  -18.4077   16.4975 O   0  0  0  0  0  0  0  0  0  0  0  0
    6.7322  -20.1734   21.9195 N   0  0  0  0  0  0  0  0  0  0  0  0
    5.8251  -19.4283   22.7299 C   0  0  0  0  0  0  0  0  0  0  0  0
    4.6462  -19.7908   22.8363 O   0  0  0  0  0  0  0  0  0  0  0  0
    6.4203  -18.2178   23.4123 C   0  0  0  0  0  0  0  0  0  0  0  0
    6.8250  -17.2226   22.3801 C   0  0  0  0  0  0  0  0  0  0  0  0
    8.2681  -16.8439   22.5428 C   0  0  2  0  0  0  0  0  0  0  0  0
    9.2376  -17.7227   21.9686 N   0  0  0  0  0  0  0  0  0  0  0  0
    8.6155  -16.3531   23.9016 C   0  0  0  0  0  0  0  0  0  0  0  0
    9.2945  -17.1304   24.5877 O   0  0  0  0  0  0  0  0  0  0  0  0
    6.6230  -11.2243   27.0084 C   0  0  0  0  0  0  0  0  0  0  0  0
    7.5407  -12.4133   26.8861 C   0  0  0  0  0  0  0  0  0  0  0  0
    7.2295  -13.2777   25.6695 C   0  0  2  0  0  0  0  0  0  0  0  0
    5.8467  -13.8485   25.7349 C   0  0  0  0  0  0  0  0  0  0  0  0
    8.2106  -14.4358   25.5769 C   0  0  2  0  0  0  0  0  0  0  0  0
    8.1832  -15.0938   24.3275 N   0  0  0  0  0  0  0  0  0  0  0  0
    8.2302  -15.2264   26.8188 C   0  0  0  0  0  0  0  0  0  0  0  0
    9.1074  -14.8419   27.8663 O   0  0  0  0  0  0  0  0  0  0  0  0
    7.5442  -16.2087   27.0341 O   0  0  0  0  0  0  0  0  0  0  0  0
  2  1  1  6
  2  3  1  0
  3  4  1  0
  4  5  1  0
  5  6  2  0
  7  8  2  0
  7  2  1  0
  9  5  1  0
 10 11  1  0
 11 13  1  0
 12 11  2  0
 13 14  1  0
 15 14  1  1
 15 16  1  0
 16  7  1  0
 17 18  2  0
 17 15  1  0
 20 19  1  0
 21 20  1  0
 21 22  1  1
 23 24  1  6
 23 21  1  0
 24 17  1  0
 25 23  1  0
 26 25  1  0
 27 25  2  0
M  END
$$$$
