EQI.pdb
     RDKit          3D

 27 26  0  0  1  0  0  0  0  0999 V2000
    9.3774  -18.4565   18.5418 N   0  0  0  0  0  0  0  0  0  0  0  0
   10.1122  -18.1956   19.7460 C   0  0  1  0  0  0  0  0  0  0  0  0
   11.3125  -17.3408   19.5818 C   0  0  0  0  0  0  0  0  0  0  0  0
   12.3338  -17.8555   18.6162 C   0  0  0  0  0  0  0  0  0  0  0  0
   13.5753  -17.0882   18.5598 C   0  0  0  0  0  0  0  0  0  0  0  0
   13.7336  -16.1260   17.7993 O   0  0  0  0  0  0  0  0  0  0  0  0
    9.1945  -17.6363   20.8147 C   0  0  0  0  0  0  0  0  0  0  0  0
    8.2210  -16.9571   20.4252 O   0  0  0  0  0  0  0  0  0  0  0  0
   14.6361  -17.4547   19.4004 O   0  0  0  0  0  0  0  0  0  0  0  0
    6.8424  -20.8857   24.9278 N   0  0  0  0  0  0  0  0  0  0  0  0
    8.1820  -20.6678   25.3667 C   0  0  0  0  0  0  0  0  0  0  0  0
    8.7085  -21.4523   26.1668 O   0  0  0  0  0  0  0  0  0  0  0  0
    8.8582  -19.4485   24.7826 C   0  0  0  0  0  0  0  0  0  0  0  0
    7.8800  -18.6997   23.9446 C   0  0  0  0  0  0  0  0  0  0  0  0
    8.5497  -17.5588   23.2360 C   0  0  2  0  0  0  0  0  0  0  0  0
    9.4537  -17.8922   22.1808 N   0  0  0  0  0  0  0  0  0  0  0  0
    9.0349  -16.4852   24.1414 C   0  0  0  0  0  0  0  0  0  0  0  0
   10.2347  -16.5506   24.4449 O   0  0  0  0  0  0  0  0  0  0  0  0
    6.7985  -11.0128   25.8928 C   0  0  0  0  0  0  0  0  0  0  0  0
    7.4017  -12.2880   26.4226 C   0  0  0  0  0  0  0  0  0  0  0  0
    7.1032  -13.4946   25.5400 C   0  0  2  0  0  0  0  0  0  0  0  0
    5.8930  -14.2397   26.0116 C   0  0  0  0  0  0  0  0  0  0  0  0
    8.2788  -14.4590   25.5449 C   0  0  2  0  0  0  0  0  0  0  0  0
    8.1587  -15.4926   24.5900 N   0  0  0  0  0  0  0  0  0  0  0  0
    8.7088  -14.7779   26.9165 C   0  0  0  0  0  0  0  0  0  0  0  0
    9.4755  -13.8253   27.6370 O   0  0  0  0  0  0  0  0  0  0  0  0
    8.4607  -15.8145   27.5047 O   0  0  0  0  0  0  0  0  0  0  0  0
  2  1  1  6
  2  3  1  0
  3  4  1  0
  4  5  1  0
  5  6  2  0
  7  8  2  0
  7  2  1  0
  9  5  1  0
 10 11  1  0
 11 13  1  0
 12 11  2  0
 13 14  1  0
 15 14  1  1
 15 16  1  0
 16  7  1  0
 17 18  2  0
 17 15  1  0
 20 19  1  0
 21 20  1  0
 21 22  1  1
 23 24  1  1
 23 21  1  0
 24 17  1  0
 25 23  1  0
 26 25  1  0
 27 25  2  0
M  END
$$$$
