EQI.pdb
     RDKit          3D

 27 26  0  0  1  0  0  0  0  0999 V2000
    9.5531  -15.6565   18.7860 N   0  0  0  0  0  0  0  0  0  0  0  0
    8.7553  -14.6281   19.3895 C   0  0  1  0  0  0  0  0  0  0  0  0
    7.5225  -14.2676   18.6489 C   0  0  0  0  0  0  0  0  0  0  0  0
    7.7021  -13.2419   17.5739 C   0  0  0  0  0  0  0  0  0  0  0  0
    8.0628  -13.7750   16.2628 C   0  0  0  0  0  0  0  0  0  0  0  0
    7.9971  -14.9791   15.9887 O   0  0  0  0  0  0  0  0  0  0  0  0
    8.4356  -14.9829   20.8280 C   0  0  0  0  0  0  0  0  0  0  0  0
    7.8234  -14.1253   21.4992 O   0  0  0  0  0  0  0  0  0  0  0  0
    8.5042  -12.8888   15.2699 O   0  0  0  0  0  0  0  0  0  0  0  0
    9.6782  -21.0931   20.9805 N   0  0  0  0  0  0  0  0  0  0  0  0
    9.6670  -20.1522   22.0526 C   0  0  0  0  0  0  0  0  0  0  0  0
   10.3104  -20.3803   23.0855 O   0  0  0  0  0  0  0  0  0  0  0  0
    8.8369  -18.9125   21.8095 C   0  0  0  0  0  0  0  0  0  0  0  0
    8.8301  -18.0773   23.0433 C   0  0  0  0  0  0  0  0  0  0  0  0
    8.5913  -16.6341   22.7078 C   0  0  2  0  0  0  0  0  0  0  0  0
    8.8232  -16.2362   21.3551 N   0  0  0  0  0  0  0  0  0  0  0  0
    9.1114  -15.6825   23.7235 C   0  0  0  0  0  0  0  0  0  0  0  0
   10.3326  -15.4760   23.6793 O   0  0  0  0  0  0  0  0  0  0  0  0
    6.8712  -11.0437   27.1592 C   0  0  0  0  0  0  0  0  0  0  0  0
    7.7500  -12.2662   27.0967 C   0  0  0  0  0  0  0  0  0  0  0  0
    7.3820  -13.2010   25.9500 C   0  0  2  0  0  0  0  0  0  0  0  0
    6.0725  -13.8856   26.1923 C   0  0  0  0  0  0  0  0  0  0  0  0
    8.4465  -14.2731   25.7773 C   0  0  2  0  0  0  0  0  0  0  0  0
    8.2414  -15.0873   24.6418 N   0  0  0  0  0  0  0  0  0  0  0  0
    8.8027  -14.8915   27.0651 C   0  0  0  0  0  0  0  0  0  0  0  0
    8.5684  -16.2788   27.2512 O   0  0  0  0  0  0  0  0  0  0  0  0
    9.2922  -14.3037   28.0122 O   0  0  0  0  0  0  0  0  0  0  0  0
  2  1  1  6
  2  3  1  0
  3  4  1  0
  4  5  1  0
  5  6  2  0
  7  8  2  0
  7  2  1  0
  9  5  1  0
 10 11  1  0
 11 13  1  0
 12 11  2  0
 13 14  1  0
 15 14  1  1
 15 16  1  0
 16  7  1  0
 17 18  2  0
 17 15  1  0
 20 19  1  0
 21 20  1  0
 21 22  1  1
 23 24  1  6
 23 21  1  0
 24 17  1  0
 25 23  1  0
 26 25  1  0
 27 25  2  0
M  END
$$$$
