EQI.pdb
     RDKit          3D

 27 26  0  0  1  0  0  0  0  0999 V2000
    5.4023  -16.1516   20.8037 N   0  0  0  0  0  0  0  0  0  0  0  0
    6.7945  -16.4975   20.8212 C   0  0  1  0  0  0  0  0  0  0  0  0
    7.6482  -15.7317   19.8814 C   0  0  0  0  0  0  0  0  0  0  0  0
    7.4088  -14.2543   19.8629 C   0  0  0  0  0  0  0  0  0  0  0  0
    8.1567  -13.5181   18.8470 C   0  0  0  0  0  0  0  0  0  0  0  0
    8.9282  -14.0694   18.0532 O   0  0  0  0  0  0  0  0  0  0  0  0
    7.3413  -16.4184   22.2326 C   0  0  0  0  0  0  0  0  0  0  0  0
    6.7631  -15.6398   23.0201 O   0  0  0  0  0  0  0  0  0  0  0  0
    7.9980  -12.1273   18.7650 O   0  0  0  0  0  0  0  0  0  0  0  0
   11.8704  -20.2814   25.9463 N   0  0  0  0  0  0  0  0  0  0  0  0
   10.5179  -19.8404   26.0522 C   0  0  0  0  0  0  0  0  0  0  0  0
    9.6365  -20.6255   26.4258 O   0  0  0  0  0  0  0  0  0  0  0  0
   10.2845  -18.3927   25.6853 C   0  0  0  0  0  0  0  0  0  0  0  0
   10.0203  -18.2942   24.2223 C   0  0  0  0  0  0  0  0  0  0  0  0
    8.9773  -17.2530   23.9388 C   0  0  2  0  0  0  0  0  0  0  0  0
    8.4538  -17.2049   22.6100 N   0  0  0  0  0  0  0  0  0  0  0  0
    9.2751  -15.9219   24.5279 C   0  0  0  0  0  0  0  0  0  0  0  0
    9.8354  -15.1196   23.7674 O   0  0  0  0  0  0  0  0  0  0  0  0
    6.4037  -12.1209   25.5754 C   0  0  0  0  0  0  0  0  0  0  0  0
    7.5663  -13.0759   25.4913 C   0  0  0  0  0  0  0  0  0  0  0  0
    7.9922  -13.6104   26.8541 C   0  0  2  0  0  0  0  0  0  0  0  0
    8.3892  -12.5050   27.7829 C   0  0  0  0  0  0  0  0  0  0  0  0
    9.1796  -14.5490   26.7081 C   0  0  2  0  0  0  0  0  0  0  0  0
    8.9256  -15.6436   25.8526 N   0  0  0  0  0  0  0  0  0  0  0  0
    9.8532  -14.7710   27.9983 C   0  0  0  0  0  0  0  0  0  0  0  0
    9.8504  -16.0737   28.5616 O   0  0  0  0  0  0  0  0  0  0  0  0
   10.4270  -13.9139   28.6450 O   0  0  0  0  0  0  0  0  0  0  0  0
  2  1  1  1
  2  3  1  0
  3  4  1  0
  4  5  1  0
  5  6  2  0
  7  8  2  0
  7  2  1  0
  9  5  1  0
 10 11  1  0
 11 13  1  0
 12 11  2  0
 13 14  1  0
 15 14  1  6
 15 16  1  0
 16  7  1  0
 17 18  2  0
 17 15  1  0
 20 19  1  0
 21 20  1  0
 21 22  1  1
 23 24  1  1
 23 21  1  0
 24 17  1  0
 25 23  1  0
 26 25  1  0
 27 25  2  0
M  END
$$$$
