EQI.pdb
     RDKit          3D

 27 26  0  0  1  0  0  0  0  0999 V2000
    5.8801  -18.3085   19.7865 N   0  0  0  0  0  0  0  0  0  0  0  0
    7.0367  -18.2095   20.6295 C   0  0  1  0  0  0  0  0  0  0  0  0
    8.1732  -17.4486   20.0570 C   0  0  0  0  0  0  0  0  0  0  0  0
    8.2741  -17.4814   18.5640 C   0  0  0  0  0  0  0  0  0  0  0  0
    9.5922  -17.8291   18.0395 C   0  0  0  0  0  0  0  0  0  0  0  0
    9.8437  -18.9313   17.5383 O   0  0  0  0  0  0  0  0  0  0  0  0
    6.6538  -17.6636   21.9905 C   0  0  0  0  0  0  0  0  0  0  0  0
    5.7233  -16.8306   22.0243 O   0  0  0  0  0  0  0  0  0  0  0  0
   10.6197  -16.8772   18.1059 O   0  0  0  0  0  0  0  0  0  0  0  0
    5.9676  -20.5139   27.1754 N   0  0  0  0  0  0  0  0  0  0  0  0
    7.2898  -20.0219   27.3866 C   0  0  0  0  0  0  0  0  0  0  0  0
    7.9799  -20.4732   28.3102 O   0  0  0  0  0  0  0  0  0  0  0  0
    7.7393  -18.9533   26.4165 C   0  0  0  0  0  0  0  0  0  0  0  0
    6.6222  -18.6377   25.4825 C   0  0  0  0  0  0  0  0  0  0  0  0
    7.0500  -17.6204   24.4655 C   0  0  2  0  0  0  0  0  0  0  0  0
    7.3355  -18.0995   23.1499 N   0  0  0  0  0  0  0  0  0  0  0  0
    8.0254  -16.6242   24.9792 C   0  0  0  0  0  0  0  0  0  0  0  0
    9.2151  -16.8760   24.7400 O   0  0  0  0  0  0  0  0  0  0  0  0
    5.6259  -11.6914   25.7696 C   0  0  0  0  0  0  0  0  0  0  0  0
    6.6327  -12.7696   25.4625 C   0  0  0  0  0  0  0  0  0  0  0  0
    7.3441  -13.2863   26.7080 C   0  0  2  0  0  0  0  0  0  0  0  0
    8.1870  -12.2250   27.3446 C   0  0  0  0  0  0  0  0  0  0  0  0
    8.2502  -14.4552   26.3546 C   0  0  2  0  0  0  0  0  0  0  0  0
    7.5803  -15.4973   25.6765 N   0  0  0  0  0  0  0  0  0  0  0  0
    9.1723  -14.7751   27.4570 C   0  0  0  0  0  0  0  0  0  0  0  0
    9.0290  -16.0121   28.1378 O   0  0  0  0  0  0  0  0  0  0  0  0
   10.0708  -14.0535   27.8497 O   0  0  0  0  0  0  0  0  0  0  0  0
  2  1  1  6
  2  3  1  0
  3  4  1  0
  4  5  1  0
  5  6  2  0
  7  8  2  0
  7  2  1  0
  9  5  1  0
 10 11  1  0
 11 13  1  0
 12 11  2  0
 13 14  1  0
 15 14  1  1
 15 16  1  0
 16  7  1  0
 17 18  2  0
 17 15  1  0
 20 19  1  0
 21 20  1  0
 21 22  1  6
 23 24  1  1
 23 21  1  0
 24 17  1  0
 25 23  1  0
 26 25  1  0
 27 25  2  0
M  END
$$$$
