EQI.pdb
     RDKit          3D

 27 26  0  0  1  0  0  0  0  0999 V2000
    4.9197  -18.0403   20.3374 N   0  0  0  0  0  0  0  0  0  0  0  0
    6.2515  -18.0606   20.8704 C   0  0  1  0  0  0  0  0  0  0  0  0
    7.2442  -17.2516   20.1230 C   0  0  0  0  0  0  0  0  0  0  0  0
    7.4477  -17.6527   18.6955 C   0  0  0  0  0  0  0  0  0  0  0  0
    8.3589  -16.8004   17.9363 C   0  0  0  0  0  0  0  0  0  0  0  0
    9.0515  -15.9228   18.4650 O   0  0  0  0  0  0  0  0  0  0  0  0
    6.2398  -17.6789   22.3372 C   0  0  0  0  0  0  0  0  0  0  0  0
    5.5013  -16.7270   22.6678 O   0  0  0  0  0  0  0  0  0  0  0  0
    8.4553  -16.9794   16.5489 O   0  0  0  0  0  0  0  0  0  0  0  0
    8.5467  -20.3812   28.3228 N   0  0  0  0  0  0  0  0  0  0  0  0
    7.2503  -19.9069   27.9634 C   0  0  0  0  0  0  0  0  0  0  0  0
    6.2395  -20.4572   28.4195 O   0  0  0  0  0  0  0  0  0  0  0  0
    7.2382  -18.7239   27.0224 C   0  0  0  0  0  0  0  0  0  0  0  0
    7.1655  -19.2154   25.6178 C   0  0  0  0  0  0  0  0  0  0  0  0
    7.1161  -18.0663   24.6537 C   0  0  2  0  0  0  0  0  0  0  0  0
    7.0369  -18.3892   23.2640 N   0  0  0  0  0  0  0  0  0  0  0  0
    8.0628  -16.9667   24.9737 C   0  0  0  0  0  0  0  0  0  0  0  0
    9.2125  -17.1132   24.5346 O   0  0  0  0  0  0  0  0  0  0  0  0
    5.4849  -12.1738   26.0146 C   0  0  0  0  0  0  0  0  0  0  0  0
    6.4928  -13.2163   25.6051 C   0  0  0  0  0  0  0  0  0  0  0  0
    7.3888  -13.6573   26.7570 C   0  0  2  0  0  0  0  0  0  0  0  0
    8.2356  -12.5305   27.2624 C   0  0  0  0  0  0  0  0  0  0  0  0
    8.3161  -14.7761   26.3092 C   0  0  2  0  0  0  0  0  0  0  0  0
    7.6359  -15.8646   25.7201 N   0  0  0  0  0  0  0  0  0  0  0  0
    9.3761  -15.0267   27.2999 C   0  0  0  0  0  0  0  0  0  0  0  0
    9.3431  -16.2280   28.0550 O   0  0  0  0  0  0  0  0  0  0  0  0
   10.3036  -14.2750   27.5381 O   0  0  0  0  0  0  0  0  0  0  0  0
  2  1  1  6
  2  3  1  0
  3  4  1  0
  4  5  1  0
  5  6  2  0
  7  8  2  0
  7  2  1  0
  9  5  1  0
 10 11  1  0
 11 13  1  0
 12 11  2  0
 13 14  1  0
 15 14  1  1
 15 16  1  0
 16  7  1  0
 17 18  2  0
 17 15  1  0
 20 19  1  0
 21 20  1  0
 21 22  1  6
 23 24  1  1
 23 21  1  0
 24 17  1  0
 25 23  1  0
 26 25  1  0
 27 25  2  0
M  END
$$$$
