VDW.pdb
     RDKit          3D

 30 31  0  0  1  0  0  0  0  0999 V2000
    8.4045  -12.0481   19.0228 C   0  0  0  0  0  0  0  0  0  0  0  0
    8.4609  -13.1858   19.9983 C   0  0  1  0  0  0  0  0  0  0  0  0
    7.2073  -13.2292   20.8375 C   0  0  0  0  0  0  0  0  0  0  0  0
    8.6345  -14.5216   19.3310 C   0  0  2  0  0  0  0  0  0  0  0  0
    7.6074  -14.6695   18.3194 N   0  0  0  0  0  0  0  0  0  0  0  0
    8.6610  -15.6630   20.2549 C   0  0  0  0  0  0  0  0  0  0  0  0
    8.0769  -16.7370   19.9390 O   0  0  0  0  0  0  0  0  0  0  0  0
    9.3130  -15.6670   21.5272 N   0  0  0  0  0  0  0  0  0  0  0  0
    9.6601  -16.8706   22.2387 C   0  0  1  0  0  0  0  0  0  0  0  0
   10.4507  -17.8150   21.3803 C   0  0  0  0  0  0  0  0  0  0  0  0
   10.7524  -19.0789   22.0570 C   0  0  0  0  0  0  0  0  0  0  0  0
    9.9846  -20.0892   22.0530 O   0  0  0  0  0  0  0  0  0  0  0  0
   10.3494  -16.6007   23.5133 C   0  0  0  0  0  0  0  0  0  0  0  0
   11.5641  -16.3019   23.5189 O   0  0  0  0  0  0  0  0  0  0  0  0
   11.9406  -19.2685   22.7755 O   0  0  0  0  0  0  0  0  0  0  0  0
    9.6210  -16.6833   24.7254 N   0  0  0  0  0  0  0  0  0  0  0  0
   10.2783  -16.5473   26.0116 C   0  0  1  0  0  0  0  0  0  0  0  0
    9.6548  -15.4267   26.7844 C   0  0  0  0  0  0  0  0  0  0  0  0
    8.2872  -15.0907   26.3450 C   0  0  0  0  0  0  0  0  0  0  0  0
    7.3275  -16.0022   25.9779 C   0  0  0  0  0  0  0  0  0  0  0  0
    6.2086  -15.3495   25.6396 N   0  0  0  0  0  0  0  0  0  0  0  0
    6.4204  -14.0145   25.7798 C   0  0  0  0  0  0  0  0  0  0  0  0
    5.5706  -12.9395   25.5535 C   0  0  0  0  0  0  0  0  0  0  0  0
    6.0340  -11.6625   25.7742 C   0  0  0  0  0  0  0  0  0  0  0  0
    7.3325  -11.5080   26.2142 C   0  0  0  0  0  0  0  0  0  0  0  0
    8.1834  -12.5572   26.4424 C   0  0  0  0  0  0  0  0  0  0  0  0
    7.7146  -13.8501   26.2189 C   0  0  0  0  0  0  0  0  0  0  0  0
   10.1417  -17.8279   26.7991 C   0  0  0  0  0  0  0  0  0  0  0  0
    9.3388  -18.7168   26.4349 O   0  0  0  0  0  0  0  0  0  0  0  0
   10.9023  -18.0338   27.9321 O   0  0  0  0  0  0  0  0  0  0  0  0
  2  1  1  6
  3  2  1  0
  4  5  1  6
  4  2  1  0
  6  4  1  0
  7  6  2  0
  8  6  1  0
  9 10  1  6
  9  8  1  0
 10 11  1  0
 11 12  2  0
 13  9  1  0
 14 13  2  0
 15 11  1  0
 16 13  1  0
 17 18  1  1
 17 16  1  0
 18 19  1  0
 19 20  2  0
 19 27  1  0
 20 21  1  0
 21 22  1  0
 22 23  2  0
 24 23  1  0
 25 24  2  0
 26 27  2  0
 26 25  1  0
 27 22  1  0
 28 30  1  0
 28 17  1  0
 29 28  2  0
M  END
$$$$
