VDW.pdb
     RDKit          3D

 30 31  0  0  1  0  0  0  0  0999 V2000
    9.0904  -12.7453   21.0794 C   0  0  0  0  0  0  0  0  0  0  0  0
    7.8603  -13.3634   20.4844 C   0  0  1  0  0  0  0  0  0  0  0  0
    7.4012  -12.5794   19.2792 C   0  0  0  0  0  0  0  0  0  0  0  0
    8.0642  -14.7946   20.0727 C   0  0  2  0  0  0  0  0  0  0  0  0
    6.8645  -15.2587   19.4050 N   0  0  0  0  0  0  0  0  0  0  0  0
    8.4631  -15.6902   21.1663 C   0  0  0  0  0  0  0  0  0  0  0  0
    7.5951  -16.1015   21.9860 O   0  0  0  0  0  0  0  0  0  0  0  0
    9.7956  -16.1550   21.3943 N   0  0  0  0  0  0  0  0  0  0  0  0
   10.1484  -17.0705   22.4492 C   0  0  1  0  0  0  0  0  0  0  0  0
   11.3120  -17.9382   22.0657 C   0  0  0  0  0  0  0  0  0  0  0  0
   11.1188  -18.6091   20.7777 C   0  0  0  0  0  0  0  0  0  0  0  0
   10.0260  -19.1368   20.4071 O   0  0  0  0  0  0  0  0  0  0  0  0
   10.3869  -16.3928   23.7362 C   0  0  0  0  0  0  0  0  0  0  0  0
   11.0363  -15.3242   23.7719 O   0  0  0  0  0  0  0  0  0  0  0  0
   12.1528  -18.7193   19.8381 O   0  0  0  0  0  0  0  0  0  0  0  0
    9.8728  -16.9649   24.9257 N   0  0  0  0  0  0  0  0  0  0  0  0
   10.4765  -16.6922   26.2165 C   0  0  1  0  0  0  0  0  0  0  0  0
   10.0142  -15.3608   26.7221 C   0  0  0  0  0  0  0  0  0  0  0  0
    8.5941  -15.0786   26.4397 C   0  0  0  0  0  0  0  0  0  0  0  0
    7.6546  -16.0179   26.0908 C   0  0  0  0  0  0  0  0  0  0  0  0
    6.4740  -15.4125   25.9113 N   0  0  0  0  0  0  0  0  0  0  0  0
    6.6250  -14.0812   26.1383 C   0  0  0  0  0  0  0  0  0  0  0  0
    5.6996  -13.0472   26.0790 C   0  0  0  0  0  0  0  0  0  0  0  0
    6.1116  -11.7640   26.3579 C   0  0  0  0  0  0  0  0  0  0  0  0
    7.4362  -11.5624   26.6867 C   0  0  0  0  0  0  0  0  0  0  0  0
    8.3616  -12.5709   26.7499 C   0  0  0  0  0  0  0  0  0  0  0  0
    7.9447  -13.8701   26.4675 C   0  0  0  0  0  0  0  0  0  0  0  0
   10.0833  -17.7616   27.2067 C   0  0  0  0  0  0  0  0  0  0  0  0
    9.3038  -18.6827   26.8730 O   0  0  0  0  0  0  0  0  0  0  0  0
   10.5798  -17.7359   28.4940 O   0  0  0  0  0  0  0  0  0  0  0  0
  2  1  1  6
  3  2  1  0
  4  5  1  1
  4  2  1  0
  6  4  1  0
  7  6  2  0
  8  6  1  0
  9 10  1  6
  9  8  1  0
 10 11  1  0
 11 12  2  0
 13  9  1  0
 14 13  2  0
 15 11  1  0
 16 13  1  0
 17 18  1  1
 17 16  1  0
 18 19  1  0
 19 20  2  0
 19 27  1  0
 20 21  1  0
 21 22  1  0
 22 23  2  0
 24 23  1  0
 25 24  2  0
 26 27  2  0
 26 25  1  0
 27 22  1  0
 28 30  1  0
 28 17  1  0
 29 28  2  0
M  END
$$$$
