VDW.pdb
     RDKit          3D

 30 31  0  0  1  0  0  0  0  0999 V2000
    7.6816  -12.4818   19.5361 C   0  0  0  0  0  0  0  0  0  0  0  0
    8.1493  -13.4140   20.6138 C   0  0  1  0  0  0  0  0  0  0  0  0
    7.2678  -13.3010   21.8337 C   0  0  0  0  0  0  0  0  0  0  0  0
    8.1742  -14.8514   20.1750 C   0  0  2  0  0  0  0  0  0  0  0  0
    6.8506  -15.2155   19.7101 N   0  0  0  0  0  0  0  0  0  0  0  0
    8.6743  -15.7877   21.1901 C   0  0  0  0  0  0  0  0  0  0  0  0
    7.8559  -16.4398   21.8969 O   0  0  0  0  0  0  0  0  0  0  0  0
   10.0561  -16.0359   21.4598 N   0  0  0  0  0  0  0  0  0  0  0  0
   10.5166  -16.9944   22.4317 C   0  0  1  0  0  0  0  0  0  0  0  0
   11.8273  -17.6066   22.0304 C   0  0  0  0  0  0  0  0  0  0  0  0
   12.2397  -18.6964   22.9185 C   0  0  0  0  0  0  0  0  0  0  0  0
   11.4825  -19.6512   23.2724 O   0  0  0  0  0  0  0  0  0  0  0  0
   10.5804  -16.4381   23.7951 C   0  0  0  0  0  0  0  0  0  0  0  0
   11.2229  -15.3875   24.0148 O   0  0  0  0  0  0  0  0  0  0  0  0
   13.5327  -18.7651   23.4548 O   0  0  0  0  0  0  0  0  0  0  0  0
    9.9072  -17.1057   24.8475 N   0  0  0  0  0  0  0  0  0  0  0  0
   10.0149  -16.6505   26.2209 C   0  0  1  0  0  0  0  0  0  0  0  0
    8.6722  -16.7064   26.8811 C   0  0  0  0  0  0  0  0  0  0  0  0
    7.6962  -15.7503   26.3247 C   0  0  0  0  0  0  0  0  0  0  0  0
    6.6224  -16.0844   25.5360 C   0  0  0  0  0  0  0  0  0  0  0  0
    5.9514  -14.9716   25.2136 N   0  0  0  0  0  0  0  0  0  0  0  0
    6.5724  -13.9049   25.7821 C   0  0  0  0  0  0  0  0  0  0  0  0
    6.2590  -12.5526   25.7391 C   0  0  0  0  0  0  0  0  0  0  0  0
    7.0611  -11.6583   26.4108 C   0  0  0  0  0  0  0  0  0  0  0  0
    8.1487  -12.1509   27.1020 C   0  0  0  0  0  0  0  0  0  0  0  0
    8.4718  -13.4814   27.1548 C   0  0  0  0  0  0  0  0  0  0  0  0
    7.6600  -14.3869   26.4747 C   0  0  0  0  0  0  0  0  0  0  0  0
   10.9778  -17.5293   26.9820 C   0  0  0  0  0  0  0  0  0  0  0  0
   11.4921  -18.5319   26.4365 O   0  0  0  0  0  0  0  0  0  0  0  0
   11.3027  -17.2367   28.2909 O   0  0  0  0  0  0  0  0  0  0  0  0
  2  1  1  6
  3  2  1  0
  4  5  1  1
  4  2  1  0
  6  4  1  0
  7  6  2  0
  8  6  1  0
  9 10  1  6
  9  8  1  0
 10 11  1  0
 11 12  2  0
 13  9  1  0
 14 13  2  0
 15 11  1  0
 16 13  1  0
 17 18  1  1
 17 16  1  0
 18 19  1  0
 19 20  2  0
 19 27  1  0
 20 21  1  0
 21 22  1  0
 22 23  2  0
 24 23  1  0
 25 24  2  0
 26 27  2  0
 26 25  1  0
 27 22  1  0
 28 30  1  0
 28 17  1  0
 29 28  2  0
M  END
$$$$
