VDW.pdb
     RDKit          3D

 30 31  0  0  1  0  0  0  0  0999 V2000
    7.8960  -12.6489   19.2770 C   0  0  0  0  0  0  0  0  0  0  0  0
    8.2879  -13.4871   20.4573 C   0  0  1  0  0  0  0  0  0  0  0  0
    7.4847  -13.0993   21.6748 C   0  0  0  0  0  0  0  0  0  0  0  0
    8.1070  -14.9597   20.2160 C   0  0  2  0  0  0  0  0  0  0  0  0
    6.7209  -15.2044   19.8708 N   0  0  0  0  0  0  0  0  0  0  0  0
    8.5548  -15.8159   21.3222 C   0  0  0  0  0  0  0  0  0  0  0  0
    7.7159  -16.2348   22.1680 O   0  0  0  0  0  0  0  0  0  0  0  0
    9.9056  -16.2326   21.5351 N   0  0  0  0  0  0  0  0  0  0  0  0
   10.2987  -17.1578   22.5671 C   0  0  1  0  0  0  0  0  0  0  0  0
   11.5482  -17.9037   22.1980 C   0  0  0  0  0  0  0  0  0  0  0  0
   11.3652  -18.7763   21.0355 C   0  0  0  0  0  0  0  0  0  0  0  0
   10.3455  -19.5079   20.8484 O   0  0  0  0  0  0  0  0  0  0  0  0
   10.4278  -16.5170   23.8882 C   0  0  0  0  0  0  0  0  0  0  0  0
   11.1000  -15.4696   24.0146 O   0  0  0  0  0  0  0  0  0  0  0  0
   12.3271  -18.8684   20.0204 O   0  0  0  0  0  0  0  0  0  0  0  0
    9.7833  -17.1003   25.0066 N   0  0  0  0  0  0  0  0  0  0  0  0
   10.0673  -16.6554   26.3581 C   0  0  1  0  0  0  0  0  0  0  0  0
    8.7992  -16.6037   27.1525 C   0  0  0  0  0  0  0  0  0  0  0  0
    7.8223  -15.6197   26.6490 C   0  0  0  0  0  0  0  0  0  0  0  0
    6.7396  -15.9137   25.8564 C   0  0  0  0  0  0  0  0  0  0  0  0
    6.0706  -14.7849   25.5908 N   0  0  0  0  0  0  0  0  0  0  0  0
    6.7015  -13.7474   26.2008 C   0  0  0  0  0  0  0  0  0  0  0  0
    6.3935  -12.3932   26.2217 C   0  0  0  0  0  0  0  0  0  0  0  0
    7.2057  -11.5333   26.9253 C   0  0  0  0  0  0  0  0  0  0  0  0
    8.2976  -12.0608   27.5833 C   0  0  0  0  0  0  0  0  0  0  0  0
    8.6154  -13.3935   27.5730 C   0  0  0  0  0  0  0  0  0  0  0  0
    7.7933  -14.2643   26.8606 C   0  0  0  0  0  0  0  0  0  0  0  0
   11.0301  -17.6086   27.0238 C   0  0  0  0  0  0  0  0  0  0  0  0
   11.3849  -18.6615   26.4467 O   0  0  0  0  0  0  0  0  0  0  0  0
   11.5312  -17.3295   28.2789 O   0  0  0  0  0  0  0  0  0  0  0  0
  2  1  1  6
  3  2  1  0
  4  5  1  1
  4  2  1  0
  6  4  1  0
  7  6  2  0
  8  6  1  0
  9 10  1  6
  9  8  1  0
 10 11  1  0
 11 12  2  0
 13  9  1  0
 14 13  2  0
 15 11  1  0
 16 13  1  0
 17 18  1  1
 17 16  1  0
 18 19  1  0
 19 20  2  0
 19 27  1  0
 20 21  1  0
 21 22  1  0
 22 23  2  0
 24 23  1  0
 25 24  2  0
 26 27  2  0
 26 25  1  0
 27 22  1  0
 28 30  1  0
 28 17  1  0
 29 28  2  0
M  END
$$$$
