VDW.pdb
     RDKit          3D

 30 31  0  0  1  0  0  0  0  0999 V2000
    7.7812  -12.4646   19.5798 C   0  0  0  0  0  0  0  0  0  0  0  0
    8.3319  -13.4780   20.5384 C   0  0  1  0  0  0  0  0  0  0  0  0
    7.6261  -13.3892   21.8694 C   0  0  0  0  0  0  0  0  0  0  0  0
    8.2164  -14.8881   20.0306 C   0  0  2  0  0  0  0  0  0  0  0  0
    6.8337  -15.1399   19.6767 N   0  0  0  0  0  0  0  0  0  0  0  0
    8.7411  -15.9087   20.9473 C   0  0  0  0  0  0  0  0  0  0  0  0
    7.9540  -16.5096   21.7308 O   0  0  0  0  0  0  0  0  0  0  0  0
   10.1142  -16.2966   21.0354 N   0  0  0  0  0  0  0  0  0  0  0  0
   10.6134  -17.2386   22.0045 C   0  0  1  0  0  0  0  0  0  0  0  0
   11.8327  -17.9572   21.5037 C   0  0  0  0  0  0  0  0  0  0  0  0
   11.6382  -18.5474   20.1770 C   0  0  0  0  0  0  0  0  0  0  0  0
   12.2172  -18.1386   19.1245 O   0  0  0  0  0  0  0  0  0  0  0  0
   10.8565  -16.6255   23.3227 C   0  0  0  0  0  0  0  0  0  0  0  0
   11.6292  -15.6473   23.4269 O   0  0  0  0  0  0  0  0  0  0  0  0
   10.7771  -19.6335   19.9690 O   0  0  0  0  0  0  0  0  0  0  0  0
   10.2062  -17.1563   24.4637 N   0  0  0  0  0  0  0  0  0  0  0  0
   10.4563  -16.6249   25.7903 C   0  0  1  0  0  0  0  0  0  0  0  0
   10.1510  -15.1593   25.8160 C   0  0  0  0  0  0  0  0  0  0  0  0
    8.7115  -14.8504   25.7241 C   0  0  0  0  0  0  0  0  0  0  0  0
    7.7231  -15.7614   25.4413 C   0  0  0  0  0  0  0  0  0  0  0  0
    6.5385  -15.1376   25.4397 N   0  0  0  0  0  0  0  0  0  0  0  0
    6.7352  -13.8223   25.7190 C   0  0  0  0  0  0  0  0  0  0  0  0
    5.8247  -12.7793   25.8290 C   0  0  0  0  0  0  0  0  0  0  0  0
    6.2861  -11.5170   26.1254 C   0  0  0  0  0  0  0  0  0  0  0  0
    7.6436  -11.3446   26.3013 C   0  0  0  0  0  0  0  0  0  0  0  0
    8.5549  -12.3623   26.1965 C   0  0  0  0  0  0  0  0  0  0  0  0
    8.0880  -13.6403   25.8964 C   0  0  0  0  0  0  0  0  0  0  0  0
    9.5850  -17.3299   26.8015 C   0  0  0  0  0  0  0  0  0  0  0  0
    8.7118  -18.1466   26.4303 O   0  0  0  0  0  0  0  0  0  0  0  0
    9.7416  -17.0815   28.1500 O   0  0  0  0  0  0  0  0  0  0  0  0
  2  1  1  6
  3  2  1  0
  4  5  1  1
  4  2  1  0
  6  4  1  0
  7  6  2  0
  8  6  1  0
  9 10  1  6
  9  8  1  0
 10 11  1  0
 11 12  2  0
 13  9  1  0
 14 13  2  0
 15 11  1  0
 16 13  1  0
 17 18  1  6
 17 16  1  0
 18 19  1  0
 19 20  2  0
 19 27  1  0
 20 21  1  0
 21 22  1  0
 22 23  2  0
 24 23  1  0
 25 24  2  0
 26 27  2  0
 26 25  1  0
 27 22  1  0
 28 30  1  0
 28 17  1  0
 29 28  2  0
M  END
$$$$
