VDW.pdb
     RDKit          3D

 30 31  0  0  1  0  0  0  0  0999 V2000
    7.7965  -12.3088   19.4373 C   0  0  0  0  0  0  0  0  0  0  0  0
    8.3131  -13.3277   20.4089 C   0  0  1  0  0  0  0  0  0  0  0  0
    7.4166  -13.4095   21.6203 C   0  0  0  0  0  0  0  0  0  0  0  0
    8.4316  -14.7013   19.8098 C   0  0  2  0  0  0  0  0  0  0  0  0
    7.1847  -15.0248   19.1457 N   0  0  0  0  0  0  0  0  0  0  0  0
    8.8321  -15.7463   20.7610 C   0  0  0  0  0  0  0  0  0  0  0  0
    7.9508  -16.3511   21.4333 O   0  0  0  0  0  0  0  0  0  0  0  0
   10.1805  -16.1548   21.0030 N   0  0  0  0  0  0  0  0  0  0  0  0
   10.5611  -17.0505   22.0652 C   0  0  1  0  0  0  0  0  0  0  0  0
   11.7707  -17.8618   21.7011 C   0  0  0  0  0  0  0  0  0  0  0  0
   11.6188  -18.5651   20.4249 C   0  0  0  0  0  0  0  0  0  0  0  0
   10.6229  -19.2932   20.1279 O   0  0  0  0  0  0  0  0  0  0  0  0
   10.7474  -16.3599   23.3540 C   0  0  0  0  0  0  0  0  0  0  0  0
   11.5808  -15.4324   23.4542 O   0  0  0  0  0  0  0  0  0  0  0  0
   12.5863  -18.4823   19.4144 O   0  0  0  0  0  0  0  0  0  0  0  0
    9.9735  -16.7586   24.4714 N   0  0  0  0  0  0  0  0  0  0  0  0
   10.4532  -16.5699   25.8276 C   0  0  1  0  0  0  0  0  0  0  0  0
    9.9763  -15.2527   26.3561 C   0  0  0  0  0  0  0  0  0  0  0  0
    8.5191  -15.0568   26.2365 C   0  0  0  0  0  0  0  0  0  0  0  0
    7.6065  -16.0483   25.9704 C   0  0  0  0  0  0  0  0  0  0  0  0
    6.3784  -15.5164   25.9342 N   0  0  0  0  0  0  0  0  0  0  0  0
    6.4712  -14.1820   26.1741 C   0  0  0  0  0  0  0  0  0  0  0  0
    5.4832  -13.2082   26.2395 C   0  0  0  0  0  0  0  0  0  0  0  0
    5.8437  -11.9060   26.5013 C   0  0  0  0  0  0  0  0  0  0  0  0
    7.1816  -11.6259   26.6886 C   0  0  0  0  0  0  0  0  0  0  0  0
    8.1684  -12.5743   26.6276 C   0  0  0  0  0  0  0  0  0  0  0  0
    7.8037  -13.8927   26.3625 C   0  0  0  0  0  0  0  0  0  0  0  0
    9.9374  -17.6759   26.7161 C   0  0  0  0  0  0  0  0  0  0  0  0
    9.1254  -18.5206   26.2751 O   0  0  0  0  0  0  0  0  0  0  0  0
   10.3564  -17.7686   28.0278 O   0  0  0  0  0  0  0  0  0  0  0  0
  2  1  1  6
  3  2  1  0
  4  5  1  1
  4  2  1  0
  6  4  1  0
  7  6  2  0
  8  6  1  0
  9 10  1  6
  9  8  1  0
 10 11  1  0
 11 12  2  0
 13  9  1  0
 14 13  2  0
 15 11  1  0
 16 13  1  0
 17 18  1  1
 17 16  1  0
 18 19  1  0
 19 20  2  0
 19 27  1  0
 20 21  1  0
 21 22  1  0
 22 23  2  0
 24 23  1  0
 25 24  2  0
 26 27  2  0
 26 25  1  0
 27 22  1  0
 28 30  1  0
 28 17  1  0
 29 28  2  0
M  END
$$$$
