ECL.pdb
     RDKit          3D

 24 23  0  0  1  0  0  0  0  0999 V2000
   25.8828  -19.3524  -17.0506 N   0  0  0  0  0  0  0  0  0  0  0  0
   26.4291  -20.0263  -15.8895 C   0  0  1  0  0  0  0  0  0  0  0  0
   27.9046  -19.7046  -15.8087 C   0  0  0  0  0  0  0  0  0  0  0  0
   28.5809  -20.9083  -15.1871 C   0  0  0  0  0  0  0  0  0  0  0  0
   28.7906  -21.9883  -16.1689 C   0  0  0  0  0  0  0  0  0  0  0  0
   28.9055  -21.7066  -17.3869 O   0  0  0  0  0  0  0  0  0  0  0  0
   25.6856  -19.6001  -14.6992 C   0  0  0  0  0  0  0  0  0  0  0  0
   25.1198  -18.4941  -14.6955 O   0  0  0  0  0  0  0  0  0  0  0  0
   28.8673  -23.3180  -15.7977 O   0  0  0  0  0  0  0  0  0  0  0  0
   25.5631  -20.3857  -13.5169 N   0  0  0  0  0  0  0  0  0  0  0  0
   24.7900  -20.0749  -12.3695 C   0  0  1  0  0  0  0  0  0  0  0  0
   23.3125  -20.2843  -12.5264 C   0  0  0  0  0  0  0  0  0  0  0  0
   22.8472  -21.0447  -14.0818 S   0  0  0  0  0  0  0  0  0  0  0  0
   25.3323  -20.7520  -11.1754 C   0  0  0  0  0  0  0  0  0  0  0  0
   25.3710  -22.0067  -11.1650 O   0  0  0  0  0  0  0  0  0  0  0  0
   28.8841  -20.5972   -8.6371 C   0  0  0  0  0  0  0  0  0  0  0  0
   28.0727  -20.2386   -7.4133 C   0  0  1  0  0  0  0  0  0  0  0  0
   28.7664  -19.2340   -6.5541 C   0  0  0  0  0  0  0  0  0  0  0  0
   26.6681  -19.8498   -7.7152 C   0  0  0  0  0  0  0  0  0  0  0  0
   25.9577  -20.6699   -8.7329 C   0  0  2  0  0  0  0  0  0  0  0  0
   25.8163  -20.0672  -10.0285 N   0  0  0  0  0  0  0  0  0  0  0  0
   24.6258  -21.0530   -8.1632 C   0  0  0  0  0  0  0  0  0  0  0  0
   23.6002  -20.5668   -8.6880 O   0  0  0  0  0  0  0  0  0  0  0  0
   24.4941  -21.9106   -7.0956 O   0  0  0  0  0  0  0  0  0  0  0  0
  2  1  1  6
  2  7  1  0
  3  2  1  0
  3  4  1  0
  4  5  1  0
  5  6  2  0
  5  9  1  0
  7  8  2  0
 10  7  1  0
 10 11  1  0
 11 14  1  0
 11 12  1  6
 13 12  1  0
 14 21  1  0
 15 14  2  0
 17 16  1  6
 18 17  1  0
 19 17  1  0
 20 19  1  1
 21 20  1  0
 22 24  1  0
 22 20  1  0
 23 22  2  0
M  END
$$$$
