ECL.pdb
     RDKit          3D

 24 23  0  0  1  0  0  0  0  0999 V2000
   23.8629  -19.9971  -15.7038 N   0  0  0  0  0  0  0  0  0  0  0  0
   22.8472  -19.0395  -16.0935 C   0  0  1  0  0  0  0  0  0  0  0  0
   21.7662  -19.0426  -15.0359 C   0  0  0  0  0  0  0  0  0  0  0  0
   21.2532  -20.4639  -14.9396 C   0  0  0  0  0  0  0  0  0  0  0  0
   19.9481  -20.5317  -14.2565 C   0  0  0  0  0  0  0  0  0  0  0  0
   18.9829  -19.8583  -14.6934 O   0  0  0  0  0  0  0  0  0  0  0  0
   23.4746  -17.7249  -16.2651 C   0  0  0  0  0  0  0  0  0  0  0  0
   22.7836  -16.7617  -16.6368 O   0  0  0  0  0  0  0  0  0  0  0  0
   19.7408  -21.3181  -13.1383 O   0  0  0  0  0  0  0  0  0  0  0  0
   24.8560  -17.4683  -16.0288 N   0  0  0  0  0  0  0  0  0  0  0  0
   25.5052  -16.2086  -16.0833 C   0  0  1  0  0  0  0  0  0  0  0  0
   26.8549  -16.1638  -15.4294 C   0  0  0  0  0  0  0  0  0  0  0  0
   26.9666  -17.1327  -13.9253 S   0  0  0  0  0  0  0  0  0  0  0  0
   25.5305  -15.6937  -17.4662 C   0  0  0  0  0  0  0  0  0  0  0  0
   25.7880  -16.4944  -18.3981 O   0  0  0  0  0  0  0  0  0  0  0  0
   21.6228  -15.4539  -20.1981 C   0  0  0  0  0  0  0  0  0  0  0  0
   23.1162  -15.3548  -19.9876 C   0  0  1  0  0  0  0  0  0  0  0  0
   23.8840  -15.8833  -21.1537 C   0  0  0  0  0  0  0  0  0  0  0  0
   23.5772  -14.0013  -19.5744 C   0  0  0  0  0  0  0  0  0  0  0  0
   24.9968  -13.8874  -19.1444 C   0  0  2  0  0  0  0  0  0  0  0  0
   25.2805  -14.3383  -17.8110 N   0  0  0  0  0  0  0  0  0  0  0  0
   25.4207  -12.4634  -19.3385 C   0  0  0  0  0  0  0  0  0  0  0  0
   25.1932  -11.6512  -18.4153 O   0  0  0  0  0  0  0  0  0  0  0  0
   26.0440  -12.0241  -20.4836 O   0  0  0  0  0  0  0  0  0  0  0  0
  2  1  1  1
  2  7  1  0
  3  2  1  0
  3  4  1  0
  4  5  1  0
  5  6  2  0
  5  9  1  0
  7  8  2  0
 10  7  1  0
 10 11  1  0
 11 14  1  0
 11 12  1  6
 13 12  1  0
 14 21  1  0
 15 14  2  0
 17 16  1  6
 18 17  1  0
 19 17  1  0
 20 19  1  1
 21 20  1  0
 22 24  1  0
 22 20  1  0
 23 22  2  0
M  END
$$$$
