ECL.pdb
     RDKit          3D

 24 23  0  0  1  0  0  0  0  0999 V2000
   17.8467  -15.1559  -15.9727 N   0  0  0  0  0  0  0  0  0  0  0  0
   18.1685  -14.8689  -17.3564 C   0  0  1  0  0  0  0  0  0  0  0  0
   17.0220  -15.3513  -18.2166 C   0  0  0  0  0  0  0  0  0  0  0  0
   16.0324  -16.0240  -17.2888 C   0  0  0  0  0  0  0  0  0  0  0  0
   14.8506  -15.1781  -17.0395 C   0  0  0  0  0  0  0  0  0  0  0  0
   14.2411  -14.6619  -18.0081 O   0  0  0  0  0  0  0  0  0  0  0  0
   18.4223  -13.4312  -17.4968 C   0  0  0  0  0  0  0  0  0  0  0  0
   18.8248  -12.9848  -18.5840 O   0  0  0  0  0  0  0  0  0  0  0  0
   14.3792  -14.9266  -15.7642 O   0  0  0  0  0  0  0  0  0  0  0  0
   18.2344  -12.4863  -16.4470 N   0  0  0  0  0  0  0  0  0  0  0  0
   18.4884  -11.0924  -16.5062 C   0  0  1  0  0  0  0  0  0  0  0  0
   17.3004  -10.2203  -16.2245 C   0  0  0  0  0  0  0  0  0  0  0  0
   17.5369   -9.0904  -14.8528 S   0  0  0  0  0  0  0  0  0  0  0  0
   19.6573  -10.7391  -15.6772 C   0  0  0  0  0  0  0  0  0  0  0  0
   19.7574  -11.2507  -14.5353 O   0  0  0  0  0  0  0  0  0  0  0  0
   24.6401  -10.3083  -13.9261 C   0  0  0  0  0  0  0  0  0  0  0  0
   24.3563   -9.4440  -15.1332 C   0  0  1  0  0  0  0  0  0  0  0  0
   25.5571   -9.2869  -16.0061 C   0  0  0  0  0  0  0  0  0  0  0  0
   23.1505   -9.8591  -15.9005 C   0  0  0  0  0  0  0  0  0  0  0  0
   21.8329   -9.5195  -15.2991 C   0  0  2  0  0  0  0  0  0  0  0  0
   20.6833   -9.8490  -16.0939 N   0  0  0  0  0  0  0  0  0  0  0  0
   21.8520   -8.0628  -14.9486 C   0  0  0  0  0  0  0  0  0  0  0  0
   22.6471   -7.6819  -14.0618 O   0  0  0  0  0  0  0  0  0  0  0  0
   21.0347   -7.1411  -15.5612 O   0  0  0  0  0  0  0  0  0  0  0  0
  2  1  1  1
  2  7  1  0
  3  2  1  0
  3  4  1  0
  4  5  1  0
  5  6  2  0
  5  9  1  0
  7  8  2  0
 10  7  1  0
 10 11  1  0
 11 14  1  0
 11 12  1  1
 13 12  1  0
 14 21  1  0
 15 14  2  0
 17 16  1  1
 18 17  1  0
 19 17  1  0
 20 19  1  6
 21 20  1  0
 22 24  1  0
 22 20  1  0
 23 22  2  0
M  END
$$$$
