SME.pdb
     RDKit          3D

 24 23  0  0  1  0  0  0  0  0999 V2000
   19.0549  -10.0018  -21.9168 O   0  0  0  0  0  0  0  0  0  0  0  0
   19.1067   -9.7133  -20.5755 C   0  0  0  0  0  0  0  0  0  0  0  0
   20.1599  -10.4749  -19.8287 C   0  0  2  0  0  0  0  0  0  0  0  0
   19.9410  -11.8767  -19.7536 N   0  0  0  0  0  0  0  0  0  0  0  0
   20.3416   -9.9417  -18.4467 C   0  0  0  0  0  0  0  0  0  0  0  0
   19.4447  -10.0837  -17.5594 O   0  0  0  0  0  0  0  0  0  0  0  0
   22.1512   -9.3833  -12.0323 C   0  0  0  0  0  0  0  0  0  0  0  0
   21.8815   -9.7720  -13.7805 S   0  0  0  0  0  0  0  0  0  0  0  0
   23.2134   -9.0455  -14.7688 C   0  0  0  0  0  0  0  0  0  0  0  0
   23.0714   -9.4102  -16.2306 C   0  0  0  0  0  0  0  0  0  0  0  0
   21.7813   -8.7648  -16.7206 C   0  0  2  0  0  0  0  0  0  0  0  0
   21.5211   -9.2529  -18.0595 N   0  0  0  0  0  0  0  0  0  0  0  0
   21.8952   -7.2688  -16.7155 C   0  0  0  0  0  0  0  0  0  0  0  0
   22.6614   -6.6956  -17.5178 O   0  0  0  0  0  0  0  0  0  0  0  0
   21.1293   -6.5233  -15.7965 N   0  0  0  0  0  0  0  0  0  0  0  0
   21.1945   -5.0714  -15.7197 C   0  0  1  0  0  0  0  0  0  0  0  0
   19.8013   -4.5102  -15.6525 C   0  0  0  0  0  0  0  0  0  0  0  0
   19.7666   -3.0272  -15.4963 C   0  0  0  0  0  0  0  0  0  0  0  0
   18.4074   -2.4501  -15.4696 C   0  0  0  0  0  0  0  0  0  0  0  0
   17.6996   -2.2591  -16.4901 O   0  0  0  0  0  0  0  0  0  0  0  0
   21.9298   -4.7230  -14.4516 C   0  0  0  0  0  0  0  0  0  0  0  0
   22.5754   -3.6502  -14.3284 O   0  0  0  0  0  0  0  0  0  0  0  0
   17.8684   -2.0926  -14.2420 O   0  0  0  0  0  0  0  0  0  0  0  0
   21.9123   -5.5892  -13.3742 O   0  0  0  0  0  0  0  0  0  0  0  0
  2  3  1  0
  2  1  1  0
  3  4  1  1
  5  6  2  0
  5  3  1  0
  7  8  1  0
  8  9  1  0
  9 10  1  0
 11 10  1  6
 11 13  1  0
 11 12  1  0
 12  5  1  0
 13 15  1  0
 14 13  2  0
 15 16  1  0
 16 21  1  0
 16 17  1  1
 18 17  1  0
 19 18  1  0
 20 19  2  0
 21 22  2  0
 21 24  1  0
 23 19  1  0
M  END
$$$$
