SME.pdb
     RDKit          3D

 24 23  0  0  1  0  0  0  0  0999 V2000
   19.2966  -10.0272  -17.2910 O   0  0  0  0  0  0  0  0  0  0  0  0
   20.0960  -11.0397  -16.8213 C   0  0  0  0  0  0  0  0  0  0  0  0
   20.5766  -10.8347  -15.4163 C   0  0  2  0  0  0  0  0  0  0  0  0
   19.5561  -10.5299  -14.4760 N   0  0  0  0  0  0  0  0  0  0  0  0
   21.6256   -9.7754  -15.3479 C   0  0  0  0  0  0  0  0  0  0  0  0
   21.4549   -8.7181  -14.6662 O   0  0  0  0  0  0  0  0  0  0  0  0
   27.7352  -12.3694  -14.6728 C   0  0  0  0  0  0  0  0  0  0  0  0
   27.1338  -11.3446  -16.0397 S   0  0  0  0  0  0  0  0  0  0  0  0
   25.6718  -10.4229  -15.4999 C   0  0  0  0  0  0  0  0  0  0  0  0
   25.1645   -9.5109  -16.5959 C   0  0  0  0  0  0  0  0  0  0  0  0
   23.8819   -8.8730  -16.0774 C   0  0  2  0  0  0  0  0  0  0  0  0
   22.8596   -9.8987  -16.0391 N   0  0  0  0  0  0  0  0  0  0  0  0
   23.4565   -7.7343  -16.9568 C   0  0  0  0  0  0  0  0  0  0  0  0
   22.5700   -7.9057  -17.8195 O   0  0  0  0  0  0  0  0  0  0  0  0
   24.0688   -6.4748  -16.7967 N   0  0  0  0  0  0  0  0  0  0  0  0
   23.5482   -5.2668  -17.4194 C   0  0  1  0  0  0  0  0  0  0  0  0
   22.2158   -4.9247  -16.8127 C   0  0  0  0  0  0  0  0  0  0  0  0
   21.6469   -3.6412  -17.3169 C   0  0  0  0  0  0  0  0  0  0  0  0
   20.3442   -3.2786  -16.7233 C   0  0  0  0  0  0  0  0  0  0  0  0
   19.7616   -3.9470  -15.8330 O   0  0  0  0  0  0  0  0  0  0  0  0
   24.5243   -4.1567  -17.1275 C   0  0  0  0  0  0  0  0  0  0  0  0
   25.3834   -4.2476  -16.2129 O   0  0  0  0  0  0  0  0  0  0  0  0
   19.7149   -2.1260  -17.1716 O   0  0  0  0  0  0  0  0  0  0  0  0
   24.4986   -2.9912  -17.8708 O   0  0  0  0  0  0  0  0  0  0  0  0
  2  3  1  0
  2  1  1  0
  3  4  1  1
  5  6  2  0
  5  3  1  0
  7  8  1  0
  8  9  1  0
  9 10  1  0
 11 10  1  6
 11 13  1  0
 11 12  1  0
 12  5  1  0
 13 15  1  0
 14 13  2  0
 15 16  1  0
 16 21  1  0
 16 17  1  1
 18 17  1  0
 19 18  1  0
 20 19  2  0
 21 22  2  0
 21 24  1  0
 23 19  1  0
M  END
$$$$
