SME.pdb
     RDKit          3D

 24 23  0  0  1  0  0  0  0  0999 V2000
   25.5249  -21.8162   -9.7443 O   0  0  0  0  0  0  0  0  0  0  0  0
   25.2657  -21.1875  -10.9369 C   0  0  0  0  0  0  0  0  0  0  0  0
   26.4820  -20.9611  -11.7834 C   0  0  2  0  0  0  0  0  0  0  0  0
   27.5820  -20.3754  -11.1013 N   0  0  0  0  0  0  0  0  0  0  0  0
   26.1644  -20.1334  -12.9840 C   0  0  0  0  0  0  0  0  0  0  0  0
   25.8142  -18.9179  -12.8759 O   0  0  0  0  0  0  0  0  0  0  0  0
   29.8380  -17.2344  -17.3054 C   0  0  0  0  0  0  0  0  0  0  0  0
   28.8455  -18.7192  -17.6063 S   0  0  0  0  0  0  0  0  0  0  0  0
   27.5889  -18.8731  -16.3118 C   0  0  0  0  0  0  0  0  0  0  0  0
   26.6672  -20.0430  -16.5802 C   0  0  0  0  0  0  0  0  0  0  0  0
   25.6314  -20.0510  -15.4631 C   0  0  2  0  0  0  0  0  0  0  0  0
   26.2384  -20.6633  -14.2990 N   0  0  0  0  0  0  0  0  0  0  0  0
   24.4024  -20.8050  -15.8776 C   0  0  0  0  0  0  0  0  0  0  0  0
   24.4162  -22.0531  -15.9171 O   0  0  0  0  0  0  0  0  0  0  0  0
   23.2380  -20.0884  -16.2205 N   0  0  0  0  0  0  0  0  0  0  0  0
   21.9477  -20.7352  -16.4071 C   0  0  1  0  0  0  0  0  0  0  0  0
   21.2430  -20.8386  -15.0830 C   0  0  0  0  0  0  0  0  0  0  0  0
   20.6887  -19.5394  -14.6035 C   0  0  0  0  0  0  0  0  0  0  0  0
   19.4362  -19.6609  -13.8304 C   0  0  0  0  0  0  0  0  0  0  0  0
   18.7553  -18.6844  -13.4284 O   0  0  0  0  0  0  0  0  0  0  0  0
   21.1389  -19.8618  -17.3309 C   0  0  0  0  0  0  0  0  0  0  0  0
   20.1640  -20.3094  -17.9882 O   0  0  0  0  0  0  0  0  0  0  0  0
   18.9732  -20.9324  -13.5234 O   0  0  0  0  0  0  0  0  0  0  0  0
   21.4544  -18.5241  -17.4809 O   0  0  0  0  0  0  0  0  0  0  0  0
  2  3  1  0
  2  1  1  0
  3  4  1  1
  5  6  2  0
  5  3  1  0
  7  8  1  0
  8  9  1  0
  9 10  1  0
 11 10  1  6
 11 13  1  0
 11 12  1  0
 12  5  1  0
 13 15  1  0
 14 13  2  0
 15 16  1  0
 16 21  1  0
 16 17  1  1
 18 17  1  0
 19 18  1  0
 20 19  2  0
 21 22  2  0
 21 24  1  0
 23 19  1  0
M  END
$$$$
