SME.pdb
     RDKit          3D

 24 23  0  0  1  0  0  0  0  0999 V2000
   17.7352  -12.2231  -18.7518 O   0  0  0  0  0  0  0  0  0  0  0  0
   17.7228  -13.4537  -18.1433 C   0  0  0  0  0  0  0  0  0  0  0  0
   19.0853  -13.9813  -17.8078 C   0  0  2  0  0  0  0  0  0  0  0  0
   19.0984  -15.2924  -17.2608 N   0  0  0  0  0  0  0  0  0  0  0  0
   19.8113  -13.0654  -16.8797 C   0  0  0  0  0  0  0  0  0  0  0  0
   19.5144  -13.0010  -15.6470 O   0  0  0  0  0  0  0  0  0  0  0  0
   26.5706  -10.3483  -14.5004 C   0  0  0  0  0  0  0  0  0  0  0  0
   25.6792  -11.3254  -15.7377 S   0  0  0  0  0  0  0  0  0  0  0  0
   23.9027  -11.0109  -15.5840 C   0  0  0  0  0  0  0  0  0  0  0  0
   23.1164  -11.8026  -16.6063 C   0  0  0  0  0  0  0  0  0  0  0  0
   21.6602  -11.3783  -16.4645 C   0  0  2  0  0  0  0  0  0  0  0  0
   20.8644  -12.2258  -17.3287 N   0  0  0  0  0  0  0  0  0  0  0  0
   21.4848   -9.9343  -16.8319 C   0  0  0  0  0  0  0  0  0  0  0  0
   21.7325   -9.5484  -17.9934 O   0  0  0  0  0  0  0  0  0  0  0  0
   21.0392   -9.0239  -15.8523 N   0  0  0  0  0  0  0  0  0  0  0  0
   20.8238   -7.6127  -16.1358 C   0  0  1  0  0  0  0  0  0  0  0  0
   19.4059   -7.2446  -15.7975 C   0  0  0  0  0  0  0  0  0  0  0  0
   19.1643   -5.7727  -15.7775 C   0  0  0  0  0  0  0  0  0  0  0  0
   17.7668   -5.3895  -15.4928 C   0  0  0  0  0  0  0  0  0  0  0  0
   16.8467   -6.2067  -15.2389 O   0  0  0  0  0  0  0  0  0  0  0  0
   21.7619   -6.8309  -15.2532 C   0  0  0  0  0  0  0  0  0  0  0  0
   22.1929   -5.6948  -15.5794 O   0  0  0  0  0  0  0  0  0  0  0  0
   17.4389   -4.0413  -15.5038 O   0  0  0  0  0  0  0  0  0  0  0  0
   22.1786   -7.3524  -14.0425 O   0  0  0  0  0  0  0  0  0  0  0  0
  2  3  1  0
  2  1  1  0
  3  4  1  1
  5  6  2  0
  5  3  1  0
  7  8  1  0
  8  9  1  0
  9 10  1  0
 11 10  1  6
 11 13  1  0
 11 12  1  0
 12  5  1  0
 13 15  1  0
 14 13  2  0
 15 16  1  0
 16 21  1  0
 16 17  1  1
 18 17  1  0
 19 18  1  0
 20 19  2  0
 21 22  2  0
 21 24  1  0
 23 19  1  0
M  END
$$$$
