SME.pdb
     RDKit          3D

 24 23  0  0  1  0  0  0  0  0999 V2000
   17.3926   -8.3348  -15.1829 O   0  0  0  0  0  0  0  0  0  0  0  0
   17.8518   -9.6282  -15.1502 C   0  0  0  0  0  0  0  0  0  0  0  0
   18.7682   -9.9206  -14.0005 C   0  0  2  0  0  0  0  0  0  0  0  0
   18.1914   -9.7317  -12.7159 N   0  0  0  0  0  0  0  0  0  0  0  0
   20.0240   -9.1188  -14.0866 C   0  0  0  0  0  0  0  0  0  0  0  0
   20.1522   -8.0210  -13.4621 O   0  0  0  0  0  0  0  0  0  0  0  0
   26.3803  -11.1323  -14.3853 C   0  0  0  0  0  0  0  0  0  0  0  0
   26.1714  -10.0019  -15.7849 S   0  0  0  0  0  0  0  0  0  0  0  0
   24.7376   -8.9372  -15.4869 C   0  0  0  0  0  0  0  0  0  0  0  0
   23.4599   -9.7456  -15.4219 C   0  0  0  0  0  0  0  0  0  0  0  0
   22.3452   -8.7755  -15.0516 C   0  0  2  0  0  0  0  0  0  0  0  0
   21.1308   -9.5435  -14.8678 N   0  0  0  0  0  0  0  0  0  0  0  0
   22.1595   -7.7395  -16.1208 C   0  0  0  0  0  0  0  0  0  0  0  0
   21.7212   -8.0683  -17.2429 O   0  0  0  0  0  0  0  0  0  0  0  0
   22.4857   -6.3968  -15.8424 N   0  0  0  0  0  0  0  0  0  0  0  0
   22.2629   -5.3228  -16.7991 C   0  0  1  0  0  0  0  0  0  0  0  0
   22.0648   -4.0279  -16.0613 C   0  0  0  0  0  0  0  0  0  0  0  0
   21.9160   -2.8488  -16.9629 C   0  0  0  0  0  0  0  0  0  0  0  0
   21.6694   -1.5734  -16.2605 C   0  0  0  0  0  0  0  0  0  0  0  0
   21.5478   -0.4619  -16.8337 O   0  0  0  0  0  0  0  0  0  0  0  0
   23.4998   -5.2211  -17.6535 C   0  0  0  0  0  0  0  0  0  0  0  0
   24.6533   -5.3869  -17.1793 O   0  0  0  0  0  0  0  0  0  0  0  0
   21.5634   -1.5939  -14.8771 O   0  0  0  0  0  0  0  0  0  0  0  0
   23.3948   -4.9381  -19.0027 O   0  0  0  0  0  0  0  0  0  0  0  0
  2  3  1  0
  2  1  1  0
  3  4  1  1
  5  6  2  0
  5  3  1  0
  7  8  1  0
  8  9  1  0
  9 10  1  0
 11 10  1  6
 11 13  1  0
 11 12  1  0
 12  5  1  0
 13 15  1  0
 14 13  2  0
 15 16  1  0
 16 21  1  0
 16 17  1  1
 18 17  1  0
 19 18  1  0
 20 19  2  0
 21 22  2  0
 21 24  1  0
 23 19  1  0
M  END
$$$$
