SME.pdb
     RDKit          3D

 24 23  0  0  1  0  0  0  0  0999 V2000
   26.9419  -18.7296  -15.7734 O   0  0  0  0  0  0  0  0  0  0  0  0
   28.0710  -19.0172  -15.0472 C   0  0  0  0  0  0  0  0  0  0  0  0
   28.2795  -20.4808  -14.7992 C   0  0  2  0  0  0  0  0  0  0  0  0
   28.3827  -21.2751  -15.9726 N   0  0  0  0  0  0  0  0  0  0  0  0
   27.2061  -21.0448  -13.9293 C   0  0  0  0  0  0  0  0  0  0  0  0
   26.2941  -21.7903  -14.4028 O   0  0  0  0  0  0  0  0  0  0  0  0
   27.1864  -20.3514   -7.2874 C   0  0  0  0  0  0  0  0  0  0  0  0
   25.4242  -20.4283   -7.6983 S   0  0  0  0  0  0  0  0  0  0  0  0
   25.2283  -21.0630   -9.3827 C   0  0  0  0  0  0  0  0  0  0  0  0
   26.3363  -20.5673  -10.2864 C   0  0  0  0  0  0  0  0  0  0  0  0
   26.0146  -21.0663  -11.6894 C   0  0  2  0  0  0  0  0  0  0  0  0
   27.1534  -20.7759  -12.5362 N   0  0  0  0  0  0  0  0  0  0  0  0
   24.7770  -20.4063  -12.2220 C   0  0  0  0  0  0  0  0  0  0  0  0
   24.8023  -19.2031  -12.5557 O   0  0  0  0  0  0  0  0  0  0  0  0
   23.5912  -21.1593  -12.3394 N   0  0  0  0  0  0  0  0  0  0  0  0
   22.3816  -20.6247  -12.9469 C   0  0  1  0  0  0  0  0  0  0  0  0
   21.9667  -21.5034  -14.0942 C   0  0  0  0  0  0  0  0  0  0  0  0
   20.6426  -21.1352  -14.6741 C   0  0  0  0  0  0  0  0  0  0  0  0
   20.2314  -21.9634  -15.8256 C   0  0  0  0  0  0  0  0  0  0  0  0
   20.9103  -22.9115  -16.2936 O   0  0  0  0  0  0  0  0  0  0  0  0
   21.3048  -20.6457  -11.8932 C   0  0  0  0  0  0  0  0  0  0  0  0
   21.3466  -21.4330  -10.9128 O   0  0  0  0  0  0  0  0  0  0  0  0
   19.0176  -21.6839  -16.4370 O   0  0  0  0  0  0  0  0  0  0  0  0
   20.2263  -19.7851  -11.9801 O   0  0  0  0  0  0  0  0  0  0  0  0
  2  3  1  0
  2  1  1  0
  3  4  1  6
  5  6  2  0
  5  3  1  0
  7  8  1  0
  8  9  1  0
  9 10  1  0
 11 10  1  1
 11 13  1  0
 11 12  1  0
 12  5  1  0
 13 15  1  0
 14 13  2  0
 15 16  1  0
 16 21  1  0
 16 17  1  6
 18 17  1  0
 19 18  1  0
 20 19  2  0
 21 22  2  0
 21 24  1  0
 23 19  1  0
M  END
$$$$
