SME.pdb
     RDKit          3D

 24 23  0  0  1  0  0  0  0  0999 V2000
   17.3518  -11.4438  -19.5552 O   0  0  0  0  0  0  0  0  0  0  0  0
   17.5713  -10.6316  -18.4703 C   0  0  0  0  0  0  0  0  0  0  0  0
   18.7200  -11.0626  -17.6090 C   0  0  2  0  0  0  0  0  0  0  0  0
   18.5606  -12.3341  -16.9956 N   0  0  0  0  0  0  0  0  0  0  0  0
   19.0178  -10.0524  -16.5516 C   0  0  0  0  0  0  0  0  0  0  0  0
   18.3555  -10.0125  -15.4692 O   0  0  0  0  0  0  0  0  0  0  0  0
   23.8830  -10.9854  -12.9964 C   0  0  0  0  0  0  0  0  0  0  0  0
   23.7337   -9.5746  -14.1223 S   0  0  0  0  0  0  0  0  0  0  0  0
   21.9922   -9.3349  -14.5557 C   0  0  0  0  0  0  0  0  0  0  0  0
   21.8043   -8.0928  -15.3996 C   0  0  0  0  0  0  0  0  0  0  0  0
   20.3258   -8.0273  -15.7609 C   0  0  2  0  0  0  0  0  0  0  0  0
   20.0516   -9.0914  -16.7048 N   0  0  0  0  0  0  0  0  0  0  0  0
   19.9774   -6.6929  -16.3518 C   0  0  0  0  0  0  0  0  0  0  0  0
   20.3146   -6.4184  -17.5224 O   0  0  0  0  0  0  0  0  0  0  0  0
   19.2682   -5.7581  -15.5707 N   0  0  0  0  0  0  0  0  0  0  0  0
   18.8216   -4.4770  -16.0974 C   0  0  1  0  0  0  0  0  0  0  0  0
   17.4761   -4.1388  -15.5179 C   0  0  0  0  0  0  0  0  0  0  0  0
   16.3783   -5.0169  -16.0166 C   0  0  0  0  0  0  0  0  0  0  0  0
   15.1293   -4.9337  -15.2329 C   0  0  0  0  0  0  0  0  0  0  0  0
   14.2629   -4.0350  -15.3756 O   0  0  0  0  0  0  0  0  0  0  0  0
   19.8233   -3.4398  -15.6602 C   0  0  0  0  0  0  0  0  0  0  0  0
   19.7128   -2.2287  -15.9823 O   0  0  0  0  0  0  0  0  0  0  0  0
   14.8881   -5.9074  -14.2742 O   0  0  0  0  0  0  0  0  0  0  0  0
   20.9068   -3.8008  -14.8809 O   0  0  0  0  0  0  0  0  0  0  0  0
  2  3  1  0
  2  1  1  0
  3  4  1  1
  5  6  2  0
  5  3  1  0
  7  8  1  0
  8  9  1  0
  9 10  1  0
 11 10  1  6
 11 13  1  0
 11 12  1  0
 12  5  1  0
 13 15  1  0
 14 13  2  0
 15 16  1  0
 16 21  1  0
 16 17  1  1
 18 17  1  0
 19 18  1  0
 20 19  2  0
 21 22  2  0
 21 24  1  0
 23 19  1  0
M  END
$$$$
