SME.pdb
     RDKit          3D

 24 23  0  0  1  0  0  0  0  0999 V2000
   18.1289  -23.6855  -12.5184 O   0  0  0  0  0  0  0  0  0  0  0  0
   19.1156  -22.8026  -12.8816 C   0  0  0  0  0  0  0  0  0  0  0  0
   20.0379  -22.4252  -11.7619 C   0  0  2  0  0  0  0  0  0  0  0  0
   19.3881  -21.9981  -10.5729 N   0  0  0  0  0  0  0  0  0  0  0  0
   21.0072  -21.3724  -12.1852 C   0  0  0  0  0  0  0  0  0  0  0  0
   20.6237  -20.1963  -12.4707 O   0  0  0  0  0  0  0  0  0  0  0  0
   27.5992  -21.3340  -11.1302 C   0  0  0  0  0  0  0  0  0  0  0  0
   26.3010  -21.1665   -9.8784 S   0  0  0  0  0  0  0  0  0  0  0  0
   24.7547  -20.6724  -10.6805 C   0  0  0  0  0  0  0  0  0  0  0  0
   24.7342  -21.0917  -12.1344 C   0  0  0  0  0  0  0  0  0  0  0  0
   23.3869  -20.6572  -12.6974 C   0  0  2  0  0  0  0  0  0  0  0  0
   22.3987  -21.6343  -12.2886 N   0  0  0  0  0  0  0  0  0  0  0  0
   23.4402  -20.5522  -14.1931 C   0  0  0  0  0  0  0  0  0  0  0  0
   23.3771  -21.5821  -14.8965 O   0  0  0  0  0  0  0  0  0  0  0  0
   23.5624  -19.2812  -14.7901 N   0  0  0  0  0  0  0  0  0  0  0  0
   23.5443  -19.0891  -16.2326 C   0  0  1  0  0  0  0  0  0  0  0  0
   23.1455  -17.6734  -16.5446 C   0  0  0  0  0  0  0  0  0  0  0  0
   23.1204  -17.3729  -18.0054 C   0  0  0  0  0  0  0  0  0  0  0  0
   22.7691  -15.9764  -18.3332 C   0  0  0  0  0  0  0  0  0  0  0  0
   22.9964  -14.9947  -17.5826 O   0  0  0  0  0  0  0  0  0  0  0  0
   24.9445  -19.3304  -16.7337 C   0  0  0  0  0  0  0  0  0  0  0  0
   25.9580  -19.0242  -16.0541 O   0  0  0  0  0  0  0  0  0  0  0  0
   22.1473  -15.7220  -19.5472 O   0  0  0  0  0  0  0  0  0  0  0  0
   25.1528  -19.9043  -17.9742 O   0  0  0  0  0  0  0  0  0  0  0  0
  2  3  1  0
  2  1  1  0
  3  4  1  1
  5  6  2  0
  5  3  1  0
  7  8  1  0
  8  9  1  0
  9 10  1  0
 11 10  1  6
 11 13  1  0
 11 12  1  0
 12  5  1  0
 13 15  1  0
 14 13  2  0
 15 16  1  0
 16 21  1  0
 16 17  1  1
 18 17  1  0
 19 18  1  0
 20 19  2  0
 21 22  2  0
 21 24  1  0
 23 19  1  0
M  END
$$$$
