SME.pdb
     RDKit          3D

 24 23  0  0  1  0  0  0  0  0999 V2000
   16.4448  -11.5696  -17.4417 O   0  0  0  0  0  0  0  0  0  0  0  0
   17.4722  -10.9649  -16.7607 C   0  0  0  0  0  0  0  0  0  0  0  0
   18.5552  -11.9073  -16.3294 C   0  0  2  0  0  0  0  0  0  0  0  0
   18.1335  -12.9336  -15.4420 N   0  0  0  0  0  0  0  0  0  0  0  0
   19.6995  -11.1762  -15.7102 C   0  0  0  0  0  0  0  0  0  0  0  0
   19.5526  -10.4936  -14.6498 O   0  0  0  0  0  0  0  0  0  0  0  0
   27.4826  -10.5605  -15.0703 C   0  0  0  0  0  0  0  0  0  0  0  0
   26.1422  -11.2275  -16.0895 S   0  0  0  0  0  0  0  0  0  0  0  0
   24.5677  -10.5131  -15.5520 C   0  0  0  0  0  0  0  0  0  0  0  0
   23.4033  -11.1379  -16.2895 C   0  0  0  0  0  0  0  0  0  0  0  0
   22.1390  -10.4803  -15.7509 C   0  0  2  0  0  0  0  0  0  0  0  0
   21.0017  -11.2086  -16.2748 N   0  0  0  0  0  0  0  0  0  0  0  0
   22.0735   -9.0363  -16.1526 C   0  0  0  0  0  0  0  0  0  0  0  0
   21.8288   -8.7256  -17.3371 O   0  0  0  0  0  0  0  0  0  0  0  0
   22.2915   -8.0403  -15.1793 N   0  0  0  0  0  0  0  0  0  0  0  0
   22.0826   -6.6251  -15.4473 C   0  0  1  0  0  0  0  0  0  0  0  0
   20.6287   -6.3805  -15.7420 C   0  0  0  0  0  0  0  0  0  0  0  0
   20.2929   -4.9369  -15.9108 C   0  0  0  0  0  0  0  0  0  0  0  0
   19.4736   -4.6383  -17.1027 C   0  0  0  0  0  0  0  0  0  0  0  0
   18.9871   -3.5093  -17.3623 O   0  0  0  0  0  0  0  0  0  0  0  0
   22.4681   -5.8720  -14.2006 C   0  0  0  0  0  0  0  0  0  0  0  0
   22.7718   -4.6514  -14.2261 O   0  0  0  0  0  0  0  0  0  0  0  0
   19.2193   -5.6654  -18.0004 O   0  0  0  0  0  0  0  0  0  0  0  0
   22.4978   -6.5157  -12.9774 O   0  0  0  0  0  0  0  0  0  0  0  0
  2  3  1  0
  2  1  1  0
  3  4  1  1
  5  6  2  0
  5  3  1  0
  7  8  1  0
  8  9  1  0
  9 10  1  0
 11 10  1  6
 11 13  1  0
 11 12  1  0
 12  5  1  0
 13 15  1  0
 14 13  2  0
 15 16  1  0
 16 21  1  0
 16 17  1  1
 18 17  1  0
 19 18  1  0
 20 19  2  0
 21 22  2  0
 21 24  1  0
 23 19  1  0
M  END
$$$$
