SME.pdb
     RDKit          3D

 24 23  0  0  1  0  0  0  0  0999 V2000
   34.1576  -25.5738  -19.7994 O   0  0  0  0  0  0  0  0  0  0  0  0
   33.0480  -26.1216  -19.2049 C   0  0  0  0  0  0  0  0  0  0  0  0
   32.5088  -25.3159  -18.0616 C   0  0  2  0  0  0  0  0  0  0  0  0
   33.4500  -25.0335  -17.0355 N   0  0  0  0  0  0  0  0  0  0  0  0
   31.3129  -25.9675  -17.4514 C   0  0  0  0  0  0  0  0  0  0  0  0
   31.3772  -26.5429  -16.3215 O   0  0  0  0  0  0  0  0  0  0  0  0
   25.2629  -23.8385  -15.7061 C   0  0  0  0  0  0  0  0  0  0  0  0
   26.6785  -23.2017  -16.6391 S   0  0  0  0  0  0  0  0  0  0  0  0
   27.9974  -24.4422  -16.6489 C   0  0  0  0  0  0  0  0  0  0  0  0
   27.7307  -25.5161  -17.6812 C   0  0  0  0  0  0  0  0  0  0  0  0
   28.8442  -26.5463  -17.5404 C   0  0  2  0  0  0  0  0  0  0  0  0
   30.0512  -25.9753  -18.1023 N   0  0  0  0  0  0  0  0  0  0  0  0
   28.4854  -27.8223  -18.2433 C   0  0  0  0  0  0  0  0  0  0  0  0
   28.6447  -27.9243  -19.4777 O   0  0  0  0  0  0  0  0  0  0  0  0
   27.9681  -28.8987  -17.4946 N   0  0  0  0  0  0  0  0  0  0  0  0
   27.6579  -30.1894  -18.0913 C   0  0  1  0  0  0  0  0  0  0  0  0
   27.3966  -31.1942  -17.0038 C   0  0  0  0  0  0  0  0  0  0  0  0
   28.6292  -31.6135  -16.2757 C   0  0  0  0  0  0  0  0  0  0  0  0
   28.3820  -32.1612  -14.9266 C   0  0  0  0  0  0  0  0  0  0  0  0
   29.2749  -32.6368  -14.1814 O   0  0  0  0  0  0  0  0  0  0  0  0
   26.4073  -30.0134  -18.9129 C   0  0  0  0  0  0  0  0  0  0  0  0
   26.1493  -30.7488  -19.9005 O   0  0  0  0  0  0  0  0  0  0  0  0
   27.0818  -32.1543  -14.4418 O   0  0  0  0  0  0  0  0  0  0  0  0
   25.4973  -29.0220  -18.5956 O   0  0  0  0  0  0  0  0  0  0  0  0
  2  3  1  0
  2  1  1  0
  3  4  1  1
  5  6  2  0
  5  3  1  0
  7  8  1  0
  8  9  1  0
  9 10  1  0
 11 10  1  6
 11 13  1  0
 11 12  1  0
 12  5  1  0
 13 15  1  0
 14 13  2  0
 15 16  1  0
 16 21  1  0
 16 17  1  1
 18 17  1  0
 19 18  1  0
 20 19  2  0
 21 22  2  0
 21 24  1  0
 23 19  1  0
M  END
$$$$
