WNL.pdb
     RDKit          3D

 31 32  0  0  1  0  0  0  0  0999 V2000
    7.9359  -16.9223   21.5574 N   0  0  0  0  0  0  0  0  0  0  0  0
    8.5131  -16.6033   22.8795 C   0  0  1  0  0  0  0  0  0  0  0  0
    7.4972  -16.7635   23.9087 C   0  0  0  0  0  0  0  0  0  0  0  0
    6.9104  -15.5589   24.4955 C   0  0  0  0  0  0  0  0  0  0  0  0
    6.0521  -15.6169   25.6051 C   0  0  0  0  0  0  0  0  0  0  0  0
    5.7277  -14.3680   25.9825 N   0  0  0  0  0  0  0  0  0  0  0  0
    6.3668  -13.5218   25.1281 C   0  0  0  0  0  0  0  0  0  0  0  0
    6.3585  -12.1433   25.0565 C   0  0  0  0  0  0  0  0  0  0  0  0
    7.0692  -11.4589   24.0746 C   0  0  0  0  0  0  0  0  0  0  0  0
    7.7887  -12.1986   23.1644 C   0  0  0  0  0  0  0  0  0  0  0  0
    7.7984  -13.5724   23.2367 C   0  0  0  0  0  0  0  0  0  0  0  0
    7.0966  -14.2495   24.2093 C   0  0  0  0  0  0  0  0  0  0  0  0
    9.8557  -17.1406   23.0407 C   0  0  0  0  0  0  0  0  0  0  0  0
   10.1222  -18.2575   23.5486 O   0  0  0  0  0  0  0  0  0  0  0  0
   13.6234  -15.4131   19.9006 N   0  0  0  0  0  0  0  0  0  0  0  0
   13.5190  -16.3929   20.9475 C   0  0  0  0  0  0  0  0  0  0  0  0
   13.5091  -17.6001   20.6585 O   0  0  0  0  0  0  0  0  0  0  0  0
   13.4315  -15.8321   22.3086 C   0  0  0  0  0  0  0  0  0  0  0  0
   12.3472  -16.4722   23.0737 C   0  0  2  0  0  0  0  0  0  0  0  0
   11.0163  -16.3842   22.6213 N   0  0  0  0  0  0  0  0  0  0  0  0
   12.4676  -16.2533   24.5493 C   0  0  0  0  0  0  0  0  0  0  0  0
   13.3366  -15.4310   24.9220 O   0  0  0  0  0  0  0  0  0  0  0  0
   11.1863  -14.0105   28.8441 C   0  0  0  0  0  0  0  0  0  0  0  0
   10.3321  -14.0513   27.6348 C   0  0  2  0  0  0  0  0  0  0  0  0
    8.8733  -14.2982   28.0674 C   0  0  0  0  0  0  0  0  0  0  0  0
   10.7158  -14.9264   26.5108 C   0  0  0  0  0  0  0  0  0  0  0  0
   11.3381  -16.2161   26.8183 C   0  0  2  0  0  0  0  0  0  0  0  0
   11.6813  -16.8994   25.5226 N   0  0  0  0  0  0  0  0  0  0  0  0
   10.6790  -17.1781   27.6413 C   0  0  0  0  0  0  0  0  0  0  0  0
   10.7341  -17.0753   28.9162 O   0  0  0  0  0  0  0  0  0  0  0  0
    9.9263  -18.2822   27.2063 O   0  0  0  0  0  0  0  0  0  0  0  0
  2  1  1  6
  2  3  1  0
  2 13  1  0
  3  4  1  0
  4  5  2  0
  5  6  1  0
  7  8  2  0
  7  6  1  0
  9  8  1  0
 10  9  2  0
 11 10  1  0
 11 12  2  0
 12  4  1  0
 12  7  1  0
 13 20  1  0
 13 14  2  0
 16 15  1  0
 17 16  2  0
 18 16  1  0
 19 18  1  6
 20 19  1  0
 21 19  1  0
 21 22  2  0
 24 26  1  0
 24 23  1  1
 25 24  1  0
 27 26  1  6
 27 28  1  0
 28 21  1  0
 29 27  1  0
 30 29  2  0
 31 29  1  0
M  END
$$$$
