WNL.pdb
     RDKit          3D

 31 32  0  0  1  0  0  0  0  0999 V2000
    6.4269  -17.7316   24.3189 N   0  0  0  0  0  0  0  0  0  0  0  0
    7.5150  -16.7752   24.0291 C   0  0  1  0  0  0  0  0  0  0  0  0
    7.6890  -15.8747   25.1586 C   0  0  0  0  0  0  0  0  0  0  0  0
    6.6553  -14.8702   25.4086 C   0  0  0  0  0  0  0  0  0  0  0  0
    5.4903  -15.1693   26.1328 C   0  0  0  0  0  0  0  0  0  0  0  0
    4.7586  -14.0510   26.2801 N   0  0  0  0  0  0  0  0  0  0  0  0
    5.4426  -13.0503   25.6596 C   0  0  0  0  0  0  0  0  0  0  0  0
    5.1288  -11.7162   25.4953 C   0  0  0  0  0  0  0  0  0  0  0  0
    5.9632  -10.8510   24.7933 C   0  0  0  0  0  0  0  0  0  0  0  0
    7.1227  -11.3639   24.2590 C   0  0  0  0  0  0  0  0  0  0  0  0
    7.4365  -12.6931   24.4240 C   0  0  0  0  0  0  0  0  0  0  0  0
    6.6118  -13.5488   25.1201 C   0  0  0  0  0  0  0  0  0  0  0  0
    8.6498  -17.4104   23.3764 C   0  0  0  0  0  0  0  0  0  0  0  0
    8.8926  -18.6420   23.4040 O   0  0  0  0  0  0  0  0  0  0  0  0
   13.5111  -16.5991   20.7845 N   0  0  0  0  0  0  0  0  0  0  0  0
   13.2269  -15.9045   22.0107 C   0  0  0  0  0  0  0  0  0  0  0  0
   14.1467  -15.6735   22.8118 O   0  0  0  0  0  0  0  0  0  0  0  0
   11.8129  -15.5261   22.1901 C   0  0  0  0  0  0  0  0  0  0  0  0
   11.0238  -16.6615   22.6990 C   0  0  2  0  0  0  0  0  0  0  0  0
    9.6171  -16.6284   22.6362 N   0  0  0  0  0  0  0  0  0  0  0  0
   11.5279  -17.1808   24.0089 C   0  0  0  0  0  0  0  0  0  0  0  0
   12.7162  -17.5779   24.0312 O   0  0  0  0  0  0  0  0  0  0  0  0
   10.1679  -14.3185   29.1232 C   0  0  0  0  0  0  0  0  0  0  0  0
   11.0988  -15.1722   28.3497 C   0  0  2  0  0  0  0  0  0  0  0  0
   12.4514  -14.4433   28.2256 C   0  0  0  0  0  0  0  0  0  0  0  0
   10.6626  -15.7225   27.0523 C   0  0  0  0  0  0  0  0  0  0  0  0
   11.3702  -16.8901   26.5221 C   0  0  2  0  0  0  0  0  0  0  0  0
   10.7664  -17.2482   25.1914 N   0  0  0  0  0  0  0  0  0  0  0  0
   11.4755  -18.0970   27.2766 C   0  0  0  0  0  0  0  0  0  0  0  0
   10.5762  -19.0016   27.1664 O   0  0  0  0  0  0  0  0  0  0  0  0
   12.5037  -18.4435   28.1696 O   0  0  0  0  0  0  0  0  0  0  0  0
  2  1  1  1
  2  3  1  0
  2 13  1  0
  3  4  1  0
  4  5  2  0
  5  6  1  0
  7  8  2  0
  7  6  1  0
  9  8  1  0
 10  9  2  0
 11 10  1  0
 11 12  2  0
 12  4  1  0
 12  7  1  0
 13 20  1  0
 13 14  2  0
 16 15  1  0
 17 16  2  0
 18 16  1  0
 19 18  1  1
 20 19  1  0
 21 19  1  0
 21 22  2  0
 24 26  1  0
 24 23  1  6
 25 24  1  0
 27 26  1  1
 27 28  1  0
 28 21  1  0
 29 27  1  0
 30 29  2  0
 31 29  1  0
M  END
$$$$
