WNL.pdb
     RDKit          3D

 31 32  0  0  1  0  0  0  0  0999 V2000
    7.7498  -17.6745   21.3869 N   0  0  0  0  0  0  0  0  0  0  0  0
    8.2784  -16.7371   22.3991 C   0  0  1  0  0  0  0  0  0  0  0  0
    7.1796  -16.0015   23.0062 C   0  0  0  0  0  0  0  0  0  0  0  0
    7.2266  -14.5397   22.9789 C   0  0  0  0  0  0  0  0  0  0  0  0
    7.5589  -13.8300   21.8140 C   0  0  0  0  0  0  0  0  0  0  0  0
    7.4467  -12.5110   22.0493 N   0  0  0  0  0  0  0  0  0  0  0  0
    7.0496  -12.3763   23.3449 C   0  0  0  0  0  0  0  0  0  0  0  0
    6.8095  -11.2440   24.0970 C   0  0  0  0  0  0  0  0  0  0  0  0
    6.4321  -11.3224   25.4345 C   0  0  0  0  0  0  0  0  0  0  0  0
    6.3035  -12.5715   25.9970 C   0  0  0  0  0  0  0  0  0  0  0  0
    6.5411  -13.7001   25.2471 C   0  0  0  0  0  0  0  0  0  0  0  0
    6.9128  -13.6226   23.9232 C   0  0  0  0  0  0  0  0  0  0  0  0
    9.3370  -17.3302   23.2022 C   0  0  0  0  0  0  0  0  0  0  0  0
    9.1632  -18.2260   24.0646 O   0  0  0  0  0  0  0  0  0  0  0  0
   13.8300  -16.8912   20.9590 N   0  0  0  0  0  0  0  0  0  0  0  0
   13.3138  -17.7231   22.0117 C   0  0  0  0  0  0  0  0  0  0  0  0
   13.0159  -18.9037   21.7699 O   0  0  0  0  0  0  0  0  0  0  0  0
   13.1896  -17.0538   23.3200 C   0  0  0  0  0  0  0  0  0  0  0  0
   11.8279  -17.2046   23.8621 C   0  0  2  0  0  0  0  0  0  0  0  0
   10.7108  -16.8967   23.0613 N   0  0  0  0  0  0  0  0  0  0  0  0
   11.6953  -16.6815   25.2580 C   0  0  0  0  0  0  0  0  0  0  0  0
   12.5915  -15.8968   25.6468 O   0  0  0  0  0  0  0  0  0  0  0  0
    9.3667  -13.1476   28.6271 C   0  0  0  0  0  0  0  0  0  0  0  0
   10.2613  -14.3220   28.5084 C   0  0  2  0  0  0  0  0  0  0  0  0
   11.6098  -13.8597   27.9217 C   0  0  0  0  0  0  0  0  0  0  0  0
    9.7688  -15.5377   27.8331 C   0  0  0  0  0  0  0  0  0  0  0  0
   10.7156  -16.6296   27.5952 C   0  0  2  0  0  0  0  0  0  0  0  0
   10.6483  -17.0088   26.1409 N   0  0  0  0  0  0  0  0  0  0  0  0
   10.6548  -17.8392   28.3503 C   0  0  0  0  0  0  0  0  0  0  0  0
   11.0737  -17.8609   29.5599 O   0  0  0  0  0  0  0  0  0  0  0  0
   10.1568  -19.0788   27.9140 O   0  0  0  0  0  0  0  0  0  0  0  0
  2  1  1  1
  2  3  1  0
  2 13  1  0
  3  4  1  0
  4  5  2  0
  5  6  1  0
  7  8  2  0
  7  6  1  0
  9  8  1  0
 10  9  2  0
 11 10  1  0
 11 12  2  0
 12  4  1  0
 12  7  1  0
 13 20  1  0
 13 14  2  0
 16 15  1  0
 17 16  2  0
 18 16  1  0
 19 18  1  6
 20 19  1  0
 21 19  1  0
 21 22  2  0
 24 26  1  0
 24 23  1  6
 25 24  1  0
 27 26  1  1
 27 28  1  0
 28 21  1  0
 29 27  1  0
 30 29  2  0
 31 29  1  0
M  END
$$$$
