WNL.pdb
     RDKit          3D

 31 32  0  0  1  0  0  0  0  0999 V2000
    6.2031  -18.5402   23.6943 N   0  0  0  0  0  0  0  0  0  0  0  0
    7.1594  -17.4705   24.0460 C   0  0  1  0  0  0  0  0  0  0  0  0
    6.8184  -16.9178   25.3481 C   0  0  0  0  0  0  0  0  0  0  0  0
    6.5730  -15.4790   25.4465 C   0  0  0  0  0  0  0  0  0  0  0  0
    5.5574  -14.9540   26.2613 C   0  0  0  0  0  0  0  0  0  0  0  0
    5.6077  -13.6110   26.2252 N   0  0  0  0  0  0  0  0  0  0  0  0
    6.6385  -13.2792   25.3996 C   0  0  0  0  0  0  0  0  0  0  0  0
    7.1066  -12.0437   24.9999 C   0  0  0  0  0  0  0  0  0  0  0  0
    8.1727  -11.9186   24.1137 C   0  0  0  0  0  0  0  0  0  0  0  0
    8.7559  -13.0706   23.6384 C   0  0  0  0  0  0  0  0  0  0  0  0
    8.2906  -14.3020   24.0380 C   0  0  0  0  0  0  0  0  0  0  0  0
    7.2369  -14.4259   24.9162 C   0  0  0  0  0  0  0  0  0  0  0  0
    8.5290  -17.8171   23.6979 C   0  0  0  0  0  0  0  0  0  0  0  0
    9.0186  -18.9700   23.7851 O   0  0  0  0  0  0  0  0  0  0  0  0
   14.0408  -15.8701   22.0617 N   0  0  0  0  0  0  0  0  0  0  0  0
   12.7570  -16.4958   21.8968 C   0  0  0  0  0  0  0  0  0  0  0  0
   12.6642  -17.5377   21.2282 O   0  0  0  0  0  0  0  0  0  0  0  0
   11.6432  -15.8016   22.5691 C   0  0  0  0  0  0  0  0  0  0  0  0
   10.8522  -16.7401   23.3842 C   0  0  2  0  0  0  0  0  0  0  0  0
    9.4547  -16.8106   23.2234 N   0  0  0  0  0  0  0  0  0  0  0  0
   11.2661  -16.7546   24.8223 C   0  0  0  0  0  0  0  0  0  0  0  0
   12.4932  -16.8704   25.0482 O   0  0  0  0  0  0  0  0  0  0  0  0
   10.7179  -13.3271   27.5055 C   0  0  0  0  0  0  0  0  0  0  0  0
    9.6894  -14.3926   27.5319 C   0  0  2  0  0  0  0  0  0  0  0  0
    8.4026  -13.8228   28.1609 C   0  0  0  0  0  0  0  0  0  0  0  0
   10.0306  -15.7093   28.1030 C   0  0  0  0  0  0  0  0  0  0  0  0
   10.8964  -16.5984   27.3252 C   0  0  2  0  0  0  0  0  0  0  0  0
   10.3813  -16.6475   25.9125 N   0  0  0  0  0  0  0  0  0  0  0  0
   11.1338  -17.9448   27.7351 C   0  0  0  0  0  0  0  0  0  0  0  0
   10.7196  -18.9168   27.0122 O   0  0  0  0  0  0  0  0  0  0  0  0
   11.8110  -18.3643   28.8928 O   0  0  0  0  0  0  0  0  0  0  0  0
  2  1  1  1
  2  3  1  0
  2 13  1  0
  3  4  1  0
  4  5  2  0
  5  6  1  0
  7  8  2  0
  7  6  1  0
  9  8  1  0
 10  9  2  0
 11 10  1  0
 11 12  2  0
 12  4  1  0
 12  7  1  0
 13 20  1  0
 13 14  2  0
 16 15  1  0
 17 16  2  0
 18 16  1  0
 19 18  1  1
 20 19  1  0
 21 19  1  0
 21 22  2  0
 24 26  1  0
 24 23  1  1
 25 24  1  0
 27 26  1  1
 27 28  1  0
 28 21  1  0
 29 27  1  0
 30 29  2  0
 31 29  1  0
M  END
$$$$
