WNL.pdb
     RDKit          3D

 31 32  0  0  1  0  0  0  0  0999 V2000
    8.1860  -17.3870   21.0800 N   0  0  0  0  0  0  0  0  0  0  0  0
    8.8006  -16.8119   22.2942 C   0  0  1  0  0  0  0  0  0  0  0  0
    7.7692  -16.5440   23.2850 C   0  0  0  0  0  0  0  0  0  0  0  0
    7.1659  -15.2117   23.3131 C   0  0  0  0  0  0  0  0  0  0  0  0
    6.4169  -14.7138   22.2351 C   0  0  0  0  0  0  0  0  0  0  0  0
    5.9168  -13.5087   22.5597 N   0  0  0  0  0  0  0  0  0  0  0  0
    6.3389  -13.2370   23.8255 C   0  0  0  0  0  0  0  0  0  0  0  0
    6.1304  -12.1299   24.6231 C   0  0  0  0  0  0  0  0  0  0  0  0
    6.6810  -12.0343   25.8980 C   0  0  0  0  0  0  0  0  0  0  0  0
    7.4491  -13.0826   26.3498 C   0  0  0  0  0  0  0  0  0  0  0  0
    7.6557  -14.1868   25.5557 C   0  0  0  0  0  0  0  0  0  0  0  0
    7.1094  -14.2822   24.2950 C   0  0  0  0  0  0  0  0  0  0  0  0
   10.0474  -17.4729   22.6487 C   0  0  0  0  0  0  0  0  0  0  0  0
   10.1305  -18.6237   23.1439 O   0  0  0  0  0  0  0  0  0  0  0  0
   16.0818  -16.2044   23.4674 N   0  0  0  0  0  0  0  0  0  0  0  0
   14.9588  -17.0475   23.1596 C   0  0  0  0  0  0  0  0  0  0  0  0
   15.0582  -18.2769   23.3007 O   0  0  0  0  0  0  0  0  0  0  0  0
   13.7600  -16.3285   22.6898 C   0  0  0  0  0  0  0  0  0  0  0  0
   12.5303  -16.9917   23.1577 C   0  0  2  0  0  0  0  0  0  0  0  0
   11.3212  -16.8125   22.4579 N   0  0  0  0  0  0  0  0  0  0  0  0
   12.3525  -16.9096   24.6414 C   0  0  0  0  0  0  0  0  0  0  0  0
   13.2578  -17.4211   25.3407 O   0  0  0  0  0  0  0  0  0  0  0  0
    9.1876  -13.7743   28.9516 C   0  0  0  0  0  0  0  0  0  0  0  0
   10.3580  -14.5864   28.5462 C   0  0  2  0  0  0  0  0  0  0  0  0
   11.6292  -13.9596   29.1525 C   0  0  0  0  0  0  0  0  0  0  0  0
   10.5474  -14.9158   27.1207 C   0  0  0  0  0  0  0  0  0  0  0  0
   11.2131  -16.1761   26.7836 C   0  0  2  0  0  0  0  0  0  0  0  0
   11.2555  -16.3055   25.2853 N   0  0  0  0  0  0  0  0  0  0  0  0
   10.7460  -17.4212   27.3019 C   0  0  0  0  0  0  0  0  0  0  0  0
   11.2844  -17.9207   28.3506 O   0  0  0  0  0  0  0  0  0  0  0  0
    9.7048  -18.2102   26.7840 O   0  0  0  0  0  0  0  0  0  0  0  0
  2  1  1  6
  2  3  1  0
  2 13  1  0
  3  4  1  0
  4  5  2  0
  5  6  1  0
  7  8  2  0
  7  6  1  0
  9  8  1  0
 10  9  2  0
 11 10  1  0
 11 12  2  0
 12  4  1  0
 12  7  1  0
 13 20  1  0
 13 14  2  0
 16 15  1  0
 17 16  2  0
 18 16  1  0
 19 18  1  6
 20 19  1  0
 21 19  1  0
 21 22  2  0
 24 26  1  0
 24 23  1  6
 25 24  1  0
 27 26  1  6
 27 28  1  0
 28 21  1  0
 29 27  1  0
 30 29  2  0
 31 29  1  0
M  END
$$$$
