RVM.pdb
     RDKit          3D

 27 26  0  0  1  0  0  0  0  0999 V2000
    6.9931  -20.6064   18.2034 N   0  0  0  0  0  0  0  0  0  0  0  0
    7.9663  -21.6366   18.3982 C   0  0  0  0  0  0  0  0  0  0  0  0
    7.9639  -22.6595   17.6261 N   0  0  0  0  0  0  0  0  0  0  0  0
    8.9385  -21.5560   19.4288 N   0  0  0  0  0  0  0  0  0  0  0  0
    9.0805  -20.4691   20.3421 C   0  0  0  0  0  0  0  0  0  0  0  0
    8.9011  -19.1285   19.7248 C   0  0  0  0  0  0  0  0  0  0  0  0
    9.9068  -18.7068   18.7236 C   0  0  0  0  0  0  0  0  0  0  0  0
    9.7888  -17.2973   18.2270 C   0  0  2  0  0  0  0  0  0  0  0  0
   10.7614  -16.9844   17.2012 N   0  0  0  0  0  0  0  0  0  0  0  0
    9.8773  -16.2946   19.2967 C   0  0  0  0  0  0  0  0  0  0  0  0
   10.9724  -16.1017   19.9328 O   0  0  0  0  0  0  0  0  0  0  0  0
    8.6561  -23.4095   17.7118 C   0  0  0  0  0  0  0  0  0  0  0  0
    7.5405  -12.5607   21.6804 C   0  0  2  0  0  0  0  0  0  0  0  0
    7.5930  -13.5394   20.5407 C   0  0  0  0  0  0  0  0  0  0  0  0
    7.5940  -12.8510   19.1930 C   0  0  1  0  0  0  0  0  0  0  0  0
    8.7820  -14.4882   20.6670 N   0  0  0  0  0  0  0  0  0  0  0  0
    8.7440  -15.5148   19.6479 C   0  0  0  0  0  0  0  0  0  0  0  0
    8.6509  -15.1307   21.9938 O   0  0  0  0  0  0  0  0  0  0  0  0
    7.7811  -16.0155   22.1567 C   0  0  0  0  0  0  0  0  0  0  0  0
    6.6998  -11.3443   27.1709 S   0  0  0  0  0  0  0  0  0  0  0  0
    6.6518  -13.0632   26.6300 C   0  0  0  0  0  0  0  0  0  0  0  0
    7.9309  -13.3202   25.3247 C   0  0  0  0  0  0  0  0  0  0  0  0
    7.8502  -14.7401   24.8338 C   0  0  2  0  0  0  0  0  0  0  0  0
    9.2143  -15.2478   24.4597 N   0  0  0  0  0  0  0  0  0  0  0  0
    9.4806  -14.7771   23.0912 C   0  0  0  0  0  0  0  0  0  0  0  0
    9.2434  -16.7171   24.5250 O   0  0  0  0  0  0  0  0  0  0  0  0
    9.8090  -17.4209   25.3791 O   0  0  0  0  0  0  0  0  0  0  0  0
  2  1  1  0
  3  2  2  0
  4  2  1  0
  5  6  1  0
  5  4  1  0
  6  7  1  0
  7  8  1  0
  8  9  1  6
  8 10  1  0
 10 11  2  0
 10 16  1  0
 13 12  1  6
 13 15  1  0
 13 14  1  0
 15 17  1  0
 15 16  1  1
 17 24  1  0
 17 18  2  0
 19 20  1  0
 20 21  1  0
 21 22  1  0
 23 22  1  1
 23 25  1  0
 24 23  1  0
 25 27  1  0
 26 25  2  0
M  END
$$$$
