RVM.pdb
     RDKit          3D

 27 26  0  0  1  0  0  0  0  0999 V2000
   14.5352  -18.9198   15.1723 N   0  0  0  0  0  0  0  0  0  0  0  0
   14.5893  -19.9881   16.1221 C   0  0  0  0  0  0  0  0  0  0  0  0
   14.8947  -21.1681   15.7261 N   0  0  0  0  0  0  0  0  0  0  0  0
   14.3122  -19.7752   17.4974 N   0  0  0  0  0  0  0  0  0  0  0  0
   13.0083  -19.6656   18.0662 C   0  0  0  0  0  0  0  0  0  0  0  0
   12.2767  -18.4313   17.6768 C   0  0  0  0  0  0  0  0  0  0  0  0
   12.0238  -17.4330   18.7405 C   0  0  0  0  0  0  0  0  0  0  0  0
   10.8880  -17.7369   19.6704 C   0  0  2  0  0  0  0  0  0  0  0  0
    9.6602  -18.0463   18.9682 N   0  0  0  0  0  0  0  0  0  0  0  0
   10.6304  -16.6667   20.6428 C   0  0  0  0  0  0  0  0  0  0  0  0
   11.5896  -16.1161   21.2892 O   0  0  0  0  0  0  0  0  0  0  0  0
   15.0251  -21.9462   16.3791 C   0  0  0  0  0  0  0  0  0  0  0  0
    7.3193  -13.9978   20.3727 C   0  0  2  0  0  0  0  0  0  0  0  0
    7.5452  -14.7038   21.6804 C   0  0  0  0  0  0  0  0  0  0  0  0
    6.5874  -15.8580   21.8821 C   0  0  2  0  0  0  0  0  0  0  0  0
    8.9922  -15.1663   21.8285 N   0  0  0  0  0  0  0  0  0  0  0  0
    9.3052  -16.2187   20.8859 C   0  0  0  0  0  0  0  0  0  0  0  0
    9.1081  -15.7078   23.2010 O   0  0  0  0  0  0  0  0  0  0  0  0
    8.9898  -16.9408   23.3792 C   0  0  0  0  0  0  0  0  0  0  0  0
   10.7607  -13.8360   30.7275 S   0  0  0  0  0  0  0  0  0  0  0  0
   10.4221  -13.2638   29.0520 C   0  0  0  0  0  0  0  0  0  0  0  0
    9.9063  -14.7018   28.0167 C   0  0  0  0  0  0  0  0  0  0  0  0
    9.7231  -14.2411   26.5962 C   0  0  2  0  0  0  0  0  0  0  0  0
    9.4679  -15.4124   25.6899 N   0  0  0  0  0  0  0  0  0  0  0  0
    9.3499  -14.8743   24.3255 C   0  0  0  0  0  0  0  0  0  0  0  0
    8.2326  -16.1034   26.0910 O   0  0  0  0  0  0  0  0  0  0  0  0
    7.0685  -15.8106   25.7685 O   0  0  0  0  0  0  0  0  0  0  0  0
  2  1  1  0
  3  2  2  0
  4  2  1  0
  5  6  1  0
  5  4  1  0
  6  7  1  0
  7  8  1  0
  8  9  1  6
  8 10  1  0
 10 11  2  0
 10 16  1  0
 13 12  1  1
 13 15  1  0
 13 14  1  0
 15 17  1  0
 15 16  1  1
 17 24  1  0
 17 18  2  0
 19 20  1  0
 20 21  1  0
 21 22  1  0
 23 22  1  6
 23 25  1  0
 24 23  1  0
 25 27  1  0
 26 25  2  0
M  END
$$$$
