RVM.pdb
     RDKit          3D

 27 26  0  0  1  0  0  0  0  0999 V2000
    9.5312  -17.2088   17.5085 N   0  0  0  0  0  0  0  0  0  0  0  0
    9.1619  -17.9662   16.3525 C   0  0  0  0  0  0  0  0  0  0  0  0
    9.8071  -17.7994   15.2578 N   0  0  0  0  0  0  0  0  0  0  0  0
    8.0950  -18.9012   16.3856 N   0  0  0  0  0  0  0  0  0  0  0  0
    6.8569  -18.7123   17.0691 C   0  0  0  0  0  0  0  0  0  0  0  0
    6.6373  -19.6513   18.2006 C   0  0  0  0  0  0  0  0  0  0  0  0
    7.6793  -19.6969   19.2513 C   0  0  0  0  0  0  0  0  0  0  0  0
    7.3710  -18.9523   20.5153 C   0  0  2  0  0  0  0  0  0  0  0  0
    5.9764  -18.5763   20.6147 N   0  0  0  0  0  0  0  0  0  0  0  0
    8.2064  -17.7595   20.7060 C   0  0  0  0  0  0  0  0  0  0  0  0
    9.4849  -17.8407   20.7037 O   0  0  0  0  0  0  0  0  0  0  0  0
   10.6963  -17.2926   15.2202 C   0  0  0  0  0  0  0  0  0  0  0  0
    6.3653  -14.3363   20.0929 C   0  0  1  0  0  0  0  0  0  0  0  0
    7.7063  -14.0407   20.7044 C   0  0  0  0  0  0  0  0  0  0  0  0
    7.6254  -12.9761   21.7769 C   0  0  2  0  0  0  0  0  0  0  0  0
    8.3713  -15.3047   21.2425 N   0  0  0  0  0  0  0  0  0  0  0  0
    7.6094  -16.4855   20.8970 C   0  0  0  0  0  0  0  0  0  0  0  0
    8.3847  -15.1621   22.7155 O   0  0  0  0  0  0  0  0  0  0  0  0
    7.3691  -15.4940   23.3670 C   0  0  0  0  0  0  0  0  0  0  0  0
    8.0125  -11.4326   26.9498 S   0  0  0  0  0  0  0  0  0  0  0  0
    7.1219  -12.9290   27.4154 C   0  0  0  0  0  0  0  0  0  0  0  0
    8.0859  -14.4016   26.8604 C   0  0  0  0  0  0  0  0  0  0  0  0
    8.1465  -14.4083   25.3571 C   0  0  1  0  0  0  0  0  0  0  0  0
    9.5607  -14.6002   24.8865 N   0  0  0  0  0  0  0  0  0  0  0  0
    9.5135  -14.6605   23.4171 C   0  0  0  0  0  0  0  0  0  0  0  0
   10.1166  -15.8421   25.4458 O   0  0  0  0  0  0  0  0  0  0  0  0
   10.8991  -15.9506   26.4053 O   0  0  0  0  0  0  0  0  0  0  0  0
  2  1  1  0
  3  2  2  0
  4  2  1  0
  5  6  1  0
  5  4  1  0
  6  7  1  0
  7  8  1  0
  8  9  1  6
  8 10  1  0
 10 11  2  0
 10 16  1  0
 13 12  1  6
 13 15  1  0
 13 14  1  0
 15 17  1  0
 15 16  1  6
 17 24  1  0
 17 18  2  0
 19 20  1  0
 20 21  1  0
 21 22  1  0
 23 22  1  6
 23 25  1  0
 24 23  1  0
 25 27  1  0
 26 25  2  0
M  END
$$$$
