RVM.pdb
     RDKit          3D

 27 26  0  0  1  0  0  0  0  0999 V2000
    8.7355  -20.9968   15.3929 N   0  0  0  0  0  0  0  0  0  0  0  0
    9.8090  -21.8100   15.8754 C   0  0  0  0  0  0  0  0  0  0  0  0
   10.5185  -22.4759   15.0415 N   0  0  0  0  0  0  0  0  0  0  0  0
   10.1102  -21.8996   17.2592 N   0  0  0  0  0  0  0  0  0  0  0  0
    9.4129  -21.2147   18.2986 C   0  0  0  0  0  0  0  0  0  0  0  0
    9.7547  -19.7723   18.4122 C   0  0  0  0  0  0  0  0  0  0  0  0
    9.9569  -19.2322   19.7757 C   0  0  0  0  0  0  0  0  0  0  0  0
    8.8746  -18.3337   20.2939 C   0  0  2  0  0  0  0  0  0  0  0  0
    7.7428  -18.2486   19.3950 N   0  0  0  0  0  0  0  0  0  0  0  0
    9.3446  -16.9777   20.6065 C   0  0  0  0  0  0  0  0  0  0  0  0
   10.5756  -16.7514   20.8795 O   0  0  0  0  0  0  0  0  0  0  0  0
   11.3334  -23.0234   15.3334 C   0  0  0  0  0  0  0  0  0  0  0  0
    6.4181  -14.1879   20.3662 C   0  0  2  0  0  0  0  0  0  0  0  0
    7.7670  -13.5297   20.4490 C   0  0  0  0  0  0  0  0  0  0  0  0
    7.7627  -12.3264   21.3667 C   0  0  2  0  0  0  0  0  0  0  0  0
    8.8535  -14.5208   20.8576 N   0  0  0  0  0  0  0  0  0  0  0  0
    8.4381  -15.8849   20.6115 C   0  0  0  0  0  0  0  0  0  0  0  0
    9.0447  -14.3378   22.3138 O   0  0  0  0  0  0  0  0  0  0  0  0
    9.5131  -13.2559   22.7333 C   0  0  0  0  0  0  0  0  0  0  0  0
    7.1689  -11.3319   27.1276 S   0  0  0  0  0  0  0  0  0  0  0  0
    6.0343  -12.5406   26.4198 C   0  0  0  0  0  0  0  0  0  0  0  0
    6.8908  -14.1705   26.2952 C   0  0  0  0  0  0  0  0  0  0  0  0
    7.1726  -14.4655   24.8470 C   0  0  1  0  0  0  0  0  0  0  0  0
    8.5418  -15.0640   24.6868 N   0  0  0  0  0  0  0  0  0  0  0  0
    8.7138  -15.3501   23.2537 C   0  0  0  0  0  0  0  0  0  0  0  0
    8.6533  -16.2945   25.4853 O   0  0  0  0  0  0  0  0  0  0  0  0
    8.5647  -17.4656   25.0785 O   0  0  0  0  0  0  0  0  0  0  0  0
  2  1  1  0
  3  2  2  0
  4  2  1  0
  5  6  1  0
  5  4  1  0
  6  7  1  0
  7  8  1  0
  8  9  1  6
  8 10  1  0
 10 11  2  0
 10 16  1  0
 13 12  1  6
 13 15  1  0
 13 14  1  0
 15 17  1  0
 15 16  1  6
 17 24  1  0
 17 18  2  0
 19 20  1  0
 20 21  1  0
 21 22  1  0
 23 22  1  6
 23 25  1  0
 24 23  1  0
 25 27  1  0
 26 25  2  0
M  END
$$$$
