RVM.pdb
     RDKit          3D

 27 26  0  0  1  0  0  0  0  0999 V2000
    9.3876  -14.0168   19.1764 N   0  0  0  0  0  0  0  0  0  0  0  0
    8.7394  -12.8187   19.6133 C   0  0  0  0  0  0  0  0  0  0  0  0
    9.3608  -11.7008   19.5319 N   0  0  0  0  0  0  0  0  0  0  0  0
    7.4208  -12.8352   20.1374 N   0  0  0  0  0  0  0  0  0  0  0  0
    6.7719  -13.9769   20.6954 C   0  0  0  0  0  0  0  0  0  0  0  0
    7.6625  -15.1528   20.8804 C   0  0  0  0  0  0  0  0  0  0  0  0
    7.1248  -16.4749   20.4871 C   0  0  0  0  0  0  0  0  0  0  0  0
    7.9925  -17.6567   20.7995 C   0  0  2  0  0  0  0  0  0  0  0  0
    7.3891  -18.9116   20.4028 N   0  0  0  0  0  0  0  0  0  0  0  0
    8.3815  -17.7348   22.2137 C   0  0  0  0  0  0  0  0  0  0  0  0
    7.5202  -18.0077   23.1219 O   0  0  0  0  0  0  0  0  0  0  0  0
    8.9216  -10.8122   19.7900 C   0  0  0  0  0  0  0  0  0  0  0  0
   12.5229  -17.3514   23.1449 C   0  0  2  0  0  0  0  0  0  0  0  0
   11.6045  -18.0982   24.0713 C   0  0  0  0  0  0  0  0  0  0  0  0
   12.0933  -18.0775   25.5034 C   0  0  1  0  0  0  0  0  0  0  0  0
   10.1706  -17.5834   23.9791 N   0  0  0  0  0  0  0  0  0  0  0  0
    9.7279  -17.5088   22.6035 C   0  0  0  0  0  0  0  0  0  0  0  0
   10.1915  -16.2166   24.5464 O   0  0  0  0  0  0  0  0  0  0  0  0
   10.5828  -15.2680   23.8302 C   0  0  0  0  0  0  0  0  0  0  0  0
    6.5068  -11.7552   25.9221 S   0  0  0  0  0  0  0  0  0  0  0  0
    6.3928  -12.9823   27.2376 C   0  0  0  0  0  0  0  0  0  0  0  0
    7.5684  -14.3595   26.8808 C   0  0  0  0  0  0  0  0  0  0  0  0
    8.7881  -13.7979   26.2022 C   0  0  1  0  0  0  0  0  0  0  0  0
    9.9975  -14.6340   26.5134 N   0  0  0  0  0  0  0  0  0  0  0  0
    9.7815  -15.9438   25.8788 C   0  0  0  0  0  0  0  0  0  0  0  0
   10.1547  -14.7750   27.9693 O   0  0  0  0  0  0  0  0  0  0  0  0
    9.9189  -15.7831   28.6570 O   0  0  0  0  0  0  0  0  0  0  0  0
  2  1  1  0
  3  2  2  0
  4  2  1  0
  5  6  1  0
  5  4  1  0
  6  7  1  0
  7  8  1  0
  8  9  1  1
  8 10  1  0
 10 11  2  0
 10 16  1  0
 13 12  1  6
 13 15  1  0
 13 14  1  0
 15 17  1  0
 15 16  1  6
 17 24  1  0
 17 18  2  0
 19 20  1  0
 20 21  1  0
 21 22  1  0
 23 22  1  6
 23 25  1  0
 24 23  1  0
 25 27  1  0
 26 25  2  0
M  END
$$$$
