RVM.pdb
     RDKit          3D

 27 26  0  0  1  0  0  0  0  0999 V2000
   11.8914  -22.0362   17.4338 N   0  0  0  0  0  0  0  0  0  0  0  0
   11.5317  -21.2799   16.2740 C   0  0  0  0  0  0  0  0  0  0  0  0
   12.4049  -21.0778   15.3581 N   0  0  0  0  0  0  0  0  0  0  0  0
   10.2277  -20.7447   16.1102 N   0  0  0  0  0  0  0  0  0  0  0  0
    9.6203  -19.7812   16.9697 C   0  0  0  0  0  0  0  0  0  0  0  0
   10.0539  -19.8731   18.3888 C   0  0  0  0  0  0  0  0  0  0  0  0
   10.5588  -18.6335   19.0214 C   0  0  0  0  0  0  0  0  0  0  0  0
    9.8493  -18.1954   20.2672 C   0  0  2  0  0  0  0  0  0  0  0  0
    8.4428  -18.5389   20.2577 N   0  0  0  0  0  0  0  0  0  0  0  0
    9.9929  -16.7601   20.5439 C   0  0  0  0  0  0  0  0  0  0  0  0
   11.1482  -16.2086   20.5920 O   0  0  0  0  0  0  0  0  0  0  0  0
   12.1962  -20.5343   14.5154 C   0  0  0  0  0  0  0  0  0  0  0  0
    6.4202  -14.5204   21.1295 C   0  0  1  0  0  0  0  0  0  0  0  0
    7.6132  -13.8443   20.5137 C   0  0  0  0  0  0  0  0  0  0  0  0
    7.6501  -12.3614   20.8133 C   0  0  1  0  0  0  0  0  0  0  0  0
    8.9190  -14.5156   20.9308 N   0  0  0  0  0  0  0  0  0  0  0  0
    8.8469  -15.9512   20.7639 C   0  0  0  0  0  0  0  0  0  0  0  0
    9.0912  -14.2126   22.3692 O   0  0  0  0  0  0  0  0  0  0  0  0
    9.4177  -13.0538   22.7107 C   0  0  0  0  0  0  0  0  0  0  0  0
    6.9785  -10.6781   26.0764 S   0  0  0  0  0  0  0  0  0  0  0  0
    6.3931  -12.2570   26.7194 C   0  0  0  0  0  0  0  0  0  0  0  0
    7.7180  -13.5237   26.5052 C   0  0  0  0  0  0  0  0  0  0  0  0
    7.7405  -13.9699   25.0685 C   0  0  2  0  0  0  0  0  0  0  0  0
    8.9226  -14.8614   24.8109 N   0  0  0  0  0  0  0  0  0  0  0  0
    8.8978  -15.1939   23.3778 C   0  0  0  0  0  0  0  0  0  0  0  0
    8.8292  -16.0770   25.6341 O   0  0  0  0  0  0  0  0  0  0  0  0
    8.5156  -17.2188   25.2564 O   0  0  0  0  0  0  0  0  0  0  0  0
  2  1  1  0
  3  2  2  0
  4  2  1  0
  5  6  1  0
  5  4  1  0
  6  7  1  0
  7  8  1  0
  8  9  1  6
  8 10  1  0
 10 11  2  0
 10 16  1  0
 13 12  1  6
 13 15  1  0
 13 14  1  0
 15 17  1  0
 15 16  1  6
 17 24  1  0
 17 18  2  0
 19 20  1  0
 20 21  1  0
 21 22  1  0
 23 22  1  6
 23 25  1  0
 24 23  1  0
 25 27  1  0
 26 25  2  0
M  END
$$$$
