RVM.pdb
     RDKit          3D

 27 26  0  0  1  0  0  0  0  0999 V2000
    7.4022  -13.8246   14.6922 N   0  0  0  0  0  0  0  0  0  0  0  0
    8.6099  -13.9391   15.4503 C   0  0  0  0  0  0  0  0  0  0  0  0
    9.4973  -14.7932   15.0960 N   0  0  0  0  0  0  0  0  0  0  0  0
    8.8525  -13.1288   16.5897 N   0  0  0  0  0  0  0  0  0  0  0  0
    8.5085  -13.4721   17.9312 C   0  0  0  0  0  0  0  0  0  0  0  0
    7.6602  -14.6872   18.0496 C   0  0  0  0  0  0  0  0  0  0  0  0
    7.5275  -15.2887   19.3959 C   0  0  0  0  0  0  0  0  0  0  0  0
    8.7953  -15.7889   20.0201 C   0  0  2  0  0  0  0  0  0  0  0  0
    9.3393  -16.9403   19.3312 N   0  0  0  0  0  0  0  0  0  0  0  0
    8.6557  -16.1033   21.4480 C   0  0  0  0  0  0  0  0  0  0  0  0
    7.8265  -15.4653   22.1873 O   0  0  0  0  0  0  0  0  0  0  0  0
   10.4009  -14.8707   15.5720 C   0  0  0  0  0  0  0  0  0  0  0  0
    9.9484  -19.8991   22.9280 C   0  0  2  0  0  0  0  0  0  0  0  0
   10.2346  -18.6832   23.7642 C   0  0  0  0  0  0  0  0  0  0  0  0
   11.6804  -18.2472   23.6665 C   0  0  2  0  0  0  0  0  0  0  0  0
    9.2950  -17.5301   23.4219 N   0  0  0  0  0  0  0  0  0  0  0  0
    9.4414  -17.1272   22.0398 C   0  0  0  0  0  0  0  0  0  0  0  0
    9.7005  -16.4028   24.2909 O   0  0  0  0  0  0  0  0  0  0  0  0
   10.8046  -15.8488   24.0910 C   0  0  0  0  0  0  0  0  0  0  0  0
    6.0671  -11.7323   25.7302 S   0  0  0  0  0  0  0  0  0  0  0  0
    7.0098  -11.5685   27.2579 C   0  0  0  0  0  0  0  0  0  0  0  0
    8.4619  -12.7056   27.1950 C   0  0  0  0  0  0  0  0  0  0  0  0
    8.1237  -13.8831   26.3216 C   0  0  2  0  0  0  0  0  0  0  0  0
    9.2919  -14.8237   26.2277 N   0  0  0  0  0  0  0  0  0  0  0  0
    8.8776  -15.9268   25.3464 C   0  0  0  0  0  0  0  0  0  0  0  0
    9.6478  -15.3244   27.5644 O   0  0  0  0  0  0  0  0  0  0  0  0
    9.3469  -16.4235   28.0604 O   0  0  0  0  0  0  0  0  0  0  0  0
  2  1  1  0
  3  2  2  0
  4  2  1  0
  5  6  1  0
  5  4  1  0
  6  7  1  0
  7  8  1  0
  8  9  1  6
  8 10  1  0
 10 11  2  0
 10 16  1  0
 13 12  1  1
 13 15  1  0
 13 14  1  0
 15 17  1  0
 15 16  1  1
 17 24  1  0
 17 18  2  0
 19 20  1  0
 20 21  1  0
 21 22  1  0
 23 22  1  6
 23 25  1  0
 24 23  1  0
 25 27  1  0
 26 25  2  0
M  END
$$$$
