AGS.pdb
     RDKit          3D

 16 15  0  0  1  0  0  0  0  0999 V2000
   17.1040  -12.5132  -16.5109 C   0  0  0  0  0  0  0  0  0  0  0  0
   17.2413  -11.5237  -15.3881 C   0  0  2  0  0  0  0  0  0  0  0  0
   16.0398  -10.7506  -15.2366 N   0  0  0  0  0  0  0  0  0  0  0  0
   18.3926  -10.6457  -15.6648 C   0  0  0  0  0  0  0  0  0  0  0  0
   19.5635  -11.0025  -15.3748 O   0  0  0  0  0  0  0  0  0  0  0  0
   18.1860   -9.3759  -16.2679 N   0  0  0  0  0  0  0  0  0  0  0  0
   19.3354   -8.5566  -16.6503 C   0  0  0  0  0  0  0  0  0  0  0  0
   19.5314   -7.4866  -15.6625 C   0  0  0  0  0  0  0  0  0  0  0  0
   18.5754   -7.0307  -14.9898 O   0  0  0  0  0  0  0  0  0  0  0  0
   22.6068   -5.2212  -12.8413 O   0  0  0  0  0  0  0  0  0  0  0  0
   22.3654   -6.2229  -13.7831 C   0  0  0  0  0  0  0  0  0  0  0  0
   21.0328   -5.9331  -14.4137 C   0  0  2  0  0  0  0  0  0  0  0  0
   20.8168   -6.9494  -15.4540 N   0  0  0  0  0  0  0  0  0  0  0  0
   21.0074   -4.5714  -15.0181 C   0  0  0  0  0  0  0  0  0  0  0  0
   20.5038   -3.5377  -14.2584 O   0  0  0  0  0  0  0  0  0  0  0  0
   21.4214   -4.3262  -16.1801 O   0  0  0  0  0  0  0  0  0  0  0  0
  2  1  1  6
  2  3  1  0
  4  5  2  0
  4  2  1  0
  6  4  1  0
  7  6  1  0
  8  7  1  0
  9  8  2  0
 10 11  1  0
 12 11  1  6
 12 14  1  0
 12 13  1  0
 13  8  1  0
 14 15  1  0
 16 14  2  0
M  END
$$$$
