AGS.pdb
     RDKit          3D

 16 15  0  0  1  0  0  0  0  0999 V2000
   28.3550  -29.4015  -17.6162 C   0  0  0  0  0  0  0  0  0  0  0  0
   27.8466  -30.8138  -17.6926 C   0  0  2  0  0  0  0  0  0  0  0  0
   26.4106  -30.8441  -17.6569 N   0  0  0  0  0  0  0  0  0  0  0  0
   28.4106  -31.5846  -16.5698 C   0  0  0  0  0  0  0  0  0  0  0  0
   29.6537  -31.7309  -16.4446 O   0  0  0  0  0  0  0  0  0  0  0  0
   27.5448  -32.1745  -15.6101 N   0  0  0  0  0  0  0  0  0  0  0  0
   28.1068  -32.9133  -14.4801 C   0  0  0  0  0  0  0  0  0  0  0  0
   27.0851  -33.8045  -13.9137 C   0  0  0  0  0  0  0  0  0  0  0  0
   27.3351  -34.5550  -12.9397 O   0  0  0  0  0  0  0  0  0  0  0  0
   23.4688  -32.8806  -13.0372 O   0  0  0  0  0  0  0  0  0  0  0  0
   23.4485  -33.9062  -13.9840 C   0  0  0  0  0  0  0  0  0  0  0  0
   24.7416  -34.6603  -13.8555 C   0  0  2  0  0  0  0  0  0  0  0  0
   25.7892  -33.8287  -14.4659 N   0  0  0  0  0  0  0  0  0  0  0  0
   24.6684  -35.9776  -14.5478 C   0  0  0  0  0  0  0  0  0  0  0  0
   25.0114  -36.0252  -15.8817 O   0  0  0  0  0  0  0  0  0  0  0  0
   24.3106  -37.0380  -13.9739 O   0  0  0  0  0  0  0  0  0  0  0  0
  2  1  1  1
  2  3  1  0
  4  5  2  0
  4  2  1  0
  6  4  1  0
  7  6  1  0
  8  7  1  0
  9  8  2  0
 10 11  1  0
 12 11  1  6
 12 14  1  0
 12 13  1  0
 13  8  1  0
 14 15  1  0
 16 14  2  0
M  END
$$$$
