AGS.pdb
     RDKit          3D

 16 15  0  0  1  0  0  0  0  0999 V2000
   13.1686   -8.2498   -8.4404 C   0  0  0  0  0  0  0  0  0  0  0  0
   14.1513   -8.5477   -9.5379 C   0  0  2  0  0  0  0  0  0  0  0  0
   14.8851   -9.7503   -9.2561 N   0  0  0  0  0  0  0  0  0  0  0  0
   15.0673   -7.4017   -9.6812 C   0  0  0  0  0  0  0  0  0  0  0  0
   14.6325   -6.2578   -9.9725 O   0  0  0  0  0  0  0  0  0  0  0  0
   16.4634   -7.5826   -9.4895 N   0  0  0  0  0  0  0  0  0  0  0  0
   17.3724   -6.4478   -9.6460 C   0  0  0  0  0  0  0  0  0  0  0  0
   18.6083   -6.8907  -10.3058 C   0  0  0  0  0  0  0  0  0  0  0  0
   19.1403   -7.9935  -10.0316 O   0  0  0  0  0  0  0  0  0  0  0  0
   20.8969   -7.8206  -13.9457 O   0  0  0  0  0  0  0  0  0  0  0  0
   19.8129   -7.3474  -13.2042 C   0  0  0  0  0  0  0  0  0  0  0  0
   20.3686   -6.5694  -12.0451 C   0  0  2  0  0  0  0  0  0  0  0  0
   19.2228   -6.0693  -11.2714 N   0  0  0  0  0  0  0  0  0  0  0  0
   21.2046   -5.4284  -12.5133 C   0  0  0  0  0  0  0  0  0  0  0  0
   22.5602   -5.6355  -12.6507 O   0  0  0  0  0  0  0  0  0  0  0  0
   20.7321   -4.2952  -12.7861 O   0  0  0  0  0  0  0  0  0  0  0  0
  2  1  1  1
  2  3  1  0
  4  5  2  0
  4  2  1  0
  6  4  1  0
  7  6  1  0
  8  7  1  0
  9  8  2  0
 10 11  1  0
 12 11  1  6
 12 14  1  0
 12 13  1  0
 13  8  1  0
 14 15  1  0
 16 14  2  0
M  END
$$$$
