AGS.pdb
     RDKit          3D

 16 15  0  0  1  0  0  0  0  0999 V2000
   18.6499  -15.0377  -18.6328 C   0  0  0  0  0  0  0  0  0  0  0  0
   18.1546  -13.9633  -17.7059 C   0  0  2  0  0  0  0  0  0  0  0  0
   17.0833  -13.2199  -18.3091 N   0  0  0  0  0  0  0  0  0  0  0  0
   19.2784  -13.0720  -17.3659 C   0  0  0  0  0  0  0  0  0  0  0  0
   20.2538  -13.4889  -16.6898 O   0  0  0  0  0  0  0  0  0  0  0  0
   19.2681  -11.7205  -17.8043 N   0  0  0  0  0  0  0  0  0  0  0  0
   20.4014  -10.8481  -17.4993 C   0  0  0  0  0  0  0  0  0  0  0  0
   19.9605   -9.7499  -16.6285 C   0  0  0  0  0  0  0  0  0  0  0  0
   18.7454   -9.5496  -16.3880 O   0  0  0  0  0  0  0  0  0  0  0  0
   21.3161   -8.7342  -13.2406 O   0  0  0  0  0  0  0  0  0  0  0  0
   21.4807   -7.6371  -14.0880 C   0  0  0  0  0  0  0  0  0  0  0  0
   20.4750   -7.7722  -15.1961 C   0  0  2  0  0  0  0  0  0  0  0  0
   20.9122   -8.8925  -16.0421 N   0  0  0  0  0  0  0  0  0  0  0  0
   20.3938   -6.5238  -16.0053 C   0  0  0  0  0  0  0  0  0  0  0  0
   19.5813   -5.5095  -15.5466 O   0  0  0  0  0  0  0  0  0  0  0  0
   21.0281   -6.3564  -17.0784 O   0  0  0  0  0  0  0  0  0  0  0  0
  2  1  1  6
  2  3  1  0
  4  5  2  0
  4  2  1  0
  6  4  1  0
  7  6  1  0
  8  7  1  0
  9  8  2  0
 10 11  1  0
 12 11  1  1
 12 14  1  0
 12 13  1  0
 13  8  1  0
 14 15  1  0
 16 14  2  0
M  END
$$$$
