AGS.pdb
     RDKit          3D

 16 15  0  0  1  0  0  0  0  0999 V2000
   18.1187  -12.3973  -16.4159 C   0  0  0  0  0  0  0  0  0  0  0  0
   17.6389  -11.1179  -15.7901 C   0  0  2  0  0  0  0  0  0  0  0  0
   17.0711  -10.2448  -16.7797 N   0  0  0  0  0  0  0  0  0  0  0  0
   18.7728  -10.4654  -15.1108 C   0  0  0  0  0  0  0  0  0  0  0  0
   19.2999  -10.9799  -14.0911 O   0  0  0  0  0  0  0  0  0  0  0  0
   19.2846   -9.2368  -15.6083 N   0  0  0  0  0  0  0  0  0  0  0  0
   20.5541   -8.7185  -15.1002 C   0  0  0  0  0  0  0  0  0  0  0  0
   20.5946   -7.2590  -15.2651 C   0  0  0  0  0  0  0  0  0  0  0  0
   19.9784   -6.6859  -16.1959 O   0  0  0  0  0  0  0  0  0  0  0  0
   19.8012   -3.2239  -14.0283 O   0  0  0  0  0  0  0  0  0  0  0  0
   19.8595   -4.6186  -14.0460 C   0  0  0  0  0  0  0  0  0  0  0  0
   21.2601   -5.0036  -14.4300 C   0  0  2  0  0  0  0  0  0  0  0  0
   21.3382   -6.4703  -14.3653 N   0  0  0  0  0  0  0  0  0  0  0  0
   22.2583   -4.3985  -13.5040 C   0  0  0  0  0  0  0  0  0  0  0  0
   22.7291   -3.1370  -13.7978 O   0  0  0  0  0  0  0  0  0  0  0  0
   22.6861   -4.9829  -12.4757 O   0  0  0  0  0  0  0  0  0  0  0  0
  2  1  1  6
  2  3  1  0
  4  5  2  0
  4  2  1  0
  6  4  1  0
  7  6  1  0
  8  7  1  0
  9  8  2  0
 10 11  1  0
 12 11  1  1
 12 14  1  0
 12 13  1  0
 13  8  1  0
 14 15  1  0
 16 14  2  0
M  END
$$$$
