AGS.pdb
     RDKit          3D

 16 15  0  0  1  0  0  0  0  0999 V2000
   14.8842   -7.8002  -18.9718 C   0  0  0  0  0  0  0  0  0  0  0  0
   15.8304   -8.3992  -17.9694 C   0  0  2  0  0  0  0  0  0  0  0  0
   15.2573   -8.3856  -16.6520 N   0  0  0  0  0  0  0  0  0  0  0  0
   17.0939   -7.6404  -17.9943 C   0  0  0  0  0  0  0  0  0  0  0  0
   17.8254   -7.6341  -19.0176 O   0  0  0  0  0  0  0  0  0  0  0  0
   17.4993   -6.9022  -16.8500 N   0  0  0  0  0  0  0  0  0  0  0  0
   18.6595   -6.0156  -16.9296 C   0  0  0  0  0  0  0  0  0  0  0  0
   19.4900   -6.1778  -15.7284 C   0  0  0  0  0  0  0  0  0  0  0  0
   18.9941   -6.5233  -14.6288 O   0  0  0  0  0  0  0  0  0  0  0  0
   23.5694   -6.1429  -16.0153 O   0  0  0  0  0  0  0  0  0  0  0  0
   22.9347   -6.8759  -15.0111 C   0  0  0  0  0  0  0  0  0  0  0  0
   21.7133   -6.1048  -14.5975 C   0  0  2  0  0  0  0  0  0  0  0  0
   20.8775   -5.9438  -15.7964 N   0  0  0  0  0  0  0  0  0  0  0  0
   22.0797   -4.7690  -14.0484 C   0  0  0  0  0  0  0  0  0  0  0  0
   22.5125   -4.7055  -12.7415 O   0  0  0  0  0  0  0  0  0  0  0  0
   22.0121   -3.7070  -14.7187 O   0  0  0  0  0  0  0  0  0  0  0  0
  2  1  1  6
  2  3  1  0
  4  5  2  0
  4  2  1  0
  6  4  1  0
  7  6  1  0
  8  7  1  0
  9  8  2  0
 10 11  1  0
 12 11  1  6
 12 14  1  0
 12 13  1  0
 13  8  1  0
 14 15  1  0
 16 14  2  0
M  END
$$$$
