AGS.pdb
     RDKit          3D

 16 15  0  0  1  0  0  0  0  0999 V2000
   19.1547  -11.7950  -19.5402 C   0  0  0  0  0  0  0  0  0  0  0  0
   19.9728  -11.9816  -18.2932 C   0  0  2  0  0  0  0  0  0  0  0  0
   19.1278  -12.0723  -17.1348 N   0  0  0  0  0  0  0  0  0  0  0  0
   20.9106  -10.8515  -18.1651 C   0  0  0  0  0  0  0  0  0  0  0  0
   22.0413  -10.8829  -18.7153 O   0  0  0  0  0  0  0  0  0  0  0  0
   20.5401   -9.7058  -17.4108 N   0  0  0  0  0  0  0  0  0  0  0  0
   21.4558   -8.5696  -17.3165 C   0  0  0  0  0  0  0  0  0  0  0  0
   20.9505   -7.6071  -16.3280 C   0  0  0  0  0  0  0  0  0  0  0  0
   19.7731   -7.6644  -15.8979 O   0  0  0  0  0  0  0  0  0  0  0  0
   21.9974   -6.9083  -13.0597 O   0  0  0  0  0  0  0  0  0  0  0  0
   22.1946   -5.6691  -13.6715 C   0  0  0  0  0  0  0  0  0  0  0  0
   21.2884   -5.6113  -14.8686 C   0  0  2  0  0  0  0  0  0  0  0  0
   21.7952   -6.5899  -15.8418 N   0  0  0  0  0  0  0  0  0  0  0  0
   21.2796   -4.2492  -15.4725 C   0  0  0  0  0  0  0  0  0  0  0  0
   20.4382   -3.3057  -14.9239 O   0  0  0  0  0  0  0  0  0  0  0  0
   21.9996   -3.9258  -16.4517 O   0  0  0  0  0  0  0  0  0  0  0  0
  2  1  1  6
  2  3  1  0
  4  5  2  0
  4  2  1  0
  6  4  1  0
  7  6  1  0
  8  7  1  0
  9  8  2  0
 10 11  1  0
 12 11  1  1
 12 14  1  0
 12 13  1  0
 13  8  1  0
 14 15  1  0
 16 14  2  0
M  END
$$$$
