HEG.pdb
     RDKit          3D

 24 24  0  0  1  0  0  0  0  0999 V2000
   15.4054  -20.1282    3.5461 N   0  0  0  0  0  0  0  0  0  0  0  0
   16.6892  -20.4011    2.9259 C   0  0  1  0  0  0  0  0  0  0  0  0
   16.6037  -20.0884    1.4737 C   0  0  0  0  0  0  0  0  0  0  0  0
   15.6316  -20.9767    0.7910 C   0  0  0  0  0  0  0  0  0  0  0  0
   14.2849  -21.0680    1.0469 C   0  0  0  0  0  0  0  0  0  0  0  0
   13.8001  -21.9850    0.2062 N   0  0  0  0  0  0  0  0  0  0  0  0
   14.7820  -22.4729   -0.5653 C   0  0  0  0  0  0  0  0  0  0  0  0
   15.9255  -21.8335   -0.1898 N   0  0  0  0  0  0  0  0  0  0  0  0
   17.7947  -19.7070    3.6012 C   0  0  0  0  0  0  0  0  0  0  0  0
   18.9425  -19.7583    3.0827 O   0  0  0  0  0  0  0  0  0  0  0  0
   17.5752  -18.9922    4.8062 N   0  0  0  0  0  0  0  0  0  0  0  0
   18.6009  -18.2589    5.5070 C   0  0  1  0  0  0  0  0  0  0  0  0
   18.2199  -16.9251    6.0485 C   0  0  0  0  0  0  0  0  0  0  0  0
   18.0218  -15.8246    5.0570 C   0  0  0  0  0  0  0  0  0  0  0  0
   17.4633  -14.6260    5.6571 C   0  0  0  0  0  0  0  0  0  0  0  0
   17.1614  -14.6329    6.8932 O   0  0  0  0  0  0  0  0  0  0  0  0
   19.2037  -19.0953    6.5481 C   0  0  0  0  0  0  0  0  0  0  0  0
   18.4831  -19.8764    7.2506 O   0  0  0  0  0  0  0  0  0  0  0  0
   17.2575  -13.4907    4.9058 O   0  0  0  0  0  0  0  0  0  0  0  0
   20.5917  -19.1072    6.8528 N   0  0  0  0  0  0  0  0  0  0  0  0
   21.1324  -19.8719    7.9682 C   0  0  0  0  0  0  0  0  0  0  0  0
   21.0873  -21.3208    7.6903 C   0  0  0  0  0  0  0  0  0  0  0  0
   20.5961  -21.7077    6.6052 O   0  0  0  0  0  0  0  0  0  0  0  0
   21.5895  -22.1908    8.6399 O   0  0  0  0  0  0  0  0  0  0  0  0
  2  1  1  1
  2  9  1  0
  3  4  1  0
  3  2  1  0
  4  5  2  0
  5  6  1  0
  7  6  1  0
  8  4  1  0
  8  7  2  0
  9 11  1  0
  9 10  2  0
 11 12  1  0
 12 17  1  0
 13 14  1  0
 12 13  1  1
 14 15  1  0
 15 16  2  0
 15 19  1  0
 17 18  2  0
 17 20  1  0
 20 21  1  0
 21 22  1  0
 22 24  1  0
 23 22  2  0
M  END
$$$$
