HEG.pdb
     RDKit          3D

 24 24  0  0  1  0  0  0  0  0999 V2000
   26.1311  -22.8670  -18.1632 N   0  0  0  0  0  0  0  0  0  0  0  0
   26.5657  -23.7085  -17.0630 C   0  0  1  0  0  0  0  0  0  0  0  0
   25.3771  -24.1264  -16.2716 C   0  0  0  0  0  0  0  0  0  0  0  0
   24.7158  -22.9580  -15.6411 C   0  0  0  0  0  0  0  0  0  0  0  0
   25.1051  -21.6441  -15.7397 C   0  0  0  0  0  0  0  0  0  0  0  0
   24.2319  -20.9345  -15.0208 N   0  0  0  0  0  0  0  0  0  0  0  0
   23.3127  -21.7442  -14.4758 C   0  0  0  0  0  0  0  0  0  0  0  0
   23.6261  -23.0101  -14.8715 N   0  0  0  0  0  0  0  0  0  0  0  0
   27.3845  -24.8418  -17.5161 C   0  0  0  0  0  0  0  0  0  0  0  0
   27.1109  -25.3753  -18.6250 O   0  0  0  0  0  0  0  0  0  0  0  0
   28.4602  -25.3220  -16.7267 N   0  0  0  0  0  0  0  0  0  0  0  0
   29.3189  -26.4149  -17.1131 C   0  0  1  0  0  0  0  0  0  0  0  0
   30.7756  -26.1212  -17.2083 C   0  0  0  0  0  0  0  0  0  0  0  0
   31.1880  -25.0493  -18.1645 C   0  0  0  0  0  0  0  0  0  0  0  0
   32.5997  -24.7241  -18.0642 C   0  0  0  0  0  0  0  0  0  0  0  0
   33.0898  -23.8396  -18.8365 O   0  0  0  0  0  0  0  0  0  0  0  0
   29.0732  -27.5813  -16.2612 C   0  0  0  0  0  0  0  0  0  0  0  0
   28.8210  -27.4370  -15.0208 O   0  0  0  0  0  0  0  0  0  0  0  0
   33.4073  -25.3606  -17.1486 O   0  0  0  0  0  0  0  0  0  0  0  0
   29.0942  -28.9237  -16.7269 N   0  0  0  0  0  0  0  0  0  0  0  0
   28.8381  -30.0532  -15.8438 C   0  0  0  0  0  0  0  0  0  0  0  0
   28.6942  -31.3057  -16.6113 C   0  0  0  0  0  0  0  0  0  0  0  0
   28.4901  -32.3714  -15.9860 O   0  0  0  0  0  0  0  0  0  0  0  0
   28.7909  -31.2502  -17.9891 O   0  0  0  0  0  0  0  0  0  0  0  0
  2  1  1  6
  2  9  1  0
  3  4  1  0
  3  2  1  0
  4  5  2  0
  5  6  1  0
  7  6  1  0
  8  4  1  0
  8  7  2  0
  9 11  1  0
  9 10  2  0
 11 12  1  0
 12 17  1  0
 13 14  1  0
 12 13  1  1
 14 15  1  0
 15 16  2  0
 15 19  1  0
 17 18  2  0
 17 20  1  0
 20 21  1  0
 21 22  1  0
 22 24  1  0
 23 22  2  0
M  END
$$$$
