HEG.pdb
     RDKit          3D

 24 24  0  0  1  0  0  0  0  0999 V2000
   18.5592  -13.1562  -17.8626 N   0  0  0  0  0  0  0  0  0  0  0  0
   18.8380  -12.4297  -16.6372 C   0  0  1  0  0  0  0  0  0  0  0  0
   19.7757  -13.2275  -15.8016 C   0  0  0  0  0  0  0  0  0  0  0  0
   19.1666  -14.5179  -15.3966 C   0  0  0  0  0  0  0  0  0  0  0  0
   18.0974  -14.6899  -14.5512 C   0  0  0  0  0  0  0  0  0  0  0  0
   17.8874  -16.0058  -14.4677 N   0  0  0  0  0  0  0  0  0  0  0  0
   18.7767  -16.6667  -15.2226 C   0  0  0  0  0  0  0  0  0  0  0  0
   19.5734  -15.7238  -15.8001 N   0  0  0  0  0  0  0  0  0  0  0  0
   19.3142  -11.0632  -16.8940 C   0  0  0  0  0  0  0  0  0  0  0  0
   20.0740  -10.8671  -17.8805 O   0  0  0  0  0  0  0  0  0  0  0  0
   18.9251   -9.9888  -16.0542 N   0  0  0  0  0  0  0  0  0  0  0  0
   19.2920   -8.6126  -16.2832 C   0  0  1  0  0  0  0  0  0  0  0  0
   18.1785   -7.6528  -16.5205 C   0  0  0  0  0  0  0  0  0  0  0  0
   18.5571   -6.2360  -16.8081 C   0  0  0  0  0  0  0  0  0  0  0  0
   17.4021   -5.3693  -16.9617 C   0  0  0  0  0  0  0  0  0  0  0  0
   16.2357   -5.8583  -16.8225 O   0  0  0  0  0  0  0  0  0  0  0  0
   20.1764   -8.1370  -15.2164 C   0  0  0  0  0  0  0  0  0  0  0  0
   19.8626   -8.3002  -13.9926 O   0  0  0  0  0  0  0  0  0  0  0  0
   17.5565   -4.0332  -17.2560 O   0  0  0  0  0  0  0  0  0  0  0  0
   21.4142   -7.4775  -15.4457 N   0  0  0  0  0  0  0  0  0  0  0  0
   22.2799   -7.0553  -14.3532 C   0  0  0  0  0  0  0  0  0  0  0  0
   21.8435   -5.7580  -13.8007 C   0  0  0  0  0  0  0  0  0  0  0  0
   20.8513   -5.1916  -14.3137 O   0  0  0  0  0  0  0  0  0  0  0  0
   22.5486   -5.2220  -12.7394 O   0  0  0  0  0  0  0  0  0  0  0  0
  2  1  1  6
  2  9  1  0
  3  4  1  0
  3  2  1  0
  4  5  2  0
  5  6  1  0
  7  6  1  0
  8  4  1  0
  8  7  2  0
  9 11  1  0
  9 10  2  0
 11 12  1  0
 12 17  1  0
 13 14  1  0
 12 13  1  1
 14 15  1  0
 15 16  2  0
 15 19  1  0
 17 18  2  0
 17 20  1  0
 20 21  1  0
 21 22  1  0
 22 24  1  0
 23 22  2  0
M  END
$$$$
