HEG.pdb
     RDKit          3D

 24 24  0  0  1  0  0  0  0  0999 V2000
   20.9836  -12.9690  -16.2436 N   0  0  0  0  0  0  0  0  0  0  0  0
   20.0202  -11.8912  -16.3766 C   0  0  1  0  0  0  0  0  0  0  0  0
   18.6861  -12.3735  -15.9277 C   0  0  0  0  0  0  0  0  0  0  0  0
   18.2337  -13.5295  -16.7395 C   0  0  0  0  0  0  0  0  0  0  0  0
   18.0273  -13.5465  -18.0976 C   0  0  0  0  0  0  0  0  0  0  0  0
   17.6268  -14.7825  -18.4053 N   0  0  0  0  0  0  0  0  0  0  0  0
   17.5727  -15.5413  -17.3013 C   0  0  0  0  0  0  0  0  0  0  0  0
   17.9553  -14.7453  -16.2634 N   0  0  0  0  0  0  0  0  0  0  0  0
   20.4527  -10.6671  -15.6878 C   0  0  0  0  0  0  0  0  0  0  0  0
   20.9133  -10.7663  -14.5186 O   0  0  0  0  0  0  0  0  0  0  0  0
   20.3584   -9.4036  -16.3247 N   0  0  0  0  0  0  0  0  0  0  0  0
   20.7921   -8.1647  -15.7264 C   0  0  1  0  0  0  0  0  0  0  0  0
   22.0997   -7.6202  -16.1859 C   0  0  0  0  0  0  0  0  0  0  0  0
   23.3178   -8.4228  -15.8610 C   0  0  0  0  0  0  0  0  0  0  0  0
   24.5408   -7.7975  -16.3322 C   0  0  0  0  0  0  0  0  0  0  0  0
   24.4819   -6.6473  -16.8732 O   0  0  0  0  0  0  0  0  0  0  0  0
   19.7373   -7.1530  -15.8287 C   0  0  0  0  0  0  0  0  0  0  0  0
   18.9958   -7.0913  -16.8628 O   0  0  0  0  0  0  0  0  0  0  0  0
   25.7547   -8.4340  -16.2015 O   0  0  0  0  0  0  0  0  0  0  0  0
   19.4603   -6.1895  -14.8215 N   0  0  0  0  0  0  0  0  0  0  0  0
   18.3485   -5.2550  -14.9296 C   0  0  0  0  0  0  0  0  0  0  0  0
   18.6878   -4.1263  -15.8181 C   0  0  0  0  0  0  0  0  0  0  0  0
   19.8199   -4.1043  -16.3532 O   0  0  0  0  0  0  0  0  0  0  0  0
   17.7413   -3.1398  -16.0226 O   0  0  0  0  0  0  0  0  0  0  0  0
  2  1  1  1
  2  9  1  0
  3  4  1  0
  3  2  1  0
  4  5  2  0
  5  6  1  0
  7  6  1  0
  8  4  1  0
  8  7  2  0
  9 11  1  0
  9 10  2  0
 11 12  1  0
 12 17  1  0
 13 14  1  0
 12 13  1  6
 14 15  1  0
 15 16  2  0
 15 19  1  0
 17 18  2  0
 17 20  1  0
 20 21  1  0
 21 22  1  0
 22 24  1  0
 23 22  2  0
M  END
$$$$
