HEG.pdb
     RDKit          3D

 24 24  0  0  1  0  0  0  0  0999 V2000
   17.8793  -10.5326  -17.9330 N   0  0  0  0  0  0  0  0  0  0  0  0
   18.1011   -9.9371  -16.6279 C   0  0  1  0  0  0  0  0  0  0  0  0
   19.1741  -10.6914  -15.9254 C   0  0  0  0  0  0  0  0  0  0  0  0
   18.7887  -12.1096  -15.7252 C   0  0  0  0  0  0  0  0  0  0  0  0
   19.3614  -13.2065  -16.3221 C   0  0  0  0  0  0  0  0  0  0  0  0
   18.7087  -14.2751  -15.8584 N   0  0  0  0  0  0  0  0  0  0  0  0
   17.7525  -13.8976  -14.9977 C   0  0  0  0  0  0  0  0  0  0  0  0
   17.8120  -12.5382  -14.9222 N   0  0  0  0  0  0  0  0  0  0  0  0
   18.3694   -8.4945  -16.7103 C   0  0  0  0  0  0  0  0  0  0  0  0
   19.1048   -8.0724  -17.6430 O   0  0  0  0  0  0  0  0  0  0  0  0
   17.8108   -7.5968  -15.7652 N   0  0  0  0  0  0  0  0  0  0  0  0
   17.9123   -6.1609  -15.8592 C   0  0  1  0  0  0  0  0  0  0  0  0
   16.6357   -5.3950  -15.8224 C   0  0  0  0  0  0  0  0  0  0  0  0
   15.6338   -5.6995  -16.8887 C   0  0  0  0  0  0  0  0  0  0  0  0
   14.3318   -5.1180  -16.6143 C   0  0  0  0  0  0  0  0  0  0  0  0
   13.4201   -5.8470  -16.1080 O   0  0  0  0  0  0  0  0  0  0  0  0
   18.8590   -5.6510  -14.8641 C   0  0  0  0  0  0  0  0  0  0  0  0
   18.7119   -5.9251  -13.6287 O   0  0  0  0  0  0  0  0  0  0  0  0
   14.0761   -3.7949  -16.8965 O   0  0  0  0  0  0  0  0  0  0  0  0
   19.9809   -4.8374  -15.1787 N   0  0  0  0  0  0  0  0  0  0  0  0
   20.8516   -4.2882  -14.1484 C   0  0  0  0  0  0  0  0  0  0  0  0
   21.9368   -5.2305  -13.8123 C   0  0  0  0  0  0  0  0  0  0  0  0
   21.9373   -6.3608  -14.3517 O   0  0  0  0  0  0  0  0  0  0  0  0
   22.9080   -4.8259  -12.9158 O   0  0  0  0  0  0  0  0  0  0  0  0
  2  1  1  6
  2  9  1  0
  3  4  1  0
  3  2  1  0
  4  5  2  0
  5  6  1  0
  7  6  1  0
  8  4  1  0
  8  7  2  0
  9 11  1  0
  9 10  2  0
 11 12  1  0
 12 17  1  0
 13 14  1  0
 12 13  1  1
 14 15  1  0
 15 16  2  0
 15 19  1  0
 17 18  2  0
 17 20  1  0
 20 21  1  0
 21 22  1  0
 22 24  1  0
 23 22  2  0
M  END
$$$$
