SMS.pdb
     RDKit          3D

 21 20  0  0  1  0  0  0  0  0999 V2000
    9.2890  -14.2164   19.5040 O   0  0  0  0  0  0  0  0  0  0  0  0
    9.7716  -15.4989   19.5584 C   0  0  0  0  0  0  0  0  0  0  0  0
    9.1022  -16.3690   20.5927 C   0  0  2  0  0  0  0  0  0  0  0  0
    7.6850  -16.3397   20.3145 N   0  0  0  0  0  0  0  0  0  0  0  0
    9.3880  -15.9228   21.9778 C   0  0  0  0  0  0  0  0  0  0  0  0
   10.5725  -15.8875   22.3521 O   0  0  0  0  0  0  0  0  0  0  0  0
    7.0982  -10.9630   26.6485 C   0  0  0  0  0  0  0  0  0  0  0  0
    6.2916  -12.5940   26.6103 S   0  0  0  0  0  0  0  0  0  0  0  0
    7.5706  -13.8370   26.1757 C   0  0  0  0  0  0  0  0  0  0  0  0
    7.4121  -14.2346   24.7453 C   0  0  0  0  0  0  0  0  0  0  0  0
    8.5394  -15.1139   24.2261 C   0  0  2  0  0  0  0  0  0  0  0  0
    8.3578  -15.5457   22.8586 N   0  0  0  0  0  0  0  0  0  0  0  0
    8.6538  -16.2817   25.1194 C   0  0  0  0  0  0  0  0  0  0  0  0
    7.7106  -17.0515   25.3926 O   0  0  0  0  0  0  0  0  0  0  0  0
   12.3506  -18.0190   25.6981 O   0  0  0  0  0  0  0  0  0  0  0  0
   11.1508  -18.6910   25.8925 C   0  0  0  0  0  0  0  0  0  0  0  0
   10.1103  -17.7639   26.5160 C   0  0  2  0  0  0  0  0  0  0  0  0
    9.9220  -16.5795   25.7308 N   0  0  0  0  0  0  0  0  0  0  0  0
   10.4918  -17.4702   27.9040 C   0  0  0  0  0  0  0  0  0  0  0  0
   10.6991  -18.4646   28.8300 O   0  0  0  0  0  0  0  0  0  0  0  0
   10.6414  -16.2801   28.2887 O   0  0  0  0  0  0  0  0  0  0  0  0
  2  3  1  0
  2  1  1  0
  3  4  1  6
  3  5  1  0
  5  6  2  0
  7  8  1  0
  9  8  1  0
 11 10  1  1
 10  9  1  0
 11 13  1  0
 12  5  1  0
 12 11  1  0
 13 14  2  0
 15 16  1  0
 17 16  1  6
 17 19  1  0
 18 17  1  0
 18 13  1  0
 19 20  1  0
 21 19  2  0
M  END
$$$$
