SMS.pdb
     RDKit          3D

 21 20  0  0  1  0  0  0  0  0999 V2000
    8.3329  -18.4564   20.8877 O   0  0  0  0  0  0  0  0  0  0  0  0
    7.5135  -17.5010   20.3434 C   0  0  0  0  0  0  0  0  0  0  0  0
    8.1271  -16.1249   20.2751 C   0  0  2  0  0  0  0  0  0  0  0  0
    9.1716  -16.1783   19.2786 N   0  0  0  0  0  0  0  0  0  0  0  0
    8.6563  -15.6758   21.5856 C   0  0  0  0  0  0  0  0  0  0  0  0
    9.8767  -15.7820   21.7952 O   0  0  0  0  0  0  0  0  0  0  0  0
    7.0195  -11.4292   28.1048 C   0  0  0  0  0  0  0  0  0  0  0  0
    6.3246  -12.2755   26.6511 S   0  0  0  0  0  0  0  0  0  0  0  0
    7.6637  -13.2824   25.9009 C   0  0  0  0  0  0  0  0  0  0  0  0
    7.1773  -13.8849   24.6243 C   0  0  0  0  0  0  0  0  0  0  0  0
    8.2382  -14.6816   23.8804 C   0  0  2  0  0  0  0  0  0  0  0  0
    7.8137  -15.1410   22.5773 N   0  0  0  0  0  0  0  0  0  0  0  0
    8.6225  -15.8274   24.7256 C   0  0  0  0  0  0  0  0  0  0  0  0
    7.8702  -16.7864   24.9922 O   0  0  0  0  0  0  0  0  0  0  0  0
   12.0568  -17.4256   24.3579 O   0  0  0  0  0  0  0  0  0  0  0  0
   11.8550  -17.3390   25.7293 C   0  0  0  0  0  0  0  0  0  0  0  0
   10.3965  -17.0101   26.0383 C   0  0  2  0  0  0  0  0  0  0  0  0
    9.9439  -15.8717   25.2940 N   0  0  0  0  0  0  0  0  0  0  0  0
   10.2338  -16.8413   27.4886 C   0  0  0  0  0  0  0  0  0  0  0  0
   10.5644  -17.8337   28.3805 O   0  0  0  0  0  0  0  0  0  0  0  0
    9.7799  -15.7656   27.9611 O   0  0  0  0  0  0  0  0  0  0  0  0
  2  3  1  0
  2  1  1  0
  3  4  1  6
  3  5  1  0
  5  6  2  0
  7  8  1  0
  9  8  1  0
 11 10  1  1
 10  9  1  0
 11 13  1  0
 12  5  1  0
 12 11  1  0
 13 14  2  0
 15 16  1  0
 17 16  1  1
 17 19  1  0
 18 17  1  0
 18 13  1  0
 19 20  1  0
 21 19  2  0
M  END
$$$$
