SMS.pdb
     RDKit          3D

 21 20  0  0  1  0  0  0  0  0999 V2000
    7.4303  -17.8077   20.4477 O   0  0  0  0  0  0  0  0  0  0  0  0
    6.9524  -16.6068   19.9894 C   0  0  0  0  0  0  0  0  0  0  0  0
    7.9547  -15.4808   20.0419 C   0  0  2  0  0  0  0  0  0  0  0  0
    9.0123  -15.8146   19.1164 N   0  0  0  0  0  0  0  0  0  0  0  0
    8.4858  -15.2596   21.4088 C   0  0  0  0  0  0  0  0  0  0  0  0
    9.6547  -15.6067   21.6492 O   0  0  0  0  0  0  0  0  0  0  0  0
    7.1080  -11.6990   28.4015 C   0  0  0  0  0  0  0  0  0  0  0  0
    6.3783  -12.2458   26.8265 S   0  0  0  0  0  0  0  0  0  0  0  0
    7.6175  -13.2991   25.9753 C   0  0  0  0  0  0  0  0  0  0  0  0
    7.1507  -13.5943   24.5881 C   0  0  0  0  0  0  0  0  0  0  0  0
    8.1280  -14.4333   23.7791 C   0  0  2  0  0  0  0  0  0  0  0  0
    7.7015  -14.6736   22.4191 N   0  0  0  0  0  0  0  0  0  0  0  0
    8.3235  -15.7124   24.4865 C   0  0  0  0  0  0  0  0  0  0  0  0
    7.4508  -16.5982   24.5890 O   0  0  0  0  0  0  0  0  0  0  0  0
   12.1398  -17.2183   24.9392 O   0  0  0  0  0  0  0  0  0  0  0  0
   10.9878  -17.9933   24.9730 C   0  0  0  0  0  0  0  0  0  0  0  0
    9.8678  -17.2599   25.7068 C   0  0  2  0  0  0  0  0  0  0  0  0
    9.5916  -15.9866   25.1090 N   0  0  0  0  0  0  0  0  0  0  0  0
   10.2084  -17.1558   27.1322 C   0  0  0  0  0  0  0  0  0  0  0  0
   10.2406  -15.9485   27.7886 O   0  0  0  0  0  0  0  0  0  0  0  0
   10.4845  -18.1865   27.8014 O   0  0  0  0  0  0  0  0  0  0  0  0
  2  3  1  0
  2  1  1  0
  3  4  1  6
  3  5  1  0
  5  6  2  0
  7  8  1  0
  9  8  1  0
 11 10  1  1
 10  9  1  0
 11 13  1  0
 12  5  1  0
 12 11  1  0
 13 14  2  0
 15 16  1  0
 17 16  1  6
 17 19  1  0
 18 17  1  0
 18 13  1  0
 19 20  1  0
 21 19  2  0
M  END
$$$$
