SMS.pdb
     RDKit          3D

 21 20  0  0  1  0  0  0  0  0999 V2000
    6.7275  -18.0432   21.2932 O   0  0  0  0  0  0  0  0  0  0  0  0
    5.8352  -17.0501   20.9796 C   0  0  0  0  0  0  0  0  0  0  0  0
    6.4511  -15.6781   20.8644 C   0  0  2  0  0  0  0  0  0  0  0  0
    7.0433  -15.5912   19.5497 N   0  0  0  0  0  0  0  0  0  0  0  0
    7.4545  -15.4176   21.9248 C   0  0  0  0  0  0  0  0  0  0  0  0
    8.6586  -15.5060   21.6301 O   0  0  0  0  0  0  0  0  0  0  0  0
    7.4406  -11.2421   27.5588 C   0  0  0  0  0  0  0  0  0  0  0  0
    6.0151  -11.9918   26.7115 S   0  0  0  0  0  0  0  0  0  0  0  0
    6.6324  -12.7723   25.1689 C   0  0  0  0  0  0  0  0  0  0  0  0
    7.2875  -14.0732   25.4973 C   0  0  0  0  0  0  0  0  0  0  0  0
    7.9740  -14.7297   24.3094 C   0  0  2  0  0  0  0  0  0  0  0  0
    7.0716  -15.0779   23.2353 N   0  0  0  0  0  0  0  0  0  0  0  0
    8.6756  -15.9318   24.7967 C   0  0  0  0  0  0  0  0  0  0  0  0
    8.1103  -16.9027   25.3394 O   0  0  0  0  0  0  0  0  0  0  0  0
   12.8173  -16.1320   24.2583 O   0  0  0  0  0  0  0  0  0  0  0  0
   12.1428  -17.3429   24.3461 C   0  0  0  0  0  0  0  0  0  0  0  0
   10.8286  -17.1725   25.1041 C   0  0  2  0  0  0  0  0  0  0  0  0
   10.1046  -16.0211   24.6513 N   0  0  0  0  0  0  0  0  0  0  0  0
   11.1015  -17.1400   26.5473 C   0  0  0  0  0  0  0  0  0  0  0  0
   11.7651  -18.1593   27.1877 O   0  0  0  0  0  0  0  0  0  0  0  0
   10.7288  -16.1616   27.2475 O   0  0  0  0  0  0  0  0  0  0  0  0
  2  3  1  0
  2  1  1  0
  3  4  1  6
  3  5  1  0
  5  6  2  0
  7  8  1  0
  9  8  1  0
 11 10  1  1
 10  9  1  0
 11 13  1  0
 12  5  1  0
 12 11  1  0
 13 14  2  0
 15 16  1  0
 17 16  1  6
 17 19  1  0
 18 17  1  0
 18 13  1  0
 19 20  1  0
 21 19  2  0
M  END
$$$$
