SMS.pdb
     RDKit          3D

 21 20  0  0  1  0  0  0  0  0999 V2000
    7.2176  -17.4466   20.5335 O   0  0  0  0  0  0  0  0  0  0  0  0
    6.6207  -16.2821   20.1231 C   0  0  0  0  0  0  0  0  0  0  0  0
    7.5087  -15.0662   20.2128 C   0  0  2  0  0  0  0  0  0  0  0  0
    8.4731  -15.1688   19.1422 N   0  0  0  0  0  0  0  0  0  0  0  0
    8.1784  -14.9507   21.5309 C   0  0  0  0  0  0  0  0  0  0  0  0
    9.3812  -15.2535   21.6084 O   0  0  0  0  0  0  0  0  0  0  0  0
    6.1707  -11.0144   26.6110 C   0  0  0  0  0  0  0  0  0  0  0  0
    6.5615  -12.5955   27.4232 S   0  0  0  0  0  0  0  0  0  0  0  0
    7.7381  -13.4999   26.3428 C   0  0  0  0  0  0  0  0  0  0  0  0
    7.1460  -13.6526   24.9806 C   0  0  0  0  0  0  0  0  0  0  0  0
    8.0504  -14.3814   23.9985 C   0  0  2  0  0  0  0  0  0  0  0  0
    7.4859  -14.5117   22.6742 N   0  0  0  0  0  0  0  0  0  0  0  0
    8.3512  -15.7121   24.5584 C   0  0  0  0  0  0  0  0  0  0  0  0
    7.5337  -16.6533   24.6095 O   0  0  0  0  0  0  0  0  0  0  0  0
   12.2852  -17.0146   24.7050 O   0  0  0  0  0  0  0  0  0  0  0  0
   11.1770  -17.8507   24.6628 C   0  0  0  0  0  0  0  0  0  0  0  0
   10.0451  -17.2866   25.5180 C   0  0  2  0  0  0  0  0  0  0  0  0
    9.6636  -15.9735   25.0878 N   0  0  0  0  0  0  0  0  0  0  0  0
   10.4389  -17.3282   26.9328 C   0  0  0  0  0  0  0  0  0  0  0  0
   10.4403  -16.2038   27.7234 O   0  0  0  0  0  0  0  0  0  0  0  0
   10.7914  -18.4128   27.4677 O   0  0  0  0  0  0  0  0  0  0  0  0
  2  3  1  0
  2  1  1  0
  3  4  1  6
  3  5  1  0
  5  6  2  0
  7  8  1  0
  9  8  1  0
 11 10  1  1
 10  9  1  0
 11 13  1  0
 12  5  1  0
 12 11  1  0
 13 14  2  0
 15 16  1  0
 17 16  1  6
 17 19  1  0
 18 17  1  0
 18 13  1  0
 19 20  1  0
 21 19  2  0
M  END
$$$$
