SMS.pdb
     RDKit          3D

 21 20  0  0  1  0  0  0  0  0999 V2000
    7.4410  -17.2527   20.6406 O   0  0  0  0  0  0  0  0  0  0  0  0
    6.7630  -16.0867   20.3928 C   0  0  0  0  0  0  0  0  0  0  0  0
    7.5644  -14.8364   20.6562 C   0  0  2  0  0  0  0  0  0  0  0  0
    8.6028  -14.7824   19.6535 N   0  0  0  0  0  0  0  0  0  0  0  0
    8.1358  -14.8085   22.0245 C   0  0  0  0  0  0  0  0  0  0  0  0
    9.3389  -15.0862   22.1655 O   0  0  0  0  0  0  0  0  0  0  0  0
    9.0379  -12.7428   28.9091 C   0  0  0  0  0  0  0  0  0  0  0  0
    8.5028  -12.6675   27.1712 S   0  0  0  0  0  0  0  0  0  0  0  0
    7.2344  -13.9710   26.9228 C   0  0  0  0  0  0  0  0  0  0  0  0
    6.7729  -13.9519   25.5030 C   0  0  0  0  0  0  0  0  0  0  0  0
    7.8112  -14.4613   24.5151 C   0  0  2  0  0  0  0  0  0  0  0  0
    7.3515  -14.4786   23.1448 N   0  0  0  0  0  0  0  0  0  0  0  0
    8.2132  -15.8163   24.9359 C   0  0  0  0  0  0  0  0  0  0  0  0
    7.4574  -16.8089   24.9215 O   0  0  0  0  0  0  0  0  0  0  0  0
   12.1567  -16.9560   24.9218 O   0  0  0  0  0  0  0  0  0  0  0  0
   11.1251  -17.8815   25.0117 C   0  0  0  0  0  0  0  0  0  0  0  0
    9.9808  -17.3304   25.8589 C   0  0  2  0  0  0  0  0  0  0  0  0
    9.5575  -16.0408   25.3979 N   0  0  0  0  0  0  0  0  0  0  0  0
   10.3826  -17.3242   27.2721 C   0  0  0  0  0  0  0  0  0  0  0  0
   10.8609  -18.4497   27.8998 O   0  0  0  0  0  0  0  0  0  0  0  0
   10.2982  -16.2706   27.9571 O   0  0  0  0  0  0  0  0  0  0  0  0
  2  3  1  0
  2  1  1  0
  3  4  1  6
  3  5  1  0
  5  6  2  0
  7  8  1  0
  9  8  1  0
 11 10  1  1
 10  9  1  0
 11 13  1  0
 12  5  1  0
 12 11  1  0
 13 14  2  0
 15 16  1  0
 17 16  1  6
 17 19  1  0
 18 17  1  0
 18 13  1  0
 19 20  1  0
 21 19  2  0
M  END
$$$$
