SMS.pdb
     RDKit          3D

 21 20  0  0  1  0  0  0  0  0999 V2000
    6.2150  -19.8357   22.6174 O   0  0  0  0  0  0  0  0  0  0  0  0
    5.1780  -18.9531   22.4552 C   0  0  0  0  0  0  0  0  0  0  0  0
    5.5548  -17.6797   21.7399 C   0  0  2  0  0  0  0  0  0  0  0  0
    5.8833  -18.0414   20.3806 N   0  0  0  0  0  0  0  0  0  0  0  0
    6.6822  -16.9745   22.3965 C   0  0  0  0  0  0  0  0  0  0  0  0
    7.8031  -17.0323   21.8630 O   0  0  0  0  0  0  0  0  0  0  0  0
    5.8961  -11.9142   26.4614 C   0  0  0  0  0  0  0  0  0  0  0  0
    7.3573  -12.6561   27.2530 S   0  0  0  0  0  0  0  0  0  0  0  0
    8.1103  -13.8207   26.0503 C   0  0  0  0  0  0  0  0  0  0  0  0
    7.0316  -14.5796   25.3505 C   0  0  0  0  0  0  0  0  0  0  0  0
    7.5506  -15.5752   24.3245 C   0  0  2  0  0  0  0  0  0  0  0  0
    6.5057  -16.2540   23.5919 N   0  0  0  0  0  0  0  0  0  0  0  0
    8.3988  -16.5543   25.0293 C   0  0  0  0  0  0  0  0  0  0  0  0
    7.9679  -17.4077   25.8310 O   0  0  0  0  0  0  0  0  0  0  0  0
   12.5010  -16.5719   24.1634 O   0  0  0  0  0  0  0  0  0  0  0  0
   11.9002  -17.7919   24.4452 C   0  0  0  0  0  0  0  0  0  0  0  0
   10.6596  -17.5926   25.3123 C   0  0  2  0  0  0  0  0  0  0  0  0
    9.8193  -16.5510   24.7985 N   0  0  0  0  0  0  0  0  0  0  0  0
   11.0721  -17.3553   26.7023 C   0  0  0  0  0  0  0  0  0  0  0  0
   11.7813  -18.2871   27.4223 O   0  0  0  0  0  0  0  0  0  0  0  0
   10.7822  -16.2746   27.2806 O   0  0  0  0  0  0  0  0  0  0  0  0
  2  3  1  0
  2  1  1  0
  3  4  1  6
  3  5  1  0
  5  6  2  0
  7  8  1  0
  9  8  1  0
 11 10  1  1
 10  9  1  0
 11 13  1  0
 12  5  1  0
 12 11  1  0
 13 14  2  0
 15 16  1  0
 17 16  1  6
 17 19  1  0
 18 17  1  0
 18 13  1  0
 19 20  1  0
 21 19  2  0
M  END
$$$$
