WTK.pdb
     RDKit          3D

 31 32  0  0  1  0  0  0  0  0999 V2000
   27.6646  -22.4117  -10.0611 N   0  0  0  0  0  0  0  0  0  0  0  0
   27.1620  -21.0133  -10.0084 C   0  0  1  0  0  0  0  0  0  0  0  0
   28.3431  -20.1769   -9.6884 C   0  0  0  0  0  0  0  0  0  0  0  0
   28.9770  -20.3825   -8.3961 C   0  0  0  0  0  0  0  0  0  0  0  0
   30.1839  -21.0134   -8.1693 C   0  0  0  0  0  0  0  0  0  0  0  0
   30.3732  -20.9946   -6.8401 N   0  0  0  0  0  0  0  0  0  0  0  0
   29.3540  -20.3882   -6.2293 C   0  0  0  0  0  0  0  0  0  0  0  0
   29.0701  -20.0935   -4.9072 C   0  0  0  0  0  0  0  0  0  0  0  0
   27.9062  -19.4146   -4.5878 C   0  0  0  0  0  0  0  0  0  0  0  0
   26.9999  -19.0134   -5.5609 C   0  0  0  0  0  0  0  0  0  0  0  0
   27.2854  -19.3088   -6.8706 C   0  0  0  0  0  0  0  0  0  0  0  0
   28.4480  -19.9861   -7.1826 C   0  0  0  0  0  0  0  0  0  0  0  0
   26.4701  -20.7660  -11.2744 C   0  0  0  0  0  0  0  0  0  0  0  0
   27.1207  -20.7625  -12.3760 O   0  0  0  0  0  0  0  0  0  0  0  0
   26.0212  -22.0535  -13.7858 C   0  0  0  0  0  0  0  0  0  0  0  0
   24.6097  -21.6720  -13.5011 C   0  0  1  0  0  0  0  0  0  0  0  0
   23.9674  -22.6511  -12.7208 O   0  0  0  0  0  0  0  0  0  0  0  0
   24.4596  -20.3451  -12.7552 C   0  0  2  0  0  0  0  0  0  0  0  0
   25.0668  -20.5229  -11.4151 N   0  0  0  0  0  0  0  0  0  0  0  0
   23.0536  -20.0137  -12.5702 C   0  0  0  0  0  0  0  0  0  0  0  0
   22.5640  -20.0526  -11.3809 O   0  0  0  0  0  0  0  0  0  0  0  0
   22.1573  -19.6412  -13.5999 N   0  0  0  0  0  0  0  0  0  0  0  0
   20.8153  -19.1517  -13.2633 C   0  0  1  0  0  0  0  0  0  0  0  0
   20.1736  -18.5453  -14.4710 C   0  0  0  0  0  0  0  0  0  0  0  0
   20.0432  -17.0630  -14.3386 C   0  0  0  0  0  0  0  0  0  0  0  0
   19.4646  -16.4203  -15.5886 C   0  0  0  0  0  0  0  0  0  0  0  0
   19.3455  -14.9168  -15.4033 C   0  0  0  0  0  0  0  0  0  0  0  0
   18.8267  -14.3213  -16.6148 N   0  0  0  0  0  0  0  0  0  0  0  0
   20.0080  -20.2839  -12.7656 C   0  0  0  0  0  0  0  0  0  0  0  0
   20.1171  -21.4352  -13.2900 O   0  0  0  0  0  0  0  0  0  0  0  0
   19.1048  -20.1874  -11.7270 O   0  0  0  0  0  0  0  0  0  0  0  0
  2  1  1  6
  3  2  1  0
  4  5  2  0
  4  3  1  0
  6  5  1  0
  7 12  2  0
  7  6  1  0
  8  7  1  0
  9 10  1  0
  9  8  2  0
 10 11  2  0
 11 12  1  0
 12  4  1  0
 13 14  2  0
 13  2  1  0
 16 15  1  1
 16 18  1  0
 17 16  1  0
 18 19  1  1
 19 13  1  0
 20 18  1  0
 21 20  2  0
 22 20  1  0
 23 29  1  0
 23 22  1  0
 23 24  1  6
 25 24  1  0
 26 27  1  0
 26 25  1  0
 27 28  1  0
 29 31  1  0
 30 29  2  0
M  END
$$$$
