WTK.pdb
     RDKit          3D

 31 32  0  0  1  0  0  0  0  0999 V2000
   25.8890  -21.3750  -13.4748 N   0  0  0  0  0  0  0  0  0  0  0  0
   25.4519  -21.1146  -12.0776 C   0  0  1  0  0  0  0  0  0  0  0  0
   26.3661  -20.0679  -11.5623 C   0  0  0  0  0  0  0  0  0  0  0  0
   27.5713  -20.5105  -10.8796 C   0  0  0  0  0  0  0  0  0  0  0  0
   28.7728  -20.8402  -11.4745 C   0  0  0  0  0  0  0  0  0  0  0  0
   29.5956  -21.2080  -10.4792 N   0  0  0  0  0  0  0  0  0  0  0  0
   28.9745  -21.1252   -9.3016 C   0  0  0  0  0  0  0  0  0  0  0  0
   29.3649  -21.3646   -7.9955 C   0  0  0  0  0  0  0  0  0  0  0  0
   28.4685  -21.1587   -6.9603 C   0  0  0  0  0  0  0  0  0  0  0  0
   27.1725  -20.7145   -7.1890 C   0  0  0  0  0  0  0  0  0  0  0  0
   26.7897  -20.4794   -8.4860 C   0  0  0  0  0  0  0  0  0  0  0  0
   27.6885  -20.6866   -9.5141 C   0  0  0  0  0  0  0  0  0  0  0  0
   24.0218  -20.8080  -12.1336 C   0  0  0  0  0  0  0  0  0  0  0  0
   23.6233  -19.6515  -12.5087 O   0  0  0  0  0  0  0  0  0  0  0  0
   22.0089  -19.7000  -13.8231 C   0  0  0  0  0  0  0  0  0  0  0  0
   21.3045  -20.9370  -13.3843 C   0  0  1  0  0  0  0  0  0  0  0  0
   21.6986  -22.0457  -14.1561 O   0  0  0  0  0  0  0  0  0  0  0  0
   21.5488  -21.3092  -11.9209 C   0  0  2  0  0  0  0  0  0  0  0  0
   22.9682  -21.7182  -11.8022 N   0  0  0  0  0  0  0  0  0  0  0  0
   20.7212  -22.4427  -11.5321 C   0  0  0  0  0  0  0  0  0  0  0  0
   21.1129  -23.6270  -11.8482 O   0  0  0  0  0  0  0  0  0  0  0  0
   19.5013  -22.3605  -10.8198 N   0  0  0  0  0  0  0  0  0  0  0  0
   18.8729  -23.5794  -10.2971 C   0  0  1  0  0  0  0  0  0  0  0  0
   18.4476  -23.3683   -8.8785 C   0  0  0  0  0  0  0  0  0  0  0  0
   17.8323  -24.6004   -8.2997 C   0  0  0  0  0  0  0  0  0  0  0  0
   17.2138  -24.3501   -6.9340 C   0  0  0  0  0  0  0  0  0  0  0  0
   16.5991  -25.6288   -6.3897 C   0  0  0  0  0  0  0  0  0  0  0  0
   17.4839  -26.2067   -5.4024 N   0  0  0  0  0  0  0  0  0  0  0  0
   17.7064  -23.9111  -11.1399 C   0  0  0  0  0  0  0  0  0  0  0  0
   17.0578  -22.9957  -11.7350 O   0  0  0  0  0  0  0  0  0  0  0  0
   17.2447  -25.1952  -11.3444 O   0  0  0  0  0  0  0  0  0  0  0  0
  2  1  1  6
  3  2  1  0
  4  5  2  0
  4  3  1  0
  6  5  1  0
  7 12  2  0
  7  6  1  0
  8  7  1  0
  9 10  1  0
  9  8  2  0
 10 11  2  0
 11 12  1  0
 12  4  1  0
 13 14  2  0
 13  2  1  0
 16 15  1  6
 16 18  1  0
 17 16  1  0
 18 19  1  6
 19 13  1  0
 20 18  1  0
 21 20  2  0
 22 20  1  0
 23 29  1  0
 23 22  1  0
 23 24  1  1
 25 24  1  0
 26 27  1  0
 26 25  1  0
 27 28  1  0
 29 31  1  0
 30 29  2  0
M  END
$$$$
