WTK.pdb
     RDKit          3D

 31 32  0  0  1  0  0  0  0  0999 V2000
   28.1507  -22.2169  -10.6252 N   0  0  0  0  0  0  0  0  0  0  0  0
   27.1015  -21.2135  -10.3040 C   0  0  1  0  0  0  0  0  0  0  0  0
   27.8268  -20.0320   -9.7795 C   0  0  0  0  0  0  0  0  0  0  0  0
   28.6608  -20.2274   -8.6045 C   0  0  0  0  0  0  0  0  0  0  0  0
   29.9260  -20.7796   -8.5834 C   0  0  0  0  0  0  0  0  0  0  0  0
   30.3125  -20.7827   -7.2975 N   0  0  0  0  0  0  0  0  0  0  0  0
   29.3608  -20.2641   -6.5198 C   0  0  0  0  0  0  0  0  0  0  0  0
   29.2618  -20.0244   -5.1604 C   0  0  0  0  0  0  0  0  0  0  0  0
   28.1184  -19.4358   -4.6466 C   0  0  0  0  0  0  0  0  0  0  0  0
   27.0516  -19.0725   -5.4584 C   0  0  0  0  0  0  0  0  0  0  0  0
   27.1541  -19.3131   -6.8059 C   0  0  0  0  0  0  0  0  0  0  0  0
   28.2971  -19.9004   -7.3121 C   0  0  0  0  0  0  0  0  0  0  0  0
   26.2976  -21.0418  -11.5150 C   0  0  0  0  0  0  0  0  0  0  0  0
   26.8612  -20.7732  -12.6318 O   0  0  0  0  0  0  0  0  0  0  0  0
   24.8936  -23.2746  -13.6880 C   0  0  0  0  0  0  0  0  0  0  0  0
   23.7486  -22.3847  -13.3475 C   0  0  1  0  0  0  0  0  0  0  0  0
   22.9584  -22.9438  -12.3261 O   0  0  0  0  0  0  0  0  0  0  0  0
   24.1608  -20.9902  -12.8729 C   0  0  2  0  0  0  0  0  0  0  0  0
   24.8727  -21.1570  -11.5839 N   0  0  0  0  0  0  0  0  0  0  0  0
   22.9888  -20.1595  -12.6339 C   0  0  0  0  0  0  0  0  0  0  0  0
   22.4936  -20.1218  -11.4468 O   0  0  0  0  0  0  0  0  0  0  0  0
   22.3320  -19.3698  -13.6072 N   0  0  0  0  0  0  0  0  0  0  0  0
   21.2332  -18.4810  -13.2116 C   0  0  1  0  0  0  0  0  0  0  0  0
   20.8453  -17.6041  -14.3598 C   0  0  0  0  0  0  0  0  0  0  0  0
   19.7325  -16.6773  -13.9925 C   0  0  0  0  0  0  0  0  0  0  0  0
   19.3627  -15.7396  -15.1302 C   0  0  0  0  0  0  0  0  0  0  0  0
   18.3460  -14.7129  -14.6598 C   0  0  0  0  0  0  0  0  0  0  0  0
   18.1385  -13.7288  -15.6990 N   0  0  0  0  0  0  0  0  0  0  0  0
   20.0855  -19.3063  -12.7840 C   0  0  0  0  0  0  0  0  0  0  0  0
   19.2924  -18.8929  -11.8824 O   0  0  0  0  0  0  0  0  0  0  0  0
   19.7904  -20.5467  -13.3114 O   0  0  0  0  0  0  0  0  0  0  0  0
  2  1  1  6
  3  2  1  0
  4  5  2  0
  4  3  1  0
  6  5  1  0
  7 12  2  0
  7  6  1  0
  8  7  1  0
  9 10  1  0
  9  8  2  0
 10 11  2  0
 11 12  1  0
 12  4  1  0
 13 14  2  0
 13  2  1  0
 16 15  1  1
 16 18  1  0
 17 16  1  0
 18 19  1  1
 19 13  1  0
 20 18  1  0
 21 20  2  0
 22 20  1  0
 23 29  1  0
 23 22  1  0
 23 24  1  6
 25 24  1  0
 26 27  1  0
 26 25  1  0
 27 28  1  0
 29 31  1  0
 30 29  2  0
M  END
$$$$
