WTK.pdb
     RDKit          3D

 31 32  0  0  1  0  0  0  0  0999 V2000
   22.7727  -20.3710  -13.2902 N   0  0  0  0  0  0  0  0  0  0  0  0
   21.5776  -20.1393  -12.4365 C   0  0  1  0  0  0  0  0  0  0  0  0
   20.4126  -20.2288  -13.3486 C   0  0  0  0  0  0  0  0  0  0  0  0
   20.2611  -19.1796  -14.3439 C   0  0  0  0  0  0  0  0  0  0  0  0
   20.5925  -19.2682  -15.6812 C   0  0  0  0  0  0  0  0  0  0  0  0
   20.3058  -18.0716  -16.2188 N   0  0  0  0  0  0  0  0  0  0  0  0
   19.8154  -17.2461  -15.2927 C   0  0  0  0  0  0  0  0  0  0  0  0
   19.3570  -15.9406  -15.3217 C   0  0  0  0  0  0  0  0  0  0  0  0
   18.8758  -15.3541  -14.1632 C   0  0  0  0  0  0  0  0  0  0  0  0
   18.8367  -16.0387  -12.9554 C   0  0  0  0  0  0  0  0  0  0  0  0
   19.2934  -17.3330  -12.9315 C   0  0  0  0  0  0  0  0  0  0  0  0
   19.7719  -17.9123  -14.0904 C   0  0  0  0  0  0  0  0  0  0  0  0
   21.6572  -21.0955  -11.3312 C   0  0  0  0  0  0  0  0  0  0  0  0
   22.1747  -22.2514  -11.5130 O   0  0  0  0  0  0  0  0  0  0  0  0
   23.5971  -21.0743   -8.1179 C   0  0  0  0  0  0  0  0  0  0  0  0
   22.1537  -21.2700   -7.8062 C   0  0  1  0  0  0  0  0  0  0  0  0
   21.5331  -20.0474   -7.4896 O   0  0  0  0  0  0  0  0  0  0  0  0
   21.3469  -21.8916   -8.9475 C   0  0  2  0  0  0  0  0  0  0  0  0
   21.1992  -20.8555   -9.9967 N   0  0  0  0  0  0  0  0  0  0  0  0
   20.0140  -22.2638   -8.4937 C   0  0  0  0  0  0  0  0  0  0  0  0
   19.0033  -21.6179   -8.9596 O   0  0  0  0  0  0  0  0  0  0  0  0
   19.7212  -23.2952   -7.5702 N   0  0  0  0  0  0  0  0  0  0  0  0
   18.3283  -23.5827   -7.2084 C   0  0  1  0  0  0  0  0  0  0  0  0
   17.6187  -24.2135   -8.3644 C   0  0  0  0  0  0  0  0  0  0  0  0
   18.2610  -25.5006   -8.7678 C   0  0  0  0  0  0  0  0  0  0  0  0
   17.6383  -26.0878  -10.0240 C   0  0  0  0  0  0  0  0  0  0  0  0
   18.3514  -27.3707  -10.4174 C   0  0  0  0  0  0  0  0  0  0  0  0
   17.7142  -27.9378  -11.5853 N   0  0  0  0  0  0  0  0  0  0  0  0
   18.3181  -24.4888   -6.0421 C   0  0  0  0  0  0  0  0  0  0  0  0
   17.2216  -24.8419   -5.5076 O   0  0  0  0  0  0  0  0  0  0  0  0
   19.4566  -25.0085   -5.4611 O   0  0  0  0  0  0  0  0  0  0  0  0
  2  1  1  6
  3  2  1  0
  4  5  2  0
  4  3  1  0
  6  5  1  0
  7 12  2  0
  7  6  1  0
  8  7  1  0
  9 10  1  0
  9  8  2  0
 10 11  2  0
 11 12  1  0
 12  4  1  0
 13 14  2  0
 13  2  1  0
 16 15  1  6
 16 18  1  0
 17 16  1  0
 18 19  1  6
 19 13  1  0
 20 18  1  0
 21 20  2  0
 22 20  1  0
 23 29  1  0
 23 22  1  0
 23 24  1  6
 25 24  1  0
 26 27  1  0
 26 25  1  0
 27 28  1  0
 29 31  1  0
 30 29  2  0
M  END
$$$$
