WTK.pdb
     RDKit          3D

 31 32  0  0  1  0  0  0  0  0999 V2000
   25.6845  -22.3875  -13.9079 N   0  0  0  0  0  0  0  0  0  0  0  0
   24.6425  -21.4056  -13.5066 C   0  0  1  0  0  0  0  0  0  0  0  0
   25.3635  -20.3336  -12.7800 C   0  0  0  0  0  0  0  0  0  0  0  0
   25.5838  -20.5235  -11.3554 C   0  0  0  0  0  0  0  0  0  0  0  0
   26.8073  -20.6375  -10.7260 C   0  0  0  0  0  0  0  0  0  0  0  0
   26.5431  -20.8175   -9.4219 N   0  0  0  0  0  0  0  0  0  0  0  0
   25.2267  -20.8213   -9.2057 C   0  0  0  0  0  0  0  0  0  0  0  0
   24.4443  -20.9482   -8.0712 C   0  0  0  0  0  0  0  0  0  0  0  0
   23.0648  -20.8867   -8.1759 C   0  0  0  0  0  0  0  0  0  0  0  0
   22.4289  -20.7001   -9.3965 C   0  0  0  0  0  0  0  0  0  0  0  0
   23.2091  -20.5758  -10.5190 C   0  0  0  0  0  0  0  0  0  0  0  0
   24.5845  -20.6379  -10.4079 C   0  0  0  0  0  0  0  0  0  0  0  0
   23.9170  -21.0396  -14.7240 C   0  0  0  0  0  0  0  0  0  0  0  0
   24.5329  -20.9548  -15.8422 O   0  0  0  0  0  0  0  0  0  0  0  0
   21.5330  -22.9354  -16.6336 C   0  0  0  0  0  0  0  0  0  0  0  0
   20.8830  -21.6210  -16.3712 C   0  0  1  0  0  0  0  0  0  0  0  0
   20.0273  -21.6921  -15.2564 O   0  0  0  0  0  0  0  0  0  0  0  0
   21.8663  -20.4810  -16.1005 C   0  0  2  0  0  0  0  0  0  0  0  0
   22.5153  -20.7600  -14.7979 N   0  0  0  0  0  0  0  0  0  0  0  0
   21.1640  -19.2100  -15.9887 C   0  0  0  0  0  0  0  0  0  0  0  0
   20.7677  -18.8267  -14.8261 O   0  0  0  0  0  0  0  0  0  0  0  0
   20.8741  -18.3368  -17.0638 N   0  0  0  0  0  0  0  0  0  0  0  0
   20.1196  -17.1012  -16.8228 C   0  0  1  0  0  0  0  0  0  0  0  0
   20.1966  -16.2119  -18.0232 C   0  0  0  0  0  0  0  0  0  0  0  0
   18.9256  -16.2361  -18.8080 C   0  0  0  0  0  0  0  0  0  0  0  0
   18.9808  -15.3268  -20.0247 C   0  0  0  0  0  0  0  0  0  0  0  0
   17.6452  -15.3318  -20.7494 C   0  0  0  0  0  0  0  0  0  0  0  0
   16.7833  -14.3204  -20.1787 N   0  0  0  0  0  0  0  0  0  0  0  0
   18.7148  -17.4520  -16.5317 C   0  0  0  0  0  0  0  0  0  0  0  0
   18.2321  -18.5609  -16.9188 O   0  0  0  0  0  0  0  0  0  0  0  0
   17.8452  -16.6351  -15.8388 O   0  0  0  0  0  0  0  0  0  0  0  0
  2  1  1  6
  3  2  1  0
  4  5  2  0
  4  3  1  0
  6  5  1  0
  7 12  2  0
  7  6  1  0
  8  7  1  0
  9 10  1  0
  9  8  2  0
 10 11  2  0
 11 12  1  0
 12  4  1  0
 13 14  2  0
 13  2  1  0
 16 15  1  1
 16 18  1  0
 17 16  1  0
 18 19  1  1
 19 13  1  0
 20 18  1  0
 21 20  2  0
 22 20  1  0
 23 29  1  0
 23 22  1  0
 23 24  1  6
 25 24  1  0
 26 27  1  0
 26 25  1  0
 27 28  1  0
 29 31  1  0
 30 29  2  0
M  END
$$$$
