WTK.pdb
     RDKit          3D

 31 32  0  0  1  0  0  0  0  0999 V2000
   23.7627  -21.6952  -16.6032 N   0  0  0  0  0  0  0  0  0  0  0  0
   23.6265  -21.1660  -15.2204 C   0  0  1  0  0  0  0  0  0  0  0  0
   22.3768  -21.7587  -14.6878 C   0  0  0  0  0  0  0  0  0  0  0  0
   21.1214  -21.2903  -15.2526 C   0  0  0  0  0  0  0  0  0  0  0  0
   20.1305  -22.0766  -15.8055 C   0  0  0  0  0  0  0  0  0  0  0  0
   19.1678  -21.2346  -16.2145 N   0  0  0  0  0  0  0  0  0  0  0  0
   19.5038  -19.9717  -15.9469 C   0  0  0  0  0  0  0  0  0  0  0  0
   18.8757  -18.7536  -16.1396 C   0  0  0  0  0  0  0  0  0  0  0  0
   19.4927  -17.5869  -15.7203 C   0  0  0  0  0  0  0  0  0  0  0  0
   20.7377  -17.5953  -15.1046 C   0  0  0  0  0  0  0  0  0  0  0  0
   21.3571  -18.8057  -14.9166 C   0  0  0  0  0  0  0  0  0  0  0  0
   20.7365  -19.9658  -15.3370 C   0  0  0  0  0  0  0  0  0  0  0  0
   24.8790  -21.4709  -14.5271 C   0  0  0  0  0  0  0  0  0  0  0  0
   25.6495  -22.3952  -14.9618 O   0  0  0  0  0  0  0  0  0  0  0  0
   28.0468  -19.7214  -14.3262 C   0  0  0  0  0  0  0  0  0  0  0  0
   27.5898  -19.9517  -12.9272 C   0  0  1  0  0  0  0  0  0  0  0  0
   26.8879  -18.8367  -12.4332 O   0  0  0  0  0  0  0  0  0  0  0  0
   26.6685  -21.1615  -12.7623 C   0  0  2  0  0  0  0  0  0  0  0  0
   25.3596  -20.8017  -13.3568 N   0  0  0  0  0  0  0  0  0  0  0  0
   26.4545  -21.4583  -11.3527 C   0  0  0  0  0  0  0  0  0  0  0  0
   25.2596  -21.7211  -10.9541 O   0  0  0  0  0  0  0  0  0  0  0  0
   27.4621  -21.4887  -10.3596 N   0  0  0  0  0  0  0  0  0  0  0  0
   27.1181  -21.2291   -8.9567 C   0  0  1  0  0  0  0  0  0  0  0  0
   28.1591  -20.3588   -8.3268 C   0  0  0  0  0  0  0  0  0  0  0  0
   27.7502  -19.9132   -6.9607 C   0  0  0  0  0  0  0  0  0  0  0  0
   28.9283  -19.8292   -6.0040 C   0  0  0  0  0  0  0  0  0  0  0  0
   28.4641  -19.3655   -4.6334 C   0  0  0  0  0  0  0  0  0  0  0  0
   29.5875  -19.3535   -3.7226 N   0  0  0  0  0  0  0  0  0  0  0  0
   25.7973  -20.5702   -8.9059 C   0  0  0  0  0  0  0  0  0  0  0  0
   25.5963  -19.4771   -9.5202 O   0  0  0  0  0  0  0  0  0  0  0  0
   24.7132  -21.0712   -8.2148 O   0  0  0  0  0  0  0  0  0  0  0  0
  2  1  1  6
  3  2  1  0
  4  5  2  0
  4  3  1  0
  6  5  1  0
  7 12  2  0
  7  6  1  0
  8  7  1  0
  9 10  1  0
  9  8  2  0
 10 11  2  0
 11 12  1  0
 12  4  1  0
 13 14  2  0
 13  2  1  0
 16 15  1  6
 16 18  1  0
 17 16  1  0
 18 19  1  1
 19 13  1  0
 20 18  1  0
 21 20  2  0
 22 20  1  0
 23 29  1  0
 23 22  1  0
 23 24  1  6
 25 24  1  0
 26 27  1  0
 26 25  1  0
 27 28  1  0
 29 31  1  0
 30 29  2  0
M  END
$$$$
