TGQ.pdb
     RDKit          3D

 21 20  0  0  1  0  0  0  0  0999 V2000
    8.8375  -12.3948   17.3493 C   0  0  0  0  0  0  0  0  0  0  0  0
    8.0877  -13.3689   18.2031 C   0  0  1  0  0  0  0  0  0  0  0  0
    7.3439  -14.2577   17.4507 O   0  0  0  0  0  0  0  0  0  0  0  0
    9.0769  -14.0590   19.1164 C   0  0  2  0  0  0  0  0  0  0  0  0
    9.7406  -15.1601   18.4914 N   0  0  0  0  0  0  0  0  0  0  0  0
    8.4488  -14.4729   20.3766 C   0  0  0  0  0  0  0  0  0  0  0  0
    7.9293  -13.6268   21.1750 O   0  0  0  0  0  0  0  0  0  0  0  0
    8.4200  -15.8519   20.7135 N   0  0  0  0  0  0  0  0  0  0  0  0
    7.7111  -16.2387   21.9148 C   0  0  0  0  0  0  0  0  0  0  0  0
    8.4211  -15.8241   23.1341 C   0  0  0  0  0  0  0  0  0  0  0  0
    9.5845  -15.3579   23.0736 O   0  0  0  0  0  0  0  0  0  0  0  0
    5.2439  -12.4462   27.1566 N   0  0  0  0  0  0  0  0  0  0  0  0
    6.6268  -12.2562   27.3397 C   0  0  0  0  0  0  0  0  0  0  0  0
    7.0189  -11.1482   27.7828 O   0  0  0  0  0  0  0  0  0  0  0  0
    7.6276  -13.2919   27.0369 C   0  0  0  0  0  0  0  0  0  0  0  0
    7.2374  -14.1165   25.8397 C   0  0  0  0  0  0  0  0  0  0  0  0
    8.2338  -15.1816   25.5365 C   0  0  2  0  0  0  0  0  0  0  0  0
    7.7998  -15.9464   24.3891 N   0  0  0  0  0  0  0  0  0  0  0  0
    8.4953  -16.1053   26.6447 C   0  0  0  0  0  0  0  0  0  0  0  0
    9.3674  -15.7159   27.6473 O   0  0  0  0  0  0  0  0  0  0  0  0
    7.9785  -17.2417   26.7533 O   0  0  0  0  0  0  0  0  0  0  0  0
  2  1  1  6
  2  3  1  0
  2  4  1  0
  4  5  1  6
  6  4  1  0
  6  7  2  0
  8  6  1  0
  9  8  1  0
  9 10  1  0
 10 11  2  0
 10 18  1  0
 12 13  1  0
 13 14  2  0
 15 16  1  0
 15 13  1  0
 17 16  1  1
 17 19  1  0
 18 17  1  0
 19 21  2  0
 19 20  1  0
M  END
$$$$
