TGQ.pdb
     RDKit          3D

 21 20  0  0  1  0  0  0  0  0999 V2000
    6.5833  -13.0627   19.0091 C   0  0  0  0  0  0  0  0  0  0  0  0
    7.9301  -13.5189   19.4760 C   0  0  1  0  0  0  0  0  0  0  0  0
    8.1232  -13.2818   20.8235 O   0  0  0  0  0  0  0  0  0  0  0  0
    8.0903  -14.9779   19.1091 C   0  0  2  0  0  0  0  0  0  0  0  0
    7.0645  -15.8083   19.6583 N   0  0  0  0  0  0  0  0  0  0  0  0
    9.4209  -15.4813   19.4700 C   0  0  0  0  0  0  0  0  0  0  0  0
   10.4837  -14.9629   18.9960 O   0  0  0  0  0  0  0  0  0  0  0  0
    9.5248  -16.5741   20.3704 N   0  0  0  0  0  0  0  0  0  0  0  0
   10.8501  -16.9863   20.7817 C   0  0  0  0  0  0  0  0  0  0  0  0
   11.0619  -16.8075   22.2259 C   0  0  0  0  0  0  0  0  0  0  0  0
   12.2202  -16.7872   22.7083 O   0  0  0  0  0  0  0  0  0  0  0  0
    7.2041  -12.3929   24.3847 N   0  0  0  0  0  0  0  0  0  0  0  0
    7.5570  -13.6891   24.8058 C   0  0  0  0  0  0  0  0  0  0  0  0
    6.7766  -14.2923   25.5835 O   0  0  0  0  0  0  0  0  0  0  0  0
    8.7925  -14.3649   24.3780 C   0  0  0  0  0  0  0  0  0  0  0  0
    8.9645  -15.6995   25.0521 C   0  0  0  0  0  0  0  0  0  0  0  0
   10.1241  -16.4621   24.5109 C   0  0  2  0  0  0  0  0  0  0  0  0
    9.9617  -16.6565   23.0876 N   0  0  0  0  0  0  0  0  0  0  0  0
   10.3431  -17.7677   25.1410 C   0  0  0  0  0  0  0  0  0  0  0  0
   10.8193  -17.8108   26.4406 O   0  0  0  0  0  0  0  0  0  0  0  0
   10.1273  -18.8673   24.5801 O   0  0  0  0  0  0  0  0  0  0  0  0
  2  1  1  1
  2  3  1  0
  2  4  1  0
  4  5  1  1
  6  4  1  0
  6  7  2  0
  8  6  1  0
  9  8  1  0
  9 10  1  0
 10 11  2  0
 10 18  1  0
 12 13  1  0
 13 14  2  0
 15 16  1  0
 15 13  1  0
 17 16  1  1
 17 19  1  0
 18 17  1  0
 19 21  2  0
 19 20  1  0
M  END
$$$$
