TGQ.pdb
     RDKit          3D

 21 20  0  0  1  0  0  0  0  0999 V2000
    8.0202  -12.1980   18.0298 C   0  0  0  0  0  0  0  0  0  0  0  0
    7.7975  -13.3760   18.9259 C   0  0  1  0  0  0  0  0  0  0  0  0
    7.6838  -14.5567   18.2171 O   0  0  0  0  0  0  0  0  0  0  0  0
    8.9119  -13.4116   19.9485 C   0  0  2  0  0  0  0  0  0  0  0  0
   10.1866  -13.7127   19.3758 N   0  0  0  0  0  0  0  0  0  0  0  0
    8.6027  -14.3302   21.0506 C   0  0  0  0  0  0  0  0  0  0  0  0
    7.6033  -14.1423   21.8181 O   0  0  0  0  0  0  0  0  0  0  0  0
    9.4396  -15.4568   21.2659 N   0  0  0  0  0  0  0  0  0  0  0  0
    9.0557  -16.3954   22.2989 C   0  0  0  0  0  0  0  0  0  0  0  0
    9.4931  -15.9591   23.6334 C   0  0  0  0  0  0  0  0  0  0  0  0
   10.7071  -15.9785   23.9504 O   0  0  0  0  0  0  0  0  0  0  0  0
    6.1055  -11.0590   26.4664 N   0  0  0  0  0  0  0  0  0  0  0  0
    6.3295  -12.4475   26.5304 C   0  0  0  0  0  0  0  0  0  0  0  0
    5.4807  -13.1577   27.1243 O   0  0  0  0  0  0  0  0  0  0  0  0
    7.5070  -13.1001   25.9357 C   0  0  0  0  0  0  0  0  0  0  0  0
    7.7991  -14.4276   26.5820 C   0  0  0  0  0  0  0  0  0  0  0  0
    8.9258  -15.1437   25.9209 C   0  0  2  0  0  0  0  0  0  0  0  0
    8.5495  -15.5126   24.5748 N   0  0  0  0  0  0  0  0  0  0  0  0
    9.3828  -16.3448   26.6266 C   0  0  0  0  0  0  0  0  0  0  0  0
   10.1584  -16.1969   27.7642 O   0  0  0  0  0  0  0  0  0  0  0  0
    9.1186  -17.5167   26.2697 O   0  0  0  0  0  0  0  0  0  0  0  0
  2  1  1  6
  2  3  1  0
  2  4  1  0
  4  5  1  6
  6  4  1  0
  6  7  2  0
  8  6  1  0
  9  8  1  0
  9 10  1  0
 10 11  2  0
 10 18  1  0
 12 13  1  0
 13 14  2  0
 15 16  1  0
 15 13  1  0
 17 16  1  1
 17 19  1  0
 18 17  1  0
 19 21  2  0
 19 20  1  0
M  END
$$$$
