TGQ.pdb
     RDKit          3D

 21 20  0  0  1  0  0  0  0  0999 V2000
    7.5564  -12.5645   18.8544 C   0  0  0  0  0  0  0  0  0  0  0  0
    7.9620  -13.8830   18.2740 C   0  0  1  0  0  0  0  0  0  0  0  0
    8.4850  -13.7543   17.0015 O   0  0  0  0  0  0  0  0  0  0  0  0
    8.9197  -14.5506   19.2362 C   0  0  2  0  0  0  0  0  0  0  0  0
    9.4237  -15.7965   18.7490 N   0  0  0  0  0  0  0  0  0  0  0  0
    8.3217  -14.7119   20.5667 C   0  0  0  0  0  0  0  0  0  0  0  0
    7.9053  -13.7130   21.2389 O   0  0  0  0  0  0  0  0  0  0  0  0
    8.2049  -16.0152   21.1179 N   0  0  0  0  0  0  0  0  0  0  0  0
    7.5996  -16.1430   22.4266 C   0  0  0  0  0  0  0  0  0  0  0  0
    8.4773  -15.6395   23.4938 C   0  0  0  0  0  0  0  0  0  0  0  0
    9.6290  -15.2153   23.2325 O   0  0  0  0  0  0  0  0  0  0  0  0
    6.0558  -10.7868   26.4723 N   0  0  0  0  0  0  0  0  0  0  0  0
    6.4725  -12.0840   26.8268 C   0  0  0  0  0  0  0  0  0  0  0  0
    6.0631  -12.5612   27.9142 O   0  0  0  0  0  0  0  0  0  0  0  0
    7.3611  -12.9011   25.9850 C   0  0  0  0  0  0  0  0  0  0  0  0
    7.8309  -14.1388   26.7011 C   0  0  0  0  0  0  0  0  0  0  0  0
    8.7657  -14.9515   25.8735 C   0  0  2  0  0  0  0  0  0  0  0  0
    8.0325  -15.6278   24.8271 N   0  0  0  0  0  0  0  0  0  0  0  0
    9.5373  -15.9465   26.6245 C   0  0  0  0  0  0  0  0  0  0  0  0
    9.3281  -17.2903   26.3634 O   0  0  0  0  0  0  0  0  0  0  0  0
   10.3877  -15.6656   27.5011 O   0  0  0  0  0  0  0  0  0  0  0  0
  2  1  1  1
  2  3  1  0
  2  4  1  0
  4  5  1  6
  6  4  1  0
  6  7  2  0
  8  6  1  0
  9  8  1  0
  9 10  1  0
 10 11  2  0
 10 18  1  0
 12 13  1  0
 13 14  2  0
 15 16  1  0
 15 13  1  0
 17 16  1  1
 17 19  1  0
 18 17  1  0
 19 21  2  0
 19 20  1  0
M  END
$$$$
