TGQ.pdb
     RDKit          3D

 21 20  0  0  1  0  0  0  0  0999 V2000
   10.2947  -15.1885   18.9880 C   0  0  0  0  0  0  0  0  0  0  0  0
    9.5301  -13.9141   18.8110 C   0  0  1  0  0  0  0  0  0  0  0  0
    9.7363  -13.3505   17.5664 O   0  0  0  0  0  0  0  0  0  0  0  0
    8.0702  -14.1935   19.0930 C   0  0  2  0  0  0  0  0  0  0  0  0
    7.2009  -13.1674   18.6083 N   0  0  0  0  0  0  0  0  0  0  0  0
    7.8360  -14.4478   20.5194 C   0  0  0  0  0  0  0  0  0  0  0  0
    7.5504  -13.5064   21.3289 O   0  0  0  0  0  0  0  0  0  0  0  0
    7.9302  -15.7774   21.0083 N   0  0  0  0  0  0  0  0  0  0  0  0
    7.8031  -15.9824   22.4356 C   0  0  0  0  0  0  0  0  0  0  0  0
    9.0753  -15.7668   23.1411 C   0  0  0  0  0  0  0  0  0  0  0  0
   10.1335  -15.5429   22.5049 O   0  0  0  0  0  0  0  0  0  0  0  0
    9.2880  -13.5302   28.9727 N   0  0  0  0  0  0  0  0  0  0  0  0
    8.8119  -13.0215   27.7493 C   0  0  0  0  0  0  0  0  0  0  0  0
    8.0772  -12.0031   27.7770 O   0  0  0  0  0  0  0  0  0  0  0  0
    9.1348  -13.6263   26.4470 C   0  0  0  0  0  0  0  0  0  0  0  0
    9.9527  -14.8807   26.5981 C   0  0  0  0  0  0  0  0  0  0  0  0
   10.3182  -15.4801   25.2841 C   0  0  2  0  0  0  0  0  0  0  0  0
    9.1201  -15.8095   24.5454 N   0  0  0  0  0  0  0  0  0  0  0  0
   11.1591  -16.6778   25.3730 C   0  0  0  0  0  0  0  0  0  0  0  0
   10.5809  -17.9176   25.1581 O   0  0  0  0  0  0  0  0  0  0  0  0
   12.3848  -16.6621   25.6339 O   0  0  0  0  0  0  0  0  0  0  0  0
  2  1  1  6
  2  3  1  0
  2  4  1  0
  4  5  1  1
  6  4  1  0
  6  7  2  0
  8  6  1  0
  9  8  1  0
  9 10  1  0
 10 11  2  0
 10 18  1  0
 12 13  1  0
 13 14  2  0
 15 16  1  0
 15 13  1  0
 17 16  1  1
 17 19  1  0
 18 17  1  0
 19 21  2  0
 19 20  1  0
M  END
$$$$
