TGQ.pdb
     RDKit          3D

 21 20  0  0  1  0  0  0  0  0999 V2000
    9.2364  -12.5944   19.4270 C   0  0  0  0  0  0  0  0  0  0  0  0
    8.2669  -13.2399   18.4870 C   0  0  1  0  0  0  0  0  0  0  0  0
    8.5296  -12.9235   17.1678 O   0  0  0  0  0  0  0  0  0  0  0  0
    8.2767  -14.7306   18.7451 C   0  0  2  0  0  0  0  0  0  0  0  0
    7.5094  -15.4681   17.7907 N   0  0  0  0  0  0  0  0  0  0  0  0
    7.8503  -15.0433   20.1141 C   0  0  0  0  0  0  0  0  0  0  0  0
    6.6351  -15.3051   20.3932 O   0  0  0  0  0  0  0  0  0  0  0  0
    8.8178  -15.0542   21.1532 N   0  0  0  0  0  0  0  0  0  0  0  0
    8.3992  -15.5138   22.4605 C   0  0  0  0  0  0  0  0  0  0  0  0
    9.5165  -15.5569   23.4158 C   0  0  0  0  0  0  0  0  0  0  0  0
   10.6973  -15.3729   23.0330 O   0  0  0  0  0  0  0  0  0  0  0  0
    9.8795  -15.7695   30.4196 N   0  0  0  0  0  0  0  0  0  0  0  0
   10.2131  -14.8082   29.4467 C   0  0  0  0  0  0  0  0  0  0  0  0
    9.9993  -13.5990   29.7110 O   0  0  0  0  0  0  0  0  0  0  0  0
   10.7979  -15.1549   28.1413 C   0  0  0  0  0  0  0  0  0  0  0  0
    9.7402  -15.3771   27.0938 C   0  0  0  0  0  0  0  0  0  0  0  0
   10.3210  -15.7355   25.7696 C   0  0  2  0  0  0  0  0  0  0  0  0
    9.2721  -15.8065   24.7774 N   0  0  0  0  0  0  0  0  0  0  0  0
   11.0691  -16.9963   25.7529 C   0  0  0  0  0  0  0  0  0  0  0  0
   12.3654  -17.0105   26.2397 O   0  0  0  0  0  0  0  0  0  0  0  0
   10.6138  -18.0817   25.3228 O   0  0  0  0  0  0  0  0  0  0  0  0
  2  1  1  1
  2  3  1  0
  2  4  1  0
  4  5  1  6
  6  4  1  0
  6  7  2  0
  8  6  1  0
  9  8  1  0
  9 10  1  0
 10 11  2  0
 10 18  1  0
 12 13  1  0
 13 14  2  0
 15 16  1  0
 15 13  1  0
 17 16  1  1
 17 19  1  0
 18 17  1  0
 19 21  2  0
 19 20  1  0
M  END
$$$$
