TGQ.pdb
     RDKit          3D

 21 20  0  0  1  0  0  0  0  0999 V2000
    7.7460  -12.8652   17.3465 C   0  0  0  0  0  0  0  0  0  0  0  0
    7.6883  -13.9226   18.4041 C   0  0  1  0  0  0  0  0  0  0  0  0
    8.6530  -14.8951   18.2229 O   0  0  0  0  0  0  0  0  0  0  0  0
    7.7831  -13.2481   19.7550 C   0  0  2  0  0  0  0  0  0  0  0  0
    9.0041  -12.5268   19.9353 N   0  0  0  0  0  0  0  0  0  0  0  0
    7.5721  -14.2025   20.8498 C   0  0  0  0  0  0  0  0  0  0  0  0
    6.4667  -14.8186   20.9968 O   0  0  0  0  0  0  0  0  0  0  0  0
    8.6277  -14.4445   21.7680 N   0  0  0  0  0  0  0  0  0  0  0  0
    8.4293  -15.4705   22.7696 C   0  0  0  0  0  0  0  0  0  0  0  0
    9.6299  -15.6798   23.5928 C   0  0  0  0  0  0  0  0  0  0  0  0
   10.7727  -15.4310   23.1381 O   0  0  0  0  0  0  0  0  0  0  0  0
    9.0731  -13.0667   29.1419 N   0  0  0  0  0  0  0  0  0  0  0  0
    9.5320  -14.3305   28.7244 C   0  0  0  0  0  0  0  0  0  0  0  0
    9.7051  -15.2161   29.5982 O   0  0  0  0  0  0  0  0  0  0  0  0
    9.8164  -14.6583   27.3181 C   0  0  0  0  0  0  0  0  0  0  0  0
   10.3292  -16.0648   27.1624 C   0  0  0  0  0  0  0  0  0  0  0  0
   10.6627  -16.3926   25.7479 C   0  0  2  0  0  0  0  0  0  0  0  0
    9.5094  -16.1641   24.9069 N   0  0  0  0  0  0  0  0  0  0  0  0
   11.1349  -17.7641   25.5348 C   0  0  0  0  0  0  0  0  0  0  0  0
   12.4565  -18.0671   25.8161 O   0  0  0  0  0  0  0  0  0  0  0  0
   10.4177  -18.6995   25.1091 O   0  0  0  0  0  0  0  0  0  0  0  0
  2  1  1  6
  2  3  1  0
  2  4  1  0
  4  5  1  1
  6  4  1  0
  6  7  2  0
  8  6  1  0
  9  8  1  0
  9 10  1  0
 10 11  2  0
 10 18  1  0
 12 13  1  0
 13 14  2  0
 15 16  1  0
 15 13  1  0
 17 16  1  1
 17 19  1  0
 18 17  1  0
 19 21  2  0
 19 20  1  0
M  END
$$$$
