TGQ.pdb
     RDKit          3D

 21 20  0  0  1  0  0  0  0  0999 V2000
    8.1224  -12.2434   19.3281 C   0  0  0  0  0  0  0  0  0  0  0  0
    8.1303  -13.3158   20.3721 C   0  0  1  0  0  0  0  0  0  0  0  0
    6.8611  -13.7909   20.6419 O   0  0  0  0  0  0  0  0  0  0  0  0
    9.0810  -14.4050   19.9262 C   0  0  2  0  0  0  0  0  0  0  0  0
    8.8117  -14.8750   18.6033 N   0  0  0  0  0  0  0  0  0  0  0  0
    9.1108  -15.5186   20.8817 C   0  0  0  0  0  0  0  0  0  0  0  0
    8.8583  -16.7148   20.5234 O   0  0  0  0  0  0  0  0  0  0  0  0
    9.4294  -15.2547   22.2400 N   0  0  0  0  0  0  0  0  0  0  0  0
    9.3085  -16.3439   23.1857 C   0  0  0  0  0  0  0  0  0  0  0  0
    9.5379  -15.9031   24.5698 C   0  0  0  0  0  0  0  0  0  0  0  0
   10.6524  -15.4477   24.9233 O   0  0  0  0  0  0  0  0  0  0  0  0
    5.8232  -21.3127   26.7060 N   0  0  0  0  0  0  0  0  0  0  0  0
    6.7403  -20.4957   26.0178 C   0  0  0  0  0  0  0  0  0  0  0  0
    6.9141  -20.7034   24.7912 O   0  0  0  0  0  0  0  0  0  0  0  0
    7.5000  -19.4156   26.6676 C   0  0  0  0  0  0  0  0  0  0  0  0
    7.5803  -18.1868   25.8022 C   0  0  0  0  0  0  0  0  0  0  0  0
    8.3894  -17.1044   26.4292 C   0  0  2  0  0  0  0  0  0  0  0  0
    8.5039  -15.9878   25.5183 N   0  0  0  0  0  0  0  0  0  0  0  0
    9.7353  -17.5115   26.8444 C   0  0  0  0  0  0  0  0  0  0  0  0
    9.9731  -17.7642   28.1850 O   0  0  0  0  0  0  0  0  0  0  0  0
   10.7038  -17.6502   26.0614 O   0  0  0  0  0  0  0  0  0  0  0  0
  2  1  1  6
  2  3  1  0
  2  4  1  0
  4  5  1  6
  6  4  1  0
  6  7  2  0
  8  6  1  0
  9  8  1  0
  9 10  1  0
 10 11  2  0
 10 18  1  0
 12 13  1  0
 13 14  2  0
 15 16  1  0
 15 13  1  0
 17 16  1  6
 17 19  1  0
 18 17  1  0
 19 21  2  0
 19 20  1  0
M  END
$$$$
