TGQ.pdb
     RDKit          3D

 21 20  0  0  1  0  0  0  0  0999 V2000
    8.2995  -14.2720   17.0572 C   0  0  0  0  0  0  0  0  0  0  0  0
    8.4649  -14.5695   18.5146 C   0  0  1  0  0  0  0  0  0  0  0  0
    9.7942  -14.6456   18.8841 O   0  0  0  0  0  0  0  0  0  0  0  0
    7.6969  -13.5301   19.3012 C   0  0  2  0  0  0  0  0  0  0  0  0
    8.0784  -12.1906   18.9789 N   0  0  0  0  0  0  0  0  0  0  0  0
    7.7925  -13.7686   20.7462 C   0  0  0  0  0  0  0  0  0  0  0  0
    8.4555  -12.9938   21.5099 O   0  0  0  0  0  0  0  0  0  0  0  0
    7.1287  -14.8919   21.3060 N   0  0  0  0  0  0  0  0  0  0  0  0
    7.2239  -15.0883   22.7370 C   0  0  0  0  0  0  0  0  0  0  0  0
    8.5968  -15.3989   23.1629 C   0  0  0  0  0  0  0  0  0  0  0  0
    9.5631  -15.2510   22.3760 O   0  0  0  0  0  0  0  0  0  0  0  0
    9.7661  -13.2078   29.0192 N   0  0  0  0  0  0  0  0  0  0  0  0
    9.5386  -14.4351   28.3680 C   0  0  0  0  0  0  0  0  0  0  0  0
    9.3299  -15.4515   29.0759 O   0  0  0  0  0  0  0  0  0  0  0  0
    9.5346  -14.5795   26.9034 C   0  0  0  0  0  0  0  0  0  0  0  0
   10.1733  -15.8699   26.4649 C   0  0  0  0  0  0  0  0  0  0  0  0
   10.1840  -16.0216   24.9829 C   0  0  2  0  0  0  0  0  0  0  0  0
    8.8432  -15.8680   24.4648 N   0  0  0  0  0  0  0  0  0  0  0  0
   10.7293  -17.2955   24.5042 C   0  0  0  0  0  0  0  0  0  0  0  0
   12.0692  -17.5716   24.7187 O   0  0  0  0  0  0  0  0  0  0  0  0
   10.0601  -18.1689   23.9043 O   0  0  0  0  0  0  0  0  0  0  0  0
  2  1  1  6
  2  3  1  0
  2  4  1  0
  4  5  1  1
  6  4  1  0
  6  7  2  0
  8  6  1  0
  9  8  1  0
  9 10  1  0
 10 11  2  0
 10 18  1  0
 12 13  1  0
 13 14  2  0
 15 16  1  0
 15 13  1  0
 17 16  1  1
 17 19  1  0
 18 17  1  0
 19 21  2  0
 19 20  1  0
M  END
$$$$
