VVG.pdb
     RDKit          3D

 19 18  0  0  1  0  0  0  0  0999 V2000
    5.9416  -18.9608   24.2759 C   0  0  0  0  0  0  0  0  0  0  0  0
    6.8442  -17.8649   24.7247 C   0  0  1  0  0  0  0  0  0  0  0  0
    8.2526  -18.3264   24.8314 C   0  0  0  0  0  0  0  0  0  0  0  0
    6.7154  -16.5850   23.9532 C   0  0  2  0  0  0  0  0  0  0  0  0
    7.1660  -16.8320   22.5663 N   0  0  0  0  0  0  0  0  0  0  0  0
    7.5455  -15.4703   24.4612 C   0  0  0  0  0  0  0  0  0  0  0  0
    8.6957  -15.2648   23.9595 O   0  0  0  0  0  0  0  0  0  0  0  0
    6.2033  -11.7671   25.3828 C   0  0  0  0  0  0  0  0  0  0  0  0
    7.0847  -12.3435   26.4884 C   0  0  1  0  0  0  0  0  0  0  0  0
    6.1950  -12.7917   27.6002 C   0  0  0  0  0  0  0  0  0  0  0  0
    7.9542  -13.4621   25.9360 C   0  0  2  0  0  0  0  0  0  0  0  0
    7.1673  -14.5780   25.4889 N   0  0  0  0  0  0  0  0  0  0  0  0
    8.8961  -13.8521   27.0291 C   0  0  0  0  0  0  0  0  0  0  0  0
    9.7195  -13.0362   27.5190 O   0  0  0  0  0  0  0  0  0  0  0  0
    8.8772  -15.1770   27.5437 N   0  0  0  0  0  0  0  0  0  0  0  0
    9.5830  -15.5897   28.7135 C   0  0  0  0  0  0  0  0  0  0  0  0
   10.8570  -16.2511   28.3525 C   0  0  0  0  0  0  0  0  0  0  0  0
   11.1602  -16.3435   27.1395 O   0  0  0  0  0  0  0  0  0  0  0  0
   11.7377  -16.7764   29.2832 O   0  0  0  0  0  0  0  0  0  0  0  0
  2  1  1  6
  3  2  1  0
  4  2  1  0
  4  5  1  6
  6  4  1  0
  7  6  2  0
  9  8  1  6
  9 11  1  0
 10  9  1  0
 11 13  1  0
 11 12  1  1
 12  6  1  0
 13 15  1  0
 14 13  2  0
 15 16  1  0
 17 16  1  0
 18 17  2  0
 19 17  1  0
M  END
$$$$
