VVG.pdb
     RDKit          3D

 19 18  0  0  1  0  0  0  0  0999 V2000
    6.7346  -11.3994   27.0952 C   0  0  0  0  0  0  0  0  0  0  0  0
    7.2899  -12.4899   26.2469 C   0  0  1  0  0  0  0  0  0  0  0  0
    8.2898  -13.3024   26.9872 C   0  0  0  0  0  0  0  0  0  0  0  0
    6.2633  -13.3346   25.5523 C   0  0  2  0  0  0  0  0  0  0  0  0
    5.6315  -14.2169   26.5574 N   0  0  0  0  0  0  0  0  0  0  0  0
    6.8039  -14.2287   24.5045 C   0  0  0  0  0  0  0  0  0  0  0  0
    7.1491  -15.4144   24.8077 O   0  0  0  0  0  0  0  0  0  0  0  0
    8.4916  -12.8378   20.8114 C   0  0  0  0  0  0  0  0  0  0  0  0
    7.5841  -14.0654   20.7816 C   0  0  1  0  0  0  0  0  0  0  0  0
    8.0707  -14.9719   19.7000 C   0  0  0  0  0  0  0  0  0  0  0  0
    7.5589  -14.7319   22.1483 C   0  0  2  0  0  0  0  0  0  0  0  0
    6.9790  -13.8776   23.1475 N   0  0  0  0  0  0  0  0  0  0  0  0
    8.9728  -15.0876   22.4775 C   0  0  0  0  0  0  0  0  0  0  0  0
    9.7773  -14.2433   22.9502 O   0  0  0  0  0  0  0  0  0  0  0  0
    9.4415  -16.4114   22.2579 N   0  0  0  0  0  0  0  0  0  0  0  0
   10.7183  -16.8875   22.6822 C   0  0  0  0  0  0  0  0  0  0  0  0
   11.7338  -16.6813   21.6253 C   0  0  0  0  0  0  0  0  0  0  0  0
   11.3505  -16.3016   20.4935 O   0  0  0  0  0  0  0  0  0  0  0  0
   13.0902  -16.8848   21.8163 O   0  0  0  0  0  0  0  0  0  0  0  0
  2  1  1  1
  3  2  1  0
  4  2  1  0
  4  5  1  1
  6  4  1  0
  7  6  2  0
  9  8  1  1
  9 11  1  0
 10  9  1  0
 11 13  1  0
 11 12  1  1
 12  6  1  0
 13 15  1  0
 14 13  2  0
 15 16  1  0
 17 16  1  0
 18 17  2  0
 19 17  1  0
M  END
$$$$
