VVG.pdb
     RDKit          3D

 19 18  0  0  1  0  0  0  0  0999 V2000
    8.8896  -12.6797   19.9646 C   0  0  0  0  0  0  0  0  0  0  0  0
    7.5936  -13.3497   20.2624 C   0  0  1  0  0  0  0  0  0  0  0  0
    6.8608  -13.6991   19.0179 C   0  0  0  0  0  0  0  0  0  0  0  0
    7.6835  -14.5013   21.2193 C   0  0  2  0  0  0  0  0  0  0  0  0
    6.3243  -15.0525   21.4108 N   0  0  0  0  0  0  0  0  0  0  0  0
    8.1757  -14.1472   22.5690 C   0  0  0  0  0  0  0  0  0  0  0  0
    9.4107  -13.8979   22.7415 O   0  0  0  0  0  0  0  0  0  0  0  0
    5.6015  -13.1662   25.9044 C   0  0  0  0  0  0  0  0  0  0  0  0
    7.0454  -12.6975   25.7403 C   0  0  1  0  0  0  0  0  0  0  0  0
    7.5707  -12.3415   27.0915 C   0  0  0  0  0  0  0  0  0  0  0  0
    7.8694  -13.7713   25.0469 C   0  0  2  0  0  0  0  0  0  0  0  0
    7.3740  -14.0552   23.7285 N   0  0  0  0  0  0  0  0  0  0  0  0
    7.8258  -14.9792   25.9263 C   0  0  0  0  0  0  0  0  0  0  0  0
    6.7640  -15.3537   26.4882 O   0  0  0  0  0  0  0  0  0  0  0  0
    9.0061  -15.7399   26.1468 N   0  0  0  0  0  0  0  0  0  0  0  0
    9.0590  -16.9170   26.9521 C   0  0  0  0  0  0  0  0  0  0  0  0
   10.4506  -17.4053   27.0781 C   0  0  0  0  0  0  0  0  0  0  0  0
   11.3580  -16.7890   26.4709 O   0  0  0  0  0  0  0  0  0  0  0  0
   10.8093  -18.5099   27.8326 O   0  0  0  0  0  0  0  0  0  0  0  0
  2  1  1  6
  3  2  1  0
  4  2  1  0
  4  5  1  1
  6  4  1  0
  7  6  2  0
  9  8  1  1
  9 11  1  0
 10  9  1  0
 11 13  1  0
 11 12  1  6
 12  6  1  0
 13 15  1  0
 14 13  2  0
 15 16  1  0
 17 16  1  0
 18 17  2  0
 19 17  1  0
M  END
$$$$
