VVG.pdb
     RDKit          3D

 19 18  0  0  1  0  0  0  0  0999 V2000
    7.2366  -18.0738   25.7639 C   0  0  0  0  0  0  0  0  0  0  0  0
    7.1861  -17.8673   24.2901 C   0  0  1  0  0  0  0  0  0  0  0  0
    6.5148  -19.0007   23.6025 C   0  0  0  0  0  0  0  0  0  0  0  0
    6.6516  -16.5343   23.8572 C   0  0  2  0  0  0  0  0  0  0  0  0
    6.6531  -16.4919   22.3787 N   0  0  0  0  0  0  0  0  0  0  0  0
    7.4533  -15.3726   24.3011 C   0  0  0  0  0  0  0  0  0  0  0  0
    8.4884  -15.0360   23.6436 O   0  0  0  0  0  0  0  0  0  0  0  0
    6.1488  -11.7275   25.4846 C   0  0  0  0  0  0  0  0  0  0  0  0
    7.0759  -12.3752   26.5105 C   0  0  1  0  0  0  0  0  0  0  0  0
    6.2317  -12.9244   27.6123 C   0  0  0  0  0  0  0  0  0  0  0  0
    7.9406  -13.4324   25.8417 C   0  0  2  0  0  0  0  0  0  0  0  0
    7.1672  -14.5705   25.4282 N   0  0  0  0  0  0  0  0  0  0  0  0
    8.9961  -13.8105   26.8301 C   0  0  0  0  0  0  0  0  0  0  0  0
    9.6888  -12.9452   27.4259 O   0  0  0  0  0  0  0  0  0  0  0  0
    9.2400  -15.1807   27.1194 N   0  0  0  0  0  0  0  0  0  0  0  0
   10.2065  -15.6378   28.0649 C   0  0  0  0  0  0  0  0  0  0  0  0
   10.1740  -17.1133   28.1777 C   0  0  0  0  0  0  0  0  0  0  0  0
    9.4825  -17.7609   27.3565 O   0  0  0  0  0  0  0  0  0  0  0  0
   10.8676  -17.8229   29.1438 O   0  0  0  0  0  0  0  0  0  0  0  0
  2  1  1  1
  3  2  1  0
  4  2  1  0
  4  5  1  6
  6  4  1  0
  7  6  2  0
  9  8  1  6
  9 11  1  0
 10  9  1  0
 11 13  1  0
 11 12  1  1
 12  6  1  0
 13 15  1  0
 14 13  2  0
 15 16  1  0
 17 16  1  0
 18 17  2  0
 19 17  1  0
M  END
$$$$
