VVG.pdb
     RDKit          3D

 19 18  0  0  1  0  0  0  0  0999 V2000
    7.4706  -18.7983   25.8381 C   0  0  0  0  0  0  0  0  0  0  0  0
    7.0203  -18.6773   24.4239 C   0  0  1  0  0  0  0  0  0  0  0  0
    6.2938  -19.8936   23.9761 C   0  0  0  0  0  0  0  0  0  0  0  0
    6.2783  -17.4137   24.1035 C   0  0  2  0  0  0  0  0  0  0  0  0
    5.9752  -17.4082   22.6558 N   0  0  0  0  0  0  0  0  0  0  0  0
    7.0330  -16.1688   24.3687 C   0  0  0  0  0  0  0  0  0  0  0  0
    7.9377  -15.7978   23.5557 O   0  0  0  0  0  0  0  0  0  0  0  0
    7.7296  -12.1039   27.2108 C   0  0  0  0  0  0  0  0  0  0  0  0
    6.7899  -13.1558   26.6258 C   0  0  1  0  0  0  0  0  0  0  0  0
    5.6861  -12.4439   25.9164 C   0  0  0  0  0  0  0  0  0  0  0  0
    7.5622  -14.1041   25.7220 C   0  0  2  0  0  0  0  0  0  0  0  0
    6.8364  -15.3204   25.4808 N   0  0  0  0  0  0  0  0  0  0  0  0
    8.8715  -14.3651   26.3941 C   0  0  0  0  0  0  0  0  0  0  0  0
    9.7515  -13.4723   26.5040 O   0  0  0  0  0  0  0  0  0  0  0  0
    9.1501  -15.6515   26.9309 N   0  0  0  0  0  0  0  0  0  0  0  0
   10.3655  -15.9934   27.5964 C   0  0  0  0  0  0  0  0  0  0  0  0
   10.9492  -17.2269   27.0234 C   0  0  0  0  0  0  0  0  0  0  0  0
   11.2021  -17.2547   25.7957 O   0  0  0  0  0  0  0  0  0  0  0  0
   11.2334  -18.3581   27.7701 O   0  0  0  0  0  0  0  0  0  0  0  0
  2  1  1  1
  3  2  1  0
  4  2  1  0
  4  5  1  6
  6  4  1  0
  7  6  2  0
  9  8  1  6
  9 11  1  0
 10  9  1  0
 11 13  1  0
 11 12  1  1
 12  6  1  0
 13 15  1  0
 14 13  2  0
 15 16  1  0
 17 16  1  0
 18 17  2  0
 19 17  1  0
M  END
$$$$
