VVG.pdb
     RDKit          3D

 19 18  0  0  1  0  0  0  0  0999 V2000
    7.6841  -19.0364   26.8256 C   0  0  0  0  0  0  0  0  0  0  0  0
    6.9384  -19.4147   25.5935 C   0  0  1  0  0  0  0  0  0  0  0  0
    6.1579  -20.6639   25.7893 C   0  0  0  0  0  0  0  0  0  0  0  0
    6.1189  -18.3136   24.9884 C   0  0  2  0  0  0  0  0  0  0  0  0
    5.5413  -18.8087   23.7200 N   0  0  0  0  0  0  0  0  0  0  0  0
    6.8813  -17.0935   24.6426 C   0  0  0  0  0  0  0  0  0  0  0  0
    7.6490  -17.0990   23.6289 O   0  0  0  0  0  0  0  0  0  0  0  0
    5.9289  -13.7721   26.5796 C   0  0  0  0  0  0  0  0  0  0  0  0
    7.1361  -13.4691   25.6949 C   0  0  1  0  0  0  0  0  0  0  0  0
    8.1216  -12.6978   26.5087 C   0  0  0  0  0  0  0  0  0  0  0  0
    7.7110  -14.7598   25.1326 C   0  0  2  0  0  0  0  0  0  0  0  0
    6.8353  -15.8763   25.3580 N   0  0  0  0  0  0  0  0  0  0  0  0
    9.0398  -14.9579   25.7877 C   0  0  0  0  0  0  0  0  0  0  0  0
    9.1593  -15.0329   27.0382 O   0  0  0  0  0  0  0  0  0  0  0  0
   10.2138  -15.0670   24.9937 N   0  0  0  0  0  0  0  0  0  0  0  0
   11.5312  -15.1912   25.5284 C   0  0  0  0  0  0  0  0  0  0  0  0
   12.5302  -15.3066   24.4424 C   0  0  0  0  0  0  0  0  0  0  0  0
   12.1215  -15.3928   23.2603 O   0  0  0  0  0  0  0  0  0  0  0  0
   13.8980  -15.3248   24.6589 O   0  0  0  0  0  0  0  0  0  0  0  0
  2  1  1  1
  3  2  1  0
  4  2  1  0
  4  5  1  6
  6  4  1  0
  7  6  2  0
  9  8  1  1
  9 11  1  0
 10  9  1  0
 11 13  1  0
 11 12  1  1
 12  6  1  0
 13 15  1  0
 14 13  2  0
 15 16  1  0
 17 16  1  0
 18 17  2  0
 19 17  1  0
M  END
$$$$
