VVG.pdb
     RDKit          3D

 19 18  0  0  1  0  0  0  0  0999 V2000
    5.3459  -19.0904   23.3180 C   0  0  0  0  0  0  0  0  0  0  0  0
    6.2935  -18.1546   23.9840 C   0  0  1  0  0  0  0  0  0  0  0  0
    7.5892  -18.8148   24.2893 C   0  0  0  0  0  0  0  0  0  0  0  0
    6.4693  -16.8354   23.2920 C   0  0  2  0  0  0  0  0  0  0  0  0
    7.0166  -17.0893   21.9416 N   0  0  0  0  0  0  0  0  0  0  0  0
    7.4189  -15.9123   23.9520 C   0  0  0  0  0  0  0  0  0  0  0  0
    8.6258  -15.8631   23.5543 O   0  0  0  0  0  0  0  0  0  0  0  0
    6.9187  -12.1487   25.1602 C   0  0  0  0  0  0  0  0  0  0  0  0
    7.4607  -12.9949   26.3099 C   0  0  1  0  0  0  0  0  0  0  0  0
    6.3468  -13.2266   27.2763 C   0  0  0  0  0  0  0  0  0  0  0  0
    8.0597  -14.2857   25.7736 C   0  0  2  0  0  0  0  0  0  0  0  0
    7.1005  -15.0468   25.0220 N   0  0  0  0  0  0  0  0  0  0  0  0
    8.5656  -15.0469   26.9563 C   0  0  0  0  0  0  0  0  0  0  0  0
    7.8176  -15.3467   27.9228 O   0  0  0  0  0  0  0  0  0  0  0  0
    9.9268  -15.4528   27.0102 N   0  0  0  0  0  0  0  0  0  0  0  0
   10.3749  -16.6678   27.6101 C   0  0  0  0  0  0  0  0  0  0  0  0
   10.7733  -16.4430   29.0178 C   0  0  0  0  0  0  0  0  0  0  0  0
   11.3456  -17.3733   29.6334 O   0  0  0  0  0  0  0  0  0  0  0  0
   10.5486  -15.2573   29.6972 O   0  0  0  0  0  0  0  0  0  0  0  0
  2  1  1  6
  3  2  1  0
  4  2  1  0
  4  5  1  6
  6  4  1  0
  7  6  2  0
  9  8  1  6
  9 11  1  0
 10  9  1  0
 11 13  1  0
 11 12  1  1
 12  6  1  0
 13 15  1  0
 14 13  2  0
 15 16  1  0
 17 16  1  0
 18 17  2  0
 19 17  1  0
M  END
$$$$
