DQY.pdb
     RDKit          3D

 30 30  0  0  1  0  0  0  0  0999 V2000
   17.6236  -13.1574  -16.0568 N   0  0  0  0  0  0  0  0  0  0  0  0
   17.3966  -11.8908  -16.7190 C   0  0  1  0  0  0  0  0  0  0  0  0
   15.9110  -11.5903  -16.6465 C   0  0  0  0  0  0  0  0  0  0  0  0
   15.1591  -12.6281  -17.3856 C   0  0  0  0  0  0  0  0  0  0  0  0
   15.6003  -13.0241  -18.4887 O   0  0  0  0  0  0  0  0  0  0  0  0
   18.1503  -10.8475  -15.9782 C   0  0  0  0  0  0  0  0  0  0  0  0
   18.6295  -11.1028  -14.8661 O   0  0  0  0  0  0  0  0  0  0  0  0
   13.9832  -13.1750  -16.8964 O   0  0  0  0  0  0  0  0  0  0  0  0
   22.9506   -9.9428  -14.4116 N   0  0  0  0  0  0  0  0  0  0  0  0
   22.5951   -8.5842  -14.1459 C   0  0  0  0  0  0  0  0  0  0  0  0
   23.3965   -7.9103  -13.5077 O   0  0  0  0  0  0  0  0  0  0  0  0
   21.3244   -8.0997  -14.6419 C   0  0  0  0  0  0  0  0  0  0  0  0
   20.4357   -9.0033  -15.3946 C   0  0  0  0  0  0  0  0  0  0  0  0
   19.1125   -8.5131  -15.8414 C   0  0  2  0  0  0  0  0  0  0  0  0
   18.3424   -9.5394  -16.5165 N   0  0  0  0  0  0  0  0  0  0  0  0
   19.1173   -7.2055  -16.4947 C   0  0  0  0  0  0  0  0  0  0  0  0
   19.3759   -7.0292  -17.7221 O   0  0  0  0  0  0  0  0  0  0  0  0
   16.3685    0.0625  -20.0970 O   0  0  0  0  0  0  0  0  0  0  0  0
   16.6240   -1.1394  -19.4377 C   0  0  0  0  0  0  0  0  0  0  0  0
   17.8370   -1.7835  -19.6245 C   0  0  0  0  0  0  0  0  0  0  0  0
   18.0988   -2.9817  -18.9708 C   0  0  0  0  0  0  0  0  0  0  0  0
   17.1822   -3.5585  -18.1326 C   0  0  0  0  0  0  0  0  0  0  0  0
   17.4022   -4.8342  -17.4036 C   0  0  0  0  0  0  0  0  0  0  0  0
   18.5923   -4.7444  -16.4510 C   0  0  2  0  0  0  0  0  0  0  0  0
   18.8132   -5.9907  -15.7718 N   0  0  0  0  0  0  0  0  0  0  0  0
   18.2780   -3.7043  -15.4534 C   0  0  0  0  0  0  0  0  0  0  0  0
   17.6284   -4.0178  -14.4297 O   0  0  0  0  0  0  0  0  0  0  0  0
   15.9800   -2.8865  -17.9696 C   0  0  0  0  0  0  0  0  0  0  0  0
   15.6831   -1.6997  -18.5983 C   0  0  0  0  0  0  0  0  0  0  0  0
   18.6592   -2.3723  -15.5691 O   0  0  0  0  0  0  0  0  0  0  0  0
  2  1  1  1
  2  6  1  0
  3  2  1  0
  4  3  1  0
  4  5  2  0
  6 15  1  0
  6  7  2  0
  8  4  1  0
 10  9  1  0
 11 10  2  0
 12 10  1  0
 13 12  1  0
 14 13  1  6
 15 14  1  0
 16 14  1  0
 16 17  2  0
 18 19  1  0
 19 29  2  0
 20 19  1  0
 20 21  2  0
 21 22  1  0
 22 28  2  0
 22 23  1  0
 24 23  1  6
 24 25  1  0
 25 16  1  0
 26 24  1  0
 27 26  2  0
 29 28  1  0
 30 26  1  0
M  END
$$$$
