DQY.pdb
     RDKit          3D

 30 30  0  0  1  0  0  0  0  0999 V2000
   26.7939  -26.6989  -21.0615 N   0  0  0  0  0  0  0  0  0  0  0  0
   26.6419  -27.8431  -20.1886 C   0  0  1  0  0  0  0  0  0  0  0  0
   27.7050  -27.7470  -19.1102 C   0  0  0  0  0  0  0  0  0  0  0  0
   29.0039  -28.2018  -19.6531 C   0  0  0  0  0  0  0  0  0  0  0  0
   29.0684  -28.5504  -20.8541 O   0  0  0  0  0  0  0  0  0  0  0  0
   25.2958  -27.7662  -19.5663 C   0  0  0  0  0  0  0  0  0  0  0  0
   24.8619  -26.6796  -19.1627 O   0  0  0  0  0  0  0  0  0  0  0  0
   30.1499  -28.2542  -18.8753 O   0  0  0  0  0  0  0  0  0  0  0  0
   20.0352  -29.7559  -21.7498 N   0  0  0  0  0  0  0  0  0  0  0  0
   19.6397  -29.4242  -20.4170 C   0  0  0  0  0  0  0  0  0  0  0  0
   18.4365  -29.3828  -20.1838 O   0  0  0  0  0  0  0  0  0  0  0  0
   20.6760  -29.1605  -19.4413 C   0  0  0  0  0  0  0  0  0  0  0  0
   22.0935  -29.2083  -19.8425 C   0  0  0  0  0  0  0  0  0  0  0  0
   23.1400  -28.8768  -18.8497 C   0  0  2  0  0  0  0  0  0  0  0  0
   24.4737  -28.9236  -19.4165 N   0  0  0  0  0  0  0  0  0  0  0  0
   22.9931  -29.5215  -17.5462 C   0  0  0  0  0  0  0  0  0  0  0  0
   23.4530  -30.6687  -17.2688 O   0  0  0  0  0  0  0  0  0  0  0  0
   22.8645  -31.2779   -9.0425 O   0  0  0  0  0  0  0  0  0  0  0  0
   22.9937  -30.7450  -10.3247 C   0  0  0  0  0  0  0  0  0  0  0  0
   23.7515  -31.4115  -11.2748 C   0  0  0  0  0  0  0  0  0  0  0  0
   23.8848  -30.8866  -12.5546 C   0  0  0  0  0  0  0  0  0  0  0  0
   23.2818  -29.7114  -12.9160 C   0  0  0  0  0  0  0  0  0  0  0  0
   23.3832  -29.1001  -14.2664 C   0  0  0  0  0  0  0  0  0  0  0  0
   22.2057  -29.4924  -15.1559 C   0  0  2  0  0  0  0  0  0  0  0  0
   22.3018  -28.8786  -16.4509 N   0  0  0  0  0  0  0  0  0  0  0  0
   20.9771  -29.0186  -14.4911 C   0  0  0  0  0  0  0  0  0  0  0  0
   20.4651  -27.9356  -14.8563 O   0  0  0  0  0  0  0  0  0  0  0  0
   22.5318  -29.0720  -11.9402 C   0  0  0  0  0  0  0  0  0  0  0  0
   22.3757  -29.5587  -10.6633 C   0  0  0  0  0  0  0  0  0  0  0  0
   20.3316  -29.7018  -13.4667 O   0  0  0  0  0  0  0  0  0  0  0  0
  2  1  1  6
  2  6  1  0
  3  2  1  0
  4  3  1  0
  4  5  2  0
  6 15  1  0
  6  7  2  0
  8  4  1  0
 10  9  1  0
 11 10  2  0
 12 10  1  0
 13 12  1  0
 14 13  1  6
 15 14  1  0
 16 14  1  0
 16 17  2  0
 18 19  1  0
 19 29  2  0
 20 19  1  0
 20 21  2  0
 21 22  1  0
 22 28  2  0
 22 23  1  0
 24 23  1  1
 24 25  1  0
 25 16  1  0
 26 24  1  0
 27 26  2  0
 29 28  1  0
 30 26  1  0
M  END
$$$$
