DQY.pdb
     RDKit          3D

 30 30  0  0  1  0  0  0  0  0999 V2000
   25.7706  -19.6986  -18.1868 N   0  0  0  0  0  0  0  0  0  0  0  0
   26.7207  -19.8593  -17.1070 C   0  0  1  0  0  0  0  0  0  0  0  0
   27.3467  -18.5039  -16.8360 C   0  0  0  0  0  0  0  0  0  0  0  0
   28.3621  -18.2113  -17.8715 C   0  0  0  0  0  0  0  0  0  0  0  0
   28.0337  -18.2837  -19.0778 O   0  0  0  0  0  0  0  0  0  0  0  0
   25.9733  -20.3095  -15.9054 C   0  0  0  0  0  0  0  0  0  0  0  0
   25.2942  -19.5007  -15.2601 O   0  0  0  0  0  0  0  0  0  0  0  0
   29.6635  -17.8601  -17.5488 O   0  0  0  0  0  0  0  0  0  0  0  0
   24.0721  -26.2090  -14.8951 N   0  0  0  0  0  0  0  0  0  0  0  0
   23.3160  -25.1613  -15.5059 C   0  0  0  0  0  0  0  0  0  0  0  0
   22.3483  -25.4907  -16.1833 O   0  0  0  0  0  0  0  0  0  0  0  0
   23.7398  -23.7945  -15.2875 C   0  0  0  0  0  0  0  0  0  0  0  0
   24.8576  -23.5086  -14.3700 C   0  0  0  0  0  0  0  0  0  0  0  0
   25.3627  -22.1224  -14.2517 C   0  0  2  0  0  0  0  0  0  0  0  0
   26.0141  -21.6665  -15.4641 N   0  0  0  0  0  0  0  0  0  0  0  0
   26.0719  -21.8184  -13.0103 C   0  0  0  0  0  0  0  0  0  0  0  0
   27.2434  -22.2224  -12.7480 O   0  0  0  0  0  0  0  0  0  0  0  0
   28.9953  -19.5568   -5.1499 O   0  0  0  0  0  0  0  0  0  0  0  0
   28.5092  -19.6265   -6.4551 C   0  0  0  0  0  0  0  0  0  0  0  0
   27.4530  -18.8162   -6.8412 C   0  0  0  0  0  0  0  0  0  0  0  0
   26.9633  -18.8801   -8.1403 C   0  0  0  0  0  0  0  0  0  0  0  0
   27.4986  -19.7320   -9.0693 C   0  0  0  0  0  0  0  0  0  0  0  0
   27.0227  -19.8454  -10.4722 C   0  0  0  0  0  0  0  0  0  0  0  0
   26.0133  -20.9791  -10.6383 C   0  0  2  0  0  0  0  0  0  0  0  0
   25.4762  -21.0096  -11.9701 N   0  0  0  0  0  0  0  0  0  0  0  0
   24.9155  -20.7318   -9.6847 C   0  0  0  0  0  0  0  0  0  0  0  0
   23.9070  -20.0957  -10.0674 O   0  0  0  0  0  0  0  0  0  0  0  0
   28.5536  -20.5275   -8.6479 C   0  0  0  0  0  0  0  0  0  0  0  0
   29.0665  -20.4939   -7.3721 C   0  0  0  0  0  0  0  0  0  0  0  0
   24.9185  -21.1634   -8.3630 O   0  0  0  0  0  0  0  0  0  0  0  0
  2  1  1  6
  2  6  1  0
  3  2  1  0
  4  3  1  0
  4  5  2  0
  6 15  1  0
  6  7  2  0
  8  4  1  0
 10  9  1  0
 11 10  2  0
 12 10  1  0
 13 12  1  0
 14 13  1  6
 15 14  1  0
 16 14  1  0
 16 17  2  0
 18 19  1  0
 19 29  2  0
 20 19  1  0
 20 21  2  0
 21 22  1  0
 22 28  2  0
 22 23  1  0
 24 23  1  6
 24 25  1  0
 25 16  1  0
 26 24  1  0
 27 26  2  0
 29 28  1  0
 30 26  1  0
M  END
$$$$
