DQY.pdb
     RDKit          3D

 30 30  0  0  1  0  0  0  0  0999 V2000
   15.7699  -13.0767  -13.9760 N   0  0  0  0  0  0  0  0  0  0  0  0
   15.9899  -12.3751  -15.2225 C   0  0  1  0  0  0  0  0  0  0  0  0
   14.9779  -11.2475  -15.3037 C   0  0  0  0  0  0  0  0  0  0  0  0
   13.6129  -11.8119  -15.3862 C   0  0  0  0  0  0  0  0  0  0  0  0
   13.3158  -12.5352  -16.3643 O   0  0  0  0  0  0  0  0  0  0  0  0
   17.3622  -11.8085  -15.1907 C   0  0  0  0  0  0  0  0  0  0  0  0
   17.8410  -11.4064  -14.1226 O   0  0  0  0  0  0  0  0  0  0  0  0
   12.6539  -11.5658  -14.4162 O   0  0  0  0  0  0  0  0  0  0  0  0
   22.1332  -12.9569  -19.2862 N   0  0  0  0  0  0  0  0  0  0  0  0
   22.6137  -11.8267  -18.5550 C   0  0  0  0  0  0  0  0  0  0  0  0
   23.7556  -11.4493  -18.7943 O   0  0  0  0  0  0  0  0  0  0  0  0
   21.7292  -11.2100  -17.5892 C   0  0  0  0  0  0  0  0  0  0  0  0
   20.3509  -11.7080  -17.4309 C   0  0  0  0  0  0  0  0  0  0  0  0
   19.4842  -11.1235  -16.3832 C   0  0  2  0  0  0  0  0  0  0  0  0
   18.1589  -11.7114  -16.3712 N   0  0  0  0  0  0  0  0  0  0  0  0
   19.5211   -9.6658  -16.2815 C   0  0  0  0  0  0  0  0  0  0  0  0
   18.7062   -8.8951  -16.8700 O   0  0  0  0  0  0  0  0  0  0  0  0
   21.1764   -1.3764  -13.8443 O   0  0  0  0  0  0  0  0  0  0  0  0
   21.1773   -2.7692  -13.9143 C   0  0  0  0  0  0  0  0  0  0  0  0
   22.3374   -3.4406  -14.2672 C   0  0  0  0  0  0  0  0  0  0  0  0
   22.3460   -4.8284  -14.3391 C   0  0  0  0  0  0  0  0  0  0  0  0
   21.2265   -5.5692  -14.0681 C   0  0  0  0  0  0  0  0  0  0  0  0
   21.1717   -7.0529  -14.1245 C   0  0  0  0  0  0  0  0  0  0  0  0
   20.5989   -7.5488  -15.4503 C   0  0  2  0  0  0  0  0  0  0  0  0
   20.5094   -8.9821  -15.4774 N   0  0  0  0  0  0  0  0  0  0  0  0
   21.5161   -7.1058  -16.5172 C   0  0  0  0  0  0  0  0  0  0  0  0
   22.5546   -7.7683  -16.7425 O   0  0  0  0  0  0  0  0  0  0  0  0
   20.0845   -4.8643  -13.7186 C   0  0  0  0  0  0  0  0  0  0  0  0
   20.0354   -3.4922  -13.6364 C   0  0  0  0  0  0  0  0  0  0  0  0
   21.3069   -5.9821  -17.3087 O   0  0  0  0  0  0  0  0  0  0  0  0
  2  1  1  1
  2  6  1  0
  3  2  1  0
  4  3  1  0
  4  5  2  0
  6 15  1  0
  6  7  2  0
  8  4  1  0
 10  9  1  0
 11 10  2  0
 12 10  1  0
 13 12  1  0
 14 13  1  6
 15 14  1  0
 16 14  1  0
 16 17  2  0
 18 19  1  0
 19 29  2  0
 20 19  1  0
 20 21  2  0
 21 22  1  0
 22 28  2  0
 22 23  1  0
 24 23  1  1
 24 25  1  0
 25 16  1  0
 26 24  1  0
 27 26  2  0
 29 28  1  0
 30 26  1  0
M  END
$$$$
