DQY.pdb
     RDKit          3D

 30 30  0  0  1  0  0  0  0  0999 V2000
   22.9887  -11.5873  -19.5350 N   0  0  0  0  0  0  0  0  0  0  0  0
   23.7926  -10.8879  -18.5558 C   0  0  1  0  0  0  0  0  0  0  0  0
   24.9823  -10.2848  -19.2792 C   0  0  0  0  0  0  0  0  0  0  0  0
   25.8779  -11.3658  -19.7464 C   0  0  0  0  0  0  0  0  0  0  0  0
   25.5799  -12.5535  -19.4842 O   0  0  0  0  0  0  0  0  0  0  0  0
   22.9621   -9.8018  -17.9760 C   0  0  0  0  0  0  0  0  0  0  0  0
   23.1123   -8.6354  -18.3614 O   0  0  0  0  0  0  0  0  0  0  0  0
   27.0347  -11.1055  -20.4641 O   0  0  0  0  0  0  0  0  0  0  0  0
   17.4574  -10.5989  -14.7519 N   0  0  0  0  0  0  0  0  0  0  0  0
   17.7034   -9.1962  -14.6311 C   0  0  0  0  0  0  0  0  0  0  0  0
   16.8639   -8.5298  -14.0354 O   0  0  0  0  0  0  0  0  0  0  0  0
   18.9147   -8.6610  -15.2157 C   0  0  0  0  0  0  0  0  0  0  0  0
   19.8323   -9.5503  -15.9504 C   0  0  0  0  0  0  0  0  0  0  0  0
   21.1441   -9.0304  -16.3969 C   0  0  2  0  0  0  0  0  0  0  0  0
   21.9811  -10.0647  -16.9729 N   0  0  0  0  0  0  0  0  0  0  0  0
   21.8160   -8.1359  -15.4562 C   0  0  0  0  0  0  0  0  0  0  0  0
   22.4550   -8.5322  -14.4369 O   0  0  0  0  0  0  0  0  0  0  0  0
   22.0022   -2.0177  -19.8660 O   0  0  0  0  0  0  0  0  0  0  0  0
   22.4181   -2.7907  -18.7824 C   0  0  0  0  0  0  0  0  0  0  0  0
   22.7752   -4.1156  -18.9780 C   0  0  0  0  0  0  0  0  0  0  0  0
   23.1907   -4.8922  -17.9029 C   0  0  0  0  0  0  0  0  0  0  0  0
   23.2608   -4.3836  -16.6333 C   0  0  0  0  0  0  0  0  0  0  0  0
   23.6988   -5.1599  -15.4446 C   0  0  0  0  0  0  0  0  0  0  0  0
   22.5211   -5.8287  -14.7392 C   0  0  2  0  0  0  0  0  0  0  0  0
   21.8056   -6.7003  -15.6289 N   0  0  0  0  0  0  0  0  0  0  0  0
   21.6145   -4.7566  -14.2871 C   0  0  0  0  0  0  0  0  0  0  0  0
   22.0301   -3.9163  -13.4568 O   0  0  0  0  0  0  0  0  0  0  0  0
   22.8960   -3.0550  -16.4751 C   0  0  0  0  0  0  0  0  0  0  0  0
   22.4797   -2.2540  -17.5128 C   0  0  0  0  0  0  0  0  0  0  0  0
   20.3036   -4.6073  -14.7256 O   0  0  0  0  0  0  0  0  0  0  0  0
  2  1  1  6
  2  6  1  0
  3  2  1  0
  4  3  1  0
  4  5  2  0
  6 15  1  0
  6  7  2  0
  8  4  1  0
 10  9  1  0
 11 10  2  0
 12 10  1  0
 13 12  1  0
 14 13  1  1
 15 14  1  0
 16 14  1  0
 16 17  2  0
 18 19  1  0
 19 29  2  0
 20 19  1  0
 20 21  2  0
 21 22  1  0
 22 28  2  0
 22 23  1  0
 24 23  1  6
 24 25  1  0
 25 16  1  0
 26 24  1  0
 27 26  2  0
 29 28  1  0
 30 26  1  0
M  END
$$$$
