DQY.pdb
     RDKit          3D

 30 30  0  0  1  0  0  0  0  0999 V2000
   22.5284   -9.7337  -19.8001 N   0  0  0  0  0  0  0  0  0  0  0  0
   23.3133   -8.9846  -18.8424 C   0  0  1  0  0  0  0  0  0  0  0  0
   24.3097   -8.1431  -19.6179 C   0  0  0  0  0  0  0  0  0  0  0  0
   25.3219   -9.0233  -20.2418 C   0  0  0  0  0  0  0  0  0  0  0  0
   25.7369  -10.0162  -19.6013 O   0  0  0  0  0  0  0  0  0  0  0  0
   22.3903   -8.0951  -18.0927 C   0  0  0  0  0  0  0  0  0  0  0  0
   21.4373   -7.5609  -18.6744 O   0  0  0  0  0  0  0  0  0  0  0  0
   25.8247   -8.7839  -21.5110 O   0  0  0  0  0  0  0  0  0  0  0  0
   19.8470   -8.6741  -12.4664 N   0  0  0  0  0  0  0  0  0  0  0  0
   19.7282   -9.3563  -13.7167 C   0  0  0  0  0  0  0  0  0  0  0  0
   19.1293  -10.4264  -13.7160 O   0  0  0  0  0  0  0  0  0  0  0  0
   20.3185   -8.7451  -14.8886 C   0  0  0  0  0  0  0  0  0  0  0  0
   21.1469   -7.5339  -14.7484 C   0  0  0  0  0  0  0  0  0  0  0  0
   21.7331   -6.9120  -15.9568 C   0  0  2  0  0  0  0  0  0  0  0  0
   22.5700   -7.8325  -16.7011 N   0  0  0  0  0  0  0  0  0  0  0  0
   22.2934   -5.5757  -15.7640 C   0  0  0  0  0  0  0  0  0  0  0  0
   23.5276   -5.3436  -15.5991 O   0  0  0  0  0  0  0  0  0  0  0  0
   27.4904   -4.3310  -18.6787 O   0  0  0  0  0  0  0  0  0  0  0  0
   26.2506   -3.8699  -18.2374 C   0  0  0  0  0  0  0  0  0  0  0  0
   26.1848   -2.9696  -17.1855 C   0  0  0  0  0  0  0  0  0  0  0  0
   24.9527   -2.5057  -16.7402 C   0  0  0  0  0  0  0  0  0  0  0  0
   23.7796   -2.9151  -17.3159 C   0  0  0  0  0  0  0  0  0  0  0  0
   22.4331   -2.4550  -16.8885 C   0  0  0  0  0  0  0  0  0  0  0  0
   22.0148   -3.0827  -15.5608 C   0  0  2  0  0  0  0  0  0  0  0  0
   21.4606   -4.3937  -15.7542 N   0  0  0  0  0  0  0  0  0  0  0  0
   20.9840   -2.2096  -14.9685 C   0  0  0  0  0  0  0  0  0  0  0  0
   21.3089   -1.0693  -14.5653 O   0  0  0  0  0  0  0  0  0  0  0  0
   23.8835   -3.8160  -18.3652 C   0  0  0  0  0  0  0  0  0  0  0  0
   25.0829   -4.2984  -18.8348 C   0  0  0  0  0  0  0  0  0  0  0  0
   19.6486   -2.5678  -14.8225 O   0  0  0  0  0  0  0  0  0  0  0  0
  2  1  1  6
  2  6  1  0
  3  2  1  0
  4  3  1  0
  4  5  2  0
  6 15  1  0
  6  7  2  0
  8  4  1  0
 10  9  1  0
 11 10  2  0
 12 10  1  0
 13 12  1  0
 14 13  1  1
 15 14  1  0
 16 14  1  0
 16 17  2  0
 18 19  1  0
 19 29  2  0
 20 19  1  0
 20 21  2  0
 21 22  1  0
 22 28  2  0
 22 23  1  0
 24 23  1  6
 24 25  1  0
 25 16  1  0
 26 24  1  0
 27 26  2  0
 29 28  1  0
 30 26  1  0
M  END
$$$$
