DQY.pdb
     RDKit          3D

 30 30  0  0  1  0  0  0  0  0999 V2000
   27.6095  -19.0688  -17.5718 N   0  0  0  0  0  0  0  0  0  0  0  0
   27.2460  -20.2651  -16.8431 C   0  0  1  0  0  0  0  0  0  0  0  0
   28.5205  -21.0360  -16.5538 C   0  0  0  0  0  0  0  0  0  0  0  0
   29.0963  -21.5349  -17.8219 C   0  0  0  0  0  0  0  0  0  0  0  0
   30.0190  -22.3803  -17.7757 O   0  0  0  0  0  0  0  0  0  0  0  0
   26.6182  -19.8467  -15.5640 C   0  0  0  0  0  0  0  0  0  0  0  0
   26.0475  -18.7515  -15.4840 O   0  0  0  0  0  0  0  0  0  0  0  0
   28.6473  -21.0967  -19.0578 O   0  0  0  0  0  0  0  0  0  0  0  0
   21.7601  -21.2224  -13.2030 N   0  0  0  0  0  0  0  0  0  0  0  0
   22.4344  -21.5646  -14.4159 C   0  0  0  0  0  0  0  0  0  0  0  0
   21.8314  -22.2790  -15.2094 O   0  0  0  0  0  0  0  0  0  0  0  0
   23.7718  -21.0511  -14.6237 C   0  0  0  0  0  0  0  0  0  0  0  0
   24.4068  -20.2129  -13.5907 C   0  0  0  0  0  0  0  0  0  0  0  0
   25.8254  -20.4455  -13.2387 C   0  0  2  0  0  0  0  0  0  0  0  0
   26.6528  -20.6806  -14.4058 N   0  0  0  0  0  0  0  0  0  0  0  0
   26.0512  -21.3585  -12.1197 C   0  0  0  0  0  0  0  0  0  0  0  0
   26.9009  -22.2978  -12.1338 O   0  0  0  0  0  0  0  0  0  0  0  0
   29.2899  -19.7660   -4.3231 O   0  0  0  0  0  0  0  0  0  0  0  0
   28.7246  -19.8515   -5.5949 C   0  0  0  0  0  0  0  0  0  0  0  0
   29.1918  -20.7969   -6.4945 C   0  0  0  0  0  0  0  0  0  0  0  0
   28.6332  -20.8881   -7.7638 C   0  0  0  0  0  0  0  0  0  0  0  0
   27.6181  -20.0605   -8.1637 C   0  0  0  0  0  0  0  0  0  0  0  0
   26.9779  -20.1093   -9.5036 C   0  0  0  0  0  0  0  0  0  0  0  0
   25.9657  -21.2479   -9.6068 C   0  0  2  0  0  0  0  0  0  0  0  0
   25.3084  -21.2487  -10.8840 N   0  0  0  0  0  0  0  0  0  0  0  0
   24.9587  -21.0365   -8.5499 C   0  0  0  0  0  0  0  0  0  0  0  0
   24.0590  -20.1836   -8.7268 O   0  0  0  0  0  0  0  0  0  0  0  0
   27.1761  -19.1271   -7.2380 C   0  0  0  0  0  0  0  0  0  0  0  0
   27.7024  -19.0053   -5.9731 C   0  0  0  0  0  0  0  0  0  0  0  0
   24.9346  -21.7308   -7.3456 O   0  0  0  0  0  0  0  0  0  0  0  0
  2  1  1  6
  2  6  1  0
  3  2  1  0
  4  3  1  0
  4  5  2  0
  6 15  1  0
  6  7  2  0
  8  4  1  0
 10  9  1  0
 11 10  2  0
 12 10  1  0
 13 12  1  0
 14 13  1  6
 15 14  1  0
 16 14  1  0
 16 17  2  0
 18 19  1  0
 19 29  2  0
 20 19  1  0
 20 21  2  0
 21 22  1  0
 22 28  2  0
 22 23  1  0
 24 23  1  6
 24 25  1  0
 25 16  1  0
 26 24  1  0
 27 26  2  0
 29 28  1  0
 30 26  1  0
M  END
$$$$
