DQY.pdb
     RDKit          3D

 30 30  0  0  1  0  0  0  0  0999 V2000
   21.6737  -12.9465  -17.5548 N   0  0  0  0  0  0  0  0  0  0  0  0
   21.7194  -11.9256  -16.5301 C   0  0  1  0  0  0  0  0  0  0  0  0
   23.1711  -11.7336  -16.1324 C   0  0  0  0  0  0  0  0  0  0  0  0
   23.6418  -12.9216  -15.3869 C   0  0  0  0  0  0  0  0  0  0  0  0
   22.8742  -13.9039  -15.2678 O   0  0  0  0  0  0  0  0  0  0  0  0
   21.1954  -10.6663  -17.1174 C   0  0  0  0  0  0  0  0  0  0  0  0
   21.5458  -10.3205  -18.2529 O   0  0  0  0  0  0  0  0  0  0  0  0
   24.9038  -12.9816  -14.8171 O   0  0  0  0  0  0  0  0  0  0  0  0
   15.5525   -8.9150  -17.1595 N   0  0  0  0  0  0  0  0  0  0  0  0
   16.3178  -10.0877  -17.4454 C   0  0  0  0  0  0  0  0  0  0  0  0
   15.7003  -11.1362  -17.5970 O   0  0  0  0  0  0  0  0  0  0  0  0
   17.7571   -9.9608  -17.5345 C   0  0  0  0  0  0  0  0  0  0  0  0
   18.3912   -8.6410  -17.3643 C   0  0  0  0  0  0  0  0  0  0  0  0
   19.8017   -8.5654  -16.9224 C   0  0  2  0  0  0  0  0  0  0  0  0
   20.2863   -9.8292  -16.4028 N   0  0  0  0  0  0  0  0  0  0  0  0
   20.1458   -7.3898  -16.1249 C   0  0  0  0  0  0  0  0  0  0  0  0
   19.9983   -7.3196  -14.8688 O   0  0  0  0  0  0  0  0  0  0  0  0
   22.7822    0.8609  -14.1236 O   0  0  0  0  0  0  0  0  0  0  0  0
   22.6620   -0.4415  -14.6074 C   0  0  0  0  0  0  0  0  0  0  0  0
   22.4913   -1.4930  -13.7206 C   0  0  0  0  0  0  0  0  0  0  0  0
   22.3708   -2.7935  -14.1954 C   0  0  0  0  0  0  0  0  0  0  0  0
   22.4157   -3.0771  -15.5344 C   0  0  0  0  0  0  0  0  0  0  0  0
   22.2905   -4.4434  -16.1045 C   0  0  0  0  0  0  0  0  0  0  0  0
   20.8682   -4.9836  -15.9740 C   0  0  2  0  0  0  0  0  0  0  0  0
   20.6988   -6.1962  -16.7251 N   0  0  0  0  0  0  0  0  0  0  0  0
   19.9576   -3.9556  -16.5123 C   0  0  0  0  0  0  0  0  0  0  0  0
   19.6254   -4.0066  -17.7186 O   0  0  0  0  0  0  0  0  0  0  0  0
   22.5877   -2.0009  -16.3920 C   0  0  0  0  0  0  0  0  0  0  0  0
   22.7108   -0.7003  -15.9619 C   0  0  0  0  0  0  0  0  0  0  0  0
   19.4292   -2.9116  -15.7614 O   0  0  0  0  0  0  0  0  0  0  0  0
  2  1  1  6
  2  6  1  0
  3  2  1  0
  4  3  1  0
  4  5  2  0
  6 15  1  0
  6  7  2  0
  8  4  1  0
 10  9  1  0
 11 10  2  0
 12 10  1  0
 13 12  1  0
 14 13  1  1
 15 14  1  0
 16 14  1  0
 16 17  2  0
 18 19  1  0
 19 29  2  0
 20 19  1  0
 20 21  2  0
 21 22  1  0
 22 28  2  0
 22 23  1  0
 24 23  1  6
 24 25  1  0
 25 16  1  0
 26 24  1  0
 27 26  2  0
 29 28  1  0
 30 26  1  0
M  END
$$$$
