RGY.pdb
     RDKit          3D

 28 28  0  0  1  0  0  0  0  0999 V2000
   28.6163  -28.6163  -16.2298 N   0  0  0  0  0  0  0  0  0  0  0  0
   29.3101  -28.2856  -17.4391 C   0  0  0  0  0  0  0  0  0  0  0  0
   29.5387  -29.1867  -18.3182 N   0  0  0  0  0  0  0  0  0  0  0  0
   29.7212  -26.9321  -17.6048 N   0  0  0  0  0  0  0  0  0  0  0  0
   29.0038  -25.9164  -16.8458 C   0  0  0  0  0  0  0  0  0  0  0  0
   29.6332  -24.5818  -17.1491 C   0  0  0  0  0  0  0  0  0  0  0  0
   28.9491  -23.4292  -16.5198 C   0  0  0  0  0  0  0  0  0  0  0  0
   27.5239  -23.2056  -16.8765 C   0  0  2  0  0  0  0  0  0  0  0  0
   27.3895  -22.8457  -18.2689 N   0  0  0  0  0  0  0  0  0  0  0  0
   26.9566  -22.1504  -15.9929 C   0  0  0  0  0  0  0  0  0  0  0  0
   26.9013  -20.9842  -16.4632 O   0  0  0  0  0  0  0  0  0  0  0  0
   30.0027  -28.9435  -19.2181 N   0  0  0  0  0  0  0  0  0  0  0  0
   26.4955  -22.4240  -14.6830 C   0  0  0  0  0  0  0  0  0  0  0  0
   25.9445  -21.3761  -13.9076 C   0  0  0  0  0  0  0  0  0  0  0  0
   24.7636  -21.7225  -13.1199 O   0  0  0  0  0  0  0  0  0  0  0  0
   24.1684  -22.8296  -13.1684 O   0  0  0  0  0  0  0  0  0  0  0  0
   27.8743  -20.3468   -7.0844 C   0  0  0  0  0  0  0  0  0  0  0  0
   26.7199  -20.2336   -7.8658 C   0  0  0  0  0  0  0  0  0  0  0  0
   25.8209  -21.2755   -7.8681 C   0  0  0  0  0  0  0  0  0  0  0  0
   24.6848  -21.1587   -8.6400 C   0  0  0  0  0  0  0  0  0  0  0  0
   24.4378  -20.0326   -9.3980 C   0  0  0  0  0  0  0  0  0  0  0  0
   23.2161  -19.9612  -10.1993 C   0  0  2  0  0  0  0  0  0  0  0  0
   23.1644  -20.9493  -11.3324 N   0  0  0  0  0  0  0  0  0  0  0  0
   24.2656  -20.7166  -12.2371 C   0  0  0  0  0  0  0  0  0  0  0  0
   21.8789  -20.9603  -12.0374 O   0  0  0  0  0  0  0  0  0  0  0  0
   20.8601  -21.3780  -11.4546 C   0  0  0  0  0  0  0  0  0  0  0  0
   25.3422  -19.0016   -9.3865 C   0  0  0  0  0  0  0  0  0  0  0  0
   26.4893  -19.0905   -8.6228 O   0  0  0  0  0  0  0  0  0  0  0  0
  2  4  1  0
  2  1  1  0
  3  2  2  0
  5  4  1  0
  6  5  1  0
  7  8  1  0
  7  6  1  0
  8  9  1  6
 10  8  1  0
 10 12  1  0
 11 10  2  0
 13 12  1  0
 14 15  2  0
 14 13  1  0
 16 17  1  0
 17 18  2  0
 18 19  1  0
 20 21  1  0
 20 19  2  0
 22 23  1  0
 22 21  1  1
 23 14  1  0
 24 22  1  0
 25 24  2  0
 26 20  1  0
 27 26  2  0
 27 17  1  0
 28 24  1  0
M  END
$$$$
