RGY.pdb
     RDKit          3D

 28 28  0  0  1  0  0  0  0  0999 V2000
   25.7050  -24.1461  -14.2600 N   0  0  0  0  0  0  0  0  0  0  0  0
   25.5242  -24.2120  -15.6799 C   0  0  0  0  0  0  0  0  0  0  0  0
   26.4673  -23.8545  -16.4671 N   0  0  0  0  0  0  0  0  0  0  0  0
   24.2679  -24.6856  -16.1552 N   0  0  0  0  0  0  0  0  0  0  0  0
   23.3166  -25.1708  -15.1643 C   0  0  0  0  0  0  0  0  0  0  0  0
   22.0689  -25.5990  -15.8919 C   0  0  0  0  0  0  0  0  0  0  0  0
   20.9483  -25.9841  -15.0039 C   0  0  0  0  0  0  0  0  0  0  0  0
   21.2875  -26.7286  -13.7633 C   0  0  2  0  0  0  0  0  0  0  0  0
   21.8958  -28.0014  -14.0739 N   0  0  0  0  0  0  0  0  0  0  0  0
   20.0561  -26.9081  -12.9464 C   0  0  0  0  0  0  0  0  0  0  0  0
   19.4558  -25.8624  -12.5853 O   0  0  0  0  0  0  0  0  0  0  0  0
   26.3519  -23.9267  -17.4995 N   0  0  0  0  0  0  0  0  0  0  0  0
   19.5661  -28.1851  -12.5820 C   0  0  0  0  0  0  0  0  0  0  0  0
   18.3316  -28.2858  -11.8974 C   0  0  0  0  0  0  0  0  0  0  0  0
   18.3551  -27.9052  -10.4869 O   0  0  0  0  0  0  0  0  0  0  0  0
   19.3907  -27.5902   -9.8460 O   0  0  0  0  0  0  0  0  0  0  0  0
   14.9953  -25.6034   -2.6793 C   0  0  0  0  0  0  0  0  0  0  0  0
   15.1813  -25.9136   -4.0303 C   0  0  0  0  0  0  0  0  0  0  0  0
   15.9563  -25.0750   -4.7984 C   0  0  0  0  0  0  0  0  0  0  0  0
   16.1363  -25.3856   -6.1293 C   0  0  0  0  0  0  0  0  0  0  0  0
   15.5618  -26.5051   -6.6951 C   0  0  0  0  0  0  0  0  0  0  0  0
   15.7854  -26.7872   -8.1129 C   0  0  1  0  0  0  0  0  0  0  0  0
   16.9853  -27.6520   -8.3868 N   0  0  0  0  0  0  0  0  0  0  0  0
   17.1003  -27.8968   -9.8053 C   0  0  0  0  0  0  0  0  0  0  0  0
   16.9896  -28.9020   -7.6206 O   0  0  0  0  0  0  0  0  0  0  0  0
   16.4326  -29.9133   -8.0885 C   0  0  0  0  0  0  0  0  0  0  0  0
   14.7918  -27.3323   -5.9180 C   0  0  0  0  0  0  0  0  0  0  0  0
   14.5938  -27.0466   -4.5816 O   0  0  0  0  0  0  0  0  0  0  0  0
  2  4  1  0
  2  1  1  0
  3  2  2  0
  5  4  1  0
  6  5  1  0
  7  8  1  0
  7  6  1  0
  8  9  1  6
 10  8  1  0
 10 12  1  0
 11 10  2  0
 13 12  1  0
 14 15  2  0
 14 13  1  0
 16 17  1  0
 17 18  2  0
 18 19  1  0
 20 21  1  0
 20 19  2  0
 22 23  1  0
 22 21  1  6
 23 14  1  0
 24 22  1  0
 25 24  2  0
 26 20  1  0
 27 26  2  0
 27 17  1  0
 28 24  1  0
M  END
$$$$
