RGY.pdb
     RDKit          3D

 28 28  0  0  1  0  0  0  0  0999 V2000
   21.1320  -21.5384  -13.7823 N   0  0  0  0  0  0  0  0  0  0  0  0
   20.4758  -21.8603  -15.0147 C   0  0  0  0  0  0  0  0  0  0  0  0
   20.0759  -23.0548  -15.2392 N   0  0  0  0  0  0  0  0  0  0  0  0
   20.2973  -20.8037  -15.9529 N   0  0  0  0  0  0  0  0  0  0  0  0
   20.7495  -19.4757  -15.5602 C   0  0  0  0  0  0  0  0  0  0  0  0
   22.1950  -19.3416  -15.9625 C   0  0  0  0  0  0  0  0  0  0  0  0
   22.4940  -18.1335  -16.7646 C   0  0  0  0  0  0  0  0  0  0  0  0
   22.7812  -18.3294  -18.2095 C   0  0  2  0  0  0  0  0  0  0  0  0
   21.8820  -19.3004  -18.7885 N   0  0  0  0  0  0  0  0  0  0  0  0
   24.2003  -18.7471  -18.3756 C   0  0  0  0  0  0  0  0  0  0  0  0
   25.0813  -17.9009  -18.0723 O   0  0  0  0  0  0  0  0  0  0  0  0
   19.6107  -23.2977  -16.1386 N   0  0  0  0  0  0  0  0  0  0  0  0
   24.5636  -20.0301  -18.8504 C   0  0  0  0  0  0  0  0  0  0  0  0
   25.9335  -20.3647  -18.9687 C   0  0  0  0  0  0  0  0  0  0  0  0
   26.5201  -21.0533  -17.8212 O   0  0  0  0  0  0  0  0  0  0  0  0
   27.6724  -21.5574  -17.7992 O   0  0  0  0  0  0  0  0  0  0  0  0
   21.8115  -20.6198  -10.9504 C   0  0  0  0  0  0  0  0  0  0  0  0
   22.9200  -20.7146  -11.7979 C   0  0  0  0  0  0  0  0  0  0  0  0
   23.9002  -21.6337  -11.5005 C   0  0  0  0  0  0  0  0  0  0  0  0
   24.9906  -21.7230  -12.3392 C   0  0  0  0  0  0  0  0  0  0  0  0
   25.1137  -20.9192  -13.4538 C   0  0  0  0  0  0  0  0  0  0  0  0
   26.2921  -21.0555  -14.3097 C   0  0  1  0  0  0  0  0  0  0  0  0
   26.0854  -21.9454  -15.5047 N   0  0  0  0  0  0  0  0  0  0  0  0
   25.7092  -21.1499  -16.6497 C   0  0  0  0  0  0  0  0  0  0  0  0
   25.1303  -23.0314  -15.2640 O   0  0  0  0  0  0  0  0  0  0  0  0
   23.9592  -22.9244  -15.6751 C   0  0  0  0  0  0  0  0  0  0  0  0
   24.1294  -20.0075  -13.7383 C   0  0  0  0  0  0  0  0  0  0  0  0
   23.0255  -19.8956  -12.9163 O   0  0  0  0  0  0  0  0  0  0  0  0
  2  4  1  0
  2  1  1  0
  3  2  2  0
  5  4  1  0
  6  5  1  0
  7  8  1  0
  7  6  1  0
  8  9  1  1
 10  8  1  0
 10 12  1  0
 11 10  2  0
 13 12  1  0
 14 15  2  0
 14 13  1  0
 16 17  1  0
 17 18  2  0
 18 19  1  0
 20 21  1  0
 20 19  2  0
 22 23  1  0
 22 21  1  6
 23 14  1  0
 24 22  1  0
 25 24  2  0
 26 20  1  0
 27 26  2  0
 27 17  1  0
 28 24  1  0
M  END
$$$$
