RGY.pdb
     RDKit          3D

 28 28  0  0  1  0  0  0  0  0999 V2000
   25.1209  -18.5637  -20.5392 N   0  0  0  0  0  0  0  0  0  0  0  0
   24.7044  -17.1941  -20.4799 C   0  0  0  0  0  0  0  0  0  0  0  0
   24.4223  -16.5590  -21.5542 N   0  0  0  0  0  0  0  0  0  0  0  0
   24.6236  -16.5932  -19.1912 N   0  0  0  0  0  0  0  0  0  0  0  0
   24.9915  -17.4138  -18.0451 C   0  0  0  0  0  0  0  0  0  0  0  0
   26.4436  -17.7873  -18.1908 C   0  0  0  0  0  0  0  0  0  0  0  0
   26.9275  -18.7551  -17.1799 C   0  0  0  0  0  0  0  0  0  0  0  0
   26.3594  -18.6507  -15.8107 C   0  0  2  0  0  0  0  0  0  0  0  0
   26.3790  -17.2834  -15.3454 N   0  0  0  0  0  0  0  0  0  0  0  0
   27.1232  -19.5401  -14.8933 C   0  0  0  0  0  0  0  0  0  0  0  0
   27.1223  -20.7698  -15.1621 O   0  0  0  0  0  0  0  0  0  0  0  0
   24.1452  -15.5558  -21.5196 N   0  0  0  0  0  0  0  0  0  0  0  0
   27.8241  -19.0471  -13.7668 C   0  0  0  0  0  0  0  0  0  0  0  0
   28.5107  -19.9538  -12.9246 C   0  0  0  0  0  0  0  0  0  0  0  0
   27.6778  -20.9416  -12.2423 O   0  0  0  0  0  0  0  0  0  0  0  0
   27.5815  -22.1510  -12.5745 O   0  0  0  0  0  0  0  0  0  0  0  0
   28.2327  -18.2787   -5.2427 C   0  0  0  0  0  0  0  0  0  0  0  0
   27.8261  -19.1829   -6.2292 C   0  0  0  0  0  0  0  0  0  0  0  0
   28.7707  -20.0065   -6.7979 C   0  0  0  0  0  0  0  0  0  0  0  0
   28.3645  -20.8958   -7.7697 C   0  0  0  0  0  0  0  0  0  0  0  0
   27.0480  -20.9727   -8.1753 C   0  0  0  0  0  0  0  0  0  0  0  0
   26.6716  -21.9346   -9.2110 C   0  0  1  0  0  0  0  0  0  0  0  0
   25.9946  -21.3199  -10.4053 N   0  0  0  0  0  0  0  0  0  0  0  0
   26.9268  -20.4792  -11.1192 C   0  0  0  0  0  0  0  0  0  0  0  0
   24.7635  -20.5977  -10.0695 O   0  0  0  0  0  0  0  0  0  0  0  0
   24.6677  -19.3851  -10.3384 C   0  0  0  0  0  0  0  0  0  0  0  0
   26.1170  -20.1460   -7.6001 C   0  0  0  0  0  0  0  0  0  0  0  0
   26.4946  -19.2450   -6.6241 O   0  0  0  0  0  0  0  0  0  0  0  0
  2  4  1  0
  2  1  1  0
  3  2  2  0
  5  4  1  0
  6  5  1  0
  7  8  1  0
  7  6  1  0
  8  9  1  1
 10  8  1  0
 10 12  1  0
 11 10  2  0
 13 12  1  0
 14 15  2  0
 14 13  1  0
 16 17  1  0
 17 18  2  0
 18 19  1  0
 20 21  1  0
 20 19  2  0
 22 23  1  0
 22 21  1  6
 23 14  1  0
 24 22  1  0
 25 24  2  0
 26 20  1  0
 27 26  2  0
 27 17  1  0
 28 24  1  0
M  END
$$$$
