RGY.pdb
     RDKit          3D

 28 28  0  0  1  0  0  0  0  0999 V2000
   46.1500  -11.9263   -5.8491 N   0  0  0  0  0  0  0  0  0  0  0  0
   47.3785  -12.6066   -6.1336 C   0  0  0  0  0  0  0  0  0  0  0  0
   48.1628  -12.9463   -5.1814 N   0  0  0  0  0  0  0  0  0  0  0  0
   47.6716  -12.8774   -7.5008 N   0  0  0  0  0  0  0  0  0  0  0  0
   46.5444  -13.0091   -8.4142 C   0  0  0  0  0  0  0  0  0  0  0  0
   46.3419  -14.4762   -8.6902 C   0  0  0  0  0  0  0  0  0  0  0  0
   45.2609  -14.7697   -9.6587 C   0  0  0  0  0  0  0  0  0  0  0  0
   43.9104  -15.0526   -9.1067 C   0  0  2  0  0  0  0  0  0  0  0  0
   43.5336  -16.4273   -9.3406 N   0  0  0  0  0  0  0  0  0  0  0  0
   42.9258  -14.1160   -9.7145 C   0  0  0  0  0  0  0  0  0  0  0  0
   42.5409  -14.3762  -10.8843 O   0  0  0  0  0  0  0  0  0  0  0  0
   49.0468  -13.4594   -5.3804 N   0  0  0  0  0  0  0  0  0  0  0  0
   42.4330  -12.9811   -9.0271 C   0  0  0  0  0  0  0  0  0  0  0  0
   41.4730  -12.1518   -9.6545 C   0  0  0  0  0  0  0  0  0  0  0  0
   41.0484  -10.9815   -8.8896 O   0  0  0  0  0  0  0  0  0  0  0  0
   41.5107  -10.6517   -7.7672 O   0  0  0  0  0  0  0  0  0  0  0  0
   36.6697   -3.3501   -7.8715 C   0  0  0  0  0  0  0  0  0  0  0  0
   37.1032   -4.6035   -8.3156 C   0  0  0  0  0  0  0  0  0  0  0  0
   38.1113   -4.6590   -9.2508 C   0  0  0  0  0  0  0  0  0  0  0  0
   38.5346   -5.8969   -9.6849 C   0  0  0  0  0  0  0  0  0  0  0  0
   37.9736   -7.0626   -9.2052 C   0  0  0  0  0  0  0  0  0  0  0  0
   38.4607   -8.3498   -9.7005 C   0  0  2  0  0  0  0  0  0  0  0  0
   39.5063   -8.9893   -8.8283 N   0  0  0  0  0  0  0  0  0  0  0  0
   40.0338  -10.1665   -9.4774 C   0  0  0  0  0  0  0  0  0  0  0  0
   39.0324   -9.2860   -7.4730 O   0  0  0  0  0  0  0  0  0  0  0  0
   38.3918  -10.3329   -7.2597 C   0  0  0  0  0  0  0  0  0  0  0  0
   36.9697   -6.9927   -8.2733 C   0  0  0  0  0  0  0  0  0  0  0  0
   36.5250   -5.7665   -7.8198 O   0  0  0  0  0  0  0  0  0  0  0  0
  2  4  1  0
  2  1  1  0
  3  2  2  0
  5  4  1  0
  6  5  1  0
  7  8  1  0
  7  6  1  0
  8  9  1  6
 10  8  1  0
 10 12  1  0
 11 10  2  0
 13 12  1  0
 14 15  2  0
 14 13  1  0
 16 17  1  0
 17 18  2  0
 18 19  1  0
 20 21  1  0
 20 19  2  0
 22 23  1  0
 22 21  1  6
 23 14  1  0
 24 22  1  0
 25 24  2  0
 26 20  1  0
 27 26  2  0
 27 17  1  0
 28 24  1  0
M  END
$$$$
