RGY.pdb
     RDKit          3D

 28 28  0  0  1  0  0  0  0  0999 V2000
   26.8527  -17.8693  -17.8893 N   0  0  0  0  0  0  0  0  0  0  0  0
   25.8063  -17.5161  -18.8021 C   0  0  0  0  0  0  0  0  0  0  0  0
   25.8975  -16.4520  -19.5069 N   0  0  0  0  0  0  0  0  0  0  0  0
   24.6866  -18.3928  -18.8801 N   0  0  0  0  0  0  0  0  0  0  0  0
   24.5768  -19.4311  -17.8642 C   0  0  0  0  0  0  0  0  0  0  0  0
   23.1827  -19.3767  -17.2960 C   0  0  0  0  0  0  0  0  0  0  0  0
   23.1299  -19.1507  -15.8335 C   0  0  0  0  0  0  0  0  0  0  0  0
   23.4284  -20.3109  -14.9541 C   0  0  2  0  0  0  0  0  0  0  0  0
   23.1078  -21.5556  -15.6134 N   0  0  0  0  0  0  0  0  0  0  0  0
   22.6715  -20.1687  -13.6802 C   0  0  0  0  0  0  0  0  0  0  0  0
   22.7623  -19.0632  -13.0853 O   0  0  0  0  0  0  0  0  0  0  0  0
   25.1605  -16.2121  -20.2022 N   0  0  0  0  0  0  0  0  0  0  0  0
   21.8812  -21.2142  -13.1457 C   0  0  0  0  0  0  0  0  0  0  0  0
   21.2027  -21.0149  -11.9199 C   0  0  0  0  0  0  0  0  0  0  0  0
   20.3660  -22.1250  -11.4697 O   0  0  0  0  0  0  0  0  0  0  0  0
   20.0199  -23.0990  -12.1865 O   0  0  0  0  0  0  0  0  0  0  0  0
   15.9228  -26.8807   -5.4833 C   0  0  0  0  0  0  0  0  0  0  0  0
   16.6781  -25.8945   -6.1259 C   0  0  0  0  0  0  0  0  0  0  0  0
   18.0244  -26.1117   -6.3110 C   0  0  0  0  0  0  0  0  0  0  0  0
   18.7640  -25.1364   -6.9450 C   0  0  0  0  0  0  0  0  0  0  0  0
   18.1865  -23.9650   -7.3898 C   0  0  0  0  0  0  0  0  0  0  0  0
   19.0183  -22.9632   -8.0563 C   0  0  2  0  0  0  0  0  0  0  0  0
   19.0207  -23.0646   -9.5571 N   0  0  0  0  0  0  0  0  0  0  0  0
   19.9197  -22.0812  -10.1140 C   0  0  0  0  0  0  0  0  0  0  0  0
   17.6828  -22.9704  -10.1494 O   0  0  0  0  0  0  0  0  0  0  0  0
   17.1804  -21.8504  -10.3617 C   0  0  0  0  0  0  0  0  0  0  0  0
   16.8437  -23.7615   -7.1987 C   0  0  0  0  0  0  0  0  0  0  0  0
   16.0774  -24.7208   -6.5668 O   0  0  0  0  0  0  0  0  0  0  0  0
  2  4  1  0
  2  1  1  0
  3  2  2  0
  5  4  1  0
  6  5  1  0
  7  8  1  0
  7  6  1  0
  8  9  1  6
 10  8  1  0
 10 12  1  0
 11 10  2  0
 13 12  1  0
 14 15  2  0
 14 13  1  0
 16 17  1  0
 17 18  2  0
 18 19  1  0
 20 21  1  0
 20 19  2  0
 22 23  1  0
 22 21  1  1
 23 14  1  0
 24 22  1  0
 25 24  2  0
 26 20  1  0
 27 26  2  0
 27 17  1  0
 28 24  1  0
M  END
$$$$
