RGY.pdb
     RDKit          3D

 28 28  0  0  1  0  0  0  0  0999 V2000
   25.8073  -20.4086  -20.0889 N   0  0  0  0  0  0  0  0  0  0  0  0
   25.3675  -21.6919  -20.5497 C   0  0  0  0  0  0  0  0  0  0  0  0
   25.2267  -21.9137  -21.8020 N   0  0  0  0  0  0  0  0  0  0  0  0
   25.1021  -22.6829  -19.5618 N   0  0  0  0  0  0  0  0  0  0  0  0
   25.2793  -22.3024  -18.1668 C   0  0  0  0  0  0  0  0  0  0  0  0
   24.7277  -20.9113  -17.9932 C   0  0  0  0  0  0  0  0  0  0  0  0
   24.8249  -20.3859  -16.6122 C   0  0  0  0  0  0  0  0  0  0  0  0
   24.8802  -21.3792  -15.5081 C   0  0  2  0  0  0  0  0  0  0  0  0
   23.6701  -22.1664  -15.4596 N   0  0  0  0  0  0  0  0  0  0  0  0
   25.1097  -20.6690  -14.2202 C   0  0  0  0  0  0  0  0  0  0  0  0
   26.1330  -19.9397  -14.1475 O   0  0  0  0  0  0  0  0  0  0  0  0
   24.8962  -22.8407  -22.1421 N   0  0  0  0  0  0  0  0  0  0  0  0
   24.2315  -20.7940  -13.1172 C   0  0  0  0  0  0  0  0  0  0  0  0
   24.4598  -20.0176  -11.9562 C   0  0  0  0  0  0  0  0  0  0  0  0
   25.2762  -20.6481  -10.9213 O   0  0  0  0  0  0  0  0  0  0  0  0
   25.5636  -21.8720  -10.8809 O   0  0  0  0  0  0  0  0  0  0  0  0
   29.9735  -20.6018   -3.3860 C   0  0  0  0  0  0  0  0  0  0  0  0
   29.3110  -20.2612   -4.5698 C   0  0  0  0  0  0  0  0  0  0  0  0
   28.3802  -19.2482   -4.5360 C   0  0  0  0  0  0  0  0  0  0  0  0
   27.7303  -18.9167   -5.7056 C   0  0  0  0  0  0  0  0  0  0  0  0
   27.9932  -19.5729   -6.8904 C   0  0  0  0  0  0  0  0  0  0  0  0
   27.2742  -19.1807   -8.1024 C   0  0  1  0  0  0  0  0  0  0  0  0
   26.4939  -20.2957   -8.7433 N   0  0  0  0  0  0  0  0  0  0  0  0
   25.7737  -19.7945   -9.8902 C   0  0  0  0  0  0  0  0  0  0  0  0
   25.6050  -20.9956   -7.8107 O   0  0  0  0  0  0  0  0  0  0  0  0
   24.4048  -20.6693   -7.7412 C   0  0  0  0  0  0  0  0  0  0  0  0
   28.9233  -20.5806   -6.9098 C   0  0  0  0  0  0  0  0  0  0  0  0
   29.5902  -20.9346   -5.7535 O   0  0  0  0  0  0  0  0  0  0  0  0
  2  4  1  0
  2  1  1  0
  3  2  2  0
  5  4  1  0
  6  5  1  0
  7  8  1  0
  7  6  1  0
  8  9  1  1
 10  8  1  0
 10 12  1  0
 11 10  2  0
 13 12  1  0
 14 15  2  0
 14 13  1  0
 16 17  1  0
 17 18  2  0
 18 19  1  0
 20 21  1  0
 20 19  2  0
 22 23  1  0
 22 21  1  6
 23 14  1  0
 24 22  1  0
 25 24  2  0
 26 20  1  0
 27 26  2  0
 27 17  1  0
 28 24  1  0
M  END
$$$$
