RGY.pdb
     RDKit          3D

 28 28  0  0  1  0  0  0  0  0999 V2000
   28.7333  -22.5955  -16.0989 N   0  0  0  0  0  0  0  0  0  0  0  0
   27.8016  -22.1260  -17.0810 C   0  0  0  0  0  0  0  0  0  0  0  0
   27.4943  -22.8618  -18.0817 N   0  0  0  0  0  0  0  0  0  0  0  0
   27.2500  -20.8274  -16.8871 N   0  0  0  0  0  0  0  0  0  0  0  0
   27.7377  -20.0550  -15.7523 C   0  0  0  0  0  0  0  0  0  0  0  0
   26.5493  -19.4153  -15.0832 C   0  0  0  0  0  0  0  0  0  0  0  0
   26.3769  -19.7897  -13.6610 C   0  0  0  0  0  0  0  0  0  0  0  0
   25.5578  -20.9948  -13.3686 C   0  0  2  0  0  0  0  0  0  0  0  0
   25.6618  -21.9623  -14.4362 N   0  0  0  0  0  0  0  0  0  0  0  0
   24.1430  -20.5858  -13.1520 C   0  0  0  0  0  0  0  0  0  0  0  0
   23.9120  -19.8375  -12.1665 O   0  0  0  0  0  0  0  0  0  0  0  0
   26.8324  -22.5184  -18.8085 N   0  0  0  0  0  0  0  0  0  0  0  0
   23.0922  -21.0068  -14.0017 C   0  0  0  0  0  0  0  0  0  0  0  0
   21.7505  -20.8214  -13.5914 C   0  0  0  0  0  0  0  0  0  0  0  0
   20.9422  -22.0349  -13.4967 O   0  0  0  0  0  0  0  0  0  0  0  0
   21.4048  -23.2042  -13.4636 O   0  0  0  0  0  0  0  0  0  0  0  0
   19.4279  -25.2445   -7.5597 C   0  0  0  0  0  0  0  0  0  0  0  0
   18.9816  -24.6690   -8.7538 C   0  0  0  0  0  0  0  0  0  0  0  0
   18.8160  -23.3038   -8.8058 C   0  0  0  0  0  0  0  0  0  0  0  0
   18.3760  -22.7419   -9.9852 C   0  0  0  0  0  0  0  0  0  0  0  0
   18.1032  -23.5129  -11.0964 C   0  0  0  0  0  0  0  0  0  0  0  0
   17.6384  -22.8647  -12.3226 C   0  0  2  0  0  0  0  0  0  0  0  0
   18.6002  -22.9652  -13.4747 N   0  0  0  0  0  0  0  0  0  0  0  0
   19.5264  -21.8578  -13.4388 C   0  0  0  0  0  0  0  0  0  0  0  0
   17.9383  -23.0739  -14.7784 O   0  0  0  0  0  0  0  0  0  0  0  0
   17.9724  -22.1117  -15.5689 C   0  0  0  0  0  0  0  0  0  0  0  0
   18.2726  -24.8723  -11.0306 C   0  0  0  0  0  0  0  0  0  0  0  0
   18.7122  -25.4633   -9.8625 O   0  0  0  0  0  0  0  0  0  0  0  0
  2  4  1  0
  2  1  1  0
  3  2  2  0
  5  4  1  0
  6  5  1  0
  7  8  1  0
  7  6  1  0
  8  9  1  6
 10  8  1  0
 10 12  1  0
 11 10  2  0
 13 12  1  0
 14 15  2  0
 14 13  1  0
 16 17  1  0
 17 18  2  0
 18 19  1  0
 20 21  1  0
 20 19  2  0
 22 23  1  0
 22 21  1  1
 23 14  1  0
 24 22  1  0
 25 24  2  0
 26 20  1  0
 27 26  2  0
 27 17  1  0
 28 24  1  0
M  END
$$$$
