ETQ.pdb
     RDKit          3D

 26 25  0  0  1  0  0  0  0  0999 V2000
   20.0583  -11.9043  -16.3361 N   0  0  0  0  0  0  0  0  0  0  0  0
   18.8453  -11.3268  -15.7582 C   0  0  1  0  0  0  0  0  0  0  0  0
   17.9679  -12.3782  -15.1836 C   0  0  0  0  0  0  0  0  0  0  0  0
   17.3384  -13.2118  -16.2635 C   0  0  0  0  0  0  0  0  0  0  0  0
   16.5405  -14.3355  -15.6805 C   0  0  0  0  0  0  0  0  0  0  0  0
   16.6607  -15.4629  -16.1651 O   0  0  0  0  0  0  0  0  0  0  0  0
   19.2090  -10.3180  -14.7479 C   0  0  0  0  0  0  0  0  0  0  0  0
   20.1652  -10.4127  -13.9301 O   0  0  0  0  0  0  0  0  0  0  0  0
   15.7080  -14.0801  -14.6353 O   0  0  0  0  0  0  0  0  0  0  0  0
   20.9284   -7.6297  -14.7938 C   0  0  0  0  0  0  0  0  0  0  0  0
   19.5809   -7.0610  -14.4385 C   0  0  1  0  0  0  0  0  0  0  0  0
   18.8812   -6.8290  -15.6210 O   0  0  0  0  0  0  0  0  0  0  0  0
   18.7790   -8.1216  -13.6725 C   0  0  2  0  0  0  0  0  0  0  0  0
   18.4166   -9.1240  -14.6800 N   0  0  0  0  0  0  0  0  0  0  0  0
   17.5113   -7.5020  -13.2094 C   0  0  0  0  0  0  0  0  0  0  0  0
   16.4614   -7.5605  -13.9226 O   0  0  0  0  0  0  0  0  0  0  0  0
   15.4508   -7.0696   -7.5594 N   0  0  0  0  0  0  0  0  0  0  0  0
   14.4918   -6.2158   -8.1491 C   0  0  0  0  0  0  0  0  0  0  0  0
   13.5497   -5.7182   -7.5127 O   0  0  0  0  0  0  0  0  0  0  0  0
   14.6270   -5.9034   -9.6087 C   0  0  0  0  0  0  0  0  0  0  0  0
   15.8372   -6.5852  -10.1461 C   0  0  0  0  0  0  0  0  0  0  0  0
   16.1231   -6.2196  -11.5611 C   0  0  2  0  0  0  0  0  0  0  0  0
   17.3959   -6.8296  -11.9856 N   0  0  0  0  0  0  0  0  0  0  0  0
   16.2461   -4.7702  -11.7274 C   0  0  0  0  0  0  0  0  0  0  0  0
   17.3516   -4.1826  -11.6946 O   0  0  0  0  0  0  0  0  0  0  0  0
   15.0613   -4.0203  -11.9321 O   0  0  0  0  0  0  0  0  0  0  0  0
  2  1  1  1
  3  2  1  0
  4  3  1  0
  5  6  2  0
  5  4  1  0
  7  2  1  0
  8  7  2  0
  9  5  1  0
 11 10  1  6
 11 12  1  0
 13 11  1  0
 13 14  1  6
 14  7  1  0
 15 13  1  0
 16 15  2  0
 18 20  1  0
 18 17  1  0
 19 18  2  0
 21 20  1  0
 22 21  1  1
 22 23  1  0
 23 15  1  0
 24 26  1  0
 24 22  1  0
 25 24  2  0
M  END
$$$$
