ETQ.pdb
     RDKit          3D

 26 25  0  0  1  0  0  0  0  0999 V2000
   22.3545  -15.0617  -17.7134 N   0  0  0  0  0  0  0  0  0  0  0  0
   21.3248  -14.5507  -16.8092 C   0  0  1  0  0  0  0  0  0  0  0  0
   20.7097  -15.6464  -16.0177 C   0  0  0  0  0  0  0  0  0  0  0  0
   21.1356  -16.9931  -16.5298 C   0  0  0  0  0  0  0  0  0  0  0  0
   19.9603  -17.9058  -16.6876 C   0  0  0  0  0  0  0  0  0  0  0  0
   18.8469  -17.5056  -16.3405 O   0  0  0  0  0  0  0  0  0  0  0  0
   21.9018  -13.5141  -15.9357 C   0  0  0  0  0  0  0  0  0  0  0  0
   21.3182  -12.9748  -14.9556 O   0  0  0  0  0  0  0  0  0  0  0  0
   20.1550  -19.1475  -17.2083 O   0  0  0  0  0  0  0  0  0  0  0  0
   25.9325  -10.8403  -14.9575 C   0  0  0  0  0  0  0  0  0  0  0  0
   25.2943  -12.0011  -15.6723 C   0  0  1  0  0  0  0  0  0  0  0  0
   25.7868  -13.1792  -15.1146 O   0  0  0  0  0  0  0  0  0  0  0  0
   23.7868  -11.9942  -15.3861 C   0  0  2  0  0  0  0  0  0  0  0  0
   23.2387  -13.0740  -16.2135 N   0  0  0  0  0  0  0  0  0  0  0  0
   23.2198  -10.7247  -15.9080 C   0  0  0  0  0  0  0  0  0  0  0  0
   23.1399  -10.5149  -17.1586 O   0  0  0  0  0  0  0  0  0  0  0  0
   20.7733   -8.7498  -18.9995 N   0  0  0  0  0  0  0  0  0  0  0  0
   20.0472   -7.7354  -18.3361 C   0  0  0  0  0  0  0  0  0  0  0  0
   19.3783   -6.8809  -18.9380 O   0  0  0  0  0  0  0  0  0  0  0  0
   20.0932   -7.6985  -16.8385 C   0  0  0  0  0  0  0  0  0  0  0  0
   20.8548   -8.8783  -16.3419 C   0  0  0  0  0  0  0  0  0  0  0  0
   22.1031   -8.4972  -15.6250 C   0  0  2  0  0  0  0  0  0  0  0  0
   22.7484   -9.7024  -15.0739 N   0  0  0  0  0  0  0  0  0  0  0  0
   21.8268   -7.5899  -14.5097 C   0  0  0  0  0  0  0  0  0  0  0  0
   21.5115   -6.3903  -14.6831 O   0  0  0  0  0  0  0  0  0  0  0  0
   21.9242   -8.1041  -13.1929 O   0  0  0  0  0  0  0  0  0  0  0  0
  2  1  1  1
  3  2  1  0
  4  3  1  0
  5  6  2  0
  5  4  1  0
  7  2  1  0
  8  7  2  0
  9  5  1  0
 11 10  1  1
 11 12  1  0
 13 11  1  0
 13 14  1  6
 14  7  1  0
 15 13  1  0
 16 15  2  0
 18 20  1  0
 18 17  1  0
 19 18  2  0
 21 20  1  0
 22 21  1  1
 22 23  1  0
 23 15  1  0
 24 26  1  0
 24 22  1  0
 25 24  2  0
M  END
$$$$
