ETQ.pdb
     RDKit          3D

 26 25  0  0  1  0  0  0  0  0999 V2000
   35.5116  -36.4713  -21.1009 N   0  0  0  0  0  0  0  0  0  0  0  0
   34.6570  -35.3889  -21.5877 C   0  0  1  0  0  0  0  0  0  0  0  0
   33.3263  -35.8986  -22.0060 C   0  0  0  0  0  0  0  0  0  0  0  0
   33.4284  -36.7246  -23.2568 C   0  0  0  0  0  0  0  0  0  0  0  0
   32.1029  -37.3150  -23.6222 C   0  0  0  0  0  0  0  0  0  0  0  0
   31.6973  -38.2967  -22.9960 O   0  0  0  0  0  0  0  0  0  0  0  0
   34.5337  -34.3498  -20.5506 C   0  0  0  0  0  0  0  0  0  0  0  0
   34.9646  -34.4409  -19.3682 O   0  0  0  0  0  0  0  0  0  0  0  0
   31.3863  -36.7520  -24.6322 O   0  0  0  0  0  0  0  0  0  0  0  0
   34.1656  -29.6518  -19.6622 C   0  0  0  0  0  0  0  0  0  0  0  0
   34.5078  -30.8751  -20.4698 C   0  0  1  0  0  0  0  0  0  0  0  0
   35.8672  -31.1358  -20.3094 O   0  0  0  0  0  0  0  0  0  0  0  0
   33.7714  -32.0843  -19.8783 C   0  0  2  0  0  0  0  0  0  0  0  0
   33.8705  -33.1278  -20.9042 N   0  0  0  0  0  0  0  0  0  0  0  0
   32.3322  -31.7387  -19.7564 C   0  0  0  0  0  0  0  0  0  0  0  0
   31.5824  -31.7088  -20.7818 O   0  0  0  0  0  0  0  0  0  0  0  0
   28.5920  -32.5031  -15.1162 N   0  0  0  0  0  0  0  0  0  0  0  0
   27.7911  -31.5505  -15.7852 C   0  0  0  0  0  0  0  0  0  0  0  0
   26.5899  -31.3777  -15.5259 O   0  0  0  0  0  0  0  0  0  0  0  0
   28.4302  -30.7167  -16.8541 C   0  0  0  0  0  0  0  0  0  0  0  0
   29.8466  -31.1432  -17.0278 C   0  0  0  0  0  0  0  0  0  0  0  0
   30.2922  -31.0946  -18.4479 C   0  0  2  0  0  0  0  0  0  0  0  0
   31.7248  -31.4311  -18.5319 N   0  0  0  0  0  0  0  0  0  0  0  0
   30.1134  -29.7598  -19.0220 C   0  0  0  0  0  0  0  0  0  0  0  0
   30.8731  -28.8032  -18.7454 O   0  0  0  0  0  0  0  0  0  0  0  0
   29.0368  -29.5603  -19.9214 O   0  0  0  0  0  0  0  0  0  0  0  0
  2  1  1  1
  3  2  1  0
  4  3  1  0
  5  6  2  0
  5  4  1  0
  7  2  1  0
  8  7  2  0
  9  5  1  0
 11 10  1  1
 11 12  1  0
 13 11  1  0
 13 14  1  6
 14  7  1  0
 15 13  1  0
 16 15  2  0
 18 20  1  0
 18 17  1  0
 19 18  2  0
 21 20  1  0
 22 21  1  1
 22 23  1  0
 23 15  1  0
 24 26  1  0
 24 22  1  0
 25 24  2  0
M  END
$$$$
