ETQ.pdb
     RDKit          3D

 26 25  0  0  1  0  0  0  0  0999 V2000
   24.9329  -21.3775   -9.3407 N   0  0  0  0  0  0  0  0  0  0  0  0
   24.3837  -20.8971  -10.6082 C   0  0  1  0  0  0  0  0  0  0  0  0
   23.1795  -20.0557  -10.3901 C   0  0  0  0  0  0  0  0  0  0  0  0
   22.4457  -19.8114  -11.6781 C   0  0  0  0  0  0  0  0  0  0  0  0
   21.4867  -20.9221  -11.9708 C   0  0  0  0  0  0  0  0  0  0  0  0
   20.4748  -21.0317  -11.2749 O   0  0  0  0  0  0  0  0  0  0  0  0
   25.4231  -20.1663  -11.3538 C   0  0  0  0  0  0  0  0  0  0  0  0
   26.4962  -19.7177  -10.8645 O   0  0  0  0  0  0  0  0  0  0  0  0
   21.7594  -21.7761  -12.9941 O   0  0  0  0  0  0  0  0  0  0  0  0
   27.8453  -20.9883  -12.2357 C   0  0  0  0  0  0  0  0  0  0  0  0
   27.2771  -20.7509  -13.6091 C   0  0  1  0  0  0  0  0  0  0  0  0
   26.4597  -21.8315  -13.9344 O   0  0  0  0  0  0  0  0  0  0  0  0
   26.3580  -19.5230  -13.5623 C   0  0  2  0  0  0  0  0  0  0  0  0
   25.2077  -19.9408  -12.7541 N   0  0  0  0  0  0  0  0  0  0  0  0
   25.8486  -19.2706  -14.9343 C   0  0  0  0  0  0  0  0  0  0  0  0
   24.9886  -20.0441  -15.4602 O   0  0  0  0  0  0  0  0  0  0  0  0
   24.3539  -14.7270  -17.5510 N   0  0  0  0  0  0  0  0  0  0  0  0
   24.6021  -15.2982  -18.8192 C   0  0  0  0  0  0  0  0  0  0  0  0
   23.9563  -14.9938  -19.8343 O   0  0  0  0  0  0  0  0  0  0  0  0
   25.6961  -16.3162  -18.9332 C   0  0  0  0  0  0  0  0  0  0  0  0
   26.2152  -16.6328  -17.5735 C   0  0  0  0  0  0  0  0  0  0  0  0
   25.6766  -17.9127  -17.0355 C   0  0  2  0  0  0  0  0  0  0  0  0
   26.2740  -18.1890  -15.7168 N   0  0  0  0  0  0  0  0  0  0  0  0
   25.9936  -19.0405  -17.9136 C   0  0  0  0  0  0  0  0  0  0  0  0
   27.0636  -19.6844  -17.8189 O   0  0  0  0  0  0  0  0  0  0  0  0
   25.0441  -19.4034  -18.9008 O   0  0  0  0  0  0  0  0  0  0  0  0
  2  1  1  1
  3  2  1  0
  4  3  1  0
  5  6  2  0
  5  4  1  0
  7  2  1  0
  8  7  2  0
  9  5  1  0
 11 10  1  1
 11 12  1  0
 13 11  1  0
 13 14  1  1
 14  7  1  0
 15 13  1  0
 16 15  2  0
 18 20  1  0
 18 17  1  0
 19 18  2  0
 21 20  1  0
 22 21  1  6
 22 23  1  0
 23 15  1  0
 24 26  1  0
 24 22  1  0
 25 24  2  0
M  END
$$$$
