ETQ.pdb
     RDKit          3D

 26 25  0  0  1  0  0  0  0  0999 V2000
   20.7177  -14.5392  -18.0690 N   0  0  0  0  0  0  0  0  0  0  0  0
   20.1251  -13.2046  -17.9882 C   0  0  1  0  0  0  0  0  0  0  0  0
   18.8237  -13.2345  -17.2736 C   0  0  0  0  0  0  0  0  0  0  0  0
   17.8177  -14.0733  -18.0095 C   0  0  0  0  0  0  0  0  0  0  0  0
   16.4664  -13.9748  -17.3744 C   0  0  0  0  0  0  0  0  0  0  0  0
   15.8448  -12.9136  -17.4626 O   0  0  0  0  0  0  0  0  0  0  0  0
   21.0726  -12.2795  -17.3425 C   0  0  0  0  0  0  0  0  0  0  0  0
   21.7751  -12.5416  -16.3277 O   0  0  0  0  0  0  0  0  0  0  0  0
   15.9651  -15.0570  -16.7199 O   0  0  0  0  0  0  0  0  0  0  0  0
   23.8753  -10.5106  -18.9278 C   0  0  0  0  0  0  0  0  0  0  0  0
   22.9809   -9.4371  -18.3682 C   0  0  1  0  0  0  0  0  0  0  0  0
   22.0846   -9.0548  -19.3642 O   0  0  0  0  0  0  0  0  0  0  0  0
   22.1308  -10.0355  -17.2396 C   0  0  2  0  0  0  0  0  0  0  0  0
   21.2168  -10.9685  -17.9070 N   0  0  0  0  0  0  0  0  0  0  0  0
   21.2927   -8.9529  -16.6641 C   0  0  0  0  0  0  0  0  0  0  0  0
   20.0943   -8.7840  -17.0511 O   0  0  0  0  0  0  0  0  0  0  0  0
   18.5428   -8.5248  -12.0827 N   0  0  0  0  0  0  0  0  0  0  0  0
   18.4156   -7.1326  -12.2870 C   0  0  0  0  0  0  0  0  0  0  0  0
   17.6596   -6.4178  -11.6106 O   0  0  0  0  0  0  0  0  0  0  0  0
   19.2346   -6.5003  -13.3713 C   0  0  0  0  0  0  0  0  0  0  0  0
   20.0507   -7.5489  -14.0443 C   0  0  0  0  0  0  0  0  0  0  0  0
   20.9019   -7.0024  -15.1372 C   0  0  2  0  0  0  0  0  0  0  0  0
   21.7598   -8.0703  -15.6813 N   0  0  0  0  0  0  0  0  0  0  0  0
   21.7754   -5.9316  -14.6538 C   0  0  0  0  0  0  0  0  0  0  0  0
   23.0152   -6.0737  -14.5477 O   0  0  0  0  0  0  0  0  0  0  0  0
   21.1801   -4.6961  -14.2975 O   0  0  0  0  0  0  0  0  0  0  0  0
  2  1  1  1
  3  2  1  0
  4  3  1  0
  5  6  2  0
  5  4  1  0
  7  2  1  0
  8  7  2  0
  9  5  1  0
 11 10  1  6
 11 12  1  0
 13 11  1  0
 13 14  1  6
 14  7  1  0
 15 13  1  0
 16 15  2  0
 18 20  1  0
 18 17  1  0
 19 18  2  0
 21 20  1  0
 22 21  1  1
 22 23  1  0
 23 15  1  0
 24 26  1  0
 24 22  1  0
 25 24  2  0
M  END
$$$$
