ETQ.pdb
     RDKit          3D

 26 25  0  0  1  0  0  0  0  0999 V2000
   17.0822  -29.5755   -4.1258 N   0  0  0  0  0  0  0  0  0  0  0  0
   18.0458  -29.1348   -5.1338 C   0  0  1  0  0  0  0  0  0  0  0  0
   18.5788  -30.2836   -5.9094 C   0  0  0  0  0  0  0  0  0  0  0  0
   19.4497  -31.1602   -5.0548 C   0  0  0  0  0  0  0  0  0  0  0  0
   19.9282  -32.3539   -5.8198 C   0  0  0  0  0  0  0  0  0  0  0  0
   21.1134  -32.4081   -6.1554 O   0  0  0  0  0  0  0  0  0  0  0  0
   17.4189  -28.1347   -6.0153 C   0  0  0  0  0  0  0  0  0  0  0  0
   16.3305  -28.2854   -6.6357 O   0  0  0  0  0  0  0  0  0  0  0  0
   19.0429  -33.3418   -6.1215 O   0  0  0  0  0  0  0  0  0  0  0  0
   16.1039  -25.0557   -5.1676 C   0  0  0  0  0  0  0  0  0  0  0  0
   17.1817  -24.6815   -6.1494 C   0  0  1  0  0  0  0  0  0  0  0  0
   18.3579  -24.4533   -5.4380 O   0  0  0  0  0  0  0  0  0  0  0  0
   17.4639  -25.8830   -7.0611 C   0  0  2  0  0  0  0  0  0  0  0  0
   18.0936  -26.8807   -6.1898 N   0  0  0  0  0  0  0  0  0  0  0  0
   18.4867  -25.4796   -8.0594 C   0  0  0  0  0  0  0  0  0  0  0  0
   19.7141  -25.4079   -7.7389 O   0  0  0  0  0  0  0  0  0  0  0  0
   20.0840  -27.8702  -12.9203 N   0  0  0  0  0  0  0  0  0  0  0  0
   20.7972  -26.6780  -13.1777 C   0  0  0  0  0  0  0  0  0  0  0  0
   21.6394  -26.5779  -14.0837 O   0  0  0  0  0  0  0  0  0  0  0  0
   20.5167  -25.4867  -12.3126 C   0  0  0  0  0  0  0  0  0  0  0  0
   19.5552  -25.8729  -11.2427 C   0  0  0  0  0  0  0  0  0  0  0  0
   19.2081  -24.7377  -10.3436 C   0  0  2  0  0  0  0  0  0  0  0  0
   18.1701  -25.1601   -9.3863 N   0  0  0  0  0  0  0  0  0  0  0  0
   18.6828  -23.5971  -11.0964 C   0  0  0  0  0  0  0  0  0  0  0  0
   19.4156  -22.8589  -11.7940 O   0  0  0  0  0  0  0  0  0  0  0  0
   17.2926  -23.3332  -11.0220 O   0  0  0  0  0  0  0  0  0  0  0  0
  2  1  1  1
  3  2  1  0
  4  3  1  0
  5  6  2  0
  5  4  1  0
  7  2  1  0
  8  7  2  0
  9  5  1  0
 11 10  1  1
 11 12  1  0
 13 11  1  0
 13 14  1  1
 14  7  1  0
 15 13  1  0
 16 15  2  0
 18 20  1  0
 18 17  1  0
 19 18  2  0
 21 20  1  0
 22 21  1  6
 22 23  1  0
 23 15  1  0
 24 26  1  0
 24 22  1  0
 25 24  2  0
M  END
$$$$
