ETQ.pdb
     RDKit          3D

 26 25  0  0  1  0  0  0  0  0999 V2000
   17.4315  -10.7865  -16.6716 N   0  0  0  0  0  0  0  0  0  0  0  0
   17.4042  -10.7726  -15.2094 C   0  0  1  0  0  0  0  0  0  0  0  0
   17.1530  -12.1299  -14.6616 C   0  0  0  0  0  0  0  0  0  0  0  0
   16.2981  -12.9428  -15.5919 C   0  0  0  0  0  0  0  0  0  0  0  0
   16.0489  -14.3103  -15.0380 C   0  0  0  0  0  0  0  0  0  0  0  0
   16.9333  -15.1631  -15.1417 O   0  0  0  0  0  0  0  0  0  0  0  0
   18.6647  -10.2094  -14.6952 C   0  0  0  0  0  0  0  0  0  0  0  0
   19.0776  -10.3040  -13.5067 O   0  0  0  0  0  0  0  0  0  0  0  0
   14.8563  -14.5713  -14.4377 O   0  0  0  0  0  0  0  0  0  0  0  0
   22.8909   -7.9843  -15.8470 C   0  0  0  0  0  0  0  0  0  0  0  0
   21.6688   -8.7559  -16.2671 C   0  0  1  0  0  0  0  0  0  0  0  0
   22.0554  -10.0655  -16.5446 O   0  0  0  0  0  0  0  0  0  0  0  0
   20.7015   -8.8421  -15.0791 C   0  0  2  0  0  0  0  0  0  0  0  0
   19.5003   -9.4916  -15.6143 N   0  0  0  0  0  0  0  0  0  0  0  0
   20.3082   -7.4616  -14.6982 C   0  0  0  0  0  0  0  0  0  0  0  0
   19.4921   -6.7986  -15.4116 O   0  0  0  0  0  0  0  0  0  0  0  0
   18.0205   -5.8682   -9.7048 N   0  0  0  0  0  0  0  0  0  0  0  0
   18.1596   -4.5436  -10.1764 C   0  0  0  0  0  0  0  0  0  0  0  0
   17.6591   -3.5659   -9.5990 O   0  0  0  0  0  0  0  0  0  0  0  0
   18.9489   -4.3201  -11.4308 C   0  0  0  0  0  0  0  0  0  0  0  0
   19.4256   -5.6318  -11.9507 C   0  0  0  0  0  0  0  0  0  0  0  0
   20.3039   -5.4926  -13.1452 C   0  0  2  0  0  0  0  0  0  0  0  0
   20.8008   -6.8183  -13.5551 N   0  0  0  0  0  0  0  0  0  0  0  0
   21.4663   -4.6487  -12.8623 C   0  0  0  0  0  0  0  0  0  0  0  0
   22.5849   -5.1260  -12.5634 O   0  0  0  0  0  0  0  0  0  0  0  0
   21.3022   -3.2431  -12.9338 O   0  0  0  0  0  0  0  0  0  0  0  0
  2  1  1  6
  3  2  1  0
  4  3  1  0
  5  6  2  0
  5  4  1  0
  7  2  1  0
  8  7  2  0
  9  5  1  0
 11 10  1  1
 11 12  1  0
 13 11  1  0
 13 14  1  6
 14  7  1  0
 15 13  1  0
 16 15  2  0
 18 20  1  0
 18 17  1  0
 19 18  2  0
 21 20  1  0
 22 21  1  1
 22 23  1  0
 23 15  1  0
 24 26  1  0
 24 22  1  0
 25 24  2  0
M  END
$$$$
