ETQ.pdb
     RDKit          3D

 26 25  0  0  1  0  0  0  0  0999 V2000
   19.7343  -12.6103  -16.5204 N   0  0  0  0  0  0  0  0  0  0  0  0
   18.6892  -11.6225  -16.2540 C   0  0  1  0  0  0  0  0  0  0  0  0
   17.3577  -12.2673  -16.1246 C   0  0  0  0  0  0  0  0  0  0  0  0
   17.1900  -13.3756  -17.1250 C   0  0  0  0  0  0  0  0  0  0  0  0
   16.2820  -14.4427  -16.5998 C   0  0  0  0  0  0  0  0  0  0  0  0
   15.2862  -14.7518  -17.2579 O   0  0  0  0  0  0  0  0  0  0  0  0
   19.0328  -10.8502  -15.0474 C   0  0  0  0  0  0  0  0  0  0  0  0
   19.5040  -11.3308  -13.9802 O   0  0  0  0  0  0  0  0  0  0  0  0
   16.5817  -15.0386  -15.4141 O   0  0  0  0  0  0  0  0  0  0  0  0
   21.5418   -8.4868  -14.4882 C   0  0  0  0  0  0  0  0  0  0  0  0
   20.2674   -7.7061  -14.3094 C   0  0  1  0  0  0  0  0  0  0  0  0
   19.8830   -7.2101  -15.5535 O   0  0  0  0  0  0  0  0  0  0  0  0
   19.1526   -8.6658  -13.8727 C   0  0  2  0  0  0  0  0  0  0  0  0
   18.8180   -9.4320  -15.0777 N   0  0  0  0  0  0  0  0  0  0  0  0
   17.9528   -7.8604  -13.5302 C   0  0  0  0  0  0  0  0  0  0  0  0
   17.0832   -7.5827  -14.4140 O   0  0  0  0  0  0  0  0  0  0  0  0
   15.1927   -7.2966   -8.0974 N   0  0  0  0  0  0  0  0  0  0  0  0
   14.4689   -6.2967   -8.7850 C   0  0  0  0  0  0  0  0  0  0  0  0
   13.5165   -5.6840   -8.2776 O   0  0  0  0  0  0  0  0  0  0  0  0
   14.8776   -5.9689  -10.1892 C   0  0  0  0  0  0  0  0  0  0  0  0
   16.0585   -6.7963  -10.5623 C   0  0  0  0  0  0  0  0  0  0  0  0
   16.5334   -6.5295  -11.9482 C   0  0  2  0  0  0  0  0  0  0  0  0
   17.7099   -7.3676  -12.2413 N   0  0  0  0  0  0  0  0  0  0  0  0
   16.9285   -5.1304  -12.1210 C   0  0  0  0  0  0  0  0  0  0  0  0
   18.0944   -4.7303  -11.8995 O   0  0  0  0  0  0  0  0  0  0  0  0
   15.9436   -4.2090  -12.5554 O   0  0  0  0  0  0  0  0  0  0  0  0
  2  1  1  1
  3  2  1  0
  4  3  1  0
  5  6  2  0
  5  4  1  0
  7  2  1  0
  8  7  2  0
  9  5  1  0
 11 10  1  6
 11 12  1  0
 13 11  1  0
 13 14  1  6
 14  7  1  0
 15 13  1  0
 16 15  2  0
 18 20  1  0
 18 17  1  0
 19 18  2  0
 21 20  1  0
 22 21  1  1
 22 23  1  0
 23 15  1  0
 24 26  1  0
 24 22  1  0
 25 24  2  0
M  END
$$$$
