ETQ.pdb
     RDKit          3D

 26 25  0  0  1  0  0  0  0  0999 V2000
   20.1927  -20.4082  -11.4920 N   0  0  0  0  0  0  0  0  0  0  0  0
   21.2298  -21.2877  -12.0301 C   0  0  1  0  0  0  0  0  0  0  0  0
   20.7867  -21.9363  -13.2904 C   0  0  0  0  0  0  0  0  0  0  0  0
   19.2892  -21.9257  -13.4108 C   0  0  0  0  0  0  0  0  0  0  0  0
   18.6646  -22.8876  -12.4496 C   0  0  0  0  0  0  0  0  0  0  0  0
   18.0067  -22.4419  -11.5067 O   0  0  0  0  0  0  0  0  0  0  0  0
   22.4746  -20.5246  -12.2262 C   0  0  0  0  0  0  0  0  0  0  0  0
   22.5792  -19.2683  -12.1721 O   0  0  0  0  0  0  0  0  0  0  0  0
   18.8409  -24.2224  -12.6444 O   0  0  0  0  0  0  0  0  0  0  0  0
   25.4790  -20.8257  -10.2689 C   0  0  0  0  0  0  0  0  0  0  0  0
   25.9047  -21.1520  -11.6753 C   0  0  1  0  0  0  0  0  0  0  0  0
   25.7811  -22.5277  -11.8590 O   0  0  0  0  0  0  0  0  0  0  0  0
   24.9199  -20.5030  -12.6569 C   0  0  2  0  0  0  0  0  0  0  0  0
   23.6743  -21.2615  -12.5018 N   0  0  0  0  0  0  0  0  0  0  0  0
   25.4054  -20.7545  -14.0377 C   0  0  0  0  0  0  0  0  0  0  0  0
   24.8449  -21.6244  -14.7748 O   0  0  0  0  0  0  0  0  0  0  0  0
   27.6151  -16.5335  -17.7151 N   0  0  0  0  0  0  0  0  0  0  0  0
   28.7618  -17.3336  -17.5123 C   0  0  0  0  0  0  0  0  0  0  0  0
   29.9051  -16.9651  -17.8240 O   0  0  0  0  0  0  0  0  0  0  0  0
   28.5787  -18.6859  -16.8926 C   0  0  0  0  0  0  0  0  0  0  0  0
   27.1297  -18.9157  -16.6360 C   0  0  0  0  0  0  0  0  0  0  0  0
   26.8583  -20.2424  -16.0165 C   0  0  2  0  0  0  0  0  0  0  0  0
   26.4868  -20.0645  -14.6013 N   0  0  0  0  0  0  0  0  0  0  0  0
   28.0379  -21.1084  -16.0623 C   0  0  0  0  0  0  0  0  0  0  0  0
   28.6959  -21.4005  -15.0375 O   0  0  0  0  0  0  0  0  0  0  0  0
   28.4356  -21.6264  -17.3198 O   0  0  0  0  0  0  0  0  0  0  0  0
  2  1  1  6
  3  2  1  0
  4  3  1  0
  5  6  2  0
  5  4  1  0
  7  2  1  0
  8  7  2  0
  9  5  1  0
 11 10  1  1
 11 12  1  0
 13 11  1  0
 13 14  1  6
 14  7  1  0
 15 13  1  0
 16 15  2  0
 18 20  1  0
 18 17  1  0
 19 18  2  0
 21 20  1  0
 22 21  1  1
 22 23  1  0
 23 15  1  0
 24 26  1  0
 24 22  1  0
 25 24  2  0
M  END
$$$$
