MKY.pdb
     RDKit          3D

 30 30  0  0  1  0  0  0  0  0999 V2000
   24.6511  -20.3337  -17.0593 C   0  0  0  0  0  0  0  0  0  0  0  0
   25.9967  -21.0845  -16.0706 S   0  0  0  0  0  0  0  0  0  0  0  0
   26.0843  -22.8349  -16.5522 C   0  0  0  0  0  0  0  0  0  0  0  0
   24.6939  -23.3643  -16.6056 C   0  0  0  0  0  0  0  0  0  0  0  0
   24.2860  -23.9883  -15.2953 C   0  0  2  0  0  0  0  0  0  0  0  0
   25.1348  -25.1548  -15.0193 N   0  0  0  0  0  0  0  0  0  0  0  0
   22.8921  -24.4777  -15.3846 C   0  0  0  0  0  0  0  0  0  0  0  0
   21.9474  -23.7258  -15.7197 O   0  0  0  0  0  0  0  0  0  0  0  0
   22.5956  -25.8219  -15.0899 N   0  0  0  0  0  0  0  0  0  0  0  0
   21.2150  -26.2917  -15.2725 C   0  0  1  0  0  0  0  0  0  0  0  0
   21.2032  -27.6133  -15.9636 C   0  0  0  0  0  0  0  0  0  0  0  0
   19.8385  -28.1151  -16.2503 C   0  0  0  0  0  0  0  0  0  0  0  0
   19.8612  -29.4143  -17.0004 C   0  0  0  0  0  0  0  0  0  0  0  0
   18.4865  -29.9158  -17.3287 C   0  0  0  0  0  0  0  0  0  0  0  0
   18.5153  -31.0417  -18.2376 N   0  0  0  0  0  0  0  0  0  0  0  0
   20.6819  -26.4407  -13.8889 C   0  0  0  0  0  0  0  0  0  0  0  0
   21.1408  -27.3470  -13.1485 O   0  0  0  0  0  0  0  0  0  0  0  0
   17.4427  -24.8577   -5.9288 O   0  0  0  0  0  0  0  0  0  0  0  0
   17.9968  -24.8473   -7.2069 C   0  0  0  0  0  0  0  0  0  0  0  0
   19.0169  -25.7072   -7.5591 C   0  0  0  0  0  0  0  0  0  0  0  0
   19.5776  -25.7015   -8.8414 C   0  0  0  0  0  0  0  0  0  0  0  0
   19.1048  -24.8184   -9.7807 C   0  0  0  0  0  0  0  0  0  0  0  0
   19.6579  -24.7644  -11.1356 C   0  0  0  0  0  0  0  0  0  0  0  0
   19.1484  -25.8844  -12.0317 C   0  0  2  0  0  0  0  0  0  0  0  0
   19.6687  -25.6048  -13.3496 N   0  0  0  0  0  0  0  0  0  0  0  0
   17.6718  -25.9283  -12.1059 C   0  0  0  0  0  0  0  0  0  0  0  0
   16.9466  -26.7518  -11.2932 O   0  0  0  0  0  0  0  0  0  0  0  0
   18.0807  -23.9565   -9.4246 C   0  0  0  0  0  0  0  0  0  0  0  0
   17.5235  -23.9598   -8.1557 C   0  0  0  0  0  0  0  0  0  0  0  0
   17.0964  -25.1882  -12.9365 O   0  0  0  0  0  0  0  0  0  0  0  0
  1  2  1  0
  3  2  1  0
  4  5  1  0
  4  3  1  0
  5  6  1  6
  7  5  1  0
  8  7  2  0
  9  7  1  0
 10 11  1  1
 10  9  1  0
 11 12  1  0
 12 13  1  0
 13 14  1  0
 15 14  1  0
 16 25  1  0
 16 10  1  0
 17 16  2  0
 19 29  2  0
 19 18  1  0
 20 19  1  0
 21 22  1  0
 21 20  2  0
 22 28  2  0
 23 22  1  0
 24 23  1  1
 24 25  1  0
 26 24  1  0
 26 27  1  0
 28 29  1  0
 30 26  2  0
M  END
$$$$
