MKY.pdb
     RDKit          3D

 30 30  0  0  1  0  0  0  0  0999 V2000
   23.2426  -18.2785  -23.5342 C   0  0  0  0  0  0  0  0  0  0  0  0
   22.2477  -17.1750  -22.4643 S   0  0  0  0  0  0  0  0  0  0  0  0
   21.1843  -18.2477  -21.4533 C   0  0  0  0  0  0  0  0  0  0  0  0
   22.0655  -19.1488  -20.6611 C   0  0  0  0  0  0  0  0  0  0  0  0
   22.0998  -18.7547  -19.2064 C   0  0  2  0  0  0  0  0  0  0  0  0
   23.2082  -17.8192  -18.9750 N   0  0  0  0  0  0  0  0  0  0  0  0
   22.3573  -19.9476  -18.3690 C   0  0  0  0  0  0  0  0  0  0  0  0
   21.6116  -20.9540  -18.4045 O   0  0  0  0  0  0  0  0  0  0  0  0
   23.4652  -19.9751  -17.5010 N   0  0  0  0  0  0  0  0  0  0  0  0
   23.6977  -21.1845  -16.6989 C   0  0  1  0  0  0  0  0  0  0  0  0
   25.1362  -21.2870  -16.3187 C   0  0  0  0  0  0  0  0  0  0  0  0
   25.7362  -22.6045  -16.6361 C   0  0  0  0  0  0  0  0  0  0  0  0
   27.1720  -22.6882  -16.2085 C   0  0  0  0  0  0  0  0  0  0  0  0
   27.8643  -23.9054  -16.7453 C   0  0  0  0  0  0  0  0  0  0  0  0
   29.2542  -23.9671  -16.3465 N   0  0  0  0  0  0  0  0  0  0  0  0
   22.8653  -20.9923  -15.4780 C   0  0  0  0  0  0  0  0  0  0  0  0
   23.2558  -20.1951  -14.5880 O   0  0  0  0  0  0  0  0  0  0  0  0
   20.1807  -15.1842  -14.0402 O   0  0  0  0  0  0  0  0  0  0  0  0
   20.0572  -16.5714  -14.0731 C   0  0  0  0  0  0  0  0  0  0  0  0
   20.1636  -17.3336  -12.9277 C   0  0  0  0  0  0  0  0  0  0  0  0
   20.0406  -18.7275  -12.9545 C   0  0  0  0  0  0  0  0  0  0  0  0
   19.8076  -19.3615  -14.1501 C   0  0  0  0  0  0  0  0  0  0  0  0
   19.6761  -20.8174  -14.2380 C   0  0  0  0  0  0  0  0  0  0  0  0
   20.9840  -21.5503  -13.9748 C   0  0  2  0  0  0  0  0  0  0  0  0
   21.6365  -21.6689  -15.2576 N   0  0  0  0  0  0  0  0  0  0  0  0
   20.7764  -22.9068  -13.4227 C   0  0  0  0  0  0  0  0  0  0  0  0
   21.2176  -24.0158  -14.0858 O   0  0  0  0  0  0  0  0  0  0  0  0
   19.7011  -18.5941  -15.2981 C   0  0  0  0  0  0  0  0  0  0  0  0
   19.8224  -17.2137  -15.2748 C   0  0  0  0  0  0  0  0  0  0  0  0
   20.1827  -23.0170  -12.3255 O   0  0  0  0  0  0  0  0  0  0  0  0
  1  2  1  0
  3  2  1  0
  4  5  1  0
  4  3  1  0
  5  6  1  6
  7  5  1  0
  8  7  2  0
  9  7  1  0
 10 11  1  1
 10  9  1  0
 11 12  1  0
 12 13  1  0
 13 14  1  0
 15 14  1  0
 16 25  1  0
 16 10  1  0
 17 16  2  0
 19 29  2  0
 19 18  1  0
 20 19  1  0
 21 22  1  0
 21 20  2  0
 22 28  2  0
 23 22  1  0
 24 23  1  6
 24 25  1  0
 26 24  1  0
 26 27  1  0
 28 29  1  0
 30 26  2  0
M  END
$$$$
