MKY.pdb
     RDKit          3D

 30 30  0  0  1  0  0  0  0  0999 V2000
   31.4678  -22.8381   -9.8166 C   0  0  0  0  0  0  0  0  0  0  0  0
   32.8718  -22.8631  -10.9914 S   0  0  0  0  0  0  0  0  0  0  0  0
   32.1682  -22.6283  -12.6508 C   0  0  0  0  0  0  0  0  0  0  0  0
   30.9725  -21.7512  -12.5202 C   0  0  0  0  0  0  0  0  0  0  0  0
   30.1758  -21.7034  -13.7991 C   0  0  2  0  0  0  0  0  0  0  0  0
   30.9803  -21.0802  -14.8582 N   0  0  0  0  0  0  0  0  0  0  0  0
   28.9757  -20.8577  -13.6118 C   0  0  0  0  0  0  0  0  0  0  0  0
   29.0356  -19.6068  -13.6500 O   0  0  0  0  0  0  0  0  0  0  0  0
   27.7209  -21.4535  -13.3831 N   0  0  0  0  0  0  0  0  0  0  0  0
   26.5401  -20.5844  -13.2812 C   0  0  1  0  0  0  0  0  0  0  0  0
   25.7140  -20.6831  -14.5190 C   0  0  0  0  0  0  0  0  0  0  0  0
   24.4691  -19.8811  -14.4610 C   0  0  0  0  0  0  0  0  0  0  0  0
   23.6419  -20.0330  -15.7036 C   0  0  0  0  0  0  0  0  0  0  0  0
   22.4626  -19.1070  -15.7290 C   0  0  0  0  0  0  0  0  0  0  0  0
   21.6117  -19.3329  -16.8777 N   0  0  0  0  0  0  0  0  0  0  0  0
   25.7761  -21.1218  -12.1201 C   0  0  0  0  0  0  0  0  0  0  0  0
   25.6606  -22.3662  -11.9843 O   0  0  0  0  0  0  0  0  0  0  0  0
   28.9833  -19.4053   -5.7546 O   0  0  0  0  0  0  0  0  0  0  0  0
   27.8426  -19.5299   -6.5444 C   0  0  0  0  0  0  0  0  0  0  0  0
   27.4134  -20.7578   -7.0050 C   0  0  0  0  0  0  0  0  0  0  0  0
   26.2682  -20.8893   -7.7989 C   0  0  0  0  0  0  0  0  0  0  0  0
   25.5465  -19.7698   -8.1329 C   0  0  0  0  0  0  0  0  0  0  0  0
   24.3441  -19.8476   -8.9653 C   0  0  0  0  0  0  0  0  0  0  0  0
   24.4396  -20.9095  -10.0516 C   0  0  2  0  0  0  0  0  0  0  0  0
   25.1606  -20.2964  -11.1424 N   0  0  0  0  0  0  0  0  0  0  0  0
   23.1137  -21.3415  -10.5449 C   0  0  0  0  0  0  0  0  0  0  0  0
   22.6850  -21.0160  -11.7998 O   0  0  0  0  0  0  0  0  0  0  0  0
   25.9795  -18.5387   -7.6692 C   0  0  0  0  0  0  0  0  0  0  0  0
   27.1129  -18.4053   -6.8830 C   0  0  0  0  0  0  0  0  0  0  0  0
   22.3871  -22.0175   -9.7809 O   0  0  0  0  0  0  0  0  0  0  0  0
  1  2  1  0
  3  2  1  0
  4  5  1  0
  4  3  1  0
  5  6  1  6
  7  5  1  0
  8  7  2  0
  9  7  1  0
 10 11  1  6
 10  9  1  0
 11 12  1  0
 12 13  1  0
 13 14  1  0
 15 14  1  0
 16 25  1  0
 16 10  1  0
 17 16  2  0
 19 29  2  0
 19 18  1  0
 20 19  1  0
 21 22  1  0
 21 20  2  0
 22 28  2  0
 23 22  1  0
 24 23  1  1
 24 25  1  0
 26 24  1  0
 26 27  1  0
 28 29  1  0
 30 26  2  0
M  END
$$$$
