MKY.pdb
     RDKit          3D

 30 30  0  0  1  0  0  0  0  0999 V2000
   30.2939  -20.1042  -10.4139 C   0  0  0  0  0  0  0  0  0  0  0  0
   29.8671  -21.3078  -11.7259 S   0  0  0  0  0  0  0  0  0  0  0  0
   30.0050  -20.4254  -13.3089 C   0  0  0  0  0  0  0  0  0  0  0  0
   28.7824  -19.5926  -13.4758 C   0  0  0  0  0  0  0  0  0  0  0  0
   27.5830  -20.4319  -13.8360 C   0  0  2  0  0  0  0  0  0  0  0  0
   27.9086  -21.2910  -14.9819 N   0  0  0  0  0  0  0  0  0  0  0  0
   26.4650  -19.5567  -14.2540 C   0  0  0  0  0  0  0  0  0  0  0  0
   26.1384  -18.5415  -13.5963 O   0  0  0  0  0  0  0  0  0  0  0  0
   25.7342  -19.8533  -15.4200 N   0  0  0  0  0  0  0  0  0  0  0  0
   24.5406  -19.0509  -15.7226 C   0  0  1  0  0  0  0  0  0  0  0  0
   24.5562  -18.6140  -17.1485 C   0  0  0  0  0  0  0  0  0  0  0  0
   23.3771  -17.8000  -17.5273 C   0  0  0  0  0  0  0  0  0  0  0  0
   23.4362  -17.3534  -18.9585 C   0  0  0  0  0  0  0  0  0  0  0  0
   22.2342  -16.5535  -19.3640 C   0  0  0  0  0  0  0  0  0  0  0  0
   22.3212  -16.0864  -20.7310 N   0  0  0  0  0  0  0  0  0  0  0  0
   23.3960  -19.9764  -15.4905 C   0  0  0  0  0  0  0  0  0  0  0  0
   23.2420  -20.9651  -16.2514 O   0  0  0  0  0  0  0  0  0  0  0  0
   25.2354  -20.4834   -8.3397 O   0  0  0  0  0  0  0  0  0  0  0  0
   24.7295  -20.8203   -9.5932 C   0  0  0  0  0  0  0  0  0  0  0  0
   25.5426  -21.3201  -10.5899 C   0  0  0  0  0  0  0  0  0  0  0  0
   25.0403  -21.6603  -11.8511 C   0  0  0  0  0  0  0  0  0  0  0  0
   23.7022  -21.4948  -12.1116 C   0  0  0  0  0  0  0  0  0  0  0  0
   23.1234  -21.8286  -13.4148 C   0  0  0  0  0  0  0  0  0  0  0  0
   21.9213  -20.9655  -13.7710 C   0  0  2  0  0  0  0  0  0  0  0  0
   22.4533  -19.8033  -14.4429 N   0  0  0  0  0  0  0  0  0  0  0  0
   21.1668  -20.5190  -12.5796 C   0  0  0  0  0  0  0  0  0  0  0  0
   20.4317  -21.3980  -11.8371 O   0  0  0  0  0  0  0  0  0  0  0  0
   22.8884  -20.9931  -11.1094 C   0  0  0  0  0  0  0  0  0  0  0  0
   23.3828  -20.6554   -9.8596 C   0  0  0  0  0  0  0  0  0  0  0  0
   21.2172  -19.3079  -12.2642 O   0  0  0  0  0  0  0  0  0  0  0  0
  1  2  1  0
  3  2  1  0
  4  5  1  0
  4  3  1  0
  5  6  1  6
  7  5  1  0
  8  7  2  0
  9  7  1  0
 10 11  1  6
 10  9  1  0
 11 12  1  0
 12 13  1  0
 13 14  1  0
 15 14  1  0
 16 25  1  0
 16 10  1  0
 17 16  2  0
 19 29  2  0
 19 18  1  0
 20 19  1  0
 21 22  1  0
 21 20  2  0
 22 28  2  0
 23 22  1  0
 24 23  1  1
 24 25  1  0
 26 24  1  0
 26 27  1  0
 28 29  1  0
 30 26  2  0
M  END
$$$$
