MKY.pdb
     RDKit          3D

 30 30  0  0  1  0  0  0  0  0999 V2000
   25.7167  -14.1017  -16.5348 C   0  0  0  0  0  0  0  0  0  0  0  0
   27.0433  -14.8543  -15.5219 S   0  0  0  0  0  0  0  0  0  0  0  0
   27.6442  -16.3025  -16.4412 C   0  0  0  0  0  0  0  0  0  0  0  0
   26.5446  -17.3051  -16.4840 C   0  0  0  0  0  0  0  0  0  0  0  0
   26.9575  -18.5518  -17.2241 C   0  0  2  0  0  0  0  0  0  0  0  0
   27.1128  -18.2485  -18.6528 N   0  0  0  0  0  0  0  0  0  0  0  0
   25.8963  -19.5773  -17.1114 C   0  0  0  0  0  0  0  0  0  0  0  0
   24.8860  -19.5677  -17.8524 O   0  0  0  0  0  0  0  0  0  0  0  0
   26.0038  -20.6020  -16.1521 N   0  0  0  0  0  0  0  0  0  0  0  0
   24.9001  -21.5645  -16.0276 C   0  0  1  0  0  0  0  0  0  0  0  0
   25.4075  -22.8748  -15.5275 C   0  0  0  0  0  0  0  0  0  0  0  0
   26.2216  -23.6096  -16.5243 C   0  0  0  0  0  0  0  0  0  0  0  0
   26.7816  -24.8847  -15.9658 C   0  0  0  0  0  0  0  0  0  0  0  0
   27.6443  -25.6166  -16.9502 C   0  0  0  0  0  0  0  0  0  0  0  0
   28.2778  -26.7797  -16.3666 N   0  0  0  0  0  0  0  0  0  0  0  0
   23.9848  -20.9595  -15.0192 C   0  0  0  0  0  0  0  0  0  0  0  0
   24.4734  -20.3506  -14.0340 O   0  0  0  0  0  0  0  0  0  0  0  0
   20.5649  -16.4391  -18.9922 O   0  0  0  0  0  0  0  0  0  0  0  0
   20.9263  -17.0530  -17.7951 C   0  0  0  0  0  0  0  0  0  0  0  0
   19.9797  -17.4611  -16.8778 C   0  0  0  0  0  0  0  0  0  0  0  0
   20.3366  -18.0784  -15.6735 C   0  0  0  0  0  0  0  0  0  0  0  0
   21.6639  -18.2870  -15.3897 C   0  0  0  0  0  0  0  0  0  0  0  0
   22.0950  -18.9226  -14.1427 C   0  0  0  0  0  0  0  0  0  0  0  0
   21.7637  -20.4071  -14.0856 C   0  0  2  0  0  0  0  0  0  0  0  0
   22.5696  -21.0323  -15.1079 N   0  0  0  0  0  0  0  0  0  0  0  0
   20.3391  -20.6849  -14.3707 C   0  0  0  0  0  0  0  0  0  0  0  0
   19.3582  -20.3240  -13.4921 O   0  0  0  0  0  0  0  0  0  0  0  0
   22.6120  -17.8765  -16.3121 C   0  0  0  0  0  0  0  0  0  0  0  0
   22.2616  -17.2651  -17.5054 C   0  0  0  0  0  0  0  0  0  0  0  0
   20.0498  -21.2626  -15.4436 O   0  0  0  0  0  0  0  0  0  0  0  0
  1  2  1  0
  3  2  1  0
  4  5  1  0
  4  3  1  0
  5  6  1  6
  7  5  1  0
  8  7  2  0
  9  7  1  0
 10 11  1  1
 10  9  1  0
 11 12  1  0
 12 13  1  0
 13 14  1  0
 15 14  1  0
 16 25  1  0
 16 10  1  0
 17 16  2  0
 19 29  2  0
 19 18  1  0
 20 19  1  0
 21 22  1  0
 21 20  2  0
 22 28  2  0
 23 22  1  0
 24 23  1  6
 24 25  1  0
 26 24  1  0
 26 27  1  0
 28 29  1  0
 30 26  2  0
M  END
$$$$
