DWV.pdb
     RDKit          3D

 30 31  0  0  1  0  0  0  0  0999 V2000
   11.0972  -19.0117   20.9782 N   0  0  0  0  0  0  0  0  0  0  0  0
   11.8490  -17.8069   21.1879 C   0  0  1  0  0  0  0  0  0  0  0  0
   12.2233  -17.2153   19.8607 C   0  0  0  0  0  0  0  0  0  0  0  0
   13.0083  -18.1210   19.0009 C   0  0  0  0  0  0  0  0  0  0  0  0
   12.8811  -19.3653   19.1840 O   0  0  0  0  0  0  0  0  0  0  0  0
   11.2315  -16.8690   22.1272 C   0  0  0  0  0  0  0  0  0  0  0  0
   11.8363  -15.7912   22.3628 O   0  0  0  0  0  0  0  0  0  0  0  0
   13.8571  -17.6473   18.0255 O   0  0  0  0  0  0  0  0  0  0  0  0
   10.0045  -17.0724   22.7992 N   0  0  0  0  0  0  0  0  0  0  0  0
    9.4908  -16.1234   23.7614 C   0  0  1  0  0  0  0  0  0  0  0  0
    8.0253  -15.9404   23.6034 C   0  0  0  0  0  0  0  0  0  0  0  0
    7.6157  -14.5207   23.6926 C   0  0  0  0  0  0  0  0  0  0  0  0
    7.7202  -13.5995   22.6720 C   0  0  0  0  0  0  0  0  0  0  0  0
    7.2452  -12.3974   23.1027 N   0  0  0  0  0  0  0  0  0  0  0  0
    6.8345  -12.5084   24.3739 C   0  0  0  0  0  0  0  0  0  0  0  0
    6.2793  -11.6618   25.3135 C   0  0  0  0  0  0  0  0  0  0  0  0
    5.9601  -12.1000   26.5755 C   0  0  0  0  0  0  0  0  0  0  0  0
    6.1791  -13.4052   26.9630 C   0  0  0  0  0  0  0  0  0  0  0  0
    6.7365  -14.2577   26.0220 C   0  0  0  0  0  0  0  0  0  0  0  0
    7.0633  -13.8352   24.7505 C   0  0  0  0  0  0  0  0  0  0  0  0
    9.8809  -16.5932   25.1122 C   0  0  0  0  0  0  0  0  0  0  0  0
   10.1272  -17.8055   25.3296 O   0  0  0  0  0  0  0  0  0  0  0  0
    9.2232  -14.6547   29.0209 C   0  0  0  0  0  0  0  0  0  0  0  0
   10.6022  -14.9891   28.4961 C   0  0  2  0  0  0  0  0  0  0  0  0
   11.2037  -13.7412   27.9567 C   0  0  0  0  0  0  0  0  0  0  0  0
   10.5231  -16.1234   27.5216 C   0  0  2  0  0  0  0  0  0  0  0  0
   10.0010  -15.7184   26.2338 N   0  0  0  0  0  0  0  0  0  0  0  0
    9.8845  -17.3480   28.0391 C   0  0  0  0  0  0  0  0  0  0  0  0
   10.3954  -18.0776   29.1195 O   0  0  0  0  0  0  0  0  0  0  0  0
    8.8329  -17.8187   27.5401 O   0  0  0  0  0  0  0  0  0  0  0  0
  2  3  1  0
  2  1  1  6
  4  8  1  0
  4  3  1  0
  5  4  2  0
  6  2  1  0
  7  6  2  0
  9  6  1  0
 10  9  1  0
 11 12  1  0
 10 11  1  1
 12 13  2  0
 13 14  1  0
 15 14  1  0
 16 15  2  0
 17 16  1  0
 18 19  1  0
 18 17  2  0
 19 20  2  0
 20 12  1  0
 20 15  1  0
 21 10  1  0
 21 22  2  0
 24 26  1  0
 24 23  1  6
 25 24  1  0
 26 27  1  6
 27 21  1  0
 28 26  1  0
 29 28  1  0
 30 28  2  0
M  END
$$$$
