DWV.pdb
     RDKit          3D

 30 31  0  0  1  0  0  0  0  0999 V2000
   10.0157  -17.7547   20.7308 N   0  0  0  0  0  0  0  0  0  0  0  0
   10.8754  -16.7917   21.3585 C   0  0  1  0  0  0  0  0  0  0  0  0
   11.2725  -15.7489   20.3553 C   0  0  0  0  0  0  0  0  0  0  0  0
   11.9746  -16.2888   19.1758 C   0  0  0  0  0  0  0  0  0  0  0  0
   12.0603  -17.5451   19.0645 O   0  0  0  0  0  0  0  0  0  0  0  0
   10.3633  -16.2639   22.6244 C   0  0  0  0  0  0  0  0  0  0  0  0
   10.9320  -15.2527   23.1113 O   0  0  0  0  0  0  0  0  0  0  0  0
   12.5255  -15.4689   18.2162 O   0  0  0  0  0  0  0  0  0  0  0  0
    9.2764  -16.7979   23.3538 N   0  0  0  0  0  0  0  0  0  0  0  0
    8.8402  -16.2264   24.6081 C   0  0  1  0  0  0  0  0  0  0  0  0
    7.4681  -16.6781   24.9542 C   0  0  0  0  0  0  0  0  0  0  0  0
    6.5170  -15.5529   25.0968 C   0  0  0  0  0  0  0  0  0  0  0  0
    5.1439  -15.6740   25.1261 C   0  0  0  0  0  0  0  0  0  0  0  0
    4.5879  -14.4389   25.2735 N   0  0  0  0  0  0  0  0  0  0  0  0
    5.5585  -13.5168   25.3410 C   0  0  0  0  0  0  0  0  0  0  0  0
    5.6132  -12.1441   25.4844 C   0  0  0  0  0  0  0  0  0  0  0  0
    6.8109  -11.4727   25.5187 C   0  0  0  0  0  0  0  0  0  0  0  0
    8.0142  -12.1377   25.4117 C   0  0  0  0  0  0  0  0  0  0  0  0
    7.9628  -13.5160   25.2676 C   0  0  0  0  0  0  0  0  0  0  0  0
    6.7696  -14.2066   25.2310 C   0  0  0  0  0  0  0  0  0  0  0  0
    9.8489  -16.5728   25.6378 C   0  0  0  0  0  0  0  0  0  0  0  0
   10.8610  -17.2577   25.3475 O   0  0  0  0  0  0  0  0  0  0  0  0
   10.7833  -14.0667   28.7083 C   0  0  0  0  0  0  0  0  0  0  0  0
   10.6579  -15.5000   29.1761 C   0  0  2  0  0  0  0  0  0  0  0  0
   11.6753  -15.7285   30.2356 C   0  0  0  0  0  0  0  0  0  0  0  0
   10.7427  -16.4339   28.0084 C   0  0  2  0  0  0  0  0  0  0  0  0
    9.7411  -16.1600   27.0000 N   0  0  0  0  0  0  0  0  0  0  0  0
   10.8276  -17.8643   28.3576 C   0  0  0  0  0  0  0  0  0  0  0  0
   12.0095  -18.4748   28.7948 O   0  0  0  0  0  0  0  0  0  0  0  0
    9.8374  -18.6328   28.2848 O   0  0  0  0  0  0  0  0  0  0  0  0
  2  3  1  0
  2  1  1  6
  4  8  1  0
  4  3  1  0
  5  4  2  0
  6  2  1  0
  7  6  2  0
  9  6  1  0
 10  9  1  0
 11 12  1  0
 10 11  1  1
 12 13  2  0
 13 14  1  0
 15 14  1  0
 16 15  2  0
 17 16  1  0
 18 19  1  0
 18 17  2  0
 19 20  2  0
 20 12  1  0
 20 15  1  0
 21 10  1  0
 21 22  2  0
 24 26  1  0
 24 23  1  6
 25 24  1  0
 26 27  1  6
 27 21  1  0
 28 26  1  0
 29 28  1  0
 30 28  2  0
M  END
$$$$
