DWV.pdb
     RDKit          3D

 30 31  0  0  1  0  0  0  0  0999 V2000
   11.2419  -18.2702   20.7395 N   0  0  0  0  0  0  0  0  0  0  0  0
   11.8897  -17.0696   21.1861 C   0  0  1  0  0  0  0  0  0  0  0  0
   12.1762  -16.1888   20.0056 C   0  0  0  0  0  0  0  0  0  0  0  0
   13.2450  -16.6963   19.1248 C   0  0  0  0  0  0  0  0  0  0  0  0
   13.7237  -17.8389   19.3767 O   0  0  0  0  0  0  0  0  0  0  0  0
   11.2160  -16.4027   22.3019 C   0  0  0  0  0  0  0  0  0  0  0  0
   11.7187  -15.3343   22.7365 O   0  0  0  0  0  0  0  0  0  0  0  0
   13.7199  -15.9658   18.0584 O   0  0  0  0  0  0  0  0  0  0  0  0
   10.0402  -16.8605   22.9394 N   0  0  0  0  0  0  0  0  0  0  0  0
    9.4076  -16.1176   24.0062 C   0  0  1  0  0  0  0  0  0  0  0  0
    7.9519  -16.4057   24.0697 C   0  0  0  0  0  0  0  0  0  0  0  0
    7.1341  -15.1798   24.2099 C   0  0  0  0  0  0  0  0  0  0  0  0
    6.1169  -14.8034   23.3586 C   0  0  0  0  0  0  0  0  0  0  0  0
    5.5810  -13.6283   23.7925 N   0  0  0  0  0  0  0  0  0  0  0  0
    6.2193  -13.2281   24.9012 C   0  0  0  0  0  0  0  0  0  0  0  0
    6.1276  -12.1538   25.7645 C   0  0  0  0  0  0  0  0  0  0  0  0
    6.9601  -12.0316   26.8501 C   0  0  0  0  0  0  0  0  0  0  0  0
    7.9259  -12.9756   27.1285 C   0  0  0  0  0  0  0  0  0  0  0  0
    8.0207  -14.0555   26.2637 C   0  0  0  0  0  0  0  0  0  0  0  0
    7.1935  -14.1945   25.1690 C   0  0  0  0  0  0  0  0  0  0  0  0
   10.1238  -16.4353   25.2647 C   0  0  0  0  0  0  0  0  0  0  0  0
   10.8910  -17.4269   25.3400 O   0  0  0  0  0  0  0  0  0  0  0  0
   11.1305  -13.5187   28.0584 C   0  0  0  0  0  0  0  0  0  0  0  0
   10.6066  -14.8009   28.6671 C   0  0  2  0  0  0  0  0  0  0  0  0
   11.3241  -15.0279   29.9491 C   0  0  0  0  0  0  0  0  0  0  0  0
   10.7102  -15.9218   27.6793 C   0  0  2  0  0  0  0  0  0  0  0  0
    9.9933  -15.6524   26.4511 N   0  0  0  0  0  0  0  0  0  0  0  0
   10.4282  -17.2628   28.2247 C   0  0  0  0  0  0  0  0  0  0  0  0
    9.3084  -18.0177   27.8545 O   0  0  0  0  0  0  0  0  0  0  0  0
   11.1803  -17.8184   29.0626 O   0  0  0  0  0  0  0  0  0  0  0  0
  2  3  1  0
  2  1  1  6
  4  8  1  0
  4  3  1  0
  5  4  2  0
  6  2  1  0
  7  6  2  0
  9  6  1  0
 10  9  1  0
 11 12  1  0
 10 11  1  1
 12 13  2  0
 13 14  1  0
 15 14  1  0
 16 15  2  0
 17 16  1  0
 18 19  1  0
 18 17  2  0
 19 20  2  0
 20 12  1  0
 20 15  1  0
 21 10  1  0
 21 22  2  0
 24 26  1  0
 24 23  1  6
 25 24  1  0
 26 27  1  6
 27 21  1  0
 28 26  1  0
 29 28  1  0
 30 28  2  0
M  END
$$$$
