DWV.pdb
     RDKit          3D

 30 31  0  0  1  0  0  0  0  0999 V2000
   12.1472  -16.3965   19.7738 N   0  0  0  0  0  0  0  0  0  0  0  0
   12.0599  -17.0688   21.0391 C   0  0  1  0  0  0  0  0  0  0  0  0
   13.4330  -17.4851   21.4784 C   0  0  0  0  0  0  0  0  0  0  0  0
   14.1550  -18.3072   20.4892 C   0  0  0  0  0  0  0  0  0  0  0  0
   13.6704  -19.4373   20.1956 O   0  0  0  0  0  0  0  0  0  0  0  0
   11.2827  -16.3490   22.0497 C   0  0  0  0  0  0  0  0  0  0  0  0
   11.5898  -15.1512   22.2825 O   0  0  0  0  0  0  0  0  0  0  0  0
   15.3196  -17.8767   19.8936 O   0  0  0  0  0  0  0  0  0  0  0  0
   10.2087  -16.8888   22.7938 N   0  0  0  0  0  0  0  0  0  0  0  0
    9.4968  -16.1136   23.7850 C   0  0  1  0  0  0  0  0  0  0  0  0
    8.0280  -16.2860   23.6461 C   0  0  0  0  0  0  0  0  0  0  0  0
    7.2648  -15.4824   24.6275 C   0  0  0  0  0  0  0  0  0  0  0  0
    6.4734  -15.9992   25.6313 C   0  0  0  0  0  0  0  0  0  0  0  0
    5.9289  -14.9745   26.3453 N   0  0  0  0  0  0  0  0  0  0  0  0
    6.3423  -13.8055   25.8360 C   0  0  0  0  0  0  0  0  0  0  0  0
    6.1353  -12.4705   26.1237 C   0  0  0  0  0  0  0  0  0  0  0  0
    6.7271  -11.4761   25.3838 C   0  0  0  0  0  0  0  0  0  0  0  0
    7.5552  -11.7643   24.3195 C   0  0  0  0  0  0  0  0  0  0  0  0
    7.7651  -13.1037   24.0279 C   0  0  0  0  0  0  0  0  0  0  0  0
    7.1793  -14.1152   24.7598 C   0  0  0  0  0  0  0  0  0  0  0  0
   10.0097  -16.5057   25.1195 C   0  0  0  0  0  0  0  0  0  0  0  0
   10.3832  -17.6827   25.3489 O   0  0  0  0  0  0  0  0  0  0  0  0
    9.3417  -14.3722   28.9416 C   0  0  0  0  0  0  0  0  0  0  0  0
   10.7120  -14.7776   28.4447 C   0  0  2  0  0  0  0  0  0  0  0  0
   11.3593  -13.5779   27.8517 C   0  0  0  0  0  0  0  0  0  0  0  0
   10.6008  -15.9539   27.5245 C   0  0  2  0  0  0  0  0  0  0  0  0
   10.1123  -15.5916   26.2111 N   0  0  0  0  0  0  0  0  0  0  0  0
    9.9071  -17.1260   28.0903 C   0  0  0  0  0  0  0  0  0  0  0  0
   10.3996  -17.8513   29.1822 O   0  0  0  0  0  0  0  0  0  0  0  0
    8.8215  -17.5523   27.6255 O   0  0  0  0  0  0  0  0  0  0  0  0
  2  3  1  0
  2  1  1  6
  4  8  1  0
  4  3  1  0
  5  4  2  0
  6  2  1  0
  7  6  2  0
  9  6  1  0
 10  9  1  0
 11 12  1  0
 10 11  1  1
 12 13  2  0
 13 14  1  0
 15 14  1  0
 16 15  2  0
 17 16  1  0
 18 19  1  0
 18 17  2  0
 19 20  2  0
 20 12  1  0
 20 15  1  0
 21 10  1  0
 21 22  2  0
 24 26  1  0
 24 23  1  6
 25 24  1  0
 26 27  1  6
 27 21  1  0
 28 26  1  0
 29 28  1  0
 30 28  2  0
M  END
$$$$
