DWV.pdb
     RDKit          3D

 30 31  0  0  1  0  0  0  0  0999 V2000
   10.7074  -16.7586   20.3430 N   0  0  0  0  0  0  0  0  0  0  0  0
   11.5406  -17.0399   21.4775 C   0  0  1  0  0  0  0  0  0  0  0  0
   12.9778  -16.8179   21.1081 C   0  0  0  0  0  0  0  0  0  0  0  0
   13.4317  -17.6214   19.9574 C   0  0  0  0  0  0  0  0  0  0  0  0
   12.9222  -18.7678   19.8011 O   0  0  0  0  0  0  0  0  0  0  0  0
   11.1146  -16.3816   22.7139 C   0  0  0  0  0  0  0  0  0  0  0  0
   11.8531  -15.4762   23.1808 O   0  0  0  0  0  0  0  0  0  0  0  0
   14.3778  -17.1570   19.0711 O   0  0  0  0  0  0  0  0  0  0  0  0
    9.9358  -16.6790   23.4353 N   0  0  0  0  0  0  0  0  0  0  0  0
    9.6865  -16.1390   24.7530 C   0  0  1  0  0  0  0  0  0  0  0  0
    8.3001  -16.4320   25.1985 C   0  0  0  0  0  0  0  0  0  0  0  0
    7.3375  -15.3836   24.7919 C   0  0  0  0  0  0  0  0  0  0  0  0
    6.4317  -15.4964   23.7585 C   0  0  0  0  0  0  0  0  0  0  0  0
    5.7049  -14.3473   23.6720 N   0  0  0  0  0  0  0  0  0  0  0  0
    6.1107  -13.4893   24.6185 C   0  0  0  0  0  0  0  0  0  0  0  0
    5.7631  -12.2121   25.0133 C   0  0  0  0  0  0  0  0  0  0  0  0
    6.3945  -11.5873   26.0609 C   0  0  0  0  0  0  0  0  0  0  0  0
    7.4044  -12.2060   26.7672 C   0  0  0  0  0  0  0  0  0  0  0  0
    7.7558  -13.4883   26.3733 C   0  0  0  0  0  0  0  0  0  0  0  0
    7.1331  -14.1309   25.3240 C   0  0  0  0  0  0  0  0  0  0  0  0
   10.7223  -16.6784   25.6660 C   0  0  0  0  0  0  0  0  0  0  0  0
   11.9445  -16.5177   25.4250 O   0  0  0  0  0  0  0  0  0  0  0  0
   10.9584  -14.6082   27.5573 C   0  0  0  0  0  0  0  0  0  0  0  0
   10.3666  -15.6077   28.5268 C   0  0  2  0  0  0  0  0  0  0  0  0
   10.7016  -15.1644   29.9056 C   0  0  0  0  0  0  0  0  0  0  0  0
   10.8199  -16.9927   28.1819 C   0  0  2  0  0  0  0  0  0  0  0  0
   10.4081  -17.4016   26.8559 N   0  0  0  0  0  0  0  0  0  0  0  0
   10.5419  -18.0146   29.2084 C   0  0  0  0  0  0  0  0  0  0  0  0
   11.5256  -18.5240   30.0649 O   0  0  0  0  0  0  0  0  0  0  0  0
    9.3959  -18.4973   29.3818 O   0  0  0  0  0  0  0  0  0  0  0  0
  2  3  1  0
  2  1  1  6
  4  8  1  0
  4  3  1  0
  5  4  2  0
  6  2  1  0
  7  6  2  0
  9  6  1  0
 10  9  1  0
 11 12  1  0
 10 11  1  1
 12 13  2  0
 13 14  1  0
 15 14  1  0
 16 15  2  0
 17 16  1  0
 18 19  1  0
 18 17  2  0
 19 20  2  0
 20 12  1  0
 20 15  1  0
 21 10  1  0
 21 22  2  0
 24 26  1  0
 24 23  1  6
 25 24  1  0
 26 27  1  6
 27 21  1  0
 28 26  1  0
 29 28  1  0
 30 28  2  0
M  END
$$$$
