DWV.pdb
     RDKit          3D

 30 31  0  0  1  0  0  0  0  0999 V2000
   10.7987  -16.5883   19.3469 N   0  0  0  0  0  0  0  0  0  0  0  0
   11.2187  -17.0397   20.6431 C   0  0  1  0  0  0  0  0  0  0  0  0
   12.7179  -17.0532   20.7049 C   0  0  0  0  0  0  0  0  0  0  0  0
   13.3603  -17.6779   19.5332 C   0  0  0  0  0  0  0  0  0  0  0  0
   13.2779  -18.9339   19.4155 O   0  0  0  0  0  0  0  0  0  0  0  0
   10.5633  -16.3555   21.7592 C   0  0  0  0  0  0  0  0  0  0  0  0
   10.6076  -15.0983   21.7839 O   0  0  0  0  0  0  0  0  0  0  0  0
   14.0323  -16.9358   18.5876 O   0  0  0  0  0  0  0  0  0  0  0  0
    9.8804  -16.9911   22.8214 N   0  0  0  0  0  0  0  0  0  0  0  0
    9.2540  -16.2418   23.8874 C   0  0  1  0  0  0  0  0  0  0  0  0
    7.8539  -16.6877   24.1046 C   0  0  0  0  0  0  0  0  0  0  0  0
    7.0736  -15.7349   24.9260 C   0  0  0  0  0  0  0  0  0  0  0  0
    5.9361  -16.0491   25.6390 C   0  0  0  0  0  0  0  0  0  0  0  0
    5.4867  -14.9341   26.2802 N   0  0  0  0  0  0  0  0  0  0  0  0
    6.2980  -13.9029   26.0057 C   0  0  0  0  0  0  0  0  0  0  0  0
    6.3553  -12.5672   26.3529 C   0  0  0  0  0  0  0  0  0  0  0  0
    7.3524  -11.7460   25.8864 C   0  0  0  0  0  0  0  0  0  0  0  0
    8.3426  -12.2167   25.0500 C   0  0  0  0  0  0  0  0  0  0  0  0
    8.2880  -13.5572   24.6994 C   0  0  0  0  0  0  0  0  0  0  0  0
    7.2943  -14.3964   25.1581 C   0  0  0  0  0  0  0  0  0  0  0  0
   10.1055  -16.3740   25.0937 C   0  0  0  0  0  0  0  0  0  0  0  0
   10.9548  -17.2945   25.1885 O   0  0  0  0  0  0  0  0  0  0  0  0
    9.3461  -14.4923   29.0737 C   0  0  0  0  0  0  0  0  0  0  0  0
   10.6665  -14.4554   28.3359 C   0  0  2  0  0  0  0  0  0  0  0  0
   10.7801  -13.1347   27.6629 C   0  0  0  0  0  0  0  0  0  0  0  0
   10.7830  -15.6390   27.4258 C   0  0  2  0  0  0  0  0  0  0  0  0
   10.0202  -15.4830   26.2057 N   0  0  0  0  0  0  0  0  0  0  0  0
   10.5683  -16.9472   28.0722 C   0  0  0  0  0  0  0  0  0  0  0  0
   11.3901  -17.4381   29.0942 O   0  0  0  0  0  0  0  0  0  0  0  0
    9.6272  -17.7111   27.7449 O   0  0  0  0  0  0  0  0  0  0  0  0
  2  3  1  0
  2  1  1  6
  4  8  1  0
  4  3  1  0
  5  4  2  0
  6  2  1  0
  7  6  2  0
  9  6  1  0
 10  9  1  0
 11 12  1  0
 10 11  1  1
 12 13  2  0
 13 14  1  0
 15 14  1  0
 16 15  2  0
 17 16  1  0
 18 19  1  0
 18 17  2  0
 19 20  2  0
 20 12  1  0
 20 15  1  0
 21 10  1  0
 21 22  2  0
 24 26  1  0
 24 23  1  6
 25 24  1  0
 26 27  1  6
 27 21  1  0
 28 26  1  0
 29 28  1  0
 30 28  2  0
M  END
$$$$
