DWV.pdb
     RDKit          3D

 30 31  0  0  1  0  0  0  0  0999 V2000
    9.5020  -17.6581   19.0337 N   0  0  0  0  0  0  0  0  0  0  0  0
    9.3163  -18.3935   20.2525 C   0  0  1  0  0  0  0  0  0  0  0  0
   10.0340  -19.7077   20.1562 C   0  0  0  0  0  0  0  0  0  0  0  0
    9.7293  -20.4684   18.9297 C   0  0  0  0  0  0  0  0  0  0  0  0
   10.7001  -20.9452   18.2751 O   0  0  0  0  0  0  0  0  0  0  0  0
    9.5991  -17.6258   21.4666 C   0  0  0  0  0  0  0  0  0  0  0  0
   10.7604  -17.6932   21.9460 O   0  0  0  0  0  0  0  0  0  0  0  0
    8.4375  -20.6641   18.4947 O   0  0  0  0  0  0  0  0  0  0  0  0
    8.6715  -16.8094   22.1533 N   0  0  0  0  0  0  0  0  0  0  0  0
    9.0300  -16.0805   23.3492 C   0  0  1  0  0  0  0  0  0  0  0  0
    8.0926  -14.9539   23.5911 C   0  0  0  0  0  0  0  0  0  0  0  0
    8.3610  -14.2536   24.8674 C   0  0  0  0  0  0  0  0  0  0  0  0
    9.5995  -14.1343   25.4613 C   0  0  0  0  0  0  0  0  0  0  0  0
    9.4756  -13.4250   26.6179 N   0  0  0  0  0  0  0  0  0  0  0  0
    8.1928  -13.0788   26.7949 C   0  0  0  0  0  0  0  0  0  0  0  0
    7.4773  -12.3792   27.7470 C   0  0  0  0  0  0  0  0  0  0  0  0
    6.1215  -12.1918   27.6325 C   0  0  0  0  0  0  0  0  0  0  0  0
    5.4117  -12.6933   26.5618 C   0  0  0  0  0  0  0  0  0  0  0  0
    6.1271  -13.3962   25.6041 C   0  0  0  0  0  0  0  0  0  0  0  0
    7.4883  -13.5941   25.7027 C   0  0  0  0  0  0  0  0  0  0  0  0
    9.0843  -17.0493   24.4700 C   0  0  0  0  0  0  0  0  0  0  0  0
    8.1046  -17.7899   24.7331 O   0  0  0  0  0  0  0  0  0  0  0  0
   12.7659  -18.3748   26.3576 C   0  0  0  0  0  0  0  0  0  0  0  0
   11.4470  -19.1089   26.2555 C   0  0  2  0  0  0  0  0  0  0  0  0
   11.4506  -19.8864   24.9884 C   0  0  0  0  0  0  0  0  0  0  0  0
   10.3080  -18.1478   26.4023 C   0  0  2  0  0  0  0  0  0  0  0  0
   10.2293  -17.2033   25.3084 N   0  0  0  0  0  0  0  0  0  0  0  0
   10.2015  -17.5029   27.7245 C   0  0  0  0  0  0  0  0  0  0  0  0
   10.0195  -18.2217   28.9123 O   0  0  0  0  0  0  0  0  0  0  0  0
   10.2679  -16.2577   27.8711 O   0  0  0  0  0  0  0  0  0  0  0  0
  2  3  1  0
  2  1  1  6
  4  8  1  0
  4  3  1  0
  5  4  2  0
  6  2  1  0
  7  6  2  0
  9  6  1  0
 10  9  1  0
 11 12  1  0
 10 11  1  1
 12 13  2  0
 13 14  1  0
 15 14  1  0
 16 15  2  0
 17 16  1  0
 18 19  1  0
 18 17  2  0
 19 20  2  0
 20 12  1  0
 20 15  1  0
 21 10  1  0
 21 22  2  0
 24 26  1  0
 24 23  1  6
 25 24  1  0
 26 27  1  6
 27 21  1  0
 28 26  1  0
 29 28  1  0
 30 28  2  0
M  END
$$$$
