DWV.pdb
     RDKit          3D

 30 31  0  0  1  0  0  0  0  0999 V2000
    9.1747  -17.5914   21.1770 N   0  0  0  0  0  0  0  0  0  0  0  0
   10.4051  -17.0953   21.7253 C   0  0  1  0  0  0  0  0  0  0  0  0
   10.9365  -16.0003   20.8478 C   0  0  0  0  0  0  0  0  0  0  0  0
   11.5811  -16.4826   19.6118 C   0  0  0  0  0  0  0  0  0  0  0  0
   11.5975  -17.7293   19.4032 O   0  0  0  0  0  0  0  0  0  0  0  0
   10.3378  -16.7639   23.1498 C   0  0  0  0  0  0  0  0  0  0  0  0
   11.2522  -16.0443   23.6284 O   0  0  0  0  0  0  0  0  0  0  0  0
   12.1518  -15.6203   18.7024 O   0  0  0  0  0  0  0  0  0  0  0  0
    9.3261  -17.1876   24.0417 N   0  0  0  0  0  0  0  0  0  0  0  0
    9.2429  -16.6928   25.3975 C   0  0  1  0  0  0  0  0  0  0  0  0
    7.8563  -16.7935   25.9204 C   0  0  0  0  0  0  0  0  0  0  0  0
    6.9735  -15.7234   25.4039 C   0  0  0  0  0  0  0  0  0  0  0  0
    5.8770  -15.9227   24.5921 C   0  0  0  0  0  0  0  0  0  0  0  0
    5.2988  -14.7203   24.3165 N   0  0  0  0  0  0  0  0  0  0  0  0
    5.9865  -13.7435   24.9247 C   0  0  0  0  0  0  0  0  0  0  0  0
    5.8870  -12.3687   25.0136 C   0  0  0  0  0  0  0  0  0  0  0  0
    6.7842  -11.6295   25.7451 C   0  0  0  0  0  0  0  0  0  0  0  0
    7.8257  -12.2254   26.4246 C   0  0  0  0  0  0  0  0  0  0  0  0
    7.9284  -13.6056   26.3374 C   0  0  0  0  0  0  0  0  0  0  0  0
    7.0370  -14.3637   25.6077 C   0  0  0  0  0  0  0  0  0  0  0  0
   10.2325  -17.4377   26.2121 C   0  0  0  0  0  0  0  0  0  0  0  0
   10.7872  -18.4735   25.7685 O   0  0  0  0  0  0  0  0  0  0  0  0
   12.9046  -15.8163   28.9422 C   0  0  0  0  0  0  0  0  0  0  0  0
   12.0832  -16.9629   29.4895 C   0  0  2  0  0  0  0  0  0  0  0  0
   12.9281  -17.7138   30.4549 C   0  0  0  0  0  0  0  0  0  0  0  0
   11.5281  -17.7831   28.3662 C   0  0  2  0  0  0  0  0  0  0  0  0
   10.6143  -17.0368   27.5279 N   0  0  0  0  0  0  0  0  0  0  0  0
   10.9977  -19.1021   28.7588 C   0  0  0  0  0  0  0  0  0  0  0  0
    9.6481  -19.4520   28.6288 O   0  0  0  0  0  0  0  0  0  0  0  0
   11.7282  -20.0034   29.2388 O   0  0  0  0  0  0  0  0  0  0  0  0
  2  3  1  0
  2  1  1  6
  4  8  1  0
  4  3  1  0
  5  4  2  0
  6  2  1  0
  7  6  2  0
  9  6  1  0
 10  9  1  0
 11 12  1  0
 10 11  1  1
 12 13  2  0
 13 14  1  0
 15 14  1  0
 16 15  2  0
 17 16  1  0
 18 19  1  0
 18 17  2  0
 19 20  2  0
 20 12  1  0
 20 15  1  0
 21 10  1  0
 21 22  2  0
 24 26  1  0
 24 23  1  6
 25 24  1  0
 26 27  1  1
 27 21  1  0
 28 26  1  0
 29 28  1  0
 30 28  2  0
M  END
$$$$
