SII.pdb
     RDKit          3D

 23 22  0  0  1  0  0  0  0  0999 V2000
   29.4699  -21.1829  -16.1531 O   0  0  0  0  0  0  0  0  0  0  0  0
   28.6845  -21.8162  -15.2162 C   0  0  0  0  0  0  0  0  0  0  0  0
   27.2152  -21.5928  -15.5797 C   0  0  2  0  0  0  0  0  0  0  0  0
   27.1060  -20.8222  -16.8012 N   0  0  0  0  0  0  0  0  0  0  0  0
   26.5543  -20.8449  -14.4927 C   0  0  0  0  0  0  0  0  0  0  0  0
   26.7175  -19.6100  -14.3956 O   0  0  0  0  0  0  0  0  0  0  0  0
   21.9166  -19.9291  -14.9515 C   0  0  0  0  0  0  0  0  0  0  0  0
   23.3571  -19.9488  -14.5208 C   0  0  0  0  0  0  0  0  0  0  0  0
   23.4530  -20.6867  -13.2026 C   0  0  2  0  0  0  0  0  0  0  0  0
   22.6250  -19.9380  -12.1844 C   0  0  0  0  0  0  0  0  0  0  0  0
   24.8810  -20.7003  -12.6840 C   0  0  2  0  0  0  0  0  0  0  0  0
   25.7228  -21.4979  -13.5353 N   0  0  0  0  0  0  0  0  0  0  0  0
   24.9428  -21.2170  -11.3002 C   0  0  0  0  0  0  0  0  0  0  0  0
   24.7032  -22.4269  -11.0644 O   0  0  0  0  0  0  0  0  0  0  0  0
   28.5036  -19.1751   -7.6616 C   0  0  0  0  0  0  0  0  0  0  0  0
   27.6031  -20.0823   -8.4852 C   0  0  0  0  0  0  0  0  0  0  0  0
   26.1819  -20.0249   -8.0225 C   0  0  2  0  0  0  0  0  0  0  0  0
   26.0566  -20.2664   -6.5342 C   0  0  0  0  0  0  0  0  0  0  0  0
   25.2537  -20.8574   -8.8315 C   0  0  2  0  0  0  0  0  0  0  0  0
   25.2713  -20.3639  -10.2200 N   0  0  0  0  0  0  0  0  0  0  0  0
   23.8774  -20.9602   -8.3562 C   0  0  0  0  0  0  0  0  0  0  0  0
   23.5138  -21.9487   -7.4645 O   0  0  0  0  0  0  0  0  0  0  0  0
   22.9817  -20.1648   -8.7354 O   0  0  0  0  0  0  0  0  0  0  0  0
  2  1  1  0
  3  4  1  6
  3  2  1  0
  5  3  1  0
  6  5  2  0
  8  9  1  0
  8  7  1  0
  9 11  1  0
  9 10  1  1
 11 13  1  0
 11 12  1  6
 12  5  1  0
 13 20  1  0
 14 13  2  0
 15 16  1  0
 17 19  1  0
 17 16  1  0
 17 18  1  1
 19 21  1  0
 19 20  1  6
 21 23  2  0
 21 22  1  0
M  END
$$$$
