SII.pdb
     RDKit          3D

 23 22  0  0  1  0  0  0  0  0999 V2000
   28.1270  -22.3071  -14.4231 O   0  0  0  0  0  0  0  0  0  0  0  0
   26.9759  -21.5975  -14.6827 C   0  0  0  0  0  0  0  0  0  0  0  0
   27.2182  -20.1285  -14.3302 C   0  0  2  0  0  0  0  0  0  0  0  0
   28.5666  -19.7370  -14.6854 N   0  0  0  0  0  0  0  0  0  0  0  0
   27.0434  -19.9428  -12.8766 C   0  0  0  0  0  0  0  0  0  0  0  0
   27.6104  -18.9928  -12.2960 O   0  0  0  0  0  0  0  0  0  0  0  0
   22.8678  -20.4825  -13.3803 C   0  0  0  0  0  0  0  0  0  0  0  0
   23.4371  -19.6264  -12.2832 C   0  0  0  0  0  0  0  0  0  0  0  0
   23.9923  -20.5340  -11.2065 C   0  0  2  0  0  0  0  0  0  0  0  0
   23.3095  -20.1885   -9.9036 C   0  0  0  0  0  0  0  0  0  0  0  0
   25.4787  -20.2959  -11.0008 C   0  0  2  0  0  0  0  0  0  0  0  0
   26.2353  -20.8273  -12.1027 N   0  0  0  0  0  0  0  0  0  0  0  0
   25.9481  -20.9037   -9.7374 C   0  0  0  0  0  0  0  0  0  0  0  0
   26.0245  -22.1520   -9.6251 O   0  0  0  0  0  0  0  0  0  0  0  0
   29.2294  -19.2284   -4.7924 C   0  0  0  0  0  0  0  0  0  0  0  0
   28.3904  -20.2830   -5.4968 C   0  0  0  0  0  0  0  0  0  0  0  0
   27.7398  -19.7439   -6.7311 C   0  0  2  0  0  0  0  0  0  0  0  0
   27.1318  -18.3771   -6.5046 C   0  0  0  0  0  0  0  0  0  0  0  0
   26.8070  -20.6995   -7.3835 C   0  0  2  0  0  0  0  0  0  0  0  0
   26.3186  -20.0960   -8.6362 N   0  0  0  0  0  0  0  0  0  0  0  0
   25.6798  -21.1693   -6.5838 C   0  0  0  0  0  0  0  0  0  0  0  0
   25.8687  -22.0977   -5.5803 O   0  0  0  0  0  0  0  0  0  0  0  0
   24.5096  -20.7538   -6.7751 O   0  0  0  0  0  0  0  0  0  0  0  0
  2  1  1  0
  3  4  1  1
  3  2  1  0
  5  3  1  0
  6  5  2  0
  8  9  1  0
  8  7  1  0
  9 11  1  0
  9 10  1  1
 11 13  1  0
 11 12  1  6
 12  5  1  0
 13 20  1  0
 14 13  2  0
 15 16  1  0
 17 19  1  0
 17 16  1  0
 17 18  1  1
 19 21  1  0
 19 20  1  6
 21 23  2  0
 21 22  1  0
M  END
$$$$
