SII.pdb
     RDKit          3D

 23 22  0  0  1  0  0  0  0  0999 V2000
   29.1649  -21.8551  -14.8808 O   0  0  0  0  0  0  0  0  0  0  0  0
   28.0418  -22.1119  -15.6349 C   0  0  0  0  0  0  0  0  0  0  0  0
   27.1387  -20.8773  -15.6012 C   0  0  2  0  0  0  0  0  0  0  0  0
   27.7430  -19.7861  -16.3374 N   0  0  0  0  0  0  0  0  0  0  0  0
   26.9509  -20.4511  -14.2009 C   0  0  0  0  0  0  0  0  0  0  0  0
   27.3929  -19.3463  -13.8199 O   0  0  0  0  0  0  0  0  0  0  0  0
   22.0870  -20.2589  -14.0994 C   0  0  0  0  0  0  0  0  0  0  0  0
   23.5534  -20.0484  -13.8428 C   0  0  0  0  0  0  0  0  0  0  0  0
   23.9517  -20.8712  -12.6363 C   0  0  2  0  0  0  0  0  0  0  0  0
   23.1386  -20.3956  -11.4549 C   0  0  0  0  0  0  0  0  0  0  0  0
   25.4127  -20.6527  -12.2811 C   0  0  2  0  0  0  0  0  0  0  0  0
   26.2703  -21.2736  -13.2550 N   0  0  0  0  0  0  0  0  0  0  0  0
   25.7219  -21.1845  -10.9367 C   0  0  0  0  0  0  0  0  0  0  0  0
   25.6489  -22.4176  -10.7111 O   0  0  0  0  0  0  0  0  0  0  0  0
   28.8459  -19.5057   -5.9091 C   0  0  0  0  0  0  0  0  0  0  0  0
   27.8472  -20.4567   -6.5499 C   0  0  0  0  0  0  0  0  0  0  0  0
   27.3665  -19.9508   -7.8729 C   0  0  2  0  0  0  0  0  0  0  0  0
   26.9112  -18.5097   -7.8011 C   0  0  0  0  0  0  0  0  0  0  0  0
   26.3804  -20.8447   -8.5344 C   0  0  2  0  0  0  0  0  0  0  0  0
   26.1040  -20.3200   -9.8836 N   0  0  0  0  0  0  0  0  0  0  0  0
   25.1269  -21.0816   -7.8250 C   0  0  0  0  0  0  0  0  0  0  0  0
   23.9510  -20.5092   -8.2657 O   0  0  0  0  0  0  0  0  0  0  0  0
   25.0697  -21.8048   -6.7992 O   0  0  0  0  0  0  0  0  0  0  0  0
  2  1  1  0
  3  4  1  6
  3  2  1  0
  5  3  1  0
  6  5  2  0
  8  9  1  0
  8  7  1  0
  9 11  1  0
  9 10  1  1
 11 13  1  0
 11 12  1  6
 12  5  1  0
 13 20  1  0
 14 13  2  0
 15 16  1  0
 17 19  1  0
 17 16  1  0
 17 18  1  1
 19 21  1  0
 19 20  1  6
 21 23  2  0
 21 22  1  0
M  END
$$$$
