SII.pdb
     RDKit          3D

 23 22  0  0  1  0  0  0  0  0999 V2000
   28.5414  -18.3026  -15.3736 O   0  0  0  0  0  0  0  0  0  0  0  0
   27.5215  -19.0380  -14.8126 C   0  0  0  0  0  0  0  0  0  0  0  0
   28.1303  -20.2275  -14.0673 C   0  0  2  0  0  0  0  0  0  0  0  0
   28.6118  -21.2212  -15.0046 N   0  0  0  0  0  0  0  0  0  0  0  0
   27.0967  -20.8477  -13.2160 C   0  0  0  0  0  0  0  0  0  0  0  0
   26.3933  -21.7775  -13.6652 O   0  0  0  0  0  0  0  0  0  0  0  0
   27.1139  -20.2004   -7.7295 C   0  0  0  0  0  0  0  0  0  0  0  0
   26.9769  -20.9185   -9.0433 C   0  0  0  0  0  0  0  0  0  0  0  0
   25.7232  -20.4230   -9.7318 C   0  0  2  0  0  0  0  0  0  0  0  0
   24.5329  -21.0647   -9.0577 C   0  0  0  0  0  0  0  0  0  0  0  0
   25.6897  -20.8549  -11.1881 C   0  0  2  0  0  0  0  0  0  0  0  0
   26.8726  -20.4120  -11.8764 N   0  0  0  0  0  0  0  0  0  0  0  0
   24.4902  -20.3297  -11.8745 C   0  0  0  0  0  0  0  0  0  0  0  0
   24.3496  -19.0940  -12.0478 O   0  0  0  0  0  0  0  0  0  0  0  0
   21.2880  -21.4213  -16.7210 C   0  0  0  0  0  0  0  0  0  0  0  0
   21.1974  -20.8383  -15.3195 C   0  0  0  0  0  0  0  0  0  0  0  0
   22.3636  -21.2392  -14.4732 C   0  0  2  0  0  0  0  0  0  0  0  0
   22.6106  -22.7314  -14.5124 C   0  0  0  0  0  0  0  0  0  0  0  0
   22.3208  -20.6883  -13.0935 C   0  0  2  0  0  0  0  0  0  0  0  0
   23.4825  -21.2036  -12.3471 N   0  0  0  0  0  0  0  0  0  0  0  0
   21.0971  -20.9165  -12.3311 C   0  0  0  0  0  0  0  0  0  0  0  0
   21.0798  -21.8127  -11.2818 O   0  0  0  0  0  0  0  0  0  0  0  0
   20.0262  -20.3155  -12.5967 O   0  0  0  0  0  0  0  0  0  0  0  0
  2  1  1  0
  3  4  1  6
  3  2  1  0
  5  3  1  0
  6  5  2  0
  8  9  1  0
  8  7  1  0
  9 11  1  0
  9 10  1  1
 11 13  1  0
 11 12  1  6
 12  5  1  0
 13 20  1  0
 14 13  2  0
 15 16  1  0
 17 19  1  0
 17 16  1  0
 17 18  1  1
 19 21  1  0
 19 20  1  1
 21 23  2  0
 21 22  1  0
M  END
$$$$
