SII.pdb
     RDKit          3D

 23 22  0  0  1  0  0  0  0  0999 V2000
   28.6296  -19.1008  -16.6073 O   0  0  0  0  0  0  0  0  0  0  0  0
   27.5666  -19.7557  -16.0269 C   0  0  0  0  0  0  0  0  0  0  0  0
   28.1088  -20.7516  -14.9997 C   0  0  2  0  0  0  0  0  0  0  0  0
   28.6559  -21.9173  -15.6626 N   0  0  0  0  0  0  0  0  0  0  0  0
   27.0086  -21.1867  -14.1176 C   0  0  0  0  0  0  0  0  0  0  0  0
   26.2719  -22.1359  -14.4603 O   0  0  0  0  0  0  0  0  0  0  0  0
   27.1416  -20.2279   -8.6663 C   0  0  0  0  0  0  0  0  0  0  0  0
   26.9872  -20.9532   -9.9743 C   0  0  0  0  0  0  0  0  0  0  0  0
   25.7379  -20.4436  -10.6603 C   0  0  2  0  0  0  0  0  0  0  0  0
   24.5399  -20.9702   -9.9050 C   0  0  0  0  0  0  0  0  0  0  0  0
   25.6335  -20.9785  -12.0786 C   0  0  2  0  0  0  0  0  0  0  0  0
   26.7566  -20.5478  -12.8676 N   0  0  0  0  0  0  0  0  0  0  0  0
   24.3771  -20.5420  -12.7240 C   0  0  0  0  0  0  0  0  0  0  0  0
   24.1471  -19.3203  -12.9011 O   0  0  0  0  0  0  0  0  0  0  0  0
   20.8863  -22.0357  -17.3125 C   0  0  0  0  0  0  0  0  0  0  0  0
   20.8762  -21.3917  -15.9350 C   0  0  0  0  0  0  0  0  0  0  0  0
   22.1136  -21.7158  -15.1598 C   0  0  2  0  0  0  0  0  0  0  0  0
   22.3752  -23.2048  -15.0995 C   0  0  0  0  0  0  0  0  0  0  0  0
   22.1785  -21.0551  -13.8300 C   0  0  2  0  0  0  0  0  0  0  0  0
   23.4142  -21.4863  -13.1525 N   0  0  0  0  0  0  0  0  0  0  0  0
   21.0330  -21.2429  -12.9449 C   0  0  0  0  0  0  0  0  0  0  0  0
   19.9230  -20.4296  -13.0500 O   0  0  0  0  0  0  0  0  0  0  0  0
   21.0128  -22.1389  -12.0644 O   0  0  0  0  0  0  0  0  0  0  0  0
  2  1  1  0
  3  4  1  6
  3  2  1  0
  5  3  1  0
  6  5  2  0
  8  9  1  0
  8  7  1  0
  9 11  1  0
  9 10  1  1
 11 13  1  0
 11 12  1  6
 12  5  1  0
 13 20  1  0
 14 13  2  0
 15 16  1  0
 17 19  1  0
 17 16  1  0
 17 18  1  1
 19 21  1  0
 19 20  1  1
 21 23  2  0
 21 22  1  0
M  END
$$$$
