SII.pdb
     RDKit          3D

 23 22  0  0  1  0  0  0  0  0999 V2000
   44.3333  -13.9779   -9.0480 O   0  0  0  0  0  0  0  0  0  0  0  0
   43.6699  -12.9541   -8.4096 C   0  0  0  0  0  0  0  0  0  0  0  0
   44.6882  -11.8806   -8.0204 C   0  0  2  0  0  0  0  0  0  0  0  0
   45.4617  -12.3070   -6.8725 N   0  0  0  0  0  0  0  0  0  0  0  0
   43.9736  -10.6381   -7.6692 C   0  0  0  0  0  0  0  0  0  0  0  0
   43.6497  -10.4183   -6.4826 O   0  0  0  0  0  0  0  0  0  0  0  0
   43.4351   -5.5283   -7.0162 C   0  0  0  0  0  0  0  0  0  0  0  0
   43.0437   -5.9510   -8.4050 C   0  0  0  0  0  0  0  0  0  0  0  0
   43.7689   -7.2377   -8.7365 C   0  0  2  0  0  0  0  0  0  0  0  0
   43.8536   -7.3544  -10.2406 C   0  0  0  0  0  0  0  0  0  0  0  0
   42.9925   -8.4475   -8.2445 C   0  0  2  0  0  0  0  0  0  0  0  0
   43.6363   -9.6660   -8.6570 N   0  0  0  0  0  0  0  0  0  0  0  0
   41.6005   -8.4286   -8.7422 C   0  0  0  0  0  0  0  0  0  0  0  0
   41.3582   -8.6483   -9.9546 O   0  0  0  0  0  0  0  0  0  0  0  0
   37.8416  -10.7619   -5.8377 C   0  0  0  0  0  0  0  0  0  0  0  0
   38.5671  -10.2375   -7.0670 C   0  0  0  0  0  0  0  0  0  0  0  0
   38.2673   -8.7936   -7.3168 C   0  0  2  0  0  0  0  0  0  0  0  0
   36.7914   -8.5481   -7.5412 C   0  0  0  0  0  0  0  0  0  0  0  0
   39.1294   -8.1733   -8.3565 C   0  0  2  0  0  0  0  0  0  0  0  0
   40.5197   -8.1642   -7.8679 N   0  0  0  0  0  0  0  0  0  0  0  0
   38.7528   -6.8393   -8.8140 C   0  0  0  0  0  0  0  0  0  0  0  0
   38.0035   -6.6753   -9.9613 O   0  0  0  0  0  0  0  0  0  0  0  0
   39.0919   -5.8022   -8.1910 O   0  0  0  0  0  0  0  0  0  0  0  0
  2  1  1  0
  3  4  1  1
  3  2  1  0
  5  3  1  0
  6  5  2  0
  8  9  1  0
  8  7  1  0
  9 11  1  0
  9 10  1  6
 11 13  1  0
 11 12  1  6
 12  5  1  0
 13 20  1  0
 14 13  2  0
 15 16  1  0
 17 19  1  0
 17 16  1  0
 17 18  1  6
 19 21  1  0
 19 20  1  1
 21 23  2  0
 21 22  1  0
M  END
$$$$
