SII.pdb
     RDKit          3D

 23 22  0  0  1  0  0  0  0  0999 V2000
   25.7576  -36.0060   -5.9597 O   0  0  0  0  0  0  0  0  0  0  0  0
   26.1694  -35.8689   -4.6530 C   0  0  0  0  0  0  0  0  0  0  0  0
   26.8490  -34.5071   -4.4958 C   0  0  2  0  0  0  0  0  0  0  0  0
   28.2880  -34.6446   -4.5861 N   0  0  0  0  0  0  0  0  0  0  0  0
   26.5135  -33.9469   -3.1725 C   0  0  0  0  0  0  0  0  0  0  0  0
   27.2412  -34.1937   -2.1873 O   0  0  0  0  0  0  0  0  0  0  0  0
   24.7817  -28.8755   -2.6937 C   0  0  0  0  0  0  0  0  0  0  0  0
   25.4303  -30.2299   -2.6184 C   0  0  0  0  0  0  0  0  0  0  0  0
   24.5273  -31.1502   -1.8252 C   0  0  2  0  0  0  0  0  0  0  0  0
   24.3952  -30.5886   -0.4287 C   0  0  0  0  0  0  0  0  0  0  0  0
   25.1393  -32.5339   -1.6868 C   0  0  2  0  0  0  0  0  0  0  0  0
   25.3672  -33.1201   -2.9805 N   0  0  0  0  0  0  0  0  0  0  0  0
   24.2737  -33.4240   -0.8841 C   0  0  0  0  0  0  0  0  0  0  0  0
   23.2280  -33.9085   -1.3825 O   0  0  0  0  0  0  0  0  0  0  0  0
   24.6977  -37.3202    3.7987 C   0  0  0  0  0  0  0  0  0  0  0  0
   23.7926  -36.4737    2.9176 C   0  0  0  0  0  0  0  0  0  0  0  0
   24.5648  -35.4518    2.1451 C   0  0  2  0  0  0  0  0  0  0  0  0
   25.5014  -34.6571    3.0286 C   0  0  0  0  0  0  0  0  0  0  0  0
   23.7206  -34.5985    1.2688 C   0  0  2  0  0  0  0  0  0  0  0  0
   24.6041  -33.7458    0.4537 N   0  0  0  0  0  0  0  0  0  0  0  0
   22.7059  -33.7806    1.9261 C   0  0  0  0  0  0  0  0  0  0  0  0
   21.5089  -34.3361    2.3300 O   0  0  0  0  0  0  0  0  0  0  0  0
   22.8790  -32.5558    2.1462 O   0  0  0  0  0  0  0  0  0  0  0  0
  2  1  1  0
  3  4  1  1
  3  2  1  0
  5  3  1  0
  6  5  2  0
  8  9  1  0
  8  7  1  0
  9 11  1  0
  9 10  1  1
 11 13  1  0
 11 12  1  6
 12  5  1  0
 13 20  1  0
 14 13  2  0
 15 16  1  0
 17 19  1  0
 17 16  1  0
 17 18  1  1
 19 21  1  0
 19 20  1  1
 21 23  2  0
 21 22  1  0
M  END
$$$$
