SII.pdb
     RDKit          3D

 23 22  0  0  1  0  0  0  0  0999 V2000
   28.0088  -18.1597  -16.5076 O   0  0  0  0  0  0  0  0  0  0  0  0
   27.3060  -18.3671  -15.3420 C   0  0  0  0  0  0  0  0  0  0  0  0
   27.9516  -19.5282  -14.5829 C   0  0  2  0  0  0  0  0  0  0  0  0
   28.6158  -20.4288  -15.5024 N   0  0  0  0  0  0  0  0  0  0  0  0
   26.9048  -20.2800  -13.8640 C   0  0  0  0  0  0  0  0  0  0  0  0
   26.3720  -21.2754  -14.3991 O   0  0  0  0  0  0  0  0  0  0  0  0
   26.7728  -20.6359   -8.3916 C   0  0  0  0  0  0  0  0  0  0  0  0
   26.7284  -20.9806   -9.8544 C   0  0  0  0  0  0  0  0  0  0  0  0
   25.4316  -20.4548  -10.4315 C   0  0  2  0  0  0  0  0  0  0  0  0
   24.2990  -21.2841   -9.8725 C   0  0  0  0  0  0  0  0  0  0  0  0
   25.3953  -20.6214  -11.9412 C   0  0  2  0  0  0  0  0  0  0  0  0
   26.4762  -19.8997  -12.5578 N   0  0  0  0  0  0  0  0  0  0  0  0
   24.1071  -20.1586  -12.4998 C   0  0  0  0  0  0  0  0  0  0  0  0
   23.7536  -18.9608  -12.3686 O   0  0  0  0  0  0  0  0  0  0  0  0
   23.0075  -20.0813  -17.3781 C   0  0  0  0  0  0  0  0  0  0  0  0
   23.0538  -19.9428  -15.8644 C   0  0  0  0  0  0  0  0  0  0  0  0
   21.9737  -20.7356  -15.1995 C   0  0  2  0  0  0  0  0  0  0  0  0
   20.6218  -20.5058  -15.8388 C   0  0  0  0  0  0  0  0  0  0  0  0
   21.9533  -20.5981  -13.7198 C   0  0  2  0  0  0  0  0  0  0  0  0
   23.2518  -21.0504  -13.1894 N   0  0  0  0  0  0  0  0  0  0  0  0
   20.8655  -21.2657  -13.0114 C   0  0  0  0  0  0  0  0  0  0  0  0
   19.7357  -20.5661  -12.6388 O   0  0  0  0  0  0  0  0  0  0  0  0
   20.9143  -22.4860  -12.7162 O   0  0  0  0  0  0  0  0  0  0  0  0
  2  1  1  0
  3  4  1  6
  3  2  1  0
  5  3  1  0
  6  5  2  0
  8  9  1  0
  8  7  1  0
  9 11  1  0
  9 10  1  1
 11 13  1  0
 11 12  1  6
 12  5  1  0
 13 20  1  0
 14 13  2  0
 15 16  1  0
 17 19  1  0
 17 16  1  0
 17 18  1  6
 19 21  1  0
 19 20  1  1
 21 23  2  0
 21 22  1  0
M  END
$$$$
