SII.pdb
     RDKit          3D

 23 22  0  0  1  0  0  0  0  0999 V2000
   27.4190  -19.1620  -16.7428 O   0  0  0  0  0  0  0  0  0  0  0  0
   27.8225  -19.0416  -15.4319 C   0  0  0  0  0  0  0  0  0  0  0  0
   28.2100  -20.4272  -14.9114 C   0  0  2  0  0  0  0  0  0  0  0  0
   28.4498  -21.3350  -16.0142 N   0  0  0  0  0  0  0  0  0  0  0  0
   27.1059  -20.9648  -14.0930 C   0  0  0  0  0  0  0  0  0  0  0  0
   26.2819  -21.7561  -14.5988 O   0  0  0  0  0  0  0  0  0  0  0  0
   25.1468  -21.2834   -8.2370 C   0  0  0  0  0  0  0  0  0  0  0  0
   24.9147  -21.5654   -9.6955 C   0  0  0  0  0  0  0  0  0  0  0  0
   26.0331  -20.9267  -10.4909 C   0  0  2  0  0  0  0  0  0  0  0  0
   25.9829  -19.4349  -10.2564 C   0  0  0  0  0  0  0  0  0  0  0  0
   25.8395  -21.1443  -11.9821 C   0  0  2  0  0  0  0  0  0  0  0  0
   26.9481  -20.6035  -12.7222 N   0  0  0  0  0  0  0  0  0  0  0  0
   24.5806  -20.5290  -12.4536 C   0  0  0  0  0  0  0  0  0  0  0  0
   24.4694  -19.2796  -12.5127 O   0  0  0  0  0  0  0  0  0  0  0  0
   23.0870  -20.9571  -17.0875 C   0  0  0  0  0  0  0  0  0  0  0  0
   23.2596  -20.5842  -15.6234 C   0  0  0  0  0  0  0  0  0  0  0  0
   22.1037  -21.0424  -14.7921 C   0  0  2  0  0  0  0  0  0  0  0  0
   20.7755  -20.6150  -15.3773 C   0  0  0  0  0  0  0  0  0  0  0  0
   22.2386  -20.7197  -13.3476 C   0  0  2  0  0  0  0  0  0  0  0  0
   23.4822  -21.3306  -12.8454 N   0  0  0  0  0  0  0  0  0  0  0  0
   21.1197  -21.0847  -12.4841 C   0  0  0  0  0  0  0  0  0  0  0  0
   20.1775  -20.1445  -12.1196 O   0  0  0  0  0  0  0  0  0  0  0  0
   20.9727  -22.2522  -12.0439 O   0  0  0  0  0  0  0  0  0  0  0  0
  2  1  1  0
  3  4  1  6
  3  2  1  0
  5  3  1  0
  6  5  2  0
  8  9  1  0
  8  7  1  0
  9 11  1  0
  9 10  1  6
 11 13  1  0
 11 12  1  6
 12  5  1  0
 13 20  1  0
 14 13  2  0
 15 16  1  0
 17 19  1  0
 17 16  1  0
 17 18  1  6
 19 21  1  0
 19 20  1  1
 21 23  2  0
 21 22  1  0
M  END
$$$$
