LLM.pdb
     RDKit          3D

 25 24  0  0  1  0  0  0  0  0999 V2000
    8.9928  -19.1817   18.0674 C   0  0  0  0  0  0  0  0  0  0  0  0
    8.7315  -17.6947   18.0538 C   0  0  2  0  0  0  0  0  0  0  0  0
    9.0917  -17.0926   16.7336 C   0  0  0  0  0  0  0  0  0  0  0  0
    9.3425  -16.9989   19.2240 C   0  0  0  0  0  0  0  0  0  0  0  0
    8.9752  -17.5609   20.5548 C   0  0  2  0  0  0  0  0  0  0  0  0
    7.6059  -18.0239   20.6380 N   0  0  0  0  0  0  0  0  0  0  0  0
    9.1333  -16.4831   21.5874 C   0  0  0  0  0  0  0  0  0  0  0  0
   10.1583  -15.7591   21.6257 O   0  0  0  0  0  0  0  0  0  0  0  0
    8.0233  -13.5175   26.1855 C   0  0  0  0  0  0  0  0  0  0  0  0
    7.3345  -13.3070   24.8819 C   0  0  2  0  0  0  0  0  0  0  0  0
    5.9283  -12.7669   25.1975 C   0  0  0  0  0  0  0  0  0  0  0  0
    7.1375  -14.4903   24.0230 C   0  0  0  0  0  0  0  0  0  0  0  0
    8.3322  -15.2872   23.6335 C   0  0  2  0  0  0  0  0  0  0  0  0
    8.1378  -16.2302   22.5665 N   0  0  0  0  0  0  0  0  0  0  0  0
    9.0149  -15.9051   24.8043 C   0  0  0  0  0  0  0  0  0  0  0  0
    8.4236  -16.7978   25.4640 O   0  0  0  0  0  0  0  0  0  0  0  0
   10.1684  -13.2833   29.8449 C   0  0  0  0  0  0  0  0  0  0  0  0
   11.3457  -14.6556   29.7304 S   0  0  0  0  0  0  0  0  0  0  0  0
   10.5281  -16.1021   28.9594 C   0  0  0  0  0  0  0  0  0  0  0  0
    9.9362  -15.7297   27.6308 C   0  0  0  0  0  0  0  0  0  0  0  0
   10.8784  -16.0161   26.5206 C   0  0  2  0  0  0  0  0  0  0  0  0
   10.3148  -15.5446   25.2326 N   0  0  0  0  0  0  0  0  0  0  0  0
   11.1199  -17.4529   26.3731 C   0  0  0  0  0  0  0  0  0  0  0  0
   12.2797  -17.9067   26.5268 O   0  0  0  0  0  0  0  0  0  0  0  0
   10.1286  -18.3570   26.0722 O   0  0  0  0  0  0  0  0  0  0  0  0
  2  1  1  6
  2  3  1  0
  4  2  1  0
  4  5  1  0
  5  7  1  0
  5  6  1  6
  7  8  2  0
 10  9  1  1
 10 12  1  0
 11 10  1  0
 13 12  1  1
 14 13  1  0
 14  7  1  0
 15 16  2  0
 15 13  1  0
 17 18  1  0
 18 19  1  0
 19 20  1  0
 21 20  1  1
 21 23  1  0
 21 22  1  0
 22 15  1  0
 23 25  1  0
 24 23  2  0
M  END
$$$$
