LLM.pdb
     RDKit          3D

 25 24  0  0  1  0  0  0  0  0999 V2000
   10.0799  -20.4505   16.8228 C   0  0  0  0  0  0  0  0  0  0  0  0
    9.3552  -20.1623   18.1156 C   0  0  2  0  0  0  0  0  0  0  0  0
    7.8845  -20.3916   17.9759 C   0  0  0  0  0  0  0  0  0  0  0  0
    9.7093  -18.8275   18.6810 C   0  0  0  0  0  0  0  0  0  0  0  0
    9.5757  -18.7134   20.1612 C   0  0  2  0  0  0  0  0  0  0  0  0
    8.2235  -18.9001   20.6439 N   0  0  0  0  0  0  0  0  0  0  0  0
    9.9976  -17.3330   20.5728 C   0  0  0  0  0  0  0  0  0  0  0  0
   11.1314  -16.8808   20.2795 O   0  0  0  0  0  0  0  0  0  0  0  0
    8.5164  -13.0680   19.5336 C   0  0  0  0  0  0  0  0  0  0  0  0
    7.7765  -13.8132   20.5897 C   0  0  2  0  0  0  0  0  0  0  0  0
    6.5852  -12.9343   21.0106 C   0  0  0  0  0  0  0  0  0  0  0  0
    8.5093  -14.1341   21.8295 C   0  0  0  0  0  0  0  0  0  0  0  0
    9.5635  -15.1828   21.7755 C   0  0  2  0  0  0  0  0  0  0  0  0
    9.1408  -16.4751   21.3101 N   0  0  0  0  0  0  0  0  0  0  0  0
   10.3445  -15.2752   23.0404 C   0  0  0  0  0  0  0  0  0  0  0  0
   11.0378  -14.2936   23.4117 O   0  0  0  0  0  0  0  0  0  0  0  0
    9.9587  -12.5169   27.5853 C   0  0  0  0  0  0  0  0  0  0  0  0
    8.9571  -13.9241   28.1319 S   0  0  0  0  0  0  0  0  0  0  0  0
    9.6598  -15.4755   27.4576 C   0  0  0  0  0  0  0  0  0  0  0  0
    9.5020  -15.5233   25.9653 C   0  0  0  0  0  0  0  0  0  0  0  0
   10.5750  -16.3313   25.3344 C   0  0  2  0  0  0  0  0  0  0  0  0
   10.3580  -16.4217   23.8703 N   0  0  0  0  0  0  0  0  0  0  0  0
   10.5883  -17.7044   25.8431 C   0  0  0  0  0  0  0  0  0  0  0  0
   10.0866  -18.6263   25.1554 O   0  0  0  0  0  0  0  0  0  0  0  0
   11.1328  -18.0537   27.0564 O   0  0  0  0  0  0  0  0  0  0  0  0
  2  1  1  6
  2  3  1  0
  4  2  1  0
  4  5  1  0
  5  7  1  0
  5  6  1  6
  7  8  2  0
 10  9  1  6
 10 12  1  0
 11 10  1  0
 13 12  1  1
 14 13  1  0
 14  7  1  0
 15 16  2  0
 15 13  1  0
 17 18  1  0
 18 19  1  0
 19 20  1  0
 21 20  1  1
 21 23  1  0
 21 22  1  0
 22 15  1  0
 23 25  1  0
 24 23  2  0
M  END
$$$$
