LLM.pdb
     RDKit          3D

 25 24  0  0  1  0  0  0  0  0999 V2000
    7.5441  -21.1088   19.8737 C   0  0  0  0  0  0  0  0  0  0  0  0
    7.1212  -19.7670   19.3255 C   0  0  2  0  0  0  0  0  0  0  0  0
    6.9842  -19.8078   17.8373 C   0  0  0  0  0  0  0  0  0  0  0  0
    7.9787  -18.6525   19.8247 C   0  0  0  0  0  0  0  0  0  0  0  0
    8.2295  -18.6586   21.2940 C   0  0  2  0  0  0  0  0  0  0  0  0
    7.0249  -18.5946   22.0947 N   0  0  0  0  0  0  0  0  0  0  0  0
    9.0481  -17.4496   21.6427 C   0  0  0  0  0  0  0  0  0  0  0  0
   10.1900  -17.2694   21.1532 O   0  0  0  0  0  0  0  0  0  0  0  0
    7.6254  -13.1292   21.1443 C   0  0  0  0  0  0  0  0  0  0  0  0
    7.3879  -13.7188   22.4912 C   0  0  2  0  0  0  0  0  0  0  0  0
    6.6327  -12.6631   23.3183 C   0  0  0  0  0  0  0  0  0  0  0  0
    8.5748  -14.0912   23.2846 C   0  0  0  0  0  0  0  0  0  0  0  0
    9.3498  -15.2933   22.8745 C   0  0  2  0  0  0  0  0  0  0  0  0
    8.5747  -16.4558   22.5382 N   0  0  0  0  0  0  0  0  0  0  0  0
   10.4521  -15.6151   23.8233 C   0  0  0  0  0  0  0  0  0  0  0  0
   11.4466  -14.8488   23.8978 O   0  0  0  0  0  0  0  0  0  0  0  0
    9.8375  -13.1216   28.4301 C   0  0  0  0  0  0  0  0  0  0  0  0
   10.3205  -14.5963   29.3652 S   0  0  0  0  0  0  0  0  0  0  0  0
   11.1492  -15.7871   28.2469 C   0  0  0  0  0  0  0  0  0  0  0  0
   10.4204  -15.8786   26.9374 C   0  0  0  0  0  0  0  0  0  0  0  0
   11.1373  -16.7580   25.9809 C   0  0  2  0  0  0  0  0  0  0  0  0
   10.4534  -16.7529   24.6651 N   0  0  0  0  0  0  0  0  0  0  0  0
   11.1601  -18.1492   26.4375 C   0  0  0  0  0  0  0  0  0  0  0  0
   10.4807  -19.0129   25.8316 O   0  0  0  0  0  0  0  0  0  0  0  0
   11.9008  -18.5773   27.5140 O   0  0  0  0  0  0  0  0  0  0  0  0
  2  1  1  6
  2  3  1  0
  4  2  1  0
  4  5  1  0
  5  7  1  0
  5  6  1  1
  7  8  2  0
 10  9  1  6
 10 12  1  0
 11 10  1  0
 13 12  1  1
 14 13  1  0
 14  7  1  0
 15 16  2  0
 15 13  1  0
 17 18  1  0
 18 19  1  0
 19 20  1  0
 21 20  1  1
 21 23  1  0
 21 22  1  0
 22 15  1  0
 23 25  1  0
 24 23  2  0
M  END
$$$$
