LLM.pdb
     RDKit          3D

 25 24  0  0  1  0  0  0  0  0999 V2000
    7.0077  -12.7540   19.1327 C   0  0  0  0  0  0  0  0  0  0  0  0
    7.9204  -13.8582   19.6096 C   0  0  2  0  0  0  0  0  0  0  0  0
    8.6802  -14.4630   18.4729 C   0  0  0  0  0  0  0  0  0  0  0  0
    7.2097  -14.8555   20.4621 C   0  0  0  0  0  0  0  0  0  0  0  0
    8.0793  -15.9076   21.0612 C   0  0  2  0  0  0  0  0  0  0  0  0
    7.3462  -16.9864   21.6896 N   0  0  0  0  0  0  0  0  0  0  0  0
    8.9244  -15.2762   22.1290 C   0  0  0  0  0  0  0  0  0  0  0  0
   10.1229  -14.9680   21.9178 O   0  0  0  0  0  0  0  0  0  0  0  0
    6.5641  -12.0835   24.2249 C   0  0  0  0  0  0  0  0  0  0  0  0
    6.9234  -13.2487   25.0802 C   0  0  2  0  0  0  0  0  0  0  0  0
    6.2393  -13.0357   26.4423 C   0  0  0  0  0  0  0  0  0  0  0  0
    8.3552  -13.4599   25.3674 C   0  0  0  0  0  0  0  0  0  0  0  0
    9.1602  -14.2533   24.3998 C   0  0  2  0  0  0  0  0  0  0  0  0
    8.4136  -14.9981   23.4234 N   0  0  0  0  0  0  0  0  0  0  0  0
   10.1945  -15.0918   25.0673 C   0  0  0  0  0  0  0  0  0  0  0  0
   11.3174  -14.5920   25.3341 O   0  0  0  0  0  0  0  0  0  0  0  0
   10.1948  -13.9139   29.8491 C   0  0  0  0  0  0  0  0  0  0  0  0
   10.1451  -15.7116   30.0686 S   0  0  0  0  0  0  0  0  0  0  0  0
    9.8680  -16.5196   28.4482 C   0  0  0  0  0  0  0  0  0  0  0  0
   11.1011  -16.4333   27.5961 C   0  0  0  0  0  0  0  0  0  0  0  0
   10.9284  -17.1710   26.3200 C   0  0  2  0  0  0  0  0  0  0  0  0
    9.9916  -16.4451   25.4286 N   0  0  0  0  0  0  0  0  0  0  0  0
   10.3564  -18.5014   26.5374 C   0  0  0  0  0  0  0  0  0  0  0  0
   11.1146  -19.4983   26.6149 O   0  0  0  0  0  0  0  0  0  0  0  0
    9.0068  -18.7297   26.6677 O   0  0  0  0  0  0  0  0  0  0  0  0
  2  1  1  6
  2  3  1  0
  4  2  1  0
  4  5  1  0
  5  7  1  0
  5  6  1  1
  7  8  2  0
 10  9  1  6
 10 12  1  0
 11 10  1  0
 13 12  1  1
 14 13  1  0
 14  7  1  0
 15 16  2  0
 15 13  1  0
 17 18  1  0
 18 19  1  0
 19 20  1  0
 21 20  1  1
 21 23  1  0
 21 22  1  0
 22 15  1  0
 23 25  1  0
 24 23  2  0
M  END
$$$$
