LLM.pdb
     RDKit          3D

 25 24  0  0  1  0  0  0  0  0999 V2000
    8.5768  -21.2419   17.8610 C   0  0  0  0  0  0  0  0  0  0  0  0
    8.0157  -20.4891   19.0434 C   0  0  2  0  0  0  0  0  0  0  0  0
    6.6626  -19.9309   18.7386 C   0  0  0  0  0  0  0  0  0  0  0  0
    8.9768  -19.4854   19.5870 C   0  0  0  0  0  0  0  0  0  0  0  0
    8.5908  -18.8865   20.8963 C   0  0  2  0  0  0  0  0  0  0  0  0
    7.1654  -18.6857   21.0517 N   0  0  0  0  0  0  0  0  0  0  0  0
    9.2353  -17.5358   21.0111 C   0  0  0  0  0  0  0  0  0  0  0  0
   10.4747  -17.3887   20.8757 O   0  0  0  0  0  0  0  0  0  0  0  0
    9.0490  -13.4381   18.7433 C   0  0  0  0  0  0  0  0  0  0  0  0
    7.9359  -13.7190   19.6921 C   0  0  2  0  0  0  0  0  0  0  0  0
    6.9804  -12.5139   19.6350 C   0  0  0  0  0  0  0  0  0  0  0  0
    8.2886  -13.8974   21.1137 C   0  0  0  0  0  0  0  0  0  0  0  0
    9.0982  -15.0856   21.4968 C   0  0  2  0  0  0  0  0  0  0  0  0
    8.4801  -16.3643   21.2771 N   0  0  0  0  0  0  0  0  0  0  0  0
    9.6686  -14.9718   22.8681 C   0  0  0  0  0  0  0  0  0  0  0  0
   10.4993  -14.0611   23.1181 O   0  0  0  0  0  0  0  0  0  0  0  0
    6.7919  -11.3310   26.5623 C   0  0  0  0  0  0  0  0  0  0  0  0
    6.2891  -13.0113   27.0162 S   0  0  0  0  0  0  0  0  0  0  0  0
    7.7301  -14.1358   26.8963 C   0  0  0  0  0  0  0  0  0  0  0  0
    7.9098  -14.6172   25.4856 C   0  0  0  0  0  0  0  0  0  0  0  0
    9.1846  -15.3603   25.3269 C   0  0  2  0  0  0  0  0  0  0  0  0
    9.3295  -15.8417   23.9318 N   0  0  0  0  0  0  0  0  0  0  0  0
    9.2313  -16.5442   26.1873 C   0  0  0  0  0  0  0  0  0  0  0  0
    9.0531  -17.6818   25.6886 O   0  0  0  0  0  0  0  0  0  0  0  0
    9.4673  -16.4839   27.5406 O   0  0  0  0  0  0  0  0  0  0  0  0
  2  1  1  6
  2  3  1  0
  4  2  1  0
  4  5  1  0
  5  7  1  0
  5  6  1  6
  7  8  2  0
 10  9  1  6
 10 12  1  0
 11 10  1  0
 13 12  1  1
 14 13  1  0
 14  7  1  0
 15 16  2  0
 15 13  1  0
 17 18  1  0
 18 19  1  0
 19 20  1  0
 21 20  1  6
 21 23  1  0
 21 22  1  0
 22 15  1  0
 23 25  1  0
 24 23  2  0
M  END
$$$$
