LLM.pdb
     RDKit          3D

 25 24  0  0  1  0  0  0  0  0999 V2000
    9.0593  -19.3269   18.4994 C   0  0  0  0  0  0  0  0  0  0  0  0
    8.2126  -18.0887   18.3274 C   0  0  2  0  0  0  0  0  0  0  0  0
    8.1909  -17.6400   16.9014 C   0  0  0  0  0  0  0  0  0  0  0  0
    8.5750  -17.0126   19.2956 C   0  0  0  0  0  0  0  0  0  0  0  0
    8.5774  -17.4266   20.7276 C   0  0  2  0  0  0  0  0  0  0  0  0
    7.3368  -18.0315   21.1650 N   0  0  0  0  0  0  0  0  0  0  0  0
    8.7892  -16.2066   21.5760 C   0  0  0  0  0  0  0  0  0  0  0  0
    9.7771  -15.4519   21.4013 O   0  0  0  0  0  0  0  0  0  0  0  0
    6.1206  -13.0808   26.3578 C   0  0  0  0  0  0  0  0  0  0  0  0
    7.1833  -13.2521   25.3286 C   0  0  2  0  0  0  0  0  0  0  0  0
    7.3127  -11.9098   24.5868 C   0  0  0  0  0  0  0  0  0  0  0  0
    6.9595  -14.2761   24.2902 C   0  0  0  0  0  0  0  0  0  0  0  0
    8.1229  -14.7253   23.4787 C   0  0  2  0  0  0  0  0  0  0  0  0
    7.8886  -15.8477   22.6121 N   0  0  0  0  0  0  0  0  0  0  0  0
    9.3567  -14.9007   24.2946 C   0  0  0  0  0  0  0  0  0  0  0  0
    9.9966  -13.8861   24.6729 O   0  0  0  0  0  0  0  0  0  0  0  0
    9.8547  -13.4005   29.2738 C   0  0  0  0  0  0  0  0  0  0  0  0
   10.3192  -15.0936   29.7209 S   0  0  0  0  0  0  0  0  0  0  0  0
   11.0384  -15.9373   28.2627 C   0  0  0  0  0  0  0  0  0  0  0  0
   10.1288  -15.8090   27.0750 C   0  0  0  0  0  0  0  0  0  0  0  0
   10.7748  -16.3237   25.8421 C   0  0  2  0  0  0  0  0  0  0  0  0
    9.8675  -16.1630   24.6802 N   0  0  0  0  0  0  0  0  0  0  0  0
   11.0764  -17.7528   25.9456 C   0  0  0  0  0  0  0  0  0  0  0  0
   11.8861  -18.1553   26.8158 O   0  0  0  0  0  0  0  0  0  0  0  0
   10.5105  -18.7039   25.1296 O   0  0  0  0  0  0  0  0  0  0  0  0
  2  1  1  6
  2  3  1  0
  4  2  1  0
  4  5  1  0
  5  7  1  0
  5  6  1  1
  7  8  2  0
 10  9  1  1
 10 12  1  0
 11 10  1  0
 13 12  1  1
 14 13  1  0
 14  7  1  0
 15 16  2  0
 15 13  1  0
 17 18  1  0
 18 19  1  0
 19 20  1  0
 21 20  1  1
 21 23  1  0
 21 22  1  0
 22 15  1  0
 23 25  1  0
 24 23  2  0
M  END
$$$$
