CFV.pdb
     RDKit          3D

 25 25  0  0  1  0  0  0  0  0999 V2000
   31.1124  -22.7109  -12.3098 N   0  0  0  0  0  0  0  0  0  0  0  0
   31.0415  -21.4319  -11.6757 C   0  0  1  0  0  0  0  0  0  0  0  0
   30.5559  -20.4162  -12.6912 C   0  0  0  0  0  0  0  0  0  0  0  0
   28.8743  -20.8796  -13.2551 S   0  0  0  0  0  0  0  0  0  0  0  0
   30.1803  -21.4800  -10.4907 C   0  0  0  0  0  0  0  0  0  0  0  0
   29.3570  -22.4467  -10.3560 O   0  0  0  0  0  0  0  0  0  0  0  0
   30.1997  -20.5032   -9.4599 N   0  0  0  0  0  0  0  0  0  0  0  0
   29.3215  -20.5955   -8.3286 C   0  0  1  0  0  0  0  0  0  0  0  0
   29.8985  -19.9279   -7.0945 C   0  0  0  0  0  0  0  0  0  0  0  0
   28.9984  -19.9448   -5.9520 C   0  0  0  0  0  0  0  0  0  0  0  0
   27.9941  -19.0166   -5.8036 C   0  0  0  0  0  0  0  0  0  0  0  0
   27.1384  -19.0505   -4.6960 C   0  0  0  0  0  0  0  0  0  0  0  0
   27.2934  -20.0226   -3.7331 C   0  0  0  0  0  0  0  0  0  0  0  0
   28.2859  -20.9455   -3.8732 C   0  0  0  0  0  0  0  0  0  0  0  0
   29.1299  -20.9036   -4.9757 C   0  0  0  0  0  0  0  0  0  0  0  0
   28.0074  -19.9487   -8.5751 C   0  0  0  0  0  0  0  0  0  0  0  0
   28.0045  -18.7954   -9.0669 O   0  0  0  0  0  0  0  0  0  0  0  0
   24.4038  -20.1946  -11.1770 C   0  0  0  0  0  0  0  0  0  0  0  0
   25.6701  -20.5960  -10.4803 C   0  0  2  0  0  0  0  0  0  0  0  0
   25.9750  -22.0542  -10.6370 C   0  0  0  0  0  0  0  0  0  0  0  0
   25.5406  -20.2570   -9.0128 C   0  0  2  0  0  0  0  0  0  0  0  0
   26.7656  -20.5625   -8.2859 N   0  0  0  0  0  0  0  0  0  0  0  0
   24.4210  -20.9948   -8.3735 C   0  0  0  0  0  0  0  0  0  0  0  0
   23.2357  -20.8594   -8.7756 O   0  0  0  0  0  0  0  0  0  0  0  0
   24.6132  -21.8671   -7.3071 O   0  0  0  0  0  0  0  0  0  0  0  0
  2  5  1  0
  2  1  1  6
  3  2  1  0
  4  3  1  0
  5  6  2  0
  7  5  1  0
  7  8  1  0
  8  9  1  1
  9 10  1  0
 10 15  2  0
 11 12  2  0
 11 10  1  0
 12 13  1  0
 13 14  2  0
 15 14  1  0
 16 17  2  0
 16  8  1  0
 19 18  1  6
 19 21  1  0
 20 19  1  0
 21 22  1  1
 22 16  1  0
 23 25  1  0
 23 21  1  0
 24 23  2  0
M  END
$$$$
