CFV.pdb
     RDKit          3D

 25 25  0  0  1  0  0  0  0  0999 V2000
   28.9490  -20.9388  -14.9078 N   0  0  0  0  0  0  0  0  0  0  0  0
   28.1032  -19.9705  -14.2836 C   0  0  1  0  0  0  0  0  0  0  0  0
   27.5843  -19.0248  -15.3491 C   0  0  0  0  0  0  0  0  0  0  0  0
   28.7328  -17.6053  -15.5106 S   0  0  0  0  0  0  0  0  0  0  0  0
   27.0149  -20.6201  -13.5474 C   0  0  0  0  0  0  0  0  0  0  0  0
   26.5115  -21.7015  -14.0029 O   0  0  0  0  0  0  0  0  0  0  0  0
   26.4707  -20.1175  -12.3357 N   0  0  0  0  0  0  0  0  0  0  0  0
   25.3871  -20.7845  -11.6718 C   0  0  1  0  0  0  0  0  0  0  0  0
   25.2480  -20.3573  -10.2228 C   0  0  0  0  0  0  0  0  0  0  0  0
   26.4268  -20.6406   -9.4192 C   0  0  0  0  0  0  0  0  0  0  0  0
   27.4312  -21.4668   -9.8675 C   0  0  0  0  0  0  0  0  0  0  0  0
   28.5578  -21.7265   -9.0780 C   0  0  0  0  0  0  0  0  0  0  0  0
   28.6750  -21.1526   -7.8317 C   0  0  0  0  0  0  0  0  0  0  0  0
   27.6842  -20.3332   -7.3809 C   0  0  0  0  0  0  0  0  0  0  0  0
   26.5701  -20.0816   -8.1716 C   0  0  0  0  0  0  0  0  0  0  0  0
   24.0751  -20.5137  -12.3130 C   0  0  0  0  0  0  0  0  0  0  0  0
   23.8164  -19.3321  -12.6429 O   0  0  0  0  0  0  0  0  0  0  0  0
   22.9170  -22.4565  -15.2637 C   0  0  0  0  0  0  0  0  0  0  0  0
   21.7031  -22.3770  -14.3861 C   0  0  2  0  0  0  0  0  0  0  0  0
   20.4489  -22.1149  -15.1620 C   0  0  0  0  0  0  0  0  0  0  0  0
   21.9141  -21.2767  -13.3711 C   0  0  2  0  0  0  0  0  0  0  0  0
   23.1072  -21.5137  -12.5695 N   0  0  0  0  0  0  0  0  0  0  0  0
   20.7532  -21.1432  -12.4539 C   0  0  0  0  0  0  0  0  0  0  0  0
   19.9559  -20.1734  -12.5464 O   0  0  0  0  0  0  0  0  0  0  0  0
   20.4821  -22.0694  -11.4519 O   0  0  0  0  0  0  0  0  0  0  0  0
  2  5  1  0
  2  1  1  6
  3  2  1  0
  4  3  1  0
  5  6  2  0
  7  5  1  0
  7  8  1  0
  8  9  1  1
  9 10  1  0
 10 15  2  0
 11 12  2  0
 11 10  1  0
 12 13  1  0
 13 14  2  0
 15 14  1  0
 16 17  2  0
 16  8  1  0
 19 18  1  6
 19 21  1  0
 20 19  1  0
 21 22  1  1
 22 16  1  0
 23 25  1  0
 23 21  1  0
 24 23  2  0
M  END
$$$$
