CFV.pdb
     RDKit          3D

 25 25  0  0  1  0  0  0  0  0999 V2000
   30.9442  -22.3568  -10.7476 N   0  0  0  0  0  0  0  0  0  0  0  0
   30.1235  -21.2039  -10.9481 C   0  0  1  0  0  0  0  0  0  0  0  0
   29.8876  -21.0324  -12.4359 C   0  0  0  0  0  0  0  0  0  0  0  0
   29.8007  -19.2450  -12.8335 S   0  0  0  0  0  0  0  0  0  0  0  0
   28.8673  -21.3170  -10.2014 C   0  0  0  0  0  0  0  0  0  0  0  0
   28.2568  -22.4380  -10.1727 O   0  0  0  0  0  0  0  0  0  0  0  0
   28.2702  -20.2409   -9.4925 N   0  0  0  0  0  0  0  0  0  0  0  0
   26.9022  -20.2993   -9.0623 C   0  0  1  0  0  0  0  0  0  0  0  0
   26.6024  -19.3052   -7.9563 C   0  0  0  0  0  0  0  0  0  0  0  0
   27.3241  -19.5755   -6.7226 C   0  0  0  0  0  0  0  0  0  0  0  0
   27.0914  -20.7079   -5.9771 C   0  0  0  0  0  0  0  0  0  0  0  0
   27.7971  -20.9492   -4.7923 C   0  0  0  0  0  0  0  0  0  0  0  0
   28.7414  -20.0473   -4.3551 C   0  0  0  0  0  0  0  0  0  0  0  0
   28.9775  -18.9233   -5.0882 C   0  0  0  0  0  0  0  0  0  0  0  0
   28.2720  -18.6928   -6.2625 C   0  0  0  0  0  0  0  0  0  0  0  0
   25.9481  -19.9998  -10.1604 C   0  0  0  0  0  0  0  0  0  0  0  0
   26.2689  -19.1179  -10.9918 O   0  0  0  0  0  0  0  0  0  0  0  0
   23.7998  -21.2886  -13.9015 C   0  0  0  0  0  0  0  0  0  0  0  0
   24.5952  -21.4375  -12.6386 C   0  0  2  0  0  0  0  0  0  0  0  0
   24.7069  -22.8636  -12.1941 C   0  0  0  0  0  0  0  0  0  0  0  0
   23.9359  -20.6157  -11.5545 C   0  0  2  0  0  0  0  0  0  0  0  0
   24.7031  -20.6540  -10.3166 N   0  0  0  0  0  0  0  0  0  0  0  0
   22.5578  -21.0890  -11.2655 C   0  0  0  0  0  0  0  0  0  0  0  0
   21.6405  -20.9906  -12.1220 O   0  0  0  0  0  0  0  0  0  0  0  0
   22.2040  -21.6612  -10.0479 O   0  0  0  0  0  0  0  0  0  0  0  0
  2  5  1  0
  2  1  1  6
  3  2  1  0
  4  3  1  0
  5  6  2  0
  7  5  1  0
  7  8  1  0
  8  9  1  1
  9 10  1  0
 10 15  2  0
 11 12  2  0
 11 10  1  0
 12 13  1  0
 13 14  2  0
 15 14  1  0
 16 17  2  0
 16  8  1  0
 19 18  1  6
 19 21  1  0
 20 19  1  0
 21 22  1  1
 22 16  1  0
 23 25  1  0
 23 21  1  0
 24 23  2  0
M  END
$$$$
