CFV.pdb
     RDKit          3D

 25 25  0  0  1  0  0  0  0  0999 V2000
   28.5221  -23.5810  -17.3320 N   0  0  0  0  0  0  0  0  0  0  0  0
   28.4708  -22.2540  -16.8035 C   0  0  1  0  0  0  0  0  0  0  0  0
   28.0873  -21.3039  -17.9211 C   0  0  0  0  0  0  0  0  0  0  0  0
   26.2763  -21.3871  -18.1923 S   0  0  0  0  0  0  0  0  0  0  0  0
   27.5430  -22.1747  -15.6716 C   0  0  0  0  0  0  0  0  0  0  0  0
   26.6621  -23.0868  -15.5213 O   0  0  0  0  0  0  0  0  0  0  0  0
   27.5576  -21.1298  -14.7099 N   0  0  0  0  0  0  0  0  0  0  0  0
   26.6470  -21.1246  -13.6006 C   0  0  1  0  0  0  0  0  0  0  0  0
   27.0957  -20.1932  -12.4903 C   0  0  0  0  0  0  0  0  0  0  0  0
   26.2903  -20.2994  -11.2837 C   0  0  0  0  0  0  0  0  0  0  0  0
   25.0897  -19.6413  -11.1505 C   0  0  0  0  0  0  0  0  0  0  0  0
   24.3298  -19.7569   -9.9804 C   0  0  0  0  0  0  0  0  0  0  0  0
   24.7793  -20.5381   -8.9393 C   0  0  0  0  0  0  0  0  0  0  0  0
   25.9676  -21.1930   -9.0639 C   0  0  0  0  0  0  0  0  0  0  0  0
   26.7145  -21.0720  -10.2289 C   0  0  0  0  0  0  0  0  0  0  0  0
   25.2826  -20.6833  -13.9875 C   0  0  0  0  0  0  0  0  0  0  0  0
   25.1795  -19.6714  -14.7205 O   0  0  0  0  0  0  0  0  0  0  0  0
   22.9950  -21.9614  -16.1868 C   0  0  0  0  0  0  0  0  0  0  0  0
   22.1480  -21.9025  -14.9503 C   0  0  2  0  0  0  0  0  0  0  0  0
   20.7338  -21.5030  -15.2405 C   0  0  0  0  0  0  0  0  0  0  0  0
   22.7691  -20.9161  -13.9877 C   0  0  2  0  0  0  0  0  0  0  0  0
   24.0999  -21.3414  -13.5746 N   0  0  0  0  0  0  0  0  0  0  0  0
   21.9370  -20.7353  -12.7705 C   0  0  0  0  0  0  0  0  0  0  0  0
   21.1963  -19.7273  -12.6296 O   0  0  0  0  0  0  0  0  0  0  0  0
   21.9271  -21.6568  -11.7284 O   0  0  0  0  0  0  0  0  0  0  0  0
  2  5  1  0
  2  1  1  6
  3  2  1  0
  4  3  1  0
  5  6  2  0
  7  5  1  0
  7  8  1  0
  8  9  1  1
  9 10  1  0
 10 15  2  0
 11 12  2  0
 11 10  1  0
 12 13  1  0
 13 14  2  0
 15 14  1  0
 16 17  2  0
 16  8  1  0
 19 18  1  6
 19 21  1  0
 20 19  1  0
 21 22  1  1
 22 16  1  0
 23 25  1  0
 23 21  1  0
 24 23  2  0
M  END
$$$$
