CFV.pdb
     RDKit          3D

 25 25  0  0  1  0  0  0  0  0999 V2000
   25.8768  -24.6682  -16.6818 N   0  0  0  0  0  0  0  0  0  0  0  0
   24.9053  -25.7152  -16.6285 C   0  0  1  0  0  0  0  0  0  0  0  0
   25.5588  -26.9503  -16.0401 C   0  0  0  0  0  0  0  0  0  0  0  0
   24.3160  -28.2920  -15.9151 S   0  0  0  0  0  0  0  0  0  0  0  0
   23.7261  -25.2995  -15.8636 C   0  0  0  0  0  0  0  0  0  0  0  0
   23.8674  -24.4792  -14.8954 O   0  0  0  0  0  0  0  0  0  0  0  0
   22.4087  -25.7570  -16.1322 N   0  0  0  0  0  0  0  0  0  0  0  0
   21.2908  -25.3112  -15.3504 C   0  0  1  0  0  0  0  0  0  0  0  0
   20.2316  -24.6287  -16.1953 C   0  0  0  0  0  0  0  0  0  0  0  0
   20.6676  -23.3604  -16.7582 C   0  0  0  0  0  0  0  0  0  0  0  0
   20.4255  -22.1627  -16.1263 C   0  0  0  0  0  0  0  0  0  0  0  0
   20.8538  -20.9527  -16.6854 C   0  0  0  0  0  0  0  0  0  0  0  0
   21.5288  -20.9472  -17.8857 C   0  0  0  0  0  0  0  0  0  0  0  0
   21.7722  -22.1295  -18.5175 C   0  0  0  0  0  0  0  0  0  0  0  0
   21.3432  -23.3249  -17.9548 C   0  0  0  0  0  0  0  0  0  0  0  0
   20.6071  -26.4273  -14.6484 C   0  0  0  0  0  0  0  0  0  0  0  0
   20.5232  -27.5290  -15.2411 O   0  0  0  0  0  0  0  0  0  0  0  0
   21.4927  -27.8086  -11.3818 C   0  0  0  0  0  0  0  0  0  0  0  0
   20.0126  -27.5965  -11.2629 C   0  0  2  0  0  0  0  0  0  0  0  0
   19.3245  -28.7263  -10.5600 C   0  0  0  0  0  0  0  0  0  0  0  0
   19.4365  -27.4333  -12.6510 C   0  0  2  0  0  0  0  0  0  0  0  0
   20.0489  -26.3132  -13.3531 N   0  0  0  0  0  0  0  0  0  0  0  0
   17.9674  -27.2164  -12.6160 C   0  0  0  0  0  0  0  0  0  0  0  0
   17.4798  -26.0582  -12.5406 O   0  0  0  0  0  0  0  0  0  0  0  0
   17.0556  -28.2660  -12.6636 O   0  0  0  0  0  0  0  0  0  0  0  0
  2  5  1  0
  2  1  1  1
  3  2  1  0
  4  3  1  0
  5  6  2  0
  7  5  1  0
  7  8  1  0
  8  9  1  6
  9 10  1  0
 10 15  2  0
 11 12  2  0
 11 10  1  0
 12 13  1  0
 13 14  2  0
 15 14  1  0
 16 17  2  0
 16  8  1  0
 19 18  1  6
 19 21  1  0
 20 19  1  0
 21 22  1  1
 22 16  1  0
 23 25  1  0
 23 21  1  0
 24 23  2  0
M  END
$$$$
