CFV.pdb
     RDKit          3D

 25 25  0  0  1  0  0  0  0  0999 V2000
   26.7264  -22.2060  -13.5282 N   0  0  0  0  0  0  0  0  0  0  0  0
   26.4926  -20.9880  -12.8177 C   0  0  1  0  0  0  0  0  0  0  0  0
   25.1346  -20.4475  -13.2205 C   0  0  0  0  0  0  0  0  0  0  0  0
   25.3596  -19.0563  -14.3928 S   0  0  0  0  0  0  0  0  0  0  0  0
   26.5946  -21.1962  -11.3704 C   0  0  0  0  0  0  0  0  0  0  0  0
   26.1305  -22.2706  -10.8599 O   0  0  0  0  0  0  0  0  0  0  0  0
   27.1874  -20.2637  -10.4781 N   0  0  0  0  0  0  0  0  0  0  0  0
   27.1444  -20.4605   -9.0571 C   0  0  1  0  0  0  0  0  0  0  0  0
   28.1786  -19.6243   -8.3274 C   0  0  0  0  0  0  0  0  0  0  0  0
   28.1255  -19.7692   -6.8810 C   0  0  0  0  0  0  0  0  0  0  0  0
   27.5177  -18.8322   -6.0781 C   0  0  0  0  0  0  0  0  0  0  0  0
   27.4776  -18.9907   -4.6876 C   0  0  0  0  0  0  0  0  0  0  0  0
   28.0516  -20.0970   -4.1019 C   0  0  0  0  0  0  0  0  0  0  0  0
   28.6555  -21.0294   -4.8907 C   0  0  0  0  0  0  0  0  0  0  0  0
   28.6901  -20.8632   -6.2694 C   0  0  0  0  0  0  0  0  0  0  0  0
   25.8282  -20.0970   -8.4727 C   0  0  0  0  0  0  0  0  0  0  0  0
   25.3430  -18.9798   -8.7703 O   0  0  0  0  0  0  0  0  0  0  0  0
   22.7633  -22.3949   -8.5664 C   0  0  0  0  0  0  0  0  0  0  0  0
   22.7333  -20.9274   -8.2573 C   0  0  2  0  0  0  0  0  0  0  0  0
   23.0369  -20.0812   -9.4554 C   0  0  0  0  0  0  0  0  0  0  0  0
   23.7397  -20.6447   -7.1652 C   0  0  2  0  0  0  0  0  0  0  0  0
   25.0974  -20.9406   -7.6029 N   0  0  0  0  0  0  0  0  0  0  0  0
   23.4602  -21.4368   -5.9399 C   0  0  0  0  0  0  0  0  0  0  0  0
   24.2612  -22.3202   -5.5365 O   0  0  0  0  0  0  0  0  0  0  0  0
   22.3124  -21.2517   -5.1760 O   0  0  0  0  0  0  0  0  0  0  0  0
  2  5  1  0
  2  1  1  6
  3  2  1  0
  4  3  1  0
  5  6  2  0
  7  5  1  0
  7  8  1  0
  8  9  1  1
  9 10  1  0
 10 15  2  0
 11 12  2  0
 11 10  1  0
 12 13  1  0
 13 14  2  0
 15 14  1  0
 16 17  2  0
 16  8  1  0
 19 18  1  6
 19 21  1  0
 20 19  1  0
 21 22  1  6
 22 16  1  0
 23 25  1  0
 23 21  1  0
 24 23  2  0
M  END
$$$$
