CFV.pdb
     RDKit          3D

 25 25  0  0  1  0  0  0  0  0999 V2000
   28.4052  -22.1015  -17.7483 N   0  0  0  0  0  0  0  0  0  0  0  0
   27.7632  -20.9373  -17.2236 C   0  0  1  0  0  0  0  0  0  0  0  0
   26.7710  -20.4289  -18.2511 C   0  0  0  0  0  0  0  0  0  0  0  0
   26.0199  -18.8692  -17.6482 S   0  0  0  0  0  0  0  0  0  0  0  0
   27.1235  -21.2250  -15.9366 C   0  0  0  0  0  0  0  0  0  0  0  0
   26.4402  -22.2955  -15.8046 O   0  0  0  0  0  0  0  0  0  0  0  0
   27.2141  -20.3755  -14.8020 N   0  0  0  0  0  0  0  0  0  0  0  0
   26.5026  -20.6706  -13.5910 C   0  0  1  0  0  0  0  0  0  0  0  0
   27.0960  -19.9642  -12.3867 C   0  0  0  0  0  0  0  0  0  0  0  0
   26.4308  -20.2933  -11.1357 C   0  0  0  0  0  0  0  0  0  0  0  0
   26.7204  -21.4432  -10.4387 C   0  0  0  0  0  0  0  0  0  0  0  0
   26.0684  -21.7413   -9.2361 C   0  0  0  0  0  0  0  0  0  0  0  0
   25.1206  -20.8787   -8.7321 C   0  0  0  0  0  0  0  0  0  0  0  0
   24.8284  -19.7377   -9.4170 C   0  0  0  0  0  0  0  0  0  0  0  0
   25.4808  -19.4507  -10.6094 C   0  0  0  0  0  0  0  0  0  0  0  0
   25.0773  -20.2581  -13.6545 C   0  0  0  0  0  0  0  0  0  0  0  0
   24.8215  -19.0874  -14.0233 O   0  0  0  0  0  0  0  0  0  0  0  0
   22.5097  -21.2988  -15.7983 C   0  0  0  0  0  0  0  0  0  0  0  0
   21.8668  -21.5263  -14.4623 C   0  0  2  0  0  0  0  0  0  0  0  0
   20.4138  -21.1624  -14.4540 C   0  0  0  0  0  0  0  0  0  0  0  0
   22.6036  -20.7068  -13.4275 C   0  0  2  0  0  0  0  0  0  0  0  0
   23.9990  -21.1122  -13.3224 N   0  0  0  0  0  0  0  0  0  0  0  0
   21.9798  -20.8251  -12.0846 C   0  0  0  0  0  0  0  0  0  0  0  0
   22.3714  -21.6884  -11.2563 O   0  0  0  0  0  0  0  0  0  0  0  0
   20.9399  -20.0001  -11.6683 O   0  0  0  0  0  0  0  0  0  0  0  0
  2  5  1  0
  2  1  1  6
  3  2  1  0
  4  3  1  0
  5  6  2  0
  7  5  1  0
  7  8  1  0
  8  9  1  1
  9 10  1  0
 10 15  2  0
 11 12  2  0
 11 10  1  0
 12 13  1  0
 13 14  2  0
 15 14  1  0
 16 17  2  0
 16  8  1  0
 19 18  1  6
 19 21  1  0
 20 19  1  0
 21 22  1  1
 22 16  1  0
 23 25  1  0
 23 21  1  0
 24 23  2  0
M  END
$$$$
