CFV.pdb
     RDKit          3D

 25 25  0  0  1  0  0  0  0  0999 V2000
   28.5180  -22.5865  -17.0198 N   0  0  0  0  0  0  0  0  0  0  0  0
   28.2516  -21.3232  -16.4065 C   0  0  1  0  0  0  0  0  0  0  0  0
   27.5679  -20.4286  -17.4219 C   0  0  0  0  0  0  0  0  0  0  0  0
   27.3495  -18.7555  -16.7053 S   0  0  0  0  0  0  0  0  0  0  0  0
   27.4500  -21.4881  -15.1906 C   0  0  0  0  0  0  0  0  0  0  0  0
   26.4711  -22.3078  -15.1945 O   0  0  0  0  0  0  0  0  0  0  0  0
   27.6936  -20.7826  -13.9823 N   0  0  0  0  0  0  0  0  0  0  0  0
   26.8542  -20.9620  -12.8320 C   0  0  1  0  0  0  0  0  0  0  0  0
   27.4888  -20.4208  -11.5648 C   0  0  0  0  0  0  0  0  0  0  0  0
   26.6100  -20.4763  -10.4071 C   0  0  0  0  0  0  0  0  0  0  0  0
   26.1124  -19.3379   -9.8166 C   0  0  0  0  0  0  0  0  0  0  0  0
   25.2677  -19.4133   -8.7026 C   0  0  0  0  0  0  0  0  0  0  0  0
   24.9219  -20.6395   -8.1799 C   0  0  0  0  0  0  0  0  0  0  0  0
   25.4109  -21.7715   -8.7594 C   0  0  0  0  0  0  0  0  0  0  0  0
   26.2483  -21.6864   -9.8645 C   0  0  0  0  0  0  0  0  0  0  0  0
   25.5465  -20.2715  -12.9697 C   0  0  0  0  0  0  0  0  0  0  0  0
   25.5550  -19.0514  -13.2585 O   0  0  0  0  0  0  0  0  0  0  0  0
   22.2472  -21.9230  -14.5513 C   0  0  0  0  0  0  0  0  0  0  0  0
   22.4597  -20.4520  -14.3493 C   0  0  2  0  0  0  0  0  0  0  0  0
   23.3828  -19.8590  -15.3692 C   0  0  0  0  0  0  0  0  0  0  0  0
   23.0225  -20.2326  -12.9635 C   0  0  2  0  0  0  0  0  0  0  0  0
   24.2985  -20.9148  -12.7931 N   0  0  0  0  0  0  0  0  0  0  0  0
   22.0921  -20.7108  -11.9088 C   0  0  0  0  0  0  0  0  0  0  0  0
   22.3395  -21.7491  -11.2414 O   0  0  0  0  0  0  0  0  0  0  0  0
   20.9082  -20.0485  -11.6003 O   0  0  0  0  0  0  0  0  0  0  0  0
  2  5  1  0
  2  1  1  6
  3  2  1  0
  4  3  1  0
  5  6  2  0
  7  5  1  0
  7  8  1  0
  8  9  1  1
  9 10  1  0
 10 15  2  0
 11 12  2  0
 11 10  1  0
 12 13  1  0
 13 14  2  0
 15 14  1  0
 16 17  2  0
 16  8  1  0
 19 18  1  6
 19 21  1  0
 20 19  1  0
 21 22  1  6
 22 16  1  0
 23 25  1  0
 23 21  1  0
 24 23  2  0
M  END
$$$$
