CFV.pdb
     RDKit          3D

 25 25  0  0  1  0  0  0  0  0999 V2000
   27.8749  -23.0315  -17.4446 N   0  0  0  0  0  0  0  0  0  0  0  0
   28.2023  -21.9102  -16.6209 C   0  0  1  0  0  0  0  0  0  0  0  0
   28.0254  -20.6444  -17.4365 C   0  0  0  0  0  0  0  0  0  0  0  0
   26.2415  -20.3794  -17.7644 S   0  0  0  0  0  0  0  0  0  0  0  0
   27.3879  -21.8978  -15.4024 C   0  0  0  0  0  0  0  0  0  0  0  0
   26.3381  -22.6224  -15.3457 O   0  0  0  0  0  0  0  0  0  0  0  0
   27.6938  -21.1176  -14.2558 N   0  0  0  0  0  0  0  0  0  0  0  0
   26.8477  -21.1322  -13.0966 C   0  0  1  0  0  0  0  0  0  0  0  0
   27.5012  -20.4721  -11.8971 C   0  0  0  0  0  0  0  0  0  0  0  0
   26.6507  -20.4416  -10.7175 C   0  0  0  0  0  0  0  0  0  0  0  0
   26.1629  -21.5921  -10.1426 C   0  0  0  0  0  0  0  0  0  0  0  0
   25.3456  -21.5407   -9.0071 C   0  0  0  0  0  0  0  0  0  0  0  0
   25.0173  -20.3263   -8.4470 C   0  0  0  0  0  0  0  0  0  0  0  0
   25.4967  -19.1823   -9.0108 C   0  0  0  0  0  0  0  0  0  0  0  0
   26.3070  -19.2437  -10.1375 C   0  0  0  0  0  0  0  0  0  0  0  0
   25.5665  -20.4147  -13.3192 C   0  0  0  0  0  0  0  0  0  0  0  0
   25.6176  -19.2612  -13.8080 O   0  0  0  0  0  0  0  0  0  0  0  0
   22.0791  -22.1409  -14.4214 C   0  0  0  0  0  0  0  0  0  0  0  0
   22.3771  -20.6734  -14.5081 C   0  0  2  0  0  0  0  0  0  0  0  0
   23.2507  -20.3322  -15.6761 C   0  0  0  0  0  0  0  0  0  0  0  0
   23.0499  -20.2421  -13.2249 C   0  0  2  0  0  0  0  0  0  0  0  0
   24.2984  -20.9617  -13.0106 N   0  0  0  0  0  0  0  0  0  0  0  0
   22.1756  -20.4603  -12.0439 C   0  0  0  0  0  0  0  0  0  0  0  0
   22.3816  -21.4118  -11.2458 O   0  0  0  0  0  0  0  0  0  0  0  0
   21.0921  -19.6374  -11.7539 O   0  0  0  0  0  0  0  0  0  0  0  0
  2  5  1  0
  2  1  1  6
  3  2  1  0
  4  3  1  0
  5  6  2  0
  7  5  1  0
  7  8  1  0
  8  9  1  1
  9 10  1  0
 10 15  2  0
 11 12  2  0
 11 10  1  0
 12 13  1  0
 13 14  2  0
 15 14  1  0
 16 17  2  0
 16  8  1  0
 19 18  1  1
 19 21  1  0
 20 19  1  0
 21 22  1  1
 22 16  1  0
 23 25  1  0
 23 21  1  0
 24 23  2  0
M  END
$$$$
