LCF.pdb
     RDKit          3D

 26 26  0  0  1  0  0  0  0  0999 V2000
   28.1530  -14.9267  -16.0548 C   0  0  0  0  0  0  0  0  0  0  0  0
   27.9903  -16.4170  -15.9851 C   0  0  1  0  0  0  0  0  0  0  0  0
   29.3104  -17.1189  -16.2195 C   0  0  0  0  0  0  0  0  0  0  0  0
   27.2301  -16.9141  -14.8186 C   0  0  0  0  0  0  0  0  0  0  0  0
   27.1479  -18.3744  -14.5936 C   0  0  2  0  0  0  0  0  0  0  0  0
   26.7796  -19.1619  -15.7183 N   0  0  0  0  0  0  0  0  0  0  0  0
   26.3148  -18.7584  -13.4337 C   0  0  0  0  0  0  0  0  0  0  0  0
   25.6591  -17.8545  -12.8614 O   0  0  0  0  0  0  0  0  0  0  0  0
   26.1949  -20.0704  -12.9117 N   0  0  0  0  0  0  0  0  0  0  0  0
   25.3624  -20.3456  -11.7289 C   0  0  1  0  0  0  0  0  0  0  0  0
   24.4594  -21.5253  -12.0098 C   0  0  0  0  0  0  0  0  0  0  0  0
   23.5563  -22.0462  -10.5325 S   0  0  0  0  0  0  0  0  0  0  0  0
   26.2267  -20.6112  -10.5448 C   0  0  0  0  0  0  0  0  0  0  0  0
   27.1731  -21.4045  -10.6586 O   0  0  0  0  0  0  0  0  0  0  0  0
   25.9610  -19.9664   -9.3279 N   0  0  0  0  0  0  0  0  0  0  0  0
   26.6697  -20.2470   -8.1198 C   0  0  1  0  0  0  0  0  0  0  0  0
   27.4410  -19.1022   -7.5486 C   0  0  0  0  0  0  0  0  0  0  0  0
   28.0740  -19.4497   -6.2513 C   0  0  0  0  0  0  0  0  0  0  0  0
   29.2781  -20.1424   -6.2112 C   0  0  0  0  0  0  0  0  0  0  0  0
   29.8897  -20.4791   -5.0278 C   0  0  0  0  0  0  0  0  0  0  0  0
   29.3230  -20.1370   -3.8199 C   0  0  0  0  0  0  0  0  0  0  0  0
   28.1290  -19.4498   -3.8404 C   0  0  0  0  0  0  0  0  0  0  0  0
   27.5153  -19.1120   -5.0287 C   0  0  0  0  0  0  0  0  0  0  0  0
   25.8231  -20.9189   -7.0679 C   0  0  0  0  0  0  0  0  0  0  0  0
   26.3188  -21.8446   -6.1781 O   0  0  0  0  0  0  0  0  0  0  0  0
   24.5942  -20.6239   -6.9866 O   0  0  0  0  0  0  0  0  0  0  0  0
  2  4  1  0
  2  1  1  1
  3  2  1  0
  4  5  1  0
  5  7  1  0
  5  6  1  6
  7  8  2  0
  9 10  1  0
  9  7  1  0
 10 11  1  6
 12 11  1  0
 13 10  1  0
 13 14  2  0
 15 13  1  0
 16 15  1  0
 16 24  1  0
 16 17  1  1
 18 17  1  0
 19 18  2  0
 20 19  1  0
 21 22  1  0
 21 20  2  0
 22 23  2  0
 23 18  1  0
 24 25  1  0
 26 24  2  0
M  END
$$$$
