LCF.pdb
     RDKit          3D

 26 26  0  0  1  0  0  0  0  0999 V2000
   18.8291  -20.3177  -15.0192 C   0  0  0  0  0  0  0  0  0  0  0  0
   19.5244  -20.9414  -13.8445 C   0  0  1  0  0  0  0  0  0  0  0  0
   19.4338  -22.4511  -13.8988 C   0  0  0  0  0  0  0  0  0  0  0  0
   20.8779  -20.4179  -13.5626 C   0  0  0  0  0  0  0  0  0  0  0  0
   21.6515  -21.0107  -12.4491 C   0  0  2  0  0  0  0  0  0  0  0  0
   21.0730  -20.8999  -11.1553 N   0  0  0  0  0  0  0  0  0  0  0  0
   23.0616  -20.5684  -12.3937 C   0  0  0  0  0  0  0  0  0  0  0  0
   23.3814  -19.5536  -13.0591 O   0  0  0  0  0  0  0  0  0  0  0  0
   24.0877  -21.1993  -11.6474 N   0  0  0  0  0  0  0  0  0  0  0  0
   25.4912  -20.7715  -11.7707 C   0  0  1  0  0  0  0  0  0  0  0  0
   26.3020  -21.3665  -10.6417 C   0  0  0  0  0  0  0  0  0  0  0  0
   28.0745  -21.0929  -10.8713 S   0  0  0  0  0  0  0  0  0  0  0  0
   26.0394  -21.1876  -13.0921 C   0  0  0  0  0  0  0  0  0  0  0  0
   25.9046  -22.3662  -13.4533 O   0  0  0  0  0  0  0  0  0  0  0  0
   26.6948  -20.2492  -13.9027 N   0  0  0  0  0  0  0  0  0  0  0  0
   27.1841  -20.5482  -15.2111 C   0  0  1  0  0  0  0  0  0  0  0  0
   26.5869  -19.7423  -16.3182 C   0  0  0  0  0  0  0  0  0  0  0  0
   26.9424  -18.3045  -16.2144 C   0  0  0  0  0  0  0  0  0  0  0  0
   28.0224  -17.7869  -16.9196 C   0  0  0  0  0  0  0  0  0  0  0  0
   28.3776  -16.4617  -16.8454 C   0  0  0  0  0  0  0  0  0  0  0  0
   27.6654  -15.5848  -16.0573 C   0  0  0  0  0  0  0  0  0  0  0  0
   26.5914  -16.0804  -15.3509 C   0  0  0  0  0  0  0  0  0  0  0  0
   26.2351  -17.4109  -15.4257 C   0  0  0  0  0  0  0  0  0  0  0  0
   28.6895  -20.5728  -15.2992 C   0  0  0  0  0  0  0  0  0  0  0  0
   29.5115  -20.0803  -14.3112 O   0  0  0  0  0  0  0  0  0  0  0  0
   29.2375  -21.0709  -16.3265 O   0  0  0  0  0  0  0  0  0  0  0  0
  2  4  1  0
  2  1  1  6
  3  2  1  0
  4  5  1  0
  5  7  1  0
  5  6  1  1
  7  8  2  0
  9 10  1  0
  9  7  1  0
 10 11  1  1
 12 11  1  0
 13 10  1  0
 13 14  2  0
 15 13  1  0
 16 15  1  0
 16 24  1  0
 16 17  1  6
 18 17  1  0
 19 18  2  0
 20 19  1  0
 21 22  1  0
 21 20  2  0
 22 23  2  0
 23 18  1  0
 24 25  1  0
 26 24  2  0
M  END
$$$$
