LCF.pdb
     RDKit          3D

 26 26  0  0  1  0  0  0  0  0999 V2000
   31.2438  -30.4410  -18.2410 C   0  0  0  0  0  0  0  0  0  0  0  0
   29.8536  -30.7239  -18.7305 C   0  0  1  0  0  0  0  0  0  0  0  0
   29.6340  -32.2100  -18.9129 C   0  0  0  0  0  0  0  0  0  0  0  0
   28.7739  -30.0297  -17.9970 C   0  0  0  0  0  0  0  0  0  0  0  0
   27.3709  -30.2726  -18.4001 C   0  0  2  0  0  0  0  0  0  0  0  0
   26.9033  -29.5320  -19.5198 N   0  0  0  0  0  0  0  0  0  0  0  0
   26.3976  -30.1524  -17.2932 C   0  0  0  0  0  0  0  0  0  0  0  0
   26.1146  -28.9990  -16.8877 O   0  0  0  0  0  0  0  0  0  0  0  0
   25.7542  -31.2380  -16.6485 N   0  0  0  0  0  0  0  0  0  0  0  0
   24.6944  -31.0114  -15.6519 C   0  0  1  0  0  0  0  0  0  0  0  0
   23.6217  -30.1274  -16.2469 C   0  0  0  0  0  0  0  0  0  0  0  0
   22.1670  -30.0247  -15.1779 S   0  0  0  0  0  0  0  0  0  0  0  0
   24.1213  -32.3131  -15.2085 C   0  0  0  0  0  0  0  0  0  0  0  0
   23.6687  -33.0911  -16.0617 O   0  0  0  0  0  0  0  0  0  0  0  0
   24.1013  -32.6387  -13.8445 N   0  0  0  0  0  0  0  0  0  0  0  0
   23.5876  -33.8723  -13.3394 C   0  0  1  0  0  0  0  0  0  0  0  0
   24.4230  -34.5335  -12.2922 C   0  0  0  0  0  0  0  0  0  0  0  0
   24.6990  -33.6291  -11.1475 C   0  0  0  0  0  0  0  0  0  0  0  0
   23.7520  -33.4381  -10.1484 C   0  0  0  0  0  0  0  0  0  0  0  0
   23.9762  -32.6084   -9.0764 C   0  0  0  0  0  0  0  0  0  0  0  0
   25.1658  -31.9255   -8.9512 C   0  0  0  0  0  0  0  0  0  0  0  0
   26.1165  -32.1028   -9.9324 C   0  0  0  0  0  0  0  0  0  0  0  0
   25.8910  -32.9359  -11.0084 C   0  0  0  0  0  0  0  0  0  0  0  0
   22.1408  -33.7950  -12.9207 C   0  0  0  0  0  0  0  0  0  0  0  0
   21.4556  -32.6085  -12.7889 O   0  0  0  0  0  0  0  0  0  0  0  0
   21.5125  -34.8674  -12.6780 O   0  0  0  0  0  0  0  0  0  0  0  0
  2  4  1  0
  2  1  1  1
  3  2  1  0
  4  5  1  0
  5  7  1  0
  5  6  1  6
  7  8  2  0
  9 10  1  0
  9  7  1  0
 10 11  1  6
 12 11  1  0
 13 10  1  0
 13 14  2  0
 15 13  1  0
 16 15  1  0
 16 24  1  0
 16 17  1  1
 18 17  1  0
 19 18  2  0
 20 19  1  0
 21 22  1  0
 21 20  2  0
 22 23  2  0
 23 18  1  0
 24 25  1  0
 26 24  2  0
M  END
$$$$
