LCF.pdb
     RDKit          3D

 26 26  0  0  1  0  0  0  0  0999 V2000
   17.0059  -14.6736  -14.6460 C   0  0  0  0  0  0  0  0  0  0  0  0
   15.9141  -13.9131  -15.3403 C   0  0  1  0  0  0  0  0  0  0  0  0
   14.6631  -13.8614  -14.4903 C   0  0  0  0  0  0  0  0  0  0  0  0
   16.3193  -12.6127  -15.9151 C   0  0  0  0  0  0  0  0  0  0  0  0
   15.3188  -11.8274  -16.6716 C   0  0  2  0  0  0  0  0  0  0  0  0
   14.8836  -12.3877  -17.9035 N   0  0  0  0  0  0  0  0  0  0  0  0
   15.6991  -10.4143  -16.8844 C   0  0  0  0  0  0  0  0  0  0  0  0
   16.6789  -10.1798  -17.6325 O   0  0  0  0  0  0  0  0  0  0  0  0
   15.0450   -9.2961  -16.3099 N   0  0  0  0  0  0  0  0  0  0  0  0
   15.4952   -7.9231  -16.5927 C   0  0  1  0  0  0  0  0  0  0  0  0
   14.3007   -6.9969  -16.6290 C   0  0  0  0  0  0  0  0  0  0  0  0
   13.1736   -7.4074  -17.9820 S   0  0  0  0  0  0  0  0  0  0  0  0
   16.4751   -7.4823  -15.5606 C   0  0  0  0  0  0  0  0  0  0  0  0
   16.2440   -7.7329  -14.3682 O   0  0  0  0  0  0  0  0  0  0  0  0
   17.6355   -6.7961  -15.9476 N   0  0  0  0  0  0  0  0  0  0  0  0
   18.6089   -6.3146  -15.0196 C   0  0  1  0  0  0  0  0  0  0  0  0
   19.9652   -6.9299  -15.1366 C   0  0  0  0  0  0  0  0  0  0  0  0
   20.9196   -6.3649  -14.1496 C   0  0  0  0  0  0  0  0  0  0  0  0
   21.1829   -7.0269  -12.9563 C   0  0  0  0  0  0  0  0  0  0  0  0
   22.0602   -6.5311  -12.0224 C   0  0  0  0  0  0  0  0  0  0  0  0
   22.7208   -5.3419  -12.2382 C   0  0  0  0  0  0  0  0  0  0  0  0
   22.4722   -4.6717  -13.4160 C   0  0  0  0  0  0  0  0  0  0  0  0
   21.5912   -5.1698  -14.3533 C   0  0  0  0  0  0  0  0  0  0  0  0
   18.6910   -4.8098  -14.9605 C   0  0  0  0  0  0  0  0  0  0  0  0
   18.8573   -4.0188  -16.0746 O   0  0  0  0  0  0  0  0  0  0  0  0
   18.6013   -4.2326  -13.8370 O   0  0  0  0  0  0  0  0  0  0  0  0
  2  4  1  0
  2  1  1  1
  3  2  1  0
  4  5  1  0
  5  7  1  0
  5  6  1  6
  7  8  2  0
  9 10  1  0
  9  7  1  0
 10 11  1  1
 12 11  1  0
 13 10  1  0
 13 14  2  0
 15 13  1  0
 16 15  1  0
 16 24  1  0
 16 17  1  6
 18 17  1  0
 19 18  2  0
 20 19  1  0
 21 22  1  0
 21 20  2  0
 22 23  2  0
 23 18  1  0
 24 25  1  0
 26 24  2  0
M  END
$$$$
