LCF.pdb
     RDKit          3D

 26 26  0  0  1  0  0  0  0  0999 V2000
   20.5852   -9.9805  -19.9146 C   0  0  0  0  0  0  0  0  0  0  0  0
   19.8500  -10.4621  -18.6981 C   0  0  1  0  0  0  0  0  0  0  0  0
   20.5353  -11.6672  -18.0910 C   0  0  0  0  0  0  0  0  0  0  0  0
   19.4836   -9.4104  -17.7257 C   0  0  0  0  0  0  0  0  0  0  0  0
   18.8411   -9.8108  -16.4542 C   0  0  2  0  0  0  0  0  0  0  0  0
   17.5625  -10.4224  -16.5636 N   0  0  0  0  0  0  0  0  0  0  0  0
   18.7825   -8.7323  -15.4441 C   0  0  0  0  0  0  0  0  0  0  0  0
   17.8655   -7.8824  -15.5504 O   0  0  0  0  0  0  0  0  0  0  0  0
   19.6816   -8.5780  -14.3598 N   0  0  0  0  0  0  0  0  0  0  0  0
   19.5763   -7.4322  -13.4411 C   0  0  1  0  0  0  0  0  0  0  0  0
   19.3632   -7.9332  -12.0305 C   0  0  0  0  0  0  0  0  0  0  0  0
   17.7891   -8.8063  -11.8587 S   0  0  0  0  0  0  0  0  0  0  0  0
   20.8051   -6.5939  -13.5246 C   0  0  0  0  0  0  0  0  0  0  0  0
   21.9066   -7.1532  -13.6338 O   0  0  0  0  0  0  0  0  0  0  0  0
   20.7009   -5.1960  -13.4790 N   0  0  0  0  0  0  0  0  0  0  0  0
   21.7912   -4.3180  -13.7638 C   0  0  1  0  0  0  0  0  0  0  0  0
   22.5375   -4.6111  -15.0244 C   0  0  0  0  0  0  0  0  0  0  0  0
   21.7812   -4.1880  -16.2300 C   0  0  0  0  0  0  0  0  0  0  0  0
   20.9937   -5.0948  -16.9293 C   0  0  0  0  0  0  0  0  0  0  0  0
   20.2818   -4.7354  -18.0482 C   0  0  0  0  0  0  0  0  0  0  0  0
   20.3235   -3.4437  -18.5246 C   0  0  0  0  0  0  0  0  0  0  0  0
   21.0992   -2.5310  -17.8439 C   0  0  0  0  0  0  0  0  0  0  0  0
   21.8137   -2.8922  -16.7206 C   0  0  0  0  0  0  0  0  0  0  0  0
   21.4284   -2.8573  -13.6667 C   0  0  0  0  0  0  0  0  0  0  0  0
   20.1398   -2.4105  -13.4813 O   0  0  0  0  0  0  0  0  0  0  0  0
   22.3454   -1.9885  -13.7558 O   0  0  0  0  0  0  0  0  0  0  0  0
  2  4  1  0
  2  1  1  6
  3  2  1  0
  4  5  1  0
  5  7  1  0
  5  6  1  6
  7  8  2  0
  9 10  1  0
  9  7  1  0
 10 11  1  1
 12 11  1  0
 13 10  1  0
 13 14  2  0
 15 13  1  0
 16 15  1  0
 16 24  1  0
 16 17  1  6
 18 17  1  0
 19 18  2  0
 20 19  1  0
 21 22  1  0
 21 20  2  0
 22 23  2  0
 23 18  1  0
 24 25  1  0
 26 24  2  0
M  END
$$$$
