LCF.pdb
     RDKit          3D

 26 26  0  0  1  0  0  0  0  0999 V2000
   20.6115  -27.4239  -10.8379 C   0  0  0  0  0  0  0  0  0  0  0  0
   20.2135  -28.5870  -11.6989 C   0  0  1  0  0  0  0  0  0  0  0  0
   20.6305  -28.3661  -13.1367 C   0  0  0  0  0  0  0  0  0  0  0  0
   20.5588  -29.9188  -11.1578 C   0  0  0  0  0  0  0  0  0  0  0  0
   20.2746  -31.1156  -11.9804 C   0  0  2  0  0  0  0  0  0  0  0  0
   18.9125  -31.5154  -12.0554 N   0  0  0  0  0  0  0  0  0  0  0  0
   21.1108  -32.2884  -11.6452 C   0  0  0  0  0  0  0  0  0  0  0  0
   20.8617  -32.8963  -10.5760 O   0  0  0  0  0  0  0  0  0  0  0  0
   22.1765  -32.7855  -12.4358 N   0  0  0  0  0  0  0  0  0  0  0  0
   22.9728  -33.9440  -11.9979 C   0  0  1  0  0  0  0  0  0  0  0  0
   23.0025  -34.9815  -13.0972 C   0  0  0  0  0  0  0  0  0  0  0  0
   23.6728  -34.3099  -14.6364 S   0  0  0  0  0  0  0  0  0  0  0  0
   24.3532  -33.5115  -11.6412 C   0  0  0  0  0  0  0  0  0  0  0  0
   24.7620  -32.4139  -12.0486 O   0  0  0  0  0  0  0  0  0  0  0  0
   25.1647  -34.3439  -10.8566 N   0  0  0  0  0  0  0  0  0  0  0  0
   26.4342  -33.9415  -10.3397 C   0  0  1  0  0  0  0  0  0  0  0  0
   26.4394  -32.6518   -9.5856 C   0  0  0  0  0  0  0  0  0  0  0  0
   25.9176  -32.8124   -8.2049 C   0  0  0  0  0  0  0  0  0  0  0  0
   24.7278  -32.2060   -7.8199 C   0  0  0  0  0  0  0  0  0  0  0  0
   24.2180  -32.3348   -6.5506 C   0  0  0  0  0  0  0  0  0  0  0  0
   24.8777  -33.0809   -5.5991 C   0  0  0  0  0  0  0  0  0  0  0  0
   26.0590  -33.6894   -5.9629 C   0  0  0  0  0  0  0  0  0  0  0  0
   26.5705  -33.5598   -7.2375 C   0  0  0  0  0  0  0  0  0  0  0  0
   27.1438  -35.0294   -9.5732 C   0  0  0  0  0  0  0  0  0  0  0  0
   26.5228  -36.1826   -9.1501 O   0  0  0  0  0  0  0  0  0  0  0  0
   28.3726  -34.8889   -9.3011 O   0  0  0  0  0  0  0  0  0  0  0  0
  2  4  1  0
  2  1  1  1
  3  2  1  0
  4  5  1  0
  5  7  1  0
  5  6  1  1
  7  8  2  0
  9 10  1  0
  9  7  1  0
 10 11  1  6
 12 11  1  0
 13 10  1  0
 13 14  2  0
 15 13  1  0
 16 15  1  0
 16 24  1  0
 16 17  1  1
 18 17  1  0
 19 18  2  0
 20 19  1  0
 21 22  1  0
 21 20  2  0
 22 23  2  0
 23 18  1  0
 24 25  1  0
 26 24  2  0
M  END
$$$$
