LCF.pdb
     RDKit          3D

 26 26  0  0  1  0  0  0  0  0999 V2000
   29.4505  -23.8235  -17.3278 C   0  0  0  0  0  0  0  0  0  0  0  0
   28.5459  -24.9905  -17.5964 C   0  0  1  0  0  0  0  0  0  0  0  0
   28.0272  -24.9596  -19.0177 C   0  0  0  0  0  0  0  0  0  0  0  0
   29.0663  -26.3043  -17.1618 C   0  0  0  0  0  0  0  0  0  0  0  0
   28.2381  -27.5087  -17.3932 C   0  0  2  0  0  0  0  0  0  0  0  0
   26.8881  -27.4346  -16.9542 N   0  0  0  0  0  0  0  0  0  0  0  0
   28.8461  -28.7615  -16.8958 C   0  0  0  0  0  0  0  0  0  0  0  0
   30.0909  -28.7840  -16.7391 O   0  0  0  0  0  0  0  0  0  0  0  0
   28.1354  -29.9460  -16.5797 N   0  0  0  0  0  0  0  0  0  0  0  0
   28.8373  -31.1524  -16.1107 C   0  0  1  0  0  0  0  0  0  0  0  0
   27.8387  -32.1189  -15.5152 C   0  0  0  0  0  0  0  0  0  0  0  0
   28.6313  -33.6465  -14.9607 S   0  0  0  0  0  0  0  0  0  0  0  0
   29.5781  -31.7849  -17.2380 C   0  0  0  0  0  0  0  0  0  0  0  0
   29.0545  -31.8080  -18.3620 O   0  0  0  0  0  0  0  0  0  0  0  0
   30.8463  -32.3409  -17.0153 N   0  0  0  0  0  0  0  0  0  0  0  0
   31.6225  -32.9614  -18.0415 C   0  0  1  0  0  0  0  0  0  0  0  0
   33.0952  -32.7228  -17.9639 C   0  0  0  0  0  0  0  0  0  0  0  0
   33.8174  -33.3218  -19.1146 C   0  0  0  0  0  0  0  0  0  0  0  0
   33.9038  -32.6488  -20.3275 C   0  0  0  0  0  0  0  0  0  0  0  0
   34.5644  -33.1753  -21.4111 C   0  0  0  0  0  0  0  0  0  0  0  0
   35.1743  -34.4079  -21.3334 C   0  0  0  0  0  0  0  0  0  0  0  0
   35.0989  -35.0895  -20.1385 C   0  0  0  0  0  0  0  0  0  0  0  0
   34.4356  -34.5606  -19.0509 C   0  0  0  0  0  0  0  0  0  0  0  0
   31.3119  -34.4254  -18.2285 C   0  0  0  0  0  0  0  0  0  0  0  0
   31.3985  -35.3509  -17.2135 O   0  0  0  0  0  0  0  0  0  0  0  0
   30.9497  -34.8363  -19.3703 O   0  0  0  0  0  0  0  0  0  0  0  0
  2  4  1  0
  2  1  1  6
  3  2  1  0
  4  5  1  0
  5  7  1  0
  5  6  1  1
  7  8  2  0
  9 10  1  0
  9  7  1  0
 10 11  1  6
 12 11  1  0
 13 10  1  0
 13 14  2  0
 15 13  1  0
 16 15  1  0
 16 24  1  0
 16 17  1  1
 18 17  1  0
 19 18  2  0
 20 19  1  0
 21 22  1  0
 21 20  2  0
 22 23  2  0
 23 18  1  0
 24 25  1  0
 26 24  2  0
M  END
$$$$
