LCF.pdb
     RDKit          3D

 26 26  0  0  1  0  0  0  0  0999 V2000
   34.2914  -31.1070  -21.2472 C   0  0  0  0  0  0  0  0  0  0  0  0
   34.1893  -29.7523  -20.6093 C   0  0  1  0  0  0  0  0  0  0  0  0
   33.7688  -28.7067  -21.6193 C   0  0  0  0  0  0  0  0  0  0  0  0
   33.4403  -29.7106  -19.3353 C   0  0  0  0  0  0  0  0  0  0  0  0
   33.3349  -28.4224  -18.6147 C   0  0  2  0  0  0  0  0  0  0  0  0
   34.4508  -28.0604  -17.8118 N   0  0  0  0  0  0  0  0  0  0  0  0
   32.0946  -28.2758  -17.8229 C   0  0  0  0  0  0  0  0  0  0  0  0
   32.0866  -28.7442  -16.6588 O   0  0  0  0  0  0  0  0  0  0  0  0
   30.9072  -27.6465  -18.2724 N   0  0  0  0  0  0  0  0  0  0  0  0
   29.7145  -27.5693  -17.4126 C   0  0  1  0  0  0  0  0  0  0  0  0
   29.4111  -26.1220  -17.0978 C   0  0  0  0  0  0  0  0  0  0  0  0
   27.9301  -25.9536  -16.0742 S   0  0  0  0  0  0  0  0  0  0  0  0
   28.5547  -28.2185  -18.0858 C   0  0  0  0  0  0  0  0  0  0  0  0
   28.5130  -28.2356  -19.3252 O   0  0  0  0  0  0  0  0  0  0  0  0
   27.5346  -28.7965  -17.3161 N   0  0  0  0  0  0  0  0  0  0  0  0
   26.3807  -29.4193  -17.8829 C   0  0  1  0  0  0  0  0  0  0  0  0
   26.6547  -30.4126  -18.9646 C   0  0  0  0  0  0  0  0  0  0  0  0
   25.4072  -30.8798  -19.6202 C   0  0  0  0  0  0  0  0  0  0  0  0
   24.9160  -32.1581  -19.3836 C   0  0  0  0  0  0  0  0  0  0  0  0
   23.7649  -32.6208  -19.9742 C   0  0  0  0  0  0  0  0  0  0  0  0
   23.0452  -31.8222  -20.8354 C   0  0  0  0  0  0  0  0  0  0  0  0
   23.5173  -30.5516  -21.0817 C   0  0  0  0  0  0  0  0  0  0  0  0
   24.6730  -30.0875  -20.4885 C   0  0  0  0  0  0  0  0  0  0  0  0
   25.4307  -29.9765  -16.8525 C   0  0  0  0  0  0  0  0  0  0  0  0
   24.1038  -29.6184  -16.7774 O   0  0  0  0  0  0  0  0  0  0  0  0
   25.8615  -30.8185  -16.0104 O   0  0  0  0  0  0  0  0  0  0  0  0
  2  4  1  0
  2  1  1  6
  3  2  1  0
  4  5  1  0
  5  7  1  0
  5  6  1  1
  7  8  2  0
  9 10  1  0
  9  7  1  0
 10 11  1  6
 12 11  1  0
 13 10  1  0
 13 14  2  0
 15 13  1  0
 16 15  1  0
 16 24  1  0
 16 17  1  6
 18 17  1  0
 19 18  2  0
 20 19  1  0
 21 22  1  0
 21 20  2  0
 22 23  2  0
 23 18  1  0
 24 25  1  0
 26 24  2  0
M  END
$$$$
