LCF.pdb
     RDKit          3D

 26 26  0  0  1  0  0  0  0  0999 V2000
   21.1669  -27.0676  -19.4990 C   0  0  0  0  0  0  0  0  0  0  0  0
   22.2035  -28.1505  -19.4263 C   0  0  1  0  0  0  0  0  0  0  0  0
   23.5283  -27.6023  -18.9419 C   0  0  0  0  0  0  0  0  0  0  0  0
   21.7706  -29.3930  -18.7522 C   0  0  0  0  0  0  0  0  0  0  0  0
   22.7411  -30.5015  -18.6134 C   0  0  2  0  0  0  0  0  0  0  0  0
   23.1400  -31.1398  -19.8192 N   0  0  0  0  0  0  0  0  0  0  0  0
   22.3451  -31.5274  -17.6247 C   0  0  0  0  0  0  0  0  0  0  0  0
   21.2527  -32.1187  -17.8029 O   0  0  0  0  0  0  0  0  0  0  0  0
   23.1013  -31.9005  -16.4858 N   0  0  0  0  0  0  0  0  0  0  0  0
   22.6588  -32.9924  -15.6028 C   0  0  1  0  0  0  0  0  0  0  0  0
   22.6047  -34.2849  -16.3854 C   0  0  0  0  0  0  0  0  0  0  0  0
   22.3698  -35.7151  -15.3043 S   0  0  0  0  0  0  0  0  0  0  0  0
   23.5815  -33.1165  -14.4397 C   0  0  0  0  0  0  0  0  0  0  0  0
   24.7853  -33.3288  -14.6489 O   0  0  0  0  0  0  0  0  0  0  0  0
   23.0811  -32.9928  -13.1353 N   0  0  0  0  0  0  0  0  0  0  0  0
   23.8892  -33.1436  -11.9670 C   0  0  1  0  0  0  0  0  0  0  0  0
   24.0136  -31.9248  -11.1121 C   0  0  0  0  0  0  0  0  0  0  0  0
   24.8073  -32.1848   -9.8846 C   0  0  0  0  0  0  0  0  0  0  0  0
   24.1836  -32.3155   -8.6495 C   0  0  0  0  0  0  0  0  0  0  0  0
   24.8889  -32.5562   -7.4952 C   0  0  0  0  0  0  0  0  0  0  0  0
   26.2606  -32.6784   -7.5206 C   0  0  0  0  0  0  0  0  0  0  0  0
   26.8960  -32.5517   -8.7365 C   0  0  0  0  0  0  0  0  0  0  0  0
   26.1875  -32.3101   -9.8951 C   0  0  0  0  0  0  0  0  0  0  0  0
   23.5373  -34.3582  -11.1450 C   0  0  0  0  0  0  0  0  0  0  0  0
   24.4758  -35.1279  -10.4960 O   0  0  0  0  0  0  0  0  0  0  0  0
   22.3217  -34.6961  -11.0360 O   0  0  0  0  0  0  0  0  0  0  0  0
  2  4  1  0
  2  1  1  1
  3  2  1  0
  4  5  1  0
  5  7  1  0
  5  6  1  6
  7  8  2  0
  9 10  1  0
  9  7  1  0
 10 11  1  6
 12 11  1  0
 13 10  1  0
 13 14  2  0
 15 13  1  0
 16 15  1  0
 16 24  1  0
 16 17  1  1
 18 17  1  0
 19 18  2  0
 20 19  1  0
 21 22  1  0
 21 20  2  0
 22 23  2  0
 23 18  1  0
 24 25  1  0
 26 24  2  0
M  END
$$$$
