LCF.pdb
     RDKit          3D

 26 26  0  0  1  0  0  0  0  0999 V2000
   24.1884  -14.8649  -16.6023 C   0  0  0  0  0  0  0  0  0  0  0  0
   25.4973  -15.5174  -16.2657 C   0  0  1  0  0  0  0  0  0  0  0  0
   26.3604  -14.6014  -15.4253 C   0  0  0  0  0  0  0  0  0  0  0  0
   25.3990  -16.9028  -15.7591 C   0  0  0  0  0  0  0  0  0  0  0  0
   26.6169  -17.5528  -15.2261 C   0  0  2  0  0  0  0  0  0  0  0  0
   27.7424  -17.5822  -16.0940 N   0  0  0  0  0  0  0  0  0  0  0  0
   26.3857  -18.9070  -14.6790 C   0  0  0  0  0  0  0  0  0  0  0  0
   25.2123  -19.3514  -14.6976 O   0  0  0  0  0  0  0  0  0  0  0  0
   27.3852  -19.7495  -14.1320 N   0  0  0  0  0  0  0  0  0  0  0  0
   27.0526  -21.0862  -13.6119 C   0  0  1  0  0  0  0  0  0  0  0  0
   28.2689  -21.9800  -13.7003 C   0  0  0  0  0  0  0  0  0  0  0  0
   28.8790  -22.1178  -15.3968 S   0  0  0  0  0  0  0  0  0  0  0  0
   26.5727  -20.9838  -12.2052 C   0  0  0  0  0  0  0  0  0  0  0  0
   27.3846  -20.6935  -11.3139 O   0  0  0  0  0  0  0  0  0  0  0  0
   25.2211  -21.2149  -11.9101 N   0  0  0  0  0  0  0  0  0  0  0  0
   24.6410  -20.9529  -10.6313 C   0  0  1  0  0  0  0  0  0  0  0  0
   25.0525  -19.6667   -9.9923 C   0  0  0  0  0  0  0  0  0  0  0  0
   25.8568  -19.8878   -8.7640 C   0  0  0  0  0  0  0  0  0  0  0  0
   25.8179  -21.1077   -8.0992 C   0  0  0  0  0  0  0  0  0  0  0  0
   26.5498  -21.3445   -6.9608 C   0  0  0  0  0  0  0  0  0  0  0  0
   27.3609  -20.3664   -6.4289 C   0  0  0  0  0  0  0  0  0  0  0  0
   27.4119  -19.1505   -7.0748 C   0  0  0  0  0  0  0  0  0  0  0  0
   26.6769  -18.9133   -8.2177 C   0  0  0  0  0  0  0  0  0  0  0  0
   23.1431  -21.1262  -10.6033 C   0  0  0  0  0  0  0  0  0  0  0  0
   22.4245  -21.2962   -9.4417 O   0  0  0  0  0  0  0  0  0  0  0  0
   22.5020  -21.1138  -11.6953 O   0  0  0  0  0  0  0  0  0  0  0  0
  2  4  1  0
  2  1  1  1
  3  2  1  0
  4  5  1  0
  5  7  1  0
  5  6  1  6
  7  8  2  0
  9 10  1  0
  9  7  1  0
 10 11  1  1
 12 11  1  0
 13 10  1  0
 13 14  2  0
 15 13  1  0
 16 15  1  0
 16 24  1  0
 16 17  1  6
 18 17  1  0
 19 18  2  0
 20 19  1  0
 21 22  1  0
 21 20  2  0
 22 23  2  0
 23 18  1  0
 24 25  1  0
 26 24  2  0
M  END
$$$$
