LCF.pdb
     RDKit          3D

 26 26  0  0  1  0  0  0  0  0999 V2000
   18.9839  -13.4648  -18.2301 C   0  0  0  0  0  0  0  0  0  0  0  0
   20.4297  -13.8427  -18.3692 C   0  0  1  0  0  0  0  0  0  0  0  0
   20.7845  -14.1096  -19.8159 C   0  0  0  0  0  0  0  0  0  0  0  0
   21.3818  -12.9648  -17.6561 C   0  0  0  0  0  0  0  0  0  0  0  0
   22.8248  -13.2883  -17.7110 C   0  0  2  0  0  0  0  0  0  0  0  0
   23.1993  -14.5681  -17.2182 N   0  0  0  0  0  0  0  0  0  0  0  0
   23.6959  -12.2574  -17.1065 C   0  0  0  0  0  0  0  0  0  0  0  0
   23.1427  -11.3104  -16.4968 O   0  0  0  0  0  0  0  0  0  0  0  0
   25.1119  -12.2502  -17.1591 N   0  0  0  0  0  0  0  0  0  0  0  0
   25.8873  -11.1159  -16.6298 C   0  0  1  0  0  0  0  0  0  0  0  0
   27.3574  -11.4689  -16.6208 C   0  0  0  0  0  0  0  0  0  0  0  0
   28.3869  -10.0462  -16.1900 S   0  0  0  0  0  0  0  0  0  0  0  0
   25.6406   -9.8984  -17.4523 C   0  0  0  0  0  0  0  0  0  0  0  0
   25.5768  -10.0105  -18.6857 O   0  0  0  0  0  0  0  0  0  0  0  0
   25.4852   -8.6529  -16.8265 N   0  0  0  0  0  0  0  0  0  0  0  0
   25.2131   -7.4451  -17.5390 C   0  0  1  0  0  0  0  0  0  0  0  0
   23.7765   -7.2085  -17.8741 C   0  0  0  0  0  0  0  0  0  0  0  0
   22.9838   -6.8183  -16.6809 C   0  0  0  0  0  0  0  0  0  0  0  0
   22.1841   -7.7463  -16.0245 C   0  0  0  0  0  0  0  0  0  0  0  0
   21.4386   -7.4175  -14.9182 C   0  0  0  0  0  0  0  0  0  0  0  0
   21.4571   -6.1367  -14.4118 C   0  0  0  0  0  0  0  0  0  0  0  0
   22.2444   -5.2032  -15.0498 C   0  0  0  0  0  0  0  0  0  0  0  0
   22.9927   -5.5338  -16.1604 C   0  0  0  0  0  0  0  0  0  0  0  0
   25.8403   -6.2239  -16.9145 C   0  0  0  0  0  0  0  0  0  0  0  0
   25.7858   -4.9723  -17.4847 O   0  0  0  0  0  0  0  0  0  0  0  0
   26.4478   -6.3413  -15.8097 O   0  0  0  0  0  0  0  0  0  0  0  0
  2  4  1  0
  2  1  1  6
  3  2  1  0
  4  5  1  0
  5  7  1  0
  5  6  1  1
  7  8  2  0
  9 10  1  0
  9  7  1  0
 10 11  1  6
 12 11  1  0
 13 10  1  0
 13 14  2  0
 15 13  1  0
 16 15  1  0
 16 24  1  0
 16 17  1  1
 18 17  1  0
 19 18  2  0
 20 19  1  0
 21 22  1  0
 21 20  2  0
 22 23  2  0
 23 18  1  0
 24 25  1  0
 26 24  2  0
M  END
$$$$
