LCF.pdb
     RDKit          3D

 26 26  0  0  1  0  0  0  0  0999 V2000
   25.6046  -21.3462  -13.1878 C   0  0  0  0  0  0  0  0  0  0  0  0
   24.8760  -21.9036  -14.3755 C   0  0  1  0  0  0  0  0  0  0  0  0
   25.7404  -22.8916  -15.1283 C   0  0  0  0  0  0  0  0  0  0  0  0
   23.4998  -22.3725  -14.1074 C   0  0  0  0  0  0  0  0  0  0  0  0
   22.7268  -22.9779  -15.2146 C   0  0  2  0  0  0  0  0  0  0  0  0
   22.4475  -22.1300  -16.3208 N   0  0  0  0  0  0  0  0  0  0  0  0
   21.4799  -23.6456  -14.7830 C   0  0  0  0  0  0  0  0  0  0  0  0
   20.5405  -22.9203  -14.3755 O   0  0  0  0  0  0  0  0  0  0  0  0
   21.2565  -25.0449  -14.7914 N   0  0  0  0  0  0  0  0  0  0  0  0
   19.9843  -25.6153  -14.3181 C   0  0  1  0  0  0  0  0  0  0  0  0
   19.6168  -26.8082  -15.1712 C   0  0  0  0  0  0  0  0  0  0  0  0
   18.1100  -27.6160  -14.5824 S   0  0  0  0  0  0  0  0  0  0  0  0
   20.0996  -26.0054  -12.8848 C   0  0  0  0  0  0  0  0  0  0  0  0
   21.1392  -26.5579  -12.4952 O   0  0  0  0  0  0  0  0  0  0  0  0
   19.0403  -25.7451  -12.0031 N   0  0  0  0  0  0  0  0  0  0  0  0
   19.0687  -26.0928  -10.6179 C   0  0  1  0  0  0  0  0  0  0  0  0
   19.0950  -24.9398   -9.6682 C   0  0  0  0  0  0  0  0  0  0  0  0
   18.8046  -25.3603   -8.2742 C   0  0  0  0  0  0  0  0  0  0  0  0
   18.5014  -26.6843   -7.9799 C   0  0  0  0  0  0  0  0  0  0  0  0
   18.2281  -27.1057   -6.7011 C   0  0  0  0  0  0  0  0  0  0  0  0
   18.2449  -26.2177   -5.6483 C   0  0  0  0  0  0  0  0  0  0  0  0
   18.5435  -24.9007   -5.9213 C   0  0  0  0  0  0  0  0  0  0  0  0
   18.8179  -24.4781   -7.2054 C   0  0  0  0  0  0  0  0  0  0  0  0
   18.0169  -27.1013  -10.2292 C   0  0  0  0  0  0  0  0  0  0  0  0
   16.8884  -27.3422  -10.9795 O   0  0  0  0  0  0  0  0  0  0  0  0
   18.1683  -27.7683   -9.1634 O   0  0  0  0  0  0  0  0  0  0  0  0
  2  4  1  0
  2  1  1  1
  3  2  1  0
  4  5  1  0
  5  7  1  0
  5  6  1  6
  7  8  2  0
  9 10  1  0
  9  7  1  0
 10 11  1  6
 12 11  1  0
 13 10  1  0
 13 14  2  0
 15 13  1  0
 16 15  1  0
 16 24  1  0
 16 17  1  1
 18 17  1  0
 19 18  2  0
 20 19  1  0
 21 22  1  0
 21 20  2  0
 22 23  2  0
 23 18  1  0
 24 25  1  0
 26 24  2  0
M  END
$$$$
