QRP.pdb
     RDKit          3D

 28 28  0  0  1  0  0  0  0  0999 V2000
   25.7517  -26.3749  -16.0543 N   0  0  0  0  0  0  0  0  0  0  0  0
   26.6509  -26.5992  -17.1221 C   0  0  0  0  0  0  0  0  0  0  0  0
   26.4107  -27.4965  -17.9587 O   0  0  0  0  0  0  0  0  0  0  0  0
   27.8626  -25.7853  -17.2530 C   0  0  0  0  0  0  0  0  0  0  0  0
   27.9382  -24.7274  -16.1684 C   0  0  0  0  0  0  0  0  0  0  0  0
   28.0480  -23.3841  -16.8522 C   0  0  2  0  0  0  0  0  0  0  0  0
   29.3409  -23.2724  -17.4541 N   0  0  0  0  0  0  0  0  0  0  0  0
   27.7116  -22.2506  -15.9626 C   0  0  0  0  0  0  0  0  0  0  0  0
   28.4729  -22.0208  -15.0058 O   0  0  0  0  0  0  0  0  0  0  0  0
   20.2734  -19.5762  -15.1779 N   0  0  0  0  0  0  0  0  0  0  0  0
   21.0088  -18.5989  -15.8974 C   0  0  0  0  0  0  0  0  0  0  0  0
   20.4751  -17.4795  -16.2392 N   0  0  0  0  0  0  0  0  0  0  0  0
   22.3525  -18.8872  -16.2313 N   0  0  0  0  0  0  0  0  0  0  0  0
   23.3742  -17.8924  -15.8833 C   0  0  0  0  0  0  0  0  0  0  0  0
   24.4413  -18.6314  -15.1229 C   0  0  0  0  0  0  0  0  0  0  0  0
   25.1236  -19.6043  -16.0463 C   0  0  0  0  0  0  0  0  0  0  0  0
   26.0933  -20.4422  -15.2079 C   0  0  2  0  0  0  0  0  0  0  0  0
   26.5811  -21.4487  -16.1681 N   0  0  0  0  0  0  0  0  0  0  0  0
   25.2261  -21.1779  -14.2394 C   0  0  0  0  0  0  0  0  0  0  0  0
   24.4682  -22.0694  -14.7330 O   0  0  0  0  0  0  0  0  0  0  0  0
   21.0743  -16.7057  -16.6056 N   0  0  0  0  0  0  0  0  0  0  0  0
   25.2208  -20.9275  -12.8406 C   0  0  0  0  0  0  0  0  0  0  0  0
   26.0517  -19.8776  -12.2469 C   0  0  0  0  0  0  0  0  0  0  0  0
   25.5298  -19.7317  -10.8344 C   0  0  0  0  0  0  0  0  0  0  0  0
   25.1770  -21.1898  -10.5305 C   0  0  2  0  0  0  0  0  0  0  0  0
   24.4563  -21.5623  -11.8232 C   0  0  0  0  0  0  0  0  0  0  0  0
   23.1130  -20.9117  -11.7313 O   0  0  0  0  0  0  0  0  0  0  0  0
   22.2707  -21.4457  -10.9710 O   0  0  0  0  0  0  0  0  0  0  0  0
  2  1  1  0
  3  2  2  0
  4  2  1  0
  5  4  1  0
  6  5  1  0
  6  7  1  1
  8 18  1  0
  8  6  1  0
  9  8  2  0
 10 11  1  0
 11 12  2  0
 11 13  1  0
 13 14  1  0
 15 14  1  0
 17 16  1  6
 16 15  1  0
 17 18  1  0
 19 17  1  0
 20 19  2  0
 21 22  1  0
 21 19  1  0
 23 22  1  0
 24 25  1  0
 24 23  1  0
 25 21  1  0
 26 28  1  0
 25 26  1  1
 27 26  2  0
M  END
$$$$
