QRP.pdb
     RDKit          3D

 28 28  0  0  1  0  0  0  0  0999 V2000
   18.7928  -20.2308  -12.0527 N   0  0  0  0  0  0  0  0  0  0  0  0
   19.3003  -21.5192  -12.3380 C   0  0  0  0  0  0  0  0  0  0  0  0
   18.6337  -22.5315  -12.0318 O   0  0  0  0  0  0  0  0  0  0  0  0
   20.6033  -21.6739  -12.9906 C   0  0  0  0  0  0  0  0  0  0  0  0
   21.2374  -20.3278  -13.2860 C   0  0  0  0  0  0  0  0  0  0  0  0
   22.2391  -20.5329  -14.3989 C   0  0  2  0  0  0  0  0  0  0  0  0
   22.6532  -21.9022  -14.4060 N   0  0  0  0  0  0  0  0  0  0  0  0
   23.3665  -19.5759  -14.3488 C   0  0  0  0  0  0  0  0  0  0  0  0
   23.0935  -18.3640  -14.2812 O   0  0  0  0  0  0  0  0  0  0  0  0
   25.8022  -20.8935   -9.0428 N   0  0  0  0  0  0  0  0  0  0  0  0
   24.7115  -21.0003   -9.9442 C   0  0  0  0  0  0  0  0  0  0  0  0
   23.4953  -20.9211   -9.5330 N   0  0  0  0  0  0  0  0  0  0  0  0
   24.9962  -21.1965  -11.3156 N   0  0  0  0  0  0  0  0  0  0  0  0
   26.3945  -21.0857  -11.7484 C   0  0  0  0  0  0  0  0  0  0  0  0
   26.3837  -21.2112  -13.2474 C   0  0  0  0  0  0  0  0  0  0  0  0
   26.9986  -19.9779  -13.8520 C   0  0  0  0  0  0  0  0  0  0  0  0
   25.8587  -19.0784  -14.3385 C   0  0  2  0  0  0  0  0  0  0  0  0
   24.7036  -19.9936  -14.3755 N   0  0  0  0  0  0  0  0  0  0  0  0
   26.1921  -18.7725  -15.7622 C   0  0  0  0  0  0  0  0  0  0  0  0
   26.0553  -19.7291  -16.5862 O   0  0  0  0  0  0  0  0  0  0  0  0
   22.7070  -21.0341  -10.2096 N   0  0  0  0  0  0  0  0  0  0  0  0
   26.6371  -17.4995  -16.2099 C   0  0  0  0  0  0  0  0  0  0  0  0
   27.0001  -16.4393  -15.2668 C   0  0  0  0  0  0  0  0  0  0  0  0
   27.6991  -15.3987  -16.1137 C   0  0  0  0  0  0  0  0  0  0  0  0
   26.8887  -15.5214  -17.4064 C   0  0  1  0  0  0  0  0  0  0  0  0
   26.8350  -17.0407  -17.5413 C   0  0  0  0  0  0  0  0  0  0  0  0
   28.1957  -17.4466  -18.0102 O   0  0  0  0  0  0  0  0  0  0  0  0
   28.4992  -17.1656  -19.1942 O   0  0  0  0  0  0  0  0  0  0  0  0
  2  1  1  0
  3  2  2  0
  4  2  1  0
  5  4  1  0
  6  5  1  0
  6  7  1  1
  8 18  1  0
  8  6  1  0
  9  8  2  0
 10 11  1  0
 11 12  2  0
 11 13  1  0
 13 14  1  0
 15 14  1  0
 17 16  1  6
 16 15  1  0
 17 18  1  0
 19 17  1  0
 20 19  2  0
 21 22  1  0
 21 19  1  0
 23 22  1  0
 24 25  1  0
 24 23  1  0
 25 21  1  0
 26 28  1  0
 25 26  1  6
 27 26  2  0
M  END
$$$$
