QRP.pdb
     RDKit          3D

 28 28  0  0  1  0  0  0  0  0999 V2000
   28.3715  -19.8422  -22.0262 N   0  0  0  0  0  0  0  0  0  0  0  0
   27.0970  -19.7718  -22.6343 C   0  0  0  0  0  0  0  0  0  0  0  0
   26.9250  -20.2547  -23.7744 O   0  0  0  0  0  0  0  0  0  0  0  0
   25.9771  -19.1359  -21.9348 C   0  0  0  0  0  0  0  0  0  0  0  0
   26.4277  -18.4978  -20.6345 C   0  0  0  0  0  0  0  0  0  0  0  0
   26.3628  -19.5605  -19.5618 C   0  0  2  0  0  0  0  0  0  0  0  0
   25.2772  -20.4466  -19.8492 N   0  0  0  0  0  0  0  0  0  0  0  0
   26.3211  -19.0012  -18.1924 C   0  0  0  0  0  0  0  0  0  0  0  0
   27.1754  -18.1490  -17.8897 O   0  0  0  0  0  0  0  0  0  0  0  0
   20.4300  -20.1313  -17.6673 N   0  0  0  0  0  0  0  0  0  0  0  0
   20.6064  -19.9398  -16.2724 C   0  0  0  0  0  0  0  0  0  0  0  0
   20.1076  -20.7612  -15.4174 N   0  0  0  0  0  0  0  0  0  0  0  0
   21.3499  -18.8163  -15.8421 N   0  0  0  0  0  0  0  0  0  0  0  0
   21.8650  -17.9010  -16.8677 C   0  0  0  0  0  0  0  0  0  0  0  0
   23.3307  -18.2082  -17.0100 C   0  0  0  0  0  0  0  0  0  0  0  0
   23.9182  -18.4609  -15.6477 C   0  0  0  0  0  0  0  0  0  0  0  0
   25.3522  -18.9615  -15.8433 C   0  0  2  0  0  0  0  0  0  0  0  0
   25.3637  -19.4004  -17.2506 N   0  0  0  0  0  0  0  0  0  0  0  0
   25.4403  -20.2046  -15.0197 C   0  0  0  0  0  0  0  0  0  0  0  0
   24.8062  -21.2130  -15.4600 O   0  0  0  0  0  0  0  0  0  0  0  0
   20.2397  -20.5941  -14.3944 N   0  0  0  0  0  0  0  0  0  0  0  0
   26.1807  -20.2961  -13.8103 C   0  0  0  0  0  0  0  0  0  0  0  0
   26.9361  -19.1561  -13.2860 C   0  0  0  0  0  0  0  0  0  0  0  0
   27.3016  -19.5579  -11.8741 C   0  0  0  0  0  0  0  0  0  0  0  0
   27.5301  -21.0578  -12.0763 C   0  0  2  0  0  0  0  0  0  0  0  0
   26.3066  -21.3997  -12.9222 C   0  0  0  0  0  0  0  0  0  0  0  0
   25.1537  -21.4059  -11.9699 O   0  0  0  0  0  0  0  0  0  0  0  0
   24.3990  -20.4044  -11.9804 O   0  0  0  0  0  0  0  0  0  0  0  0
  2  1  1  0
  3  2  2  0
  4  2  1  0
  5  4  1  0
  6  5  1  0
  6  7  1  6
  8 18  1  0
  8  6  1  0
  9  8  2  0
 10 11  1  0
 11 12  2  0
 11 13  1  0
 13 14  1  0
 15 14  1  0
 17 16  1  1
 16 15  1  0
 17 18  1  0
 19 17  1  0
 20 19  2  0
 21 22  1  0
 21 19  1  0
 23 22  1  0
 24 25  1  0
 24 23  1  0
 25 21  1  0
 26 28  1  0
 25 26  1  1
 27 26  2  0
M  END
$$$$
