QRP.pdb
     RDKit          3D

 28 28  0  0  1  0  0  0  0  0999 V2000
   22.2023  -13.8296  -18.5789 N   0  0  0  0  0  0  0  0  0  0  0  0
   23.5395  -13.7817  -19.0352 C   0  0  0  0  0  0  0  0  0  0  0  0
   23.9827  -12.7331  -19.5518 O   0  0  0  0  0  0  0  0  0  0  0  0
   24.4085  -14.9547  -18.9055 C   0  0  0  0  0  0  0  0  0  0  0  0
   23.6462  -16.1512  -18.3685 C   0  0  0  0  0  0  0  0  0  0  0  0
   24.6433  -17.2676  -18.1600 C   0  0  2  0  0  0  0  0  0  0  0  0
   25.5425  -17.3025  -19.2720 N   0  0  0  0  0  0  0  0  0  0  0  0
   24.0039  -18.5717  -17.8774 C   0  0  0  0  0  0  0  0  0  0  0  0
   23.7048  -19.2913  -18.8472 O   0  0  0  0  0  0  0  0  0  0  0  0
   25.5737  -20.9151  -10.7474 N   0  0  0  0  0  0  0  0  0  0  0  0
   24.1692  -20.7859  -10.5917 C   0  0  0  0  0  0  0  0  0  0  0  0
   23.6630  -20.1804   -9.5759 N   0  0  0  0  0  0  0  0  0  0  0  0
   23.3336  -21.3423  -11.5879 N   0  0  0  0  0  0  0  0  0  0  0  0
   23.9395  -21.6784  -12.8820 C   0  0  0  0  0  0  0  0  0  0  0  0
   23.5380  -20.5842  -13.8330 C   0  0  0  0  0  0  0  0  0  0  0  0
   24.1152  -20.8732  -15.1925 C   0  0  0  0  0  0  0  0  0  0  0  0
   23.1465  -20.3153  -16.2392 C   0  0  2  0  0  0  0  0  0  0  0  0
   23.7336  -19.0048  -16.5726 N   0  0  0  0  0  0  0  0  0  0  0  0
   21.8899  -20.0277  -15.4844 C   0  0  0  0  0  0  0  0  0  0  0  0
   21.9884  -19.1932  -14.5321 O   0  0  0  0  0  0  0  0  0  0  0  0
   22.6308  -20.0271   -9.5206 N   0  0  0  0  0  0  0  0  0  0  0  0
   20.6375  -20.6289  -15.7833 C   0  0  0  0  0  0  0  0  0  0  0  0
   20.5167  -21.6901  -16.7856 C   0  0  0  0  0  0  0  0  0  0  0  0
   19.1293  -22.2558  -16.5762 C   0  0  0  0  0  0  0  0  0  0  0  0
   18.3763  -20.9778  -16.1989 C   0  0  2  0  0  0  0  0  0  0  0  0
   19.3639  -20.3729  -15.2047 C   0  0  0  0  0  0  0  0  0  0  0  0
   19.2143  -21.1798  -13.9547 O   0  0  0  0  0  0  0  0  0  0  0  0
   18.2132  -20.9418  -13.2378 O   0  0  0  0  0  0  0  0  0  0  0  0
  2  1  1  0
  3  2  2  0
  4  2  1  0
  5  4  1  0
  6  5  1  0
  6  7  1  6
  8 18  1  0
  8  6  1  0
  9  8  2  0
 10 11  1  0
 11 12  2  0
 11 13  1  0
 13 14  1  0
 15 14  1  0
 17 16  1  1
 16 15  1  0
 17 18  1  0
 19 17  1  0
 20 19  2  0
 21 22  1  0
 21 19  1  0
 23 22  1  0
 24 25  1  0
 24 23  1  0
 25 21  1  0
 26 28  1  0
 25 26  1  1
 27 26  2  0
M  END
$$$$
