QRP.pdb
     RDKit          3D

 28 28  0  0  1  0  0  0  0  0999 V2000
   24.7929  -25.9125  -19.7224 N   0  0  0  0  0  0  0  0  0  0  0  0
   25.5096  -24.6959  -19.6500 C   0  0  0  0  0  0  0  0  0  0  0  0
   26.1742  -24.3067  -20.6347 O   0  0  0  0  0  0  0  0  0  0  0  0
   25.4773  -23.8892  -18.4268 C   0  0  0  0  0  0  0  0  0  0  0  0
   24.5578  -24.4993  -17.3860 C   0  0  0  0  0  0  0  0  0  0  0  0
   25.2589  -24.4047  -16.0504 C   0  0  2  0  0  0  0  0  0  0  0  0
   25.7542  -25.6979  -15.6920 N   0  0  0  0  0  0  0  0  0  0  0  0
   24.4246  -23.7805  -14.9998 C   0  0  0  0  0  0  0  0  0  0  0  0
   23.5258  -24.4722  -14.4883 O   0  0  0  0  0  0  0  0  0  0  0  0
   29.4792  -21.0845  -12.2845 N   0  0  0  0  0  0  0  0  0  0  0  0
   29.0610  -21.1587  -10.9305 C   0  0  0  0  0  0  0  0  0  0  0  0
   29.9082  -21.0878   -9.9652 N   0  0  0  0  0  0  0  0  0  0  0  0
   27.6802  -21.3128  -10.6664 N   0  0  0  0  0  0  0  0  0  0  0  0
   26.7366  -20.5217  -11.4656 C   0  0  0  0  0  0  0  0  0  0  0  0
   25.7272  -21.4941  -12.0119 C   0  0  0  0  0  0  0  0  0  0  0  0
   24.7979  -20.7696  -12.9479 C   0  0  0  0  0  0  0  0  0  0  0  0
   23.8228  -21.7988  -13.5269 C   0  0  2  0  0  0  0  0  0  0  0  0
   24.6189  -22.4588  -14.5776 N   0  0  0  0  0  0  0  0  0  0  0  0
   22.7875  -20.9893  -14.2370 C   0  0  0  0  0  0  0  0  0  0  0  0
   23.2123  -20.2151  -15.1497 O   0  0  0  0  0  0  0  0  0  0  0  0
   29.5817  -21.1760   -8.9765 N   0  0  0  0  0  0  0  0  0  0  0  0
   21.3992  -21.0536  -13.9410 C   0  0  0  0  0  0  0  0  0  0  0  0
   20.8893  -21.8584  -12.8286 C   0  0  0  0  0  0  0  0  0  0  0  0
   19.4524  -21.4147  -12.6644 C   0  0  0  0  0  0  0  0  0  0  0  0
   19.0839  -21.1630  -14.1285 C   0  0  1  0  0  0  0  0  0  0  0  0
   20.3182  -20.3882  -14.5822 C   0  0  0  0  0  0  0  0  0  0  0  0
   20.1631  -19.0185  -14.0025 O   0  0  0  0  0  0  0  0  0  0  0  0
   19.3425  -18.2517  -14.5607 O   0  0  0  0  0  0  0  0  0  0  0  0
  2  1  1  0
  3  2  2  0
  4  2  1  0
  5  4  1  0
  6  5  1  0
  6  7  1  1
  8 18  1  0
  8  6  1  0
  9  8  2  0
 10 11  1  0
 11 12  2  0
 11 13  1  0
 13 14  1  0
 15 14  1  0
 17 16  1  6
 16 15  1  0
 17 18  1  0
 19 17  1  0
 20 19  2  0
 21 22  1  0
 21 19  1  0
 23 22  1  0
 24 25  1  0
 24 23  1  0
 25 21  1  0
 26 28  1  0
 25 26  1  1
 27 26  2  0
M  END
$$$$
