QRP.pdb
     RDKit          3D

 28 28  0  0  1  0  0  0  0  0999 V2000
   27.0336  -18.6523  -10.6143 N   0  0  0  0  0  0  0  0  0  0  0  0
   27.7348  -19.3507  -11.6240 C   0  0  0  0  0  0  0  0  0  0  0  0
   28.8215  -18.9025  -12.0495 O   0  0  0  0  0  0  0  0  0  0  0  0
   27.1943  -20.5970  -12.1740 C   0  0  0  0  0  0  0  0  0  0  0  0
   25.8895  -20.9786  -11.5011 C   0  0  0  0  0  0  0  0  0  0  0  0
   25.3705  -22.2199  -12.1895 C   0  0  2  0  0  0  0  0  0  0  0  0
   26.2800  -23.2984  -11.9528 N   0  0  0  0  0  0  0  0  0  0  0  0
   25.0692  -22.0060  -13.6224 C   0  0  0  0  0  0  0  0  0  0  0  0
   25.9666  -22.2594  -14.4460 O   0  0  0  0  0  0  0  0  0  0  0  0
   19.3242  -21.1793  -11.7935 N   0  0  0  0  0  0  0  0  0  0  0  0
   19.6029  -19.7895  -11.7277 C   0  0  0  0  0  0  0  0  0  0  0  0
   19.4925  -19.1379  -10.6240 N   0  0  0  0  0  0  0  0  0  0  0  0
   20.0084  -19.1336  -12.9132 N   0  0  0  0  0  0  0  0  0  0  0  0
   20.2094  -19.9519  -14.1152 C   0  0  0  0  0  0  0  0  0  0  0  0
   21.6746  -20.2900  -14.1556 C   0  0  0  0  0  0  0  0  0  0  0  0
   21.9771  -21.0302  -15.4305 C   0  0  0  0  0  0  0  0  0  0  0  0
   23.4865  -21.2851  -15.4755 C   0  0  2  0  0  0  0  0  0  0  0  0
   23.8251  -21.5354  -14.0627 N   0  0  0  0  0  0  0  0  0  0  0  0
   24.0889  -19.9621  -15.8191 C   0  0  0  0  0  0  0  0  0  0  0  0
   24.0218  -19.0671  -14.9206 O   0  0  0  0  0  0  0  0  0  0  0  0
   19.7706  -18.1315  -10.5819 N   0  0  0  0  0  0  0  0  0  0  0  0
   24.7117  -19.6811  -17.0650 C   0  0  0  0  0  0  0  0  0  0  0  0
   24.7197  -20.6588  -18.1555 C   0  0  0  0  0  0  0  0  0  0  0  0
   25.1825  -19.8768  -19.3650 C   0  0  0  0  0  0  0  0  0  0  0  0
   26.1839  -18.9290  -18.7004 C   0  0  1  0  0  0  0  0  0  0  0  0
   25.3686  -18.4922  -17.4864 C   0  0  0  0  0  0  0  0  0  0  0  0
   24.3571  -17.5252  -18.0136 O   0  0  0  0  0  0  0  0  0  0  0  0
   23.1967  -17.9606  -18.2056 O   0  0  0  0  0  0  0  0  0  0  0  0
  2  1  1  0
  3  2  2  0
  4  2  1  0
  5  4  1  0
  6  5  1  0
  6  7  1  6
  8 18  1  0
  8  6  1  0
  9  8  2  0
 10 11  1  0
 11 12  2  0
 11 13  1  0
 13 14  1  0
 15 14  1  0
 17 16  1  1
 16 15  1  0
 17 18  1  0
 19 17  1  0
 20 19  2  0
 21 22  1  0
 21 19  1  0
 23 22  1  0
 24 25  1  0
 24 23  1  0
 25 21  1  0
 26 28  1  0
 25 26  1  6
 27 26  2  0
M  END
$$$$
