CAP.pdb
     RDKit          3D

 19 19  0  0  1  0  0  0  0  0999 V2000
   29.6192  -22.5615  -17.3944 N   0  0  0  0  0  0  0  0  0  0  0  0
   28.2320  -22.2373  -17.2635 C   0  0  1  0  0  0  0  0  0  0  0  0
   27.4052  -23.4962  -17.4313 C   0  0  0  0  0  0  0  0  0  0  0  0
   25.6619  -23.0721  -17.2375 S   0  0  0  0  0  0  0  0  0  0  0  0
   27.8931  -21.6600  -15.9399 C   0  0  0  0  0  0  0  0  0  0  0  0
   28.1192  -22.3464  -14.9205 O   0  0  0  0  0  0  0  0  0  0  0  0
   26.6909  -18.3080  -14.6108 C   0  0  0  0  0  0  0  0  0  0  0  0
   26.9886  -19.8050  -14.4758 C   0  0  2  0  0  0  0  0  0  0  0  0
   27.3244  -20.3657  -15.7758 N   0  0  0  0  0  0  0  0  0  0  0  0
   25.8636  -20.4861  -13.8404 C   0  0  0  0  0  0  0  0  0  0  0  0
   24.8948  -20.9899  -14.4955 O   0  0  0  0  0  0  0  0  0  0  0  0
   25.8085  -20.6135  -12.4238 N   0  0  0  0  0  0  0  0  0  0  0  0
   26.9487  -20.2906  -11.5449 C   0  0  0  0  0  0  0  0  0  0  0  0
   26.6179  -21.1329  -10.3010 C   0  0  0  0  0  0  0  0  0  0  0  0
   25.1383  -20.8521  -10.2118 C   0  0  0  0  0  0  0  0  0  0  0  0
   24.6850  -21.0830  -11.6290 C   0  0  1  0  0  0  0  0  0  0  0  0
   23.4502  -20.3164  -11.9373 C   0  0  0  0  0  0  0  0  0  0  0  0
   22.3456  -20.8289  -11.6466 O   0  0  0  0  0  0  0  0  0  0  0  0
   23.4533  -19.0671  -12.5280 O   0  0  0  0  0  0  0  0  0  0  0  0
  2  1  1  1
  2  3  1  0
  4  3  1  0
  5  2  1  0
  6  5  2  0
  8  7  1  6
  8  9  1  0
  9  5  1  0
 10  8  1  0
 10 12  1  0
 11 10  2  0
 12 16  1  0
 13 12  1  0
 13 14  1  0
 14 15  1  0
 16 15  1  0
 16 17  1  6
 17 19  1  0
 18 17  2  0
M  END
$$$$
