CAP.pdb
     RDKit          3D

 19 19  0  0  1  0  0  0  0  0999 V2000
   16.9738  -12.5545  -15.7471 N   0  0  0  0  0  0  0  0  0  0  0  0
   16.8980  -11.1629  -16.0697 C   0  0  1  0  0  0  0  0  0  0  0  0
   15.8137  -10.5131  -15.2338 C   0  0  0  0  0  0  0  0  0  0  0  0
   14.2269  -10.7530  -16.0592 S   0  0  0  0  0  0  0  0  0  0  0  0
   18.1609  -10.4342  -15.7976 C   0  0  0  0  0  0  0  0  0  0  0  0
   18.7404  -10.6418  -14.7101 O   0  0  0  0  0  0  0  0  0  0  0  0
   20.8132   -8.7069  -17.7407 C   0  0  0  0  0  0  0  0  0  0  0  0
   19.9926   -8.8154  -16.4512 C   0  0  2  0  0  0  0  0  0  0  0  0
   18.7426   -9.5126  -16.7130 N   0  0  0  0  0  0  0  0  0  0  0  0
   19.7896   -7.4903  -15.8714 C   0  0  0  0  0  0  0  0  0  0  0  0
   18.7846   -6.7574  -16.1444 O   0  0  0  0  0  0  0  0  0  0  0  0
   20.7372   -6.9550  -14.9540 N   0  0  0  0  0  0  0  0  0  0  0  0
   21.8884   -7.7271  -14.4488 C   0  0  0  0  0  0  0  0  0  0  0  0
   22.1901   -6.9911  -13.1322 C   0  0  0  0  0  0  0  0  0  0  0  0
   22.0365   -5.5701  -13.6150 C   0  0  0  0  0  0  0  0  0  0  0  0
   20.7297   -5.6274  -14.3610 C   0  0  1  0  0  0  0  0  0  0  0  0
   20.6517   -4.5725  -15.4042 C   0  0  0  0  0  0  0  0  0  0  0  0
   20.0787   -3.4967  -15.1184 O   0  0  0  0  0  0  0  0  0  0  0  0
   21.1772   -4.7130  -16.6745 O   0  0  0  0  0  0  0  0  0  0  0  0
  2  1  1  1
  2  3  1  0
  4  3  1  0
  5  2  1  0
  6  5  2  0
  8  7  1  6
  8  9  1  0
  9  5  1  0
 10  8  1  0
 10 12  1  0
 11 10  2  0
 12 16  1  0
 13 12  1  0
 13 14  1  0
 14 15  1  0
 16 15  1  0
 16 17  1  6
 17 19  1  0
 18 17  2  0
M  END
$$$$
