CAP.pdb
     RDKit          3D

 19 19  0  0  1  0  0  0  0  0999 V2000
   19.1741  -14.6837  -17.0393 N   0  0  0  0  0  0  0  0  0  0  0  0
   20.0902  -13.7253  -17.5766 C   0  0  1  0  0  0  0  0  0  0  0  0
   19.5278  -13.1631  -18.8666 C   0  0  0  0  0  0  0  0  0  0  0  0
   19.6498  -14.4270  -20.1489 S   0  0  0  0  0  0  0  0  0  0  0  0
   20.3337  -12.5805  -16.6656 C   0  0  0  0  0  0  0  0  0  0  0  0
   19.3464  -12.0234  -16.1398 O   0  0  0  0  0  0  0  0  0  0  0  0
   23.3458  -10.9336  -15.0469 C   0  0  0  0  0  0  0  0  0  0  0  0
   21.8695  -10.9743  -15.4555 C   0  0  2  0  0  0  0  0  0  0  0  0
   21.6340  -12.0876  -16.3624 N   0  0  0  0  0  0  0  0  0  0  0  0
   21.4691   -9.6893  -16.0226 C   0  0  0  0  0  0  0  0  0  0  0  0
   21.6584   -9.3774  -17.2427 O   0  0  0  0  0  0  0  0  0  0  0  0
   20.8351   -8.7105  -15.2065 N   0  0  0  0  0  0  0  0  0  0  0  0
   20.4227   -8.9726  -13.8144 C   0  0  0  0  0  0  0  0  0  0  0  0
   19.3196   -7.9177  -13.6235 C   0  0  0  0  0  0  0  0  0  0  0  0
   19.9940   -6.7463  -14.2936 C   0  0  0  0  0  0  0  0  0  0  0  0
   20.4763   -7.3531  -15.5846 C   0  0  1  0  0  0  0  0  0  0  0  0
   21.6479   -6.6182  -16.1272 C   0  0  0  0  0  0  0  0  0  0  0  0
   22.7727   -6.8406  -15.6244 O   0  0  0  0  0  0  0  0  0  0  0  0
   21.5650   -5.7013  -17.1577 O   0  0  0  0  0  0  0  0  0  0  0  0
  2  1  1  1
  2  3  1  0
  4  3  1  0
  5  2  1  0
  6  5  2  0
  8  7  1  6
  8  9  1  0
  9  5  1  0
 10  8  1  0
 10 12  1  0
 11 10  2  0
 12 16  1  0
 13 12  1  0
 13 14  1  0
 14 15  1  0
 16 15  1  0
 16 17  1  1
 17 19  1  0
 18 17  2  0
M  END
$$$$
