CAP.pdb
     RDKit          3D

 19 19  0  0  1  0  0  0  0  0999 V2000
   18.8310  -13.8321  -17.8519 N   0  0  0  0  0  0  0  0  0  0  0  0
   18.2513  -12.7702  -17.0886 C   0  0  1  0  0  0  0  0  0  0  0  0
   18.0919  -13.2168  -15.6493 C   0  0  0  0  0  0  0  0  0  0  0  0
   17.1879  -11.9426  -14.7461 S   0  0  0  0  0  0  0  0  0  0  0  0
   19.0816  -11.5412  -17.0798 C   0  0  0  0  0  0  0  0  0  0  0  0
   20.2439  -11.6165  -16.6271 O   0  0  0  0  0  0  0  0  0  0  0  0
   18.9435   -8.1598  -18.7337 C   0  0  0  0  0  0  0  0  0  0  0  0
   19.4698   -9.1066  -17.6498 C   0  0  2  0  0  0  0  0  0  0  0  0
   18.6194  -10.2839  -17.5607 N   0  0  0  0  0  0  0  0  0  0  0  0
   19.5889   -8.3983  -16.3780 C   0  0  0  0  0  0  0  0  0  0  0  0
   18.6746   -8.4002  -15.4918 O   0  0  0  0  0  0  0  0  0  0  0  0
   20.7665   -7.6578  -16.0761 N   0  0  0  0  0  0  0  0  0  0  0  0
   21.9727   -7.6890  -16.9250 C   0  0  0  0  0  0  0  0  0  0  0  0
   23.0608   -7.2809  -15.9172 C   0  0  0  0  0  0  0  0  0  0  0  0
   22.3259   -6.1665  -15.2141 C   0  0  0  0  0  0  0  0  0  0  0  0
   20.9909   -6.7997  -14.9240 C   0  0  1  0  0  0  0  0  0  0  0  0
   19.9198   -5.7778  -14.7974 C   0  0  0  0  0  0  0  0  0  0  0  0
   19.3642   -5.3683  -15.8418 O   0  0  0  0  0  0  0  0  0  0  0  0
   19.5023   -5.2536  -13.5889 O   0  0  0  0  0  0  0  0  0  0  0  0
  2  1  1  6
  2  3  1  0
  4  3  1  0
  5  2  1  0
  6  5  2  0
  8  7  1  6
  8  9  1  0
  9  5  1  0
 10  8  1  0
 10 12  1  0
 11 10  2  0
 12 16  1  0
 13 12  1  0
 13 14  1  0
 14 15  1  0
 16 15  1  0
 16 17  1  6
 17 19  1  0
 18 17  2  0
M  END
$$$$
