CAP.pdb
     RDKit          3D

 19 19  0  0  1  0  0  0  0  0999 V2000
   17.6665  -12.4299  -17.1716 N   0  0  0  0  0  0  0  0  0  0  0  0
   18.0118  -11.6794  -16.0037 C   0  0  1  0  0  0  0  0  0  0  0  0
   18.8879  -12.5278  -15.1039 C   0  0  0  0  0  0  0  0  0  0  0  0
   17.8301  -13.6170  -14.1286 S   0  0  0  0  0  0  0  0  0  0  0  0
   18.7657  -10.4398  -16.3119 C   0  0  0  0  0  0  0  0  0  0  0  0
   19.8626  -10.5463  -16.9009 O   0  0  0  0  0  0  0  0  0  0  0  0
   18.0732   -6.7420  -16.4128 C   0  0  0  0  0  0  0  0  0  0  0  0
   19.0390   -7.9245  -16.2829 C   0  0  2  0  0  0  0  0  0  0  0  0
   18.3009   -9.1388  -15.9701 N   0  0  0  0  0  0  0  0  0  0  0  0
   20.0737   -7.6226  -15.2971 C   0  0  0  0  0  0  0  0  0  0  0  0
   19.9667   -7.9176  -14.0630 O   0  0  0  0  0  0  0  0  0  0  0  0
   21.2736   -6.9673  -15.6933 N   0  0  0  0  0  0  0  0  0  0  0  0
   21.6160   -6.7061  -17.1043 C   0  0  0  0  0  0  0  0  0  0  0  0
   23.1470   -6.5804  -17.0243 C   0  0  0  0  0  0  0  0  0  0  0  0
   23.2508   -5.7493  -15.7695 C   0  0  0  0  0  0  0  0  0  0  0  0
   22.3351   -6.4829  -14.8257 C   0  0  1  0  0  0  0  0  0  0  0  0
   21.8005   -5.5799  -13.7740 C   0  0  0  0  0  0  0  0  0  0  0  0
   20.8155   -4.8600  -14.0547 O   0  0  0  0  0  0  0  0  0  0  0  0
   22.3311   -5.4902  -12.5012 O   0  0  0  0  0  0  0  0  0  0  0  0
  2  1  1  6
  2  3  1  0
  4  3  1  0
  5  2  1  0
  6  5  2  0
  8  7  1  1
  8  9  1  0
  9  5  1  0
 10  8  1  0
 10 12  1  0
 11 10  2  0
 12 16  1  0
 13 12  1  0
 13 14  1  0
 14 15  1  0
 16 15  1  0
 16 17  1  1
 17 19  1  0
 18 17  2  0
M  END
$$$$
