CAP.pdb
     RDKit          3D

 19 19  0  0  1  0  0  0  0  0999 V2000
   29.0053  -22.7658  -19.0764 N   0  0  0  0  0  0  0  0  0  0  0  0
   27.8477  -22.9958  -18.2679 C   0  0  1  0  0  0  0  0  0  0  0  0
   27.7983  -24.4567  -17.8679 C   0  0  0  0  0  0  0  0  0  0  0  0
   26.4072  -24.7009  -16.7446 S   0  0  0  0  0  0  0  0  0  0  0  0
   27.8437  -22.1960  -17.0188 C   0  0  0  0  0  0  0  0  0  0  0  0
   28.6709  -22.4865  -16.1285 O   0  0  0  0  0  0  0  0  0  0  0  0
   26.2681  -19.0036  -15.7528 C   0  0  0  0  0  0  0  0  0  0  0  0
   26.8911  -20.3856  -15.5296 C   0  0  2  0  0  0  0  0  0  0  0  0
   26.9454  -21.1168  -16.7864 N   0  0  0  0  0  0  0  0  0  0  0  0
   26.1605  -21.1044  -14.4890 C   0  0  0  0  0  0  0  0  0  0  0  0
   25.1189  -21.7988  -14.7227 O   0  0  0  0  0  0  0  0  0  0  0  0
   26.5997  -21.0514  -13.1361 N   0  0  0  0  0  0  0  0  0  0  0  0
   27.8907  -20.4606  -12.7349 C   0  0  0  0  0  0  0  0  0  0  0  0
   28.1428  -21.1703  -11.3937 C   0  0  0  0  0  0  0  0  0  0  0  0
   26.7508  -21.0889  -10.8177 C   0  0  0  0  0  0  0  0  0  0  0  0
   25.9028  -21.5645  -11.9676 C   0  0  1  0  0  0  0  0  0  0  0  0
   24.5212  -21.0243  -11.8849 C   0  0  0  0  0  0  0  0  0  0  0  0
   24.2748  -19.9359  -12.4524 O   0  0  0  0  0  0  0  0  0  0  0  0
   23.4915  -21.6574  -11.2153 O   0  0  0  0  0  0  0  0  0  0  0  0
  2  1  1  1
  2  3  1  0
  4  3  1  0
  5  2  1  0
  6  5  2  0
  8  7  1  6
  8  9  1  0
  9  5  1  0
 10  8  1  0
 10 12  1  0
 11 10  2  0
 12 16  1  0
 13 12  1  0
 13 14  1  0
 14 15  1  0
 16 15  1  0
 16 17  1  1
 17 19  1  0
 18 17  2  0
M  END
$$$$
