CAP.pdb
     RDKit          3D

 19 19  0  0  1  0  0  0  0  0999 V2000
   25.0011  -21.3817  -11.7535 N   0  0  0  0  0  0  0  0  0  0  0  0
   25.0439  -20.3831  -10.7302 C   0  0  1  0  0  0  0  0  0  0  0  0
   23.6663  -20.2353  -10.1163 C   0  0  0  0  0  0  0  0  0  0  0  0
   22.5909  -19.4052  -11.3041 S   0  0  0  0  0  0  0  0  0  0  0  0
   25.9829  -20.7172   -9.6317 C   0  0  0  0  0  0  0  0  0  0  0  0
   25.6034  -21.5220   -8.7543 O   0  0  0  0  0  0  0  0  0  0  0  0
   29.6481  -20.2355   -8.8705 C   0  0  0  0  0  0  0  0  0  0  0  0
   28.1987  -20.4746   -8.4343 C   0  0  2  0  0  0  0  0  0  0  0  0
   27.2914  -20.1670   -9.5295 N   0  0  0  0  0  0  0  0  0  0  0  0
   27.9047  -19.7094   -7.2253 C   0  0  0  0  0  0  0  0  0  0  0  0
   27.2550  -18.6143   -7.2354 O   0  0  0  0  0  0  0  0  0  0  0  0
   28.3485  -20.1747   -5.9554 N   0  0  0  0  0  0  0  0  0  0  0  0
   28.9638  -21.5009   -5.7578 C   0  0  0  0  0  0  0  0  0  0  0  0
   28.6896  -21.7403   -4.2633 C   0  0  0  0  0  0  0  0  0  0  0  0
   29.0194  -20.3646   -3.7390 C   0  0  0  0  0  0  0  0  0  0  0  0
   28.2589  -19.4734   -4.6849 C   0  0  1  0  0  0  0  0  0  0  0  0
   28.8717  -18.1227   -4.7714 C   0  0  0  0  0  0  0  0  0  0  0  0
   29.6821  -17.8972   -5.6987 O   0  0  0  0  0  0  0  0  0  0  0  0
   28.5966  -17.1000   -3.8838 O   0  0  0  0  0  0  0  0  0  0  0  0
  2  1  1  6
  2  3  1  0
  4  3  1  0
  5  2  1  0
  6  5  2  0
  8  7  1  6
  8  9  1  0
  9  5  1  0
 10  8  1  0
 10 12  1  0
 11 10  2  0
 12 16  1  0
 13 12  1  0
 13 14  1  0
 14 15  1  0
 16 15  1  0
 16 17  1  6
 17 19  1  0
 18 17  2  0
M  END
$$$$
