CAP.pdb
     RDKit          3D

 19 19  0  0  1  0  0  0  0  0999 V2000
   28.5709  -19.4372  -18.1181 N   0  0  0  0  0  0  0  0  0  0  0  0
   28.1553  -20.6552  -17.4935 C   0  0  1  0  0  0  0  0  0  0  0  0
   29.3288  -21.6122  -17.4317 C   0  0  0  0  0  0  0  0  0  0  0  0
   28.7685  -23.1666  -16.7060 S   0  0  0  0  0  0  0  0  0  0  0  0
   27.6716  -20.4601  -16.1050 C   0  0  0  0  0  0  0  0  0  0  0  0
   27.0587  -21.4001  -15.5553 O   0  0  0  0  0  0  0  0  0  0  0  0
   26.2715  -17.5093  -14.7567 C   0  0  0  0  0  0  0  0  0  0  0  0
   26.9660  -18.8053  -14.3255 C   0  0  2  0  0  0  0  0  0  0  0  0
   27.8715  -19.2572  -15.3710 N   0  0  0  0  0  0  0  0  0  0  0  0
   25.9717  -19.8127  -13.9651 C   0  0  0  0  0  0  0  0  0  0  0  0
   25.1018  -20.2560  -14.7826 O   0  0  0  0  0  0  0  0  0  0  0  0
   25.9385  -20.3496  -12.6473 N   0  0  0  0  0  0  0  0  0  0  0  0
   26.9979  -20.0972  -11.6519 C   0  0  0  0  0  0  0  0  0  0  0  0
   26.8262  -21.3060  -10.7164 C   0  0  0  0  0  0  0  0  0  0  0  0
   25.3200  -21.3283  -10.6327 C   0  0  0  0  0  0  0  0  0  0  0  0
   24.9197  -21.2182  -12.0801 C   0  0  1  0  0  0  0  0  0  0  0  0
   23.5651  -20.6258  -12.2267 C   0  0  0  0  0  0  0  0  0  0  0  0
   23.4724  -19.3856  -12.3708 O   0  0  0  0  0  0  0  0  0  0  0  0
   22.4001  -21.3687  -12.2127 O   0  0  0  0  0  0  0  0  0  0  0  0
  2  1  1  1
  2  3  1  0
  4  3  1  0
  5  2  1  0
  6  5  2  0
  8  7  1  6
  8  9  1  0
  9  5  1  0
 10  8  1  0
 10 12  1  0
 11 10  2  0
 12 16  1  0
 13 12  1  0
 13 14  1  0
 14 15  1  0
 16 15  1  0
 16 17  1  1
 17 19  1  0
 18 17  2  0
M  END
$$$$
