CAP.pdb
     RDKit          3D

 19 19  0  0  1  0  0  0  0  0999 V2000
   13.8707   -8.0697  -10.4592 N   0  0  0  0  0  0  0  0  0  0  0  0
   15.1436   -7.4235  -10.3660 C   0  0  1  0  0  0  0  0  0  0  0  0
   15.8427   -7.8742   -9.0992 C   0  0  0  0  0  0  0  0  0  0  0  0
   15.2854   -6.8365   -7.7319 S   0  0  0  0  0  0  0  0  0  0  0  0
   16.0414   -7.7427  -11.5027 C   0  0  0  0  0  0  0  0  0  0  0  0
   15.7400   -8.7040  -12.2419 O   0  0  0  0  0  0  0  0  0  0  0  0
   16.8564   -6.4261  -14.1398 C   0  0  0  0  0  0  0  0  0  0  0  0
   17.8434   -6.9829  -13.1084 C   0  0  2  0  0  0  0  0  0  0  0  0
   17.2261   -7.0086  -11.7910 N   0  0  0  0  0  0  0  0  0  0  0  0
   19.0855   -6.2149  -13.1354 C   0  0  0  0  0  0  0  0  0  0  0  0
   19.1916   -5.0453  -12.6430 O   0  0  0  0  0  0  0  0  0  0  0  0
   20.2559   -6.7630  -13.7319 N   0  0  0  0  0  0  0  0  0  0  0  0
   20.2935   -8.1095  -14.3336 C   0  0  0  0  0  0  0  0  0  0  0  0
   21.7953   -8.4328  -14.2546 C   0  0  0  0  0  0  0  0  0  0  0  0
   22.3478   -7.0970  -14.6865 C   0  0  0  0  0  0  0  0  0  0  0  0
   21.5647   -6.1373  -13.8302 C   0  0  1  0  0  0  0  0  0  0  0  0
   21.4734   -4.7951  -14.4608 C   0  0  0  0  0  0  0  0  0  0  0  0
   20.5246   -4.5720  -15.2465 O   0  0  0  0  0  0  0  0  0  0  0  0
   22.3790   -3.7778  -14.2277 O   0  0  0  0  0  0  0  0  0  0  0  0
  2  1  1  6
  2  3  1  0
  4  3  1  0
  5  2  1  0
  6  5  2  0
  8  7  1  6
  8  9  1  0
  9  5  1  0
 10  8  1  0
 10 12  1  0
 11 10  2  0
 12 16  1  0
 13 12  1  0
 13 14  1  0
 14 15  1  0
 16 15  1  0
 16 17  1  6
 17 19  1  0
 18 17  2  0
M  END
$$$$
