RWG.pdb
     RDKit          3D

 30 31  0  0  1  0  0  0  0  0999 V2000
   28.6074  -23.6098  -16.7002 N   0  0  0  0  0  0  0  0  0  0  0  0
   28.8971  -22.6212  -17.6746 C   0  0  0  0  0  0  0  0  0  0  0  0
   28.4307  -22.7199  -18.8880 N   0  0  0  0  0  0  0  0  0  0  0  0
   29.6889  -21.4853  -17.4163 N   0  0  0  0  0  0  0  0  0  0  0  0
   29.5975  -20.8168  -16.1448 C   0  0  0  0  0  0  0  0  0  0  0  0
   28.3867  -19.9274  -16.1994 C   0  0  0  0  0  0  0  0  0  0  0  0
   27.5458  -19.9146  -14.9715 C   0  0  0  0  0  0  0  0  0  0  0  0
   28.2008  -20.6113  -13.8135 C   0  0  2  0  0  0  0  0  0  0  0  0
   29.1904  -21.5401  -14.2634 N   0  0  0  0  0  0  0  0  0  0  0  0
   27.2329  -21.2168  -12.8883 C   0  0  0  0  0  0  0  0  0  0  0  0
   26.8167  -22.4113  -13.0401 O   0  0  0  0  0  0  0  0  0  0  0  0
   28.6989  -21.9648  -19.5516 N   0  0  0  0  0  0  0  0  0  0  0  0
   26.7465  -20.4428  -11.7911 C   0  0  1  0  0  0  0  0  0  0  0  0
   25.7182  -20.9221  -10.9309 C   0  0  0  0  0  0  0  0  0  0  0  0
   25.8483  -20.3289   -9.5565 C   0  0  0  0  0  0  0  0  0  0  0  0
   27.0659  -20.7302   -8.8268 C   0  0  0  0  0  0  0  0  0  0  0  0
   28.0482  -21.5571   -9.3775 N   0  0  0  0  0  0  0  0  0  0  0  0
   29.0401  -21.7169   -8.4794 C   0  0  0  0  0  0  0  0  0  0  0  0
   28.7646  -21.0388   -7.3618 C   0  0  0  0  0  0  0  0  0  0  0  0
   29.4474  -20.8943   -6.1696 C   0  0  0  0  0  0  0  0  0  0  0  0
   28.9012  -20.1280   -5.1736 C   0  0  0  0  0  0  0  0  0  0  0  0
   27.6872  -19.5212   -5.3834 C   0  0  0  0  0  0  0  0  0  0  0  0
   26.9973  -19.6646   -6.5834 C   0  0  0  0  0  0  0  0  0  0  0  0
   27.5366  -20.4269   -7.5814 C   0  0  0  0  0  0  0  0  0  0  0  0
   24.3558  -20.6727  -11.4904 O   0  0  0  0  0  0  0  0  0  0  0  0
   24.0168  -19.5406  -11.9317 N   0  0  0  0  0  0  0  0  0  0  0  0
   23.4167  -21.7121  -11.5340 C   0  0  0  0  0  0  0  0  0  0  0  0
   22.0903  -21.5036  -12.1269 C   0  0  0  0  0  0  0  0  0  0  0  0
   21.1483  -20.9279  -11.1719 O   0  0  0  0  0  0  0  0  0  0  0  0
   21.5163  -20.6528  -10.0097 O   0  0  0  0  0  0  0  0  0  0  0  0
  2  1  1  0
  2  3  2  0
  4  5  1  0
  4  2  1  0
  6  5  1  0
  7  6  1  0
  8  7  1  0
  8  9  1  6
 10  8  1  0
 10 11  2  0
 12 10  1  0
 13 14  1  1
 13 12  1  0
 15 14  1  0
 15 23  1  0
 16 15  2  0
 17 16  1  0
 17 18  1  0
 18 19  1  0
 18 23  2  0
 19 20  2  0
 20 21  1  0
 22 21  2  0
 23 22  1  0
 24 13  1  0
 25 24  2  0
 26 24  1  0
 27 26  1  0
 28 30  1  0
 28 27  1  0
 29 28  2  0
M  END
$$$$
