RWG.pdb
     RDKit          3D

 30 31  0  0  1  0  0  0  0  0999 V2000
   29.3095  -26.2872  -16.1450 N   0  0  0  0  0  0  0  0  0  0  0  0
   29.0089  -26.0372  -17.5080 C   0  0  0  0  0  0  0  0  0  0  0  0
   28.7650  -27.0184  -18.3309 N   0  0  0  0  0  0  0  0  0  0  0  0
   28.9506  -24.7451  -18.0657 N   0  0  0  0  0  0  0  0  0  0  0  0
   28.2616  -23.6900  -17.3698 C   0  0  0  0  0  0  0  0  0  0  0  0
   26.9608  -24.2610  -16.8781 C   0  0  0  0  0  0  0  0  0  0  0  0
   26.6659  -24.0339  -15.4372 C   0  0  0  0  0  0  0  0  0  0  0  0
   25.8993  -22.7652  -15.1957 C   0  0  2  0  0  0  0  0  0  0  0  0
   26.5962  -21.6335  -15.7229 N   0  0  0  0  0  0  0  0  0  0  0  0
   25.5129  -22.5891  -13.7888 C   0  0  0  0  0  0  0  0  0  0  0  0
   24.9874  -23.5335  -13.1144 O   0  0  0  0  0  0  0  0  0  0  0  0
   28.6618  -26.7676  -19.3353 N   0  0  0  0  0  0  0  0  0  0  0  0
   25.7323  -21.3238  -13.1640 C   0  0  1  0  0  0  0  0  0  0  0  0
   25.2199  -21.0264  -11.8694 C   0  0  0  0  0  0  0  0  0  0  0  0
   26.2908  -20.4485  -10.9880 C   0  0  0  0  0  0  0  0  0  0  0  0
   27.6687  -20.7792  -11.3979 C   0  0  0  0  0  0  0  0  0  0  0  0
   28.0929  -20.7668  -12.7290 N   0  0  0  0  0  0  0  0  0  0  0  0
   29.4014  -21.0859  -12.7747 C   0  0  0  0  0  0  0  0  0  0  0  0
   29.8653  -21.3095  -11.5420 C   0  0  0  0  0  0  0  0  0  0  0  0
   31.1125  -21.6689  -11.0688 C   0  0  0  0  0  0  0  0  0  0  0  0
   31.2930  -21.8433   -9.7218 C   0  0  0  0  0  0  0  0  0  0  0  0
   30.2297  -21.6569   -8.8729 C   0  0  0  0  0  0  0  0  0  0  0  0
   28.9724  -21.2945   -9.3465 C   0  0  0  0  0  0  0  0  0  0  0  0
   28.7854  -21.1182  -10.6889 C   0  0  0  0  0  0  0  0  0  0  0  0
   24.0342  -20.1195  -11.9290 O   0  0  0  0  0  0  0  0  0  0  0  0
   23.6810  -19.5589  -13.0025 N   0  0  0  0  0  0  0  0  0  0  0  0
   23.2830  -19.8736  -10.7718 C   0  0  0  0  0  0  0  0  0  0  0  0
   22.0723  -20.6509  -10.4812 C   0  0  0  0  0  0  0  0  0  0  0  0
   20.8951  -20.0987  -11.1447 O   0  0  0  0  0  0  0  0  0  0  0  0
   21.0218  -19.2398  -12.0437 O   0  0  0  0  0  0  0  0  0  0  0  0
  2  1  1  0
  2  3  2  0
  4  5  1  0
  4  2  1  0
  6  5  1  0
  7  6  1  0
  8  7  1  0
  8  9  1  1
 10  8  1  0
 10 11  2  0
 12 10  1  0
 13 14  1  1
 13 12  1  0
 15 14  1  0
 15 23  1  0
 16 15  2  0
 17 16  1  0
 17 18  1  0
 18 19  1  0
 18 23  2  0
 19 20  2  0
 20 21  1  0
 22 21  2  0
 23 22  1  0
 24 13  1  0
 25 24  2  0
 26 24  1  0
 27 26  1  0
 28 30  1  0
 28 27  1  0
 29 28  2  0
M  END
$$$$
