RWG.pdb
     RDKit          3D

 30 31  0  0  1  0  0  0  0  0999 V2000
   27.2509  -18.1600  -16.9930 N   0  0  0  0  0  0  0  0  0  0  0  0
   28.1695  -19.1403  -17.4468 C   0  0  0  0  0  0  0  0  0  0  0  0
   28.2861  -19.4120  -18.7165 N   0  0  0  0  0  0  0  0  0  0  0  0
   29.0063  -19.8773  -16.5863 N   0  0  0  0  0  0  0  0  0  0  0  0
   28.7732  -19.8612  -15.1659 C   0  0  0  0  0  0  0  0  0  0  0  0
   28.1571  -21.1839  -14.8044 C   0  0  0  0  0  0  0  0  0  0  0  0
   27.8339  -21.3672  -13.3633 C   0  0  0  0  0  0  0  0  0  0  0  0
   26.3561  -21.3628  -13.0959 C   0  0  2  0  0  0  0  0  0  0  0  0
   25.7381  -20.1914  -13.6347 N   0  0  0  0  0  0  0  0  0  0  0  0
   26.0303  -21.5757  -11.6788 C   0  0  0  0  0  0  0  0  0  0  0  0
   26.3989  -22.6241  -11.0560 O   0  0  0  0  0  0  0  0  0  0  0  0
   28.9703  -20.1529  -18.9721 N   0  0  0  0  0  0  0  0  0  0  0  0
   25.2790  -20.5794  -10.9840 C   0  0  1  0  0  0  0  0  0  0  0  0
   24.8516  -20.7631   -9.6385 C   0  0  0  0  0  0  0  0  0  0  0  0
   25.4906  -19.7517   -8.7295 C   0  0  0  0  0  0  0  0  0  0  0  0
   26.8354  -20.1207   -8.2486 C   0  0  0  0  0  0  0  0  0  0  0  0
   27.8122  -20.6859   -9.0722 N   0  0  0  0  0  0  0  0  0  0  0  0
   28.9331  -20.8832   -8.3506 C   0  0  0  0  0  0  0  0  0  0  0  0
   28.7483  -20.4782   -7.0909 C   0  0  0  0  0  0  0  0  0  0  0  0
   29.5743  -20.4782   -5.9836 C   0  0  0  0  0  0  0  0  0  0  0  0
   29.0965  -20.0001   -4.7917 C   0  0  0  0  0  0  0  0  0  0  0  0
   27.8072  -19.5320   -4.7252 C   0  0  0  0  0  0  0  0  0  0  0  0
   26.9730  -19.5303   -5.8390 C   0  0  0  0  0  0  0  0  0  0  0  0
   27.4432  -20.0051   -7.0313 C   0  0  0  0  0  0  0  0  0  0  0  0
   23.3636  -20.7263   -9.5116 O   0  0  0  0  0  0  0  0  0  0  0  0
   22.6355  -20.1936  -10.3932 N   0  0  0  0  0  0  0  0  0  0  0  0
   22.7432  -21.2936   -8.3903 C   0  0  0  0  0  0  0  0  0  0  0  0
   21.7646  -22.3774   -8.5394 C   0  0  0  0  0  0  0  0  0  0  0  0
   20.4451  -21.8759   -8.9113 O   0  0  0  0  0  0  0  0  0  0  0  0
   20.2891  -20.6736   -9.2149 O   0  0  0  0  0  0  0  0  0  0  0  0
  2  1  1  0
  2  3  2  0
  4  5  1  0
  4  2  1  0
  6  5  1  0
  7  6  1  0
  8  7  1  0
  8  9  1  1
 10  8  1  0
 10 11  2  0
 12 10  1  0
 13 14  1  1
 13 12  1  0
 15 14  1  0
 15 23  1  0
 16 15  2  0
 17 16  1  0
 17 18  1  0
 18 19  1  0
 18 23  2  0
 19 20  2  0
 20 21  1  0
 22 21  2  0
 23 22  1  0
 24 13  1  0
 25 24  2  0
 26 24  1  0
 27 26  1  0
 28 30  1  0
 28 27  1  0
 29 28  2  0
M  END
$$$$
