RWG.pdb
     RDKit          3D

 30 31  0  0  1  0  0  0  0  0999 V2000
   27.6058  -16.9350  -16.0177 N   0  0  0  0  0  0  0  0  0  0  0  0
   28.8002  -17.5778  -16.4313 C   0  0  0  0  0  0  0  0  0  0  0  0
   29.6588  -16.9663  -17.1984 N   0  0  0  0  0  0  0  0  0  0  0  0
   29.1450  -18.8909  -16.0562 N   0  0  0  0  0  0  0  0  0  0  0  0
   28.3042  -19.6252  -15.1473 C   0  0  0  0  0  0  0  0  0  0  0  0
   28.7052  -19.2265  -13.7544 C   0  0  0  0  0  0  0  0  0  0  0  0
   28.7260  -20.3281  -12.7540 C   0  0  0  0  0  0  0  0  0  0  0  0
   27.3512  -20.8271  -12.4130 C   0  0  2  0  0  0  0  0  0  0  0  0
   26.3448  -20.0642  -13.0835 N   0  0  0  0  0  0  0  0  0  0  0  0
   27.1202  -20.9230  -10.9649 C   0  0  0  0  0  0  0  0  0  0  0  0
   27.8546  -21.6449  -10.2149 O   0  0  0  0  0  0  0  0  0  0  0  0
   30.5254  -17.4907  -17.4360 N   0  0  0  0  0  0  0  0  0  0  0  0
   26.0419  -20.1871  -10.3857 C   0  0  1  0  0  0  0  0  0  0  0  0
   25.1061  -20.7957   -9.5021 C   0  0  0  0  0  0  0  0  0  0  0  0
   25.0759  -20.0840   -8.1791 C   0  0  0  0  0  0  0  0  0  0  0  0
   26.4032  -19.7327   -7.6400 C   0  0  0  0  0  0  0  0  0  0  0  0
   27.3260  -18.9470   -8.3351 N   0  0  0  0  0  0  0  0  0  0  0  0
   28.4250  -18.7839   -7.5724 C   0  0  0  0  0  0  0  0  0  0  0  0
   28.2775  -19.4219   -6.4079 C   0  0  0  0  0  0  0  0  0  0  0  0
   29.1079  -19.5622   -5.3128 C   0  0  0  0  0  0  0  0  0  0  0  0
   28.6832  -20.3024   -4.2408 C   0  0  0  0  0  0  0  0  0  0  0  0
   27.4416  -20.8880   -4.2796 C   0  0  0  0  0  0  0  0  0  0  0  0
   26.6028  -20.7481   -5.3811 C   0  0  0  0  0  0  0  0  0  0  0  0
   27.0197  -20.0107   -6.4537 C   0  0  0  0  0  0  0  0  0  0  0  0
   23.7377  -20.8699  -10.0969 O   0  0  0  0  0  0  0  0  0  0  0  0
   23.3202  -20.0014  -10.9109 N   0  0  0  0  0  0  0  0  0  0  0  0
   22.8819  -21.9249   -9.7526 C   0  0  0  0  0  0  0  0  0  0  0  0
   21.5956  -22.1042  -10.4364 C   0  0  0  0  0  0  0  0  0  0  0  0
   20.5758  -21.1892   -9.9328 O   0  0  0  0  0  0  0  0  0  0  0  0
   20.8699  -20.0065   -9.6560 O   0  0  0  0  0  0  0  0  0  0  0  0
  2  1  1  0
  2  3  2  0
  4  5  1  0
  4  2  1  0
  6  5  1  0
  7  6  1  0
  8  7  1  0
  8  9  1  1
 10  8  1  0
 10 11  2  0
 12 10  1  0
 13 14  1  6
 13 12  1  0
 15 14  1  0
 15 23  1  0
 16 15  2  0
 17 16  1  0
 17 18  1  0
 18 19  1  0
 18 23  2  0
 19 20  2  0
 20 21  1  0
 22 21  2  0
 23 22  1  0
 24 13  1  0
 25 24  2  0
 26 24  1  0
 27 26  1  0
 28 30  1  0
 28 27  1  0
 29 28  2  0
M  END
$$$$
