RWG.pdb
     RDKit          3D

 30 31  0  0  1  0  0  0  0  0999 V2000
   28.9432  -15.9663  -18.0287 N   0  0  0  0  0  0  0  0  0  0  0  0
   27.8516  -15.8052  -17.1381 C   0  0  0  0  0  0  0  0  0  0  0  0
   26.7711  -15.1774  -17.5097 N   0  0  0  0  0  0  0  0  0  0  0  0
   27.8473  -16.2974  -15.8184 N   0  0  0  0  0  0  0  0  0  0  0  0
   28.4406  -17.5754  -15.5237 C   0  0  0  0  0  0  0  0  0  0  0  0
   27.5483  -18.6257  -16.1242 C   0  0  0  0  0  0  0  0  0  0  0  0
   26.8268  -19.4870  -15.1483 C   0  0  0  0  0  0  0  0  0  0  0  0
   27.7468  -20.4022  -14.3925 C   0  0  2  0  0  0  0  0  0  0  0  0
   28.4983  -21.2294  -15.2844 N   0  0  0  0  0  0  0  0  0  0  0  0
   27.0567  -21.1732  -13.3489 C   0  0  0  0  0  0  0  0  0  0  0  0
   26.3750  -22.2137  -13.6240 O   0  0  0  0  0  0  0  0  0  0  0  0
   26.0097  -15.1056  -16.8043 N   0  0  0  0  0  0  0  0  0  0  0  0
   27.1534  -20.7413  -11.9911 C   0  0  2  0  0  0  0  0  0  0  0  0
   26.3843  -21.3426  -10.9549 C   0  0  0  0  0  0  0  0  0  0  0  0
   27.2424  -21.6547   -9.7616 C   0  0  0  0  0  0  0  0  0  0  0  0
   27.0534  -20.7467   -8.6145 C   0  0  0  0  0  0  0  0  0  0  0  0
   25.8874  -20.0038   -8.4130 N   0  0  0  0  0  0  0  0  0  0  0  0
   26.0103  -19.2965   -7.2726 C   0  0  0  0  0  0  0  0  0  0  0  0
   27.1983  -19.5324   -6.7088 C   0  0  0  0  0  0  0  0  0  0  0  0
   27.7937  -19.0517   -5.5586 C   0  0  0  0  0  0  0  0  0  0  0  0
   29.0558  -19.4728   -5.2315 C   0  0  0  0  0  0  0  0  0  0  0  0
   29.7003  -20.3631   -6.0549 C   0  0  0  0  0  0  0  0  0  0  0  0
   29.1031  -20.8494   -7.2139 C   0  0  0  0  0  0  0  0  0  0  0  0
   27.8440  -20.4341   -7.5459 C   0  0  0  0  0  0  0  0  0  0  0  0
   25.2144  -20.5005  -10.5623 O   0  0  0  0  0  0  0  0  0  0  0  0
   25.0404  -20.1201   -9.3723 N   0  0  0  0  0  0  0  0  0  0  0  0
   24.2758  -20.1138  -11.5284 C   0  0  0  0  0  0  0  0  0  0  0  0
   22.9307  -20.7009  -11.5483 C   0  0  0  0  0  0  0  0  0  0  0  0
   22.4846  -21.0013  -12.9053 O   0  0  0  0  0  0  0  0  0  0  0  0
   21.7748  -20.1854  -13.5318 O   0  0  0  0  0  0  0  0  0  0  0  0
  2  1  1  0
  2  3  2  0
  4  5  1  0
  4  2  1  0
  6  5  1  0
  7  6  1  0
  8  7  1  0
  8  9  1  6
 10  8  1  0
 10 11  2  0
 12 10  1  0
 13 14  1  6
 13 12  1  0
 15 14  1  0
 15 23  1  0
 16 15  2  0
 17 16  1  0
 17 18  1  0
 18 19  1  0
 18 23  2  0
 19 20  2  0
 20 21  1  0
 22 21  2  0
 23 22  1  0
 24 13  1  0
 25 24  2  0
 26 24  1  0
 27 26  1  0
 28 30  1  0
 28 27  1  0
 29 28  2  0
M  END
$$$$
