RWG.pdb
     RDKit          3D

 30 31  0  0  1  0  0  0  0  0999 V2000
   28.4792  -17.4276  -17.5110 N   0  0  0  0  0  0  0  0  0  0  0  0
   28.1886  -16.4493  -16.5264 C   0  0  0  0  0  0  0  0  0  0  0  0
   28.5997  -15.2196  -16.6624 N   0  0  0  0  0  0  0  0  0  0  0  0
   27.4526  -16.7202  -15.3565 N   0  0  0  0  0  0  0  0  0  0  0  0
   27.8169  -17.8312  -14.5167 C   0  0  0  0  0  0  0  0  0  0  0  0
   27.1258  -19.0470  -15.0680 C   0  0  0  0  0  0  0  0  0  0  0  0
   26.4984  -19.9406  -14.0567 C   0  0  0  0  0  0  0  0  0  0  0  0
   27.4694  -20.3986  -13.0065 C   0  0  2  0  0  0  0  0  0  0  0  0
   28.4523  -21.2765  -13.5609 N   0  0  0  0  0  0  0  0  0  0  0  0
   26.8073  -20.9632  -11.8223 C   0  0  0  0  0  0  0  0  0  0  0  0
   26.4671  -22.1896  -11.7649 O   0  0  0  0  0  0  0  0  0  0  0  0
   28.3134  -14.5494  -15.9199 N   0  0  0  0  0  0  0  0  0  0  0  0
   26.5379  -20.1116  -10.7079 C   0  0  2  0  0  0  0  0  0  0  0  0
   25.6961  -20.5215   -9.6354 C   0  0  0  0  0  0  0  0  0  0  0  0
   26.0854  -19.8369   -8.3557 C   0  0  0  0  0  0  0  0  0  0  0  0
   27.2917  -20.3856   -7.7078 C   0  0  0  0  0  0  0  0  0  0  0  0
   28.1626  -21.2740   -8.3435 N   0  0  0  0  0  0  0  0  0  0  0  0
   29.1758  -21.5693   -7.5056 C   0  0  0  0  0  0  0  0  0  0  0  0
   29.0202  -20.9223   -6.3471 C   0  0  0  0  0  0  0  0  0  0  0  0
   29.7694  -20.8998   -5.1867 C   0  0  0  0  0  0  0  0  0  0  0  0
   29.3474  -20.1340   -4.1318 C   0  0  0  0  0  0  0  0  0  0  0  0
   28.1891  -19.4062   -4.2523 C   0  0  0  0  0  0  0  0  0  0  0  0
   27.4325  -19.4265   -5.4201 C   0  0  0  0  0  0  0  0  0  0  0  0
   27.8479  -20.1878   -6.4765 C   0  0  0  0  0  0  0  0  0  0  0  0
   24.2505  -20.2982   -9.9388 O   0  0  0  0  0  0  0  0  0  0  0  0
   23.8036  -19.1567  -10.2361 N   0  0  0  0  0  0  0  0  0  0  0  0
   23.3530  -21.3738   -9.8967 C   0  0  0  0  0  0  0  0  0  0  0  0
   21.9124  -21.1595  -10.0796 C   0  0  0  0  0  0  0  0  0  0  0  0
   21.5185  -21.2560  -11.4819 O   0  0  0  0  0  0  0  0  0  0  0  0
   22.3688  -21.5163  -12.3601 O   0  0  0  0  0  0  0  0  0  0  0  0
  2  1  1  0
  2  3  2  0
  4  5  1  0
  4  2  1  0
  6  5  1  0
  7  6  1  0
  8  7  1  0
  8  9  1  6
 10  8  1  0
 10 11  2  0
 12 10  1  0
 13 14  1  6
 13 12  1  0
 15 14  1  0
 15 23  1  0
 16 15  2  0
 17 16  1  0
 17 18  1  0
 18 19  1  0
 18 23  2  0
 19 20  2  0
 20 21  1  0
 22 21  2  0
 23 22  1  0
 24 13  1  0
 25 24  2  0
 26 24  1  0
 27 26  1  0
 28 30  1  0
 28 27  1  0
 29 28  2  0
M  END
$$$$
