RWG.pdb
     RDKit          3D

 30 31  0  0  1  0  0  0  0  0999 V2000
   32.4707  -23.2159  -14.4940 N   0  0  0  0  0  0  0  0  0  0  0  0
   32.4584  -23.0132  -13.0906 C   0  0  0  0  0  0  0  0  0  0  0  0
   33.4242  -23.4647  -12.3403 N   0  0  0  0  0  0  0  0  0  0  0  0
   31.4313  -22.3265  -12.4145 N   0  0  0  0  0  0  0  0  0  0  0  0
   30.7963  -21.1910  -13.0307 C   0  0  0  0  0  0  0  0  0  0  0  0
   29.9160  -21.7192  -14.1289 C   0  0  0  0  0  0  0  0  0  0  0  0
   28.6353  -22.3328  -13.6837 C   0  0  0  0  0  0  0  0  0  0  0  0
   27.4866  -21.3662  -13.7194 C   0  0  2  0  0  0  0  0  0  0  0  0
   27.9502  -20.0137  -13.7053 N   0  0  0  0  0  0  0  0  0  0  0  0
   26.4819  -21.6327  -12.6805 C   0  0  0  0  0  0  0  0  0  0  0  0
   25.9503  -22.7820  -12.5407 O   0  0  0  0  0  0  0  0  0  0  0  0
   34.2000  -23.9572  -12.8282 N   0  0  0  0  0  0  0  0  0  0  0  0
   26.0920  -20.5727  -11.8065 C   0  0  1  0  0  0  0  0  0  0  0  0
   25.1139  -20.7593  -10.7889 C   0  0  0  0  0  0  0  0  0  0  0  0
   25.5469  -20.1133   -9.5032 C   0  0  0  0  0  0  0  0  0  0  0  0
   26.8903  -20.5081   -9.0392 C   0  0  0  0  0  0  0  0  0  0  0  0
   27.7345  -21.3474   -9.7706 N   0  0  0  0  0  0  0  0  0  0  0  0
   28.8929  -21.4972   -9.0985 C   0  0  0  0  0  0  0  0  0  0  0  0
   28.8588  -20.8005   -7.9590 C   0  0  0  0  0  0  0  0  0  0  0  0
   29.7770  -20.6401   -6.9394 C   0  0  0  0  0  0  0  0  0  0  0  0
   29.4528  -19.8562   -5.8634 C   0  0  0  0  0  0  0  0  0  0  0  0
   28.2222  -19.2478   -5.8233 C   0  0  0  0  0  0  0  0  0  0  0  0
   27.2955  -19.4071   -6.8490 C   0  0  0  0  0  0  0  0  0  0  0  0
   27.6124  -20.1872   -7.9256 C   0  0  0  0  0  0  0  0  0  0  0  0
   23.7678  -20.2634  -11.2056 O   0  0  0  0  0  0  0  0  0  0  0  0
   23.2452  -19.2423  -10.6808 N   0  0  0  0  0  0  0  0  0  0  0  0
   23.0525  -20.9379  -12.2043 C   0  0  0  0  0  0  0  0  0  0  0  0
   21.7503  -20.4403  -12.6639 C   0  0  0  0  0  0  0  0  0  0  0  0
   20.8522  -21.5267  -13.0432 O   0  0  0  0  0  0  0  0  0  0  0  0
   21.2599  -22.7080  -13.0550 O   0  0  0  0  0  0  0  0  0  0  0  0
  2  1  1  0
  2  3  2  0
  4  5  1  0
  4  2  1  0
  6  5  1  0
  7  6  1  0
  8  7  1  0
  8  9  1  1
 10  8  1  0
 10 11  2  0
 12 10  1  0
 13 14  1  1
 13 12  1  0
 15 14  1  0
 15 23  1  0
 16 15  2  0
 17 16  1  0
 17 18  1  0
 18 19  1  0
 18 23  2  0
 19 20  2  0
 20 21  1  0
 22 21  2  0
 23 22  1  0
 24 13  1  0
 25 24  2  0
 26 24  1  0
 27 26  1  0
 28 30  1  0
 28 27  1  0
 29 28  2  0
M  END
$$$$
