RWG.pdb
     RDKit          3D

 30 31  0  0  1  0  0  0  0  0999 V2000
   29.9086  -21.6659  -19.3722 N   0  0  0  0  0  0  0  0  0  0  0  0
   28.7178  -22.4200  -19.5270 C   0  0  0  0  0  0  0  0  0  0  0  0
   28.6587  -23.4130  -20.3696 N   0  0  0  0  0  0  0  0  0  0  0  0
   27.5373  -22.1641  -18.8026 N   0  0  0  0  0  0  0  0  0  0  0  0
   27.5880  -21.3840  -17.5938 C   0  0  0  0  0  0  0  0  0  0  0  0
   28.5279  -22.0863  -16.6540 C   0  0  0  0  0  0  0  0  0  0  0  0
   27.9666  -22.4174  -15.3160 C   0  0  0  0  0  0  0  0  0  0  0  0
   26.5864  -21.8613  -15.1130 C   0  0  2  0  0  0  0  0  0  0  0  0
   26.5264  -20.4821  -15.4853 N   0  0  0  0  0  0  0  0  0  0  0  0
   26.0631  -22.1079  -13.7621 C   0  0  0  0  0  0  0  0  0  0  0  0
   26.0875  -23.2673  -13.2347 O   0  0  0  0  0  0  0  0  0  0  0  0
   27.7486  -23.9127  -20.4356 N   0  0  0  0  0  0  0  0  0  0  0  0
   25.5117  -21.0170  -13.0236 C   0  0  1  0  0  0  0  0  0  0  0  0
   24.9552  -21.1938  -11.7251 C   0  0  0  0  0  0  0  0  0  0  0  0
   25.4763  -20.1558  -10.7719 C   0  0  0  0  0  0  0  0  0  0  0  0
   26.8074  -20.4515  -10.2091 C   0  0  0  0  0  0  0  0  0  0  0  0
   27.8357  -21.0399  -10.9496 N   0  0  0  0  0  0  0  0  0  0  0  0
   28.9275  -21.1553  -10.1681 C   0  0  0  0  0  0  0  0  0  0  0  0
   28.6747  -20.6738   -8.9478 C   0  0  0  0  0  0  0  0  0  0  0  0
   29.4492  -20.5758   -7.8080 C   0  0  0  0  0  0  0  0  0  0  0  0
   28.9048  -20.0349   -6.6730 C   0  0  0  0  0  0  0  0  0  0  0  0
   27.6015  -19.6025   -6.6944 C   0  0  0  0  0  0  0  0  0  0  0  0
   26.8191  -19.6996   -7.8410 C   0  0  0  0  0  0  0  0  0  0  0  0
   27.3559  -20.2375   -8.9770 C   0  0  0  0  0  0  0  0  0  0  0  0
   23.4615  -21.1911  -11.7489 O   0  0  0  0  0  0  0  0  0  0  0  0
   22.7810  -21.2861  -10.6910 N   0  0  0  0  0  0  0  0  0  0  0  0
   22.7817  -21.0812  -12.9695 C   0  0  0  0  0  0  0  0  0  0  0  0
   21.3147  -21.0862  -13.0170 C   0  0  0  0  0  0  0  0  0  0  0  0
   20.7334  -20.1332  -12.0765 O   0  0  0  0  0  0  0  0  0  0  0  0
   20.8382  -18.9041  -12.2772 O   0  0  0  0  0  0  0  0  0  0  0  0
  2  1  1  0
  2  3  2  0
  4  5  1  0
  4  2  1  0
  6  5  1  0
  7  6  1  0
  8  7  1  0
  8  9  1  1
 10  8  1  0
 10 11  2  0
 12 10  1  0
 13 14  1  1
 13 12  1  0
 15 14  1  0
 15 23  1  0
 16 15  2  0
 17 16  1  0
 17 18  1  0
 18 19  1  0
 18 23  2  0
 19 20  2  0
 20 21  1  0
 22 21  2  0
 23 22  1  0
 24 13  1  0
 25 24  2  0
 26 24  1  0
 27 26  1  0
 28 30  1  0
 28 27  1  0
 29 28  2  0
M  END
$$$$
