RWG.pdb
     RDKit          3D

 30 31  0  0  1  0  0  0  0  0999 V2000
   27.0142  -18.3236  -17.7915 N   0  0  0  0  0  0  0  0  0  0  0  0
   25.6474  -18.0460  -18.0475 C   0  0  0  0  0  0  0  0  0  0  0  0
   25.2070  -17.9183  -19.2678 N   0  0  0  0  0  0  0  0  0  0  0  0
   24.6834  -17.8914  -17.0322 N   0  0  0  0  0  0  0  0  0  0  0  0
   24.7145  -18.7439  -15.8727 C   0  0  0  0  0  0  0  0  0  0  0  0
   24.1479  -20.0734  -16.2865 C   0  0  0  0  0  0  0  0  0  0  0  0
   24.0449  -21.0902  -15.2047 C   0  0  0  0  0  0  0  0  0  0  0  0
   25.1468  -20.9716  -14.1912 C   0  0  2  0  0  0  0  0  0  0  0  0
   26.3535  -21.5716  -14.6690 N   0  0  0  0  0  0  0  0  0  0  0  0
   24.7569  -21.4616  -12.8618 C   0  0  0  0  0  0  0  0  0  0  0  0
   24.4051  -22.6708  -12.6693 O   0  0  0  0  0  0  0  0  0  0  0  0
   24.1959  -17.6983  -19.3762 N   0  0  0  0  0  0  0  0  0  0  0  0
   24.7722  -20.5554  -11.7581 C   0  0  2  0  0  0  0  0  0  0  0  0
   24.3105  -20.9367  -10.4665 C   0  0  0  0  0  0  0  0  0  0  0  0
   24.9947  -20.1369   -9.3941 C   0  0  0  0  0  0  0  0  0  0  0  0
   26.4241  -20.4514   -9.2107 C   0  0  0  0  0  0  0  0  0  0  0  0
   27.1679  -21.1899  -10.1345 N   0  0  0  0  0  0  0  0  0  0  0  0
   28.4394  -21.2840   -9.6980 C   0  0  0  0  0  0  0  0  0  0  0  0
   28.5756  -20.6460   -8.5321 C   0  0  0  0  0  0  0  0  0  0  0  0
   29.6571  -20.4654   -7.6917 C   0  0  0  0  0  0  0  0  0  0  0  0
   29.4914  -19.7593   -6.5292 C   0  0  0  0  0  0  0  0  0  0  0  0
   28.2536  -19.2473   -6.2261 C   0  0  0  0  0  0  0  0  0  0  0  0
   27.1625  -19.4273   -7.0708 C   0  0  0  0  0  0  0  0  0  0  0  0
   27.3208  -20.1300   -8.2323 C   0  0  0  0  0  0  0  0  0  0  0  0
   22.8256  -20.8268  -10.3455 O   0  0  0  0  0  0  0  0  0  0  0  0
   22.2220  -19.7382  -10.5501 N   0  0  0  0  0  0  0  0  0  0  0  0
   22.0672  -21.9524   -9.9962 C   0  0  0  0  0  0  0  0  0  0  0  0
   20.6097  -21.8616   -9.8483 C   0  0  0  0  0  0  0  0  0  0  0  0
   20.1245  -22.6464   -8.7171 O   0  0  0  0  0  0  0  0  0  0  0  0
   20.9050  -23.3872   -8.0815 O   0  0  0  0  0  0  0  0  0  0  0  0
  2  1  1  0
  2  3  2  0
  4  5  1  0
  4  2  1  0
  6  5  1  0
  7  6  1  0
  8  7  1  0
  8  9  1  6
 10  8  1  0
 10 11  2  0
 12 10  1  0
 13 14  1  6
 13 12  1  0
 15 14  1  0
 15 23  1  0
 16 15  2  0
 17 16  1  0
 17 18  1  0
 18 19  1  0
 18 23  2  0
 19 20  2  0
 20 21  1  0
 22 21  2  0
 23 22  1  0
 24 13  1  0
 25 24  2  0
 26 24  1  0
 27 26  1  0
 28 30  1  0
 28 27  1  0
 29 28  2  0
M  END
$$$$
