RWG.pdb
     RDKit          3D

 30 31  0  0  1  0  0  0  0  0999 V2000
   29.1717  -25.2854  -15.9858 N   0  0  0  0  0  0  0  0  0  0  0  0
   29.1926  -24.4685  -17.1447 C   0  0  0  0  0  0  0  0  0  0  0  0
   29.9687  -24.7551  -18.1522 N   0  0  0  0  0  0  0  0  0  0  0  0
   28.3982  -23.3153  -17.2959 N   0  0  0  0  0  0  0  0  0  0  0  0
   27.6097  -22.8333  -16.1922 C   0  0  0  0  0  0  0  0  0  0  0  0
   28.4884  -21.9151  -15.3893 C   0  0  0  0  0  0  0  0  0  0  0  0
   28.3181  -21.9948  -13.9130 C   0  0  0  0  0  0  0  0  0  0  0  0
   26.9550  -21.5537  -13.4624 C   0  0  2  0  0  0  0  0  0  0  0  0
   26.6625  -20.2320  -13.9229 N   0  0  0  0  0  0  0  0  0  0  0  0
   26.7529  -21.7083  -12.0151 C   0  0  0  0  0  0  0  0  0  0  0  0
   26.9603  -22.8174  -11.4236 O   0  0  0  0  0  0  0  0  0  0  0  0
   29.8155  -24.2115  -19.0260 N   0  0  0  0  0  0  0  0  0  0  0  0
   26.3108  -20.5837  -11.2539 C   0  0  1  0  0  0  0  0  0  0  0  0
   26.1458  -20.6506   -9.8414 C   0  0  0  0  0  0  0  0  0  0  0  0
   26.9249  -19.5627   -9.1579 C   0  0  0  0  0  0  0  0  0  0  0  0
   28.0014  -20.0424   -8.2708 C   0  0  0  0  0  0  0  0  0  0  0  0
   29.0625  -20.8341   -8.7172 N   0  0  0  0  0  0  0  0  0  0  0  0
   29.8883  -21.0842   -7.6821 C   0  0  0  0  0  0  0  0  0  0  0  0
   29.4280  -20.4990   -6.5727 C   0  0  0  0  0  0  0  0  0  0  0  0
   29.8996  -20.4661   -5.2746 C   0  0  0  0  0  0  0  0  0  0  0  0
   29.1932  -19.7789   -4.3227 C   0  0  0  0  0  0  0  0  0  0  0  0
   28.0323  -19.1385   -4.6810 C   0  0  0  0  0  0  0  0  0  0  0  0
   27.5551  -19.1695   -5.9878 C   0  0  0  0  0  0  0  0  0  0  0  0
   28.2550  -19.8526   -6.9425 C   0  0  0  0  0  0  0  0  0  0  0  0
   24.7073  -20.6058   -9.4409 O   0  0  0  0  0  0  0  0  0  0  0  0
   24.3553  -20.6112   -8.2296 N   0  0  0  0  0  0  0  0  0  0  0  0
   23.7092  -20.5563  -10.4234 C   0  0  0  0  0  0  0  0  0  0  0  0
   22.2942  -20.4327  -10.0532 C   0  0  0  0  0  0  0  0  0  0  0  0
   21.4333  -20.2856  -11.2229 O   0  0  0  0  0  0  0  0  0  0  0  0
   21.9163  -20.3464  -12.3740 O   0  0  0  0  0  0  0  0  0  0  0  0
  2  1  1  0
  2  3  2  0
  4  5  1  0
  4  2  1  0
  6  5  1  0
  7  6  1  0
  8  7  1  0
  8  9  1  1
 10  8  1  0
 10 11  2  0
 12 10  1  0
 13 14  1  1
 13 12  1  0
 15 14  1  0
 15 23  1  0
 16 15  2  0
 17 16  1  0
 17 18  1  0
 18 19  1  0
 18 23  2  0
 19 20  2  0
 20 21  1  0
 22 21  2  0
 23 22  1  0
 24 13  1  0
 25 24  2  0
 26 24  1  0
 27 26  1  0
 28 30  1  0
 28 27  1  0
 29 28  2  0
M  END
$$$$
