TIM.pdb
     RDKit          3D

 24 23  0  0  1  0  0  0  0  0999 V2000
   18.7122   -4.6506  -15.5515 C   0  0  0  0  0  0  0  0  0  0  0  0
   19.9973   -3.8799  -15.4226 C   0  0  1  0  0  0  0  0  0  0  0  0
   19.7734   -2.6525  -14.7937 O   0  0  0  0  0  0  0  0  0  0  0  0
   21.0221   -4.6861  -14.6911 C   0  0  2  0  0  0  0  0  0  0  0  0
   22.1828   -3.9317  -14.3074 N   0  0  0  0  0  0  0  0  0  0  0  0
   21.3865   -5.8907  -15.4992 C   0  0  0  0  0  0  0  0  0  0  0  0
   22.1804   -5.8041  -16.4864 O   0  0  0  0  0  0  0  0  0  0  0  0
   23.6900  -10.6788  -13.9624 C   0  0  0  0  0  0  0  0  0  0  0  0
   23.2142   -9.7927  -15.0869 C   0  0  0  0  0  0  0  0  0  0  0  0
   21.8303   -9.3019  -14.9412 C   0  0  2  0  0  0  0  0  0  0  0  0
   20.9140  -10.5342  -14.9125 C   0  0  0  0  0  0  0  0  0  0  0  0
   21.3071   -8.3611  -15.9634 C   0  0  2  0  0  0  0  0  0  0  0  0
   20.8631   -7.1719  -15.1975 N   0  0  0  0  0  0  0  0  0  0  0  0
   20.1593   -8.8221  -16.7322 C   0  0  0  0  0  0  0  0  0  0  0  0
   20.2742   -9.8538  -17.4703 O   0  0  0  0  0  0  0  0  0  0  0  0
   16.3777   -9.4408  -22.8379 C   0  0  0  0  0  0  0  0  0  0  0  0
   17.7009   -9.0162  -21.7056 S   0  0  0  0  0  0  0  0  0  0  0  0
   17.1730   -9.0272  -19.9912 C   0  0  0  0  0  0  0  0  0  0  0  0
   18.2767   -8.6493  -19.0431 C   0  0  0  0  0  0  0  0  0  0  0  0
   17.8289   -8.6180  -17.5985 C   0  0  2  0  0  0  0  0  0  0  0  0
   18.9033   -8.2006  -16.7184 N   0  0  0  0  0  0  0  0  0  0  0  0
   17.4274   -9.9897  -17.2445 C   0  0  0  0  0  0  0  0  0  0  0  0
   16.0846  -10.2939  -17.1270 O   0  0  0  0  0  0  0  0  0  0  0  0
   18.2466  -10.9239  -17.0373 O   0  0  0  0  0  0  0  0  0  0  0  0
  2  3  1  0
  2  1  1  1
  4  2  1  0
  4  5  1  6
  6 13  1  0
  6  4  1  0
  7  6  2  0
  8  9  1  0
  9 10  1  0
 10 12  1  0
 10 11  1  6
 12 13  1  1
 14 15  2  0
 14 12  1  0
 16 17  1  0
 18 17  1  0
 18 19  1  0
 20 19  1  6
 20 21  1  0
 21 14  1  0
 22 20  1  0
 23 22  1  0
 24 22  2  0
M  END
$$$$
