TIM.pdb
     RDKit          3D

 24 23  0  0  1  0  0  0  0  0999 V2000
   28.6203  -18.1973  -15.7622 C   0  0  0  0  0  0  0  0  0  0  0  0
   27.4516  -18.9475  -15.1849 C   0  0  1  0  0  0  0  0  0  0  0  0
   26.4492  -19.1097  -16.1445 O   0  0  0  0  0  0  0  0  0  0  0  0
   27.8939  -20.2649  -14.6334 C   0  0  2  0  0  0  0  0  0  0  0  0
   28.4524  -21.1453  -15.6216 N   0  0  0  0  0  0  0  0  0  0  0  0
   26.7631  -20.9073  -13.8948 C   0  0  0  0  0  0  0  0  0  0  0  0
   26.2625  -22.0065  -14.2866 O   0  0  0  0  0  0  0  0  0  0  0  0
   26.5155  -20.4299   -8.4913 C   0  0  0  0  0  0  0  0  0  0  0  0
   26.2934  -21.1058   -9.8217 C   0  0  0  0  0  0  0  0  0  0  0  0
   25.1898  -20.5419  -10.6226 C   0  0  2  0  0  0  0  0  0  0  0  0
   23.8807  -20.8967   -9.9019 C   0  0  0  0  0  0  0  0  0  0  0  0
   25.0648  -20.9622  -12.0409 C   0  0  2  0  0  0  0  0  0  0  0  0
   26.2069  -20.3182  -12.7330 N   0  0  0  0  0  0  0  0  0  0  0  0
   23.8560  -20.5358  -12.7323 C   0  0  0  0  0  0  0  0  0  0  0  0
   23.5745  -19.2950  -12.7929 O   0  0  0  0  0  0  0  0  0  0  0  0
   20.7190  -23.1149  -18.1404 C   0  0  0  0  0  0  0  0  0  0  0  0
   19.4439  -22.7351  -16.9392 S   0  0  0  0  0  0  0  0  0  0  0  0
   19.9881  -21.5530  -15.7045 C   0  0  0  0  0  0  0  0  0  0  0  0
   21.3207  -21.9111  -15.1079 C   0  0  0  0  0  0  0  0  0  0  0  0
   21.7715  -20.9362  -14.0427 C   0  0  2  0  0  0  0  0  0  0  0  0
   22.9564  -21.4115  -13.3550 N   0  0  0  0  0  0  0  0  0  0  0  0
   20.6698  -20.8221  -13.0723 C   0  0  0  0  0  0  0  0  0  0  0  0
   20.5983  -21.7149  -12.0200 O   0  0  0  0  0  0  0  0  0  0  0  0
   19.7690  -19.9444  -13.1409 O   0  0  0  0  0  0  0  0  0  0  0  0
  2  3  1  0
  2  1  1  6
  4  2  1  0
  4  5  1  6
  6 13  1  0
  6  4  1  0
  7  6  2  0
  8  9  1  0
  9 10  1  0
 10 12  1  0
 10 11  1  1
 12 13  1  6
 14 15  2  0
 14 12  1  0
 16 17  1  0
 18 17  1  0
 18 19  1  0
 20 19  1  6
 20 21  1  0
 21 14  1  0
 22 20  1  0
 23 22  1  0
 24 22  2  0
M  END
$$$$
