TIM.pdb
     RDKit          3D

 24 23  0  0  1  0  0  0  0  0999 V2000
   15.3101   -9.9103  -16.8311 C   0  0  0  0  0  0  0  0  0  0  0  0
   15.8561   -9.5720  -15.4712 C   0  0  1  0  0  0  0  0  0  0  0  0
   14.9669   -9.9732  -14.4709 O   0  0  0  0  0  0  0  0  0  0  0  0
   17.2045  -10.1883  -15.2784 C   0  0  2  0  0  0  0  0  0  0  0  0
   17.2168  -11.6143  -15.4524 N   0  0  0  0  0  0  0  0  0  0  0  0
   17.7560   -9.7878  -13.9472 C   0  0  0  0  0  0  0  0  0  0  0  0
   17.8917  -10.6344  -13.0105 O   0  0  0  0  0  0  0  0  0  0  0  0
   22.3100   -7.3276  -13.5620 C   0  0  0  0  0  0  0  0  0  0  0  0
   21.0605   -8.1302  -13.2964 C   0  0  0  0  0  0  0  0  0  0  0  0
   19.9697   -7.3760  -12.6495 C   0  0  2  0  0  0  0  0  0  0  0  0
   20.5253   -6.8189  -11.3304 C   0  0  0  0  0  0  0  0  0  0  0  0
   18.7022   -8.0893  -12.3522 C   0  0  2  0  0  0  0  0  0  0  0  0
   18.1479   -8.4536  -13.6781 N   0  0  0  0  0  0  0  0  0  0  0  0
   17.6777   -7.3171  -11.6629 C   0  0  0  0  0  0  0  0  0  0  0  0
   17.2737   -6.2205  -12.1698 O   0  0  0  0  0  0  0  0  0  0  0  0
   11.4910   -7.2581   -6.7335 C   0  0  0  0  0  0  0  0  0  0  0  0
   12.9106   -8.1320   -7.3922 S   0  0  0  0  0  0  0  0  0  0  0  0
   13.9989   -7.0664   -8.3400 C   0  0  0  0  0  0  0  0  0  0  0  0
   15.1397   -7.8164   -8.9692 C   0  0  0  0  0  0  0  0  0  0  0  0
   16.0061   -6.9430   -9.8494 C   0  0  2  0  0  0  0  0  0  0  0  0
   17.0850   -7.7014  -10.4526 N   0  0  0  0  0  0  0  0  0  0  0  0
   16.5815   -5.8997   -8.9842 C   0  0  0  0  0  0  0  0  0  0  0  0
   15.9158   -4.6977   -8.8373 O   0  0  0  0  0  0  0  0  0  0  0  0
   17.6648   -6.0350   -8.3557 O   0  0  0  0  0  0  0  0  0  0  0  0
  2  3  1  0
  2  1  1  6
  4  2  1  0
  4  5  1  1
  6 13  1  0
  6  4  1  0
  7  6  2  0
  8  9  1  0
  9 10  1  0
 10 12  1  0
 10 11  1  1
 12 13  1  6
 14 15  2  0
 14 12  1  0
 16 17  1  0
 18 17  1  0
 18 19  1  0
 20 19  1  1
 20 21  1  0
 21 14  1  0
 22 20  1  0
 23 22  1  0
 24 22  2  0
M  END
$$$$
