TIM.pdb
     RDKit          3D

 24 23  0  0  1  0  0  0  0  0999 V2000
   16.3563  -27.7634   -6.1234 C   0  0  0  0  0  0  0  0  0  0  0  0
   16.3297  -26.8721   -4.9122 C   0  0  1  0  0  0  0  0  0  0  0  0
   17.2800  -27.2871   -3.9757 O   0  0  0  0  0  0  0  0  0  0  0  0
   16.5415  -25.4453   -5.3053 C   0  0  2  0  0  0  0  0  0  0  0  0
   17.7745  -25.2175   -6.0064 N   0  0  0  0  0  0  0  0  0  0  0  0
   16.4186  -24.5672   -4.1009 C   0  0  0  0  0  0  0  0  0  0  0  0
   17.3823  -23.8320   -3.7225 O   0  0  0  0  0  0  0  0  0  0  0  0
   11.9972  -21.6312   -3.5951 C   0  0  0  0  0  0  0  0  0  0  0  0
   13.4429  -22.0389   -3.4554 C   0  0  0  0  0  0  0  0  0  0  0  0
   13.7091  -23.0031   -2.3706 C   0  0  2  0  0  0  0  0  0  0  0  0
   13.3293  -22.3153   -1.0508 C   0  0  0  0  0  0  0  0  0  0  0  0
   15.0853  -23.5419   -2.2313 C   0  0  2  0  0  0  0  0  0  0  0  0
   15.2271  -24.5199   -3.3364 N   0  0  0  0  0  0  0  0  0  0  0  0
   15.3728  -24.2558   -0.9949 C   0  0  0  0  0  0  0  0  0  0  0  0
   14.7862  -25.3618   -0.7600 O   0  0  0  0  0  0  0  0  0  0  0  0
   21.1890  -25.3005    2.6675 C   0  0  0  0  0  0  0  0  0  0  0  0
   19.8742  -24.5743    3.6458 S   0  0  0  0  0  0  0  0  0  0  0  0
   18.2433  -24.9641    3.0086 C   0  0  0  0  0  0  0  0  0  0  0  0
   17.9156  -24.2051    1.7529 C   0  0  0  0  0  0  0  0  0  0  0  0
   16.5743  -24.5859    1.1662 C   0  0  2  0  0  0  0  0  0  0  0  0
   16.2726  -23.8066   -0.0189 N   0  0  0  0  0  0  0  0  0  0  0  0
   15.5602  -24.3019    2.1953 C   0  0  0  0  0  0  0  0  0  0  0  0
   15.0164  -25.3468    2.9177 O   0  0  0  0  0  0  0  0  0  0  0  0
   15.1474  -23.1429    2.4656 O   0  0  0  0  0  0  0  0  0  0  0  0
  2  3  1  0
  2  1  1  6
  4  2  1  0
  4  5  1  1
  6 13  1  0
  6  4  1  0
  7  6  2  0
  8  9  1  0
  9 10  1  0
 10 12  1  0
 10 11  1  1
 12 13  1  6
 14 15  2  0
 14 12  1  0
 16 17  1  0
 18 17  1  0
 18 19  1  0
 20 19  1  1
 20 21  1  0
 21 14  1  0
 22 20  1  0
 23 22  1  0
 24 22  2  0
M  END
$$$$
