TIM.pdb
     RDKit          3D

 24 23  0  0  1  0  0  0  0  0999 V2000
   26.3210  -22.5134  -11.5907 C   0  0  0  0  0  0  0  0  0  0  0  0
   25.6003  -21.5096  -12.4480 C   0  0  1  0  0  0  0  0  0  0  0  0
   24.2571  -21.8643  -12.5964 O   0  0  0  0  0  0  0  0  0  0  0  0
   25.7392  -20.1350  -11.8765 C   0  0  2  0  0  0  0  0  0  0  0  0
   25.1868  -20.0007  -10.5572 N   0  0  0  0  0  0  0  0  0  0  0  0
   25.1593  -19.1341  -12.8245 C   0  0  0  0  0  0  0  0  0  0  0  0
   24.1693  -18.4115  -12.4926 O   0  0  0  0  0  0  0  0  0  0  0  0
   28.4262  -16.3903  -16.1144 C   0  0  0  0  0  0  0  0  0  0  0  0
   27.2285  -16.6839  -15.2453 C   0  0  0  0  0  0  0  0  0  0  0  0
   26.1741  -17.4830  -15.8987 C   0  0  2  0  0  0  0  0  0  0  0  0
   25.5767  -16.6157  -17.0169 C   0  0  0  0  0  0  0  0  0  0  0  0
   25.0579  -17.9916  -15.0625 C   0  0  2  0  0  0  0  0  0  0  0  0
   25.6885  -18.9522  -14.1257 N   0  0  0  0  0  0  0  0  0  0  0  0
   24.0070  -18.7142  -15.7657 C   0  0  0  0  0  0  0  0  0  0  0  0
   24.2519  -19.8714  -16.2385 O   0  0  0  0  0  0  0  0  0  0  0  0
   19.8196  -21.4584  -12.8034 C   0  0  0  0  0  0  0  0  0  0  0  0
   19.6457  -22.1306  -14.4559 S   0  0  0  0  0  0  0  0  0  0  0  0
   20.0893  -20.9503  -15.7319 C   0  0  0  0  0  0  0  0  0  0  0  0
   21.2793  -20.1118  -15.3566 C   0  0  0  0  0  0  0  0  0  0  0  0
   21.6211  -19.0716  -16.4003 C   0  0  2  0  0  0  0  0  0  0  0  0
   22.7108  -18.2199  -15.9642 N   0  0  0  0  0  0  0  0  0  0  0  0
   20.4173  -18.2457  -16.5925 C   0  0  0  0  0  0  0  0  0  0  0  0
   19.3440  -18.7643  -17.2916 O   0  0  0  0  0  0  0  0  0  0  0  0
   20.3000  -17.0717  -16.1514 O   0  0  0  0  0  0  0  0  0  0  0  0
  2  3  1  0
  2  1  1  1
  4  2  1  0
  4  5  1  1
  6 13  1  0
  6  4  1  0
  7  6  2  0
  8  9  1  0
  9 10  1  0
 10 12  1  0
 10 11  1  6
 12 13  1  1
 14 15  2  0
 14 12  1  0
 16 17  1  0
 18 17  1  0
 18 19  1  0
 20 19  1  1
 20 21  1  0
 21 14  1  0
 22 20  1  0
 23 22  1  0
 24 22  2  0
M  END
$$$$
