TIM.pdb
     RDKit          3D

 24 23  0  0  1  0  0  0  0  0999 V2000
   26.5578  -18.7286  -15.6372 C   0  0  0  0  0  0  0  0  0  0  0  0
   27.2316  -19.9315  -16.2382 C   0  0  1  0  0  0  0  0  0  0  0  0
   28.2459  -19.5395  -17.1155 O   0  0  0  0  0  0  0  0  0  0  0  0
   27.7585  -20.8292  -15.1650 C   0  0  2  0  0  0  0  0  0  0  0  0
   28.5028  -21.9512  -15.6659 N   0  0  0  0  0  0  0  0  0  0  0  0
   26.6376  -21.2612  -14.2740 C   0  0  0  0  0  0  0  0  0  0  0  0
   25.9077  -22.2566  -14.5719 O   0  0  0  0  0  0  0  0  0  0  0  0
   27.1392  -20.6677   -8.8614 C   0  0  0  0  0  0  0  0  0  0  0  0
   26.7171  -21.2796  -10.1743 C   0  0  0  0  0  0  0  0  0  0  0  0
   25.5899  -20.5969  -10.8381 C   0  0  2  0  0  0  0  0  0  0  0  0
   24.3599  -20.7717   -9.9350 C   0  0  0  0  0  0  0  0  0  0  0  0
   25.2196  -21.0241  -12.2107 C   0  0  2  0  0  0  0  0  0  0  0  0
   26.3459  -20.5805  -13.0666 N   0  0  0  0  0  0  0  0  0  0  0  0
   24.0095  -20.4310  -12.7628 C   0  0  0  0  0  0  0  0  0  0  0  0
   23.9346  -19.1658  -12.8902 O   0  0  0  0  0  0  0  0  0  0  0  0
   20.6937  -22.6983  -17.6628 C   0  0  0  0  0  0  0  0  0  0  0  0
   19.5429  -21.4268  -17.1414 S   0  0  0  0  0  0  0  0  0  0  0  0
   20.0745  -20.5835  -15.6500 C   0  0  0  0  0  0  0  0  0  0  0  0
   21.2677  -21.2365  -15.0097 C   0  0  0  0  0  0  0  0  0  0  0  0
   21.7208  -20.5320  -13.7501 C   0  0  2  0  0  0  0  0  0  0  0  0
   22.8920  -21.1677  -13.1781 N   0  0  0  0  0  0  0  0  0  0  0  0
   20.6109  -20.6209  -12.7864 C   0  0  0  0  0  0  0  0  0  0  0  0
   19.5192  -19.7863  -12.9311 O   0  0  0  0  0  0  0  0  0  0  0  0
   20.5920  -21.4260  -11.8178 O   0  0  0  0  0  0  0  0  0  0  0  0
  2  3  1  0
  2  1  1  1
  4  2  1  0
  4  5  1  6
  6 13  1  0
  6  4  1  0
  7  6  2  0
  8  9  1  0
  9 10  1  0
 10 12  1  0
 10 11  1  1
 12 13  1  6
 14 15  2  0
 14 12  1  0
 16 17  1  0
 18 17  1  0
 18 19  1  0
 20 19  1  6
 20 21  1  0
 21 14  1  0
 22 20  1  0
 23 22  1  0
 24 22  2  0
M  END
$$$$
