TIM.pdb
     RDKit          3D

 24 23  0  0  1  0  0  0  0  0999 V2000
   18.0687  -29.9178  -12.0283 C   0  0  0  0  0  0  0  0  0  0  0  0
   18.2705  -29.1322  -10.7617 C   0  0  1  0  0  0  0  0  0  0  0  0
   18.5195  -29.9889   -9.6864 O   0  0  0  0  0  0  0  0  0  0  0  0
   19.3741  -28.1378  -10.9308 C   0  0  2  0  0  0  0  0  0  0  0  0
   20.6405  -28.7320  -11.2573 N   0  0  0  0  0  0  0  0  0  0  0  0
   19.4649  -27.2739   -9.7133 C   0  0  0  0  0  0  0  0  0  0  0  0
   20.4676  -27.3363   -8.9366 O   0  0  0  0  0  0  0  0  0  0  0  0
   18.4625  -22.1664  -10.4462 C   0  0  0  0  0  0  0  0  0  0  0  0
   19.0187  -23.4551   -9.8931 C   0  0  0  0  0  0  0  0  0  0  0  0
   18.1974  -24.0775   -8.8370 C   0  0  2  0  0  0  0  0  0  0  0  0
   18.1058  -23.0693   -7.6820 C   0  0  0  0  0  0  0  0  0  0  0  0
   18.6396  -25.3802   -8.2791 C   0  0  2  0  0  0  0  0  0  0  0  0
   18.4405  -26.3548   -9.3784 N   0  0  0  0  0  0  0  0  0  0  0  0
   17.8892  -25.8754   -7.1334 C   0  0  0  0  0  0  0  0  0  0  0  0
   16.6932  -26.2819   -7.2970 O   0  0  0  0  0  0  0  0  0  0  0  0
   19.8673  -26.2726   -0.6147 C   0  0  0  0  0  0  0  0  0  0  0  0
   18.6671  -27.5722   -0.9038 S   0  0  0  0  0  0  0  0  0  0  0  0
   17.6561  -27.2684   -2.3542 C   0  0  0  0  0  0  0  0  0  0  0  0
   18.4527  -26.7420   -3.5153 C   0  0  0  0  0  0  0  0  0  0  0  0
   17.5940  -26.3959   -4.7116 C   0  0  2  0  0  0  0  0  0  0  0  0
   18.3988  -25.9426   -5.8296 N   0  0  0  0  0  0  0  0  0  0  0  0
   16.6982  -25.3042   -4.2946 C   0  0  0  0  0  0  0  0  0  0  0  0
   15.4782  -25.6098   -3.7222 O   0  0  0  0  0  0  0  0  0  0  0  0
   16.9781  -24.0834   -4.4289 O   0  0  0  0  0  0  0  0  0  0  0  0
  2  3  1  0
  2  1  1  6
  4  2  1  0
  4  5  1  1
  6 13  1  0
  6  4  1  0
  7  6  2  0
  8  9  1  0
  9 10  1  0
 10 12  1  0
 10 11  1  1
 12 13  1  6
 14 15  2  0
 14 12  1  0
 16 17  1  0
 18 17  1  0
 18 19  1  0
 20 19  1  1
 20 21  1  0
 21 14  1  0
 22 20  1  0
 23 22  1  0
 24 22  2  0
M  END
$$$$
