TIM.pdb
     RDKit          3D

 24 23  0  0  1  0  0  0  0  0999 V2000
   18.4078  -12.0895  -16.4409 C   0  0  0  0  0  0  0  0  0  0  0  0
   18.2589  -12.1847  -17.9345 C   0  0  1  0  0  0  0  0  0  0  0  0
   18.0978  -13.5154  -18.3285 O   0  0  0  0  0  0  0  0  0  0  0  0
   17.1199  -11.3375  -18.4037 C   0  0  2  0  0  0  0  0  0  0  0  0
   16.8112  -11.5066  -19.7965 N   0  0  0  0  0  0  0  0  0  0  0  0
   17.3842   -9.9050  -18.0648 C   0  0  0  0  0  0  0  0  0  0  0  0
   18.0119   -9.1453  -18.8657 O   0  0  0  0  0  0  0  0  0  0  0  0
   15.1926   -5.9446  -17.7066 C   0  0  0  0  0  0  0  0  0  0  0  0
   14.9472   -7.0579  -16.7185 C   0  0  0  0  0  0  0  0  0  0  0  0
   16.0989   -7.3794  -15.8539 C   0  0  2  0  0  0  0  0  0  0  0  0
   16.4974   -6.0841  -15.1311 C   0  0  0  0  0  0  0  0  0  0  0  0
   17.3154   -7.9483  -16.4866 C   0  0  2  0  0  0  0  0  0  0  0  0
   16.9470   -9.3397  -16.8419 N   0  0  0  0  0  0  0  0  0  0  0  0
   18.5004   -8.0264  -15.6435 C   0  0  0  0  0  0  0  0  0  0  0  0
   18.3656   -8.2085  -14.3901 O   0  0  0  0  0  0  0  0  0  0  0  0
   25.4672  -11.1922  -14.5332 C   0  0  0  0  0  0  0  0  0  0  0  0
   24.2067  -10.6541  -15.6884 S   0  0  0  0  0  0  0  0  0  0  0  0
   23.0966   -9.4354  -14.9810 C   0  0  0  0  0  0  0  0  0  0  0  0
   21.9155   -9.1459  -15.8649 C   0  0  0  0  0  0  0  0  0  0  0  0
   20.9638   -8.1343  -15.2656 C   0  0  2  0  0  0  0  0  0  0  0  0
   19.8133   -7.9159  -16.1209 N   0  0  0  0  0  0  0  0  0  0  0  0
   21.7081   -6.8706  -15.1348 C   0  0  0  0  0  0  0  0  0  0  0  0
   22.3609   -6.5879  -13.9501 O   0  0  0  0  0  0  0  0  0  0  0  0
   21.7902   -6.0120  -16.0529 O   0  0  0  0  0  0  0  0  0  0  0  0
  2  3  1  0
  2  1  1  1
  4  2  1  0
  4  5  1  6
  6 13  1  0
  6  4  1  0
  7  6  2  0
  8  9  1  0
  9 10  1  0
 10 12  1  0
 10 11  1  6
 12 13  1  1
 14 15  2  0
 14 12  1  0
 16 17  1  0
 18 17  1  0
 18 19  1  0
 20 19  1  6
 20 21  1  0
 21 14  1  0
 22 20  1  0
 23 22  1  0
 24 22  2  0
M  END
$$$$
