TIM.pdb
     RDKit          3D

 24 23  0  0  1  0  0  0  0  0999 V2000
   22.0036  -24.2750  -15.8170 C   0  0  0  0  0  0  0  0  0  0  0  0
   23.0047  -23.6962  -14.8553 C   0  0  1  0  0  0  0  0  0  0  0  0
   22.8261  -24.2331  -13.5778 O   0  0  0  0  0  0  0  0  0  0  0  0
   24.3979  -23.9208  -15.3490 C   0  0  2  0  0  0  0  0  0  0  0  0
   24.7059  -25.3018  -15.5973 N   0  0  0  0  0  0  0  0  0  0  0  0
   25.3743  -23.2966  -14.4035 C   0  0  0  0  0  0  0  0  0  0  0  0
   26.1608  -24.0090  -13.7061 O   0  0  0  0  0  0  0  0  0  0  0  0
   27.9438  -18.6733  -15.7319 C   0  0  0  0  0  0  0  0  0  0  0  0
   27.6251  -20.0324  -15.1598 C   0  0  0  0  0  0  0  0  0  0  0  0
   26.8309  -20.0067  -13.9165 C   0  0  2  0  0  0  0  0  0  0  0  0
   27.6391  -19.2124  -12.8797 C   0  0  0  0  0  0  0  0  0  0  0  0
   26.4412  -21.3020  -13.3047 C   0  0  2  0  0  0  0  0  0  0  0  0
   25.4612  -21.8915  -14.2482 N   0  0  0  0  0  0  0  0  0  0  0  0
   25.7862  -21.2270  -12.0061 C   0  0  0  0  0  0  0  0  0  0  0  0
   24.5144  -21.1863  -11.9483 O   0  0  0  0  0  0  0  0  0  0  0  0
   28.5361  -19.0515   -6.2967 C   0  0  0  0  0  0  0  0  0  0  0  0
   27.1599  -20.0664   -5.7590 S   0  0  0  0  0  0  0  0  0  0  0  0
   26.0214  -20.4485   -7.0916 C   0  0  0  0  0  0  0  0  0  0  0  0
   26.7212  -20.6860   -8.4008 C   0  0  0  0  0  0  0  0  0  0  0  0
   25.7726  -21.0636   -9.5170 C   0  0  2  0  0  0  0  0  0  0  0  0
   26.4682  -21.1981  -10.7823 N   0  0  0  0  0  0  0  0  0  0  0  0
   24.7865  -19.9757   -9.6277 C   0  0  0  0  0  0  0  0  0  0  0  0
   23.5093  -20.1659   -9.1355 O   0  0  0  0  0  0  0  0  0  0  0  0
   25.0372  -18.8588  -10.1533 O   0  0  0  0  0  0  0  0  0  0  0  0
  2  3  1  0
  2  1  1  6
  4  2  1  0
  4  5  1  1
  6 13  1  0
  6  4  1  0
  7  6  2  0
  8  9  1  0
  9 10  1  0
 10 12  1  0
 10 11  1  1
 12 13  1  6
 14 15  2  0
 14 12  1  0
 16 17  1  0
 18 17  1  0
 18 19  1  0
 20 19  1  1
 20 21  1  0
 21 14  1  0
 22 20  1  0
 23 22  1  0
 24 22  2  0
M  END
$$$$
