TIM.pdb
     RDKit          3D

 24 23  0  0  1  0  0  0  0  0999 V2000
   19.3877  -13.9819  -17.8923 C   0  0  0  0  0  0  0  0  0  0  0  0
   20.4022  -13.3835  -16.9570 C   0  0  1  0  0  0  0  0  0  0  0  0
   21.5753  -14.1425  -16.9536 O   0  0  0  0  0  0  0  0  0  0  0  0
   20.6773  -11.9600  -17.3217 C   0  0  2  0  0  0  0  0  0  0  0  0
   21.2474  -11.8000  -18.6306 N   0  0  0  0  0  0  0  0  0  0  0  0
   21.5255  -11.3243  -16.2665 C   0  0  0  0  0  0  0  0  0  0  0  0
   21.1960  -11.3727  -15.0411 O   0  0  0  0  0  0  0  0  0  0  0  0
   26.7619  -12.0572  -16.3668 C   0  0  0  0  0  0  0  0  0  0  0  0
   25.3685  -11.7939  -15.8516 C   0  0  0  0  0  0  0  0  0  0  0  0
   24.9558  -10.3777  -15.8872 C   0  0  2  0  0  0  0  0  0  0  0  0
   25.8941   -9.6093  -14.9446 C   0  0  0  0  0  0  0  0  0  0  0  0
   23.5569  -10.0439  -15.5194 C   0  0  2  0  0  0  0  0  0  0  0  0
   22.7258  -10.6454  -16.5897 N   0  0  0  0  0  0  0  0  0  0  0  0
   23.2263   -8.6263  -15.4731 C   0  0  0  0  0  0  0  0  0  0  0  0
   23.7610   -7.8878  -14.5836 O   0  0  0  0  0  0  0  0  0  0  0  0
   22.0562   -1.9658  -19.3469 C   0  0  0  0  0  0  0  0  0  0  0  0
   22.2916   -3.7428  -19.3407 S   0  0  0  0  0  0  0  0  0  0  0  0
   22.0596   -4.4645  -17.7149 C   0  0  0  0  0  0  0  0  0  0  0  0
   22.2521   -5.9555  -17.7104 C   0  0  0  0  0  0  0  0  0  0  0  0
   22.1166   -6.5639  -16.3321 C   0  0  2  0  0  0  0  0  0  0  0  0
   22.3423   -7.9961  -16.3593 N   0  0  0  0  0  0  0  0  0  0  0  0
   20.7379   -6.3063  -15.8836 C   0  0  0  0  0  0  0  0  0  0  0  0
   20.4228   -5.0794  -15.3314 O   0  0  0  0  0  0  0  0  0  0  0  0
   19.8071   -7.1504  -15.9727 O   0  0  0  0  0  0  0  0  0  0  0  0
  2  3  1  0
  2  1  1  6
  4  2  1  0
  4  5  1  6
  6 13  1  0
  6  4  1  0
  7  6  2  0
  8  9  1  0
  9 10  1  0
 10 12  1  0
 10 11  1  1
 12 13  1  6
 14 15  2  0
 14 12  1  0
 16 17  1  0
 18 17  1  0
 18 19  1  0
 20 19  1  6
 20 21  1  0
 21 14  1  0
 22 20  1  0
 23 22  1  0
 24 22  2  0
M  END
$$$$
