DEL.pdb
     RDKit          3D

 26 25  0  0  1  0  0  0  0  0999 V2000
    9.4832  -14.6823   19.3212 N   0  0  0  0  0  0  0  0  0  0  0  0
    8.3128  -14.9256   20.0927 C   0  0  1  0  0  0  0  0  0  0  0  0
    7.1969  -15.5005   19.2435 C   0  0  0  0  0  0  0  0  0  0  0  0
    7.5392  -15.3291   17.8247 C   0  0  0  0  0  0  0  0  0  0  0  0
    7.8125  -16.3092   17.1170 O   0  0  0  0  0  0  0  0  0  0  0  0
    8.4956  -15.6730   21.3444 C   0  0  0  0  0  0  0  0  0  0  0  0
    7.3995  -16.0463   21.9069 O   0  0  0  0  0  0  0  0  0  0  0  0
    7.5584  -14.0634   17.2669 O   0  0  0  0  0  0  0  0  0  0  0  0
    9.6904  -16.0174   21.9789 N   0  0  0  0  0  0  0  0  0  0  0  0
    9.6896  -16.7795   23.2306 C   0  0  1  0  0  0  0  0  0  0  0  0
   10.7898  -17.8058   23.2433 C   0  0  0  0  0  0  0  0  0  0  0  0
   10.6914  -18.8127   22.1576 C   0  0  0  0  0  0  0  0  0  0  0  0
   11.8861  -19.6823   22.1775 C   0  0  0  0  0  0  0  0  0  0  0  0
   12.8742  -19.3579   21.4805 O   0  0  0  0  0  0  0  0  0  0  0  0
    9.7940  -15.8411   24.3855 C   0  0  0  0  0  0  0  0  0  0  0  0
   10.8089  -15.0700   24.4883 O   0  0  0  0  0  0  0  0  0  0  0  0
   11.9841  -20.8465   22.9261 O   0  0  0  0  0  0  0  0  0  0  0  0
    8.3671  -11.7884   25.8207 C   0  0  0  0  0  0  0  0  0  0  0  0
    7.4026  -12.9045   25.9109 C   0  0  2  0  0  0  0  0  0  0  0  0
    6.0209  -12.3248   26.3017 C   0  0  0  0  0  0  0  0  0  0  0  0
    7.7142  -14.0750   26.7375 C   0  0  0  0  0  0  0  0  0  0  0  0
    8.9573  -14.8420   26.5713 C   0  0  2  0  0  0  0  0  0  0  0  0
    8.8279  -15.7459   25.3925 N   0  0  0  0  0  0  0  0  0  0  0  0
    9.4868  -15.6193   27.6829 C   0  0  0  0  0  0  0  0  0  0  0  0
   10.1609  -15.1241   28.7807 O   0  0  0  0  0  0  0  0  0  0  0  0
    9.3228  -16.9058   27.6533 O   0  0  0  0  0  0  0  0  0  0  0  0
  2  1  1  6
  2  3  1  0
  3  4  1  0
  4  8  1  0
  5  4  2  0
  6  7  2  0
  6  2  1  0
  9  6  1  0
 10  9  1  0
 10 11  1  6
 12 13  1  0
 12 11  1  0
 13 14  2  0
 15 10  1  0
 16 15  2  0
 17 13  1  0
 19 18  1  1
 19 21  1  0
 20 19  1  0
 22 21  1  1
 22 24  1  0
 22 23  1  0
 23 15  1  0
 24 25  1  0
 26 24  2  0
M  END
$$$$
