DEL.pdb
     RDKit          3D

 26 25  0  0  1  0  0  0  0  0999 V2000
    9.3816  -18.2299   20.2993 N   0  0  0  0  0  0  0  0  0  0  0  0
   10.1872  -17.4345   21.1610 C   0  0  1  0  0  0  0  0  0  0  0  0
   10.5354  -16.1038   20.5248 C   0  0  0  0  0  0  0  0  0  0  0  0
   11.6043  -16.3109   19.5379 C   0  0  0  0  0  0  0  0  0  0  0  0
   12.3005  -17.3360   19.5651 O   0  0  0  0  0  0  0  0  0  0  0  0
    9.7141  -17.2790   22.5433 C   0  0  0  0  0  0  0  0  0  0  0  0
    8.5517  -16.7364   22.6506 O   0  0  0  0  0  0  0  0  0  0  0  0
   11.8413  -15.3559   18.5656 O   0  0  0  0  0  0  0  0  0  0  0  0
   10.3624  -17.6427   23.7249 N   0  0  0  0  0  0  0  0  0  0  0  0
    9.6718  -17.5819   25.0160 C   0  0  1  0  0  0  0  0  0  0  0  0
   10.0408  -18.7526   25.8860 C   0  0  0  0  0  0  0  0  0  0  0  0
    9.4696  -18.6943   27.2544 C   0  0  0  0  0  0  0  0  0  0  0  0
    9.9197  -19.8684   28.0306 C   0  0  0  0  0  0  0  0  0  0  0  0
   11.0248  -19.8110   28.6162 O   0  0  0  0  0  0  0  0  0  0  0  0
    9.9724  -16.2809   25.6812 C   0  0  0  0  0  0  0  0  0  0  0  0
   11.1716  -15.8373   25.6971 O   0  0  0  0  0  0  0  0  0  0  0  0
    9.1893  -21.0418   28.1534 O   0  0  0  0  0  0  0  0  0  0  0  0
    8.2272  -12.2867   24.6732 C   0  0  0  0  0  0  0  0  0  0  0  0
    7.5047  -13.0177   25.7353 C   0  0  2  0  0  0  0  0  0  0  0  0
    6.1670  -12.2866   26.0072 C   0  0  0  0  0  0  0  0  0  0  0  0
    8.1804  -13.3266   26.9996 C   0  0  0  0  0  0  0  0  0  0  0  0
    9.3205  -14.2519   27.0720 C   0  0  2  0  0  0  0  0  0  0  0  0
    9.0019  -15.4914   26.3067 N   0  0  0  0  0  0  0  0  0  0  0  0
    9.8581  -14.6442   28.3672 C   0  0  0  0  0  0  0  0  0  0  0  0
    9.8901  -15.9221   28.8873 O   0  0  0  0  0  0  0  0  0  0  0  0
   10.3553  -13.7139   29.1222 O   0  0  0  0  0  0  0  0  0  0  0  0
  2  1  1  6
  2  3  1  0
  3  4  1  0
  4  8  1  0
  5  4  2  0
  6  7  2  0
  6  2  1  0
  9  6  1  0
 10  9  1  0
 10 11  1  1
 12 13  1  0
 12 11  1  0
 13 14  2  0
 15 10  1  0
 16 15  2  0
 17 13  1  0
 19 18  1  6
 19 21  1  0
 20 19  1  0
 22 21  1  1
 22 24  1  0
 22 23  1  0
 23 15  1  0
 24 25  1  0
 26 24  2  0
M  END
$$$$
