DEL.pdb
     RDKit          3D

 26 25  0  0  1  0  0  0  0  0999 V2000
   12.7660  -16.4861   20.9497 N   0  0  0  0  0  0  0  0  0  0  0  0
   12.0616  -15.2695   20.7305 C   0  0  1  0  0  0  0  0  0  0  0  0
   12.3978  -14.6680   19.3808 C   0  0  0  0  0  0  0  0  0  0  0  0
   13.8522  -14.4768   19.2916 C   0  0  0  0  0  0  0  0  0  0  0  0
   14.5814  -14.7064   20.2671 O   0  0  0  0  0  0  0  0  0  0  0  0
   10.6136  -15.2958   20.9784 C   0  0  0  0  0  0  0  0  0  0  0  0
    9.9789  -14.2661   20.5378 O   0  0  0  0  0  0  0  0  0  0  0  0
   14.4197  -14.0364   18.1094 O   0  0  0  0  0  0  0  0  0  0  0  0
    9.8643  -16.2835   21.6200 N   0  0  0  0  0  0  0  0  0  0  0  0
    8.4219  -16.1250   21.8251 C   0  0  1  0  0  0  0  0  0  0  0  0
    7.6930  -17.4193   21.5859 C   0  0  0  0  0  0  0  0  0  0  0  0
    8.1223  -18.1389   20.3611 C   0  0  0  0  0  0  0  0  0  0  0  0
    7.4231  -19.4380   20.2780 C   0  0  0  0  0  0  0  0  0  0  0  0
    6.1726  -19.4498   20.3381 O   0  0  0  0  0  0  0  0  0  0  0  0
    8.1690  -15.5917   23.1951 C   0  0  0  0  0  0  0  0  0  0  0  0
    6.9680  -15.4103   23.5949 O   0  0  0  0  0  0  0  0  0  0  0  0
    8.0696  -20.6577   20.1362 O   0  0  0  0  0  0  0  0  0  0  0  0
    5.8302  -12.5254   26.4444 C   0  0  0  0  0  0  0  0  0  0  0  0
    7.2230  -13.0189   26.4701 C   0  0  2  0  0  0  0  0  0  0  0  0
    8.1510  -11.8407   26.8556 C   0  0  0  0  0  0  0  0  0  0  0  0
    7.7665  -13.7349   25.3115 C   0  0  0  0  0  0  0  0  0  0  0  0
    8.9396  -14.6150   25.4151 C   0  0  2  0  0  0  0  0  0  0  0  0
    9.1874  -15.2674   24.0974 N   0  0  0  0  0  0  0  0  0  0  0  0
    8.9900  -15.6419   26.4462 C   0  0  0  0  0  0  0  0  0  0  0  0
    9.7700  -15.6215   27.5846 O   0  0  0  0  0  0  0  0  0  0  0  0
    8.2387  -16.6885   26.2944 O   0  0  0  0  0  0  0  0  0  0  0  0
  2  1  1  6
  2  3  1  0
  3  4  1  0
  4  8  1  0
  5  4  2  0
  6  7  2  0
  6  2  1  0
  9  6  1  0
 10  9  1  0
 10 11  1  1
 12 13  1  0
 12 11  1  0
 13 14  2  0
 15 10  1  0
 16 15  2  0
 17 13  1  0
 19 18  1  6
 19 21  1  0
 20 19  1  0
 22 21  1  6
 22 24  1  0
 22 23  1  0
 23 15  1  0
 24 25  1  0
 26 24  2  0
M  END
$$$$
