DEL.pdb
     RDKit          3D

 26 25  0  0  1  0  0  0  0  0999 V2000
   10.5499  -16.0239   18.5161 N   0  0  0  0  0  0  0  0  0  0  0  0
   11.1565  -15.7390   19.7713 C   0  0  1  0  0  0  0  0  0  0  0  0
   11.8420  -14.3874   19.7632 C   0  0  0  0  0  0  0  0  0  0  0  0
   13.1911  -14.5390   19.2007 C   0  0  0  0  0  0  0  0  0  0  0  0
   13.6698  -15.6644   18.9995 O   0  0  0  0  0  0  0  0  0  0  0  0
   10.3175  -15.9259   20.9629 C   0  0  0  0  0  0  0  0  0  0  0  0
    9.1681  -15.3498   20.9009 O   0  0  0  0  0  0  0  0  0  0  0  0
   13.9399  -13.4181   18.8903 O   0  0  0  0  0  0  0  0  0  0  0  0
   10.6146  -16.6385   22.1260 N   0  0  0  0  0  0  0  0  0  0  0  0
    9.5726  -16.9523   23.1076 C   0  0  1  0  0  0  0  0  0  0  0  0
    9.6228  -18.4012   23.5097 C   0  0  0  0  0  0  0  0  0  0  0  0
    9.3921  -19.3487   22.3910 C   0  0  0  0  0  0  0  0  0  0  0  0
    9.5060  -20.7368   22.8848 C   0  0  0  0  0  0  0  0  0  0  0  0
   10.1934  -21.5513   22.2278 O   0  0  0  0  0  0  0  0  0  0  0  0
    9.7075  -16.0457   24.2845 C   0  0  0  0  0  0  0  0  0  0  0  0
   10.8629  -15.6216   24.6312 O   0  0  0  0  0  0  0  0  0  0  0  0
    8.8942  -21.2001   24.0408 O   0  0  0  0  0  0  0  0  0  0  0  0
    7.4602  -12.0039   25.2945 C   0  0  0  0  0  0  0  0  0  0  0  0
    6.8085  -13.2676   25.6976 C   0  0  2  0  0  0  0  0  0  0  0  0
    5.3842  -12.9402   26.2094 C   0  0  0  0  0  0  0  0  0  0  0  0
    7.4864  -14.1751   26.6289 C   0  0  0  0  0  0  0  0  0  0  0  0
    8.7702  -14.8137   26.3044 C   0  0  2  0  0  0  0  0  0  0  0  0
    8.6229  -15.6164   25.0565 N   0  0  0  0  0  0  0  0  0  0  0  0
    9.4440  -15.6386   27.2974 C   0  0  0  0  0  0  0  0  0  0  0  0
    9.6627  -16.9990   27.2194 O   0  0  0  0  0  0  0  0  0  0  0  0
    9.8841  -15.0558   28.3694 O   0  0  0  0  0  0  0  0  0  0  0  0
  2  1  1  6
  2  3  1  0
  3  4  1  0
  4  8  1  0
  5  4  2  0
  6  7  2  0
  6  2  1  0
  9  6  1  0
 10  9  1  0
 10 11  1  1
 12 13  1  0
 12 11  1  0
 13 14  2  0
 15 10  1  0
 16 15  2  0
 17 13  1  0
 19 18  1  1
 19 21  1  0
 20 19  1  0
 22 21  1  1
 22 24  1  0
 22 23  1  0
 23 15  1  0
 24 25  1  0
 26 24  2  0
M  END
$$$$
