LIH.pdb
     RDKit          3D

 27 27  0  0  1  0  0  0  0  0999 V2000
   14.0443  -14.2490  -11.7162 C   0  0  0  0  0  0  0  0  0  0  0  0
   13.9463  -13.2381  -10.6130 C   0  0  1  0  0  0  0  0  0  0  0  0
   14.9038  -13.6502   -9.5169 C   0  0  0  0  0  0  0  0  0  0  0  0
   14.2186  -11.8292  -11.0930 C   0  0  0  0  0  0  0  0  0  0  0  0
   13.8660  -10.8831   -9.9674 C   0  0  2  0  0  0  0  0  0  0  0  0
   12.4428  -10.9675   -9.7116 N   0  0  0  0  0  0  0  0  0  0  0  0
   14.1761   -9.4742  -10.2982 C   0  0  0  0  0  0  0  0  0  0  0  0
   13.4069   -8.8156  -11.0382 O   0  0  0  0  0  0  0  0  0  0  0  0
   14.2215   -5.6382   -7.1038 C   0  0  0  0  0  0  0  0  0  0  0  0
   14.2176   -6.4692   -8.3883 C   0  0  0  0  0  0  0  0  0  0  0  0
   15.6048   -6.6065   -8.9418 C   0  0  2  0  0  0  0  0  0  0  0  0
   16.1357   -5.2029   -9.1768 C   0  0  0  0  0  0  0  0  0  0  0  0
   15.7186   -7.4692  -10.1552 C   0  0  2  0  0  0  0  0  0  0  0  0
   15.3420   -8.8340   -9.7923 N   0  0  0  0  0  0  0  0  0  0  0  0
   17.0798   -7.4377  -10.7344 C   0  0  0  0  0  0  0  0  0  0  0  0
   18.0925   -7.7206  -10.0489 O   0  0  0  0  0  0  0  0  0  0  0  0
   17.3297   -7.0888  -12.0907 N   0  0  0  0  0  0  0  0  0  0  0  0
   18.6607   -7.0961  -12.6864 C   0  0  1  0  0  0  0  0  0  0  0  0
   18.7991   -8.1389  -13.7320 C   0  0  0  0  0  0  0  0  0  0  0  0
   20.1167   -8.0801  -14.3857 C   0  0  0  0  0  0  0  0  0  0  0  0
   21.3439   -8.5128  -13.8631 C   0  0  0  0  0  0  0  0  0  0  0  0
   22.3323   -8.3065  -14.7292 N   0  0  0  0  0  0  0  0  0  0  0  0
   21.7639   -7.7429  -15.8137 C   0  0  0  0  0  0  0  0  0  0  0  0
   20.4434   -7.6111  -15.6018 N   0  0  0  0  0  0  0  0  0  0  0  0
   18.9919   -5.7655  -13.2200 C   0  0  0  0  0  0  0  0  0  0  0  0
   18.0573   -4.9893  -13.5367 O   0  0  0  0  0  0  0  0  0  0  0  0
   20.2864   -5.3676  -13.3714 O   0  0  0  0  0  0  0  0  0  0  0  0
  2  3  1  1
  2  1  1  0
  4  2  1  0
  5  6  1  6
  5  4  1  0
  7  5  1  0
  8  7  2  0
 10  9  1  0
 11 10  1  0
 11 13  1  0
 11 12  1  6
 13 14  1  1
 14  7  1  0
 15 13  1  0
 15 16  2  0
 17 15  1  0
 18 17  1  0
 18 19  1  6
 20 19  1  0
 21 20  2  0
 22 21  1  0
 23 22  1  0
 23 24  2  0
 24 20  1  0
 25 18  1  0
 26 25  2  0
 27 25  1  0
M  END
$$$$
