LIH.pdb
     RDKit          3D

 27 27  0  0  1  0  0  0  0  0999 V2000
   15.9071  -11.7881  -20.4804 C   0  0  0  0  0  0  0  0  0  0  0  0
   17.3235  -12.1048  -20.1035 C   0  0  1  0  0  0  0  0  0  0  0  0
   18.2301  -11.5153  -21.1612 C   0  0  0  0  0  0  0  0  0  0  0  0
   17.6797  -11.6058  -18.7201 C   0  0  0  0  0  0  0  0  0  0  0  0
   19.1483  -11.8858  -18.4938 C   0  0  2  0  0  0  0  0  0  0  0  0
   19.3300  -13.3092  -18.2970 N   0  0  0  0  0  0  0  0  0  0  0  0
   19.6735  -11.1996  -17.2921 C   0  0  0  0  0  0  0  0  0  0  0  0
   18.8883  -10.8012  -16.3989 O   0  0  0  0  0  0  0  0  0  0  0  0
   24.2876  -13.0674  -15.2093 C   0  0  0  0  0  0  0  0  0  0  0  0
   22.8824  -12.4790  -15.3502 C   0  0  0  0  0  0  0  0  0  0  0  0
   22.9435  -11.0054  -15.6227 C   0  0  2  0  0  0  0  0  0  0  0  0
   23.6558  -10.3602  -14.4464 C   0  0  0  0  0  0  0  0  0  0  0  0
   21.6285  -10.3617  -15.9151 C   0  0  2  0  0  0  0  0  0  0  0  0
   21.0678  -10.9748  -17.1176 N   0  0  0  0  0  0  0  0  0  0  0  0
   21.7513   -8.8967  -16.0825 C   0  0  0  0  0  0  0  0  0  0  0  0
   22.4388   -8.3958  -17.0056 O   0  0  0  0  0  0  0  0  0  0  0  0
   21.1063   -7.9680  -15.2190 N   0  0  0  0  0  0  0  0  0  0  0  0
   21.2368   -6.5223  -15.3584 C   0  0  1  0  0  0  0  0  0  0  0  0
   19.9743   -5.8884  -15.8099 C   0  0  0  0  0  0  0  0  0  0  0  0
   20.1145   -4.4284  -15.9342 C   0  0  0  0  0  0  0  0  0  0  0  0
   20.8108   -3.7237  -16.9266 C   0  0  0  0  0  0  0  0  0  0  0  0
   20.7284   -2.4108  -16.7284 N   0  0  0  0  0  0  0  0  0  0  0  0
   19.9847   -2.2494  -15.6159 C   0  0  0  0  0  0  0  0  0  0  0  0
   19.6225   -3.4560  -15.1481 N   0  0  0  0  0  0  0  0  0  0  0  0
   21.7067   -5.9251  -14.0985 C   0  0  0  0  0  0  0  0  0  0  0  0
   21.4872   -6.5313  -13.0211 O   0  0  0  0  0  0  0  0  0  0  0  0
   22.3724   -4.7362  -14.0857 O   0  0  0  0  0  0  0  0  0  0  0  0
  2  3  1  6
  2  1  1  0
  4  2  1  0
  5  6  1  1
  5  4  1  0
  7  5  1  0
  8  7  2  0
 10  9  1  0
 11 10  1  0
 11 13  1  0
 11 12  1  1
 13 14  1  6
 14  7  1  0
 15 13  1  0
 15 16  2  0
 17 15  1  0
 18 17  1  0
 18 19  1  1
 20 19  1  0
 21 20  2  0
 22 21  1  0
 23 22  1  0
 23 24  2  0
 24 20  1  0
 25 18  1  0
 26 25  2  0
 27 25  1  0
M  END
$$$$
