LIH.pdb
     RDKit          3D

 27 27  0  0  1  0  0  0  0  0999 V2000
   29.5895  -20.5554   -7.5365 C   0  0  0  0  0  0  0  0  0  0  0  0
   28.2004  -20.4333   -6.9853 C   0  0  1  0  0  0  0  0  0  0  0  0
   28.2739  -19.6189   -5.7126 C   0  0  0  0  0  0  0  0  0  0  0  0
   27.2337  -19.8295   -7.9806 C   0  0  0  0  0  0  0  0  0  0  0  0
   27.0297  -20.8344   -9.0919 C   0  0  2  0  0  0  0  0  0  0  0  0
   28.3179  -21.3660   -9.4865 N   0  0  0  0  0  0  0  0  0  0  0  0
   26.4114  -20.2283  -10.2924 C   0  0  0  0  0  0  0  0  0  0  0  0
   26.7477  -19.0782  -10.6631 O   0  0  0  0  0  0  0  0  0  0  0  0
   27.4302  -22.0216  -14.7812 C   0  0  0  0  0  0  0  0  0  0  0  0
   26.9575  -21.1418  -13.6223 C   0  0  0  0  0  0  0  0  0  0  0  0
   25.4757  -21.2658  -13.4253 C   0  0  2  0  0  0  0  0  0  0  0  0
   24.8191  -20.9810  -14.7651 C   0  0  0  0  0  0  0  0  0  0  0  0
   24.9122  -20.4284  -12.3251 C   0  0  2  0  0  0  0  0  0  0  0  0
   25.4295  -20.9245  -11.0514 N   0  0  0  0  0  0  0  0  0  0  0  0
   23.4325  -20.4308  -12.3263 C   0  0  0  0  0  0  0  0  0  0  0  0
   22.7766  -21.4404  -11.9710 O   0  0  0  0  0  0  0  0  0  0  0  0
   22.6627  -19.3030  -12.7254 N   0  0  0  0  0  0  0  0  0  0  0  0
   21.2057  -19.3097  -12.7853 C   0  0  1  0  0  0  0  0  0  0  0  0
   20.6493  -17.9522  -13.0027 C   0  0  0  0  0  0  0  0  0  0  0  0
   19.1840  -17.9821  -13.1404 C   0  0  0  0  0  0  0  0  0  0  0  0
   18.3371  -19.0859  -12.9652 C   0  0  0  0  0  0  0  0  0  0  0  0
   17.0660  -18.7510  -13.1696 N   0  0  0  0  0  0  0  0  0  0  0  0
   17.0727  -17.4386  -13.4768 C   0  0  0  0  0  0  0  0  0  0  0  0
   18.3383  -16.9872  -13.4574 N   0  0  0  0  0  0  0  0  0  0  0  0
   20.7385  -20.2443  -13.8213 C   0  0  0  0  0  0  0  0  0  0  0  0
   21.3098  -20.2454  -14.9393 O   0  0  0  0  0  0  0  0  0  0  0  0
   19.7061  -21.1018  -13.5850 O   0  0  0  0  0  0  0  0  0  0  0  0
  2  3  1  1
  2  1  1  0
  4  2  1  0
  5  6  1  6
  5  4  1  0
  7  5  1  0
  8  7  2  0
 10  9  1  0
 11 10  1  0
 11 13  1  0
 11 12  1  6
 13 14  1  1
 14  7  1  0
 15 13  1  0
 15 16  2  0
 17 15  1  0
 18 17  1  0
 18 19  1  6
 20 19  1  0
 21 20  2  0
 22 21  1  0
 23 22  1  0
 23 24  2  0
 24 20  1  0
 25 18  1  0
 26 25  2  0
 27 25  1  0
M  END
$$$$
