LIH.pdb
     RDKit          3D

 27 27  0  0  1  0  0  0  0  0999 V2000
   14.8030  -15.1417  -16.2841 C   0  0  0  0  0  0  0  0  0  0  0  0
   16.1161  -14.5955  -16.7594 C   0  0  1  0  0  0  0  0  0  0  0  0
   15.8690  -13.8453  -18.0496 C   0  0  0  0  0  0  0  0  0  0  0  0
   16.7882  -13.7208  -15.7238 C   0  0  0  0  0  0  0  0  0  0  0  0
   18.1358  -13.3098  -16.2729 C   0  0  2  0  0  0  0  0  0  0  0  0
   19.0244  -14.4532  -16.2409 N   0  0  0  0  0  0  0  0  0  0  0  0
   18.7650  -12.2344  -15.4740 C   0  0  0  0  0  0  0  0  0  0  0  0
   19.1408  -12.4587  -14.2986 O   0  0  0  0  0  0  0  0  0  0  0  0
   21.6483   -9.1588  -18.3133 C   0  0  0  0  0  0  0  0  0  0  0  0
   21.5186   -9.6037  -16.8553 C   0  0  0  0  0  0  0  0  0  0  0  0
   20.3253   -8.9684  -16.2055 C   0  0  2  0  0  0  0  0  0  0  0  0
   20.8002   -7.6801  -15.5560 C   0  0  0  0  0  0  0  0  0  0  0  0
   19.5822   -9.8462  -15.2534 C   0  0  2  0  0  0  0  0  0  0  0  0
   18.9594  -10.9305  -16.0100 N   0  0  0  0  0  0  0  0  0  0  0  0
   18.5673   -9.0957  -14.4813 C   0  0  0  0  0  0  0  0  0  0  0  0
   17.4739   -8.7518  -14.9932 O   0  0  0  0  0  0  0  0  0  0  0  0
   18.7597   -8.7176  -13.1234 N   0  0  0  0  0  0  0  0  0  0  0  0
   17.7646   -7.9863  -12.3480 C   0  0  1  0  0  0  0  0  0  0  0  0
   17.5741   -8.5653  -10.9959 C   0  0  0  0  0  0  0  0  0  0  0  0
   16.6060   -7.7885  -10.2046 C   0  0  0  0  0  0  0  0  0  0  0  0
   15.9157   -6.6345  -10.6024 C   0  0  0  0  0  0  0  0  0  0  0  0
   15.1195   -6.1946   -9.6317 N   0  0  0  0  0  0  0  0  0  0  0  0
   15.2820   -7.0495   -8.6024 C   0  0  0  0  0  0  0  0  0  0  0  0
   16.1693   -7.9966   -8.9509 N   0  0  0  0  0  0  0  0  0  0  0  0
   18.1224   -6.5613  -12.2669 C   0  0  0  0  0  0  0  0  0  0  0  0
   17.2340   -5.7296  -11.9580 O   0  0  0  0  0  0  0  0  0  0  0  0
   19.3928   -6.1369  -12.5177 O   0  0  0  0  0  0  0  0  0  0  0  0
  2  3  1  6
  2  1  1  0
  4  2  1  0
  5  6  1  1
  5  4  1  0
  7  5  1  0
  8  7  2  0
 10  9  1  0
 11 10  1  0
 11 13  1  0
 11 12  1  1
 13 14  1  6
 14  7  1  0
 15 13  1  0
 15 16  2  0
 17 15  1  0
 18 17  1  0
 18 19  1  1
 20 19  1  0
 21 20  2  0
 22 21  1  0
 23 22  1  0
 23 24  2  0
 24 20  1  0
 25 18  1  0
 26 25  2  0
 27 25  1  0
M  END
$$$$
