LIH.pdb
     RDKit          3D

 27 27  0  0  1  0  0  0  0  0999 V2000
   42.9259  -16.4690   -9.4356 C   0  0  0  0  0  0  0  0  0  0  0  0
   43.9174  -15.3605   -9.2436 C   0  0  1  0  0  0  0  0  0  0  0  0
   44.6428  -15.1519  -10.5546 C   0  0  0  0  0  0  0  0  0  0  0  0
   43.2705  -14.0837   -8.7530 C   0  0  0  0  0  0  0  0  0  0  0  0
   44.3660  -13.0620   -8.5474 C   0  0  2  0  0  0  0  0  0  0  0  0
   45.0634  -13.3632   -7.3142 N   0  0  0  0  0  0  0  0  0  0  0  0
   43.8370  -11.6843   -8.4348 C   0  0  0  0  0  0  0  0  0  0  0  0
   43.2379  -11.3213   -7.3944 O   0  0  0  0  0  0  0  0  0  0  0  0
   47.0029   -7.6774   -9.5796 C   0  0  0  0  0  0  0  0  0  0  0  0
   45.8851   -8.5348   -8.9831 C   0  0  0  0  0  0  0  0  0  0  0  0
   44.6454   -8.4595   -9.8240 C   0  0  2  0  0  0  0  0  0  0  0  0
   44.2248   -7.0008   -9.8745 C   0  0  0  0  0  0  0  0  0  0  0  0
   43.5338   -9.3584   -9.3929 C   0  0  2  0  0  0  0  0  0  0  0  0
   43.9910  -10.7431   -9.4910 N   0  0  0  0  0  0  0  0  0  0  0  0
   42.3088   -9.1529  -10.1969 C   0  0  0  0  0  0  0  0  0  0  0  0
   42.2752   -9.4183  -11.4233 O   0  0  0  0  0  0  0  0  0  0  0  0
   41.1009   -8.6467   -9.6411 N   0  0  0  0  0  0  0  0  0  0  0  0
   39.8944   -8.4150  -10.4266 C   0  0  1  0  0  0  0  0  0  0  0  0
   38.9940   -9.5936  -10.4284 C   0  0  0  0  0  0  0  0  0  0  0  0
   39.1809  -10.4170  -11.6342 C   0  0  0  0  0  0  0  0  0  0  0  0
   40.0935  -10.2013  -12.6768 C   0  0  0  0  0  0  0  0  0  0  0  0
   39.9880  -11.1453  -13.6081 N   0  0  0  0  0  0  0  0  0  0  0  0
   39.0152  -11.9769  -13.1852 C   0  0  0  0  0  0  0  0  0  0  0  0
   38.5388  -11.5367  -12.0083 N   0  0  0  0  0  0  0  0  0  0  0  0
   39.1920   -7.2143   -9.9471 C   0  0  0  0  0  0  0  0  0  0  0  0
   39.4452   -6.7830   -8.7954 O   0  0  0  0  0  0  0  0  0  0  0  0
   38.2814   -6.5693  -10.7292 O   0  0  0  0  0  0  0  0  0  0  0  0
  2  3  1  6
  2  1  1  0
  4  2  1  0
  5  6  1  1
  5  4  1  0
  7  5  1  0
  8  7  2  0
 10  9  1  0
 11 10  1  0
 11 13  1  0
 11 12  1  1
 13 14  1  6
 14  7  1  0
 15 13  1  0
 15 16  2  0
 17 15  1  0
 18 17  1  0
 18 19  1  1
 20 19  1  0
 21 20  2  0
 22 21  1  0
 23 22  1  0
 23 24  2  0
 24 20  1  0
 25 18  1  0
 26 25  2  0
 27 25  1  0
M  END
$$$$
