LIH.pdb
     RDKit          3D

 27 27  0  0  1  0  0  0  0  0999 V2000
   27.7925  -17.9096  -18.4748 C   0  0  0  0  0  0  0  0  0  0  0  0
   28.2996  -18.8622  -17.4337 C   0  0  1  0  0  0  0  0  0  0  0  0
   29.1900  -18.0876  -16.4874 C   0  0  0  0  0  0  0  0  0  0  0  0
   27.1799  -19.5658  -16.6984 C   0  0  0  0  0  0  0  0  0  0  0  0
   27.8071  -20.4705  -15.6617 C   0  0  2  0  0  0  0  0  0  0  0  0
   28.5169  -21.5372  -16.3373 N   0  0  0  0  0  0  0  0  0  0  0  0
   26.7990  -21.0969  -14.7773 C   0  0  0  0  0  0  0  0  0  0  0  0
   26.1255  -22.0748  -15.1812 O   0  0  0  0  0  0  0  0  0  0  0  0
   25.3479  -21.0660   -8.7467 C   0  0  0  0  0  0  0  0  0  0  0  0
   24.9056  -21.4185  -10.1681 C   0  0  0  0  0  0  0  0  0  0  0  0
   25.8551  -20.8507  -11.1810 C   0  0  2  0  0  0  0  0  0  0  0  0
   25.9901  -19.3665  -10.8876 C   0  0  0  0  0  0  0  0  0  0  0  0
   25.4952  -21.1196  -12.6049 C   0  0  2  0  0  0  0  0  0  0  0  0
   26.5677  -20.6133  -13.4591 N   0  0  0  0  0  0  0  0  0  0  0  0
   24.1986  -20.5106  -12.9754 C   0  0  0  0  0  0  0  0  0  0  0  0
   24.0653  -19.2679  -13.0913 O   0  0  0  0  0  0  0  0  0  0  0  0
   23.0297  -21.2830  -13.2223 N   0  0  0  0  0  0  0  0  0  0  0  0
   21.7561  -20.6994  -13.6271 C   0  0  1  0  0  0  0  0  0  0  0  0
   21.3159  -21.1866  -14.9570 C   0  0  0  0  0  0  0  0  0  0  0  0
   20.0809  -20.5181  -15.3981 C   0  0  0  0  0  0  0  0  0  0  0  0
   19.7722  -19.1538  -15.2999 C   0  0  0  0  0  0  0  0  0  0  0  0
   18.5660  -18.8988  -15.7996 N   0  0  0  0  0  0  0  0  0  0  0  0
   18.0821  -20.0831  -16.2239 C   0  0  0  0  0  0  0  0  0  0  0  0
   18.9902  -21.0435  -15.9814 N   0  0  0  0  0  0  0  0  0  0  0  0
   20.7278  -20.9513  -12.6053 C   0  0  0  0  0  0  0  0  0  0  0  0
   20.8253  -21.9762  -11.8865 O   0  0  0  0  0  0  0  0  0  0  0  0
   19.6829  -20.0946  -12.4288 O   0  0  0  0  0  0  0  0  0  0  0  0
  2  3  1  1
  2  1  1  0
  4  2  1  0
  5  6  1  6
  5  4  1  0
  7  5  1  0
  8  7  2  0
 10  9  1  0
 11 10  1  0
 11 13  1  0
 11 12  1  6
 13 14  1  6
 14  7  1  0
 15 13  1  0
 15 16  2  0
 17 15  1  0
 18 17  1  0
 18 19  1  6
 20 19  1  0
 21 20  2  0
 22 21  1  0
 23 22  1  0
 23 24  2  0
 24 20  1  0
 25 18  1  0
 26 25  2  0
 27 25  1  0
M  END
$$$$
