FFF.pdb
     RDKit          3D

 34 36  0  0  1  0  0  0  0  0999 V2000
   11.5879  -16.9094   20.1481 N   0  0  0  0  0  0  0  0  0  0  0  0
   10.3939  -16.1461   20.3699 C   0  0  1  0  0  0  0  0  0  0  0  0
    9.2411  -16.8174   19.6540 C   0  0  0  0  0  0  0  0  0  0  0  0
    8.0852  -15.8850   19.7195 C   0  0  0  0  0  0  0  0  0  0  0  0
    8.1189  -14.6480   19.1120 C   0  0  0  0  0  0  0  0  0  0  0  0
    7.0178  -13.7884   19.1879 C   0  0  0  0  0  0  0  0  0  0  0  0
    5.8834  -14.1450   19.8613 C   0  0  0  0  0  0  0  0  0  0  0  0
    5.8416  -15.3795   20.4712 C   0  0  0  0  0  0  0  0  0  0  0  0
    6.9393  -16.2374   20.3960 C   0  0  0  0  0  0  0  0  0  0  0  0
   10.1463  -15.9512   21.7976 C   0  0  0  0  0  0  0  0  0  0  0  0
   11.0640  -16.1848   22.6209 O   0  0  0  0  0  0  0  0  0  0  0  0
    8.8860  -15.5033   22.2573 N   0  0  0  0  0  0  0  0  0  0  0  0
    8.8889  -14.5443   23.4194 C   0  0  1  0  0  0  0  0  0  0  0  0
    7.4653  -14.1978   23.7050 C   0  0  0  0  0  0  0  0  0  0  0  0
    7.3000  -13.3571   24.8893 C   0  0  0  0  0  0  0  0  0  0  0  0
    6.5782  -13.8489   25.9896 C   0  0  0  0  0  0  0  0  0  0  0  0
    6.4313  -13.1358   27.1546 C   0  0  0  0  0  0  0  0  0  0  0  0
    6.9954  -11.8871   27.2950 C   0  0  0  0  0  0  0  0  0  0  0  0
    7.7066  -11.3861   26.2289 C   0  0  0  0  0  0  0  0  0  0  0  0
    7.8547  -12.1064   25.0517 C   0  0  0  0  0  0  0  0  0  0  0  0
    9.4949  -15.3067   24.4961 C   0  0  0  0  0  0  0  0  0  0  0  0
   10.3686  -14.7891   25.2311 O   0  0  0  0  0  0  0  0  0  0  0  0
    9.1334  -16.6441   24.7756 N   0  0  0  0  0  0  0  0  0  0  0  0
    9.9671  -17.4160   25.6956 C   0  0  1  0  0  0  0  0  0  0  0  0
    9.2854  -17.2058   27.0645 C   0  0  0  0  0  0  0  0  0  0  0  0
    9.7994  -16.0267   27.7712 C   0  0  0  0  0  0  0  0  0  0  0  0
    8.9819  -14.9277   28.0430 C   0  0  0  0  0  0  0  0  0  0  0  0
    9.4114  -13.8176   28.7015 C   0  0  0  0  0  0  0  0  0  0  0  0
   10.7095  -13.7339   29.1381 C   0  0  0  0  0  0  0  0  0  0  0  0
   11.5383  -14.7964   28.8872 C   0  0  0  0  0  0  0  0  0  0  0  0
   11.1043  -15.9120   28.2248 C   0  0  0  0  0  0  0  0  0  0  0  0
   10.0098  -18.8354   25.4042 C   0  0  0  0  0  0  0  0  0  0  0  0
    9.2402  -19.4300   24.4262 O   0  0  0  0  0  0  0  0  0  0  0  0
   10.7732  -19.6382   26.0443 O   0  0  0  0  0  0  0  0  0  0  0  0
  2  1  1  1
  3  2  1  0
  4  3  1  0
  4  5  2  0
  6  5  1  0
  7  6  2  0
  8  9  2  0
  8  7  1  0
  9  4  1  0
 10 11  2  0
 10  2  1  0
 12 10  1  0
 13 14  1  1
 13 12  1  0
 15 16  2  0
 15 14  1  0
 17 16  1  0
 18 17  2  0
 19 18  1  0
 19 20  2  0
 20 15  1  0
 21 13  1  0
 22 21  2  0
 23 21  1  0
 24 23  1  0
 24 25  1  1
 25 26  1  0
 26 31  1  0
 27 26  2  0
 27 28  1  0
 28 29  2  0
 29 30  1  0
 31 30  2  0
 32 33  1  0
 32 24  1  0
 34 32  2  0
M  END
$$$$
