FFF.pdb
     RDKit          3D

 34 36  0  0  1  0  0  0  0  0999 V2000
    5.3094  -17.5769   23.6147 N   0  0  0  0  0  0  0  0  0  0  0  0
    6.3036  -16.6220   24.0113 C   0  0  1  0  0  0  0  0  0  0  0  0
    6.3468  -16.5564   25.5232 C   0  0  0  0  0  0  0  0  0  0  0  0
    7.1336  -15.3480   25.8845 C   0  0  0  0  0  0  0  0  0  0  0  0
    6.5470  -14.2584   26.4920 C   0  0  0  0  0  0  0  0  0  0  0  0
    7.3092  -13.1327   26.8224 C   0  0  0  0  0  0  0  0  0  0  0  0
    8.6484  -13.0784   26.5554 C   0  0  0  0  0  0  0  0  0  0  0  0
    9.2422  -14.1632   25.9485 C   0  0  0  0  0  0  0  0  0  0  0  0
    8.4828  -15.2862   25.6187 C   0  0  0  0  0  0  0  0  0  0  0  0
    7.6022  -16.9290   23.4138 C   0  0  0  0  0  0  0  0  0  0  0  0
    7.8503  -18.1025   23.0452 O   0  0  0  0  0  0  0  0  0  0  0  0
    8.5778  -15.9185   23.2482 N   0  0  0  0  0  0  0  0  0  0  0  0
    9.8510  -16.3127   22.5455 C   0  0  1  0  0  0  0  0  0  0  0  0
   10.3461  -15.1029   21.8248 C   0  0  0  0  0  0  0  0  0  0  0  0
    9.3338  -14.4810   20.9733 C   0  0  0  0  0  0  0  0  0  0  0  0
    8.8308  -15.1890   19.8691 C   0  0  0  0  0  0  0  0  0  0  0  0
    7.8397  -14.6884   19.0603 C   0  0  0  0  0  0  0  0  0  0  0  0
    7.2880  -13.4498   19.3023 C   0  0  0  0  0  0  0  0  0  0  0  0
    7.7664  -12.7389   20.3789 C   0  0  0  0  0  0  0  0  0  0  0  0
    8.7681  -13.2445   21.1959 C   0  0  0  0  0  0  0  0  0  0  0  0
   10.7355  -16.7077   23.6269 C   0  0  0  0  0  0  0  0  0  0  0  0
   11.9785  -16.7144   23.4643 O   0  0  0  0  0  0  0  0  0  0  0  0
   10.2542  -17.0892   24.8998 N   0  0  0  0  0  0  0  0  0  0  0  0
   11.2226  -17.3609   25.9608 C   0  0  1  0  0  0  0  0  0  0  0  0
   10.3842  -17.2518   27.2523 C   0  0  0  0  0  0  0  0  0  0  0  0
    9.7762  -15.9261   27.4152 C   0  0  0  0  0  0  0  0  0  0  0  0
    8.4304  -15.7015   27.1185 C   0  0  0  0  0  0  0  0  0  0  0  0
    7.8218  -14.4933   27.2615 C   0  0  0  0  0  0  0  0  0  0  0  0
    8.5332  -13.4128   27.7187 C   0  0  0  0  0  0  0  0  0  0  0  0
    9.8575  -13.5998   28.0192 C   0  0  0  0  0  0  0  0  0  0  0  0
   10.4675  -14.8158   27.8747 C   0  0  0  0  0  0  0  0  0  0  0  0
   11.8155  -18.6821   25.8948 C   0  0  0  0  0  0  0  0  0  0  0  0
   11.4516  -19.6284   24.9596 O   0  0  0  0  0  0  0  0  0  0  0  0
   12.7253  -19.0606   26.7109 O   0  0  0  0  0  0  0  0  0  0  0  0
  2  1  1  1
  3  2  1  0
  4  3  1  0
  4  5  2  0
  6  5  1  0
  7  6  2  0
  8  9  2  0
  8  7  1  0
  9  4  1  0
 10 11  2  0
 10  2  1  0
 12 10  1  0
 13 14  1  1
 13 12  1  0
 15 16  2  0
 15 14  1  0
 17 16  1  0
 18 17  2  0
 19 18  1  0
 19 20  2  0
 20 15  1  0
 21 13  1  0
 22 21  2  0
 23 21  1  0
 24 23  1  0
 24 25  1  1
 25 26  1  0
 26 31  1  0
 27 26  2  0
 27 28  1  0
 28 29  2  0
 29 30  1  0
 31 30  2  0
 32 33  1  0
 32 24  1  0
 34 32  2  0
M  END
$$$$
