FFF.pdb
     RDKit          3D

 34 36  0  0  1  0  0  0  0  0999 V2000
   12.8955  -16.2427   20.3326 N   0  0  0  0  0  0  0  0  0  0  0  0
   11.9006  -17.0557   20.9704 C   0  0  1  0  0  0  0  0  0  0  0  0
   12.5075  -18.4010   21.3078 C   0  0  0  0  0  0  0  0  0  0  0  0
   12.1069  -19.3424   20.2292 C   0  0  0  0  0  0  0  0  0  0  0  0
   11.0712  -20.2364   20.3978 C   0  0  0  0  0  0  0  0  0  0  0  0
   10.7132  -21.1123   19.3674 C   0  0  0  0  0  0  0  0  0  0  0  0
   11.3737  -21.1092   18.1710 C   0  0  0  0  0  0  0  0  0  0  0  0
   12.4099  -20.2189   17.9945 C   0  0  0  0  0  0  0  0  0  0  0  0
   12.7676  -19.3450   19.0216 C   0  0  0  0  0  0  0  0  0  0  0  0
   11.3271  -16.3783   22.1323 C   0  0  0  0  0  0  0  0  0  0  0  0
   12.0896  -15.8862   22.9988 O   0  0  0  0  0  0  0  0  0  0  0  0
    9.9252  -16.2733   22.2876 N   0  0  0  0  0  0  0  0  0  0  0  0
    9.4294  -15.6138   23.5483 C   0  0  1  0  0  0  0  0  0  0  0  0
    8.1792  -14.8785   23.1955 C   0  0  0  0  0  0  0  0  0  0  0  0
    7.5517  -14.2201   24.3398 C   0  0  0  0  0  0  0  0  0  0  0  0
    6.7206  -14.9640   25.1938 C   0  0  0  0  0  0  0  0  0  0  0  0
    6.1441  -14.4240   26.3177 C   0  0  0  0  0  0  0  0  0  0  0  0
    6.3605  -13.1075   26.6602 C   0  0  0  0  0  0  0  0  0  0  0  0
    7.1713  -12.3604   25.8370 C   0  0  0  0  0  0  0  0  0  0  0  0
    7.7536  -12.9060   24.7013 C   0  0  0  0  0  0  0  0  0  0  0  0
    9.1769  -16.7270   24.4453 C   0  0  0  0  0  0  0  0  0  0  0  0
    8.8208  -17.8414   23.9947 O   0  0  0  0  0  0  0  0  0  0  0  0
    9.3250  -16.6208   25.8469 N   0  0  0  0  0  0  0  0  0  0  0  0
    9.3067  -17.8445   26.6466 C   0  0  1  0  0  0  0  0  0  0  0  0
    9.7207  -17.3633   28.0536 C   0  0  0  0  0  0  0  0  0  0  0  0
    9.7395  -15.8998   28.1622 C   0  0  0  0  0  0  0  0  0  0  0  0
   10.9233  -15.1744   28.0129 C   0  0  0  0  0  0  0  0  0  0  0  0
   10.9881  -13.8182   28.0970 C   0  0  0  0  0  0  0  0  0  0  0  0
    9.8525  -13.0875   28.3401 C   0  0  0  0  0  0  0  0  0  0  0  0
    8.6733  -13.7696   28.4916 C   0  0  0  0  0  0  0  0  0  0  0  0
    8.6104  -15.1337   28.4066 C   0  0  0  0  0  0  0  0  0  0  0  0
    8.0045  -18.4762   26.7295 C   0  0  0  0  0  0  0  0  0  0  0  0
    6.8921  -18.0057   26.0634 O   0  0  0  0  0  0  0  0  0  0  0  0
    7.8006  -19.5234   27.4356 O   0  0  0  0  0  0  0  0  0  0  0  0
  2  1  1  1
  3  2  1  0
  4  3  1  0
  4  5  2  0
  6  5  1  0
  7  6  2  0
  8  9  2  0
  8  7  1  0
  9  4  1  0
 10 11  2  0
 10  2  1  0
 12 10  1  0
 13 14  1  6
 13 12  1  0
 15 16  2  0
 15 14  1  0
 17 16  1  0
 18 17  2  0
 19 18  1  0
 19 20  2  0
 20 15  1  0
 21 13  1  0
 22 21  2  0
 23 21  1  0
 24 23  1  0
 24 25  1  1
 25 26  1  0
 26 31  1  0
 27 26  2  0
 27 28  1  0
 28 29  2  0
 29 30  1  0
 31 30  2  0
 32 33  1  0
 32 24  1  0
 34 32  2  0
M  END
$$$$
