FFF.pdb
     RDKit          3D

 34 36  0  0  1  0  0  0  0  0999 V2000
    8.1250  -19.5635   22.0086 N   0  0  0  0  0  0  0  0  0  0  0  0
    8.8125  -18.6381   21.1550 C   0  0  1  0  0  0  0  0  0  0  0  0
    8.2219  -18.7209   19.7635 C   0  0  0  0  0  0  0  0  0  0  0  0
    8.4257  -20.1138   19.2859 C   0  0  0  0  0  0  0  0  0  0  0  0
    9.6868  -20.6264   19.0688 C   0  0  0  0  0  0  0  0  0  0  0  0
    9.8524  -21.9408   18.6191 C   0  0  0  0  0  0  0  0  0  0  0  0
    8.7777  -22.7512   18.3828 C   0  0  0  0  0  0  0  0  0  0  0  0
    7.5140  -22.2466   18.5973 C   0  0  0  0  0  0  0  0  0  0  0  0
    7.3480  -20.9358   19.0457 C   0  0  0  0  0  0  0  0  0  0  0  0
    8.7864  -17.2853   21.7090 C   0  0  0  0  0  0  0  0  0  0  0  0
    9.3215  -16.3465   21.0710 O   0  0  0  0  0  0  0  0  0  0  0  0
    8.1656  -17.0263   22.9531 N   0  0  0  0  0  0  0  0  0  0  0  0
    8.1774  -15.5983   23.4335 C   0  0  1  0  0  0  0  0  0  0  0  0
    6.9819  -15.4208   24.3094 C   0  0  0  0  0  0  0  0  0  0  0  0
    6.9002  -14.0935   24.9164 C   0  0  0  0  0  0  0  0  0  0  0  0
    6.0147  -13.1432   24.3817 C   0  0  0  0  0  0  0  0  0  0  0  0
    5.8462  -11.8973   24.9353 C   0  0  0  0  0  0  0  0  0  0  0  0
    6.5508  -11.5212   26.0575 C   0  0  0  0  0  0  0  0  0  0  0  0
    7.4243  -12.4370   26.5976 C   0  0  0  0  0  0  0  0  0  0  0  0
    7.5948  -13.6957   26.0380 C   0  0  0  0  0  0  0  0  0  0  0  0
    9.4214  -15.4925   24.1746 C   0  0  0  0  0  0  0  0  0  0  0  0
    9.8956  -14.3698   24.4683 O   0  0  0  0  0  0  0  0  0  0  0  0
   10.1464  -16.6265   24.6058 N   0  0  0  0  0  0  0  0  0  0  0  0
   11.4702  -16.4279   25.1935 C   0  0  1  0  0  0  0  0  0  0  0  0
   11.3286  -17.0194   26.6122 C   0  0  0  0  0  0  0  0  0  0  0  0
   11.0604  -15.9906   27.6239 C   0  0  0  0  0  0  0  0  0  0  0  0
   10.9791  -14.6389   27.2831 C   0  0  0  0  0  0  0  0  0  0  0  0
   10.7248  -13.6518   28.1839 C   0  0  0  0  0  0  0  0  0  0  0  0
   10.5319  -13.9590   29.5072 C   0  0  0  0  0  0  0  0  0  0  0  0
   10.6051  -15.2775   29.8749 C   0  0  0  0  0  0  0  0  0  0  0  0
   10.8610  -16.2687   28.9672 C   0  0  0  0  0  0  0  0  0  0  0  0
   12.5353  -17.1232   24.4979 C   0  0  0  0  0  0  0  0  0  0  0  0
   12.3185  -17.9452   23.4118 O   0  0  0  0  0  0  0  0  0  0  0  0
   13.7603  -17.0185   24.8520 O   0  0  0  0  0  0  0  0  0  0  0  0
  2  1  1  1
  3  2  1  0
  4  3  1  0
  4  5  2  0
  6  5  1  0
  7  6  2  0
  8  9  2  0
  8  7  1  0
  9  4  1  0
 10 11  2  0
 10  2  1  0
 12 10  1  0
 13 14  1  1
 13 12  1  0
 15 16  2  0
 15 14  1  0
 17 16  1  0
 18 17  2  0
 19 18  1  0
 19 20  2  0
 20 15  1  0
 21 13  1  0
 22 21  2  0
 23 21  1  0
 24 23  1  0
 24 25  1  1
 25 26  1  0
 26 31  1  0
 27 26  2  0
 27 28  1  0
 28 29  2  0
 29 30  1  0
 31 30  2  0
 32 33  1  0
 32 24  1  0
 34 32  2  0
M  END
$$$$
