FFF.pdb
     RDKit          3D

 34 36  0  0  1  0  0  0  0  0999 V2000
   10.9554  -17.2939   18.7639 N   0  0  0  0  0  0  0  0  0  0  0  0
   10.1483  -17.8679   19.8015 C   0  0  1  0  0  0  0  0  0  0  0  0
   10.7452  -19.1979   20.2097 C   0  0  0  0  0  0  0  0  0  0  0  0
   10.0916  -20.2424   19.3780 C   0  0  0  0  0  0  0  0  0  0  0  0
    8.9204  -20.8529   19.7730 C   0  0  0  0  0  0  0  0  0  0  0  0
    8.3245  -21.8333   18.9725 C   0  0  0  0  0  0  0  0  0  0  0  0
    8.8804  -22.2136   17.7834 C   0  0  0  0  0  0  0  0  0  0  0  0
   10.0508  -21.6085   17.3814 C   0  0  0  0  0  0  0  0  0  0  0  0
   10.6457  -20.6306   18.1792 C   0  0  0  0  0  0  0  0  0  0  0  0
    9.9890  -16.9431   20.9227 C   0  0  0  0  0  0  0  0  0  0  0  0
   10.9414  -16.1915   21.2431 O   0  0  0  0  0  0  0  0  0  0  0  0
    8.7753  -16.8884   21.6468 N   0  0  0  0  0  0  0  0  0  0  0  0
    8.6910  -15.8706   22.7545 C   0  0  1  0  0  0  0  0  0  0  0  0
    7.2578  -15.4709   22.8739 C   0  0  0  0  0  0  0  0  0  0  0  0
    6.9972  -14.5784   24.0020 C   0  0  0  0  0  0  0  0  0  0  0  0
    7.3021  -13.2121   23.8859 C   0  0  0  0  0  0  0  0  0  0  0  0
    7.0322  -12.3080   24.8844 C   0  0  0  0  0  0  0  0  0  0  0  0
    6.4412  -12.7104   26.0616 C   0  0  0  0  0  0  0  0  0  0  0  0
    6.1345  -14.0449   26.1965 C   0  0  0  0  0  0  0  0  0  0  0  0
    6.4074  -14.9585   25.1878 C   0  0  0  0  0  0  0  0  0  0  0  0
    9.1588  -16.5922   23.9242 C   0  0  0  0  0  0  0  0  0  0  0  0
    8.7411  -17.7485   24.1699 O   0  0  0  0  0  0  0  0  0  0  0  0
   10.0993  -16.0461   24.8268 N   0  0  0  0  0  0  0  0  0  0  0  0
   10.7788  -16.9454   25.7578 C   0  0  1  0  0  0  0  0  0  0  0  0
   11.8253  -16.0377   26.4388 C   0  0  0  0  0  0  0  0  0  0  0  0
   11.2265  -15.1426   27.4357 C   0  0  0  0  0  0  0  0  0  0  0  0
   10.7484  -13.8785   27.0844 C   0  0  0  0  0  0  0  0  0  0  0  0
   10.1788  -13.0184   27.9712 C   0  0  0  0  0  0  0  0  0  0  0  0
   10.0485  -13.3740   29.2900 C   0  0  0  0  0  0  0  0  0  0  0  0
   10.5079  -14.6090   29.6677 C   0  0  0  0  0  0  0  0  0  0  0  0
   11.0805  -15.4724   28.7742 C   0  0  0  0  0  0  0  0  0  0  0  0
    9.9117  -17.5084   26.7740 C   0  0  0  0  0  0  0  0  0  0  0  0
    8.5797  -17.1738   26.9014 O   0  0  0  0  0  0  0  0  0  0  0  0
   10.3318  -18.3620   27.6294 O   0  0  0  0  0  0  0  0  0  0  0  0
  2  1  1  6
  3  2  1  0
  4  3  1  0
  4  5  2  0
  6  5  1  0
  7  6  2  0
  8  9  2  0
  8  7  1  0
  9  4  1  0
 10 11  2  0
 10  2  1  0
 12 10  1  0
 13 14  1  1
 13 12  1  0
 15 16  2  0
 15 14  1  0
 17 16  1  0
 18 17  2  0
 19 18  1  0
 19 20  2  0
 20 15  1  0
 21 13  1  0
 22 21  2  0
 23 21  1  0
 24 23  1  0
 24 25  1  1
 25 26  1  0
 26 31  1  0
 27 26  2  0
 27 28  1  0
 28 29  2  0
 29 30  1  0
 31 30  2  0
 32 33  1  0
 32 24  1  0
 34 32  2  0
M  END
$$$$
