FFF.pdb
     RDKit          3D

 34 36  0  0  1  0  0  0  0  0999 V2000
   11.4746  -16.4091   18.5139 N   0  0  0  0  0  0  0  0  0  0  0  0
   10.6927  -17.1597   19.4535 C   0  0  1  0  0  0  0  0  0  0  0  0
   11.3912  -18.4728   19.7361 C   0  0  0  0  0  0  0  0  0  0  0  0
   10.5488  -19.5491   19.1514 C   0  0  0  0  0  0  0  0  0  0  0  0
    9.7144  -20.3192   19.9330 C   0  0  0  0  0  0  0  0  0  0  0  0
    8.9313  -21.3263   19.3588 C   0  0  0  0  0  0  0  0  0  0  0  0
    8.9687  -21.5762   18.0158 C   0  0  0  0  0  0  0  0  0  0  0  0
    9.8000  -20.8111   17.2276 C   0  0  0  0  0  0  0  0  0  0  0  0
   10.5813  -19.8065   17.7995 C   0  0  0  0  0  0  0  0  0  0  0  0
   10.4245  -16.3817   20.6619 C   0  0  0  0  0  0  0  0  0  0  0  0
   11.3360  -15.6750   21.1562 O   0  0  0  0  0  0  0  0  0  0  0  0
    9.1512  -16.4183   21.2765 N   0  0  0  0  0  0  0  0  0  0  0  0
    8.9575  -15.5457   22.4894 C   0  0  1  0  0  0  0  0  0  0  0  0
    7.5167  -15.1573   22.5240 C   0  0  0  0  0  0  0  0  0  0  0  0
    7.1526  -14.3866   23.7115 C   0  0  0  0  0  0  0  0  0  0  0  0
    6.4023  -14.9994   24.7288 C   0  0  0  0  0  0  0  0  0  0  0  0
    6.0732  -14.3526   25.8952 C   0  0  0  0  0  0  0  0  0  0  0  0
    6.4721  -13.0536   26.1200 C   0  0  0  0  0  0  0  0  0  0  0  0
    7.2080  -12.4341   25.1362 C   0  0  0  0  0  0  0  0  0  0  0  0
    7.5402  -13.0875   23.9575 C   0  0  0  0  0  0  0  0  0  0  0  0
    9.3199  -16.4093   23.5988 C   0  0  0  0  0  0  0  0  0  0  0  0
    8.9134  -17.5943   23.6440 O   0  0  0  0  0  0  0  0  0  0  0  0
   10.1423  -15.9734   24.6623 N   0  0  0  0  0  0  0  0  0  0  0  0
   10.6576  -16.9688   25.6009 C   0  0  1  0  0  0  0  0  0  0  0  0
   11.5954  -16.1523   26.5154 C   0  0  0  0  0  0  0  0  0  0  0  0
   10.8683  -15.1753   27.3343 C   0  0  0  0  0  0  0  0  0  0  0  0
   11.5358  -14.3328   28.2257 C   0  0  0  0  0  0  0  0  0  0  0  0
   10.9059  -13.4074   28.9985 C   0  0  0  0  0  0  0  0  0  0  0  0
    9.5433  -13.2626   28.9279 C   0  0  0  0  0  0  0  0  0  0  0  0
    8.8578  -14.0747   28.0622 C   0  0  0  0  0  0  0  0  0  0  0  0
    9.4935  -15.0048   27.2858 C   0  0  0  0  0  0  0  0  0  0  0  0
    9.6359  -17.5970   26.4152 C   0  0  0  0  0  0  0  0  0  0  0  0
    8.3036  -17.2442   26.3619 O   0  0  0  0  0  0  0  0  0  0  0  0
    9.9080  -18.5303   27.2470 O   0  0  0  0  0  0  0  0  0  0  0  0
  2  1  1  6
  3  2  1  0
  4  3  1  0
  4  5  2  0
  6  5  1  0
  7  6  2  0
  8  9  2  0
  8  7  1  0
  9  4  1  0
 10 11  2  0
 10  2  1  0
 12 10  1  0
 13 14  1  1
 13 12  1  0
 15 16  2  0
 15 14  1  0
 17 16  1  0
 18 17  2  0
 19 18  1  0
 19 20  2  0
 20 15  1  0
 21 13  1  0
 22 21  2  0
 23 21  1  0
 24 23  1  0
 24 25  1  1
 25 26  1  0
 26 31  1  0
 27 26  2  0
 27 28  1  0
 28 29  2  0
 29 30  1  0
 31 30  2  0
 32 33  1  0
 32 24  1  0
 34 32  2  0
M  END
$$$$
