FFF.pdb
     RDKit          3D

 34 36  0  0  1  0  0  0  0  0999 V2000
   10.4597  -18.1189   20.4818 N   0  0  0  0  0  0  0  0  0  0  0  0
    9.9431  -16.7862   20.3609 C   0  0  1  0  0  0  0  0  0  0  0  0
    8.6317  -16.8339   19.6059 C   0  0  0  0  0  0  0  0  0  0  0  0
    8.1951  -15.4276   19.4019 C   0  0  0  0  0  0  0  0  0  0  0  0
    9.0214  -14.4916   18.8175 C   0  0  0  0  0  0  0  0  0  0  0  0
    8.5871  -13.1741   18.6364 C   0  0  0  0  0  0  0  0  0  0  0  0
    7.3401  -12.7769   19.0300 C   0  0  0  0  0  0  0  0  0  0  0  0
    6.5082  -13.7061   19.6148 C   0  0  0  0  0  0  0  0  0  0  0  0
    6.9405  -15.0203   19.7958 C   0  0  0  0  0  0  0  0  0  0  0  0
    9.8286  -16.1409   21.6678 C   0  0  0  0  0  0  0  0  0  0  0  0
   10.8482  -15.6389   22.2000 O   0  0  0  0  0  0  0  0  0  0  0  0
    8.5833  -16.0777   22.3353 N   0  0  0  0  0  0  0  0  0  0  0  0
    8.4849  -15.1270   23.5001 C   0  0  1  0  0  0  0  0  0  0  0  0
    7.0454  -15.0583   23.8890 C   0  0  0  0  0  0  0  0  0  0  0  0
    6.7920  -14.1632   25.0166 C   0  0  0  0  0  0  0  0  0  0  0  0
    7.1951  -12.8200   24.9357 C   0  0  0  0  0  0  0  0  0  0  0  0
    6.9395  -11.9111   25.9335 C   0  0  0  0  0  0  0  0  0  0  0  0
    6.2655  -12.2853   27.0750 C   0  0  0  0  0  0  0  0  0  0  0  0
    5.8617  -13.5969   27.1750 C   0  0  0  0  0  0  0  0  0  0  0  0
    6.1203  -14.5153   26.1669 C   0  0  0  0  0  0  0  0  0  0  0  0
    9.3015  -15.7504   24.5260 C   0  0  0  0  0  0  0  0  0  0  0  0
   10.3423  -15.1888   24.9417 O   0  0  0  0  0  0  0  0  0  0  0  0
    8.9695  -16.9949   25.1078 N   0  0  0  0  0  0  0  0  0  0  0  0
    9.9458  -17.6395   25.9844 C   0  0  1  0  0  0  0  0  0  0  0  0
    9.5221  -17.1815   27.3963 C   0  0  0  0  0  0  0  0  0  0  0  0
   10.2469  -15.9842   27.8379 C   0  0  0  0  0  0  0  0  0  0  0  0
   11.5500  -16.0640   28.3333 C   0  0  0  0  0  0  0  0  0  0  0  0
   12.2635  -14.9819   28.7462 C   0  0  0  0  0  0  0  0  0  0  0  0
   11.7093  -13.7280   28.6890 C   0  0  0  0  0  0  0  0  0  0  0  0
   10.4310  -13.6151   28.2074 C   0  0  0  0  0  0  0  0  0  0  0  0
    9.7152  -14.7048   27.7926 C   0  0  0  0  0  0  0  0  0  0  0  0
    9.9204  -19.0880   25.9322 C   0  0  0  0  0  0  0  0  0  0  0  0
   10.8076  -19.8852   26.6248 O   0  0  0  0  0  0  0  0  0  0  0  0
    9.0632  -19.7281   25.2306 O   0  0  0  0  0  0  0  0  0  0  0  0
  2  1  1  1
  3  2  1  0
  4  3  1  0
  4  5  2  0
  6  5  1  0
  7  6  2  0
  8  9  2  0
  8  7  1  0
  9  4  1  0
 10 11  2  0
 10  2  1  0
 12 10  1  0
 13 14  1  1
 13 12  1  0
 15 16  2  0
 15 14  1  0
 17 16  1  0
 18 17  2  0
 19 18  1  0
 19 20  2  0
 20 15  1  0
 21 13  1  0
 22 21  2  0
 23 21  1  0
 24 23  1  0
 24 25  1  1
 25 26  1  0
 26 31  1  0
 27 26  2  0
 27 28  1  0
 28 29  2  0
 29 30  1  0
 31 30  2  0
 32 33  1  0
 32 24  1  0
 34 32  2  0
M  END
$$$$
