FFF.pdb
     RDKit          3D

 34 36  0  0  1  0  0  0  0  0999 V2000
    9.2622  -18.2538   19.4331 N   0  0  0  0  0  0  0  0  0  0  0  0
    9.2346  -16.8197   19.4219 C   0  0  1  0  0  0  0  0  0  0  0  0
    7.9704  -16.3577   18.7290 C   0  0  0  0  0  0  0  0  0  0  0  0
    7.9167  -14.8781   18.8614 C   0  0  0  0  0  0  0  0  0  0  0  0
    8.7533  -14.0566   18.1363 C   0  0  0  0  0  0  0  0  0  0  0  0
    8.6834  -12.6666   18.2786 C   0  0  0  0  0  0  0  0  0  0  0  0
    7.7907  -12.0842   19.1339 C   0  0  0  0  0  0  0  0  0  0  0  0
    6.9512  -12.8981   19.8622 C   0  0  0  0  0  0  0  0  0  0  0  0
    7.0203  -14.2845   19.7209 C   0  0  0  0  0  0  0  0  0  0  0  0
    9.3800  -16.2756   20.7711 C   0  0  0  0  0  0  0  0  0  0  0  0
   10.3040  -15.4615   21.0123 O   0  0  0  0  0  0  0  0  0  0  0  0
    8.4916  -16.6574   21.8033 N   0  0  0  0  0  0  0  0  0  0  0  0
    8.5120  -15.8250   23.0590 C   0  0  1  0  0  0  0  0  0  0  0  0
    7.1052  -15.4060   23.3297 C   0  0  0  0  0  0  0  0  0  0  0  0
    6.9564  -14.6401   24.5658 C   0  0  0  0  0  0  0  0  0  0  0  0
    7.2718  -13.2712   24.5719 C   0  0  0  0  0  0  0  0  0  0  0  0
    7.1028  -12.4796   25.6818 C   0  0  0  0  0  0  0  0  0  0  0  0
    6.6084  -13.0040   26.8556 C   0  0  0  0  0  0  0  0  0  0  0  0
    6.2933  -14.3432   26.8717 C   0  0  0  0  0  0  0  0  0  0  0  0
    6.4643  -15.1432   25.7504 C   0  0  0  0  0  0  0  0  0  0  0  0
    9.0177  -16.7358   24.0702 C   0  0  0  0  0  0  0  0  0  0  0  0
    8.6014  -17.9168   24.1306 O   0  0  0  0  0  0  0  0  0  0  0  0
    9.9946  -16.3521   25.0167 N   0  0  0  0  0  0  0  0  0  0  0  0
   10.5696  -17.3792   25.8836 C   0  0  1  0  0  0  0  0  0  0  0  0
   11.7951  -16.6798   26.5094 C   0  0  0  0  0  0  0  0  0  0  0  0
   11.4162  -15.5790   27.4029 C   0  0  0  0  0  0  0  0  0  0  0  0
   11.2961  -14.2694   26.9335 C   0  0  0  0  0  0  0  0  0  0  0  0
   10.9400  -13.2193   27.7215 C   0  0  0  0  0  0  0  0  0  0  0  0
   10.6765  -13.4154   29.0537 C   0  0  0  0  0  0  0  0  0  0  0  0
   10.7853  -14.6898   29.5464 C   0  0  0  0  0  0  0  0  0  0  0  0
   11.1436  -15.7445   28.7520 C   0  0  0  0  0  0  0  0  0  0  0  0
    9.6854  -17.8185   26.9452 C   0  0  0  0  0  0  0  0  0  0  0  0
    9.9811  -18.8683   27.7896 O   0  0  0  0  0  0  0  0  0  0  0  0
    8.5593  -17.2542   27.1692 O   0  0  0  0  0  0  0  0  0  0  0  0
  2  1  1  1
  3  2  1  0
  4  3  1  0
  4  5  2  0
  6  5  1  0
  7  6  2  0
  8  9  2  0
  8  7  1  0
  9  4  1  0
 10 11  2  0
 10  2  1  0
 12 10  1  0
 13 14  1  1
 13 12  1  0
 15 16  2  0
 15 14  1  0
 17 16  1  0
 18 17  2  0
 19 18  1  0
 19 20  2  0
 20 15  1  0
 21 13  1  0
 22 21  2  0
 23 21  1  0
 24 23  1  0
 24 25  1  1
 25 26  1  0
 26 31  1  0
 27 26  2  0
 27 28  1  0
 28 29  2  0
 29 30  1  0
 31 30  2  0
 32 33  1  0
 32 24  1  0
 34 32  2  0
M  END
$$$$
