SQM.pdb
     RDKit          3D

 24 23  0  0  1  0  0  0  0  0999 V2000
    9.0338  -16.6200   18.4531 O   0  0  0  0  0  0  0  0  0  0  0  0
    8.0725  -16.2898   19.4049 C   0  0  0  0  0  0  0  0  0  0  0  0
    7.3325  -17.5208   19.8303 C   0  0  2  0  0  0  0  0  0  0  0  0
    6.2563  -17.7705   18.9249 N   0  0  0  0  0  0  0  0  0  0  0  0
    6.8231  -17.4078   21.2237 C   0  0  0  0  0  0  0  0  0  0  0  0
    5.7238  -16.8907   21.5089 O   0  0  0  0  0  0  0  0  0  0  0  0
    7.0761  -21.7898   25.1600 N   0  0  0  0  0  0  0  0  0  0  0  0
    5.9097  -21.2715   24.5373 C   0  0  0  0  0  0  0  0  0  0  0  0
    4.8823  -21.9746   24.4234 O   0  0  0  0  0  0  0  0  0  0  0  0
    5.9388  -19.9007   24.0357 C   0  0  0  0  0  0  0  0  0  0  0  0
    7.1867  -19.1337   24.2902 C   0  0  0  0  0  0  0  0  0  0  0  0
    7.2341  -17.7641   23.6642 C   0  0  2  0  0  0  0  0  0  0  0  0
    7.6150  -17.9070   22.2814 N   0  0  0  0  0  0  0  0  0  0  0  0
    8.1706  -16.8863   24.4402 C   0  0  0  0  0  0  0  0  0  0  0  0
    9.3705  -16.8455   24.1679 O   0  0  0  0  0  0  0  0  0  0  0  0
    6.3421  -10.3614   25.1898 C   0  0  0  0  0  0  0  0  0  0  0  0
    6.3859  -11.6751   26.4679 S   0  0  0  0  0  0  0  0  0  0  0  0
    7.5028  -12.9562   25.8676 C   0  0  0  0  0  0  0  0  0  0  0  0
    7.6873  -14.0819   26.8091 C   0  0  0  0  0  0  0  0  0  0  0  0
    8.4605  -15.2063   26.3228 C   0  0  2  0  0  0  0  0  0  0  0  0
    7.6726  -16.1103   25.4798 N   0  0  0  0  0  0  0  0  0  0  0  0
    9.1579  -16.0208   27.2959 C   0  0  0  0  0  0  0  0  0  0  0  0
    8.6404  -17.3150   27.5764 O   0  0  0  0  0  0  0  0  0  0  0  0
   10.1959  -15.7170   27.9443 O   0  0  0  0  0  0  0  0  0  0  0  0
  2  1  1  0
  3  2  1  0
  3  4  1  6
  5  6  2  0
  5  3  1  0
  7  8  1  0
  8 10  1  0
  9  8  2  0
 10 11  1  0
 12 11  1  1
 12 13  1  0
 13  5  1  0
 14 12  1  0
 15 14  2  0
 16 17  1  0
 17 18  1  0
 19 18  1  0
 20 19  1  1
 20 21  1  0
 20 22  1  0
 21 14  1  0
 22 23  1  0
 24 22  2  0
M  END
$$$$
