SQM.pdb
     RDKit          3D

 24 23  0  0  1  0  0  0  0  0999 V2000
    4.4183  -18.8417   23.1590 O   0  0  0  0  0  0  0  0  0  0  0  0
    5.7463  -18.4233   23.1820 C   0  0  0  0  0  0  0  0  0  0  0  0
    6.2447  -18.2319   21.7824 C   0  0  2  0  0  0  0  0  0  0  0  0
    6.2703  -19.4898   21.1061 N   0  0  0  0  0  0  0  0  0  0  0  0
    7.5915  -17.6002   21.7549 C   0  0  0  0  0  0  0  0  0  0  0  0
    8.6246  -18.1777   22.1499 O   0  0  0  0  0  0  0  0  0  0  0  0
    8.9295  -12.4136   18.4791 N   0  0  0  0  0  0  0  0  0  0  0  0
    7.9085  -13.3987   18.4130 C   0  0  0  0  0  0  0  0  0  0  0  0
    7.0867  -13.4023   17.4710 O   0  0  0  0  0  0  0  0  0  0  0  0
    7.8427  -14.4052   19.4685 C   0  0  0  0  0  0  0  0  0  0  0  0
    8.9893  -14.4425   20.4140 C   0  0  0  0  0  0  0  0  0  0  0  0
    8.8828  -15.4733   21.5076 C   0  0  2  0  0  0  0  0  0  0  0  0
    7.7166  -16.2834   21.2596 N   0  0  0  0  0  0  0  0  0  0  0  0
    8.8468  -14.7911   22.8429 C   0  0  0  0  0  0  0  0  0  0  0  0
    8.8081  -13.5634   22.9247 O   0  0  0  0  0  0  0  0  0  0  0  0
    7.3501  -10.6162   26.4820 C   0  0  0  0  0  0  0  0  0  0  0  0
    6.4758  -12.1248   27.0485 S   0  0  0  0  0  0  0  0  0  0  0  0
    7.6466  -13.4896   26.9237 C   0  0  0  0  0  0  0  0  0  0  0  0
    7.7971  -14.0288   25.5546 C   0  0  0  0  0  0  0  0  0  0  0  0
    8.8191  -15.0388   25.3705 C   0  0  2  0  0  0  0  0  0  0  0  0
    8.8573  -15.5595   24.0007 N   0  0  0  0  0  0  0  0  0  0  0  0
    8.8162  -16.1770   26.2655 C   0  0  0  0  0  0  0  0  0  0  0  0
    9.0605  -15.9410   27.6461 O   0  0  0  0  0  0  0  0  0  0  0  0
    8.6191  -17.3858   25.9649 O   0  0  0  0  0  0  0  0  0  0  0  0
  2  1  1  0
  3  2  1  0
  3  4  1  1
  5  6  2  0
  5  3  1  0
  7  8  1  0
  8 10  1  0
  9  8  2  0
 10 11  1  0
 12 11  1  6
 12 13  1  0
 13  5  1  0
 14 12  1  0
 15 14  2  0
 16 17  1  0
 17 18  1  0
 19 18  1  0
 20 19  1  6
 20 21  1  0
 20 22  1  0
 21 14  1  0
 22 23  1  0
 24 22  2  0
M  END
$$$$
