SQM.pdb
     RDKit          3D

 24 23  0  0  1  0  0  0  0  0999 V2000
    5.8238  -18.2580   20.4300 O   0  0  0  0  0  0  0  0  0  0  0  0
    5.8799  -19.6426   20.5676 C   0  0  0  0  0  0  0  0  0  0  0  0
    4.8774  -20.0948   21.5847 C   0  0  2  0  0  0  0  0  0  0  0  0
    3.5576  -19.9294   21.0639 N   0  0  0  0  0  0  0  0  0  0  0  0
    5.0235  -19.3618   22.8712 C   0  0  0  0  0  0  0  0  0  0  0  0
    4.1972  -18.5178   23.2737 O   0  0  0  0  0  0  0  0  0  0  0  0
    8.8114  -21.3319   27.5465 N   0  0  0  0  0  0  0  0  0  0  0  0
    8.2791  -20.1200   28.0613 C   0  0  0  0  0  0  0  0  0  0  0  0
    8.4903  -19.7840   29.2467 O   0  0  0  0  0  0  0  0  0  0  0  0
    7.4822  -19.2773   27.1745 C   0  0  0  0  0  0  0  0  0  0  0  0
    7.1574  -19.8486   25.8409 C   0  0  0  0  0  0  0  0  0  0  0  0
    6.3838  -18.9356   24.9255 C   0  0  2  0  0  0  0  0  0  0  0  0
    6.1485  -19.6273   23.6829 N   0  0  0  0  0  0  0  0  0  0  0  0
    7.1327  -17.6487   24.7449 C   0  0  0  0  0  0  0  0  0  0  0  0
    8.0989  -17.5809   23.9850 O   0  0  0  0  0  0  0  0  0  0  0  0
    7.1639   -9.9956   26.7216 C   0  0  0  0  0  0  0  0  0  0  0  0
    6.1562  -11.5177   26.5515 S   0  0  0  0  0  0  0  0  0  0  0  0
    7.3035  -12.8801   26.2749 C   0  0  0  0  0  0  0  0  0  0  0  0
    6.6492  -14.2009   26.1511 C   0  0  0  0  0  0  0  0  0  0  0  0
    7.3579  -15.1990   25.3765 C   0  0  2  0  0  0  0  0  0  0  0  0
    6.7268  -16.5202   25.4467 N   0  0  0  0  0  0  0  0  0  0  0  0
    8.7708  -15.3807   25.6357 C   0  0  0  0  0  0  0  0  0  0  0  0
    9.6964  -14.7871   24.7343 O   0  0  0  0  0  0  0  0  0  0  0  0
    9.2980  -16.0180   26.5876 O   0  0  0  0  0  0  0  0  0  0  0  0
  2  1  1  0
  3  2  1  0
  3  4  1  6
  5  6  2  0
  5  3  1  0
  7  8  1  0
  8 10  1  0
  9  8  2  0
 10 11  1  0
 12 11  1  1
 12 13  1  0
 13  5  1  0
 14 12  1  0
 15 14  2  0
 16 17  1  0
 17 18  1  0
 19 18  1  0
 20 19  1  1
 20 21  1  0
 20 22  1  0
 21 14  1  0
 22 23  1  0
 24 22  2  0
M  END
$$$$
