SQM.pdb
     RDKit          3D

 24 23  0  0  1  0  0  0  0  0999 V2000
    2.4146  -18.0485   19.6621 O   0  0  0  0  0  0  0  0  0  0  0  0
    3.2149  -17.7595   20.7644 C   0  0  0  0  0  0  0  0  0  0  0  0
    3.5200  -19.0182   21.5170 C   0  0  2  0  0  0  0  0  0  0  0  0
    2.3085  -19.5784   22.0258 N   0  0  0  0  0  0  0  0  0  0  0  0
    4.4875  -18.7827   22.6224 C   0  0  0  0  0  0  0  0  0  0  0  0
    4.1399  -18.4630   23.7774 O   0  0  0  0  0  0  0  0  0  0  0  0
   10.0473  -21.3278   22.2326 N   0  0  0  0  0  0  0  0  0  0  0  0
    8.9134  -21.8926   22.8748 C   0  0  0  0  0  0  0  0  0  0  0  0
    8.8441  -23.1240   23.0788 O   0  0  0  0  0  0  0  0  0  0  0  0
    7.8336  -21.0024   23.2911 C   0  0  0  0  0  0  0  0  0  0  0  0
    8.0629  -19.5483   23.0825 C   0  0  0  0  0  0  0  0  0  0  0  0
    6.8733  -18.6671   23.3622 C   0  0  2  0  0  0  0  0  0  0  0  0
    5.8683  -18.9254   22.3616 N   0  0  0  0  0  0  0  0  0  0  0  0
    7.3058  -17.2314   23.3985 C   0  0  0  0  0  0  0  0  0  0  0  0
    7.2785  -16.5370   22.3823 O   0  0  0  0  0  0  0  0  0  0  0  0
    5.8902  -12.1327   27.7487 C   0  0  0  0  0  0  0  0  0  0  0  0
    6.3791  -11.8910   25.9983 S   0  0  0  0  0  0  0  0  0  0  0  0
    7.7111  -13.0567   25.6583 C   0  0  0  0  0  0  0  0  0  0  0  0
    7.2447  -14.4095   25.2836 C   0  0  0  0  0  0  0  0  0  0  0  0
    8.2517  -15.3189   24.7763 C   0  0  2  0  0  0  0  0  0  0  0  0
    7.7424  -16.6818   24.5978 N   0  0  0  0  0  0  0  0  0  0  0  0
    9.5028  -15.4162   25.4989 C   0  0  0  0  0  0  0  0  0  0  0  0
   10.3252  -14.2585   25.5683 O   0  0  0  0  0  0  0  0  0  0  0  0
    9.9674  -16.4283   26.0906 O   0  0  0  0  0  0  0  0  0  0  0  0
  2  1  1  0
  3  2  1  0
  3  4  1  1
  5  6  2  0
  5  3  1  0
  7  8  1  0
  8 10  1  0
  9  8  2  0
 10 11  1  0
 12 11  1  6
 12 13  1  0
 13  5  1  0
 14 12  1  0
 15 14  2  0
 16 17  1  0
 17 18  1  0
 19 18  1  0
 20 19  1  1
 20 21  1  0
 20 22  1  0
 21 14  1  0
 22 23  1  0
 24 22  2  0
M  END
$$$$
