SQM.pdb
     RDKit          3D

 24 23  0  0  1  0  0  0  0  0999 V2000
   13.2403  -14.4421   20.5152 O   0  0  0  0  0  0  0  0  0  0  0  0
   12.8712  -15.4499   19.6279 C   0  0  0  0  0  0  0  0  0  0  0  0
   11.4648  -15.2289   19.1619 C   0  0  2  0  0  0  0  0  0  0  0  0
   11.3625  -13.9492   18.5356 N   0  0  0  0  0  0  0  0  0  0  0  0
   10.4870  -15.3403   20.2778 C   0  0  0  0  0  0  0  0  0  0  0  0
    9.9078  -14.3552   20.7789 O   0  0  0  0  0  0  0  0  0  0  0  0
    9.4526  -20.8055   20.9788 N   0  0  0  0  0  0  0  0  0  0  0  0
    8.3879  -20.0832   20.3774 C   0  0  0  0  0  0  0  0  0  0  0  0
    7.6992  -20.6001   19.4712 O   0  0  0  0  0  0  0  0  0  0  0  0
    8.1170  -18.7261   20.8426 C   0  0  0  0  0  0  0  0  0  0  0  0
    8.9231  -18.2543   21.9994 C   0  0  0  0  0  0  0  0  0  0  0  0
    9.3342  -16.8059   21.9437 C   0  0  2  0  0  0  0  0  0  0  0  0
   10.1937  -16.6188   20.8018 N   0  0  0  0  0  0  0  0  0  0  0  0
    9.9874  -16.4164   23.2365 C   0  0  0  0  0  0  0  0  0  0  0  0
   11.2010  -16.5474   23.3962 O   0  0  0  0  0  0  0  0  0  0  0  0
    5.6008  -12.0758   26.6347 C   0  0  0  0  0  0  0  0  0  0  0  0
    7.4116  -12.3021   26.8116 S   0  0  0  0  0  0  0  0  0  0  0  0
    7.8615  -13.7390   25.8208 C   0  0  0  0  0  0  0  0  0  0  0  0
    9.3162  -14.0019   25.7696 C   0  0  0  0  0  0  0  0  0  0  0  0
    9.7132  -15.3755   25.5369 C   0  0  2  0  0  0  0  0  0  0  0  0
    9.2081  -15.9009   24.2650 N   0  0  0  0  0  0  0  0  0  0  0  0
    9.4060  -16.3525   26.5605 C   0  0  0  0  0  0  0  0  0  0  0  0
    8.5788  -17.4531   26.2058 O   0  0  0  0  0  0  0  0  0  0  0  0
    9.7908  -16.3487   27.7614 O   0  0  0  0  0  0  0  0  0  0  0  0
  2  1  1  0
  3  2  1  0
  3  4  1  1
  5  6  2  0
  5  3  1  0
  7  8  1  0
  8 10  1  0
  9  8  2  0
 10 11  1  0
 12 11  1  1
 12 13  1  0
 13  5  1  0
 14 12  1  0
 15 14  2  0
 16 17  1  0
 17 18  1  0
 19 18  1  0
 20 19  1  1
 20 21  1  0
 20 22  1  0
 21 14  1  0
 22 23  1  0
 24 22  2  0
M  END
$$$$
