SQM.pdb
     RDKit          3D

 24 23  0  0  1  0  0  0  0  0999 V2000
    8.9685  -20.2109   22.2621 O   0  0  0  0  0  0  0  0  0  0  0  0
    7.9337  -19.9905   21.3566 C   0  0  0  0  0  0  0  0  0  0  0  0
    8.4368  -19.1949   20.1914 C   0  0  2  0  0  0  0  0  0  0  0  0
    9.5441  -19.8696   19.5921 N   0  0  0  0  0  0  0  0  0  0  0  0
    8.8233  -17.8140   20.5882 C   0  0  0  0  0  0  0  0  0  0  0  0
    9.9915  -17.4904   20.8840 O   0  0  0  0  0  0  0  0  0  0  0  0
    8.4330  -12.8819   18.2108 N   0  0  0  0  0  0  0  0  0  0  0  0
    8.5667  -12.6496   19.6055 C   0  0  0  0  0  0  0  0  0  0  0  0
    9.5792  -12.0756   20.0617 O   0  0  0  0  0  0  0  0  0  0  0  0
    7.4952  -13.0952   20.4915 C   0  0  0  0  0  0  0  0  0  0  0  0
    7.1338  -14.5352   20.4139 C   0  0  0  0  0  0  0  0  0  0  0  0
    8.0993  -15.4738   21.0897 C   0  0  2  0  0  0  0  0  0  0  0  0
    7.8266  -16.8144   20.6354 N   0  0  0  0  0  0  0  0  0  0  0  0
    7.9875  -15.3276   22.5783 C   0  0  0  0  0  0  0  0  0  0  0  0
    7.0606  -15.8507   23.1970 O   0  0  0  0  0  0  0  0  0  0  0  0
    5.2336  -12.3221   27.7490 C   0  0  0  0  0  0  0  0  0  0  0  0
    6.5968  -11.5990   26.7589 S   0  0  0  0  0  0  0  0  0  0  0  0
    7.7783  -12.9233   26.4442 C   0  0  0  0  0  0  0  0  0  0  0  0
    8.0249  -13.1799   25.0085 C   0  0  0  0  0  0  0  0  0  0  0  0
    8.9171  -14.2775   24.6958 C   0  0  2  0  0  0  0  0  0  0  0  0
    8.9455  -14.5909   23.2641 N   0  0  0  0  0  0  0  0  0  0  0  0
    8.7325  -15.5248   25.4076 C   0  0  0  0  0  0  0  0  0  0  0  0
    9.7885  -15.9780   26.2448 O   0  0  0  0  0  0  0  0  0  0  0  0
    7.7238  -16.2810   25.3766 O   0  0  0  0  0  0  0  0  0  0  0  0
  2  1  1  0
  3  2  1  0
  3  4  1  1
  5  6  2  0
  5  3  1  0
  7  8  1  0
  8 10  1  0
  9  8  2  0
 10 11  1  0
 12 11  1  6
 12 13  1  0
 13  5  1  0
 14 12  1  0
 15 14  2  0
 16 17  1  0
 17 18  1  0
 19 18  1  0
 20 19  1  6
 20 21  1  0
 20 22  1  0
 21 14  1  0
 22 23  1  0
 24 22  2  0
M  END
$$$$
