SQM.pdb
     RDKit          3D

 24 23  0  0  1  0  0  0  0  0999 V2000
   11.3986  -14.7994   18.8455 O   0  0  0  0  0  0  0  0  0  0  0  0
   10.6828  -14.8223   20.0398 C   0  0  0  0  0  0  0  0  0  0  0  0
    9.9209  -16.1071   20.1529 C   0  0  2  0  0  0  0  0  0  0  0  0
    8.8160  -16.0909   19.2478 N   0  0  0  0  0  0  0  0  0  0  0  0
    9.4498  -16.3519   21.5428 C   0  0  0  0  0  0  0  0  0  0  0  0
    8.2993  -16.0678   21.9337 O   0  0  0  0  0  0  0  0  0  0  0  0
   11.7313  -21.0129   24.9855 N   0  0  0  0  0  0  0  0  0  0  0  0
   10.9340  -20.3321   25.9434 C   0  0  0  0  0  0  0  0  0  0  0  0
   10.7649  -20.8092   27.0865 O   0  0  0  0  0  0  0  0  0  0  0  0
   10.3189  -19.0639   25.5625 C   0  0  0  0  0  0  0  0  0  0  0  0
   10.6190  -18.5731   24.1917 C   0  0  0  0  0  0  0  0  0  0  0  0
    9.9385  -17.2839   23.8110 C   0  0  2  0  0  0  0  0  0  0  0  0
   10.3407  -16.9334   22.4719 N   0  0  0  0  0  0  0  0  0  0  0  0
   10.2695  -16.2219   24.8171 C   0  0  0  0  0  0  0  0  0  0  0  0
   11.3786  -15.6877   24.8307 O   0  0  0  0  0  0  0  0  0  0  0  0
    6.0325  -10.8354   25.5670 C   0  0  0  0  0  0  0  0  0  0  0  0
    6.2652  -12.2810   26.6703 S   0  0  0  0  0  0  0  0  0  0  0  0
    7.8787  -12.9845   26.2826 C   0  0  0  0  0  0  0  0  0  0  0  0
    8.2435  -14.1485   27.1193 C   0  0  0  0  0  0  0  0  0  0  0  0
    9.4827  -14.8188   26.7826 C   0  0  2  0  0  0  0  0  0  0  0  0
    9.3081  -15.8390   25.7445 N   0  0  0  0  0  0  0  0  0  0  0  0
   10.2409  -15.4224   27.8585 C   0  0  0  0  0  0  0  0  0  0  0  0
   10.9951  -14.5654   28.7059 O   0  0  0  0  0  0  0  0  0  0  0  0
   10.3183  -16.6479   28.1456 O   0  0  0  0  0  0  0  0  0  0  0  0
  2  1  1  0
  3  2  1  0
  3  4  1  6
  5  6  2  0
  5  3  1  0
  7  8  1  0
  8 10  1  0
  9  8  2  0
 10 11  1  0
 12 11  1  1
 12 13  1  0
 13  5  1  0
 14 12  1  0
 15 14  2  0
 16 17  1  0
 17 18  1  0
 19 18  1  0
 20 19  1  1
 20 21  1  0
 20 22  1  0
 21 14  1  0
 22 23  1  0
 24 22  2  0
M  END
$$$$
