NQR.pdb
     RDKit          3D

 29 28  0  0  1  0  0  0  0  0999 V2000
   27.5233  -21.0600  -19.6831 N   0  0  0  0  0  0  0  0  0  0  0  0
   28.4680  -21.4106  -18.6846 C   0  0  0  0  0  0  0  0  0  0  0  0
   29.6944  -21.2785  -18.9018 O   0  0  0  0  0  0  0  0  0  0  0  0
   28.0085  -21.9358  -17.3814 C   0  0  0  0  0  0  0  0  0  0  0  0
   27.8589  -20.7517  -16.4388 C   0  0  2  0  0  0  0  0  0  0  0  0
   28.9310  -19.8233  -16.6504 N   0  0  0  0  0  0  0  0  0  0  0  0
   27.7568  -21.1943  -15.0199 C   0  0  0  0  0  0  0  0  0  0  0  0
   26.8163  -21.9608  -14.7228 O   0  0  0  0  0  0  0  0  0  0  0  0
   32.3443  -21.8655  -10.8709 N   0  0  0  0  0  0  0  0  0  0  0  0
   31.1774  -21.8720  -10.0340 C   0  0  0  0  0  0  0  0  0  0  0  0
   31.4100  -22.0586   -8.7886 O   0  0  0  0  0  0  0  0  0  0  0  0
   29.8192  -21.6779  -10.5473 C   0  0  0  0  0  0  0  0  0  0  0  0
   29.8080  -21.3729  -11.9951 C   0  0  0  0  0  0  0  0  0  0  0  0
   28.4787  -21.1512  -12.6051 C   0  0  2  0  0  0  0  0  0  0  0  0
   28.6594  -20.7893  -14.0240 N   0  0  0  0  0  0  0  0  0  0  0  0
   27.4599  -20.3561  -11.9656 C   0  0  0  0  0  0  0  0  0  0  0  0
   27.1439  -19.2200  -12.3873 O   0  0  0  0  0  0  0  0  0  0  0  0
   21.0805  -19.0265  -15.1873 N   0  0  0  0  0  0  0  0  0  0  0  0
   22.3907  -19.4114  -15.6032 C   0  0  0  0  0  0  0  0  0  0  0  0
   22.8249  -19.1816  -16.7968 N   0  0  0  0  0  0  0  0  0  0  0  0
   23.2532  -20.0751  -14.7008 N   0  0  0  0  0  0  0  0  0  0  0  0
   22.7044  -20.7191  -13.5306 C   0  0  0  0  0  0  0  0  0  0  0  0
   23.4902  -20.1489  -12.3401 C   0  0  0  0  0  0  0  0  0  0  0  0
   24.5302  -21.0686  -11.8129 C   0  0  0  0  0  0  0  0  0  0  0  0
   25.3019  -20.4953  -10.6634 C   0  0  2  0  0  0  0  0  0  0  0  0
   26.7334  -20.7948  -10.8060 N   0  0  0  0  0  0  0  0  0  0  0  0
   24.8875  -21.0144   -9.3483 C   0  0  0  0  0  0  0  0  0  0  0  0
   23.9696  -20.3210   -8.5752 O   0  0  0  0  0  0  0  0  0  0  0  0
   25.3391  -22.0772   -8.8913 O   0  0  0  0  0  0  0  0  0  0  0  0
  2  1  1  0
  3  2  2  0
  4  2  1  0
  5  6  1  1
  5  4  1  0
  7  5  1  0
  8  7  2  0
  9 10  1  0
 10 12  1  0
 10 11  2  0
 12 13  1  0
 14 13  1  1
 14 15  1  0
 15  7  1  0
 16 14  1  0
 16 17  2  0
 18 19  1  0
 19 20  2  0
 21 22  1  0
 21 19  1  0
 23 24  1  0
 23 22  1  0
 25 24  1  6
 25 26  1  0
 26 16  1  0
 27 25  1  0
 28 27  1  0
 29 27  2  0
M  END
$$$$
