NQR.pdb
     RDKit          3D

 29 28  0  0  1  0  0  0  0  0999 V2000
   29.1837  -24.2870  -17.3925 N   0  0  0  0  0  0  0  0  0  0  0  0
   28.1463  -23.3270  -17.5135 C   0  0  0  0  0  0  0  0  0  0  0  0
   28.1286  -22.5356  -18.4841 O   0  0  0  0  0  0  0  0  0  0  0  0
   27.0803  -23.2552  -16.4918 C   0  0  0  0  0  0  0  0  0  0  0  0
   27.0457  -21.8281  -15.9672 C   0  0  2  0  0  0  0  0  0  0  0  0
   28.3438  -21.4555  -15.4853 N   0  0  0  0  0  0  0  0  0  0  0  0
   25.9813  -21.6509  -14.9399 C   0  0  0  0  0  0  0  0  0  0  0  0
   24.9714  -22.3809  -15.0262 O   0  0  0  0  0  0  0  0  0  0  0  0
   24.9313  -20.4544   -9.0075 N   0  0  0  0  0  0  0  0  0  0  0  0
   26.1463  -20.9528   -9.5885 C   0  0  0  0  0  0  0  0  0  0  0  0
   26.8802  -21.6386   -8.7942 O   0  0  0  0  0  0  0  0  0  0  0  0
   26.5304  -20.7088  -10.9809 C   0  0  0  0  0  0  0  0  0  0  0  0
   25.5239  -19.9007  -11.7041 C   0  0  0  0  0  0  0  0  0  0  0  0
   24.9701  -20.4999  -12.9381 C   0  0  2  0  0  0  0  0  0  0  0  0
   26.0688  -20.7123  -13.8998 N   0  0  0  0  0  0  0  0  0  0  0  0
   23.7797  -19.9929  -13.5744 C   0  0  0  0  0  0  0  0  0  0  0  0
   23.8320  -19.1952  -14.5383 O   0  0  0  0  0  0  0  0  0  0  0  0
   18.8597  -23.2374  -19.0778 N   0  0  0  0  0  0  0  0  0  0  0  0
   19.7001  -23.8614  -18.1071 C   0  0  0  0  0  0  0  0  0  0  0  0
   19.6602  -25.1318  -17.8828 N   0  0  0  0  0  0  0  0  0  0  0  0
   20.6044  -23.0829  -17.3487 N   0  0  0  0  0  0  0  0  0  0  0  0
   20.7520  -21.6757  -17.6374 C   0  0  0  0  0  0  0  0  0  0  0  0
   20.4622  -20.9512  -16.3141 C   0  0  0  0  0  0  0  0  0  0  0  0
   21.5897  -20.9931  -15.3486 C   0  0  0  0  0  0  0  0  0  0  0  0
   21.3195  -20.2305  -14.0872 C   0  0  2  0  0  0  0  0  0  0  0  0
   22.4523  -20.3549  -13.1597 N   0  0  0  0  0  0  0  0  0  0  0  0
   20.1218  -20.6854  -13.3598 C   0  0  0  0  0  0  0  0  0  0  0  0
   20.0408  -21.9827  -12.8788 O   0  0  0  0  0  0  0  0  0  0  0  0
   19.1551  -19.9335  -13.1541 O   0  0  0  0  0  0  0  0  0  0  0  0
  2  1  1  0
  3  2  2  0
  4  2  1  0
  5  6  1  1
  5  4  1  0
  7  5  1  0
  8  7  2  0
  9 10  1  0
 10 12  1  0
 10 11  2  0
 12 13  1  0
 14 13  1  1
 14 15  1  0
 15  7  1  0
 16 14  1  0
 16 17  2  0
 18 19  1  0
 19 20  2  0
 21 22  1  0
 21 19  1  0
 23 24  1  0
 23 22  1  0
 25 24  1  6
 25 26  1  0
 26 16  1  0
 27 25  1  0
 28 27  1  0
 29 27  2  0
M  END
$$$$
