NQR.pdb
     RDKit          3D

 29 28  0  0  1  0  0  0  0  0999 V2000
   19.1955  -21.8474   -9.6408 N   0  0  0  0  0  0  0  0  0  0  0  0
   19.2979  -22.2030  -11.0104 C   0  0  0  0  0  0  0  0  0  0  0  0
   18.4648  -22.9849  -11.5235 O   0  0  0  0  0  0  0  0  0  0  0  0
   20.3911  -21.6525  -11.8392 C   0  0  0  0  0  0  0  0  0  0  0  0
   21.2268  -20.7455  -10.9491 C   0  0  2  0  0  0  0  0  0  0  0  0
   20.4418  -19.6230  -10.5250 N   0  0  0  0  0  0  0  0  0  0  0  0
   22.4920  -20.3375  -11.6217 C   0  0  0  0  0  0  0  0  0  0  0  0
   22.4167  -19.4535  -12.5010 O   0  0  0  0  0  0  0  0  0  0  0  0
   28.4045  -21.2955   -9.6505 N   0  0  0  0  0  0  0  0  0  0  0  0
   28.5736  -21.0090  -11.0475 C   0  0  0  0  0  0  0  0  0  0  0  0
   29.7902  -20.9758  -11.4460 O   0  0  0  0  0  0  0  0  0  0  0  0
   27.4530  -20.7741  -11.9612 C   0  0  0  0  0  0  0  0  0  0  0  0
   26.1436  -20.9302  -11.2902 C   0  0  0  0  0  0  0  0  0  0  0  0
   24.9507  -20.6124  -12.1051 C   0  0  2  0  0  0  0  0  0  0  0  0
   23.7406  -20.8989  -11.3111 N   0  0  0  0  0  0  0  0  0  0  0  0
   24.8169  -21.0403  -13.4756 C   0  0  0  0  0  0  0  0  0  0  0  0
   24.0718  -21.9921  -13.8029 O   0  0  0  0  0  0  0  0  0  0  0  0
   19.2345  -18.2736  -17.2059 N   0  0  0  0  0  0  0  0  0  0  0  0
   20.3907  -17.5381  -17.6063 C   0  0  0  0  0  0  0  0  0  0  0  0
   20.3073  -16.4735  -18.3312 N   0  0  0  0  0  0  0  0  0  0  0  0
   21.6776  -17.9759  -17.2177 N   0  0  0  0  0  0  0  0  0  0  0  0
   21.8103  -19.1196  -16.3462 C   0  0  0  0  0  0  0  0  0  0  0  0
   23.3186  -19.2793  -16.1030 C   0  0  0  0  0  0  0  0  0  0  0  0
   23.8114  -20.6681  -16.2864 C   0  0  0  0  0  0  0  0  0  0  0  0
   25.2628  -20.8320  -15.9514 C   0  0  2  0  0  0  0  0  0  0  0  0
   25.5192  -20.4194  -14.5647 N   0  0  0  0  0  0  0  0  0  0  0  0
   26.1654  -20.0399  -16.8049 C   0  0  0  0  0  0  0  0  0  0  0  0
   26.2207  -20.2660  -18.1712 O   0  0  0  0  0  0  0  0  0  0  0  0
   26.8990  -19.1535  -16.3377 O   0  0  0  0  0  0  0  0  0  0  0  0
  2  1  1  0
  3  2  2  0
  4  2  1  0
  5  6  1  6
  5  4  1  0
  7  5  1  0
  8  7  2  0
  9 10  1  0
 10 12  1  0
 10 11  2  0
 12 13  1  0
 14 13  1  1
 14 15  1  0
 15  7  1  0
 16 14  1  0
 16 17  2  0
 18 19  1  0
 19 20  2  0
 21 22  1  0
 21 19  1  0
 23 24  1  0
 23 22  1  0
 25 24  1  6
 25 26  1  0
 26 16  1  0
 27 25  1  0
 28 27  1  0
 29 27  2  0
M  END
$$$$
