NQR.pdb
     RDKit          3D

 29 28  0  0  1  0  0  0  0  0999 V2000
   12.1336  -22.9914    0.5843 N   0  0  0  0  0  0  0  0  0  0  0  0
   12.0152  -22.4366   -0.7160 C   0  0  0  0  0  0  0  0  0  0  0  0
   10.9845  -21.8035   -1.0407 O   0  0  0  0  0  0  0  0  0  0  0  0
   13.1093  -22.6048   -1.6958 C   0  0  0  0  0  0  0  0  0  0  0  0
   14.3700  -22.9496   -0.9182 C   0  0  2  0  0  0  0  0  0  0  0  0
   14.8576  -21.7837   -0.2406 N   0  0  0  0  0  0  0  0  0  0  0  0
   15.3989  -23.5730   -1.7970 C   0  0  0  0  0  0  0  0  0  0  0  0
   16.1538  -22.8065   -2.4318 O   0  0  0  0  0  0  0  0  0  0  0  0
   18.5308  -28.7312   -0.6809 N   0  0  0  0  0  0  0  0  0  0  0  0
   18.8582  -28.4925   -2.0586 C   0  0  0  0  0  0  0  0  0  0  0  0
   19.7987  -29.2273   -2.5228 O   0  0  0  0  0  0  0  0  0  0  0  0
   18.1770  -27.4930   -2.8850 C   0  0  0  0  0  0  0  0  0  0  0  0
   17.1835  -26.7141   -2.1134 C   0  0  0  0  0  0  0  0  0  0  0  0
   16.5773  -25.5582   -2.8094 C   0  0  2  0  0  0  0  0  0  0  0  0
   15.5482  -24.9618   -1.9363 N   0  0  0  0  0  0  0  0  0  0  0  0
   16.1528  -25.6229   -4.1859 C   0  0  0  0  0  0  0  0  0  0  0  0
   14.9612  -25.4338   -4.5216 O   0  0  0  0  0  0  0  0  0  0  0  0
   13.5945  -20.4141   -9.4206 N   0  0  0  0  0  0  0  0  0  0  0  0
   13.8815  -21.5008  -10.3008 C   0  0  0  0  0  0  0  0  0  0  0  0
   13.5283  -21.4876  -11.5421 N   0  0  0  0  0  0  0  0  0  0  0  0
   14.5632  -22.6415   -9.8180 N   0  0  0  0  0  0  0  0  0  0  0  0
   15.0277  -22.6709   -8.4510 C   0  0  0  0  0  0  0  0  0  0  0  0
   15.6355  -24.0677   -8.2526 C   0  0  0  0  0  0  0  0  0  0  0  0
   16.1140  -24.3220   -6.8699 C   0  0  0  0  0  0  0  0  0  0  0  0
   16.6211  -25.7171   -6.6646 C   0  0  2  0  0  0  0  0  0  0  0  0
   17.0495  -25.9076   -5.2721 N   0  0  0  0  0  0  0  0  0  0  0  0
   17.7724  -26.0648   -7.5155 C   0  0  0  0  0  0  0  0  0  0  0  0
   17.6022  -26.2905   -8.8724 O   0  0  0  0  0  0  0  0  0  0  0  0
   18.9210  -26.1668   -7.0544 O   0  0  0  0  0  0  0  0  0  0  0  0
  2  1  1  0
  3  2  2  0
  4  2  1  0
  5  6  1  6
  5  4  1  0
  7  5  1  0
  8  7  2  0
  9 10  1  0
 10 12  1  0
 10 11  2  0
 12 13  1  0
 14 13  1  1
 14 15  1  0
 15  7  1  0
 16 14  1  0
 16 17  2  0
 18 19  1  0
 19 20  2  0
 21 22  1  0
 21 19  1  0
 23 24  1  0
 23 22  1  0
 25 24  1  1
 25 26  1  0
 26 16  1  0
 27 25  1  0
 28 27  1  0
 29 27  2  0
M  END
$$$$
