NQR.pdb
     RDKit          3D

 29 28  0  0  1  0  0  0  0  0999 V2000
   15.6306  -13.8281  -14.8053 N   0  0  0  0  0  0  0  0  0  0  0  0
   16.9544  -13.4450  -15.1422 C   0  0  0  0  0  0  0  0  0  0  0  0
   17.4812  -13.8585  -16.2006 O   0  0  0  0  0  0  0  0  0  0  0  0
   17.7199  -12.5557  -14.2432 C   0  0  0  0  0  0  0  0  0  0  0  0
   17.3237  -11.1243  -14.5707 C   0  0  2  0  0  0  0  0  0  0  0  0
   17.7600  -10.7899  -15.8951 N   0  0  0  0  0  0  0  0  0  0  0  0
   17.8291  -10.1705  -13.5438 C   0  0  0  0  0  0  0  0  0  0  0  0
   17.5409  -10.4036  -12.3510 O   0  0  0  0  0  0  0  0  0  0  0  0
   22.3350   -5.8156  -14.4104 N   0  0  0  0  0  0  0  0  0  0  0  0
   21.8436   -5.5297  -13.0917 C   0  0  0  0  0  0  0  0  0  0  0  0
   22.4738   -4.6027  -12.4724 O   0  0  0  0  0  0  0  0  0  0  0  0
   20.7085   -6.2312  -12.4873 C   0  0  0  0  0  0  0  0  0  0  0  0
   20.1666   -7.2840  -13.3745 C   0  0  0  0  0  0  0  0  0  0  0  0
   19.0407   -8.0769  -12.8342 C   0  0  2  0  0  0  0  0  0  0  0  0
   18.6009   -9.0415  -13.8605 N   0  0  0  0  0  0  0  0  0  0  0  0
   17.9290   -7.4683  -12.1467 C   0  0  0  0  0  0  0  0  0  0  0  0
   16.9238   -7.0417  -12.7599 O   0  0  0  0  0  0  0  0  0  0  0  0
   11.2226   -9.5793   -7.5613 N   0  0  0  0  0  0  0  0  0  0  0  0
   11.3032   -8.1576   -7.4606 C   0  0  0  0  0  0  0  0  0  0  0  0
   10.3168   -7.4450   -7.0306 N   0  0  0  0  0  0  0  0  0  0  0  0
   12.4859   -7.4867   -7.8478 N   0  0  0  0  0  0  0  0  0  0  0  0
   13.5046   -8.2002   -8.5816 C   0  0  0  0  0  0  0  0  0  0  0  0
   14.6631   -7.2058   -8.7507 C   0  0  0  0  0  0  0  0  0  0  0  0
   15.8170   -7.7534   -9.5084 C   0  0  0  0  0  0  0  0  0  0  0  0
   16.7114   -6.6932  -10.0758 C   0  0  2  0  0  0  0  0  0  0  0  0
   17.8835   -7.3015  -10.7202 N   0  0  0  0  0  0  0  0  0  0  0  0
   17.2224   -5.7436   -9.0720 C   0  0  0  0  0  0  0  0  0  0  0  0
   16.4394   -4.6835   -8.6431 O   0  0  0  0  0  0  0  0  0  0  0  0
   18.3573   -5.8571   -8.5806 O   0  0  0  0  0  0  0  0  0  0  0  0
  2  1  1  0
  3  2  2  0
  4  2  1  0
  5  6  1  6
  5  4  1  0
  7  5  1  0
  8  7  2  0
  9 10  1  0
 10 12  1  0
 10 11  2  0
 12 13  1  0
 14 13  1  6
 14 15  1  0
 15  7  1  0
 16 14  1  0
 16 17  2  0
 18 19  1  0
 19 20  2  0
 21 22  1  0
 21 19  1  0
 23 24  1  0
 23 22  1  0
 25 24  1  1
 25 26  1  0
 26 16  1  0
 27 25  1  0
 28 27  1  0
 29 27  2  0
M  END
$$$$
