NQR.pdb
     RDKit          3D

 29 28  0  0  1  0  0  0  0  0999 V2000
   28.6620  -17.3596  -16.3591 N   0  0  0  0  0  0  0  0  0  0  0  0
   27.9351  -18.2929  -17.1422 C   0  0  0  0  0  0  0  0  0  0  0  0
   28.2524  -18.4973  -18.3365 O   0  0  0  0  0  0  0  0  0  0  0  0
   26.7971  -19.0285  -16.5516 C   0  0  0  0  0  0  0  0  0  0  0  0
   27.3709  -20.1479  -15.6968 C   0  0  2  0  0  0  0  0  0  0  0  0
   27.9263  -21.1670  -16.5390 N   0  0  0  0  0  0  0  0  0  0  0  0
   26.3563  -20.6819  -14.7455 C   0  0  0  0  0  0  0  0  0  0  0  0
   25.5973  -21.5832  -15.1602 O   0  0  0  0  0  0  0  0  0  0  0  0
   26.6124  -20.2319   -8.4743 N   0  0  0  0  0  0  0  0  0  0  0  0
   25.3143  -20.7999   -8.7076 C   0  0  0  0  0  0  0  0  0  0  0  0
   24.6881  -21.1622   -7.6509 O   0  0  0  0  0  0  0  0  0  0  0  0
   24.7340  -20.9568  -10.0434 C   0  0  0  0  0  0  0  0  0  0  0  0
   25.6833  -20.5761  -11.1126 C   0  0  0  0  0  0  0  0  0  0  0  0
   25.2099  -20.7607  -12.5018 C   0  0  2  0  0  0  0  0  0  0  0  0
   26.2233  -20.2187  -13.4270 N   0  0  0  0  0  0  0  0  0  0  0  0
   23.8672  -20.4286  -12.9094 C   0  0  0  0  0  0  0  0  0  0  0  0
   23.5407  -19.2624  -13.2279 O   0  0  0  0  0  0  0  0  0  0  0  0
   17.3736  -26.0121  -13.1800 N   0  0  0  0  0  0  0  0  0  0  0  0
   18.5193  -25.7122  -12.3830 C   0  0  0  0  0  0  0  0  0  0  0  0
   19.0833  -26.5995  -11.6343 N   0  0  0  0  0  0  0  0  0  0  0  0
   19.0644  -24.4077  -12.3898 N   0  0  0  0  0  0  0  0  0  0  0  0
   18.4078  -23.3630  -13.1400 C   0  0  0  0  0  0  0  0  0  0  0  0
   19.2865  -22.1152  -12.9640 C   0  0  0  0  0  0  0  0  0  0  0  0
   20.6054  -22.2110  -13.6397 C   0  0  0  0  0  0  0  0  0  0  0  0
   21.4658  -21.0011  -13.4362 C   0  0  2  0  0  0  0  0  0  0  0  0
   22.8063  -21.3952  -12.9814 N   0  0  0  0  0  0  0  0  0  0  0  0
   20.9385  -20.0550  -12.4376 C   0  0  0  0  0  0  0  0  0  0  0  0
   20.0220  -19.0822  -12.8046 O   0  0  0  0  0  0  0  0  0  0  0  0
   21.2910  -20.0943  -11.2474 O   0  0  0  0  0  0  0  0  0  0  0  0
  2  1  1  0
  3  2  2  0
  4  2  1  0
  5  6  1  6
  5  4  1  0
  7  5  1  0
  8  7  2  0
  9 10  1  0
 10 12  1  0
 10 11  2  0
 12 13  1  0
 14 13  1  1
 14 15  1  0
 15  7  1  0
 16 14  1  0
 16 17  2  0
 18 19  1  0
 19 20  2  0
 21 22  1  0
 21 19  1  0
 23 24  1  0
 23 22  1  0
 25 24  1  1
 25 26  1  0
 26 16  1  0
 27 25  1  0
 28 27  1  0
 29 27  2  0
M  END
$$$$
