NQR.pdb
     RDKit          3D

 29 28  0  0  1  0  0  0  0  0999 V2000
   29.2872  -19.3402  -15.7095 N   0  0  0  0  0  0  0  0  0  0  0  0
   28.1714  -18.4927  -15.9314 C   0  0  0  0  0  0  0  0  0  0  0  0
   28.3294  -17.3640  -16.4508 O   0  0  0  0  0  0  0  0  0  0  0  0
   26.8148  -18.9382  -15.5488 C   0  0  0  0  0  0  0  0  0  0  0  0
   26.9610  -20.2499  -14.7930 C   0  0  2  0  0  0  0  0  0  0  0  0
   27.4650  -21.2642  -15.6723 N   0  0  0  0  0  0  0  0  0  0  0  0
   25.6837  -20.6454  -14.1358 C   0  0  0  0  0  0  0  0  0  0  0  0
   24.8557  -21.2797  -14.8229 O   0  0  0  0  0  0  0  0  0  0  0  0
   24.4576  -20.6349   -7.9325 N   0  0  0  0  0  0  0  0  0  0  0  0
   23.1887  -20.9465   -8.5282 C   0  0  0  0  0  0  0  0  0  0  0  0
   22.2571  -21.2245   -7.6945 O   0  0  0  0  0  0  0  0  0  0  0  0
   22.9585  -20.9474   -9.9749 C   0  0  0  0  0  0  0  0  0  0  0  0
   24.2017  -20.6995  -10.7379 C   0  0  0  0  0  0  0  0  0  0  0  0
   24.0597  -20.6177  -12.2081 C   0  0  2  0  0  0  0  0  0  0  0  0
   25.3817  -20.3370  -12.8000 N   0  0  0  0  0  0  0  0  0  0  0  0
   23.0080  -19.8604  -12.8401 C   0  0  0  0  0  0  0  0  0  0  0  0
   23.0193  -18.6085  -12.8708 O   0  0  0  0  0  0  0  0  0  0  0  0
   24.1265  -18.2333  -19.4102 N   0  0  0  0  0  0  0  0  0  0  0  0
   23.7980  -19.5007  -18.8412 C   0  0  0  0  0  0  0  0  0  0  0  0
   24.4529  -20.5732  -19.1353 N   0  0  0  0  0  0  0  0  0  0  0  0
   22.7197  -19.6108  -17.9335 N   0  0  0  0  0  0  0  0  0  0  0  0
   21.9937  -18.4263  -17.5394 C   0  0  0  0  0  0  0  0  0  0  0  0
   21.8630  -18.5127  -16.0113 C   0  0  0  0  0  0  0  0  0  0  0  0
   20.9434  -19.5828  -15.5480 C   0  0  0  0  0  0  0  0  0  0  0  0
   20.8070  -19.6437  -14.0569 C   0  0  2  0  0  0  0  0  0  0  0  0
   21.8740  -20.4711  -13.4774 N   0  0  0  0  0  0  0  0  0  0  0  0
   19.5288  -20.2144  -13.5975 C   0  0  0  0  0  0  0  0  0  0  0  0
   18.4768  -19.3864  -13.2385 O   0  0  0  0  0  0  0  0  0  0  0  0
   19.3501  -21.4406  -13.5164 O   0  0  0  0  0  0  0  0  0  0  0  0
  2  1  1  0
  3  2  2  0
  4  2  1  0
  5  6  1  6
  5  4  1  0
  7  5  1  0
  8  7  2  0
  9 10  1  0
 10 12  1  0
 10 11  2  0
 12 13  1  0
 14 13  1  1
 14 15  1  0
 15  7  1  0
 16 14  1  0
 16 17  2  0
 18 19  1  0
 19 20  2  0
 21 22  1  0
 21 19  1  0
 23 24  1  0
 23 22  1  0
 25 24  1  6
 25 26  1  0
 26 16  1  0
 27 25  1  0
 28 27  1  0
 29 27  2  0
M  END
$$$$
