NQR.pdb
     RDKit          3D

 29 28  0  0  1  0  0  0  0  0999 V2000
   24.2437  -21.9740   -7.8161 N   0  0  0  0  0  0  0  0  0  0  0  0
   23.2667  -21.1347   -8.4107 C   0  0  0  0  0  0  0  0  0  0  0  0
   22.1456  -20.9905   -7.8712 O   0  0  0  0  0  0  0  0  0  0  0  0
   23.5674  -20.4263   -9.6728 C   0  0  0  0  0  0  0  0  0  0  0  0
   24.9033  -20.9460  -10.1812 C   0  0  2  0  0  0  0  0  0  0  0  0
   25.9598  -20.4908   -9.3251 N   0  0  0  0  0  0  0  0  0  0  0  0
   25.1240  -20.5777  -11.6079 C   0  0  0  0  0  0  0  0  0  0  0  0
   25.7010  -19.4943  -11.8396 O   0  0  0  0  0  0  0  0  0  0  0  0
   27.1349  -23.8784  -16.2234 N   0  0  0  0  0  0  0  0  0  0  0  0
   26.6574  -22.7114  -16.9106 C   0  0  0  0  0  0  0  0  0  0  0  0
   26.9674  -22.6540  -18.1519 O   0  0  0  0  0  0  0  0  0  0  0  0
   25.8722  -21.6601  -16.2594 C   0  0  0  0  0  0  0  0  0  0  0  0
   25.6769  -21.9222  -14.8164 C   0  0  0  0  0  0  0  0  0  0  0  0
   24.8362  -20.9498  -14.0844 C   0  0  2  0  0  0  0  0  0  0  0  0
   24.7150  -21.3861  -12.6801 N   0  0  0  0  0  0  0  0  0  0  0  0
   23.5871  -20.4597  -14.6121 C   0  0  0  0  0  0  0  0  0  0  0  0
   22.5092  -21.0743  -14.4425 O   0  0  0  0  0  0  0  0  0  0  0  0
   20.7376  -13.3593  -19.5447 N   0  0  0  0  0  0  0  0  0  0  0  0
   19.6413  -14.2155  -19.2237 C   0  0  0  0  0  0  0  0  0  0  0  0
   18.4295  -13.9335  -19.5671 N   0  0  0  0  0  0  0  0  0  0  0  0
   19.8639  -15.4089  -18.4992 N   0  0  0  0  0  0  0  0  0  0  0  0
   21.1838  -15.7006  -17.9912 C   0  0  0  0  0  0  0  0  0  0  0  0
   21.0547  -17.0433  -17.2560 C   0  0  0  0  0  0  0  0  0  0  0  0
   22.3258  -17.5227  -16.6563 C   0  0  0  0  0  0  0  0  0  0  0  0
   22.1866  -18.8295  -15.9362 C   0  0  2  0  0  0  0  0  0  0  0  0
   23.4771  -19.2423  -15.3677 N   0  0  0  0  0  0  0  0  0  0  0  0
   21.7249  -19.9363  -16.7922 C   0  0  0  0  0  0  0  0  0  0  0  0
   20.3831  -20.2806  -16.8348 O   0  0  0  0  0  0  0  0  0  0  0  0
   22.5103  -20.5914  -17.4965 O   0  0  0  0  0  0  0  0  0  0  0  0
  2  1  1  0
  3  2  2  0
  4  2  1  0
  5  6  1  1
  5  4  1  0
  7  5  1  0
  8  7  2  0
  9 10  1  0
 10 12  1  0
 10 11  2  0
 12 13  1  0
 14 13  1  6
 14 15  1  0
 15  7  1  0
 16 14  1  0
 16 17  2  0
 18 19  1  0
 19 20  2  0
 21 22  1  0
 21 19  1  0
 23 24  1  0
 23 22  1  0
 25 24  1  6
 25 26  1  0
 26 16  1  0
 27 25  1  0
 28 27  1  0
 29 27  2  0
M  END
$$$$
