NQR.pdb
     RDKit          3D

 29 28  0  0  1  0  0  0  0  0999 V2000
   18.5823  -18.2583  -15.1596 N   0  0  0  0  0  0  0  0  0  0  0  0
   17.8019  -17.2108  -15.7130 C   0  0  0  0  0  0  0  0  0  0  0  0
   16.5709  -17.3640  -15.8853 O   0  0  0  0  0  0  0  0  0  0  0  0
   18.4396  -15.9317  -16.0906 C   0  0  0  0  0  0  0  0  0  0  0  0
   17.9201  -15.5516  -17.4686 C   0  0  2  0  0  0  0  0  0  0  0  0
   18.5492  -16.3661  -18.4671 N   0  0  0  0  0  0  0  0  0  0  0  0
   18.0863  -14.0944  -17.7307 C   0  0  0  0  0  0  0  0  0  0  0  0
   19.1334  -13.7292  -18.3056 O   0  0  0  0  0  0  0  0  0  0  0  0
   13.3602   -9.9634  -17.9744 N   0  0  0  0  0  0  0  0  0  0  0  0
   14.5194   -9.1411  -18.1799 C   0  0  0  0  0  0  0  0  0  0  0  0
   14.2687   -7.9079  -18.4174 O   0  0  0  0  0  0  0  0  0  0  0  0
   15.8899   -9.6553  -18.1222 C   0  0  0  0  0  0  0  0  0  0  0  0
   15.9312  -11.0992  -17.8020 C   0  0  0  0  0  0  0  0  0  0  0  0
   17.2760  -11.7076  -17.7035 C   0  0  2  0  0  0  0  0  0  0  0  0
   17.1297  -13.1355  -17.3621 N   0  0  0  0  0  0  0  0  0  0  0  0
   18.3541  -11.0819  -16.9786 C   0  0  0  0  0  0  0  0  0  0  0  0
   18.5994  -11.3626  -15.7831 O   0  0  0  0  0  0  0  0  0  0  0  0
   25.2976  -10.3249  -15.2206 N   0  0  0  0  0  0  0  0  0  0  0  0
   24.3703   -9.4910  -14.5259 C   0  0  0  0  0  0  0  0  0  0  0  0
   23.8556   -9.8352  -13.3934 N   0  0  0  0  0  0  0  0  0  0  0  0
   23.9808   -8.2504  -15.0809 N   0  0  0  0  0  0  0  0  0  0  0  0
   22.6529   -8.0976  -15.6274 C   0  0  0  0  0  0  0  0  0  0  0  0
   22.6767   -8.8290  -16.9781 C   0  0  0  0  0  0  0  0  0  0  0  0
   21.3500   -8.9069  -17.6408 C   0  0  0  0  0  0  0  0  0  0  0  0
   20.2756   -9.4604  -16.7548 C   0  0  2  0  0  0  0  0  0  0  0  0
   19.2238  -10.0965  -17.5596 N   0  0  0  0  0  0  0  0  0  0  0  0
   19.6143   -8.4470  -15.9144 C   0  0  0  0  0  0  0  0  0  0  0  0
   19.9249   -8.3374  -14.5681 O   0  0  0  0  0  0  0  0  0  0  0  0
   18.7666   -7.6652  -16.3753 O   0  0  0  0  0  0  0  0  0  0  0  0
  2  1  1  0
  3  2  2  0
  4  2  1  0
  5  6  1  6
  5  4  1  0
  7  5  1  0
  8  7  2  0
  9 10  1  0
 10 12  1  0
 10 11  2  0
 12 13  1  0
 14 13  1  1
 14 15  1  0
 15  7  1  0
 16 14  1  0
 16 17  2  0
 18 19  1  0
 19 20  2  0
 21 22  1  0
 21 19  1  0
 23 24  1  0
 23 22  1  0
 25 24  1  6
 25 26  1  0
 26 16  1  0
 27 25  1  0
 28 27  1  0
 29 27  2  0
M  END
$$$$
