VIV.pdb
     RDKit          3D

 23 22  0  0  1  0  0  0  0  0999 V2000
    6.4770  -16.1412   19.1312 C   0  0  0  0  0  0  0  0  0  0  0  0
    7.1901  -16.0070   20.4581 C   0  0  2  0  0  0  0  0  0  0  0  0
    6.4896  -16.8633   21.4648 C   0  0  0  0  0  0  0  0  0  0  0  0
    7.2429  -14.5540   20.9020 C   0  0  2  0  0  0  0  0  0  0  0  0
    7.9273  -13.7369   19.9239 N   0  0  0  0  0  0  0  0  0  0  0  0
    7.9454  -14.4097   22.1932 C   0  0  0  0  0  0  0  0  0  0  0  0
    9.1972  -14.4368   22.2107 O   0  0  0  0  0  0  0  0  0  0  0  0
    5.8541  -11.4203   26.2821 C   0  0  0  0  0  0  0  0  0  0  0  0
    6.8112  -12.0062   25.2631 C   0  0  0  0  0  0  0  0  0  0  0  0
    7.1724  -13.3972   25.7301 C   0  0  2  0  0  0  0  0  0  0  0  0
    8.0373  -13.2718   26.9735 C   0  0  0  0  0  0  0  0  0  0  0  0
    8.0042  -14.1332   24.6961 C   0  0  2  0  0  0  0  0  0  0  0  0
    7.2850  -14.2382   23.4454 N   0  0  0  0  0  0  0  0  0  0  0  0
    8.3797  -15.4971   25.2063 C   0  0  0  0  0  0  0  0  0  0  0  0
    7.4998  -16.3748   25.3970 O   0  0  0  0  0  0  0  0  0  0  0  0
   11.1765  -17.5864   23.6835 C   0  0  0  0  0  0  0  0  0  0  0  0
   11.4192  -17.5729   25.1655 C   0  0  2  0  0  0  0  0  0  0  0  0
   11.8722  -18.9521   25.5932 C   0  0  0  0  0  0  0  0  0  0  0  0
   10.1295  -17.1816   25.8534 C   0  0  2  0  0  0  0  0  0  0  0  0
    9.7237  -15.8385   25.4873 N   0  0  0  0  0  0  0  0  0  0  0  0
   10.2448  -17.2465   27.3249 C   0  0  0  0  0  0  0  0  0  0  0  0
   10.5871  -16.2216   27.9583 O   0  0  0  0  0  0  0  0  0  0  0  0
    9.9882  -18.4038   28.0420 O   0  0  0  0  0  0  0  0  0  0  0  0
  2  1  1  6
  2  3  1  0
  4  2  1  0
  4  5  1  6
  6 13  1  0
  6  4  1  0
  7  6  2  0
  8  9  1  0
  9 10  1  0
 10 12  1  0
 10 11  1  1
 12 13  1  6
 12 14  1  0
 14 20  1  0
 15 14  2  0
 17 18  1  1
 17 16  1  0
 19 21  1  0
 19 17  1  0
 19 20  1  1
 21 23  1  0
 22 21  2  0
M  END
$$$$
