VIV.pdb
     RDKit          3D

 23 22  0  0  1  0  0  0  0  0999 V2000
    6.4772  -16.4596   19.3808 C   0  0  0  0  0  0  0  0  0  0  0  0
    7.1867  -16.3181   20.7089 C   0  0  2  0  0  0  0  0  0  0  0  0
    6.4416  -17.1119   21.7347 C   0  0  0  0  0  0  0  0  0  0  0  0
    7.3020  -14.8564   21.1104 C   0  0  2  0  0  0  0  0  0  0  0  0
    8.0282  -14.1001   20.1137 N   0  0  0  0  0  0  0  0  0  0  0  0
    8.0025  -14.7054   22.4019 C   0  0  0  0  0  0  0  0  0  0  0  0
    9.2533  -14.7596   22.4252 O   0  0  0  0  0  0  0  0  0  0  0  0
    5.9678  -11.5449   26.3541 C   0  0  0  0  0  0  0  0  0  0  0  0
    6.9111  -12.1979   25.3634 C   0  0  0  0  0  0  0  0  0  0  0  0
    7.2510  -13.5692   25.8996 C   0  0  2  0  0  0  0  0  0  0  0  0
    8.1305  -13.3954   27.1267 C   0  0  0  0  0  0  0  0  0  0  0  0
    8.0585  -14.3741   24.8981 C   0  0  2  0  0  0  0  0  0  0  0  0
    7.3411  -14.4980   23.6482 N   0  0  0  0  0  0  0  0  0  0  0  0
    8.3794  -15.7314   25.4605 C   0  0  0  0  0  0  0  0  0  0  0  0
    7.4621  -16.4927   25.8609 O   0  0  0  0  0  0  0  0  0  0  0  0
   12.3896  -17.2505   25.4039 C   0  0  0  0  0  0  0  0  0  0  0  0
   11.1813  -18.1249   25.2280 C   0  0  2  0  0  0  0  0  0  0  0  0
   10.8416  -18.1886   23.7546 C   0  0  0  0  0  0  0  0  0  0  0  0
   10.0438  -17.5277   26.0275 C   0  0  2  0  0  0  0  0  0  0  0  0
    9.7121  -16.1964   25.5582 N   0  0  0  0  0  0  0  0  0  0  0  0
   10.3623  -17.4459   27.4679 C   0  0  0  0  0  0  0  0  0  0  0  0
   10.6758  -16.3393   27.9641 O   0  0  0  0  0  0  0  0  0  0  0  0
   10.3289  -18.5514   28.3023 O   0  0  0  0  0  0  0  0  0  0  0  0
  2  1  1  6
  2  3  1  0
  4  2  1  0
  4  5  1  6
  6 13  1  0
  6  4  1  0
  7  6  2  0
  8  9  1  0
  9 10  1  0
 10 12  1  0
 10 11  1  1
 12 13  1  6
 12 14  1  0
 14 20  1  0
 15 14  2  0
 17 18  1  6
 17 16  1  0
 19 21  1  0
 19 17  1  0
 19 20  1  6
 21 23  1  0
 22 21  2  0
M  END
$$$$
