VIV.pdb
     RDKit          3D

 23 22  0  0  1  0  0  0  0  0999 V2000
    8.2853  -20.4981   16.8851 C   0  0  0  0  0  0  0  0  0  0  0  0
    8.9352  -19.6080   17.9207 C   0  0  2  0  0  0  0  0  0  0  0  0
    8.2654  -19.8407   19.2377 C   0  0  0  0  0  0  0  0  0  0  0  0
    8.8589  -18.1472   17.5065 C   0  0  2  0  0  0  0  0  0  0  0  0
    9.6572  -17.9001   16.3257 N   0  0  0  0  0  0  0  0  0  0  0  0
    9.3406  -17.2559   18.5812 C   0  0  0  0  0  0  0  0  0  0  0  0
   10.5731  -17.1428   18.7705 O   0  0  0  0  0  0  0  0  0  0  0  0
    6.7715  -12.5875   20.0099 C   0  0  0  0  0  0  0  0  0  0  0  0
    7.8584  -13.5790   19.6447 C   0  0  0  0  0  0  0  0  0  0  0  0
    7.9990  -14.5415   20.8011 C   0  0  2  0  0  0  0  0  0  0  0  0
    8.5618  -13.7788   21.9890 C   0  0  0  0  0  0  0  0  0  0  0  0
    8.9896  -15.6475   20.4875 C   0  0  2  0  0  0  0  0  0  0  0  0
    8.4834  -16.5006   19.4347 N   0  0  0  0  0  0  0  0  0  0  0  0
    9.2805  -16.4508   21.7251 C   0  0  0  0  0  0  0  0  0  0  0  0
    8.3743  -17.1218   22.2816 O   0  0  0  0  0  0  0  0  0  0  0  0
   12.4937  -18.6061   22.0989 C   0  0  0  0  0  0  0  0  0  0  0  0
   12.3342  -17.8073   23.3606 C   0  0  2  0  0  0  0  0  0  0  0  0
   12.6754  -18.6930   24.5393 C   0  0  0  0  0  0  0  0  0  0  0  0
   10.9031  -17.3214   23.4361 C   0  0  2  0  0  0  0  0  0  0  0  0
   10.5719  -16.4802   22.3024 N   0  0  0  0  0  0  0  0  0  0  0  0
   10.6422  -16.5568   24.6730 C   0  0  0  0  0  0  0  0  0  0  0  0
   10.9050  -15.3324   24.7032 O   0  0  0  0  0  0  0  0  0  0  0  0
   10.1142  -17.1411   25.8128 O   0  0  0  0  0  0  0  0  0  0  0  0
  2  1  1  6
  2  3  1  0
  4  2  1  0
  4  5  1  6
  6 13  1  0
  6  4  1  0
  7  6  2  0
  8  9  1  0
  9 10  1  0
 10 12  1  0
 10 11  1  1
 12 13  1  6
 12 14  1  0
 14 20  1  0
 15 14  2  0
 17 18  1  1
 17 16  1  0
 19 21  1  0
 19 17  1  0
 19 20  1  6
 21 23  1  0
 22 21  2  0
M  END
$$$$
