VIV.pdb
     RDKit          3D

 23 22  0  0  1  0  0  0  0  0999 V2000
    6.4832  -16.4938   19.3653 C   0  0  0  0  0  0  0  0  0  0  0  0
    7.2422  -16.1857   20.6366 C   0  0  2  0  0  0  0  0  0  0  0  0
    6.6919  -17.0346   21.7384 C   0  0  0  0  0  0  0  0  0  0  0  0
    7.1559  -14.7064   20.9759 C   0  0  2  0  0  0  0  0  0  0  0  0
    7.7375  -13.8982   19.9264 N   0  0  0  0  0  0  0  0  0  0  0  0
    7.8625  -14.3999   22.2362 C   0  0  0  0  0  0  0  0  0  0  0  0
    9.1099  -14.2920   22.2233 O   0  0  0  0  0  0  0  0  0  0  0  0
    5.6816  -11.4408   26.2869 C   0  0  0  0  0  0  0  0  0  0  0  0
    6.6464  -12.0060   25.2635 C   0  0  0  0  0  0  0  0  0  0  0  0
    7.1020  -13.3552   25.7690 C   0  0  2  0  0  0  0  0  0  0  0  0
    7.9999  -13.1329   26.9748 C   0  0  0  0  0  0  0  0  0  0  0  0
    7.9389  -14.0840   24.7340 C   0  0  2  0  0  0  0  0  0  0  0  0
    7.2107  -14.2147   23.4910 N   0  0  0  0  0  0  0  0  0  0  0  0
    8.3462  -15.4354   25.2530 C   0  0  0  0  0  0  0  0  0  0  0  0
    7.4787  -16.2779   25.5974 O   0  0  0  0  0  0  0  0  0  0  0  0
   11.3029  -17.4344   23.5978 C   0  0  0  0  0  0  0  0  0  0  0  0
   11.4598  -17.4880   25.0905 C   0  0  2  0  0  0  0  0  0  0  0  0
   11.9101  -18.8796   25.4791 C   0  0  0  0  0  0  0  0  0  0  0  0
   10.1263  -17.1476   25.7196 C   0  0  2  0  0  0  0  0  0  0  0  0
    9.7071  -15.8039   25.3711 N   0  0  0  0  0  0  0  0  0  0  0  0
   10.1656  -17.2540   27.1927 C   0  0  0  0  0  0  0  0  0  0  0  0
   10.5361  -16.2666   27.8685 O   0  0  0  0  0  0  0  0  0  0  0  0
    9.8067  -18.4104   27.8660 O   0  0  0  0  0  0  0  0  0  0  0  0
  2  1  1  6
  2  3  1  0
  4  2  1  0
  4  5  1  6
  6 13  1  0
  6  4  1  0
  7  6  2  0
  8  9  1  0
  9 10  1  0
 10 12  1  0
 10 11  1  1
 12 13  1  6
 12 14  1  0
 14 20  1  0
 15 14  2  0
 17 18  1  6
 17 16  1  0
 19 21  1  0
 19 17  1  0
 19 20  1  1
 21 23  1  0
 22 21  2  0
M  END
$$$$
