VIV.pdb
     RDKit          3D

 23 22  0  0  1  0  0  0  0  0999 V2000
    7.9325  -17.7610   21.5878 C   0  0  0  0  0  0  0  0  0  0  0  0
    6.6866  -16.9060   21.5261 C   0  0  2  0  0  0  0  0  0  0  0  0
    5.8704  -17.3366   20.3489 C   0  0  0  0  0  0  0  0  0  0  0  0
    7.0436  -15.4304   21.4476 C   0  0  2  0  0  0  0  0  0  0  0  0
    7.7849  -15.1391   20.2400 N   0  0  0  0  0  0  0  0  0  0  0  0
    7.8640  -15.0117   22.6022 C   0  0  0  0  0  0  0  0  0  0  0  0
    9.1086  -14.9566   22.4758 O   0  0  0  0  0  0  0  0  0  0  0  0
    5.9455  -11.6497   26.4809 C   0  0  0  0  0  0  0  0  0  0  0  0
    6.8726  -12.2729   25.4562 C   0  0  0  0  0  0  0  0  0  0  0  0
    7.4021  -13.5583   26.0487 C   0  0  2  0  0  0  0  0  0  0  0  0
    8.3945  -13.2038   27.1437 C   0  0  0  0  0  0  0  0  0  0  0  0
    8.1645  -14.3729   25.0201 C   0  0  2  0  0  0  0  0  0  0  0  0
    7.3274  -14.6590   23.8755 N   0  0  0  0  0  0  0  0  0  0  0  0
    8.6699  -15.6475   25.6375 C   0  0  0  0  0  0  0  0  0  0  0  0
    7.8692  -16.4828   26.1299 O   0  0  0  0  0  0  0  0  0  0  0  0
   11.8878  -17.4857   24.0905 C   0  0  0  0  0  0  0  0  0  0  0  0
   11.9488  -17.4916   25.5911 C   0  0  2  0  0  0  0  0  0  0  0  0
   12.4735  -18.8356   26.0478 C   0  0  0  0  0  0  0  0  0  0  0  0
   10.5552  -17.2376   26.1230 C   0  0  2  0  0  0  0  0  0  0  0  0
   10.0512  -15.9500   25.6861 N   0  0  0  0  0  0  0  0  0  0  0  0
   10.5100  -17.2769   27.5992 C   0  0  0  0  0  0  0  0  0  0  0  0
   10.2237  -18.3519   28.1748 O   0  0  0  0  0  0  0  0  0  0  0  0
   10.7731  -16.1649   28.3825 O   0  0  0  0  0  0  0  0  0  0  0  0
  2  1  1  6
  2  3  1  0
  4  2  1  0
  4  5  1  6
  6 13  1  0
  6  4  1  0
  7  6  2  0
  8  9  1  0
  9 10  1  0
 10 12  1  0
 10 11  1  1
 12 13  1  6
 12 14  1  0
 14 20  1  0
 15 14  2  0
 17 18  1  1
 17 16  1  0
 19 21  1  0
 19 17  1  0
 19 20  1  1
 21 23  1  0
 22 21  2  0
M  END
$$$$
