WSH.pdb
     RDKit          3D

 31 33  0  0  1  0  0  0  0  0999 V2000
    6.2175  -17.5895   24.2141 N   0  0  0  0  0  0  0  0  0  0  0  0
    7.0149  -16.5170   23.6658 C   0  0  1  0  0  0  0  0  0  0  0  0
    7.8540  -15.9291   24.7596 C   0  0  0  0  0  0  0  0  0  0  0  0
    7.1097  -15.0080   25.6293 C   0  0  0  0  0  0  0  0  0  0  0  0
    6.1533  -15.3843   26.5697 C   0  0  0  0  0  0  0  0  0  0  0  0
    5.6586  -14.2812   27.1542 N   0  0  0  0  0  0  0  0  0  0  0  0
    6.2406  -13.1850   26.6482 C   0  0  0  0  0  0  0  0  0  0  0  0
    6.0575  -11.8492   26.9440 C   0  0  0  0  0  0  0  0  0  0  0  0
    6.7906  -10.8995   26.2853 C   0  0  0  0  0  0  0  0  0  0  0  0
    7.6911  -11.3279   25.3434 C   0  0  0  0  0  0  0  0  0  0  0  0
    7.8783  -12.6838   25.0413 C   0  0  0  0  0  0  0  0  0  0  0  0
    7.1442  -13.6271   25.7000 C   0  0  0  0  0  0  0  0  0  0  0  0
    7.7925  -17.0329   22.5359 C   0  0  0  0  0  0  0  0  0  0  0  0
    8.4574  -18.0972   22.6324 O   0  0  0  0  0  0  0  0  0  0  0  0
    8.4550  -14.3242   19.7838 O   0  0  0  0  0  0  0  0  0  0  0  0
    8.7644  -15.5577   19.2250 C   0  0  0  0  0  0  0  0  0  0  0  0
    8.9891  -16.5637   20.3868 C   0  0  2  0  0  0  0  0  0  0  0  0
    7.8572  -16.3816   21.2487 N   0  0  0  0  0  0  0  0  0  0  0  0
   10.2914  -16.2270   20.9444 C   0  0  0  0  0  0  0  0  0  0  0  0
   10.2947  -15.6898   22.0943 O   0  0  0  0  0  0  0  0  0  0  0  0
   11.5575  -16.4358   20.3438 N   0  0  0  0  0  0  0  0  0  0  0  0
   12.7332  -16.7439   21.2009 C   0  0  1  0  0  0  0  0  0  0  0  0
   12.4855  -18.0954   21.7853 C   0  0  0  0  0  0  0  0  0  0  0  0
   12.0434  -18.1406   23.1815 C   0  0  0  0  0  0  0  0  0  0  0  0
   11.8830  -17.1422   24.1080 C   0  0  0  0  0  0  0  0  0  0  0  0
   11.4016  -17.7190   25.2296 N   0  0  0  0  0  0  0  0  0  0  0  0
   11.2689  -19.0175   25.0068 C   0  0  0  0  0  0  0  0  0  0  0  0
   11.6550  -19.2880   23.7661 N   0  0  0  0  0  0  0  0  0  0  0  0
   13.8540  -16.8886   20.2032 C   0  0  0  0  0  0  0  0  0  0  0  0
   15.1692  -16.5276   20.5274 O   0  0  0  0  0  0  0  0  0  0  0  0
   13.6981  -17.3283   19.0477 O   0  0  0  0  0  0  0  0  0  0  0  0
  2  1  1  1
  2  3  1  0
  3  4  1  0
  4  5  2  0
  4 12  1  0
  5  6  1  0
  6  7  1  0
  7  8  2  0
  9  8  1  0
 10  9  2  0
 11 12  2  0
 11 10  1  0
 12  7  1  0
 13 14  2  0
 13  2  1  0
 15 16  1  0
 17 16  1  6
 17 18  1  0
 17 19  1  0
 18 13  1  0
 19 21  1  0
 20 19  2  0
 21 22  1  0
 22 29  1  0
 23 24  1  0
 22 23  1  6
 24 28  1  0
 25 24  2  0
 25 26  1  0
 26 27  1  0
 28 27  2  0
 29 31  2  0
 29 30  1  0
M  END
$$$$
