WSH.pdb
     RDKit          3D

 31 33  0  0  1  0  0  0  0  0999 V2000
    6.4330  -17.8494   24.8804 N   0  0  0  0  0  0  0  0  0  0  0  0
    7.0656  -16.9275   23.9657 C   0  0  1  0  0  0  0  0  0  0  0  0
    8.0454  -16.0862   24.7262 C   0  0  0  0  0  0  0  0  0  0  0  0
    7.4036  -15.0615   25.5610 C   0  0  0  0  0  0  0  0  0  0  0  0
    6.5372  -15.3140   26.6223 C   0  0  0  0  0  0  0  0  0  0  0  0
    6.1190  -14.1442   27.1320 N   0  0  0  0  0  0  0  0  0  0  0  0
    6.6664  -13.1214   26.4606 C   0  0  0  0  0  0  0  0  0  0  0  0
    6.5340  -11.7579   26.6306 C   0  0  0  0  0  0  0  0  0  0  0  0
    7.2146  -10.9003   25.8091 C   0  0  0  0  0  0  0  0  0  0  0  0
    8.0125  -11.4467   24.8363 C   0  0  0  0  0  0  0  0  0  0  0  0
    8.1481  -12.8308   24.6619 C   0  0  0  0  0  0  0  0  0  0  0  0
    7.4666  -13.6819   25.4827 C   0  0  0  0  0  0  0  0  0  0  0  0
    7.6665  -17.6869   22.8658 C   0  0  0  0  0  0  0  0  0  0  0  0
    8.3754  -18.7036   23.0847 O   0  0  0  0  0  0  0  0  0  0  0  0
    6.5630  -16.7649   19.3608 O   0  0  0  0  0  0  0  0  0  0  0  0
    7.4982  -17.7694   19.1465 C   0  0  0  0  0  0  0  0  0  0  0  0
    8.3064  -17.9555   20.4597 C   0  0  2  0  0  0  0  0  0  0  0  0
    7.4975  -17.3428   21.4735 N   0  0  0  0  0  0  0  0  0  0  0  0
    9.6037  -17.3449   20.2062 C   0  0  0  0  0  0  0  0  0  0  0  0
    9.7586  -16.7904   19.0750 O   0  0  0  0  0  0  0  0  0  0  0  0
   10.7132  -17.3001   21.0861 N   0  0  0  0  0  0  0  0  0  0  0  0
   11.6450  -16.1422   21.0319 C   0  0  1  0  0  0  0  0  0  0  0  0
   10.8664  -14.9534   21.4901 C   0  0  0  0  0  0  0  0  0  0  0  0
   10.1359  -14.2061   20.4631 C   0  0  0  0  0  0  0  0  0  0  0  0
   10.0643  -14.3779   19.1043 C   0  0  0  0  0  0  0  0  0  0  0  0
    9.2077  -13.4466   18.6338 N   0  0  0  0  0  0  0  0  0  0  0  0
    8.7676  -12.7302   19.6568 C   0  0  0  0  0  0  0  0  0  0  0  0
    9.3231  -13.1807   20.7748 N   0  0  0  0  0  0  0  0  0  0  0  0
   12.6480  -16.4608   22.1113 C   0  0  0  0  0  0  0  0  0  0  0  0
   13.8518  -15.7506   22.2199 O   0  0  0  0  0  0  0  0  0  0  0  0
   12.4851  -17.3549   22.9638 O   0  0  0  0  0  0  0  0  0  0  0  0
  2  1  1  1
  2  3  1  0
  3  4  1  0
  4  5  2  0
  4 12  1  0
  5  6  1  0
  6  7  1  0
  7  8  2  0
  9  8  1  0
 10  9  2  0
 11 12  2  0
 11 10  1  0
 12  7  1  0
 13 14  2  0
 13  2  1  0
 15 16  1  0
 17 16  1  6
 17 18  1  0
 17 19  1  0
 18 13  1  0
 19 21  1  0
 20 19  2  0
 21 22  1  0
 22 29  1  0
 23 24  1  0
 22 23  1  1
 24 28  1  0
 25 24  2  0
 25 26  1  0
 26 27  1  0
 28 27  2  0
 29 31  2  0
 29 30  1  0
M  END
$$$$
