WSH.pdb
     RDKit          3D

 31 33  0  0  1  0  0  0  0  0999 V2000
    7.6321  -17.4278   20.9845 N   0  0  0  0  0  0  0  0  0  0  0  0
    8.1002  -16.4096   21.8959 C   0  0  1  0  0  0  0  0  0  0  0  0
    6.9175  -15.7780   22.5656 C   0  0  0  0  0  0  0  0  0  0  0  0
    7.2060  -14.4466   23.1160 C   0  0  0  0  0  0  0  0  0  0  0  0
    7.8825  -13.4283   22.4480 C   0  0  0  0  0  0  0  0  0  0  0  0
    7.9929  -12.3686   23.2653 N   0  0  0  0  0  0  0  0  0  0  0  0
    7.4209  -12.6315   24.4485 C   0  0  0  0  0  0  0  0  0  0  0  0
    7.2877  -11.8501   25.5786 C   0  0  0  0  0  0  0  0  0  0  0  0
    6.6434  -12.3483   26.6787 C   0  0  0  0  0  0  0  0  0  0  0  0
    6.1502  -13.6261   26.6052 C   0  0  0  0  0  0  0  0  0  0  0  0
    6.2846  -14.4214   25.4588 C   0  0  0  0  0  0  0  0  0  0  0  0
    6.9288  -13.9205   24.3648 C   0  0  0  0  0  0  0  0  0  0  0  0
    9.0571  -17.0107   22.8290 C   0  0  0  0  0  0  0  0  0  0  0  0
    8.8047  -18.0959   23.4145 O   0  0  0  0  0  0  0  0  0  0  0  0
   13.5323  -16.9273   24.6644 O   0  0  0  0  0  0  0  0  0  0  0  0
   12.5409  -16.2292   23.9865 C   0  0  0  0  0  0  0  0  0  0  0  0
   11.2316  -17.0604   24.0698 C   0  0  2  0  0  0  0  0  0  0  0  0
   10.3387  -16.4249   23.1445 N   0  0  0  0  0  0  0  0  0  0  0  0
   10.8427  -17.0313   25.4727 C   0  0  0  0  0  0  0  0  0  0  0  0
   10.4029  -15.9266   25.9168 O   0  0  0  0  0  0  0  0  0  0  0  0
   10.8996  -18.1033   26.3972 N   0  0  0  0  0  0  0  0  0  0  0  0
   10.5352  -17.8646   27.8193 C   0  0  1  0  0  0  0  0  0  0  0  0
    9.6652  -19.0070   28.2284 C   0  0  0  0  0  0  0  0  0  0  0  0
    8.4119  -19.1806   27.4896 C   0  0  0  0  0  0  0  0  0  0  0  0
    7.4288  -18.2828   27.1604 C   0  0  0  0  0  0  0  0  0  0  0  0
    6.5136  -18.9516   26.4273 N   0  0  0  0  0  0  0  0  0  0  0  0
    6.9133  -20.2082   26.3069 C   0  0  0  0  0  0  0  0  0  0  0  0
    8.0655  -20.3618   26.9473 N   0  0  0  0  0  0  0  0  0  0  0  0
   11.8497  -18.0254   28.5396 C   0  0  0  0  0  0  0  0  0  0  0  0
   11.9347  -17.9123   29.9344 O   0  0  0  0  0  0  0  0  0  0  0  0
   12.9285  -18.2646   27.9638 O   0  0  0  0  0  0  0  0  0  0  0  0
  2  1  1  6
  2  3  1  0
  3  4  1  0
  4  5  2  0
  4 12  1  0
  5  6  1  0
  6  7  1  0
  7  8  2  0
  9  8  1  0
 10  9  2  0
 11 12  2  0
 11 10  1  0
 12  7  1  0
 13 14  2  0
 13  2  1  0
 15 16  1  0
 17 16  1  1
 17 18  1  0
 17 19  1  0
 18 13  1  0
 19 21  1  0
 20 19  2  0
 21 22  1  0
 22 29  1  0
 23 24  1  0
 22 23  1  1
 24 28  1  0
 25 24  2  0
 25 26  1  0
 26 27  1  0
 28 27  2  0
 29 31  2  0
 29 30  1  0
M  END
$$$$
