WSH.pdb
     RDKit          3D

 31 33  0  0  1  0  0  0  0  0999 V2000
    6.8523  -17.3279   23.8591 N   0  0  0  0  0  0  0  0  0  0  0  0
    8.1078  -16.6593   24.1106 C   0  0  1  0  0  0  0  0  0  0  0  0
    8.1596  -16.2519   25.5519 C   0  0  0  0  0  0  0  0  0  0  0  0
    7.1854  -15.2064   25.8937 C   0  0  0  0  0  0  0  0  0  0  0  0
    5.8907  -15.4322   26.3557 C   0  0  0  0  0  0  0  0  0  0  0  0
    5.2780  -14.2503   26.5317 N   0  0  0  0  0  0  0  0  0  0  0  0
    6.1038  -13.2450   26.2093 C   0  0  0  0  0  0  0  0  0  0  0  0
    5.9137  -11.8781   26.2380 C   0  0  0  0  0  0  0  0  0  0  0  0
    6.9300  -11.0416   25.8626 C   0  0  0  0  0  0  0  0  0  0  0  0
    8.1134  -11.6119   25.4680 C   0  0  0  0  0  0  0  0  0  0  0  0
    8.3083  -12.9996   25.4379 C   0  0  0  0  0  0  0  0  0  0  0  0
    7.2916  -13.8297   25.8120 C   0  0  0  0  0  0  0  0  0  0  0  0
    9.2054  -17.5418   23.7055 C   0  0  0  0  0  0  0  0  0  0  0  0
    9.0758  -18.7936   23.7185 O   0  0  0  0  0  0  0  0  0  0  0  0
   12.6945  -15.8048   22.9258 O   0  0  0  0  0  0  0  0  0  0  0  0
   12.7369  -17.1313   22.5158 C   0  0  0  0  0  0  0  0  0  0  0  0
   11.6503  -17.9091   23.3072 C   0  0  2  0  0  0  0  0  0  0  0  0
   10.4942  -17.0611   23.2656 N   0  0  0  0  0  0  0  0  0  0  0  0
   12.2290  -18.1551   24.6206 C   0  0  0  0  0  0  0  0  0  0  0  0
   11.7568  -17.4779   25.5846 O   0  0  0  0  0  0  0  0  0  0  0  0
   13.2616  -19.0706   24.9411 N   0  0  0  0  0  0  0  0  0  0  0  0
   13.7014  -19.2136   26.3546 C   0  0  1  0  0  0  0  0  0  0  0  0
   12.7300  -20.1420   27.0058 C   0  0  0  0  0  0  0  0  0  0  0  0
   11.5421  -19.5360   27.6127 C   0  0  0  0  0  0  0  0  0  0  0  0
   11.2117  -18.2225   27.8286 C   0  0  0  0  0  0  0  0  0  0  0  0
    9.9771  -18.2112   28.3745 N   0  0  0  0  0  0  0  0  0  0  0  0
    9.5610  -19.4629   28.4906 C   0  0  0  0  0  0  0  0  0  0  0  0
   10.5018  -20.2788   28.0314 N   0  0  0  0  0  0  0  0  0  0  0  0
   15.0097  -19.9522   26.2316 C   0  0  0  0  0  0  0  0  0  0  0  0
   15.7688  -20.2830   27.3629 O   0  0  0  0  0  0  0  0  0  0  0  0
   15.4996  -20.3138   25.1445 O   0  0  0  0  0  0  0  0  0  0  0  0
  2  1  1  1
  2  3  1  0
  3  4  1  0
  4  5  2  0
  4 12  1  0
  5  6  1  0
  6  7  1  0
  7  8  2  0
  9  8  1  0
 10  9  2  0
 11 12  2  0
 11 10  1  0
 12  7  1  0
 13 14  2  0
 13  2  1  0
 15 16  1  0
 17 16  1  6
 17 18  1  0
 17 19  1  0
 18 13  1  0
 19 21  1  0
 20 19  2  0
 21 22  1  0
 22 29  1  0
 23 24  1  0
 22 23  1  1
 24 28  1  0
 25 24  2  0
 25 26  1  0
 26 27  1  0
 28 27  2  0
 29 31  2  0
 29 30  1  0
M  END
$$$$
