WSH.pdb
     RDKit          3D

 31 33  0  0  1  0  0  0  0  0999 V2000
    8.9803  -15.6226   21.2681 N   0  0  0  0  0  0  0  0  0  0  0  0
    9.0601  -15.6890   22.7089 C   0  0  1  0  0  0  0  0  0  0  0  0
    7.6787  -15.8641   23.2631 C   0  0  0  0  0  0  0  0  0  0  0  0
    7.0253  -14.5928   23.6027 C   0  0  0  0  0  0  0  0  0  0  0  0
    6.1858  -13.8684   22.7594 C   0  0  0  0  0  0  0  0  0  0  0  0
    5.7999  -12.7457   23.3871 N   0  0  0  0  0  0  0  0  0  0  0  0
    6.3424  -12.6867   24.6113 C   0  0  0  0  0  0  0  0  0  0  0  0
    6.2249  -11.7350   25.6042 C   0  0  0  0  0  0  0  0  0  0  0  0
    6.8811  -11.9070   26.7930 C   0  0  0  0  0  0  0  0  0  0  0  0
    7.6396  -13.0396   26.9453 C   0  0  0  0  0  0  0  0  0  0  0  0
    7.7605  -14.0070   25.9383 C   0  0  0  0  0  0  0  0  0  0  0  0
    7.1052  -13.8306   24.7542 C   0  0  0  0  0  0  0  0  0  0  0  0
    9.9883  -16.7591   23.0845 C   0  0  0  0  0  0  0  0  0  0  0  0
   10.3625  -17.6224   22.2486 O   0  0  0  0  0  0  0  0  0  0  0  0
   13.1466  -17.0182   24.4412 O   0  0  0  0  0  0  0  0  0  0  0  0
   12.4962  -18.2162   24.1736 C   0  0  0  0  0  0  0  0  0  0  0  0
   11.0957  -18.1571   24.8423 C   0  0  2  0  0  0  0  0  0  0  0  0
   10.5399  -16.9072   24.4108 N   0  0  0  0  0  0  0  0  0  0  0  0
   11.3417  -18.3007   26.2703 C   0  0  0  0  0  0  0  0  0  0  0  0
   10.9257  -17.3610   27.0151 O   0  0  0  0  0  0  0  0  0  0  0  0
   11.9937  -19.3773   26.9206 N   0  0  0  0  0  0  0  0  0  0  0  0
   11.8385  -19.5479   28.3899 C   0  0  1  0  0  0  0  0  0  0  0  0
   10.6724  -20.4594   28.5869 C   0  0  0  0  0  0  0  0  0  0  0  0
    9.3450  -19.9026   28.3133 C   0  0  0  0  0  0  0  0  0  0  0  0
    8.9603  -18.6519   27.9026 C   0  0  0  0  0  0  0  0  0  0  0  0
    7.6193  -18.6821   27.7506 N   0  0  0  0  0  0  0  0  0  0  0  0
    7.1926  -19.8986   28.0530 C   0  0  0  0  0  0  0  0  0  0  0  0
    8.2305  -20.6510   28.3966 N   0  0  0  0  0  0  0  0  0  0  0  0
   13.0757  -20.3176   28.7763 C   0  0  0  0  0  0  0  0  0  0  0  0
   14.0368  -20.6790   27.8218 O   0  0  0  0  0  0  0  0  0  0  0  0
   13.3288  -20.6794   29.9416 O   0  0  0  0  0  0  0  0  0  0  0  0
  2  1  1  6
  2  3  1  0
  3  4  1  0
  4  5  2  0
  4 12  1  0
  5  6  1  0
  6  7  1  0
  7  8  2  0
  9  8  1  0
 10  9  2  0
 11 12  2  0
 11 10  1  0
 12  7  1  0
 13 14  2  0
 13  2  1  0
 15 16  1  0
 17 16  1  6
 17 18  1  0
 17 19  1  0
 18 13  1  0
 19 21  1  0
 20 19  2  0
 21 22  1  0
 22 29  1  0
 23 24  1  0
 22 23  1  6
 24 28  1  0
 25 24  2  0
 25 26  1  0
 26 27  1  0
 28 27  2  0
 29 31  2  0
 29 30  1  0
M  END
$$$$
