WSH.pdb
     RDKit          3D

 31 33  0  0  1  0  0  0  0  0999 V2000
    6.3828  -17.1651   23.5944 N   0  0  0  0  0  0  0  0  0  0  0  0
    7.6972  -16.5876   23.7544 C   0  0  1  0  0  0  0  0  0  0  0  0
    7.8401  -16.0908   25.1612 C   0  0  0  0  0  0  0  0  0  0  0  0
    6.9562  -14.9580   25.4681 C   0  0  0  0  0  0  0  0  0  0  0  0
    5.5912  -15.0497   25.7306 C   0  0  0  0  0  0  0  0  0  0  0  0
    5.1023  -13.8158   25.9349 N   0  0  0  0  0  0  0  0  0  0  0  0
    6.0779  -12.9037   25.8216 C   0  0  0  0  0  0  0  0  0  0  0  0
    6.0472  -11.5300   25.9541 C   0  0  0  0  0  0  0  0  0  0  0  0
    7.1977  -10.8053   25.7980 C   0  0  0  0  0  0  0  0  0  0  0  0
    8.3504  -11.4914   25.5118 C   0  0  0  0  0  0  0  0  0  0  0  0
    8.3837  -12.8861   25.3765 C   0  0  0  0  0  0  0  0  0  0  0  0
    7.2337  -13.6044   25.5320 C   0  0  0  0  0  0  0  0  0  0  0  0
    8.7030  -17.5830   23.3736 C   0  0  0  0  0  0  0  0  0  0  0  0
    8.5306  -18.8078   23.6063 O   0  0  0  0  0  0  0  0  0  0  0  0
   12.0287  -16.0898   22.0007 O   0  0  0  0  0  0  0  0  0  0  0  0
   12.1460  -17.4685   21.8773 C   0  0  0  0  0  0  0  0  0  0  0  0
   11.0802  -18.1214   22.7992 C   0  0  2  0  0  0  0  0  0  0  0  0
    9.9435  -17.2508   22.7131 N   0  0  0  0  0  0  0  0  0  0  0  0
   11.7146  -18.2347   24.1050 C   0  0  0  0  0  0  0  0  0  0  0  0
   11.8053  -17.1678   24.7864 O   0  0  0  0  0  0  0  0  0  0  0  0
   12.2405  -19.4080   24.7000 N   0  0  0  0  0  0  0  0  0  0  0  0
   12.9254  -19.3178   26.0171 C   0  0  1  0  0  0  0  0  0  0  0  0
   12.3571  -20.4093   26.8628 C   0  0  0  0  0  0  0  0  0  0  0  0
   11.0325  -20.1737   27.4431 C   0  0  0  0  0  0  0  0  0  0  0  0
   10.2750  -19.0333   27.5249 C   0  0  0  0  0  0  0  0  0  0  0  0
    9.1087  -19.3761   28.1121 N   0  0  0  0  0  0  0  0  0  0  0  0
    9.1425  -20.6722   28.3811 C   0  0  0  0  0  0  0  0  0  0  0  0
   10.3055  -21.1700   27.9799 N   0  0  0  0  0  0  0  0  0  0  0  0
   14.3459  -19.7016   25.6898 C   0  0  0  0  0  0  0  0  0  0  0  0
   15.3239  -19.7966   26.6898 O   0  0  0  0  0  0  0  0  0  0  0  0
   14.7448  -19.9563   24.5371 O   0  0  0  0  0  0  0  0  0  0  0  0
  2  1  1  1
  2  3  1  0
  3  4  1  0
  4  5  2  0
  4 12  1  0
  5  6  1  0
  6  7  1  0
  7  8  2  0
  9  8  1  0
 10  9  2  0
 11 12  2  0
 11 10  1  0
 12  7  1  0
 13 14  2  0
 13  2  1  0
 15 16  1  0
 17 16  1  6
 17 18  1  0
 17 19  1  0
 18 13  1  0
 19 21  1  0
 20 19  2  0
 21 22  1  0
 22 29  1  0
 23 24  1  0
 22 23  1  1
 24 28  1  0
 25 24  2  0
 25 26  1  0
 26 27  1  0
 28 27  2  0
 29 31  2  0
 29 30  1  0
M  END
$$$$
