WSH.pdb
     RDKit          3D

 31 33  0  0  1  0  0  0  0  0999 V2000
    6.0261  -17.2934   23.7885 N   0  0  0  0  0  0  0  0  0  0  0  0
    7.0907  -16.3748   23.4576 C   0  0  1  0  0  0  0  0  0  0  0  0
    7.8540  -16.0481   24.7053 C   0  0  0  0  0  0  0  0  0  0  0  0
    7.1532  -15.0995   25.5815 C   0  0  0  0  0  0  0  0  0  0  0  0
    6.1564  -15.4330   26.4957 C   0  0  0  0  0  0  0  0  0  0  0  0
    5.7218  -14.3129   27.0955 N   0  0  0  0  0  0  0  0  0  0  0  0
    6.3827  -13.2461   26.6246 C   0  0  0  0  0  0  0  0  0  0  0  0
    6.2796  -11.9078   26.9466 C   0  0  0  0  0  0  0  0  0  0  0  0
    7.0847  -10.9936   26.3226 C   0  0  0  0  0  0  0  0  0  0  0  0
    7.9743  -11.4592   25.3881 C   0  0  0  0  0  0  0  0  0  0  0  0
    8.0803  -12.8177   25.0594 C   0  0  0  0  0  0  0  0  0  0  0  0
    7.2745  -13.7254   25.6835 C   0  0  0  0  0  0  0  0  0  0  0  0
    7.9137  -16.9635   22.3976 C   0  0  0  0  0  0  0  0  0  0  0  0
    8.3443  -18.1430   22.4841 O   0  0  0  0  0  0  0  0  0  0  0  0
    9.2668  -14.4758   19.7466 O   0  0  0  0  0  0  0  0  0  0  0  0
    9.4037  -15.7345   19.1749 C   0  0  0  0  0  0  0  0  0  0  0  0
    9.2852  -16.7882   20.3098 C   0  0  2  0  0  0  0  0  0  0  0  0
    8.2876  -16.2586   21.1940 N   0  0  0  0  0  0  0  0  0  0  0  0
   10.6291  -16.9249   20.8534 C   0  0  0  0  0  0  0  0  0  0  0  0
   10.9265  -16.1688   21.8285 O   0  0  0  0  0  0  0  0  0  0  0  0
   11.6420  -17.8126   20.4138 N   0  0  0  0  0  0  0  0  0  0  0  0
   12.9784  -17.7798   21.0655 C   0  0  1  0  0  0  0  0  0  0  0  0
   13.3048  -19.1911   21.4277 C   0  0  0  0  0  0  0  0  0  0  0  0
   12.6363  -19.7414   22.6097 C   0  0  0  0  0  0  0  0  0  0  0  0
   11.9908  -19.1220   23.6493 C   0  0  0  0  0  0  0  0  0  0  0  0
   11.5076  -20.0959   24.4495 N   0  0  0  0  0  0  0  0  0  0  0  0
   11.8388  -21.2670   23.9276 C   0  0  0  0  0  0  0  0  0  0  0  0
   12.5248  -21.0669   22.8093 N   0  0  0  0  0  0  0  0  0  0  0  0
   13.8980  -17.3851   19.9381 C   0  0  0  0  0  0  0  0  0  0  0  0
   13.4185  -17.2174   18.6315 O   0  0  0  0  0  0  0  0  0  0  0  0
   15.1195  -17.1841   20.0808 O   0  0  0  0  0  0  0  0  0  0  0  0
  2  1  1  1
  2  3  1  0
  3  4  1  0
  4  5  2  0
  4 12  1  0
  5  6  1  0
  6  7  1  0
  7  8  2  0
  9  8  1  0
 10  9  2  0
 11 12  2  0
 11 10  1  0
 12  7  1  0
 13 14  2  0
 13  2  1  0
 15 16  1  0
 17 16  1  6
 17 18  1  0
 17 19  1  0
 18 13  1  0
 19 21  1  0
 20 19  2  0
 21 22  1  0
 22 29  1  0
 23 24  1  0
 22 23  1  6
 24 28  1  0
 25 24  2  0
 25 26  1  0
 26 27  1  0
 28 27  2  0
 29 31  2  0
 29 30  1  0
M  END
$$$$
