DAD.pdb
     RDKit          3D

 22 21  0  0  1  0  0  0  0  0999 V2000
   17.2699  -12.5281  -14.4096 N   0  0  0  0  0  0  0  0  0  0  0  0
   17.3064  -11.4235  -15.3141 C   0  0  1  0  0  0  0  0  0  0  0  0
   15.9754  -11.3295  -16.0302 C   0  0  0  0  0  0  0  0  0  0  0  0
   15.6726  -12.5920  -16.7375 C   0  0  0  0  0  0  0  0  0  0  0  0
   15.3357  -13.5927  -16.0727 O   0  0  0  0  0  0  0  0  0  0  0  0
   17.6188  -10.1156  -14.6810 C   0  0  0  0  0  0  0  0  0  0  0  0
   17.6721   -9.1097  -15.4427 O   0  0  0  0  0  0  0  0  0  0  0  0
   15.7744  -12.6217  -18.1339 O   0  0  0  0  0  0  0  0  0  0  0  0
   18.1146   -8.6459  -11.2265 C   0  0  0  0  0  0  0  0  0  0  0  0
   18.1632   -8.6378  -12.7126 C   0  0  2  0  0  0  0  0  0  0  0  0
   17.8570   -9.9086  -13.3245 N   0  0  0  0  0  0  0  0  0  0  0  0
   19.4807   -8.1701  -13.1842 C   0  0  0  0  0  0  0  0  0  0  0  0
   20.3896   -9.0256  -13.3922 O   0  0  0  0  0  0  0  0  0  0  0  0
   19.7807   -6.8100  -13.4162 N   0  0  0  0  0  0  0  0  0  0  0  0
   21.1197   -6.3931  -13.8979 C   0  0  1  0  0  0  0  0  0  0  0  0
   20.9973   -5.7943  -15.2640 C   0  0  0  0  0  0  0  0  0  0  0  0
   22.2800   -5.2611  -15.7437 C   0  0  0  0  0  0  0  0  0  0  0  0
   22.5943   -4.0578  -15.7443 O   0  0  0  0  0  0  0  0  0  0  0  0
   21.5982   -5.3534  -12.9554 C   0  0  0  0  0  0  0  0  0  0  0  0
   20.7298   -4.5744  -12.4343 O   0  0  0  0  0  0  0  0  0  0  0  0
   23.2550   -6.1344  -16.2479 O   0  0  0  0  0  0  0  0  0  0  0  0
   22.8915   -5.1260  -12.5690 O   0  0  0  0  0  0  0  0  0  0  0  0
  2  6  1  0
  2  1  1  1
  3  2  1  0
  3  4  1  0
  4  5  2  0
  6 11  1  0
  7  6  2  0
  8  4  1  0
 10 11  1  0
 10 12  1  0
 10  9  1  1
 12 13  2  0
 12 14  1  0
 14 15  1  0
 15 19  1  0
 16 17  1  0
 15 16  1  6
 17 18  2  0
 19 20  2  0
 19 22  1  0
 21 17  1  0
M  END
$$$$
