DAD.pdb
     RDKit          3D

 22 21  0  0  1  0  0  0  0  0999 V2000
   18.8259  -13.1728  -16.3264 N   0  0  0  0  0  0  0  0  0  0  0  0
   19.0268  -11.8683  -16.8718 C   0  0  1  0  0  0  0  0  0  0  0  0
   17.6782  -11.2362  -17.1455 C   0  0  0  0  0  0  0  0  0  0  0  0
   16.9205  -12.0301  -18.1360 C   0  0  0  0  0  0  0  0  0  0  0  0
   15.7568  -12.3878  -17.8628 O   0  0  0  0  0  0  0  0  0  0  0  0
   19.8335  -10.9582  -16.0174 C   0  0  0  0  0  0  0  0  0  0  0  0
   19.2381  -10.4030  -15.0518 O   0  0  0  0  0  0  0  0  0  0  0  0
   17.5367  -12.3548  -19.3510 O   0  0  0  0  0  0  0  0  0  0  0  0
   23.4259   -9.8651  -15.5660 C   0  0  0  0  0  0  0  0  0  0  0  0
   21.9541   -9.7483  -15.3897 C   0  0  2  0  0  0  0  0  0  0  0  0
   21.1842  -10.6678  -16.1927 N   0  0  0  0  0  0  0  0  0  0  0  0
   21.5089   -8.3678  -15.6605 C   0  0  0  0  0  0  0  0  0  0  0  0
   21.2594   -8.0340  -16.8553 O   0  0  0  0  0  0  0  0  0  0  0  0
   21.3465   -7.3955  -14.6496 N   0  0  0  0  0  0  0  0  0  0  0  0
   21.0262   -5.9875  -14.9865 C   0  0  1  0  0  0  0  0  0  0  0  0
   19.5944   -5.7057  -14.6546 C   0  0  0  0  0  0  0  0  0  0  0  0
   19.2357   -4.3066  -14.9263 C   0  0  0  0  0  0  0  0  0  0  0  0
   19.8546   -3.5504  -15.6957 O   0  0  0  0  0  0  0  0  0  0  0  0
   21.8957   -5.1445  -14.1313 C   0  0  0  0  0  0  0  0  0  0  0  0
   21.8683   -3.8802  -14.3142 O   0  0  0  0  0  0  0  0  0  0  0  0
   18.1206   -3.7359  -14.2952 O   0  0  0  0  0  0  0  0  0  0  0  0
   22.7434   -5.5724  -13.1454 O   0  0  0  0  0  0  0  0  0  0  0  0
  2  6  1  0
  2  1  1  1
  3  2  1  0
  3  4  1  0
  4  5  2  0
  6 11  1  0
  7  6  2  0
  8  4  1  0
 10 11  1  0
 10 12  1  0
 10  9  1  6
 12 13  2  0
 12 14  1  0
 14 15  1  0
 15 19  1  0
 16 17  1  0
 15 16  1  1
 17 18  2  0
 19 20  2  0
 19 22  1  0
 21 17  1  0
M  END
$$$$
