DAD.pdb
     RDKit          3D

 22 21  0  0  1  0  0  0  0  0999 V2000
   16.5015  -11.1729  -16.1655 N   0  0  0  0  0  0  0  0  0  0  0  0
   17.7560  -11.0609  -15.4923 C   0  0  1  0  0  0  0  0  0  0  0  0
   18.8660  -11.4230  -16.4567 C   0  0  0  0  0  0  0  0  0  0  0  0
   18.8203  -12.8628  -16.7890 C   0  0  0  0  0  0  0  0  0  0  0  0
   19.3174  -13.2518  -17.8653 O   0  0  0  0  0  0  0  0  0  0  0  0
   18.0276   -9.7212  -14.9088 C   0  0  0  0  0  0  0  0  0  0  0  0
   17.8986   -8.7264  -15.6761 O   0  0  0  0  0  0  0  0  0  0  0  0
   18.2188  -13.7438  -15.8817 O   0  0  0  0  0  0  0  0  0  0  0  0
   18.7026   -8.1697  -11.5248 C   0  0  0  0  0  0  0  0  0  0  0  0
   18.6010   -8.1676  -13.0083 C   0  0  2  0  0  0  0  0  0  0  0  0
   18.4111   -9.4733  -13.5931 N   0  0  0  0  0  0  0  0  0  0  0  0
   19.7888   -7.5289  -13.6069 C   0  0  0  0  0  0  0  0  0  0  0  0
   20.6014   -8.2482  -14.2578 O   0  0  0  0  0  0  0  0  0  0  0  0
   20.0666   -6.1495  -13.4899 N   0  0  0  0  0  0  0  0  0  0  0  0
   21.2345   -5.5435  -14.1733 C   0  0  1  0  0  0  0  0  0  0  0  0
   21.0641   -5.6597  -15.6557 C   0  0  0  0  0  0  0  0  0  0  0  0
   22.1406   -4.9746  -16.3848 C   0  0  0  0  0  0  0  0  0  0  0  0
   21.9741   -4.0299  -17.1762 O   0  0  0  0  0  0  0  0  0  0  0  0
   21.2407   -4.1091  -13.7984 C   0  0  0  0  0  0  0  0  0  0  0  0
   22.3028   -3.4366  -14.0270 O   0  0  0  0  0  0  0  0  0  0  0  0
   23.4719   -5.3799  -16.2085 O   0  0  0  0  0  0  0  0  0  0  0  0
   20.2175   -3.4048  -13.2235 O   0  0  0  0  0  0  0  0  0  0  0  0
  2  6  1  0
  2  1  1  6
  3  2  1  0
  3  4  1  0
  4  5  2  0
  6 11  1  0
  7  6  2  0
  8  4  1  0
 10 11  1  0
 10 12  1  0
 10  9  1  1
 12 13  2  0
 12 14  1  0
 14 15  1  0
 15 19  1  0
 16 17  1  0
 15 16  1  6
 17 18  2  0
 19 20  2  0
 19 22  1  0
 21 17  1  0
M  END
$$$$
