DAD.pdb
     RDKit          3D

 22 21  0  0  1  0  0  0  0  0999 V2000
   13.5805  -10.8321  -11.2425 N   0  0  0  0  0  0  0  0  0  0  0  0
   14.8317  -10.5956  -10.5959 C   0  0  1  0  0  0  0  0  0  0  0  0
   15.9003  -11.4290  -11.2717 C   0  0  0  0  0  0  0  0  0  0  0  0
   15.5664  -12.8672  -11.1966 C   0  0  0  0  0  0  0  0  0  0  0  0
   15.2730  -13.3636  -10.0900 O   0  0  0  0  0  0  0  0  0  0  0  0
   15.2574   -9.1718  -10.5743 C   0  0  0  0  0  0  0  0  0  0  0  0
   15.3249   -8.5780  -11.6869 O   0  0  0  0  0  0  0  0  0  0  0  0
   15.5907  -13.6258  -12.3735 O   0  0  0  0  0  0  0  0  0  0  0  0
   15.8245   -6.4057   -8.0712 C   0  0  0  0  0  0  0  0  0  0  0  0
   15.9403   -7.0429   -9.4097 C   0  0  2  0  0  0  0  0  0  0  0  0
   15.5870   -8.4420   -9.4347 N   0  0  0  0  0  0  0  0  0  0  0  0
   17.3033   -6.8705   -9.9480 C   0  0  0  0  0  0  0  0  0  0  0  0
   18.2617   -7.4665   -9.3757 O   0  0  0  0  0  0  0  0  0  0  0  0
   17.5942   -6.0705  -11.0745 N   0  0  0  0  0  0  0  0  0  0  0  0
   18.9582   -6.0333  -11.6549 C   0  0  1  0  0  0  0  0  0  0  0  0
   19.3015   -7.3778  -12.2155 C   0  0  0  0  0  0  0  0  0  0  0  0
   20.6051   -7.3701  -12.8941 C   0  0  0  0  0  0  0  0  0  0  0  0
   20.8413   -7.9155  -13.9865 O   0  0  0  0  0  0  0  0  0  0  0  0
   18.9158   -5.0454  -12.7597 C   0  0  0  0  0  0  0  0  0  0  0  0
   19.9903   -4.4113  -13.0354 O   0  0  0  0  0  0  0  0  0  0  0  0
   21.6952   -6.7118  -12.3060 O   0  0  0  0  0  0  0  0  0  0  0  0
   17.8354   -4.7266  -13.5371 O   0  0  0  0  0  0  0  0  0  0  0  0
  2  6  1  0
  2  1  1  6
  3  2  1  0
  3  4  1  0
  4  5  2  0
  6 11  1  0
  7  6  2  0
  8  4  1  0
 10 11  1  0
 10 12  1  0
 10  9  1  1
 12 13  2  0
 12 14  1  0
 14 15  1  0
 15 19  1  0
 16 17  1  0
 15 16  1  6
 17 18  2  0
 19 20  2  0
 19 22  1  0
 21 17  1  0
M  END
$$$$
