DAD.pdb
     RDKit          3D

 22 21  0  0  1  0  0  0  0  0999 V2000
   14.4554  -10.6113  -13.1943 N   0  0  0  0  0  0  0  0  0  0  0  0
   15.7392  -10.5212  -12.5753 C   0  0  1  0  0  0  0  0  0  0  0  0
   16.7558  -11.2307  -13.4449 C   0  0  0  0  0  0  0  0  0  0  0  0
   16.4906  -12.6848  -13.4781 C   0  0  0  0  0  0  0  0  0  0  0  0
   16.2707  -13.2847  -12.4062 O   0  0  0  0  0  0  0  0  0  0  0  0
   16.2014   -9.1339  -12.3088 C   0  0  0  0  0  0  0  0  0  0  0  0
   16.2802   -8.3567  -13.3011 O   0  0  0  0  0  0  0  0  0  0  0  0
   16.4950  -13.3414  -14.7150 O   0  0  0  0  0  0  0  0  0  0  0  0
   16.8199   -6.8364   -9.3888 C   0  0  0  0  0  0  0  0  0  0  0  0
   16.9803   -7.2688  -10.8024 C   0  0  2  0  0  0  0  0  0  0  0  0
   16.5537   -8.6229  -11.0621 N   0  0  0  0  0  0  0  0  0  0  0  0
   18.3802   -7.1026  -11.2381 C   0  0  0  0  0  0  0  0  0  0  0  0
   19.1445   -8.1110  -11.2225 O   0  0  0  0  0  0  0  0  0  0  0  0
   18.9133   -5.8697  -11.6734 N   0  0  0  0  0  0  0  0  0  0  0  0
   20.2302   -5.8023  -12.3517 C   0  0  1  0  0  0  0  0  0  0  0  0
   20.1835   -6.5988  -13.6178 C   0  0  0  0  0  0  0  0  0  0  0  0
   21.4337   -6.4841  -14.3818 C   0  0  0  0  0  0  0  0  0  0  0  0
   22.5477   -6.2330  -13.8891 O   0  0  0  0  0  0  0  0  0  0  0  0
   20.4559   -4.3756  -12.6861 C   0  0  0  0  0  0  0  0  0  0  0  0
   19.4319   -3.6472  -12.9174 O   0  0  0  0  0  0  0  0  0  0  0  0
   21.4213   -6.6627  -15.7731 O   0  0  0  0  0  0  0  0  0  0  0  0
   21.6608   -3.7328  -12.7773 O   0  0  0  0  0  0  0  0  0  0  0  0
  2  6  1  0
  2  1  1  6
  3  2  1  0
  3  4  1  0
  4  5  2  0
  6 11  1  0
  7  6  2  0
  8  4  1  0
 10 11  1  0
 10 12  1  0
 10  9  1  1
 12 13  2  0
 12 14  1  0
 14 15  1  0
 15 19  1  0
 16 17  1  0
 15 16  1  6
 17 18  2  0
 19 20  2  0
 19 22  1  0
 21 17  1  0
M  END
$$$$
