DAD.pdb
     RDKit          3D

 22 21  0  0  1  0  0  0  0  0999 V2000
   17.2020  -12.0319  -14.2008 N   0  0  0  0  0  0  0  0  0  0  0  0
   16.7795  -10.8983  -14.9597 C   0  0  1  0  0  0  0  0  0  0  0  0
   15.2979  -11.0228  -15.2472 C   0  0  0  0  0  0  0  0  0  0  0  0
   15.0094  -12.2819  -15.9664 C   0  0  0  0  0  0  0  0  0  0  0  0
   15.4436  -12.4294  -17.1268 O   0  0  0  0  0  0  0  0  0  0  0  0
   17.0476   -9.5867  -14.3140 C   0  0  0  0  0  0  0  0  0  0  0  0
   16.7170   -8.5530  -14.9599 O   0  0  0  0  0  0  0  0  0  0  0  0
   14.2564  -13.2692  -15.3187 O   0  0  0  0  0  0  0  0  0  0  0  0
   17.7738   -8.0798  -10.9918 C   0  0  0  0  0  0  0  0  0  0  0  0
   17.9531   -8.1295  -12.4670 C   0  0  2  0  0  0  0  0  0  0  0  0
   17.6309   -9.4041  -13.0626 N   0  0  0  0  0  0  0  0  0  0  0  0
   19.3312   -7.7503  -12.8333 C   0  0  0  0  0  0  0  0  0  0  0  0
   20.1837   -8.6668  -13.0195 O   0  0  0  0  0  0  0  0  0  0  0  0
   19.7495   -6.4105  -12.9872 N   0  0  0  0  0  0  0  0  0  0  0  0
   21.1092   -6.0853  -13.4813 C   0  0  1  0  0  0  0  0  0  0  0  0
   21.3617   -6.8081  -14.7672 C   0  0  0  0  0  0  0  0  0  0  0  0
   22.6688   -6.4601  -15.3420 C   0  0  0  0  0  0  0  0  0  0  0  0
   23.5282   -5.7579  -14.7807 O   0  0  0  0  0  0  0  0  0  0  0  0
   21.1233   -4.6249  -13.7367 C   0  0  0  0  0  0  0  0  0  0  0  0
   20.0835   -4.1005  -14.2624 O   0  0  0  0  0  0  0  0  0  0  0  0
   23.0196   -6.9309  -16.6159 O   0  0  0  0  0  0  0  0  0  0  0  0
   22.1435   -3.7528  -13.4683 O   0  0  0  0  0  0  0  0  0  0  0  0
  2  6  1  0
  2  1  1  1
  3  2  1  0
  3  4  1  0
  4  5  2  0
  6 11  1  0
  7  6  2  0
  8  4  1  0
 10 11  1  0
 10 12  1  0
 10  9  1  1
 12 13  2  0
 12 14  1  0
 14 15  1  0
 15 19  1  0
 16 17  1  0
 15 16  1  6
 17 18  2  0
 19 20  2  0
 19 22  1  0
 21 17  1  0
M  END
$$$$
