DAD.pdb
     RDKit          3D

 22 21  0  0  1  0  0  0  0  0999 V2000
   17.3484  -11.4635  -15.9995 N   0  0  0  0  0  0  0  0  0  0  0  0
   18.3780  -10.7257  -16.6590 C   0  0  1  0  0  0  0  0  0  0  0  0
   17.7420   -9.7542  -17.6310 C   0  0  0  0  0  0  0  0  0  0  0  0
   16.9149  -10.4739  -18.6228 C   0  0  0  0  0  0  0  0  0  0  0  0
   17.4189  -11.4230  -19.2568 O   0  0  0  0  0  0  0  0  0  0  0  0
   19.2893   -9.9854  -15.7476 C   0  0  0  0  0  0  0  0  0  0  0  0
   18.7578   -9.3810  -14.7744 O   0  0  0  0  0  0  0  0  0  0  0  0
   15.5898  -10.0646  -18.8173 O   0  0  0  0  0  0  0  0  0  0  0  0
   22.9961   -9.4245  -15.2151 C   0  0  0  0  0  0  0  0  0  0  0  0
   21.5500   -9.1349  -15.0260 C   0  0  2  0  0  0  0  0  0  0  0  0
   20.6735   -9.9028  -15.8775 N   0  0  0  0  0  0  0  0  0  0  0  0
   21.2819   -7.6962  -15.2146 C   0  0  0  0  0  0  0  0  0  0  0  0
   20.5845   -7.3338  -16.2063 O   0  0  0  0  0  0  0  0  0  0  0  0
   21.7664   -6.6985  -14.3410 N   0  0  0  0  0  0  0  0  0  0  0  0
   21.5181   -5.2612  -14.6080 C   0  0  1  0  0  0  0  0  0  0  0  0
   20.0565   -4.9707  -14.4701 C   0  0  0  0  0  0  0  0  0  0  0  0
   19.7698   -3.5354  -14.6024 C   0  0  0  0  0  0  0  0  0  0  0  0
   20.0318   -2.6757  -13.7427 O   0  0  0  0  0  0  0  0  0  0  0  0
   22.2607   -4.5082  -13.5689 C   0  0  0  0  0  0  0  0  0  0  0  0
   22.5131   -5.1026  -12.4664 O   0  0  0  0  0  0  0  0  0  0  0  0
   19.1558   -3.0498  -15.7664 O   0  0  0  0  0  0  0  0  0  0  0  0
   22.7187   -3.2213  -13.6552 O   0  0  0  0  0  0  0  0  0  0  0  0
  2  6  1  0
  2  1  1  1
  3  2  1  0
  3  4  1  0
  4  5  2  0
  6 11  1  0
  7  6  2  0
  8  4  1  0
 10 11  1  0
 10 12  1  0
 10  9  1  6
 12 13  2  0
 12 14  1  0
 14 15  1  0
 15 19  1  0
 16 17  1  0
 15 16  1  1
 17 18  2  0
 19 20  2  0
 19 22  1  0
 21 17  1  0
M  END
$$$$
