DAD.pdb
     RDKit          3D

 22 21  0  0  1  0  0  0  0  0999 V2000
   23.7788  -21.0753  -12.9322 N   0  0  0  0  0  0  0  0  0  0  0  0
   23.9129  -21.3400  -14.3291 C   0  0  1  0  0  0  0  0  0  0  0  0
   22.8653  -20.5478  -15.0829 C   0  0  0  0  0  0  0  0  0  0  0  0
   21.5065  -20.9177  -14.6327 C   0  0  0  0  0  0  0  0  0  0  0  0
   20.7064  -20.0138  -14.3168 O   0  0  0  0  0  0  0  0  0  0  0  0
   25.2561  -21.0391  -14.8896 C   0  0  0  0  0  0  0  0  0  0  0  0
   25.6689  -19.8507  -14.7790 O   0  0  0  0  0  0  0  0  0  0  0  0
   21.1627  -22.2740  -14.5759 O   0  0  0  0  0  0  0  0  0  0  0  0
   28.3182  -22.8415  -16.0914 C   0  0  0  0  0  0  0  0  0  0  0  0
   27.4088  -21.6662  -16.0418 C   0  0  2  0  0  0  0  0  0  0  0  0
   26.0927  -21.9541  -15.5241 N   0  0  0  0  0  0  0  0  0  0  0  0
   27.2876  -21.0497  -17.3769 C   0  0  0  0  0  0  0  0  0  0  0  0
   26.3749  -21.4572  -18.1529 O   0  0  0  0  0  0  0  0  0  0  0  0
   28.1423  -20.0235  -17.8352 N   0  0  0  0  0  0  0  0  0  0  0  0
   27.9637  -19.4218  -19.1786 C   0  0  1  0  0  0  0  0  0  0  0  0
   28.2041  -17.9466  -19.1034 C   0  0  0  0  0  0  0  0  0  0  0  0
   27.0202  -17.2242  -18.6169 C   0  0  0  0  0  0  0  0  0  0  0  0
   25.9080  -17.7404  -18.4090 O   0  0  0  0  0  0  0  0  0  0  0  0
   28.9928  -20.0354  -20.0519 C   0  0  0  0  0  0  0  0  0  0  0  0
   28.8655  -19.8936  -21.3154 O   0  0  0  0  0  0  0  0  0  0  0  0
   27.1004  -15.8489  -18.3529 O   0  0  0  0  0  0  0  0  0  0  0  0
   30.0889  -20.7518  -19.6534 O   0  0  0  0  0  0  0  0  0  0  0  0
  2  6  1  0
  2  1  1  1
  3  2  1  0
  3  4  1  0
  4  5  2  0
  6 11  1  0
  7  6  2  0
  8  4  1  0
 10 11  1  0
 10 12  1  0
 10  9  1  6
 12 13  2  0
 12 14  1  0
 14 15  1  0
 15 19  1  0
 16 17  1  0
 15 16  1  1
 17 18  2  0
 19 20  2  0
 19 22  1  0
 21 17  1  0
M  END
$$$$
