DAD.pdb
     RDKit          3D

 22 21  0  0  1  0  0  0  0  0999 V2000
   16.5450  -11.1614  -15.0607 N   0  0  0  0  0  0  0  0  0  0  0  0
   17.4811  -10.5587  -15.9552 C   0  0  1  0  0  0  0  0  0  0  0  0
   16.7332   -9.6626  -16.9199 C   0  0  0  0  0  0  0  0  0  0  0  0
   15.8560  -10.4616  -17.8020 C   0  0  0  0  0  0  0  0  0  0  0  0
   16.1701  -11.6412  -18.0605 O   0  0  0  0  0  0  0  0  0  0  0  0
   18.5572   -9.7781  -15.2907 C   0  0  0  0  0  0  0  0  0  0  0  0
   18.2135   -9.0316  -14.3318 O   0  0  0  0  0  0  0  0  0  0  0  0
   14.6990   -9.8655  -18.3187 O   0  0  0  0  0  0  0  0  0  0  0  0
   22.3306   -9.5547  -15.2849 C   0  0  0  0  0  0  0  0  0  0  0  0
   20.9583   -9.0896  -14.9510 C   0  0  2  0  0  0  0  0  0  0  0  0
   19.9061   -9.8009  -15.6365 N   0  0  0  0  0  0  0  0  0  0  0  0
   20.8249   -7.6434  -15.2121 C   0  0  0  0  0  0  0  0  0  0  0  0
   20.4264   -7.2669  -16.3525 O   0  0  0  0  0  0  0  0  0  0  0  0
   21.1207   -6.6535  -14.2497 N   0  0  0  0  0  0  0  0  0  0  0  0
   21.0001   -5.2115  -14.5733 C   0  0  1  0  0  0  0  0  0  0  0  0
   19.8682   -4.6161  -13.7961 C   0  0  0  0  0  0  0  0  0  0  0  0
   19.7469   -3.1700  -14.0285 C   0  0  0  0  0  0  0  0  0  0  0  0
   20.3132   -2.2915  -13.3546 O   0  0  0  0  0  0  0  0  0  0  0  0
   22.2691   -4.5782  -14.1412 C   0  0  0  0  0  0  0  0  0  0  0  0
   22.8609   -5.0638  -13.1183 O   0  0  0  0  0  0  0  0  0  0  0  0
   18.9442   -2.6957  -15.0765 O   0  0  0  0  0  0  0  0  0  0  0  0
   22.8955   -3.5099  -14.7242 O   0  0  0  0  0  0  0  0  0  0  0  0
  2  6  1  0
  2  1  1  1
  3  2  1  0
  3  4  1  0
  4  5  2  0
  6 11  1  0
  7  6  2  0
  8  4  1  0
 10 11  1  0
 10 12  1  0
 10  9  1  6
 12 13  2  0
 12 14  1  0
 14 15  1  0
 15 19  1  0
 16 17  1  0
 15 16  1  1
 17 18  2  0
 19 20  2  0
 19 22  1  0
 21 17  1  0
M  END
$$$$
