SCK.pdb
     RDKit          3D

 22 21  0  0  1  0  0  0  0  0999 V2000
   19.1873  -11.3006  -20.0845 O   0  0  0  0  0  0  0  0  0  0  0  0
   18.6943  -10.4981  -19.0622 C   0  0  0  0  0  0  0  0  0  0  0  0
   19.3344  -10.9656  -17.7750 C   0  0  2  0  0  0  0  0  0  0  0  0
   18.9564  -12.3027  -17.4365 N   0  0  0  0  0  0  0  0  0  0  0  0
   19.0332  -10.0532  -16.6458 C   0  0  0  0  0  0  0  0  0  0  0  0
   18.0109  -10.2245  -15.9597 O   0  0  0  0  0  0  0  0  0  0  0  0
   19.9278   -8.9932  -16.3700 N   0  0  0  0  0  0  0  0  0  0  0  0
   19.7778   -8.1148  -15.2307 C   0  0  1  0  0  0  0  0  0  0  0  0
   21.1470   -7.9725  -14.5836 C   0  0  0  0  0  0  0  0  0  0  0  0
   20.9920   -8.0203  -12.7784 S   0  0  0  0  0  0  0  0  0  0  0  0
   19.2692   -6.7890  -15.6395 C   0  0  0  0  0  0  0  0  0  0  0  0
   19.7619   -6.1318  -16.5991 O   0  0  0  0  0  0  0  0  0  0  0  0
   18.1802   -6.2333  -14.9207 N   0  0  0  0  0  0  0  0  0  0  0  0
   17.6248   -4.9357  -15.2400 C   0  0  1  0  0  0  0  0  0  0  0  0
   16.2196   -4.7716  -14.7357 C   0  0  0  0  0  0  0  0  0  0  0  0
   15.6032   -3.4671  -15.1463 C   0  0  0  0  0  0  0  0  0  0  0  0
   14.1642   -3.3515  -14.6918 C   0  0  0  0  0  0  0  0  0  0  0  0
   13.5521   -2.0611  -15.1867 C   0  0  0  0  0  0  0  0  0  0  0  0
   12.2085   -1.9415  -14.6367 N   0  0  0  0  0  0  0  0  0  0  0  0
   18.4922   -3.8789  -14.6611 C   0  0  0  0  0  0  0  0  0  0  0  0
   18.7772   -2.8321  -15.2948 O   0  0  0  0  0  0  0  0  0  0  0  0
   19.0189   -4.0222  -13.3853 O   0  0  0  0  0  0  0  0  0  0  0  0
  1  2  1  0
  3  5  1  0
  3  2  1  0
  3  4  1  1
  5  6  2  0
  7  8  1  0
  7  5  1  0
  8 11  1  0
  8  9  1  6
 10  9  1  0
 11 13  1  0
 11 12  2  0
 13 14  1  0
 14 15  1  1
 15 16  1  0
 16 17  1  0
 17 18  1  0
 18 19  1  0
 20 22  1  0
 20 14  1  0
 21 20  2  0
M  END
$$$$
