SCK.pdb
     RDKit          3D

 22 21  0  0  1  0  0  0  0  0999 V2000
   21.1709  -11.8414  -18.2478 O   0  0  0  0  0  0  0  0  0  0  0  0
   20.5616  -10.9872  -17.3360 C   0  0  0  0  0  0  0  0  0  0  0  0
   21.6598  -10.3366  -16.5260 C   0  0  2  0  0  0  0  0  0  0  0  0
   22.4148  -11.2899  -15.7732 N   0  0  0  0  0  0  0  0  0  0  0  0
   21.1315   -9.2843  -15.6251 C   0  0  0  0  0  0  0  0  0  0  0  0
   20.3879   -9.5891  -14.6768 O   0  0  0  0  0  0  0  0  0  0  0  0
   21.4899   -7.9379  -15.8676 N   0  0  0  0  0  0  0  0  0  0  0  0
   21.0081   -6.8389  -15.0601 C   0  0  1  0  0  0  0  0  0  0  0  0
   22.2067   -5.9669  -14.7182 C   0  0  0  0  0  0  0  0  0  0  0  0
   22.0556   -5.3340  -13.0266 S   0  0  0  0  0  0  0  0  0  0  0  0
   19.9936   -6.0458  -15.7848 C   0  0  0  0  0  0  0  0  0  0  0  0
   20.1369   -5.6830  -16.9863 O   0  0  0  0  0  0  0  0  0  0  0  0
   18.8085   -5.6774  -15.0982 N   0  0  0  0  0  0  0  0  0  0  0  0
   17.7428   -4.9366  -15.7382 C   0  0  1  0  0  0  0  0  0  0  0  0
   16.3947   -5.2471  -15.1534 C   0  0  0  0  0  0  0  0  0  0  0  0
   15.2832   -4.4944  -15.8229 C   0  0  0  0  0  0  0  0  0  0  0  0
   13.9510   -4.7262  -15.1431 C   0  0  0  0  0  0  0  0  0  0  0  0
   12.8525   -3.9690  -15.8535 C   0  0  0  0  0  0  0  0  0  0  0  0
   11.6134   -4.1347  -15.1057 N   0  0  0  0  0  0  0  0  0  0  0  0
   18.0194   -3.4829  -15.6170 C   0  0  0  0  0  0  0  0  0  0  0  0
   17.7573   -2.6770  -16.5446 O   0  0  0  0  0  0  0  0  0  0  0  0
   18.5834   -2.9686  -14.4581 O   0  0  0  0  0  0  0  0  0  0  0  0
  1  2  1  0
  3  5  1  0
  3  2  1  0
  3  4  1  1
  5  6  2  0
  7  8  1  0
  7  5  1  0
  8 11  1  0
  8  9  1  6
 10  9  1  0
 11 13  1  0
 11 12  2  0
 13 14  1  0
 14 15  1  1
 15 16  1  0
 16 17  1  0
 17 18  1  0
 18 19  1  0
 20 22  1  0
 20 14  1  0
 21 20  2  0
M  END
$$$$
