SCK.pdb
     RDKit          3D

 22 21  0  0  1  0  0  0  0  0999 V2000
   23.2852  -36.4484   -5.5130 O   0  0  0  0  0  0  0  0  0  0  0  0
   23.7371  -35.6147   -6.5293 C   0  0  0  0  0  0  0  0  0  0  0  0
   25.2036  -35.9155   -6.7391 C   0  0  2  0  0  0  0  0  0  0  0  0
   25.4262  -37.2684   -7.1460 N   0  0  0  0  0  0  0  0  0  0  0  0
   26.0076  -35.6115   -5.5311 C   0  0  0  0  0  0  0  0  0  0  0  0
   26.7163  -36.4922   -5.0142 O   0  0  0  0  0  0  0  0  0  0  0  0
   25.9500  -34.3080   -4.9855 N   0  0  0  0  0  0  0  0  0  0  0  0
   26.7197  -33.9056   -3.8289 C   0  0  1  0  0  0  0  0  0  0  0  0
   26.3523  -32.4625   -3.5186 C   0  0  0  0  0  0  0  0  0  0  0  0
   24.6518  -32.1243   -4.0464 S   0  0  0  0  0  0  0  0  0  0  0  0
   26.4262  -34.7660   -2.6641 C   0  0  0  0  0  0  0  0  0  0  0  0
   25.3424  -35.4025   -2.5376 O   0  0  0  0  0  0  0  0  0  0  0  0
   27.4064  -34.8797   -1.6454 N   0  0  0  0  0  0  0  0  0  0  0  0
   27.2358  -35.7502   -0.5020 C   0  0  1  0  0  0  0  0  0  0  0  0
   27.4266  -37.1991   -0.8486 C   0  0  0  0  0  0  0  0  0  0  0  0
   27.2199  -38.1099    0.3253 C   0  0  0  0  0  0  0  0  0  0  0  0
   27.3730  -39.5672   -0.0533 C   0  0  0  0  0  0  0  0  0  0  0  0
   27.1073  -40.4573    1.1392 C   0  0  0  0  0  0  0  0  0  0  0  0
   27.3971  -41.8352    0.7660 N   0  0  0  0  0  0  0  0  0  0  0  0
   28.1987  -35.3569    0.5574 C   0  0  0  0  0  0  0  0  0  0  0  0
   28.1603  -35.8571    1.7093 O   0  0  0  0  0  0  0  0  0  0  0  0
   29.1814  -34.4119    0.2989 O   0  0  0  0  0  0  0  0  0  0  0  0
  1  2  1  0
  3  5  1  0
  3  2  1  0
  3  4  1  1
  5  6  2  0
  7  8  1  0
  7  5  1  0
  8 11  1  0
  8  9  1  1
 10  9  1  0
 11 13  1  0
 11 12  2  0
 13 14  1  0
 14 15  1  6
 15 16  1  0
 16 17  1  0
 17 18  1  0
 18 19  1  0
 20 22  1  0
 20 14  1  0
 21 20  2  0
M  END
$$$$
