SCK.pdb
     RDKit          3D

 22 21  0  0  1  0  0  0  0  0999 V2000
   16.5261   -9.3123  -17.5162 O   0  0  0  0  0  0  0  0  0  0  0  0
   16.5262   -9.6138  -16.1593 C   0  0  0  0  0  0  0  0  0  0  0  0
   17.9422   -9.9837  -15.7808 C   0  0  2  0  0  0  0  0  0  0  0  0
   18.2346  -11.3568  -16.0535 N   0  0  0  0  0  0  0  0  0  0  0  0
   18.2314   -9.6772  -14.3593 C   0  0  0  0  0  0  0  0  0  0  0  0
   17.8487  -10.4492  -13.4633 O   0  0  0  0  0  0  0  0  0  0  0  0
   18.9463   -8.4970  -14.0492 N   0  0  0  0  0  0  0  0  0  0  0  0
   19.2090   -8.0711  -12.6922 C   0  0  1  0  0  0  0  0  0  0  0  0
   20.4492   -7.1910  -12.7244 C   0  0  0  0  0  0  0  0  0  0  0  0
   20.7923   -6.5356  -11.0698 S   0  0  0  0  0  0  0  0  0  0  0  0
   18.0659   -7.3176  -12.1363 C   0  0  0  0  0  0  0  0  0  0  0  0
   17.5243   -6.3493  -12.7401 O   0  0  0  0  0  0  0  0  0  0  0  0
   17.5575   -7.7010  -10.8690 N   0  0  0  0  0  0  0  0  0  0  0  0
   16.4155   -7.0491  -10.2647 C   0  0  1  0  0  0  0  0  0  0  0  0
   15.4107   -8.0285   -9.7292 C   0  0  0  0  0  0  0  0  0  0  0  0
   14.2403   -7.3596   -9.0712 C   0  0  0  0  0  0  0  0  0  0  0  0
   13.1926   -8.3574   -8.6269 C   0  0  0  0  0  0  0  0  0  0  0  0
   12.0179   -7.6483   -7.9928 C   0  0  0  0  0  0  0  0  0  0  0  0
   11.0192   -8.6416   -7.6214 N   0  0  0  0  0  0  0  0  0  0  0  0
   16.8841   -6.1621   -9.1701 C   0  0  0  0  0  0  0  0  0  0  0  0
   16.1566   -5.2567   -8.6910 O   0  0  0  0  0  0  0  0  0  0  0  0
   18.1575   -6.3125   -8.6395 O   0  0  0  0  0  0  0  0  0  0  0  0
  1  2  1  0
  3  5  1  0
  3  2  1  0
  3  4  1  1
  5  6  2  0
  7  8  1  0
  7  5  1  0
  8 11  1  0
  8  9  1  6
 10  9  1  0
 11 13  1  0
 11 12  2  0
 13 14  1  0
 14 15  1  1
 15 16  1  0
 16 17  1  0
 17 18  1  0
 18 19  1  0
 20 22  1  0
 20 14  1  0
 21 20  2  0
M  END
$$$$
