SCK.pdb
     RDKit          3D

 22 21  0  0  1  0  0  0  0  0999 V2000
   17.6857  -23.6511   -8.8862 O   0  0  0  0  0  0  0  0  0  0  0  0
   18.9312  -24.1299   -8.4966 C   0  0  0  0  0  0  0  0  0  0  0  0
   18.8605  -25.6398   -8.5214 C   0  0  2  0  0  0  0  0  0  0  0  0
   18.4003  -26.1399   -9.7798 N   0  0  0  0  0  0  0  0  0  0  0  0
   18.0143  -26.1707   -7.4258 C   0  0  0  0  0  0  0  0  0  0  0  0
   17.6326  -27.3534   -7.4482 O   0  0  0  0  0  0  0  0  0  0  0  0
   17.6549  -25.3080   -6.3644 N   0  0  0  0  0  0  0  0  0  0  0  0
   16.9742  -25.7682   -5.1740 C   0  0  1  0  0  0  0  0  0  0  0  0
   17.9463  -26.6526   -4.4081 C   0  0  0  0  0  0  0  0  0  0  0  0
   17.9885  -26.1675   -2.6624 S   0  0  0  0  0  0  0  0  0  0  0  0
   16.5462  -24.6339   -4.3292 C   0  0  0  0  0  0  0  0  0  0  0  0
   17.3328  -23.7152   -3.9648 O   0  0  0  0  0  0  0  0  0  0  0  0
   15.1921  -24.5776   -3.9109 N   0  0  0  0  0  0  0  0  0  0  0  0
   14.6114  -23.3863   -3.3299 C   0  0  1  0  0  0  0  0  0  0  0  0
   13.2456  -23.0859   -3.8779 C   0  0  0  0  0  0  0  0  0  0  0  0
   12.7057  -21.7690   -3.4041 C   0  0  0  0  0  0  0  0  0  0  0  0
   11.2876  -21.5338   -3.8776 C   0  0  0  0  0  0  0  0  0  0  0  0
   10.7711  -20.2065   -3.3713 C   0  0  0  0  0  0  0  0  0  0  0  0
    9.4431  -19.9809   -3.9261 N   0  0  0  0  0  0  0  0  0  0  0  0
   14.5356  -23.5506   -1.8562 C   0  0  0  0  0  0  0  0  0  0  0  0
   14.3419  -24.6710   -1.3216 O   0  0  0  0  0  0  0  0  0  0  0  0
   14.6788  -22.4540   -1.0180 O   0  0  0  0  0  0  0  0  0  0  0  0
  1  2  1  0
  3  5  1  0
  3  2  1  0
  3  4  1  6
  5  6  2  0
  7  8  1  0
  7  5  1  0
  8 11  1  0
  8  9  1  1
 10  9  1  0
 11 13  1  0
 11 12  2  0
 13 14  1  0
 14 15  1  6
 15 16  1  0
 16 17  1  0
 17 18  1  0
 18 19  1  0
 20 22  1  0
 20 14  1  0
 21 20  2  0
M  END
$$$$
