FES.pdb
     RDKit          3D

 27 27  0  0  1  0  0  0  0  0999 V2000
    5.8866  -16.3154   25.6276 N   0  0  0  0  0  0  0  0  0  0  0  0
    7.1230  -15.8630   25.0909 C   0  0  1  0  0  0  0  0  0  0  0  0
    7.7735  -14.7457   25.8115 C   0  0  0  0  0  0  0  0  0  0  0  0
    7.0836  -13.4461   25.7530 C   0  0  0  0  0  0  0  0  0  0  0  0
    6.2601  -13.1088   26.8073 C   0  0  0  0  0  0  0  0  0  0  0  0
    5.5621  -11.9146   26.8385 C   0  0  0  0  0  0  0  0  0  0  0  0
    5.7341  -11.0710   25.7506 C   0  0  0  0  0  0  0  0  0  0  0  0
    6.5570  -11.4093   24.6979 C   0  0  0  0  0  0  0  0  0  0  0  0
    7.2509  -12.6102   24.6797 C   0  0  0  0  0  0  0  0  0  0  0  0
    8.1147  -16.9868   24.9209 C   0  0  0  0  0  0  0  0  0  0  0  0
    8.0908  -17.9448   25.7142 O   0  0  0  0  0  0  0  0  0  0  0  0
    9.0682  -16.9613   23.8730 N   0  0  0  0  0  0  0  0  0  0  0  0
   10.3033  -17.6455   23.8090 C   0  0  1  0  0  0  0  0  0  0  0  0
   11.1441  -17.3188   22.6225 C   0  0  0  0  0  0  0  0  0  0  0  0
   12.3621  -18.1158   22.4056 C   0  0  0  0  0  0  0  0  0  0  0  0
   13.1539  -17.7053   21.2457 C   0  0  0  0  0  0  0  0  0  0  0  0
   14.3374  -17.3046   21.3047 O   0  0  0  0  0  0  0  0  0  0  0  0
   11.1168  -17.6131   25.0703 C   0  0  0  0  0  0  0  0  0  0  0  0
   11.6663  -16.6347   25.5737 O   0  0  0  0  0  0  0  0  0  0  0  0
   12.5943  -17.7435   19.9468 O   0  0  0  0  0  0  0  0  0  0  0  0
   10.3844  -20.5107   27.7075 O   0  0  0  0  0  0  0  0  0  0  0  0
   11.1531  -19.4427   28.1472 C   0  0  0  0  0  0  0  0  0  0  0  0
   12.0396  -18.8839   27.0407 C   0  0  2  0  0  0  0  0  0  0  0  0
   11.2916  -18.8442   25.8010 N   0  0  0  0  0  0  0  0  0  0  0  0
   13.1485  -19.8529   26.8665 C   0  0  0  0  0  0  0  0  0  0  0  0
   14.0167  -20.1490   27.9042 O   0  0  0  0  0  0  0  0  0  0  0  0
   13.3373  -20.4375   25.7719 O   0  0  0  0  0  0  0  0  0  0  0  0
  2  1  1  1
  3  2  1  0
  4  9  2  0
  4  3  1  0
  5  4  1  0
  6  7  1  0
  6  5  2  0
  7  8  2  0
  8  9  1  0
 10 12  1  0
 10  2  1  0
 11 10  2  0
 13 12  1  0
 13 14  1  6
 14 15  1  0
 15 16  1  0
 16 17  2  0
 18 19  2  0
 18 13  1  0
 20 16  1  0
 22 21  1  0
 23 22  1  1
 23 24  1  0
 24 18  1  0
 25 23  1  0
 26 25  1  0
 27 25  2  0
M  END
$$$$
