FES.pdb
     RDKit          3D

 27 27  0  0  1  0  0  0  0  0999 V2000
    5.8331  -17.0112   25.1090 N   0  0  0  0  0  0  0  0  0  0  0  0
    7.0153  -16.2309   24.9870 C   0  0  1  0  0  0  0  0  0  0  0  0
    7.2062  -15.1776   26.0091 C   0  0  0  0  0  0  0  0  0  0  0  0
    6.7837  -13.8193   25.6287 C   0  0  0  0  0  0  0  0  0  0  0  0
    5.4553  -13.4886   25.8012 C   0  0  0  0  0  0  0  0  0  0  0  0
    4.9613  -12.2411   25.4640 C   0  0  0  0  0  0  0  0  0  0  0  0
    5.8745  -11.3366   24.9415 C   0  0  0  0  0  0  0  0  0  0  0  0
    7.2013  -11.6683   24.7696 C   0  0  0  0  0  0  0  0  0  0  0  0
    7.6830  -12.9232   25.1121 C   0  0  0  0  0  0  0  0  0  0  0  0
    8.2565  -17.0852   24.9183 C   0  0  0  0  0  0  0  0  0  0  0  0
    8.2995  -18.1490   25.5618 O   0  0  0  0  0  0  0  0  0  0  0  0
    9.3678  -16.6894   24.1331 N   0  0  0  0  0  0  0  0  0  0  0  0
   10.6328  -17.3138   24.0457 C   0  0  1  0  0  0  0  0  0  0  0  0
   11.4848  -16.8555   22.9119 C   0  0  0  0  0  0  0  0  0  0  0  0
   12.7820  -17.5225   22.7165 C   0  0  0  0  0  0  0  0  0  0  0  0
   13.5436  -17.0368   21.5655 C   0  0  0  0  0  0  0  0  0  0  0  0
   13.0867  -16.9443   20.4047 O   0  0  0  0  0  0  0  0  0  0  0  0
   11.4156  -17.3516   25.3261 C   0  0  0  0  0  0  0  0  0  0  0  0
   12.4675  -17.9536   25.5349 O   0  0  0  0  0  0  0  0  0  0  0  0
   14.8906  -16.6315   21.7174 O   0  0  0  0  0  0  0  0  0  0  0  0
    9.7220  -15.4778   28.7092 O   0  0  0  0  0  0  0  0  0  0  0  0
   11.1008  -15.4270   28.5646 C   0  0  0  0  0  0  0  0  0  0  0  0
   11.6281  -16.5765   27.7141 C   0  0  2  0  0  0  0  0  0  0  0  0
   10.9119  -16.6097   26.4556 N   0  0  0  0  0  0  0  0  0  0  0  0
   11.3027  -17.8220   28.4502 C   0  0  0  0  0  0  0  0  0  0  0  0
   11.8900  -18.1126   29.6704 O   0  0  0  0  0  0  0  0  0  0  0  0
   10.4835  -18.6551   27.9915 O   0  0  0  0  0  0  0  0  0  0  0  0
  2  1  1  1
  3  2  1  0
  4  9  2  0
  4  3  1  0
  5  4  1  0
  6  7  1  0
  6  5  2  0
  7  8  2  0
  8  9  1  0
 10 12  1  0
 10  2  1  0
 11 10  2  0
 13 12  1  0
 13 14  1  6
 14 15  1  0
 15 16  1  0
 16 17  2  0
 18 19  2  0
 18 13  1  0
 20 16  1  0
 22 21  1  0
 23 22  1  1
 23 24  1  0
 24 18  1  0
 25 23  1  0
 26 25  1  0
 27 25  2  0
M  END
$$$$
