FES.pdb
     RDKit          3D

 27 27  0  0  1  0  0  0  0  0999 V2000
    8.1384  -13.6509   20.6500 N   0  0  0  0  0  0  0  0  0  0  0  0
    8.1090  -13.7222   22.0697 C   0  0  1  0  0  0  0  0  0  0  0  0
    6.9138  -13.1443   22.7241 C   0  0  0  0  0  0  0  0  0  0  0  0
    6.9722  -13.0204   24.1902 C   0  0  0  0  0  0  0  0  0  0  0  0
    6.2718  -13.9424   24.9405 C   0  0  0  0  0  0  0  0  0  0  0  0
    6.2576  -13.9024   26.3233 C   0  0  0  0  0  0  0  0  0  0  0  0
    6.9870  -12.8832   26.9184 C   0  0  0  0  0  0  0  0  0  0  0  0
    7.6862  -11.9627   26.1677 C   0  0  0  0  0  0  0  0  0  0  0  0
    7.6916  -12.0148   24.7816 C   0  0  0  0  0  0  0  0  0  0  0  0
    8.3182  -15.1285   22.5733 C   0  0  0  0  0  0  0  0  0  0  0  0
    7.6810  -16.0621   22.0538 O   0  0  0  0  0  0  0  0  0  0  0  0
    9.2276  -15.3945   23.6270 N   0  0  0  0  0  0  0  0  0  0  0  0
    9.5845  -16.6513   24.1664 C   0  0  1  0  0  0  0  0  0  0  0  0
   10.9922  -16.7549   24.6451 C   0  0  0  0  0  0  0  0  0  0  0  0
   11.4737  -18.0771   25.0763 C   0  0  0  0  0  0  0  0  0  0  0  0
   12.8937  -18.1181   25.4263 C   0  0  0  0  0  0  0  0  0  0  0  0
   13.6823  -17.1565   25.2909 O   0  0  0  0  0  0  0  0  0  0  0  0
    8.6283  -17.2041   25.1832 C   0  0  0  0  0  0  0  0  0  0  0  0
    8.0710  -16.5873   26.0896 O   0  0  0  0  0  0  0  0  0  0  0  0
   13.4668  -19.2978   25.9568 O   0  0  0  0  0  0  0  0  0  0  0  0
    5.9940  -19.6471   24.1188 O   0  0  0  0  0  0  0  0  0  0  0  0
    6.4648  -20.1807   25.3097 C   0  0  0  0  0  0  0  0  0  0  0  0
    7.3698  -19.2059   26.0536 C   0  0  2  0  0  0  0  0  0  0  0  0
    8.3005  -18.6071   25.1191 N   0  0  0  0  0  0  0  0  0  0  0  0
    8.1558  -20.0177   27.0138 C   0  0  0  0  0  0  0  0  0  0  0  0
    7.5400  -20.7242   28.0337 O   0  0  0  0  0  0  0  0  0  0  0  0
    9.4062  -20.0918   26.9343 O   0  0  0  0  0  0  0  0  0  0  0  0
  2  1  1  6
  3  2  1  0
  4  9  2  0
  4  3  1  0
  5  4  1  0
  6  7  1  0
  6  5  2  0
  7  8  2  0
  8  9  1  0
 10 12  1  0
 10  2  1  0
 11 10  2  0
 13 12  1  0
 13 14  1  1
 14 15  1  0
 15 16  1  0
 16 17  2  0
 18 19  2  0
 18 13  1  0
 20 16  1  0
 22 21  1  0
 23 22  1  6
 23 24  1  0
 24 18  1  0
 25 23  1  0
 26 25  1  0
 27 25  2  0
M  END
$$$$
