FES.pdb
     RDKit          3D

 27 27  0  0  1  0  0  0  0  0999 V2000
    7.7318  -17.1614   21.4877 N   0  0  0  0  0  0  0  0  0  0  0  0
    8.9538  -16.5662   21.0708 C   0  0  1  0  0  0  0  0  0  0  0  0
    9.1438  -15.1460   21.4413 C   0  0  0  0  0  0  0  0  0  0  0  0
    8.2849  -14.1729   20.7460 C   0  0  0  0  0  0  0  0  0  0  0  0
    8.9016  -13.1378   20.0737 C   0  0  0  0  0  0  0  0  0  0  0  0
    8.1797  -12.1692   19.3994 C   0  0  0  0  0  0  0  0  0  0  0  0
    6.7983  -12.2935   19.4344 C   0  0  0  0  0  0  0  0  0  0  0  0
    6.1834  -13.3279   20.1064 C   0  0  0  0  0  0  0  0  0  0  0  0
    6.9198  -14.2923   20.7785 C   0  0  0  0  0  0  0  0  0  0  0  0
   10.1554  -17.3601   21.5191 C   0  0  0  0  0  0  0  0  0  0  0  0
   10.1204  -17.9516   22.6130 O   0  0  0  0  0  0  0  0  0  0  0  0
   11.3172  -17.4373   20.7114 N   0  0  0  0  0  0  0  0  0  0  0  0
   12.5990  -17.9051   21.0802 C   0  0  1  0  0  0  0  0  0  0  0  0
   13.5918  -17.9639   19.9702 C   0  0  0  0  0  0  0  0  0  0  0  0
   14.9457  -18.4462   20.2869 C   0  0  0  0  0  0  0  0  0  0  0  0
   15.8736  -18.4273   19.1557 C   0  0  0  0  0  0  0  0  0  0  0  0
   17.0636  -18.0481   19.2249 O   0  0  0  0  0  0  0  0  0  0  0  0
   13.1900  -17.2541   22.2970 C   0  0  0  0  0  0  0  0  0  0  0  0
   14.0202  -16.3471   22.3237 O   0  0  0  0  0  0  0  0  0  0  0  0
   15.4506  -18.8552   17.8752 O   0  0  0  0  0  0  0  0  0  0  0  0
   11.7770  -18.6699   25.9080 O   0  0  0  0  0  0  0  0  0  0  0  0
   12.2644  -17.3715   25.9437 C   0  0  0  0  0  0  0  0  0  0  0  0
   13.2472  -17.0994   24.8112 C   0  0  2  0  0  0  0  0  0  0  0  0
   12.7584  -17.7138   23.5940 N   0  0  0  0  0  0  0  0  0  0  0  0
   14.5103  -17.7812   25.1837 C   0  0  0  0  0  0  0  0  0  0  0  0
   14.9562  -18.8982   24.4968 O   0  0  0  0  0  0  0  0  0  0  0  0
   15.2180  -17.3683   26.1346 O   0  0  0  0  0  0  0  0  0  0  0  0
  2  1  1  1
  3  2  1  0
  4  9  2  0
  4  3  1  0
  5  4  1  0
  6  7  1  0
  6  5  2  0
  7  8  2  0
  8  9  1  0
 10 12  1  0
 10  2  1  0
 11 10  2  0
 13 12  1  0
 13 14  1  6
 14 15  1  0
 15 16  1  0
 16 17  2  0
 18 19  2  0
 18 13  1  0
 20 16  1  0
 22 21  1  0
 23 22  1  1
 23 24  1  0
 24 18  1  0
 25 23  1  0
 26 25  1  0
 27 25  2  0
M  END
$$$$
