FES.pdb
     RDKit          3D

 27 27  0  0  1  0  0  0  0  0999 V2000
    5.6532  -16.9467   22.9891 N   0  0  0  0  0  0  0  0  0  0  0  0
    6.5045  -16.1518   23.8044 C   0  0  1  0  0  0  0  0  0  0  0  0
    5.8897  -15.5847   25.0255 C   0  0  0  0  0  0  0  0  0  0  0  0
    6.4381  -14.3003   25.4922 C   0  0  0  0  0  0  0  0  0  0  0  0
    6.1684  -13.9217   26.7913 C   0  0  0  0  0  0  0  0  0  0  0  0
    6.6312  -12.7288   27.3176 C   0  0  0  0  0  0  0  0  0  0  0  0
    7.3834  -11.9304   26.4680 C   0  0  0  0  0  0  0  0  0  0  0  0
    7.6520  -12.3099   25.1705 C   0  0  0  0  0  0  0  0  0  0  0  0
    7.1814  -13.5089   24.6558 C   0  0  0  0  0  0  0  0  0  0  0  0
    7.7729  -16.8769   24.1793 C   0  0  0  0  0  0  0  0  0  0  0  0
    7.6987  -17.9461   24.8110 O   0  0  0  0  0  0  0  0  0  0  0  0
    9.0407  -16.3543   23.8219 N   0  0  0  0  0  0  0  0  0  0  0  0
   10.3145  -16.8684   24.1549 C   0  0  1  0  0  0  0  0  0  0  0  0
   11.4256  -16.4233   23.2667 C   0  0  0  0  0  0  0  0  0  0  0  0
   12.7574  -17.0083   23.4900 C   0  0  0  0  0  0  0  0  0  0  0  0
   13.7741  -16.5799   22.5290 C   0  0  0  0  0  0  0  0  0  0  0  0
   13.5631  -15.7881   21.5838 O   0  0  0  0  0  0  0  0  0  0  0  0
   10.6967  -16.7390   25.6009 C   0  0  0  0  0  0  0  0  0  0  0  0
   10.9357  -15.7005   26.2149 O   0  0  0  0  0  0  0  0  0  0  0  0
   15.1008  -17.0616   22.6272 O   0  0  0  0  0  0  0  0  0  0  0  0
    9.5388  -19.5868   28.1617 O   0  0  0  0  0  0  0  0  0  0  0  0
   10.0967  -18.4186   28.6603 C   0  0  0  0  0  0  0  0  0  0  0  0
   11.2229  -17.9004   27.7741 C   0  0  2  0  0  0  0  0  0  0  0  0
   10.8012  -17.9422   26.3890 N   0  0  0  0  0  0  0  0  0  0  0  0
   12.3480  -18.8537   27.9310 C   0  0  0  0  0  0  0  0  0  0  0  0
   12.9771  -19.0315   29.1520 O   0  0  0  0  0  0  0  0  0  0  0  0
   12.7679  -19.5315   26.9617 O   0  0  0  0  0  0  0  0  0  0  0  0
  2  1  1  1
  3  2  1  0
  4  9  2  0
  4  3  1  0
  5  4  1  0
  6  7  1  0
  6  5  2  0
  7  8  2  0
  8  9  1  0
 10 12  1  0
 10  2  1  0
 11 10  2  0
 13 12  1  0
 13 14  1  6
 14 15  1  0
 15 16  1  0
 16 17  2  0
 18 19  2  0
 18 13  1  0
 20 16  1  0
 22 21  1  0
 23 22  1  1
 23 24  1  0
 24 18  1  0
 25 23  1  0
 26 25  1  0
 27 25  2  0
M  END
$$$$
