FES.pdb
     RDKit          3D

 27 27  0  0  1  0  0  0  0  0999 V2000
    6.9687  -16.8010   26.4819 N   0  0  0  0  0  0  0  0  0  0  0  0
    7.4821  -16.4870   25.1937 C   0  0  1  0  0  0  0  0  0  0  0  0
    8.2408  -15.2206   25.0883 C   0  0  0  0  0  0  0  0  0  0  0  0
    7.6208  -14.0384   25.7098 C   0  0  0  0  0  0  0  0  0  0  0  0
    6.2883  -13.7983   25.4440 C   0  0  0  0  0  0  0  0  0  0  0  0
    5.6208  -12.7082   25.9735 C   0  0  0  0  0  0  0  0  0  0  0  0
    6.3636  -11.8663   26.7886 C   0  0  0  0  0  0  0  0  0  0  0  0
    7.6946  -12.1074   27.0532 C   0  0  0  0  0  0  0  0  0  0  0  0
    8.3515  -13.2044   26.5154 C   0  0  0  0  0  0  0  0  0  0  0  0
    8.3110  -17.6101   24.6223 C   0  0  0  0  0  0  0  0  0  0  0  0
    8.8383  -18.4311   25.3942 O   0  0  0  0  0  0  0  0  0  0  0  0
    8.4947  -17.7377   23.2230 N   0  0  0  0  0  0  0  0  0  0  0  0
    9.1677  -18.7683   22.5282 C   0  0  1  0  0  0  0  0  0  0  0  0
    8.7599  -18.9392   21.1048 C   0  0  0  0  0  0  0  0  0  0  0  0
    9.6312  -18.3620   20.0686 C   0  0  0  0  0  0  0  0  0  0  0  0
    9.1556  -18.5622   18.6995 C   0  0  0  0  0  0  0  0  0  0  0  0
    9.7492  -18.1498   17.6785 O   0  0  0  0  0  0  0  0  0  0  0  0
   10.6629  -18.7573   22.6621 C   0  0  0  0  0  0  0  0  0  0  0  0
   11.4393  -19.6696   22.3838 O   0  0  0  0  0  0  0  0  0  0  0  0
    7.9501  -19.2614   18.4550 O   0  0  0  0  0  0  0  0  0  0  0  0
   12.7262  -15.1171   23.8398 O   0  0  0  0  0  0  0  0  0  0  0  0
   13.1867  -16.0631   22.9355 C   0  0  0  0  0  0  0  0  0  0  0  0
   12.7329  -17.4711   23.3018 C   0  0  2  0  0  0  0  0  0  0  0  0
   11.2938  -17.5619   23.1650 N   0  0  0  0  0  0  0  0  0  0  0  0
   13.0611  -17.6541   24.7363 C   0  0  0  0  0  0  0  0  0  0  0  0
   12.0694  -17.8466   25.6838 O   0  0  0  0  0  0  0  0  0  0  0  0
   14.2496  -17.6406   25.1399 O   0  0  0  0  0  0  0  0  0  0  0  0
  2  1  1  1
  3  2  1  0
  4  9  2  0
  4  3  1  0
  5  4  1  0
  6  7  1  0
  6  5  2  0
  7  8  2  0
  8  9  1  0
 10 12  1  0
 10  2  1  0
 11 10  2  0
 13 12  1  0
 13 14  1  6
 14 15  1  0
 15 16  1  0
 16 17  2  0
 18 19  2  0
 18 13  1  0
 20 16  1  0
 22 21  1  0
 23 22  1  1
 23 24  1  0
 24 18  1  0
 25 23  1  0
 26 25  1  0
 27 25  2  0
M  END
$$$$
