FES.pdb
     RDKit          3D

 27 27  0  0  1  0  0  0  0  0999 V2000
    6.0111  -16.7966   25.5568 N   0  0  0  0  0  0  0  0  0  0  0  0
    6.4197  -16.3599   24.2669 C   0  0  1  0  0  0  0  0  0  0  0  0
    6.2477  -14.9171   23.9854 C   0  0  0  0  0  0  0  0  0  0  0  0
    6.6021  -13.9955   25.0778 C   0  0  0  0  0  0  0  0  0  0  0  0
    7.9343  -13.6753   25.2404 C   0  0  0  0  0  0  0  0  0  0  0  0
    8.3664  -12.8264   26.2438 C   0  0  0  0  0  0  0  0  0  0  0  0
    7.3868  -12.3120   27.0809 C   0  0  0  0  0  0  0  0  0  0  0  0
    6.0563  -12.6328   26.9174 C   0  0  0  0  0  0  0  0  0  0  0  0
    5.6372  -13.4856   25.9069 C   0  0  0  0  0  0  0  0  0  0  0  0
    7.8401  -16.7597   23.9544 C   0  0  0  0  0  0  0  0  0  0  0  0
    8.3554  -17.7084   24.5725 O   0  0  0  0  0  0  0  0  0  0  0  0
    8.5890  -16.0683   22.9698 N   0  0  0  0  0  0  0  0  0  0  0  0
    9.8581  -16.4092   22.4491 C   0  0  1  0  0  0  0  0  0  0  0  0
   10.2091  -15.7474   21.1607 C   0  0  0  0  0  0  0  0  0  0  0  0
   11.4599  -16.1537   20.5002 C   0  0  0  0  0  0  0  0  0  0  0  0
   11.3093  -17.2514   19.5447 C   0  0  0  0  0  0  0  0  0  0  0  0
   10.4971  -17.2529   18.5933 O   0  0  0  0  0  0  0  0  0  0  0  0
   10.9938  -16.3202   23.4268 C   0  0  0  0  0  0  0  0  0  0  0  0
   12.1657  -16.0413   23.1791 O   0  0  0  0  0  0  0  0  0  0  0  0
   12.1093  -18.4130   19.6563 O   0  0  0  0  0  0  0  0  0  0  0  0
   10.0737  -16.6863   27.5329 O   0  0  0  0  0  0  0  0  0  0  0  0
   11.1896  -15.9735   27.1188 C   0  0  0  0  0  0  0  0  0  0  0  0
   11.7648  -16.5193   25.8173 C   0  0  2  0  0  0  0  0  0  0  0  0
   10.7177  -16.5798   24.8184 N   0  0  0  0  0  0  0  0  0  0  0  0
   12.1950  -17.9094   26.1031 C   0  0  0  0  0  0  0  0  0  0  0  0
   13.1650  -18.1828   27.0533 O   0  0  0  0  0  0  0  0  0  0  0  0
   11.6940  -18.8852   25.4930 O   0  0  0  0  0  0  0  0  0  0  0  0
  2  1  1  1
  3  2  1  0
  4  9  2  0
  4  3  1  0
  5  4  1  0
  6  7  1  0
  6  5  2  0
  7  8  2  0
  8  9  1  0
 10 12  1  0
 10  2  1  0
 11 10  2  0
 13 12  1  0
 13 14  1  6
 14 15  1  0
 15 16  1  0
 16 17  2  0
 18 19  2  0
 18 13  1  0
 20 16  1  0
 22 21  1  0
 23 22  1  1
 23 24  1  0
 24 18  1  0
 25 23  1  0
 26 25  1  0
 27 25  2  0
M  END
$$$$
