FES.pdb
     RDKit          3D

 27 27  0  0  1  0  0  0  0  0999 V2000
    5.6983  -17.7484   23.7162 N   0  0  0  0  0  0  0  0  0  0  0  0
    6.8655  -17.0111   23.3766 C   0  0  1  0  0  0  0  0  0  0  0  0
    6.8474  -15.5718   23.7215 C   0  0  0  0  0  0  0  0  0  0  0  0
    7.0869  -14.6349   22.6111 C   0  0  0  0  0  0  0  0  0  0  0  0
    7.3073  -13.3097   22.9259 C   0  0  0  0  0  0  0  0  0  0  0  0
    7.5316  -12.3531   21.9519 C   0  0  0  0  0  0  0  0  0  0  0  0
    7.5236  -12.7974   20.6375 C   0  0  0  0  0  0  0  0  0  0  0  0
    7.3032  -14.1214   20.3245 C   0  0  0  0  0  0  0  0  0  0  0  0
    7.0794  -15.0701   21.3114 C   0  0  0  0  0  0  0  0  0  0  0  0
    8.1178  -17.6387   23.9360 C   0  0  0  0  0  0  0  0  0  0  0  0
    8.0512  -18.2933   24.9918 O   0  0  0  0  0  0  0  0  0  0  0  0
    9.3623  -17.4899   23.2746 N   0  0  0  0  0  0  0  0  0  0  0  0
   10.5997  -18.0828   23.6139 C   0  0  1  0  0  0  0  0  0  0  0  0
   11.6292  -18.0529   22.5365 C   0  0  0  0  0  0  0  0  0  0  0  0
   11.3014  -18.7032   21.2576 C   0  0  0  0  0  0  0  0  0  0  0  0
   12.3295  -18.5604   20.2265 C   0  0  0  0  0  0  0  0  0  0  0  0
   13.5413  -18.3568   20.4611 O   0  0  0  0  0  0  0  0  0  0  0  0
   11.1806  -17.6409   24.9257 C   0  0  0  0  0  0  0  0  0  0  0  0
   11.2862  -16.4875   25.3393 O   0  0  0  0  0  0  0  0  0  0  0  0
   11.9873  -18.6493   18.8566 O   0  0  0  0  0  0  0  0  0  0  0  0
    9.8969  -19.0895   28.0785 O   0  0  0  0  0  0  0  0  0  0  0  0
   10.7444  -17.9966   27.9689 C   0  0  0  0  0  0  0  0  0  0  0  0
   12.0155  -18.3351   27.1994 C   0  0  2  0  0  0  0  0  0  0  0  0
   11.6757  -18.6517   25.8274 N   0  0  0  0  0  0  0  0  0  0  0  0
   12.5642  -19.5640   27.8222 C   0  0  0  0  0  0  0  0  0  0  0  0
   13.0751  -19.5532   29.1095 O   0  0  0  0  0  0  0  0  0  0  0  0
   12.5839  -20.6556   27.2029 O   0  0  0  0  0  0  0  0  0  0  0  0
  2  1  1  1
  3  2  1  0
  4  9  2  0
  4  3  1  0
  5  4  1  0
  6  7  1  0
  6  5  2  0
  7  8  2  0
  8  9  1  0
 10 12  1  0
 10  2  1  0
 11 10  2  0
 13 12  1  0
 13 14  1  6
 14 15  1  0
 15 16  1  0
 16 17  2  0
 18 19  2  0
 18 13  1  0
 20 16  1  0
 22 21  1  0
 23 22  1  1
 23 24  1  0
 24 18  1  0
 25 23  1  0
 26 25  1  0
 27 25  2  0
M  END
$$$$
