FES.pdb
     RDKit          3D

 27 27  0  0  1  0  0  0  0  0999 V2000
    7.0779  -17.5878   19.4877 N   0  0  0  0  0  0  0  0  0  0  0  0
    7.5273  -16.5482   20.3471 C   0  0  1  0  0  0  0  0  0  0  0  0
    6.5025  -15.5680   20.7709 C   0  0  0  0  0  0  0  0  0  0  0  0
    6.9636  -14.4913   21.6634 C   0  0  0  0  0  0  0  0  0  0  0  0
    6.7158  -14.6271   23.0139 C   0  0  0  0  0  0  0  0  0  0  0  0
    7.1014  -13.6644   23.9297 C   0  0  0  0  0  0  0  0  0  0  0  0
    7.7527  -12.5516   23.4175 C   0  0  0  0  0  0  0  0  0  0  0  0
    7.9994  -12.4171   22.0682 C   0  0  0  0  0  0  0  0  0  0  0  0
    7.6070  -13.3903   21.1610 C   0  0  0  0  0  0  0  0  0  0  0  0
    8.2346  -17.0840   21.5668 C   0  0  0  0  0  0  0  0  0  0  0  0
    7.6588  -17.9195   22.2864 O   0  0  0  0  0  0  0  0  0  0  0  0
    9.5408  -16.6464   21.8993 N   0  0  0  0  0  0  0  0  0  0  0  0
   10.3789  -17.1272   22.9310 C   0  0  1  0  0  0  0  0  0  0  0  0
   11.8363  -16.9013   22.7157 C   0  0  0  0  0  0  0  0  0  0  0  0
   12.4732  -17.5778   21.5744 C   0  0  0  0  0  0  0  0  0  0  0  0
   13.9052  -17.3113   21.4368 C   0  0  0  0  0  0  0  0  0  0  0  0
   14.4158  -16.6653   20.4950 O   0  0  0  0  0  0  0  0  0  0  0  0
    9.9722  -16.7302   24.3205 C   0  0  0  0  0  0  0  0  0  0  0  0
   10.0355  -15.6081   24.8199 O   0  0  0  0  0  0  0  0  0  0  0  0
   14.8194  -17.7923   22.4035 O   0  0  0  0  0  0  0  0  0  0  0  0
    7.0963  -18.8359   26.1236 O   0  0  0  0  0  0  0  0  0  0  0  0
    7.5115  -17.6243   26.6568 C   0  0  0  0  0  0  0  0  0  0  0  0
    9.0197  -17.4377   26.5433 C   0  0  2  0  0  0  0  0  0  0  0  0
    9.4411  -17.7485   25.1928 N   0  0  0  0  0  0  0  0  0  0  0  0
    9.6323  -18.4404   27.4479 C   0  0  0  0  0  0  0  0  0  0  0  0
   10.5175  -19.3940   26.9731 O   0  0  0  0  0  0  0  0  0  0  0  0
    9.3687  -18.4582   28.6750 O   0  0  0  0  0  0  0  0  0  0  0  0
  2  1  1  1
  3  2  1  0
  4  9  2  0
  4  3  1  0
  5  4  1  0
  6  7  1  0
  6  5  2  0
  7  8  2  0
  8  9  1  0
 10 12  1  0
 10  2  1  0
 11 10  2  0
 13 12  1  0
 13 14  1  6
 14 15  1  0
 15 16  1  0
 16 17  2  0
 18 19  2  0
 18 13  1  0
 20 16  1  0
 22 21  1  0
 23 22  1  6
 23 24  1  0
 24 18  1  0
 25 23  1  0
 26 25  1  0
 27 25  2  0
M  END
$$$$
