FES.pdb
     RDKit          3D

 27 27  0  0  1  0  0  0  0  0999 V2000
    7.4573  -16.6950   26.3754 N   0  0  0  0  0  0  0  0  0  0  0  0
    6.6964  -16.5012   25.1902 C   0  0  1  0  0  0  0  0  0  0  0  0
    5.8159  -15.3117   25.1713 C   0  0  0  0  0  0  0  0  0  0  0  0
    6.4216  -14.0480   25.6236 C   0  0  0  0  0  0  0  0  0  0  0  0
    5.5937  -12.9530   25.7621 C   0  0  0  0  0  0  0  0  0  0  0  0
    6.0714  -11.7208   26.1715 C   0  0  0  0  0  0  0  0  0  0  0  0
    7.4311  -11.6434   26.4366 C   0  0  0  0  0  0  0  0  0  0  0  0
    8.2570  -12.7381   26.2978 C   0  0  0  0  0  0  0  0  0  0  0  0
    7.7644  -13.9677   25.8862 C   0  0  0  0  0  0  0  0  0  0  0  0
    7.5602  -16.4977   23.9537 C   0  0  0  0  0  0  0  0  0  0  0  0
    7.0841  -16.9010   22.8774 O   0  0  0  0  0  0  0  0  0  0  0  0
    8.9014  -16.0430   24.0062 N   0  0  0  0  0  0  0  0  0  0  0  0
   10.0818  -16.8169   23.9318 C   0  0  1  0  0  0  0  0  0  0  0  0
   11.0410  -16.4025   22.8689 C   0  0  0  0  0  0  0  0  0  0  0  0
   12.2920  -17.1667   22.7392 C   0  0  0  0  0  0  0  0  0  0  0  0
   13.1527  -16.7340   21.6380 C   0  0  0  0  0  0  0  0  0  0  0  0
   14.3781  -16.5075   21.7468 O   0  0  0  0  0  0  0  0  0  0  0  0
   10.7873  -17.0319   25.2393 C   0  0  0  0  0  0  0  0  0  0  0  0
   11.6724  -16.3319   25.7284 O   0  0  0  0  0  0  0  0  0  0  0  0
   12.6168  -16.5428   20.3427 O   0  0  0  0  0  0  0  0  0  0  0  0
    8.7697  -19.2050   27.8810 O   0  0  0  0  0  0  0  0  0  0  0  0
    9.8594  -18.5041   28.3770 C   0  0  0  0  0  0  0  0  0  0  0  0
   10.9809  -18.3922   27.3513 C   0  0  2  0  0  0  0  0  0  0  0  0
   10.4100  -18.1715   26.0385 N   0  0  0  0  0  0  0  0  0  0  0  0
   11.6594  -19.7107   27.3311 C   0  0  0  0  0  0  0  0  0  0  0  0
   12.3745  -20.1702   28.4246 O   0  0  0  0  0  0  0  0  0  0  0  0
   11.6081  -20.4547   26.3215 O   0  0  0  0  0  0  0  0  0  0  0  0
  2  1  1  1
  3  2  1  0
  4  9  2  0
  4  3  1  0
  5  4  1  0
  6  7  1  0
  6  5  2  0
  7  8  2  0
  8  9  1  0
 10 12  1  0
 10  2  1  0
 11 10  2  0
 13 12  1  0
 13 14  1  6
 14 15  1  0
 15 16  1  0
 16 17  2  0
 18 19  2  0
 18 13  1  0
 20 16  1  0
 22 21  1  0
 23 22  1  1
 23 24  1  0
 24 18  1  0
 25 23  1  0
 26 25  1  0
 27 25  2  0
M  END
$$$$
