FES.pdb
     RDKit          3D

 27 27  0  0  1  0  0  0  0  0999 V2000
    6.1948  -16.4465   25.1602 N   0  0  0  0  0  0  0  0  0  0  0  0
    7.4864  -15.9533   24.8287 C   0  0  1  0  0  0  0  0  0  0  0  0
    8.0646  -14.9656   25.7672 C   0  0  0  0  0  0  0  0  0  0  0  0
    7.3170  -13.7073   25.9277 C   0  0  0  0  0  0  0  0  0  0  0  0
    7.6714  -12.6434   25.1238 C   0  0  0  0  0  0  0  0  0  0  0  0
    7.0345  -11.4180   25.2076 C   0  0  0  0  0  0  0  0  0  0  0  0
    6.0172  -11.3144   26.1453 C   0  0  0  0  0  0  0  0  0  0  0  0
    5.6643  -12.3780   26.9478 C   0  0  0  0  0  0  0  0  0  0  0  0
    6.3116  -13.6011   26.8531 C   0  0  0  0  0  0  0  0  0  0  0  0
    8.4803  -17.0657   24.6059 C   0  0  0  0  0  0  0  0  0  0  0  0
    8.3839  -18.1110   25.2736 O   0  0  0  0  0  0  0  0  0  0  0  0
    9.5175  -16.9319   23.6495 N   0  0  0  0  0  0  0  0  0  0  0  0
   10.7580  -17.6086   23.6167 C   0  0  1  0  0  0  0  0  0  0  0  0
   11.5709  -17.3749   22.3896 C   0  0  0  0  0  0  0  0  0  0  0  0
   10.9322  -17.6232   21.0871 C   0  0  0  0  0  0  0  0  0  0  0  0
   11.7165  -17.1775   19.9351 C   0  0  0  0  0  0  0  0  0  0  0  0
   11.3346  -17.2593   18.7468 O   0  0  0  0  0  0  0  0  0  0  0  0
   11.5965  -17.4640   24.8534 C   0  0  0  0  0  0  0  0  0  0  0  0
   11.9621  -16.4161   25.3835 O   0  0  0  0  0  0  0  0  0  0  0  0
   12.9989  -16.6088   20.1186 O   0  0  0  0  0  0  0  0  0  0  0  0
   10.5350  -19.4398   28.5833 O   0  0  0  0  0  0  0  0  0  0  0  0
   10.8086  -18.4931   27.6068 C   0  0  0  0  0  0  0  0  0  0  0  0
   12.1725  -18.7142   26.9639 C   0  0  2  0  0  0  0  0  0  0  0  0
   12.0372  -18.6631   25.5227 N   0  0  0  0  0  0  0  0  0  0  0  0
   12.5863  -20.0907   27.3286 C   0  0  0  0  0  0  0  0  0  0  0  0
   12.7894  -21.0621   26.3624 O   0  0  0  0  0  0  0  0  0  0  0  0
   12.7663  -20.4215   28.5259 O   0  0  0  0  0  0  0  0  0  0  0  0
  2  1  1  1
  3  2  1  0
  4  9  2  0
  4  3  1  0
  5  4  1  0
  6  7  1  0
  6  5  2  0
  7  8  2  0
  8  9  1  0
 10 12  1  0
 10  2  1  0
 11 10  2  0
 13 12  1  0
 13 14  1  6
 14 15  1  0
 15 16  1  0
 16 17  2  0
 18 19  2  0
 18 13  1  0
 20 16  1  0
 22 21  1  0
 23 22  1  1
 23 24  1  0
 24 18  1  0
 25 23  1  0
 26 25  1  0
 27 25  2  0
M  END
$$$$
