ELD.pdb
     RDKit          3D

 26 25  0  0  1  0  0  0  0  0999 V2000
    8.5341  -17.5786   21.9049 N   0  0  0  0  0  0  0  0  0  0  0  0
    9.9010  -17.0384   21.9686 C   0  0  1  0  0  0  0  0  0  0  0  0
   10.2874  -16.4132   20.6808 C   0  0  0  0  0  0  0  0  0  0  0  0
    9.1543  -16.3384   19.7224 C   0  0  0  0  0  0  0  0  0  0  0  0
    9.5929  -16.6297   18.3429 C   0  0  0  0  0  0  0  0  0  0  0  0
   10.7729  -16.8461   18.0167 O   0  0  0  0  0  0  0  0  0  0  0  0
    9.9034  -16.0210   23.0520 C   0  0  0  0  0  0  0  0  0  0  0  0
   10.8838  -15.2981   23.3534 O   0  0  0  0  0  0  0  0  0  0  0  0
    8.6440  -16.6729   17.3051 O   0  0  0  0  0  0  0  0  0  0  0  0
    8.1511  -11.9737   25.9623 C   0  0  0  0  0  0  0  0  0  0  0  0
    7.2771  -13.2139   26.1875 C   0  0  1  0  0  0  0  0  0  0  0  0
    5.9203  -12.7361   26.5631 C   0  0  0  0  0  0  0  0  0  0  0  0
    7.3823  -14.1366   25.0397 C   0  0  0  0  0  0  0  0  0  0  0  0
    8.6883  -14.8643   24.9083 C   0  0  2  0  0  0  0  0  0  0  0  0
    8.7290  -15.8213   23.8268 N   0  0  0  0  0  0  0  0  0  0  0  0
    9.0386  -15.5961   26.1575 C   0  0  0  0  0  0  0  0  0  0  0  0
    9.0909  -14.9687   27.2379 O   0  0  0  0  0  0  0  0  0  0  0  0
    9.3208  -16.9848   26.1848 N   0  0  0  0  0  0  0  0  0  0  0  0
    9.5954  -17.7522   27.3601 C   0  0  1  0  0  0  0  0  0  0  0  0
    9.2682  -19.2090   27.1037 C   0  0  0  0  0  0  0  0  0  0  0  0
    9.9502  -19.7566   25.9226 C   0  0  0  0  0  0  0  0  0  0  0  0
   10.9580  -19.1783   25.4691 O   0  0  0  0  0  0  0  0  0  0  0  0
   10.9802  -17.5821   27.8596 C   0  0  0  0  0  0  0  0  0  0  0  0
   11.8548  -17.0324   27.1318 O   0  0  0  0  0  0  0  0  0  0  0  0
    9.4922  -20.8982   25.3115 O   0  0  0  0  0  0  0  0  0  0  0  0
   11.4180  -17.9934   29.1160 O   0  0  0  0  0  0  0  0  0  0  0  0
  2  7  1  0
  2  1  1  6
  3  2  1  0
  4  3  1  0
  5  9  1  0
  5  4  1  0
  6  5  2  0
  7  8  2  0
 11 10  1  6
 11 12  1  0
 13 11  1  0
 14 13  1  1
 15 14  1  0
 15  7  1  0
 16 18  1  0
 16 14  1  0
 17 16  2  0
 19 23  1  0
 19 18  1  0
 19 20  1  6
 21 22  2  0
 21 20  1  0
 23 26  1  0
 24 23  2  0
 25 21  1  0
M  END
$$$$
