ELD.pdb
     RDKit          3D

 26 25  0  0  1  0  0  0  0  0999 V2000
    7.2178  -17.0398   21.2133 N   0  0  0  0  0  0  0  0  0  0  0  0
    8.6519  -16.7277   21.1129 C   0  0  1  0  0  0  0  0  0  0  0  0
    8.9689  -16.0915   19.8116 C   0  0  0  0  0  0  0  0  0  0  0  0
    8.2994  -16.7675   18.6701 C   0  0  0  0  0  0  0  0  0  0  0  0
    8.6693  -16.1474   17.3822 C   0  0  0  0  0  0  0  0  0  0  0  0
    9.6522  -16.4867   16.7008 O   0  0  0  0  0  0  0  0  0  0  0  0
    8.9604  -15.7938   22.2272 C   0  0  0  0  0  0  0  0  0  0  0  0
    9.9972  -15.0914   22.3067 O   0  0  0  0  0  0  0  0  0  0  0  0
    7.8837  -15.1029   16.8613 O   0  0  0  0  0  0  0  0  0  0  0  0
    8.1047  -11.7604   25.5530 C   0  0  0  0  0  0  0  0  0  0  0  0
    7.2259  -12.9762   25.8725 C   0  0  1  0  0  0  0  0  0  0  0  0
    5.9794  -12.4671   26.5027 C   0  0  0  0  0  0  0  0  0  0  0  0
    7.0859  -13.8402   24.6835 C   0  0  0  0  0  0  0  0  0  0  0  0
    8.2630  -14.7190   24.3763 C   0  0  2  0  0  0  0  0  0  0  0  0
    8.0395  -15.6573   23.3008 N   0  0  0  0  0  0  0  0  0  0  0  0
    8.6873  -15.5069   25.5672 C   0  0  0  0  0  0  0  0  0  0  0  0
    9.1298  -14.9058   26.5704 O   0  0  0  0  0  0  0  0  0  0  0  0
    8.6156  -16.9214   25.6220 N   0  0  0  0  0  0  0  0  0  0  0  0
    9.6890  -17.7924   25.9889 C   0  0  1  0  0  0  0  0  0  0  0  0
   10.7102  -17.8393   24.8708 C   0  0  0  0  0  0  0  0  0  0  0  0
   11.8574  -18.7079   25.1704 C   0  0  0  0  0  0  0  0  0  0  0  0
   11.9137  -19.2987   26.2674 O   0  0  0  0  0  0  0  0  0  0  0  0
   10.3130  -17.4378   27.2855 C   0  0  0  0  0  0  0  0  0  0  0  0
   10.5754  -16.2316   27.5551 O   0  0  0  0  0  0  0  0  0  0  0  0
   12.8689  -18.8780   24.2569 O   0  0  0  0  0  0  0  0  0  0  0  0
   10.6484  -18.3598   28.2738 O   0  0  0  0  0  0  0  0  0  0  0  0
  2  7  1  0
  2  1  1  6
  3  2  1  0
  4  3  1  0
  5  9  1  0
  5  4  1  0
  6  5  2  0
  7  8  2  0
 11 10  1  6
 11 12  1  0
 13 11  1  0
 14 13  1  1
 15 14  1  0
 15  7  1  0
 16 18  1  0
 16 14  1  0
 17 16  2  0
 19 23  1  0
 19 18  1  0
 19 20  1  6
 21 22  2  0
 21 20  1  0
 23 26  1  0
 24 23  2  0
 25 21  1  0
M  END
$$$$
