ELD.pdb
     RDKit          3D

 26 25  0  0  1  0  0  0  0  0999 V2000
    8.2426  -17.5477   21.8221 N   0  0  0  0  0  0  0  0  0  0  0  0
    9.6427  -17.1004   21.8839 C   0  0  1  0  0  0  0  0  0  0  0  0
   10.1284  -16.6833   20.5465 C   0  0  0  0  0  0  0  0  0  0  0  0
    9.6509  -17.5810   19.4628 C   0  0  0  0  0  0  0  0  0  0  0  0
   10.1167  -17.1244   18.1381 C   0  0  0  0  0  0  0  0  0  0  0  0
   11.2542  -17.3408   17.6854 O   0  0  0  0  0  0  0  0  0  0  0  0
    9.6773  -15.9485   22.8226 C   0  0  0  0  0  0  0  0  0  0  0  0
   10.6801  -15.2229   23.0290 O   0  0  0  0  0  0  0  0  0  0  0  0
    9.2465  -16.3950   17.3075 O   0  0  0  0  0  0  0  0  0  0  0  0
    7.8529  -11.6516   25.4768 C   0  0  0  0  0  0  0  0  0  0  0  0
    7.1646  -12.9481   25.9218 C   0  0  1  0  0  0  0  0  0  0  0  0
    5.8363  -12.5757   26.4758 C   0  0  0  0  0  0  0  0  0  0  0  0
    7.1953  -13.9490   24.8368 C   0  0  0  0  0  0  0  0  0  0  0  0
    8.5279  -14.5906   24.5819 C   0  0  2  0  0  0  0  0  0  0  0  0
    8.5101  -15.6112   23.5595 N   0  0  0  0  0  0  0  0  0  0  0  0
    9.0842  -15.2128   25.8156 C   0  0  0  0  0  0  0  0  0  0  0  0
    9.3048  -14.4943   26.8151 O   0  0  0  0  0  0  0  0  0  0  0  0
    9.3818  -16.5949   25.9160 N   0  0  0  0  0  0  0  0  0  0  0  0
    9.9143  -17.2466   27.0724 C   0  0  1  0  0  0  0  0  0  0  0  0
    9.1366  -18.5185   27.3422 C   0  0  0  0  0  0  0  0  0  0  0  0
    9.6123  -19.2480   28.5262 C   0  0  0  0  0  0  0  0  0  0  0  0
   10.3658  -18.6778   29.3403 O   0  0  0  0  0  0  0  0  0  0  0  0
   11.3706  -17.5048   26.9799 C   0  0  0  0  0  0  0  0  0  0  0  0
   12.1415  -17.1352   27.9104 O   0  0  0  0  0  0  0  0  0  0  0  0
    9.2369  -20.5504   28.7482 O   0  0  0  0  0  0  0  0  0  0  0  0
   11.9878  -18.1477   25.9098 O   0  0  0  0  0  0  0  0  0  0  0  0
  2  7  1  0
  2  1  1  6
  3  2  1  0
  4  3  1  0
  5  9  1  0
  5  4  1  0
  6  5  2  0
  7  8  2  0
 11 10  1  6
 11 12  1  0
 13 11  1  0
 14 13  1  1
 15 14  1  0
 15  7  1  0
 16 18  1  0
 16 14  1  0
 17 16  2  0
 19 23  1  0
 19 18  1  0
 19 20  1  6
 21 22  2  0
 21 20  1  0
 23 26  1  0
 24 23  2  0
 25 21  1  0
M  END
$$$$
