ELD.pdb
     RDKit          3D

 26 25  0  0  1  0  0  0  0  0999 V2000
    8.3278  -17.7944   17.2884 N   0  0  0  0  0  0  0  0  0  0  0  0
    9.7924  -17.6638   17.2471 C   0  0  1  0  0  0  0  0  0  0  0  0
   10.2379  -17.0618   15.9673 C   0  0  0  0  0  0  0  0  0  0  0  0
   11.4133  -17.7624   15.3881 C   0  0  0  0  0  0  0  0  0  0  0  0
   11.8621  -17.1209   14.1362 C   0  0  0  0  0  0  0  0  0  0  0  0
   11.2972  -16.1466   13.6096 O   0  0  0  0  0  0  0  0  0  0  0  0
   10.1707  -16.7850   18.3846 C   0  0  0  0  0  0  0  0  0  0  0  0
   11.3460  -16.4537   18.6735 O   0  0  0  0  0  0  0  0  0  0  0  0
   12.9968  -17.6162   13.4681 O   0  0  0  0  0  0  0  0  0  0  0  0
    6.6581  -12.7239   20.2271 C   0  0  0  0  0  0  0  0  0  0  0  0
    7.9153  -13.4598   19.7471 C   0  0  1  0  0  0  0  0  0  0  0  0
    8.9149  -12.4265   19.3685 C   0  0  0  0  0  0  0  0  0  0  0  0
    8.3269  -14.4785   20.7335 C   0  0  0  0  0  0  0  0  0  0  0  0
    9.4670  -15.3618   20.3184 C   0  0  2  0  0  0  0  0  0  0  0  0
    9.1567  -16.2609   19.2309 N   0  0  0  0  0  0  0  0  0  0  0  0
    9.9591  -16.1943   21.4514 C   0  0  0  0  0  0  0  0  0  0  0  0
    9.3562  -17.2515   21.7386 O   0  0  0  0  0  0  0  0  0  0  0  0
   11.0893  -15.8445   22.2319 N   0  0  0  0  0  0  0  0  0  0  0  0
   11.6010  -16.5982   23.3344 C   0  0  1  0  0  0  0  0  0  0  0  0
   13.0335  -16.1885   23.6088 C   0  0  0  0  0  0  0  0  0  0  0  0
   13.9406  -16.4672   22.4865 C   0  0  0  0  0  0  0  0  0  0  0  0
   13.7854  -17.5042   21.8110 O   0  0  0  0  0  0  0  0  0  0  0  0
   10.7609  -16.4989   24.5512 C   0  0  0  0  0  0  0  0  0  0  0  0
    9.8516  -15.6246   24.6254 O   0  0  0  0  0  0  0  0  0  0  0  0
   14.9576  -15.5995   22.1712 O   0  0  0  0  0  0  0  0  0  0  0  0
   10.8936  -17.3222   25.6665 O   0  0  0  0  0  0  0  0  0  0  0  0
  2  7  1  0
  2  1  1  6
  3  2  1  0
  4  3  1  0
  5  9  1  0
  5  4  1  0
  6  5  2  0
  7  8  2  0
 11 10  1  1
 11 12  1  0
 13 11  1  0
 14 13  1  1
 15 14  1  0
 15  7  1  0
 16 18  1  0
 16 14  1  0
 17 16  2  0
 19 23  1  0
 19 18  1  0
 19 20  1  1
 21 22  2  0
 21 20  1  0
 23 26  1  0
 24 23  2  0
 25 21  1  0
M  END
$$$$
