ELD.pdb
     RDKit          3D

 26 25  0  0  1  0  0  0  0  0999 V2000
    7.8055  -16.7692   22.2650 N   0  0  0  0  0  0  0  0  0  0  0  0
    9.2619  -16.5652   22.3049 C   0  0  1  0  0  0  0  0  0  0  0  0
    9.7360  -15.8684   21.0850 C   0  0  0  0  0  0  0  0  0  0  0  0
    9.3407  -16.5729   19.8378 C   0  0  0  0  0  0  0  0  0  0  0  0
   10.5031  -16.8082   18.9582 C   0  0  0  0  0  0  0  0  0  0  0  0
   10.4366  -17.3600   17.8461 O   0  0  0  0  0  0  0  0  0  0  0  0
    9.5400  -15.7372   23.5075 C   0  0  0  0  0  0  0  0  0  0  0  0
   10.6644  -15.2702   23.8109 O   0  0  0  0  0  0  0  0  0  0  0  0
   11.7833  -16.3961   19.3712 O   0  0  0  0  0  0  0  0  0  0  0  0
    5.6022  -12.4358   25.9023 C   0  0  0  0  0  0  0  0  0  0  0  0
    6.9143  -12.9585   25.3042 C   0  0  1  0  0  0  0  0  0  0  0  0
    7.7581  -11.7759   24.9882 C   0  0  0  0  0  0  0  0  0  0  0  0
    7.4984  -14.0018   26.1705 C   0  0  0  0  0  0  0  0  0  0  0  0
    8.7141  -14.6932   25.6259 C   0  0  2  0  0  0  0  0  0  0  0  0
    8.4820  -15.4291   24.4046 N   0  0  0  0  0  0  0  0  0  0  0  0
    9.2925  -15.6478   26.6123 C   0  0  0  0  0  0  0  0  0  0  0  0
    9.6613  -15.2226   27.7290 O   0  0  0  0  0  0  0  0  0  0  0  0
    9.4497  -17.0311   26.3465 N   0  0  0  0  0  0  0  0  0  0  0  0
    9.9806  -17.9957   27.2592 C   0  0  1  0  0  0  0  0  0  0  0  0
    9.4280  -19.3669   26.9278 C   0  0  0  0  0  0  0  0  0  0  0  0
    9.9054  -20.4188   27.8364 C   0  0  0  0  0  0  0  0  0  0  0  0
   10.7832  -21.2160   27.4496 O   0  0  0  0  0  0  0  0  0  0  0  0
   11.4618  -18.0003   27.3097 C   0  0  0  0  0  0  0  0  0  0  0  0
   12.0602  -18.3690   28.3597 O   0  0  0  0  0  0  0  0  0  0  0  0
    9.3975  -20.5351   29.1072 O   0  0  0  0  0  0  0  0  0  0  0  0
   12.2847  -17.6170   26.2537 O   0  0  0  0  0  0  0  0  0  0  0  0
  2  7  1  0
  2  1  1  6
  3  2  1  0
  4  3  1  0
  5  9  1  0
  5  4  1  0
  6  5  2  0
  7  8  2  0
 11 10  1  1
 11 12  1  0
 13 11  1  0
 14 13  1  1
 15 14  1  0
 15  7  1  0
 16 18  1  0
 16 14  1  0
 17 16  2  0
 19 23  1  0
 19 18  1  0
 19 20  1  6
 21 22  2  0
 21 20  1  0
 23 26  1  0
 24 23  2  0
 25 21  1  0
M  END
$$$$
