ELD.pdb
     RDKit          3D

 26 25  0  0  1  0  0  0  0  0999 V2000
   11.3129  -18.0398   17.6585 N   0  0  0  0  0  0  0  0  0  0  0  0
   10.0895  -17.8148   18.4438 C   0  0  1  0  0  0  0  0  0  0  0  0
    9.7326  -19.0195   19.2312 C   0  0  0  0  0  0  0  0  0  0  0  0
   10.6345  -20.1676   18.9542 C   0  0  0  0  0  0  0  0  0  0  0  0
   10.4460  -21.2526   19.9377 C   0  0  0  0  0  0  0  0  0  0  0  0
    9.6905  -21.1789   20.9222 O   0  0  0  0  0  0  0  0  0  0  0  0
   10.3751  -16.6751   19.3541 C   0  0  0  0  0  0  0  0  0  0  0  0
   11.4993  -16.1360   19.4956 O   0  0  0  0  0  0  0  0  0  0  0  0
   11.1494  -22.4613   19.7841 O   0  0  0  0  0  0  0  0  0  0  0  0
    6.4077  -12.8799   20.2943 C   0  0  0  0  0  0  0  0  0  0  0  0
    7.7781  -13.5034   20.0017 C   0  0  1  0  0  0  0  0  0  0  0  0
    8.6031  -12.4633   19.3323 C   0  0  0  0  0  0  0  0  0  0  0  0
    8.3299  -14.1342   21.2172 C   0  0  0  0  0  0  0  0  0  0  0  0
    9.5420  -14.9946   21.0100 C   0  0  2  0  0  0  0  0  0  0  0  0
    9.3252  -16.1268   20.1392 N   0  0  0  0  0  0  0  0  0  0  0  0
   10.0677  -15.5246   22.2991 C   0  0  0  0  0  0  0  0  0  0  0  0
   10.4010  -14.7220   23.1982 O   0  0  0  0  0  0  0  0  0  0  0  0
   10.2128  -16.9098   22.5619 N   0  0  0  0  0  0  0  0  0  0  0  0
   10.7575  -17.4742   23.7578 C   0  0  1  0  0  0  0  0  0  0  0  0
   10.2763  -18.9026   23.9106 C   0  0  0  0  0  0  0  0  0  0  0  0
   10.7830  -19.5577   25.1248 C   0  0  0  0  0  0  0  0  0  0  0  0
   11.3170  -18.8711   26.0187 O   0  0  0  0  0  0  0  0  0  0  0  0
   12.2352  -17.3842   23.8269 C   0  0  0  0  0  0  0  0  0  0  0  0
   12.9155  -17.2851   22.7667 O   0  0  0  0  0  0  0  0  0  0  0  0
   10.6753  -20.9172   25.2882 O   0  0  0  0  0  0  0  0  0  0  0  0
   12.9684  -17.3998   25.0107 O   0  0  0  0  0  0  0  0  0  0  0  0
  2  7  1  0
  2  1  1  1
  3  2  1  0
  4  3  1  0
  5  9  1  0
  5  4  1  0
  6  5  2  0
  7  8  2  0
 11 10  1  1
 11 12  1  0
 13 11  1  0
 14 13  1  1
 15 14  1  0
 15  7  1  0
 16 18  1  0
 16 14  1  0
 17 16  2  0
 19 23  1  0
 19 18  1  0
 19 20  1  6
 21 22  2  0
 21 20  1  0
 23 26  1  0
 24 23  2  0
 25 21  1  0
M  END
$$$$
