ELD.pdb
     RDKit          3D

 26 25  0  0  1  0  0  0  0  0999 V2000
    7.2771  -16.9098   21.7527 N   0  0  0  0  0  0  0  0  0  0  0  0
    8.7471  -16.9572   21.7826 C   0  0  1  0  0  0  0  0  0  0  0  0
    9.3262  -16.2832   20.5955 C   0  0  0  0  0  0  0  0  0  0  0  0
    8.8245  -16.8519   19.3176 C   0  0  0  0  0  0  0  0  0  0  0  0
    9.4643  -16.2097   18.1521 C   0  0  0  0  0  0  0  0  0  0  0  0
    9.0065  -15.2140   17.5651 O   0  0  0  0  0  0  0  0  0  0  0  0
    9.1676  -16.2567   23.0241 C   0  0  0  0  0  0  0  0  0  0  0  0
   10.3461  -15.9188   23.2916 O   0  0  0  0  0  0  0  0  0  0  0  0
   10.6692  -16.7297   17.6451 O   0  0  0  0  0  0  0  0  0  0  0  0
    5.9559  -12.5994   25.9134 C   0  0  0  0  0  0  0  0  0  0  0  0
    7.1826  -13.2559   25.2679 C   0  0  1  0  0  0  0  0  0  0  0  0
    8.2588  -12.2313   25.2207 C   0  0  0  0  0  0  0  0  0  0  0  0
    7.4909  -14.5394   25.9295 C   0  0  0  0  0  0  0  0  0  0  0  0
    8.5659  -15.3626   25.2822 C   0  0  2  0  0  0  0  0  0  0  0  0
    8.1941  -15.9275   24.0056 N   0  0  0  0  0  0  0  0  0  0  0  0
    8.9958  -16.4907   26.1547 C   0  0  0  0  0  0  0  0  0  0  0  0
    8.1429  -17.3151   26.5506 O   0  0  0  0  0  0  0  0  0  0  0  0
   10.3389  -16.6796   26.5659 N   0  0  0  0  0  0  0  0  0  0  0  0
   10.8127  -17.7533   27.3834 C   0  0  1  0  0  0  0  0  0  0  0  0
   12.2015  -18.1593   26.9343 C   0  0  0  0  0  0  0  0  0  0  0  0
   12.7684  -19.2588   27.7279 C   0  0  0  0  0  0  0  0  0  0  0  0
   14.0065  -19.3850   27.8106 O   0  0  0  0  0  0  0  0  0  0  0  0
   10.7742  -17.4462   28.8327 C   0  0  0  0  0  0  0  0  0  0  0  0
   10.9061  -16.2550   29.2331 O   0  0  0  0  0  0  0  0  0  0  0  0
   11.9517  -20.1496   28.3806 O   0  0  0  0  0  0  0  0  0  0  0  0
   10.5971  -18.3989   29.8329 O   0  0  0  0  0  0  0  0  0  0  0  0
  2  7  1  0
  2  1  1  6
  3  2  1  0
  4  3  1  0
  5  9  1  0
  5  4  1  0
  6  5  2  0
  7  8  2  0
 11 10  1  1
 11 12  1  0
 13 11  1  0
 14 13  1  1
 15 14  1  0
 15  7  1  0
 16 18  1  0
 16 14  1  0
 17 16  2  0
 19 23  1  0
 19 18  1  0
 19 20  1  6
 21 22  2  0
 21 20  1  0
 23 26  1  0
 24 23  2  0
 25 21  1  0
M  END
$$$$
