FRG.pdb
     RDKit          3D

 27 27  0  0  1  0  0  0  0  0999 V2000
    6.7742  -18.1007   26.9137 N   0  0  0  0  0  0  0  0  0  0  0  0
    6.7966  -16.7543   26.4108 C   0  0  1  0  0  0  0  0  0  0  0  0
    7.5342  -15.8994   27.4164 C   0  0  0  0  0  0  0  0  0  0  0  0
    7.4613  -14.4627   27.0964 C   0  0  0  0  0  0  0  0  0  0  0  0
    6.2592  -13.7770   26.9988 C   0  0  0  0  0  0  0  0  0  0  0  0
    6.3054  -12.4397   26.6954 C   0  0  0  0  0  0  0  0  0  0  0  0
    7.4936  -11.7649   26.4873 C   0  0  0  0  0  0  0  0  0  0  0  0
    8.6957  -12.4409   26.5827 C   0  0  0  0  0  0  0  0  0  0  0  0
    8.6517  -13.7908   26.8888 C   0  0  0  0  0  0  0  0  0  0  0  0
    7.6319  -16.7238   25.1547 C   0  0  0  0  0  0  0  0  0  0  0  0
    8.6434  -17.4633   25.0731 O   0  0  0  0  0  0  0  0  0  0  0  0
    9.6174  -14.3722   17.7373 N   0  0  0  0  0  0  0  0  0  0  0  0
    8.6723  -13.3225   18.0039 C   0  0  0  0  0  0  0  0  0  0  0  0
    8.8887  -12.1228   17.5893 N   0  0  0  0  0  0  0  0  0  0  0  0
    7.4862  -13.5854   18.7264 N   0  0  0  0  0  0  0  0  0  0  0  0
    7.1488  -14.8911   19.2227 C   0  0  0  0  0  0  0  0  0  0  0  0
    8.0489  -15.2791   20.3811 C   0  0  0  0  0  0  0  0  0  0  0  0
    7.2836  -15.2445   21.6779 C   0  0  0  0  0  0  0  0  0  0  0  0
    8.0436  -15.7569   22.8507 C   0  0  2  0  0  0  0  0  0  0  0  0
    7.2956  -15.8770   24.0681 N   0  0  0  0  0  0  0  0  0  0  0  0
    9.3694  -15.0957   23.0578 C   0  0  0  0  0  0  0  0  0  0  0  0
    9.4792  -14.0539   23.7392 O   0  0  0  0  0  0  0  0  0  0  0  0
    8.2031  -11.3582   17.7468 N   0  0  0  0  0  0  0  0  0  0  0  0
   10.5434  -15.6227   22.4927 C   0  0  0  0  0  0  0  0  0  0  0  0
   11.8441  -14.9699   22.6181 C   0  0  0  0  0  0  0  0  0  0  0  0
   12.8702  -15.6090   21.7972 O   0  0  0  0  0  0  0  0  0  0  0  0
   12.7004  -16.7780   21.3712 O   0  0  0  0  0  0  0  0  0  0  0  0
  2  1  1  1
  2  3  1  0
  2 10  1  0
  4  3  1  0
  4  5  2  0
  6  5  1  0
  7  6  2  0
  8  9  2  0
  8  7  1  0
  9  4  1  0
 10 11  2  0
 13 15  1  0
 13 12  1  0
 14 13  2  0
 16 15  1  0
 17 16  1  0
 17 18  1  0
 19 18  1  6
 20 19  1  0
 20 10  1  0
 21 22  2  0
 21 19  1  0
 23 21  1  0
 24 23  1  0
 24 25  1  0
 25 27  1  0
 26 25  2  0
M  END
$$$$
