FRG.pdb
     RDKit          3D

 27 27  0  0  1  0  0  0  0  0999 V2000
    7.8995  -16.8748   27.2022 N   0  0  0  0  0  0  0  0  0  0  0  0
    7.7641  -16.0537   26.0302 C   0  0  1  0  0  0  0  0  0  0  0  0
    8.5489  -14.7828   26.2652 C   0  0  0  0  0  0  0  0  0  0  0  0
    7.6832  -13.6409   26.6094 C   0  0  0  0  0  0  0  0  0  0  0  0
    7.9710  -12.7697   27.6500 C   0  0  0  0  0  0  0  0  0  0  0  0
    7.0968  -11.7387   27.8849 C   0  0  0  0  0  0  0  0  0  0  0  0
    5.9561  -11.5439   27.1289 C   0  0  0  0  0  0  0  0  0  0  0  0
    5.6622  -12.4074   26.0902 C   0  0  0  0  0  0  0  0  0  0  0  0
    6.5431  -13.4490   25.8511 C   0  0  0  0  0  0  0  0  0  0  0  0
    8.4430  -16.7479   24.8753 C   0  0  0  0  0  0  0  0  0  0  0  0
    8.7742  -17.9534   24.9938 O   0  0  0  0  0  0  0  0  0  0  0  0
    9.1494  -14.0886   17.3981 N   0  0  0  0  0  0  0  0  0  0  0  0
    8.5735  -13.0782   18.2429 C   0  0  0  0  0  0  0  0  0  0  0  0
    9.0596  -11.8860   18.2660 N   0  0  0  0  0  0  0  0  0  0  0  0
    7.4623  -13.3721   19.0654 N   0  0  0  0  0  0  0  0  0  0  0  0
    7.2413  -14.6692   19.6431 C   0  0  0  0  0  0  0  0  0  0  0  0
    8.2442  -14.9479   20.7474 C   0  0  0  0  0  0  0  0  0  0  0  0
    8.0525  -16.3377   21.2952 C   0  0  0  0  0  0  0  0  0  0  0  0
    8.9825  -16.6929   22.4018 C   0  0  2  0  0  0  0  0  0  0  0  0
    8.7128  -16.0649   23.6622 N   0  0  0  0  0  0  0  0  0  0  0  0
   10.4301  -16.6284   22.0297 C   0  0  0  0  0  0  0  0  0  0  0  0
   10.8628  -17.1807   20.9956 O   0  0  0  0  0  0  0  0  0  0  0  0
    8.7027  -11.1630   18.9212 N   0  0  0  0  0  0  0  0  0  0  0  0
   11.3592  -15.9426   22.8309 C   0  0  0  0  0  0  0  0  0  0  0  0
   12.7123  -15.6276   22.3801 C   0  0  0  0  0  0  0  0  0  0  0  0
   13.6824  -16.6474   22.7726 O   0  0  0  0  0  0  0  0  0  0  0  0
   13.2975  -17.7008   23.3374 O   0  0  0  0  0  0  0  0  0  0  0  0
  2  1  1  1
  2  3  1  0
  2 10  1  0
  4  3  1  0
  4  5  2  0
  6  5  1  0
  7  6  2  0
  8  9  2  0
  8  7  1  0
  9  4  1  0
 10 11  2  0
 13 15  1  0
 13 12  1  0
 14 13  2  0
 16 15  1  0
 17 16  1  0
 17 18  1  0
 19 18  1  6
 20 19  1  0
 20 10  1  0
 21 22  2  0
 21 19  1  0
 23 21  1  0
 24 23  1  0
 24 25  1  0
 25 27  1  0
 26 25  2  0
M  END
$$$$
