FRG.pdb
     RDKit          3D

 27 27  0  0  1  0  0  0  0  0999 V2000
    5.9923  -17.9794   25.2207 N   0  0  0  0  0  0  0  0  0  0  0  0
    6.3288  -16.5870   25.1011 C   0  0  1  0  0  0  0  0  0  0  0  0
    7.1803  -16.2150   26.2938 C   0  0  0  0  0  0  0  0  0  0  0  0
    7.3073  -14.7566   26.4632 C   0  0  0  0  0  0  0  0  0  0  0  0
    6.2141  -13.9025   26.4466 C   0  0  0  0  0  0  0  0  0  0  0  0
    6.4449  -12.5604   26.6137 C   0  0  0  0  0  0  0  0  0  0  0  0
    7.7128  -12.0407   26.7951 C   0  0  0  0  0  0  0  0  0  0  0  0
    8.8074  -12.8849   26.8129 C   0  0  0  0  0  0  0  0  0  0  0  0
    8.5769  -14.2401   26.6445 C   0  0  0  0  0  0  0  0  0  0  0  0
    7.2144  -16.4081   23.8926 C   0  0  0  0  0  0  0  0  0  0  0  0
    7.8838  -17.3843   23.4734 O   0  0  0  0  0  0  0  0  0  0  0  0
    8.3883  -12.9598   16.1728 N   0  0  0  0  0  0  0  0  0  0  0  0
    8.6185  -14.3313   16.5363 C   0  0  0  0  0  0  0  0  0  0  0  0
    8.7603  -15.2359   15.6309 N   0  0  0  0  0  0  0  0  0  0  0  0
    8.6938  -14.7154   17.8945 N   0  0  0  0  0  0  0  0  0  0  0  0
    7.6464  -14.4448   18.8404 C   0  0  0  0  0  0  0  0  0  0  0  0
    8.1174  -13.4726   19.9061 C   0  0  0  0  0  0  0  0  0  0  0  0
    7.4068  -13.7329   21.2082 C   0  0  0  0  0  0  0  0  0  0  0  0
    7.8601  -14.9602   21.9181 C   0  0  2  0  0  0  0  0  0  0  0  0
    7.3034  -15.1608   23.2241 N   0  0  0  0  0  0  0  0  0  0  0  0
    9.3407  -15.1727   21.8894 C   0  0  0  0  0  0  0  0  0  0  0  0
    9.9892  -15.1013   20.8236 O   0  0  0  0  0  0  0  0  0  0  0  0
    9.0264  -16.2114   15.8700 N   0  0  0  0  0  0  0  0  0  0  0  0
   10.0589  -15.4610   23.0626 C   0  0  0  0  0  0  0  0  0  0  0  0
   11.5182  -15.5096   23.1051 C   0  0  0  0  0  0  0  0  0  0  0  0
   12.0307  -15.6921   24.4613 O   0  0  0  0  0  0  0  0  0  0  0  0
   11.2386  -15.9031   25.4125 O   0  0  0  0  0  0  0  0  0  0  0  0
  2  1  1  1
  2  3  1  0
  2 10  1  0
  4  3  1  0
  4  5  2  0
  6  5  1  0
  7  6  2  0
  8  9  2  0
  8  7  1  0
  9  4  1  0
 10 11  2  0
 13 15  1  0
 13 12  1  0
 14 13  2  0
 16 15  1  0
 17 16  1  0
 17 18  1  0
 19 18  1  1
 20 19  1  0
 20 10  1  0
 21 22  2  0
 21 19  1  0
 23 21  1  0
 24 23  1  0
 24 25  1  0
 25 27  1  0
 26 25  2  0
M  END
$$$$
