FRG.pdb
     RDKit          3D

 27 27  0  0  1  0  0  0  0  0999 V2000
    6.6240  -17.2571   26.4653 N   0  0  0  0  0  0  0  0  0  0  0  0
    7.0906  -16.1608   25.6611 C   0  0  1  0  0  0  0  0  0  0  0  0
    7.9734  -15.2947   26.5308 C   0  0  0  0  0  0  0  0  0  0  0  0
    7.4260  -13.9392   26.7170 C   0  0  0  0  0  0  0  0  0  0  0  0
    8.1102  -12.9419   27.3968 C   0  0  0  0  0  0  0  0  0  0  0  0
    7.5084  -11.7143   27.5125 C   0  0  0  0  0  0  0  0  0  0  0  0
    6.2612  -11.4445   26.9814 C   0  0  0  0  0  0  0  0  0  0  0  0
    5.5728  -12.4327   26.3027 C   0  0  0  0  0  0  0  0  0  0  0  0
    6.1782  -13.6727   26.1845 C   0  0  0  0  0  0  0  0  0  0  0  0
    7.9890  -16.7065   24.5785 C   0  0  0  0  0  0  0  0  0  0  0  0
    8.5481  -17.8179   24.7485 O   0  0  0  0  0  0  0  0  0  0  0  0
    9.5932  -13.8285   18.3022 N   0  0  0  0  0  0  0  0  0  0  0  0
    8.5576  -12.9235   18.7202 C   0  0  0  0  0  0  0  0  0  0  0  0
    8.7310  -11.6495   18.6502 N   0  0  0  0  0  0  0  0  0  0  0  0
    7.3281  -13.4131   19.2167 N   0  0  0  0  0  0  0  0  0  0  0  0
    7.0852  -14.8086   19.4586 C   0  0  0  0  0  0  0  0  0  0  0  0
    7.4181  -15.1753   20.8929 C   0  0  0  0  0  0  0  0  0  0  0  0
    8.6513  -16.0385   20.9438 C   0  0  0  0  0  0  0  0  0  0  0  0
    9.0912  -16.3966   22.3199 C   0  0  2  0  0  0  0  0  0  0  0  0
    8.2121  -15.9883   23.3764 N   0  0  0  0  0  0  0  0  0  0  0  0
   10.5223  -16.0708   22.6097 C   0  0  0  0  0  0  0  0  0  0  0  0
   10.8449  -15.0159   23.1969 O   0  0  0  0  0  0  0  0  0  0  0  0
    7.9876  -10.9806   18.9321 N   0  0  0  0  0  0  0  0  0  0  0  0
   11.5593  -16.9410   22.2318 C   0  0  0  0  0  0  0  0  0  0  0  0
   12.9714  -16.5846   22.3436 C   0  0  0  0  0  0  0  0  0  0  0  0
   13.5751  -17.0786   23.5792 O   0  0  0  0  0  0  0  0  0  0  0  0
   14.7951  -16.8868   23.8066 O   0  0  0  0  0  0  0  0  0  0  0  0
  2  1  1  1
  2  3  1  0
  2 10  1  0
  4  3  1  0
  4  5  2  0
  6  5  1  0
  7  6  2  0
  8  9  2  0
  8  7  1  0
  9  4  1  0
 10 11  2  0
 13 15  1  0
 13 12  1  0
 14 13  2  0
 16 15  1  0
 17 16  1  0
 17 18  1  0
 19 18  1  6
 20 19  1  0
 20 10  1  0
 21 22  2  0
 21 19  1  0
 23 21  1  0
 24 23  1  0
 24 25  1  0
 25 27  1  0
 26 25  2  0
M  END
$$$$
