FRG.pdb
     RDKit          3D

 27 27  0  0  1  0  0  0  0  0999 V2000
    6.4685  -18.1610   25.9527 N   0  0  0  0  0  0  0  0  0  0  0  0
    6.6021  -16.7569   25.6758 C   0  0  1  0  0  0  0  0  0  0  0  0
    7.3465  -16.1283   26.8320 C   0  0  0  0  0  0  0  0  0  0  0  0
    7.4053  -14.6591   26.7328 C   0  0  0  0  0  0  0  0  0  0  0  0
    6.2684  -13.8666   26.6679 C   0  0  0  0  0  0  0  0  0  0  0  0
    6.4368  -12.5079   26.5773 C   0  0  0  0  0  0  0  0  0  0  0  0
    7.6843  -11.9134   26.5491 C   0  0  0  0  0  0  0  0  0  0  0  0
    8.8221  -12.6959   26.6134 C   0  0  0  0  0  0  0  0  0  0  0  0
    8.6547  -14.0676   26.7049 C   0  0  0  0  0  0  0  0  0  0  0  0
    7.4949  -16.5868   24.4714 C   0  0  0  0  0  0  0  0  0  0  0  0
    8.4368  -17.3966   24.2874 O   0  0  0  0  0  0  0  0  0  0  0  0
    8.7534  -14.1293   15.7212 N   0  0  0  0  0  0  0  0  0  0  0  0
    8.0402  -14.0682   16.9677 C   0  0  0  0  0  0  0  0  0  0  0  0
    6.9992  -14.7998   17.1654 N   0  0  0  0  0  0  0  0  0  0  0  0
    8.4667  -13.2042   18.0018 N   0  0  0  0  0  0  0  0  0  0  0  0
    7.7791  -13.0939   19.2588 C   0  0  0  0  0  0  0  0  0  0  0  0
    8.5008  -13.8752   20.3410 C   0  0  0  0  0  0  0  0  0  0  0  0
    7.5312  -14.3249   21.4022 C   0  0  0  0  0  0  0  0  0  0  0  0
    8.1100  -15.2638   22.4016 C   0  0  2  0  0  0  0  0  0  0  0  0
    7.2895  -15.5317   23.5466 N   0  0  0  0  0  0  0  0  0  0  0  0
    9.5283  -14.9656   22.7726 C   0  0  0  0  0  0  0  0  0  0  0  0
    9.8134  -14.0564   23.5811 O   0  0  0  0  0  0  0  0  0  0  0  0
    6.5122  -14.8207   18.0830 N   0  0  0  0  0  0  0  0  0  0  0  0
   10.5950  -15.6985   22.2246 C   0  0  0  0  0  0  0  0  0  0  0  0
   11.9885  -15.2775   22.3448 C   0  0  0  0  0  0  0  0  0  0  0  0
   12.7060  -16.0143   23.3829 O   0  0  0  0  0  0  0  0  0  0  0  0
   13.9330  -15.8175   23.5633 O   0  0  0  0  0  0  0  0  0  0  0  0
  2  1  1  1
  2  3  1  0
  2 10  1  0
  4  3  1  0
  4  5  2  0
  6  5  1  0
  7  6  2  0
  8  9  2  0
  8  7  1  0
  9  4  1  0
 10 11  2  0
 13 15  1  0
 13 12  1  0
 14 13  2  0
 16 15  1  0
 17 16  1  0
 17 18  1  0
 19 18  1  1
 20 19  1  0
 20 10  1  0
 21 22  2  0
 21 19  1  0
 23 21  1  0
 24 23  1  0
 24 25  1  0
 25 27  1  0
 26 25  2  0
M  END
$$$$
