FRG.pdb
     RDKit          3D

 27 27  0  0  1  0  0  0  0  0999 V2000
    6.3408  -17.1659   25.8159 N   0  0  0  0  0  0  0  0  0  0  0  0
    6.8988  -15.9696   25.2470 C   0  0  1  0  0  0  0  0  0  0  0  0
    7.7556  -15.3125   26.3054 C   0  0  0  0  0  0  0  0  0  0  0  0
    7.3205  -13.9378   26.6098 C   0  0  0  0  0  0  0  0  0  0  0  0
    7.7464  -13.2495   27.7366 C   0  0  0  0  0  0  0  0  0  0  0  0
    7.2795  -11.9731   27.9243 C   0  0  0  0  0  0  0  0  0  0  0  0
    6.4117  -11.3610   27.0395 C   0  0  0  0  0  0  0  0  0  0  0  0
    5.9825  -12.0400   25.9144 C   0  0  0  0  0  0  0  0  0  0  0  0
    6.4524  -13.3285   25.7228 C   0  0  0  0  0  0  0  0  0  0  0  0
    7.8440  -16.3600   24.1375 C   0  0  0  0  0  0  0  0  0  0  0  0
    8.3794  -17.4956   24.1597 O   0  0  0  0  0  0  0  0  0  0  0  0
    7.7666  -12.5112   16.5490 N   0  0  0  0  0  0  0  0  0  0  0  0
    8.2635  -13.8471   16.7348 C   0  0  0  0  0  0  0  0  0  0  0  0
    8.7456  -14.5125   15.7434 N   0  0  0  0  0  0  0  0  0  0  0  0
    8.2332  -14.4579   18.0091 N   0  0  0  0  0  0  0  0  0  0  0  0
    7.4964  -13.9146   19.1168 C   0  0  0  0  0  0  0  0  0  0  0  0
    7.5873  -14.8260   20.3266 C   0  0  0  0  0  0  0  0  0  0  0  0
    9.0048  -14.8922   20.8314 C   0  0  0  0  0  0  0  0  0  0  0  0
    9.1686  -15.6602   22.0960 C   0  0  2  0  0  0  0  0  0  0  0  0
    8.1373  -15.4696   23.0736 N   0  0  0  0  0  0  0  0  0  0  0  0
   10.5397  -15.5785   22.6888 C   0  0  0  0  0  0  0  0  0  0  0  0
   10.7729  -14.8804   23.6987 O   0  0  0  0  0  0  0  0  0  0  0  0
    9.1428  -15.4647   15.8658 N   0  0  0  0  0  0  0  0  0  0  0  0
   11.6188  -16.2855   22.1311 C   0  0  0  0  0  0  0  0  0  0  0  0
   12.9776  -16.2023   22.6605 C   0  0  0  0  0  0  0  0  0  0  0  0
   13.9543  -16.8607   21.7958 O   0  0  0  0  0  0  0  0  0  0  0  0
   13.5690  -17.5717   20.8351 O   0  0  0  0  0  0  0  0  0  0  0  0
  2  1  1  1
  2  3  1  0
  2 10  1  0
  4  3  1  0
  4  5  2  0
  6  5  1  0
  7  6  2  0
  8  9  2  0
  8  7  1  0
  9  4  1  0
 10 11  2  0
 13 15  1  0
 13 12  1  0
 14 13  2  0
 16 15  1  0
 17 16  1  0
 17 18  1  0
 19 18  1  6
 20 19  1  0
 20 10  1  0
 21 22  2  0
 21 19  1  0
 23 21  1  0
 24 23  1  0
 24 25  1  0
 25 27  1  0
 26 25  2  0
M  END
$$$$
