FRG.pdb
     RDKit          3D

 27 27  0  0  1  0  0  0  0  0999 V2000
    7.2000  -18.3541   26.7954 N   0  0  0  0  0  0  0  0  0  0  0  0
    7.2767  -17.0207   26.2640 C   0  0  1  0  0  0  0  0  0  0  0  0
    8.2954  -16.2577   27.0800 C   0  0  0  0  0  0  0  0  0  0  0  0
    8.1132  -14.7982   26.9878 C   0  0  0  0  0  0  0  0  0  0  0  0
    9.1464  -13.8989   27.2079 C   0  0  0  0  0  0  0  0  0  0  0  0
    8.8674  -12.5601   27.0962 C   0  0  0  0  0  0  0  0  0  0  0  0
    7.6088  -12.0868   26.7763 C   0  0  0  0  0  0  0  0  0  0  0  0
    6.5738  -12.9764   26.5555 C   0  0  0  0  0  0  0  0  0  0  0  0
    6.8530  -14.3282   26.6676 C   0  0  0  0  0  0  0  0  0  0  0  0
    7.8400  -17.0916   24.8660 C   0  0  0  0  0  0  0  0  0  0  0  0
    8.4534  -18.1258   24.5041 O   0  0  0  0  0  0  0  0  0  0  0  0
    7.7254  -13.3245   16.7792 N   0  0  0  0  0  0  0  0  0  0  0  0
    7.5955  -12.7549   18.0924 C   0  0  0  0  0  0  0  0  0  0  0  0
    8.2711  -11.7103   18.4251 N   0  0  0  0  0  0  0  0  0  0  0  0
    6.7240  -13.3292   19.0456 N   0  0  0  0  0  0  0  0  0  0  0  0
    6.7910  -14.7124   19.4295 C   0  0  0  0  0  0  0  0  0  0  0  0
    8.0040  -14.9735   20.3030 C   0  0  0  0  0  0  0  0  0  0  0  0
    7.6342  -14.8805   21.7601 C   0  0  0  0  0  0  0  0  0  0  0  0
    8.1121  -16.0224   22.5867 C   0  0  2  0  0  0  0  0  0  0  0  0
    7.6894  -16.0140   23.9568 N   0  0  0  0  0  0  0  0  0  0  0  0
    9.5719  -16.3153   22.4412 C   0  0  0  0  0  0  0  0  0  0  0  0
   10.0838  -16.5391   21.3233 O   0  0  0  0  0  0  0  0  0  0  0  0
    8.2244  -11.3117   19.3834 N   0  0  0  0  0  0  0  0  0  0  0  0
   10.4238  -16.3495   23.5585 C   0  0  0  0  0  0  0  0  0  0  0  0
   11.8692  -16.5276   23.4463 C   0  0  0  0  0  0  0  0  0  0  0  0
   12.6117  -15.6322   24.3306 O   0  0  0  0  0  0  0  0  0  0  0  0
   12.0104  -14.9839   25.2222 O   0  0  0  0  0  0  0  0  0  0  0  0
  2  1  1  1
  2  3  1  0
  2 10  1  0
  4  3  1  0
  4  5  2  0
  6  5  1  0
  7  6  2  0
  8  9  2  0
  8  7  1  0
  9  4  1  0
 10 11  2  0
 13 15  1  0
 13 12  1  0
 14 13  2  0
 16 15  1  0
 17 16  1  0
 17 18  1  0
 19 18  1  1
 20 19  1  0
 20 10  1  0
 21 22  2  0
 21 19  1  0
 23 21  1  0
 24 23  1  0
 24 25  1  0
 25 27  1  0
 26 25  2  0
M  END
$$$$
