FRG.pdb
     RDKit          3D

 27 27  0  0  1  0  0  0  0  0999 V2000
    6.6378  -17.2983   26.3477 N   0  0  0  0  0  0  0  0  0  0  0  0
    6.9864  -16.1222   25.5983 C   0  0  1  0  0  0  0  0  0  0  0  0
    7.8129  -15.2312   26.4978 C   0  0  0  0  0  0  0  0  0  0  0  0
    7.2383  -13.8813   26.6366 C   0  0  0  0  0  0  0  0  0  0  0  0
    6.2034  -13.4216   25.8350 C   0  0  0  0  0  0  0  0  0  0  0  0
    5.7428  -12.1470   26.0488 C   0  0  0  0  0  0  0  0  0  0  0  0
    6.2695  -11.3194   27.0226 C   0  0  0  0  0  0  0  0  0  0  0  0
    7.3009  -11.7698   27.8254 C   0  0  0  0  0  0  0  0  0  0  0  0
    7.7675  -13.0561   27.6116 C   0  0  0  0  0  0  0  0  0  0  0  0
    7.9005  -16.5255   24.4676 C   0  0  0  0  0  0  0  0  0  0  0  0
    8.4421  -17.6581   24.4916 O   0  0  0  0  0  0  0  0  0  0  0  0
    8.5817  -12.2662   17.2668 N   0  0  0  0  0  0  0  0  0  0  0  0
    8.4786  -13.6995   17.2355 C   0  0  0  0  0  0  0  0  0  0  0  0
    8.5024  -14.3355   16.1160 N   0  0  0  0  0  0  0  0  0  0  0  0
    8.3490  -14.4404   18.4322 N   0  0  0  0  0  0  0  0  0  0  0  0
    7.2493  -14.2674   19.3410 C   0  0  0  0  0  0  0  0  0  0  0  0
    7.4053  -15.1628   20.5561 C   0  0  0  0  0  0  0  0  0  0  0  0
    8.8244  -15.1260   21.0594 C   0  0  0  0  0  0  0  0  0  0  0  0
    9.0555  -15.9203   22.2969 C   0  0  2  0  0  0  0  0  0  0  0  0
    8.1577  -15.6505   23.3819 N   0  0  0  0  0  0  0  0  0  0  0  0
   10.4847  -15.9675   22.7364 C   0  0  0  0  0  0  0  0  0  0  0  0
   11.0068  -15.0188   23.3600 O   0  0  0  0  0  0  0  0  0  0  0  0
    8.5692  -15.3716   16.0775 N   0  0  0  0  0  0  0  0  0  0  0  0
   11.2950  -17.0830   22.4638 C   0  0  0  0  0  0  0  0  0  0  0  0
   12.6844  -17.1783   22.9045 C   0  0  0  0  0  0  0  0  0  0  0  0
   13.6315  -16.9753   21.8106 O   0  0  0  0  0  0  0  0  0  0  0  0
   14.8666  -17.0600   22.0209 O   0  0  0  0  0  0  0  0  0  0  0  0
  2  1  1  1
  2  3  1  0
  2 10  1  0
  4  3  1  0
  4  5  2  0
  6  5  1  0
  7  6  2  0
  8  9  2  0
  8  7  1  0
  9  4  1  0
 10 11  2  0
 13 15  1  0
 13 12  1  0
 14 13  2  0
 16 15  1  0
 17 16  1  0
 17 18  1  0
 19 18  1  6
 20 19  1  0
 20 10  1  0
 21 22  2  0
 21 19  1  0
 23 21  1  0
 24 23  1  0
 24 25  1  0
 25 27  1  0
 26 25  2  0
M  END
$$$$
