FRG.pdb
     RDKit          3D

 27 27  0  0  1  0  0  0  0  0999 V2000
    9.2592  -17.8220   25.8031 N   0  0  0  0  0  0  0  0  0  0  0  0
    9.1351  -16.4652   25.3450 C   0  0  1  0  0  0  0  0  0  0  0  0
   10.3517  -15.7049   25.8224 C   0  0  0  0  0  0  0  0  0  0  0  0
   10.1936  -15.1922   27.1949 C   0  0  0  0  0  0  0  0  0  0  0  0
    9.4881  -14.0333   27.4850 C   0  0  0  0  0  0  0  0  0  0  0  0
    9.4025  -13.6452   28.7983 C   0  0  0  0  0  0  0  0  0  0  0  0
    9.9879  -14.3616   29.8252 C   0  0  0  0  0  0  0  0  0  0  0  0
   10.6926  -15.5174   29.5445 C   0  0  0  0  0  0  0  0  0  0  0  0
   10.7804  -15.9111   28.2197 C   0  0  0  0  0  0  0  0  0  0  0  0
    9.2112  -16.4574   23.8380 C   0  0  0  0  0  0  0  0  0  0  0  0
    9.8875  -17.3395   23.2539 O   0  0  0  0  0  0  0  0  0  0  0  0
    7.2835  -12.6445   16.6500 N   0  0  0  0  0  0  0  0  0  0  0  0
    7.6631  -14.0305   16.6817 C   0  0  0  0  0  0  0  0  0  0  0  0
    7.9863  -14.6480   15.5990 N   0  0  0  0  0  0  0  0  0  0  0  0
    7.6895  -14.7441   17.9016 N   0  0  0  0  0  0  0  0  0  0  0  0
    8.7671  -14.6344   18.8458 C   0  0  0  0  0  0  0  0  0  0  0  0
    8.5223  -13.4939   19.8164 C   0  0  0  0  0  0  0  0  0  0  0  0
    8.0263  -14.0225   21.1366 C   0  0  0  0  0  0  0  0  0  0  0  0
    8.9091  -15.0487   21.7555 C   0  0  2  0  0  0  0  0  0  0  0  0
    8.5343  -15.4743   23.0724 N   0  0  0  0  0  0  0  0  0  0  0  0
   10.3701  -14.7454   21.6475 C   0  0  0  0  0  0  0  0  0  0  0  0
   10.9754  -14.1244   22.5473 O   0  0  0  0  0  0  0  0  0  0  0  0
    8.3383  -15.6255   15.6116 N   0  0  0  0  0  0  0  0  0  0  0  0
   11.1178  -15.1486   20.5278 C   0  0  0  0  0  0  0  0  0  0  0  0
   12.5333  -14.8273   20.3642 C   0  0  0  0  0  0  0  0  0  0  0  0
   13.0749  -15.3220   19.1004 O   0  0  0  0  0  0  0  0  0  0  0  0
   12.4114  -16.1266   18.4010 O   0  0  0  0  0  0  0  0  0  0  0  0
  2  1  1  1
  2  3  1  0
  2 10  1  0
  4  3  1  0
  4  5  2  0
  6  5  1  0
  7  6  2  0
  8  9  2  0
  8  7  1  0
  9  4  1  0
 10 11  2  0
 13 15  1  0
 13 12  1  0
 14 13  2  0
 16 15  1  0
 17 16  1  0
 17 18  1  0
 19 18  1  1
 20 19  1  0
 20 10  1  0
 21 22  2  0
 21 19  1  0
 23 21  1  0
 24 23  1  0
 24 25  1  0
 25 27  1  0
 26 25  2  0
M  END
$$$$
