FRG.pdb
     RDKit          3D

 27 27  0  0  1  0  0  0  0  0999 V2000
    6.2541  -18.2316   25.8072 N   0  0  0  0  0  0  0  0  0  0  0  0
    6.3839  -16.8073   25.6637 C   0  0  1  0  0  0  0  0  0  0  0  0
    6.9964  -16.2701   26.9375 C   0  0  0  0  0  0  0  0  0  0  0  0
    7.0456  -14.7974   26.9622 C   0  0  0  0  0  0  0  0  0  0  0  0
    5.9158  -14.0074   26.8071 C   0  0  0  0  0  0  0  0  0  0  0  0
    6.0742  -12.6451   26.8463 C   0  0  0  0  0  0  0  0  0  0  0  0
    7.3051  -12.0446   27.0325 C   0  0  0  0  0  0  0  0  0  0  0  0
    8.4358  -12.8246   27.1879 C   0  0  0  0  0  0  0  0  0  0  0  0
    8.2785  -14.2000   27.1487 C   0  0  0  0  0  0  0  0  0  0  0  0
    7.3878  -16.5230   24.5737 C   0  0  0  0  0  0  0  0  0  0  0  0
    8.3671  -17.2949   24.4259 O   0  0  0  0  0  0  0  0  0  0  0  0
    8.8486  -12.8115   16.6177 N   0  0  0  0  0  0  0  0  0  0  0  0
    8.3164  -14.1431   16.7153 C   0  0  0  0  0  0  0  0  0  0  0  0
    8.3538  -14.9412   15.7055 N   0  0  0  0  0  0  0  0  0  0  0  0
    7.7410  -14.6040   17.9213 N   0  0  0  0  0  0  0  0  0  0  0  0
    8.0891  -14.0650   19.2071 C   0  0  0  0  0  0  0  0  0  0  0  0
    7.2804  -14.7258   20.3080 C   0  0  0  0  0  0  0  0  0  0  0  0
    7.5995  -14.1041   21.6422 C   0  0  0  0  0  0  0  0  0  0  0  0
    8.1386  -15.0588   22.6489 C   0  0  2  0  0  0  0  0  0  0  0  0
    7.2449  -15.4028   23.7160 N   0  0  0  0  0  0  0  0  0  0  0  0
    9.5110  -14.7214   23.1396 C   0  0  0  0  0  0  0  0  0  0  0  0
    9.7111  -13.7499   23.8997 O   0  0  0  0  0  0  0  0  0  0  0  0
    7.9804  -15.9092   15.7599 N   0  0  0  0  0  0  0  0  0  0  0  0
   10.6286  -15.4861   22.7633 C   0  0  0  0  0  0  0  0  0  0  0  0
   11.9867  -15.1691   23.1976 C   0  0  0  0  0  0  0  0  0  0  0  0
   12.9876  -16.0302   22.5714 O   0  0  0  0  0  0  0  0  0  0  0  0
   12.6298  -16.9789   21.8307 O   0  0  0  0  0  0  0  0  0  0  0  0
  2  1  1  1
  2  3  1  0
  2 10  1  0
  4  3  1  0
  4  5  2  0
  6  5  1  0
  7  6  2  0
  8  9  2  0
  8  7  1  0
  9  4  1  0
 10 11  2  0
 13 15  1  0
 13 12  1  0
 14 13  2  0
 16 15  1  0
 17 16  1  0
 17 18  1  0
 19 18  1  1
 20 19  1  0
 20 10  1  0
 21 22  2  0
 21 19  1  0
 23 21  1  0
 24 23  1  0
 24 25  1  0
 25 27  1  0
 26 25  2  0
M  END
$$$$
