FRG.pdb
     RDKit          3D

 27 27  0  0  1  0  0  0  0  0999 V2000
    7.3460  -16.8382   26.8561 N   0  0  0  0  0  0  0  0  0  0  0  0
    7.5391  -15.9557   25.7380 C   0  0  1  0  0  0  0  0  0  0  0  0
    8.3005  -14.7465   26.2320 C   0  0  0  0  0  0  0  0  0  0  0  0
    7.4211  -13.5919   26.4875 C   0  0  0  0  0  0  0  0  0  0  0  0
    7.8845  -12.4037   27.0336 C   0  0  0  0  0  0  0  0  0  0  0  0
    6.9797  -11.3911   27.2301 C   0  0  0  0  0  0  0  0  0  0  0  0
    5.6418  -11.5159   26.9060 C   0  0  0  0  0  0  0  0  0  0  0  0
    5.1721  -12.6965   26.3614 C   0  0  0  0  0  0  0  0  0  0  0  0
    6.0835  -13.7201   26.1621 C   0  0  0  0  0  0  0  0  0  0  0  0
    8.4466  -16.6335   24.7411 C   0  0  0  0  0  0  0  0  0  0  0  0
    8.7740  -17.8315   24.9261 O   0  0  0  0  0  0  0  0  0  0  0  0
    9.0499  -14.5050   17.0404 N   0  0  0  0  0  0  0  0  0  0  0  0
    8.4079  -13.5504   17.9022 C   0  0  0  0  0  0  0  0  0  0  0  0
    8.6352  -12.2898   17.7708 N   0  0  0  0  0  0  0  0  0  0  0  0
    7.5142  -13.9754   18.9114 N   0  0  0  0  0  0  0  0  0  0  0  0
    7.6392  -15.2407   19.5811 C   0  0  0  0  0  0  0  0  0  0  0  0
    8.7910  -15.2189   20.5688 C   0  0  0  0  0  0  0  0  0  0  0  0
    8.9601  -16.5705   21.2113 C   0  0  0  0  0  0  0  0  0  0  0  0
    9.6638  -16.5409   22.5226 C   0  0  2  0  0  0  0  0  0  0  0  0
    8.9346  -15.9431   23.6027 N   0  0  0  0  0  0  0  0  0  0  0  0
   11.0765  -16.0541   22.4487 C   0  0  0  0  0  0  0  0  0  0  0  0
   11.5779  -15.6688   21.3708 O   0  0  0  0  0  0  0  0  0  0  0  0
    8.2369  -11.5912   18.4287 N   0  0  0  0  0  0  0  0  0  0  0  0
   11.8940  -16.0117   23.5912 C   0  0  0  0  0  0  0  0  0  0  0  0
   13.0368  -16.9016   23.7799 C   0  0  0  0  0  0  0  0  0  0  0  0
   14.0040  -16.8061   22.6887 O   0  0  0  0  0  0  0  0  0  0  0  0
   13.8896  -17.5416   21.6774 O   0  0  0  0  0  0  0  0  0  0  0  0
  2  1  1  1
  2  3  1  0
  2 10  1  0
  4  3  1  0
  4  5  2  0
  6  5  1  0
  7  6  2  0
  8  9  2  0
  8  7  1  0
  9  4  1  0
 10 11  2  0
 13 15  1  0
 13 12  1  0
 14 13  2  0
 16 15  1  0
 17 16  1  0
 17 18  1  0
 19 18  1  6
 20 19  1  0
 20 10  1  0
 21 22  2  0
 21 19  1  0
 23 21  1  0
 24 23  1  0
 24 25  1  0
 25 27  1  0
 26 25  2  0
M  END
$$$$
