FRG.pdb
     RDKit          3D

 27 27  0  0  1  0  0  0  0  0999 V2000
    7.8137  -17.3408   27.0902 N   0  0  0  0  0  0  0  0  0  0  0  0
    7.7060  -16.2952   26.1097 C   0  0  1  0  0  0  0  0  0  0  0  0
    8.5084  -15.1139   26.6064 C   0  0  0  0  0  0  0  0  0  0  0  0
    7.7231  -13.8670   26.6263 C   0  0  0  0  0  0  0  0  0  0  0  0
    6.5557  -13.7053   25.8943 C   0  0  0  0  0  0  0  0  0  0  0  0
    5.9020  -12.5024   25.9851 C   0  0  0  0  0  0  0  0  0  0  0  0
    6.3631  -11.4628   26.7708 C   0  0  0  0  0  0  0  0  0  0  0  0
    7.5255  -11.6159   27.5033 C   0  0  0  0  0  0  0  0  0  0  0  0
    8.1871  -12.8292   27.4132 C   0  0  0  0  0  0  0  0  0  0  0  0
    8.3876  -16.7513   24.8432 C   0  0  0  0  0  0  0  0  0  0  0  0
    9.1892  -17.7166   24.8919 O   0  0  0  0  0  0  0  0  0  0  0  0
    8.4058  -11.9388   18.8998 N   0  0  0  0  0  0  0  0  0  0  0  0
    8.4195  -13.2563   18.3252 C   0  0  0  0  0  0  0  0  0  0  0  0
    9.1563  -13.5193   17.3025 N   0  0  0  0  0  0  0  0  0  0  0  0
    7.6247  -14.2901   18.8707 N   0  0  0  0  0  0  0  0  0  0  0  0
    6.8004  -14.1087   20.0337 C   0  0  0  0  0  0  0  0  0  0  0  0
    7.5382  -14.5296   21.2911 C   0  0  0  0  0  0  0  0  0  0  0  0
    8.0886  -15.9231   21.1378 C   0  0  0  0  0  0  0  0  0  0  0  0
    8.7595  -16.4534   22.3561 C   0  0  2  0  0  0  0  0  0  0  0  0
    8.1394  -16.1107   23.6027 N   0  0  0  0  0  0  0  0  0  0  0  0
   10.2409  -16.2459   22.3790 C   0  0  0  0  0  0  0  0  0  0  0  0
   10.9622  -16.5879   21.4176 O   0  0  0  0  0  0  0  0  0  0  0  0
    9.1637  -14.4601   16.8618 N   0  0  0  0  0  0  0  0  0  0  0  0
   10.8779  -15.6571   23.4849 C   0  0  0  0  0  0  0  0  0  0  0  0
   12.2879  -15.2760   23.4754 C   0  0  0  0  0  0  0  0  0  0  0  0
   13.1680  -16.3866   23.8322 O   0  0  0  0  0  0  0  0  0  0  0  0
   12.6902  -17.5289   24.0410 O   0  0  0  0  0  0  0  0  0  0  0  0
  2  1  1  1
  2  3  1  0
  2 10  1  0
  4  3  1  0
  4  5  2  0
  6  5  1  0
  7  6  2  0
  8  9  2  0
  8  7  1  0
  9  4  1  0
 10 11  2  0
 13 15  1  0
 13 12  1  0
 14 13  2  0
 16 15  1  0
 17 16  1  0
 17 18  1  0
 19 18  1  6
 20 19  1  0
 20 10  1  0
 21 22  2  0
 21 19  1  0
 23 21  1  0
 24 23  1  0
 24 25  1  0
 25 27  1  0
 26 25  2  0
M  END
$$$$
