GED.pdb
     RDKit          3D

 22 21  0  0  1  0  0  0  0  0999 V2000
   18.3090  -15.0452  -16.2659 N   0  0  0  0  0  0  0  0  0  0  0  0
   19.1176  -14.3090  -17.2095 C   0  0  0  0  0  0  0  0  0  0  0  0
   18.7199  -12.8447  -17.2355 C   0  0  0  0  0  0  0  0  0  0  0  0
   19.3792  -12.0633  -17.9514 O   0  0  0  0  0  0  0  0  0  0  0  0
   17.6378  -12.4019  -16.4635 N   0  0  0  0  0  0  0  0  0  0  0  0
   17.1006  -11.0942  -16.3624 C   0  0  1  0  0  0  0  0  0  0  0  0
   15.5819  -11.0251  -16.1746 C   0  0  0  0  0  0  0  0  0  0  0  0
   14.9461  -11.5626  -17.4047 C   0  0  0  0  0  0  0  0  0  0  0  0
   13.4778  -11.6891  -17.3042 C   0  0  0  0  0  0  0  0  0  0  0  0
   12.7909  -12.4963  -17.9303 O   0  0  0  0  0  0  0  0  0  0  0  0
   17.8350  -10.1512  -15.5085 C   0  0  0  0  0  0  0  0  0  0  0  0
   18.2816  -10.5668  -14.4217 O   0  0  0  0  0  0  0  0  0  0  0  0
   12.8395  -10.8018  -16.4168 O   0  0  0  0  0  0  0  0  0  0  0  0
   18.0585   -8.8020  -15.8601 N   0  0  0  0  0  0  0  0  0  0  0  0
   18.8037   -7.8400  -15.0732 C   0  0  1  0  0  0  0  0  0  0  0  0
   20.2093   -8.3741  -14.9034 C   0  0  0  0  0  0  0  0  0  0  0  0
   21.0995   -7.4361  -14.1985 C   0  0  0  0  0  0  0  0  0  0  0  0
   20.5779   -6.4774  -13.5666 O   0  0  0  0  0  0  0  0  0  0  0  0
   18.8431   -6.5526  -15.8366 C   0  0  0  0  0  0  0  0  0  0  0  0
   19.0192   -5.4767  -15.2610 O   0  0  0  0  0  0  0  0  0  0  0  0
   22.4603   -7.5760  -14.2118 O   0  0  0  0  0  0  0  0  0  0  0  0
   18.6730   -6.6112  -17.2372 O   0  0  0  0  0  0  0  0  0  0  0  0
  1  2  1  0
  2  3  1  0
  3  4  2  0
  5  6  1  0
  5  3  1  0
  6 11  1  0
  6  7  1  1
  8  7  1  0
  9  8  1  0
  9 10  2  0
 11 14  1  0
 11 12  2  0
 13  9  1  0
 14 15  1  0
 15 19  1  0
 15 16  1  6
 16 17  1  0
 17 21  1  0
 17 18  2  0
 19 22  1  0
 20 19  2  0
M  END
$$$$
