GED.pdb
     RDKit          3D

 22 21  0  0  1  0  0  0  0  0999 V2000
   18.4953  -13.1002  -16.5834 N   0  0  0  0  0  0  0  0  0  0  0  0
   17.9170  -12.2412  -15.5764 C   0  0  0  0  0  0  0  0  0  0  0  0
   18.1094  -10.7797  -15.9371 C   0  0  0  0  0  0  0  0  0  0  0  0
   18.9193  -10.4935  -16.8426 O   0  0  0  0  0  0  0  0  0  0  0  0
   17.3877   -9.7919  -15.2542 N   0  0  0  0  0  0  0  0  0  0  0  0
   17.3773   -8.3921  -15.4766 C   0  0  1  0  0  0  0  0  0  0  0  0
   16.0060   -7.7213  -15.3508 C   0  0  0  0  0  0  0  0  0  0  0  0
   15.1289   -8.2752  -16.4139 C   0  0  0  0  0  0  0  0  0  0  0  0
   13.7284   -7.8142  -16.3245 C   0  0  0  0  0  0  0  0  0  0  0  0
   13.2465   -6.8809  -16.9665 O   0  0  0  0  0  0  0  0  0  0  0  0
   18.4598   -7.6235  -14.8480 C   0  0  0  0  0  0  0  0  0  0  0  0
   18.5532   -7.6471  -13.6054 O   0  0  0  0  0  0  0  0  0  0  0  0
   12.9028   -8.5140  -15.4239 O   0  0  0  0  0  0  0  0  0  0  0  0
   19.3960   -6.8631  -15.5824 N   0  0  0  0  0  0  0  0  0  0  0  0
   20.4646   -6.0669  -15.0132 C   0  0  1  0  0  0  0  0  0  0  0  0
   21.5996   -6.0370  -16.0136 C   0  0  0  0  0  0  0  0  0  0  0  0
   22.7264   -5.1937  -15.5797 C   0  0  0  0  0  0  0  0  0  0  0  0
   22.6710   -4.6641  -14.4365 O   0  0  0  0  0  0  0  0  0  0  0  0
   19.9428   -4.6794  -14.8022 C   0  0  0  0  0  0  0  0  0  0  0  0
   20.2290   -4.0394  -13.7883 O   0  0  0  0  0  0  0  0  0  0  0  0
   23.8172   -4.9723  -16.3749 O   0  0  0  0  0  0  0  0  0  0  0  0
   19.1131   -4.1279  -15.8031 O   0  0  0  0  0  0  0  0  0  0  0  0
  1  2  1  0
  2  3  1  0
  3  4  2  0
  5  6  1  0
  5  3  1  0
  6 11  1  0
  6  7  1  1
  8  7  1  0
  9  8  1  0
  9 10  2  0
 11 14  1  0
 11 12  2  0
 13  9  1  0
 14 15  1  0
 15 19  1  0
 15 16  1  6
 16 17  1  0
 17 21  1  0
 17 18  2  0
 19 22  1  0
 20 19  2  0
M  END
$$$$
