GED.pdb
     RDKit          3D

 22 21  0  0  1  0  0  0  0  0999 V2000
   20.9689  -13.8894  -17.4362 N   0  0  0  0  0  0  0  0  0  0  0  0
   20.1922  -13.5356  -16.2710 C   0  0  0  0  0  0  0  0  0  0  0  0
   19.5440  -12.1747  -16.4462 C   0  0  0  0  0  0  0  0  0  0  0  0
   19.9859  -11.4167  -17.3339 O   0  0  0  0  0  0  0  0  0  0  0  0
   18.4790  -11.7974  -15.6177 N   0  0  0  0  0  0  0  0  0  0  0  0
   17.7570  -10.5778  -15.6064 C   0  0  1  0  0  0  0  0  0  0  0  0
   16.2610  -10.7076  -15.3038 C   0  0  0  0  0  0  0  0  0  0  0  0
   15.6642  -11.5986  -16.3316 C   0  0  0  0  0  0  0  0  0  0  0  0
   14.2116  -11.8066  -16.1620 C   0  0  0  0  0  0  0  0  0  0  0  0
   13.3577  -11.5793  -17.0191 O   0  0  0  0  0  0  0  0  0  0  0  0
   18.3937   -9.4489  -14.9149 C   0  0  0  0  0  0  0  0  0  0  0  0
   18.4087   -9.4553  -13.6687 O   0  0  0  0  0  0  0  0  0  0  0  0
   13.7993  -12.3021  -14.9103 O   0  0  0  0  0  0  0  0  0  0  0  0
   18.9876   -8.3621  -15.5930 N   0  0  0  0  0  0  0  0  0  0  0  0
   19.6907   -7.2615  -14.9650 C   0  0  1  0  0  0  0  0  0  0  0  0
   20.9937   -7.0635  -15.7083 C   0  0  0  0  0  0  0  0  0  0  0  0
   21.9739   -8.1307  -15.4449 C   0  0  0  0  0  0  0  0  0  0  0  0
   22.7309   -8.4926  -16.3864 O   0  0  0  0  0  0  0  0  0  0  0  0
   18.8420   -6.0355  -15.1010 C   0  0  0  0  0  0  0  0  0  0  0  0
   19.1981   -4.9585  -14.6185 O   0  0  0  0  0  0  0  0  0  0  0  0
   22.0825   -8.7322  -14.2211 O   0  0  0  0  0  0  0  0  0  0  0  0
   17.6211   -6.1533  -15.8009 O   0  0  0  0  0  0  0  0  0  0  0  0
  1  2  1  0
  2  3  1  0
  3  4  2  0
  5  6  1  0
  5  3  1  0
  6 11  1  0
  6  7  1  1
  8  7  1  0
  9  8  1  0
  9 10  2  0
 11 14  1  0
 11 12  2  0
 13  9  1  0
 14 15  1  0
 15 19  1  0
 15 16  1  6
 16 17  1  0
 17 21  1  0
 17 18  2  0
 19 22  1  0
 20 19  2  0
M  END
$$$$
