GED.pdb
     RDKit          3D

 22 21  0  0  1  0  0  0  0  0999 V2000
   19.6765  -13.7866  -16.5318 N   0  0  0  0  0  0  0  0  0  0  0  0
   18.8561  -12.8074  -15.8578 C   0  0  0  0  0  0  0  0  0  0  0  0
   19.1859  -11.4051  -16.3349 C   0  0  0  0  0  0  0  0  0  0  0  0
   20.1711  -11.2500  -17.0856 O   0  0  0  0  0  0  0  0  0  0  0  0
   18.3926  -10.3248  -15.9271 N   0  0  0  0  0  0  0  0  0  0  0  0
   18.4486   -8.9752  -16.3565 C   0  0  1  0  0  0  0  0  0  0  0  0
   17.1622   -8.4383  -16.9916 C   0  0  0  0  0  0  0  0  0  0  0  0
   17.4865   -7.1513  -17.6585 C   0  0  0  0  0  0  0  0  0  0  0  0
   16.3286   -6.5241  -18.3277 C   0  0  0  0  0  0  0  0  0  0  0  0
   16.3563   -5.4573  -18.9415 O   0  0  0  0  0  0  0  0  0  0  0  0
   19.0828   -8.0231  -15.4351 C   0  0  0  0  0  0  0  0  0  0  0  0
   18.7378   -8.0446  -14.2376 O   0  0  0  0  0  0  0  0  0  0  0  0
   15.1092   -7.2220  -18.2379 O   0  0  0  0  0  0  0  0  0  0  0  0
   20.0613   -7.0892  -15.8405 N   0  0  0  0  0  0  0  0  0  0  0  0
   20.7313   -6.1423  -14.9719 C   0  0  1  0  0  0  0  0  0  0  0  0
   22.1805   -6.0695  -15.4011 C   0  0  0  0  0  0  0  0  0  0  0  0
   22.9635   -5.0973  -14.6194 C   0  0  0  0  0  0  0  0  0  0  0  0
   22.4075   -4.5330  -13.6381 O   0  0  0  0  0  0  0  0  0  0  0  0
   20.0827   -4.8060  -15.1602 C   0  0  0  0  0  0  0  0  0  0  0  0
   19.6988   -4.4361  -16.2718 O   0  0  0  0  0  0  0  0  0  0  0  0
   24.2615   -4.7941  -14.9268 O   0  0  0  0  0  0  0  0  0  0  0  0
   19.9242   -3.9840  -14.0229 O   0  0  0  0  0  0  0  0  0  0  0  0
  1  2  1  0
  2  3  1  0
  3  4  2  0
  5  6  1  0
  5  3  1  0
  6 11  1  0
  6  7  1  1
  8  7  1  0
  9  8  1  0
  9 10  2  0
 11 14  1  0
 11 12  2  0
 13  9  1  0
 14 15  1  0
 15 19  1  0
 15 16  1  6
 16 17  1  0
 17 21  1  0
 17 18  2  0
 19 22  1  0
 20 19  2  0
M  END
$$$$
