GED.pdb
     RDKit          3D

 22 21  0  0  1  0  0  0  0  0999 V2000
   15.1105  -11.6631  -13.6757 N   0  0  0  0  0  0  0  0  0  0  0  0
   15.5560  -11.0173  -14.8884 C   0  0  0  0  0  0  0  0  0  0  0  0
   17.0345  -10.6840  -14.8117 C   0  0  0  0  0  0  0  0  0  0  0  0
   17.5275  -10.4256  -13.6945 O   0  0  0  0  0  0  0  0  0  0  0  0
   17.8077  -10.6688  -15.9800 N   0  0  0  0  0  0  0  0  0  0  0  0
   19.1744  -10.3250  -16.1311 C   0  0  1  0  0  0  0  0  0  0  0  0
   19.8740  -10.9474  -17.3433 C   0  0  0  0  0  0  0  0  0  0  0  0
   19.9163  -12.4181  -17.1391 C   0  0  0  0  0  0  0  0  0  0  0  0
   20.6208  -13.1443  -18.2153 C   0  0  0  0  0  0  0  0  0  0  0  0
   20.0793  -13.8444  -19.0710 O   0  0  0  0  0  0  0  0  0  0  0  0
   19.5185   -8.9120  -15.9240 C   0  0  0  0  0  0  0  0  0  0  0  0
   18.7607   -8.0458  -16.4024 O   0  0  0  0  0  0  0  0  0  0  0  0
   22.0221  -13.0093  -18.2385 O   0  0  0  0  0  0  0  0  0  0  0  0
   20.6621   -8.4909  -15.2108 N   0  0  0  0  0  0  0  0  0  0  0  0
   21.0234   -7.1144  -14.9373 C   0  0  1  0  0  0  0  0  0  0  0  0
   21.6225   -7.0629  -13.5488 C   0  0  0  0  0  0  0  0  0  0  0  0
   22.1136   -5.7231  -13.1839 C   0  0  0  0  0  0  0  0  0  0  0  0
   21.6537   -4.7278  -13.8070 O   0  0  0  0  0  0  0  0  0  0  0  0
   22.0504   -6.6991  -15.9446 C   0  0  0  0  0  0  0  0  0  0  0  0
   22.5051   -5.5533  -15.9542 O   0  0  0  0  0  0  0  0  0  0  0  0
   23.0443   -5.5331  -12.1995 O   0  0  0  0  0  0  0  0  0  0  0  0
   22.4815   -7.6630  -16.8823 O   0  0  0  0  0  0  0  0  0  0  0  0
  1  2  1  0
  2  3  1  0
  3  4  2  0
  5  6  1  0
  5  3  1  0
  6 11  1  0
  6  7  1  6
  8  7  1  0
  9  8  1  0
  9 10  2  0
 11 14  1  0
 11 12  2  0
 13  9  1  0
 14 15  1  0
 15 19  1  0
 15 16  1  1
 16 17  1  0
 17 21  1  0
 17 18  2  0
 19 22  1  0
 20 19  2  0
M  END
$$$$
