GED.pdb
     RDKit          3D

 22 21  0  0  1  0  0  0  0  0999 V2000
   20.6535  -12.9692  -16.4486 N   0  0  0  0  0  0  0  0  0  0  0  0
   20.6433  -11.7040  -17.1452 C   0  0  0  0  0  0  0  0  0  0  0  0
   21.2679  -10.6134  -16.2947 C   0  0  0  0  0  0  0  0  0  0  0  0
   20.7236  -10.3218  -15.2099 O   0  0  0  0  0  0  0  0  0  0  0  0
   22.4254   -9.9601  -16.7377 N   0  0  0  0  0  0  0  0  0  0  0  0
   23.1394   -8.9065  -16.1139 C   0  0  1  0  0  0  0  0  0  0  0  0
   24.6643   -8.9924  -16.2307 C   0  0  0  0  0  0  0  0  0  0  0  0
   25.0899  -10.3044  -15.6796 C   0  0  0  0  0  0  0  0  0  0  0  0
   26.5536  -10.5033  -15.6905 C   0  0  0  0  0  0  0  0  0  0  0  0
   27.2322  -10.8306  -14.7168 O   0  0  0  0  0  0  0  0  0  0  0  0
   22.6163   -7.5500  -16.3238 C   0  0  0  0  0  0  0  0  0  0  0  0
   22.5620   -7.1144  -17.4902 O   0  0  0  0  0  0  0  0  0  0  0  0
   27.1977  -10.2924  -16.9245 O   0  0  0  0  0  0  0  0  0  0  0  0
   22.1732   -6.7203  -15.2706 N   0  0  0  0  0  0  0  0  0  0  0  0
   21.6497   -5.3774  -15.4208 C   0  0  1  0  0  0  0  0  0  0  0  0
   20.1441   -5.4528  -15.2897 C   0  0  0  0  0  0  0  0  0  0  0  0
   19.4920   -4.1357  -15.3856 C   0  0  0  0  0  0  0  0  0  0  0  0
   19.0059   -3.6316  -14.3367 O   0  0  0  0  0  0  0  0  0  0  0  0
   22.2101   -4.5384  -14.3146 C   0  0  0  0  0  0  0  0  0  0  0  0
   21.9761   -3.3296  -14.2517 O   0  0  0  0  0  0  0  0  0  0  0  0
   19.4006   -3.4540  -16.5681 O   0  0  0  0  0  0  0  0  0  0  0  0
   23.0144   -5.1771  -13.3454 O   0  0  0  0  0  0  0  0  0  0  0  0
  1  2  1  0
  2  3  1  0
  3  4  2  0
  5  6  1  0
  5  3  1  0
  6 11  1  0
  6  7  1  6
  8  7  1  0
  9  8  1  0
  9 10  2  0
 11 14  1  0
 11 12  2  0
 13  9  1  0
 14 15  1  0
 15 19  1  0
 15 16  1  1
 16 17  1  0
 17 21  1  0
 17 18  2  0
 19 22  1  0
 20 19  2  0
M  END
$$$$
