GED.pdb
     RDKit          3D

 22 21  0  0  1  0  0  0  0  0999 V2000
   11.5701  -12.7343   -9.9672 N   0  0  0  0  0  0  0  0  0  0  0  0
   12.2540  -12.2204  -11.1310 C   0  0  0  0  0  0  0  0  0  0  0  0
   13.4428  -11.3681  -10.7271 C   0  0  0  0  0  0  0  0  0  0  0  0
   13.5329  -11.0006   -9.5377 O   0  0  0  0  0  0  0  0  0  0  0  0
   14.4021  -11.0108  -11.6837 N   0  0  0  0  0  0  0  0  0  0  0  0
   15.5173  -10.1483  -11.5379 C   0  0  1  0  0  0  0  0  0  0  0  0
   16.6167  -10.3189  -12.5908 C   0  0  0  0  0  0  0  0  0  0  0  0
   17.7424   -9.4223  -12.2231 C   0  0  0  0  0  0  0  0  0  0  0  0
   18.8883   -9.5009  -13.1519 C   0  0  0  0  0  0  0  0  0  0  0  0
   19.7933   -8.6704  -13.2336 O   0  0  0  0  0  0  0  0  0  0  0  0
   15.2196   -8.7429  -11.2314 C   0  0  0  0  0  0  0  0  0  0  0  0
   14.5322   -8.0962  -12.0453 O   0  0  0  0  0  0  0  0  0  0  0  0
   18.9209  -10.6234  -14.0009 O   0  0  0  0  0  0  0  0  0  0  0  0
   15.6729   -8.0933  -10.0624 N   0  0  0  0  0  0  0  0  0  0  0  0
   15.3553   -6.7323   -9.6794 C   0  0  1  0  0  0  0  0  0  0  0  0
   15.2001   -6.7018   -8.1745 C   0  0  0  0  0  0  0  0  0  0  0  0
   14.9236   -5.3527   -7.6522 C   0  0  0  0  0  0  0  0  0  0  0  0
   14.4487   -4.4918   -8.4420 O   0  0  0  0  0  0  0  0  0  0  0  0
   16.5027   -5.8601  -10.0850 C   0  0  0  0  0  0  0  0  0  0  0  0
   17.6169   -6.3378  -10.3088 O   0  0  0  0  0  0  0  0  0  0  0  0
   15.1661   -5.0137   -6.3493 O   0  0  0  0  0  0  0  0  0  0  0  0
   16.2664   -4.4729  -10.2039 O   0  0  0  0  0  0  0  0  0  0  0  0
  1  2  1  0
  2  3  1  0
  3  4  2  0
  5  6  1  0
  5  3  1  0
  6 11  1  0
  6  7  1  6
  8  7  1  0
  9  8  1  0
  9 10  2  0
 11 14  1  0
 11 12  2  0
 13  9  1  0
 14 15  1  0
 15 19  1  0
 15 16  1  1
 16 17  1  0
 17 21  1  0
 17 18  2  0
 19 22  1  0
 20 19  2  0
M  END
$$$$
