GED.pdb
     RDKit          3D

 22 21  0  0  1  0  0  0  0  0999 V2000
   17.5156  -13.9335  -14.6004 N   0  0  0  0  0  0  0  0  0  0  0  0
   17.0297  -12.6520  -14.1442 C   0  0  0  0  0  0  0  0  0  0  0  0
   17.6465  -11.5225  -14.9483 C   0  0  0  0  0  0  0  0  0  0  0  0
   18.5885  -11.7904  -15.7221 O   0  0  0  0  0  0  0  0  0  0  0  0
   17.1570  -10.2174  -14.8070 N   0  0  0  0  0  0  0  0  0  0  0  0
   17.6205   -9.0279  -15.4228 C   0  0  1  0  0  0  0  0  0  0  0  0
   16.6240   -8.3517  -16.3694 C   0  0  0  0  0  0  0  0  0  0  0  0
   16.2492   -9.3372  -17.4157 C   0  0  0  0  0  0  0  0  0  0  0  0
   15.3045   -8.8043  -18.4184 C   0  0  0  0  0  0  0  0  0  0  0  0
   14.1749   -8.3805  -18.1737 O   0  0  0  0  0  0  0  0  0  0  0  0
   18.3340   -8.0800  -14.5567 C   0  0  0  0  0  0  0  0  0  0  0  0
   17.8707   -7.8571  -13.4214 O   0  0  0  0  0  0  0  0  0  0  0  0
   15.7571   -8.7949  -19.7515 O   0  0  0  0  0  0  0  0  0  0  0  0
   19.5154   -7.4129  -14.9481 N   0  0  0  0  0  0  0  0  0  0  0  0
   20.2105   -6.4069  -14.1704 C   0  0  1  0  0  0  0  0  0  0  0  0
   21.6798   -6.4862  -14.5231 C   0  0  0  0  0  0  0  0  0  0  0  0
   22.4925   -5.4703  -13.8326 C   0  0  0  0  0  0  0  0  0  0  0  0
   23.1719   -4.6713  -14.5330 O   0  0  0  0  0  0  0  0  0  0  0  0
   19.6700   -5.0669  -14.5630 C   0  0  0  0  0  0  0  0  0  0  0  0
   19.5625   -4.1575  -13.7376 O   0  0  0  0  0  0  0  0  0  0  0  0
   22.5293   -5.3727  -12.4686 O   0  0  0  0  0  0  0  0  0  0  0  0
   19.2886   -4.8787  -15.9096 O   0  0  0  0  0  0  0  0  0  0  0  0
  1  2  1  0
  2  3  1  0
  3  4  2  0
  5  6  1  0
  5  3  1  0
  6 11  1  0
  6  7  1  1
  8  7  1  0
  9  8  1  0
  9 10  2  0
 11 14  1  0
 11 12  2  0
 13  9  1  0
 14 15  1  0
 15 19  1  0
 15 16  1  6
 16 17  1  0
 17 21  1  0
 17 18  2  0
 19 22  1  0
 20 19  2  0
M  END
$$$$
