KEE.pdb
     RDKit          3D

 28 27  0  0  1  0  0  0  0  0999 V2000
    7.1105  -17.0050   20.3366 N   0  0  0  0  0  0  0  0  0  0  0  0
    8.2648  -16.1505   20.1742 C   0  0  1  0  0  0  0  0  0  0  0  0
    8.0149  -14.8356   20.7602 C   0  0  0  0  0  0  0  0  0  0  0  0
    7.2227  -13.8976   19.8741 C   0  0  0  0  0  0  0  0  0  0  0  0
    7.8919  -13.7968   18.5158 C   0  0  0  0  0  0  0  0  0  0  0  0
    7.1580  -12.8128   17.6353 C   0  0  0  0  0  0  0  0  0  0  0  0
    7.8593  -12.7031   16.3758 N   0  0  0  0  0  0  0  0  0  0  0  0
    9.4640  -16.8642   20.6050 C   0  0  0  0  0  0  0  0  0  0  0  0
    9.4759  -17.3756   21.7524 O   0  0  0  0  0  0  0  0  0  0  0  0
   10.6315  -17.0289   19.8244 N   0  0  0  0  0  0  0  0  0  0  0  0
   11.8624  -17.6523   20.2994 C   0  0  1  0  0  0  0  0  0  0  0  0
   12.7544  -17.8137   19.1260 C   0  0  0  0  0  0  0  0  0  0  0  0
   14.0700  -18.4833   19.4067 C   0  0  0  0  0  0  0  0  0  0  0  0
   14.8605  -18.5619   18.1693 C   0  0  0  0  0  0  0  0  0  0  0  0
   15.9335  -17.9187   18.0712 O   0  0  0  0  0  0  0  0  0  0  0  0
   12.4718  -16.8356   21.3878 C   0  0  0  0  0  0  0  0  0  0  0  0
   12.6920  -15.6173   21.1846 O   0  0  0  0  0  0  0  0  0  0  0  0
   14.4298  -19.3414   17.1153 O   0  0  0  0  0  0  0  0  0  0  0  0
   12.8143  -17.3806   22.6485 N   0  0  0  0  0  0  0  0  0  0  0  0
   13.2519  -16.6213   23.7675 C   0  0  1  0  0  0  0  0  0  0  0  0
   12.6551  -17.0481   25.0596 C   0  0  0  0  0  0  0  0  0  0  0  0
   12.9545  -18.3915   25.5809 C   0  0  0  0  0  0  0  0  0  0  0  0
   12.4135  -18.7386   26.8950 C   0  0  0  0  0  0  0  0  0  0  0  0
   11.7208  -17.9221   27.5443 O   0  0  0  0  0  0  0  0  0  0  0  0
   14.7326  -16.4884   23.8356 C   0  0  0  0  0  0  0  0  0  0  0  0
   15.5696  -17.2214   23.0149 O   0  0  0  0  0  0  0  0  0  0  0  0
   12.6391  -19.9818   27.4864 O   0  0  0  0  0  0  0  0  0  0  0  0
   15.2406  -15.6942   24.6562 O   0  0  0  0  0  0  0  0  0  0  0  0
  2  1  1  1
  2  3  1  0
  4  3  1  0
  5  4  1  0
  6  5  1  0
  7  6  1  0
  8  9  2  0
  8  2  1  0
 10  8  1  0
 11 10  1  0
 11 12  1  6
 13 14  1  0
 13 12  1  0
 14 15  2  0
 16 17  2  0
 16 11  1  0
 18 14  1  0
 19 16  1  0
 20 21  1  1
 20 19  1  0
 22 23  1  0
 22 21  1  0
 23 27  1  0
 24 23  2  0
 25 20  1  0
 26 25  1  0
 28 25  2  0
M  END
$$$$
