KEE.pdb
     RDKit          3D

 28 27  0  0  1  0  0  0  0  0999 V2000
    9.8626  -17.2120   21.5210 N   0  0  0  0  0  0  0  0  0  0  0  0
   10.0605  -18.6367   21.6625 C   0  0  1  0  0  0  0  0  0  0  0  0
    9.3909  -19.3565   20.5817 C   0  0  0  0  0  0  0  0  0  0  0  0
    9.4522  -18.6622   19.2374 C   0  0  0  0  0  0  0  0  0  0  0  0
    8.7922  -19.5344   18.1856 C   0  0  0  0  0  0  0  0  0  0  0  0
    8.9687  -18.9324   16.8112 C   0  0  0  0  0  0  0  0  0  0  0  0
    8.2374  -19.7336   15.8554 N   0  0  0  0  0  0  0  0  0  0  0  0
   11.4782  -18.9126   21.8799 C   0  0  0  0  0  0  0  0  0  0  0  0
   11.8239  -20.0900   22.1492 O   0  0  0  0  0  0  0  0  0  0  0  0
   12.5097  -17.9479   21.8115 N   0  0  0  0  0  0  0  0  0  0  0  0
   13.9232  -18.2316   22.0373 C   0  0  1  0  0  0  0  0  0  0  0  0
   14.7006  -17.2597   21.2313 C   0  0  0  0  0  0  0  0  0  0  0  0
   16.1942  -17.3837   21.3410 C   0  0  0  0  0  0  0  0  0  0  0  0
   16.8395  -16.4216   20.4355 C   0  0  0  0  0  0  0  0  0  0  0  0
   16.6844  -16.5299   19.1950 O   0  0  0  0  0  0  0  0  0  0  0  0
   14.2398  -18.1681   23.4929 C   0  0  0  0  0  0  0  0  0  0  0  0
   13.7961  -17.2105   24.1714 O   0  0  0  0  0  0  0  0  0  0  0  0
   17.6134  -15.3980   20.9427 O   0  0  0  0  0  0  0  0  0  0  0  0
   15.0244  -19.1490   24.1453 N   0  0  0  0  0  0  0  0  0  0  0  0
   15.0151  -19.3944   25.5453 C   0  0  1  0  0  0  0  0  0  0  0  0
   13.6542  -19.4910   26.1340 C   0  0  0  0  0  0  0  0  0  0  0  0
   13.5066  -19.8975   27.5407 C   0  0  0  0  0  0  0  0  0  0  0  0
   12.1538  -19.9148   28.0971 C   0  0  0  0  0  0  0  0  0  0  0  0
   11.9440  -20.2898   29.2732 O   0  0  0  0  0  0  0  0  0  0  0  0
   15.8934  -20.5285   25.9418 C   0  0  0  0  0  0  0  0  0  0  0  0
   16.5012  -21.3431   25.0045 O   0  0  0  0  0  0  0  0  0  0  0  0
   11.0403  -19.5199   27.3550 O   0  0  0  0  0  0  0  0  0  0  0  0
   16.0909  -20.7572   27.1546 O   0  0  0  0  0  0  0  0  0  0  0  0
  2  1  1  6
  2  3  1  0
  4  3  1  0
  5  4  1  0
  6  5  1  0
  7  6  1  0
  8  9  2  0
  8  2  1  0
 10  8  1  0
 11 10  1  0
 11 12  1  6
 13 14  1  0
 13 12  1  0
 14 15  2  0
 16 17  2  0
 16 11  1  0
 18 14  1  0
 19 16  1  0
 20 21  1  6
 20 19  1  0
 22 23  1  0
 22 21  1  0
 23 27  1  0
 24 23  2  0
 25 20  1  0
 26 25  1  0
 28 25  2  0
M  END
$$$$
