KEE.pdb
     RDKit          3D

 28 27  0  0  1  0  0  0  0  0999 V2000
    3.3928  -22.9579   22.1439 N   0  0  0  0  0  0  0  0  0  0  0  0
    3.4964  -21.8576   23.0753 C   0  0  1  0  0  0  0  0  0  0  0  0
    2.5993  -22.0615   24.2104 C   0  0  0  0  0  0  0  0  0  0  0  0
    1.2415  -22.6203   23.8404 C   0  0  0  0  0  0  0  0  0  0  0  0
    0.4143  -22.8167   25.0974 C   0  0  0  0  0  0  0  0  0  0  0  0
   -0.8858  -23.5143   24.7725 C   0  0  0  0  0  0  0  0  0  0  0  0
   -1.5949  -23.7735   26.0054 N   0  0  0  0  0  0  0  0  0  0  0  0
    4.9035  -21.5960   23.3660 C   0  0  0  0  0  0  0  0  0  0  0  0
    5.6236  -22.5527   23.7462 O   0  0  0  0  0  0  0  0  0  0  0  0
    5.5317  -20.3342   23.2534 N   0  0  0  0  0  0  0  0  0  0  0  0
    6.9279  -20.0731   23.5878 C   0  0  1  0  0  0  0  0  0  0  0  0
    7.4303  -19.0666   22.6219 C   0  0  0  0  0  0  0  0  0  0  0  0
    8.8547  -18.6342   22.8275 C   0  0  0  0  0  0  0  0  0  0  0  0
    9.2345  -17.6671   21.7870 C   0  0  0  0  0  0  0  0  0  0  0  0
    9.2447  -16.4398   22.0482 O   0  0  0  0  0  0  0  0  0  0  0  0
    7.0483  -19.6312   25.0068 C   0  0  0  0  0  0  0  0  0  0  0  0
    6.2465  -18.7726   25.4473 O   0  0  0  0  0  0  0  0  0  0  0  0
    9.5823  -18.1021   20.5246 O   0  0  0  0  0  0  0  0  0  0  0  0
    8.0351  -20.1431   25.8829 N   0  0  0  0  0  0  0  0  0  0  0  0
    8.2131  -19.7315   27.2317 C   0  0  1  0  0  0  0  0  0  0  0  0
    8.2878  -20.8540   28.2025 C   0  0  0  0  0  0  0  0  0  0  0  0
    7.1274  -21.7451   28.3617 C   0  0  0  0  0  0  0  0  0  0  0  0
    7.2226  -22.7987   29.3722 C   0  0  0  0  0  0  0  0  0  0  0  0
    6.2786  -23.5994   29.5611 O   0  0  0  0  0  0  0  0  0  0  0  0
    9.3229  -18.7540   27.3986 C   0  0  0  0  0  0  0  0  0  0  0  0
    9.6158  -18.1850   28.6240 O   0  0  0  0  0  0  0  0  0  0  0  0
    8.3560  -22.9637   30.1688 O   0  0  0  0  0  0  0  0  0  0  0  0
   10.0130  -18.4335   26.4071 O   0  0  0  0  0  0  0  0  0  0  0  0
  2  1  1  6
  2  3  1  0
  4  3  1  0
  5  4  1  0
  6  5  1  0
  7  6  1  0
  8  9  2  0
  8  2  1  0
 10  8  1  0
 11 10  1  0
 11 12  1  6
 13 14  1  0
 13 12  1  0
 14 15  2  0
 16 17  2  0
 16 11  1  0
 18 14  1  0
 19 16  1  0
 20 21  1  1
 20 19  1  0
 22 23  1  0
 22 21  1  0
 23 27  1  0
 24 23  2  0
 25 20  1  0
 26 25  1  0
 28 25  2  0
M  END
$$$$
