KEE.pdb
     RDKit          3D

 28 27  0  0  1  0  0  0  0  0999 V2000
    9.9670  -16.3721   18.4320 N   0  0  0  0  0  0  0  0  0  0  0  0
   10.0306  -17.5550   19.2600 C   0  0  1  0  0  0  0  0  0  0  0  0
    9.2036  -18.6195   18.6964 C   0  0  0  0  0  0  0  0  0  0  0  0
    9.2025  -18.6743   17.1832 C   0  0  0  0  0  0  0  0  0  0  0  0
    8.3757  -19.8592   16.7192 C   0  0  0  0  0  0  0  0  0  0  0  0
    8.4447  -19.9975   15.2164 C   0  0  0  0  0  0  0  0  0  0  0  0
    7.6546  -21.1408   14.8180 N   0  0  0  0  0  0  0  0  0  0  0  0
   11.4261  -17.8693   19.5547 C   0  0  0  0  0  0  0  0  0  0  0  0
   11.6727  -18.8226   20.3349 O   0  0  0  0  0  0  0  0  0  0  0  0
   12.5401  -17.1773   19.0259 N   0  0  0  0  0  0  0  0  0  0  0  0
   13.9319  -17.5371   19.2766 C   0  0  1  0  0  0  0  0  0  0  0  0
   14.6684  -17.3582   18.0022 C   0  0  0  0  0  0  0  0  0  0  0  0
   16.1142  -17.7665   18.0332 C   0  0  0  0  0  0  0  0  0  0  0  0
   16.7381  -17.4813   16.7326 C   0  0  0  0  0  0  0  0  0  0  0  0
   17.8172  -16.8429   16.6837 O   0  0  0  0  0  0  0  0  0  0  0  0
   14.4875  -16.7179   20.3917 C   0  0  0  0  0  0  0  0  0  0  0  0
   14.6820  -15.4921   20.2085 O   0  0  0  0  0  0  0  0  0  0  0  0
   16.1442  -17.9142   15.5648 O   0  0  0  0  0  0  0  0  0  0  0  0
   14.8063  -17.2688   21.6560 N   0  0  0  0  0  0  0  0  0  0  0  0
   15.2309  -16.5155   22.7841 C   0  0  1  0  0  0  0  0  0  0  0  0
   14.5693  -16.9052   24.0563 C   0  0  0  0  0  0  0  0  0  0  0  0
   13.0994  -16.9224   24.1263 C   0  0  0  0  0  0  0  0  0  0  0  0
   12.4908  -17.4440   25.3500 C   0  0  0  0  0  0  0  0  0  0  0  0
   11.4631  -18.1582   25.3065 O   0  0  0  0  0  0  0  0  0  0  0  0
   16.7121  -16.4399   22.9076 C   0  0  0  0  0  0  0  0  0  0  0  0
   17.3285  -15.5429   23.7601 O   0  0  0  0  0  0  0  0  0  0  0  0
   13.0167  -17.1754   26.6140 O   0  0  0  0  0  0  0  0  0  0  0  0
   17.4250  -17.2056   22.2236 O   0  0  0  0  0  0  0  0  0  0  0  0
  2  1  1  6
  2  3  1  0
  4  3  1  0
  5  4  1  0
  6  5  1  0
  7  6  1  0
  8  9  2  0
  8  2  1  0
 10  8  1  0
 11 10  1  0
 11 12  1  6
 13 14  1  0
 13 12  1  0
 14 15  2  0
 16 17  2  0
 16 11  1  0
 18 14  1  0
 19 16  1  0
 20 21  1  1
 20 19  1  0
 22 23  1  0
 22 21  1  0
 23 27  1  0
 24 23  2  0
 25 20  1  0
 26 25  1  0
 28 25  2  0
M  END
$$$$
