KEE.pdb
     RDKit          3D

 28 27  0  0  1  0  0  0  0  0999 V2000
    7.7613  -14.3975   17.4227 N   0  0  0  0  0  0  0  0  0  0  0  0
    8.8913  -13.6915   17.9826 C   0  0  1  0  0  0  0  0  0  0  0  0
    8.4438  -12.7037   18.9618 C   0  0  0  0  0  0  0  0  0  0  0  0
    8.1633  -13.2710   20.3374 C   0  0  0  0  0  0  0  0  0  0  0  0
    7.7213  -12.1550   21.2657 C   0  0  0  0  0  0  0  0  0  0  0  0
    7.3486  -12.7094   22.6208 C   0  0  0  0  0  0  0  0  0  0  0  0
    6.8275  -11.6347   23.4354 N   0  0  0  0  0  0  0  0  0  0  0  0
    9.9043  -14.6532   18.4091 C   0  0  0  0  0  0  0  0  0  0  0  0
    9.5256  -15.7116   18.9701 O   0  0  0  0  0  0  0  0  0  0  0  0
   11.2984  -14.4880   18.2401 N   0  0  0  0  0  0  0  0  0  0  0  0
   12.3028  -15.4609   18.6575 C   0  0  1  0  0  0  0  0  0  0  0  0
   13.4781  -15.2872   17.7704 C   0  0  0  0  0  0  0  0  0  0  0  0
   13.3197  -15.8345   16.3799 C   0  0  0  0  0  0  0  0  0  0  0  0
   14.5916  -15.7145   15.6518 C   0  0  0  0  0  0  0  0  0  0  0  0
   14.7409  -14.8049   14.8005 O   0  0  0  0  0  0  0  0  0  0  0  0
   12.6299  -15.2829   20.1012 C   0  0  0  0  0  0  0  0  0  0  0  0
   12.7598  -14.1215   20.5575 O   0  0  0  0  0  0  0  0  0  0  0  0
   15.6234  -16.5959   15.9014 O   0  0  0  0  0  0  0  0  0  0  0  0
   12.8009  -16.3762   20.9839 N   0  0  0  0  0  0  0  0  0  0  0  0
   13.0900  -16.2602   22.3707 C   0  0  1  0  0  0  0  0  0  0  0  0
   12.4144  -17.2775   23.2172 C   0  0  0  0  0  0  0  0  0  0  0  0
   12.6877  -17.3058   24.6631 C   0  0  0  0  0  0  0  0  0  0  0  0
   12.0193  -18.3397   25.4533 C   0  0  0  0  0  0  0  0  0  0  0  0
   12.4049  -18.6171   26.6119 O   0  0  0  0  0  0  0  0  0  0  0  0
   14.5475  -16.1553   22.6530 C   0  0  0  0  0  0  0  0  0  0  0  0
   15.0247  -15.6538   23.8497 O   0  0  0  0  0  0  0  0  0  0  0  0
   10.9312  -19.0622   24.9629 O   0  0  0  0  0  0  0  0  0  0  0  0
   15.3688  -16.5286   21.7880 O   0  0  0  0  0  0  0  0  0  0  0  0
  2  1  1  1
  2  3  1  0
  4  3  1  0
  5  4  1  0
  6  5  1  0
  7  6  1  0
  8  9  2  0
  8  2  1  0
 10  8  1  0
 11 10  1  0
 11 12  1  6
 13 14  1  0
 13 12  1  0
 14 15  2  0
 16 17  2  0
 16 11  1  0
 18 14  1  0
 19 16  1  0
 20 21  1  1
 20 19  1  0
 22 23  1  0
 22 21  1  0
 23 27  1  0
 24 23  2  0
 25 20  1  0
 26 25  1  0
 28 25  2  0
M  END
$$$$
