KEE.pdb
     RDKit          3D

 28 27  0  0  1  0  0  0  0  0999 V2000
    9.2618  -18.8381   18.6901 N   0  0  0  0  0  0  0  0  0  0  0  0
    9.4579  -19.3581   20.0243 C   0  0  1  0  0  0  0  0  0  0  0  0
    8.8821  -20.6958   20.1422 C   0  0  0  0  0  0  0  0  0  0  0  0
    7.5788  -20.8825   19.3944 C   0  0  0  0  0  0  0  0  0  0  0  0
    7.1348  -22.3296   19.5027 C   0  0  0  0  0  0  0  0  0  0  0  0
    5.6963  -22.4766   19.0651 C   0  0  0  0  0  0  0  0  0  0  0  0
    5.6624  -22.6502   17.6302 N   0  0  0  0  0  0  0  0  0  0  0  0
   10.8554  -19.1885   20.4130 C   0  0  0  0  0  0  0  0  0  0  0  0
   11.2206  -19.6194   21.5352 O   0  0  0  0  0  0  0  0  0  0  0  0
   11.8467  -18.5688   19.6176 N   0  0  0  0  0  0  0  0  0  0  0  0
   13.2449  -18.4188   20.0074 C   0  0  1  0  0  0  0  0  0  0  0  0
   14.0191  -18.1497   18.7719 C   0  0  0  0  0  0  0  0  0  0  0  0
   15.4766  -17.8487   18.9800 C   0  0  0  0  0  0  0  0  0  0  0  0
   16.1242  -17.6107   17.6815 C   0  0  0  0  0  0  0  0  0  0  0  0
   15.5881  -18.0338   16.6288 O   0  0  0  0  0  0  0  0  0  0  0  0
   13.3864  -17.3435   21.0306 C   0  0  0  0  0  0  0  0  0  0  0  0
   12.6759  -16.3139   20.9343 O   0  0  0  0  0  0  0  0  0  0  0  0
   17.3179  -16.9219   17.6138 O   0  0  0  0  0  0  0  0  0  0  0  0
   14.2940  -17.4364   22.1128 N   0  0  0  0  0  0  0  0  0  0  0  0
   14.4409  -16.4580   23.1332 C   0  0  1  0  0  0  0  0  0  0  0  0
   13.3228  -16.4309   24.1116 C   0  0  0  0  0  0  0  0  0  0  0  0
   12.9915  -17.6548   24.8587 C   0  0  0  0  0  0  0  0  0  0  0  0
   11.9051  -17.5729   25.8350 C   0  0  0  0  0  0  0  0  0  0  0  0
   10.7196  -17.8008   25.5025 O   0  0  0  0  0  0  0  0  0  0  0  0
   15.7762  -16.4992   23.7891 C   0  0  0  0  0  0  0  0  0  0  0  0
   16.2033  -15.4955   24.6385 O   0  0  0  0  0  0  0  0  0  0  0  0
   12.1305  -17.2399   27.1710 O   0  0  0  0  0  0  0  0  0  0  0  0
   16.5383  -17.4652   23.5698 O   0  0  0  0  0  0  0  0  0  0  0  0
  2  1  1  6
  2  3  1  0
  4  3  1  0
  5  4  1  0
  6  5  1  0
  7  6  1  0
  8  9  2  0
  8  2  1  0
 10  8  1  0
 11 10  1  0
 11 12  1  6
 13 14  1  0
 13 12  1  0
 14 15  2  0
 16 17  2  0
 16 11  1  0
 18 14  1  0
 19 16  1  0
 20 21  1  1
 20 19  1  0
 22 23  1  0
 22 21  1  0
 23 27  1  0
 24 23  2  0
 25 20  1  0
 26 25  1  0
 28 25  2  0
M  END
$$$$
