KEE.pdb
     RDKit          3D

 28 27  0  0  1  0  0  0  0  0999 V2000
    6.8449  -16.7800   19.1344 N   0  0  0  0  0  0  0  0  0  0  0  0
    8.0514  -16.0369   18.8497 C   0  0  1  0  0  0  0  0  0  0  0  0
    7.9145  -14.6503   19.2893 C   0  0  0  0  0  0  0  0  0  0  0  0
    7.9841  -14.4615   20.7901 C   0  0  0  0  0  0  0  0  0  0  0  0
    7.8440  -12.9875   21.1228 C   0  0  0  0  0  0  0  0  0  0  0  0
    7.8467  -12.7796   22.6192 C   0  0  0  0  0  0  0  0  0  0  0  0
    7.7148  -11.3660   22.8923 N   0  0  0  0  0  0  0  0  0  0  0  0
    9.2097  -16.7857   19.3299 C   0  0  0  0  0  0  0  0  0  0  0  0
    9.1068  -17.4186   20.4102 O   0  0  0  0  0  0  0  0  0  0  0  0
   10.4574  -16.8573   18.6684 N   0  0  0  0  0  0  0  0  0  0  0  0
   11.6003  -17.6319   19.1410 C   0  0  1  0  0  0  0  0  0  0  0  0
   12.5864  -17.6797   18.0347 C   0  0  0  0  0  0  0  0  0  0  0  0
   12.3174  -18.7145   16.9789 C   0  0  0  0  0  0  0  0  0  0  0  0
   13.2772  -18.5586   15.8758 C   0  0  0  0  0  0  0  0  0  0  0  0
   12.9331  -17.9605   14.8278 O   0  0  0  0  0  0  0  0  0  0  0  0
   12.1528  -17.0335   20.3899 C   0  0  0  0  0  0  0  0  0  0  0  0
   12.1944  -15.7844   20.5000 O   0  0  0  0  0  0  0  0  0  0  0  0
   14.5560  -19.0648   15.9878 O   0  0  0  0  0  0  0  0  0  0  0  0
   12.6350  -17.8205   21.4631 N   0  0  0  0  0  0  0  0  0  0  0  0
   13.0377  -17.3082   22.7263 C   0  0  1  0  0  0  0  0  0  0  0  0
   12.8287  -18.2502   23.8563 C   0  0  0  0  0  0  0  0  0  0  0  0
   11.6492  -18.0855   24.7208 C   0  0  0  0  0  0  0  0  0  0  0  0
   11.4924  -19.0258   25.8304 C   0  0  0  0  0  0  0  0  0  0  0  0
   10.3969  -19.1464   26.4248 O   0  0  0  0  0  0  0  0  0  0  0  0
   14.4088  -16.7298   22.7078 C   0  0  0  0  0  0  0  0  0  0  0  0
   14.7911  -15.7305   23.5832 O   0  0  0  0  0  0  0  0  0  0  0  0
   12.5428  -19.8269   26.2793 O   0  0  0  0  0  0  0  0  0  0  0  0
   15.2430  -17.1543   21.8795 O   0  0  0  0  0  0  0  0  0  0  0  0
  2  1  1  1
  2  3  1  0
  4  3  1  0
  5  4  1  0
  6  5  1  0
  7  6  1  0
  8  9  2  0
  8  2  1  0
 10  8  1  0
 11 10  1  0
 11 12  1  6
 13 14  1  0
 13 12  1  0
 14 15  2  0
 16 17  2  0
 16 11  1  0
 18 14  1  0
 19 16  1  0
 20 21  1  1
 20 19  1  0
 22 23  1  0
 22 21  1  0
 23 27  1  0
 24 23  2  0
 25 20  1  0
 26 25  1  0
 28 25  2  0
M  END
$$$$
