AMT.pdb
     RDKit          3D

 21 20  0  0  1  0  0  0  0  0999 V2000
    7.7485  -12.8530   19.5791 C   0  0  0  0  0  0  0  0  0  0  0  0
    8.0181  -14.2425   20.1132 C   0  0  2  0  0  0  0  0  0  0  0  0
    6.7538  -14.9355   20.1465 N   0  0  0  0  0  0  0  0  0  0  0  0
    8.5903  -14.1914   21.4959 C   0  0  0  0  0  0  0  0  0  0  0  0
    9.7314  -13.7523   21.6783 O   0  0  0  0  0  0  0  0  0  0  0  0
    6.1537  -10.3918   26.7562 C   0  0  0  0  0  0  0  0  0  0  0  0
    6.3066  -12.1506   26.5579 S   0  0  0  0  0  0  0  0  0  0  0  0
    7.1845  -12.7276   25.1277 C   0  0  0  0  0  0  0  0  0  0  0  0
    7.3970  -14.2090   25.0171 C   0  0  0  0  0  0  0  0  0  0  0  0
    8.2736  -14.6851   23.9609 C   0  0  2  0  0  0  0  0  0  0  0  0
    7.8562  -14.6341   22.6031 N   0  0  0  0  0  0  0  0  0  0  0  0
    8.6258  -16.1277   24.3218 C   0  0  0  0  0  0  0  0  0  0  0  0
    7.6902  -16.9477   24.4412 O   0  0  0  0  0  0  0  0  0  0  0  0
   11.1581  -18.1909   22.2669 C   0  0  0  0  0  0  0  0  0  0  0  0
   11.5103  -18.2813   23.7298 C   0  0  1  0  0  0  0  0  0  0  0  0
   12.5564  -17.3908   23.9531 O   0  0  0  0  0  0  0  0  0  0  0  0
   10.3629  -17.9287   24.6321 C   0  0  2  0  0  0  0  0  0  0  0  0
    9.9519  -16.5555   24.5213 N   0  0  0  0  0  0  0  0  0  0  0  0
   10.7806  -18.1957   26.0372 C   0  0  0  0  0  0  0  0  0  0  0  0
   10.8768  -17.2465   26.8656 O   0  0  0  0  0  0  0  0  0  0  0  0
   11.0810  -19.4639   26.5103 O   0  0  0  0  0  0  0  0  0  0  0  0
  2  1  1  1
  3  2  1  0
  4  2  1  0
  4 11  1  0
  5  4  2  0
  7  6  1  0
  8  7  1  0
 10  9  1  1
  9  8  1  0
 10 11  1  0
 10 12  1  0
 12 18  1  0
 12 13  2  0
 15 17  1  0
 15 14  1  6
 16 15  1  0
 17 19  1  0
 17 18  1  1
 19 21  1  0
 20 19  2  0
M  END
$$$$
