AMT.pdb
     RDKit          3D

 21 20  0  0  1  0  0  0  0  0999 V2000
    7.8523  -13.0351   18.9646 C   0  0  0  0  0  0  0  0  0  0  0  0
    8.0375  -14.4089   19.5705 C   0  0  2  0  0  0  0  0  0  0  0  0
    6.7456  -15.0498   19.5681 N   0  0  0  0  0  0  0  0  0  0  0  0
    8.5418  -14.3185   20.9774 C   0  0  0  0  0  0  0  0  0  0  0  0
    9.7438  -14.1269   21.1936 O   0  0  0  0  0  0  0  0  0  0  0  0
    6.9125  -11.6074   28.2110 C   0  0  0  0  0  0  0  0  0  0  0  0
    6.3152  -12.2068   26.6489 S   0  0  0  0  0  0  0  0  0  0  0  0
    7.4203  -13.2179   25.6971 C   0  0  0  0  0  0  0  0  0  0  0  0
    7.0001  -13.5421   24.2935 C   0  0  0  0  0  0  0  0  0  0  0  0
    7.9644  -14.2180   23.4426 C   0  0  2  0  0  0  0  0  0  0  0  0
    7.6753  -14.4470   22.0699 N   0  0  0  0  0  0  0  0  0  0  0  0
    8.2628  -15.5548   24.1205 C   0  0  0  0  0  0  0  0  0  0  0  0
    7.3079  -16.3348   24.3247 O   0  0  0  0  0  0  0  0  0  0  0  0
   10.3655  -18.3491   22.8472 C   0  0  0  0  0  0  0  0  0  0  0  0
   10.9160  -17.9522   24.1933 C   0  0  1  0  0  0  0  0  0  0  0  0
   12.0100  -17.1246   23.9583 O   0  0  0  0  0  0  0  0  0  0  0  0
    9.9176  -17.2189   25.0421 C   0  0  2  0  0  0  0  0  0  0  0  0
    9.5606  -15.9293   24.5163 N   0  0  0  0  0  0  0  0  0  0  0  0
   10.5066  -17.0407   26.3990 C   0  0  0  0  0  0  0  0  0  0  0  0
   10.8361  -15.8905   26.8057 O   0  0  0  0  0  0  0  0  0  0  0  0
   10.7240  -18.0933   27.2748 O   0  0  0  0  0  0  0  0  0  0  0  0
  2  1  1  1
  3  2  1  0
  4  2  1  0
  4 11  1  0
  5  4  2  0
  7  6  1  0
  8  7  1  0
 10  9  1  1
  9  8  1  0
 10 11  1  0
 10 12  1  0
 12 18  1  0
 12 13  2  0
 15 17  1  0
 15 14  1  6
 16 15  1  0
 17 19  1  0
 17 18  1  6
 19 21  1  0
 20 19  2  0
M  END
$$$$
