AMT.pdb
     RDKit          3D

 21 20  0  0  1  0  0  0  0  0999 V2000
    7.8901  -13.0368   19.3745 C   0  0  0  0  0  0  0  0  0  0  0  0
    7.8072  -14.3621   20.0994 C   0  0  2  0  0  0  0  0  0  0  0  0
    6.4076  -14.6763   20.2476 N   0  0  0  0  0  0  0  0  0  0  0  0
    8.4417  -14.2812   21.4532 C   0  0  0  0  0  0  0  0  0  0  0  0
    9.6680  -14.1631   21.5567 O   0  0  0  0  0  0  0  0  0  0  0  0
    5.4808  -11.3888   26.7714 C   0  0  0  0  0  0  0  0  0  0  0  0
    7.0700  -11.9770   27.3050 S   0  0  0  0  0  0  0  0  0  0  0  0
    7.8684  -13.1857   26.2799 C   0  0  0  0  0  0  0  0  0  0  0  0
    7.3370  -13.3468   24.8858 C   0  0  0  0  0  0  0  0  0  0  0  0
    8.1090  -14.1602   23.9622 C   0  0  2  0  0  0  0  0  0  0  0  0
    7.6715  -14.3364   22.6214 N   0  0  0  0  0  0  0  0  0  0  0  0
    8.2546  -15.5296   24.6247 C   0  0  0  0  0  0  0  0  0  0  0  0
    7.2126  -16.1333   24.9588 O   0  0  0  0  0  0  0  0  0  0  0  0
    9.5123  -18.7120   23.2360 C   0  0  0  0  0  0  0  0  0  0  0  0
   10.3715  -18.3809   24.4296 C   0  0  1  0  0  0  0  0  0  0  0  0
   11.5292  -17.7798   23.9444 O   0  0  0  0  0  0  0  0  0  0  0  0
    9.6996  -17.4469   25.3948 C   0  0  2  0  0  0  0  0  0  0  0  0
    9.5076  -16.1235   24.8670 N   0  0  0  0  0  0  0  0  0  0  0  0
   10.5446  -17.3606   26.6189 C   0  0  0  0  0  0  0  0  0  0  0  0
   11.1805  -16.3008   26.8819 O   0  0  0  0  0  0  0  0  0  0  0  0
   10.6827  -18.4057   27.5195 O   0  0  0  0  0  0  0  0  0  0  0  0
  2  1  1  1
  3  2  1  0
  4  2  1  0
  4 11  1  0
  5  4  2  0
  7  6  1  0
  8  7  1  0
 10  9  1  1
  9  8  1  0
 10 11  1  0
 10 12  1  0
 12 18  1  0
 12 13  2  0
 15 17  1  0
 15 14  1  6
 16 15  1  0
 17 19  1  0
 17 18  1  6
 19 21  1  0
 20 19  2  0
M  END
$$$$
