AMT.pdb
     RDKit          3D

 21 20  0  0  1  0  0  0  0  0999 V2000
    7.7250  -12.9519   19.0120 C   0  0  0  0  0  0  0  0  0  0  0  0
    7.8541  -14.3124   19.6610 C   0  0  2  0  0  0  0  0  0  0  0  0
    6.5454  -14.9178   19.6379 N   0  0  0  0  0  0  0  0  0  0  0  0
    8.3198  -14.1957   21.0792 C   0  0  0  0  0  0  0  0  0  0  0  0
    9.5157  -14.0010   21.3246 O   0  0  0  0  0  0  0  0  0  0  0  0
    7.4507  -12.1211   28.4479 C   0  0  0  0  0  0  0  0  0  0  0  0
    6.8620  -12.1751   26.7725 S   0  0  0  0  0  0  0  0  0  0  0  0
    6.9958  -13.7259   25.9204 C   0  0  0  0  0  0  0  0  0  0  0  0
    6.6708  -13.7223   24.4553 C   0  0  0  0  0  0  0  0  0  0  0  0
    7.7037  -14.1701   23.5369 C   0  0  2  0  0  0  0  0  0  0  0  0
    7.4235  -14.3027   22.1497 N   0  0  0  0  0  0  0  0  0  0  0  0
    8.1979  -15.5113   24.0776 C   0  0  0  0  0  0  0  0  0  0  0  0
    7.3648  -16.4335   24.2095 O   0  0  0  0  0  0  0  0  0  0  0  0
   12.4504  -16.2767   24.2069 C   0  0  0  0  0  0  0  0  0  0  0  0
   11.3753  -17.3025   23.9532 C   0  0  1  0  0  0  0  0  0  0  0  0
   11.8861  -18.5349   24.3498 O   0  0  0  0  0  0  0  0  0  0  0  0
   10.1102  -17.0264   24.7138 C   0  0  2  0  0  0  0  0  0  0  0  0
    9.5427  -15.7370   24.4268 N   0  0  0  0  0  0  0  0  0  0  0  0
   10.4192  -17.1047   26.1692 C   0  0  0  0  0  0  0  0  0  0  0  0
   10.3569  -16.0697   26.8914 O   0  0  0  0  0  0  0  0  0  0  0  0
   10.7837  -18.2822   26.8041 O   0  0  0  0  0  0  0  0  0  0  0  0
  2  1  1  1
  3  2  1  0
  4  2  1  0
  4 11  1  0
  5  4  2  0
  7  6  1  0
  8  7  1  0
 10  9  1  1
  9  8  1  0
 10 11  1  0
 10 12  1  0
 12 18  1  0
 12 13  2  0
 15 17  1  0
 15 14  1  1
 16 15  1  0
 17 19  1  0
 17 18  1  1
 19 21  1  0
 20 19  2  0
M  END
$$$$
