AMT.pdb
     RDKit          3D

 21 20  0  0  1  0  0  0  0  0999 V2000
    7.1455  -17.3173   20.0400 C   0  0  0  0  0  0  0  0  0  0  0  0
    7.8106  -15.9588   20.0701 C   0  0  2  0  0  0  0  0  0  0  0  0
    8.9086  -16.0047   19.1364 N   0  0  0  0  0  0  0  0  0  0  0  0
    8.3359  -15.6414   21.4358 C   0  0  0  0  0  0  0  0  0  0  0  0
    9.5231  -15.8536   21.7077 O   0  0  0  0  0  0  0  0  0  0  0  0
    7.1273  -11.3747   28.1252 C   0  0  0  0  0  0  0  0  0  0  0  0
    6.4467  -12.1433   26.6753 S   0  0  0  0  0  0  0  0  0  0  0  0
    7.4755  -13.3119   25.8237 C   0  0  0  0  0  0  0  0  0  0  0  0
    7.0108  -13.7602   24.4691 C   0  0  0  0  0  0  0  0  0  0  0  0
    7.8749  -14.6618   23.7267 C   0  0  2  0  0  0  0  0  0  0  0  0
    7.5060  -15.1029   22.4268 N   0  0  0  0  0  0  0  0  0  0  0  0
    8.0885  -15.8790   24.6259 C   0  0  0  0  0  0  0  0  0  0  0  0
    7.0936  -16.5798   24.9103 O   0  0  0  0  0  0  0  0  0  0  0  0
   10.1671  -18.8637   23.8604 C   0  0  0  0  0  0  0  0  0  0  0  0
   10.6527  -18.3136   25.1773 C   0  0  1  0  0  0  0  0  0  0  0  0
   11.7940  -17.5633   24.9097 O   0  0  0  0  0  0  0  0  0  0  0  0
    9.6382  -17.4403   25.8579 C   0  0  2  0  0  0  0  0  0  0  0  0
    9.3524  -16.2301   25.1363 N   0  0  0  0  0  0  0  0  0  0  0  0
   10.1635  -17.0858   27.2063 C   0  0  0  0  0  0  0  0  0  0  0  0
   10.4870  -15.8935   27.4718 O   0  0  0  0  0  0  0  0  0  0  0  0
   10.3259  -18.0131   28.2241 O   0  0  0  0  0  0  0  0  0  0  0  0
  2  1  1  1
  3  2  1  0
  4  2  1  0
  4 11  1  0
  5  4  2  0
  7  6  1  0
  8  7  1  0
 10  9  1  1
  9  8  1  0
 10 11  1  0
 10 12  1  0
 12 18  1  0
 12 13  2  0
 15 17  1  0
 15 14  1  6
 16 15  1  0
 17 19  1  0
 17 18  1  6
 19 21  1  0
 20 19  2  0
M  END
$$$$
