TAP.pdb
     RDKit          3D

 20 20  0  0  1  0  0  0  0  0999 V2000
   10.9624  -15.4781   19.5160 C   0  0  0  0  0  0  0  0  0  0  0  0
   10.5868  -14.1273   20.0805 C   0  0  1  0  0  0  0  0  0  0  0  0
   11.3283  -13.1055   19.4631 O   0  0  0  0  0  0  0  0  0  0  0  0
    9.1443  -13.8671   19.7754 C   0  0  2  0  0  0  0  0  0  0  0  0
    8.9495  -12.6259   19.0465 N   0  0  0  0  0  0  0  0  0  0  0  0
    8.4097  -13.8015   21.0888 C   0  0  0  0  0  0  0  0  0  0  0  0
    8.3137  -12.7150   21.7126 O   0  0  0  0  0  0  0  0  0  0  0  0
    6.1139  -16.0551   23.0432 C   0  0  0  0  0  0  0  0  0  0  0  0
    6.9865  -14.8401   22.8599 C   0  0  2  0  0  0  0  0  0  0  0  0
    7.8034  -14.9473   21.6696 N   0  0  0  0  0  0  0  0  0  0  0  0
    7.8137  -14.5422   24.0462 C   0  0  0  0  0  0  0  0  0  0  0  0
    8.9498  -15.0793   24.0878 O   0  0  0  0  0  0  0  0  0  0  0  0
    7.3885  -13.7009   25.1044 N   0  0  0  0  0  0  0  0  0  0  0  0
    6.1502  -12.9434   25.1312 C   0  0  0  0  0  0  0  0  0  0  0  0
    6.3891  -11.8175   26.1389 C   0  0  0  0  0  0  0  0  0  0  0  0
    7.2758  -12.5087   27.1405 C   0  0  0  0  0  0  0  0  0  0  0  0
    8.0917  -13.4467   26.3229 C   0  0  1  0  0  0  0  0  0  0  0  0
    8.3527  -14.6635   27.1122 C   0  0  0  0  0  0  0  0  0  0  0  0
    7.7367  -15.7342   26.8962 O   0  0  0  0  0  0  0  0  0  0  0  0
    9.2943  -14.6293   28.1118 O   0  0  0  0  0  0  0  0  0  0  0  0
  2  1  1  6
  3  2  1  0
  4  6  1  0
  4  2  1  0
  4  5  1  1
  6 10  1  0
  7  6  2  0
  9  8  1  1
  9 11  1  0
 10  9  1  0
 11 13  1  0
 11 12  2  0
 13 17  1  0
 14 15  1  0
 14 13  1  0
 15 16  1  0
 16 17  1  0
 17 18  1  1
 18 19  2  0
 18 20  1  0
M  END
$$$$
