TAP.pdb
     RDKit          3D

 20 20  0  0  1  0  0  0  0  0999 V2000
   11.2168  -17.6974   16.5680 C   0  0  0  0  0  0  0  0  0  0  0  0
   10.7735  -16.8410   15.4042 C   0  0  1  0  0  0  0  0  0  0  0  0
   11.3097  -17.3232   14.1980 O   0  0  0  0  0  0  0  0  0  0  0  0
    9.2835  -16.9294   15.2874 C   0  0  2  0  0  0  0  0  0  0  0  0
    8.7832  -16.2674   14.0951 N   0  0  0  0  0  0  0  0  0  0  0  0
    8.6953  -16.2770   16.5110 C   0  0  0  0  0  0  0  0  0  0  0  0
    8.7920  -15.0358   16.6814 O   0  0  0  0  0  0  0  0  0  0  0  0
    6.4538  -17.2981   19.3677 C   0  0  0  0  0  0  0  0  0  0  0  0
    7.3967  -16.3722   18.6431 C   0  0  2  0  0  0  0  0  0  0  0  0
    8.0165  -17.0253   17.5095 N   0  0  0  0  0  0  0  0  0  0  0  0
    8.4131  -15.7754   19.5326 C   0  0  0  0  0  0  0  0  0  0  0  0
    9.5005  -16.3975   19.6395 O   0  0  0  0  0  0  0  0  0  0  0  0
    8.2146  -14.5674   20.2466 N   0  0  0  0  0  0  0  0  0  0  0  0
    7.1456  -13.6147   20.0073 C   0  0  0  0  0  0  0  0  0  0  0  0
    7.6493  -12.2911   20.5857 C   0  0  0  0  0  0  0  0  0  0  0  0
    8.4438  -12.7761   21.7693 C   0  0  0  0  0  0  0  0  0  0  0  0
    9.0204  -14.0716   21.3184 C   0  0  1  0  0  0  0  0  0  0  0  0
    9.0901  -14.9884   22.4700 C   0  0  0  0  0  0  0  0  0  0  0  0
    8.2171  -15.8668   22.6673 O   0  0  0  0  0  0  0  0  0  0  0  0
   10.1367  -14.8824   23.3534 O   0  0  0  0  0  0  0  0  0  0  0  0
  2  1  1  1
  3  2  1  0
  4  6  1  0
  4  2  1  0
  4  5  1  6
  6 10  1  0
  7  6  2  0
  9  8  1  1
  9 11  1  0
 10  9  1  0
 11 13  1  0
 11 12  2  0
 13 17  1  0
 14 15  1  0
 14 13  1  0
 15 16  1  0
 16 17  1  0
 17 18  1  1
 18 19  2  0
 18 20  1  0
M  END
$$$$
