TAP.pdb
     RDKit          3D

 20 20  0  0  1  0  0  0  0  0999 V2000
    9.7857  -15.9247   20.7643 C   0  0  0  0  0  0  0  0  0  0  0  0
    9.5393  -14.5156   20.2764 C   0  0  1  0  0  0  0  0  0  0  0  0
    9.6161  -14.4530   18.8745 O   0  0  0  0  0  0  0  0  0  0  0  0
    8.1476  -14.1156   20.6570 C   0  0  2  0  0  0  0  0  0  0  0  0
    7.7661  -12.8349   20.0874 N   0  0  0  0  0  0  0  0  0  0  0  0
    8.0962  -14.0346   22.1602 C   0  0  0  0  0  0  0  0  0  0  0  0
    8.5003  -13.0059   22.7580 O   0  0  0  0  0  0  0  0  0  0  0  0
    6.1531  -15.7061   24.8302 C   0  0  0  0  0  0  0  0  0  0  0  0
    7.3633  -14.9330   24.3731 C   0  0  2  0  0  0  0  0  0  0  0  0
    7.5966  -15.1012   22.9543 N   0  0  0  0  0  0  0  0  0  0  0  0
    8.5768  -15.2514   25.1518 C   0  0  0  0  0  0  0  0  0  0  0  0
    9.3616  -16.0949   24.6485 O   0  0  0  0  0  0  0  0  0  0  0  0
    8.8794  -14.6608   26.4040 N   0  0  0  0  0  0  0  0  0  0  0  0
    8.0693  -13.6649   27.0822 C   0  0  0  0  0  0  0  0  0  0  0  0
    9.0247  -12.9560   28.0437 C   0  0  0  0  0  0  0  0  0  0  0  0
    9.9306  -14.0912   28.4413 C   0  0  0  0  0  0  0  0  0  0  0  0
   10.0229  -14.9330   27.2178 C   0  0  1  0  0  0  0  0  0  0  0  0
   10.1317  -16.3467   27.6193 C   0  0  0  0  0  0  0  0  0  0  0  0
   11.2006  -16.8240   28.0691 O   0  0  0  0  0  0  0  0  0  0  0  0
    9.0366  -17.1674   27.4999 O   0  0  0  0  0  0  0  0  0  0  0  0
  2  1  1  6
  3  2  1  0
  4  6  1  0
  4  2  1  0
  4  5  1  6
  6 10  1  0
  7  6  2  0
  9  8  1  1
  9 11  1  0
 10  9  1  0
 11 13  1  0
 11 12  2  0
 13 17  1  0
 14 15  1  0
 14 13  1  0
 15 16  1  0
 16 17  1  0
 17 18  1  1
 18 19  2  0
 18 20  1  0
M  END
$$$$
