TAP.pdb
     RDKit          3D

 20 20  0  0  1  0  0  0  0  0999 V2000
    9.9917  -14.8291   18.7529 C   0  0  0  0  0  0  0  0  0  0  0  0
    9.4507  -14.5791   20.1419 C   0  0  1  0  0  0  0  0  0  0  0  0
    9.9799  -13.3921   20.6766 O   0  0  0  0  0  0  0  0  0  0  0  0
    7.9677  -14.3951   20.0502 C   0  0  2  0  0  0  0  0  0  0  0  0
    7.6048  -13.1951   19.3165 N   0  0  0  0  0  0  0  0  0  0  0  0
    7.4359  -14.3067   21.4566 C   0  0  0  0  0  0  0  0  0  0  0  0
    7.1534  -13.1920   21.9632 O   0  0  0  0  0  0  0  0  0  0  0  0
    6.1318  -16.6758   24.0695 C   0  0  0  0  0  0  0  0  0  0  0  0
    6.6921  -15.3590   23.5969 C   0  0  2  0  0  0  0  0  0  0  0  0
    7.2341  -15.4617   22.2585 N   0  0  0  0  0  0  0  0  0  0  0  0
    7.6851  -14.7888   24.5292 C   0  0  0  0  0  0  0  0  0  0  0  0
    8.8825  -15.1280   24.3505 O   0  0  0  0  0  0  0  0  0  0  0  0
    7.3494  -13.9028   25.5831 N   0  0  0  0  0  0  0  0  0  0  0  0
    6.0222  -13.3788   25.8510 C   0  0  0  0  0  0  0  0  0  0  0  0
    6.2497  -12.1047   26.6664 C   0  0  0  0  0  0  0  0  0  0  0  0
    7.4621  -12.4894   27.4724 C   0  0  0  0  0  0  0  0  0  0  0  0
    8.2442  -13.3689   26.5620 C   0  0  1  0  0  0  0  0  0  0  0  0
    8.9191  -14.4048   27.3639 C   0  0  0  0  0  0  0  0  0  0  0  0
    8.5149  -15.5917   27.3825 O   0  0  0  0  0  0  0  0  0  0  0  0
   10.0202  -14.0666   28.1124 O   0  0  0  0  0  0  0  0  0  0  0  0
  2  1  1  6
  3  2  1  0
  4  6  1  0
  4  2  1  0
  4  5  1  6
  6 10  1  0
  7  6  2  0
  9  8  1  1
  9 11  1  0
 10  9  1  0
 11 13  1  0
 11 12  2  0
 13 17  1  0
 14 15  1  0
 14 13  1  0
 15 16  1  0
 16 17  1  0
 17 18  1  1
 18 19  2  0
 18 20  1  0
M  END
$$$$
