TAP.pdb
     RDKit          3D

 20 20  0  0  1  0  0  0  0  0999 V2000
    8.8907  -13.7168   20.7557 C   0  0  0  0  0  0  0  0  0  0  0  0
    7.9257  -14.4654   19.8653 C   0  0  1  0  0  0  0  0  0  0  0  0
    8.4828  -14.6753   18.5922 O   0  0  0  0  0  0  0  0  0  0  0  0
    7.6757  -15.8157   20.4619 C   0  0  2  0  0  0  0  0  0  0  0  0
    6.7186  -16.5907   19.6917 N   0  0  0  0  0  0  0  0  0  0  0  0
    7.1468  -15.6024   21.8560 C   0  0  0  0  0  0  0  0  0  0  0  0
    6.0271  -15.0620   22.0380 O   0  0  0  0  0  0  0  0  0  0  0  0
    7.0990  -17.1794   24.9972 C   0  0  0  0  0  0  0  0  0  0  0  0
    7.3263  -15.8443   24.3360 C   0  0  2  0  0  0  0  0  0  0  0  0
    7.8798  -15.9967   23.0071 N   0  0  0  0  0  0  0  0  0  0  0  0
    8.1507  -14.9312   25.1527 C   0  0  0  0  0  0  0  0  0  0  0  0
    9.3959  -15.0082   24.9969 O   0  0  0  0  0  0  0  0  0  0  0  0
    7.6081  -14.0021   26.0751 N   0  0  0  0  0  0  0  0  0  0  0  0
    6.1991  -13.6818   26.2162 C   0  0  0  0  0  0  0  0  0  0  0  0
    6.1641  -12.3047   26.8812 C   0  0  0  0  0  0  0  0  0  0  0  0
    7.3673  -12.3879   27.7828 C   0  0  0  0  0  0  0  0  0  0  0  0
    8.3389  -13.2197   27.0225 C   0  0  1  0  0  0  0  0  0  0  0  0
    9.1182  -14.0314   27.9741 C   0  0  0  0  0  0  0  0  0  0  0  0
    8.9025  -15.2573   28.1261 O   0  0  0  0  0  0  0  0  0  0  0  0
   10.1080  -13.4344   28.7164 O   0  0  0  0  0  0  0  0  0  0  0  0
  2  1  1  1
  3  2  1  0
  4  6  1  0
  4  2  1  0
  4  5  1  6
  6 10  1  0
  7  6  2  0
  9  8  1  1
  9 11  1  0
 10  9  1  0
 11 13  1  0
 11 12  2  0
 13 17  1  0
 14 15  1  0
 14 13  1  0
 15 16  1  0
 16 17  1  0
 17 18  1  1
 18 19  2  0
 18 20  1  0
M  END
$$$$
