TAP.pdb
     RDKit          3D

 20 20  0  0  1  0  0  0  0  0999 V2000
   10.8404  -14.2519   20.9818 C   0  0  0  0  0  0  0  0  0  0  0  0
   10.1218  -13.3122   20.0411 C   0  0  1  0  0  0  0  0  0  0  0  0
   10.7655  -13.2682   18.7926 O   0  0  0  0  0  0  0  0  0  0  0  0
    8.7407  -13.8392   19.8033 C   0  0  2  0  0  0  0  0  0  0  0  0
    7.9817  -13.0051   18.8878 N   0  0  0  0  0  0  0  0  0  0  0  0
    8.0415  -13.8909   21.1365 C   0  0  0  0  0  0  0  0  0  0  0  0
    7.5461  -12.8506   21.6380 O   0  0  0  0  0  0  0  0  0  0  0  0
    6.6247  -16.5121   23.3923 C   0  0  0  0  0  0  0  0  0  0  0  0
    7.1880  -15.1402   23.1244 C   0  0  2  0  0  0  0  0  0  0  0  0
    7.9141  -15.0989   21.8727 N   0  0  0  0  0  0  0  0  0  0  0  0
    8.0170  -14.6320   24.2357 C   0  0  0  0  0  0  0  0  0  0  0  0
    9.2370  -14.9350   24.2102 O   0  0  0  0  0  0  0  0  0  0  0  0
    7.5052  -13.8415   25.2948 N   0  0  0  0  0  0  0  0  0  0  0  0
    6.1374  -13.3674   25.4056 C   0  0  0  0  0  0  0  0  0  0  0  0
    6.2049  -12.1597   26.3421 C   0  0  0  0  0  0  0  0  0  0  0  0
    7.2998  -12.5848   27.2843 C   0  0  0  0  0  0  0  0  0  0  0  0
    8.2322  -13.3717   26.4325 C   0  0  1  0  0  0  0  0  0  0  0  0
    8.8165  -14.4559   27.2416 C   0  0  0  0  0  0  0  0  0  0  0  0
    8.4092  -15.6385   27.1520 O   0  0  0  0  0  0  0  0  0  0  0  0
    9.8344  -14.1690   28.1184 O   0  0  0  0  0  0  0  0  0  0  0  0
  2  1  1  1
  3  2  1  0
  4  6  1  0
  4  2  1  0
  4  5  1  6
  6 10  1  0
  7  6  2  0
  9  8  1  1
  9 11  1  0
 10  9  1  0
 11 13  1  0
 11 12  2  0
 13 17  1  0
 14 15  1  0
 14 13  1  0
 15 16  1  0
 16 17  1  0
 17 18  1  1
 18 19  2  0
 18 20  1  0
M  END
$$$$
