TAP.pdb
     RDKit          3D

 20 20  0  0  1  0  0  0  0  0999 V2000
    9.0640  -12.5103   20.4754 C   0  0  0  0  0  0  0  0  0  0  0  0
    8.3906  -13.2880   19.3682 C   0  0  1  0  0  0  0  0  0  0  0  0
    9.1388  -13.2138   18.1808 O   0  0  0  0  0  0  0  0  0  0  0  0
    8.3378  -14.7312   19.7629 C   0  0  2  0  0  0  0  0  0  0  0  0
    7.7294  -15.5618   18.7382 N   0  0  0  0  0  0  0  0  0  0  0  0
    7.5309  -14.8230   21.0316 C   0  0  0  0  0  0  0  0  0  0  0  0
    6.3503  -14.3945   21.0694 O   0  0  0  0  0  0  0  0  0  0  0  0
    6.8977  -16.7875   23.8518 C   0  0  0  0  0  0  0  0  0  0  0  0
    7.3019  -15.3914   23.4535 C   0  0  2  0  0  0  0  0  0  0  0  0
    8.0618  -15.3892   22.2213 N   0  0  0  0  0  0  0  0  0  0  0  0
    8.0242  -14.6746   24.5236 C   0  0  0  0  0  0  0  0  0  0  0  0
    9.2696  -14.8411   24.5692 O   0  0  0  0  0  0  0  0  0  0  0  0
    7.3865  -13.8339   25.4696 N   0  0  0  0  0  0  0  0  0  0  0  0
    5.9723  -13.5061   25.4852 C   0  0  0  0  0  0  0  0  0  0  0  0
    5.8702  -12.2023   26.2786 C   0  0  0  0  0  0  0  0  0  0  0  0
    6.9642  -12.3954   27.2950 C   0  0  0  0  0  0  0  0  0  0  0  0
    8.0107  -13.1627   26.5668 C   0  0  1  0  0  0  0  0  0  0  0  0
    8.6741  -14.0785   27.5116 C   0  0  0  0  0  0  0  0  0  0  0  0
    9.5185  -13.6694   28.3436 O   0  0  0  0  0  0  0  0  0  0  0  0
    8.3630  -15.4162   27.4844 O   0  0  0  0  0  0  0  0  0  0  0  0
  2  1  1  1
  3  2  1  0
  4  6  1  0
  4  2  1  0
  4  5  1  6
  6 10  1  0
  7  6  2  0
  9  8  1  1
  9 11  1  0
 10  9  1  0
 11 13  1  0
 11 12  2  0
 13 17  1  0
 14 15  1  0
 14 13  1  0
 15 16  1  0
 16 17  1  0
 17 18  1  1
 18 19  2  0
 18 20  1  0
M  END
$$$$
