DMH.pdb
     RDKit          3D

 27 27  0  0  1  0  0  0  0  0999 V2000
   28.7314  -20.1603  -13.8930 N   0  0  0  0  0  0  0  0  0  0  0  0
   27.5102  -20.5004  -14.6720 C   0  0  1  0  0  0  0  0  0  0  0  0
   27.9687  -21.5103  -15.6824 C   0  0  0  0  0  0  0  0  0  0  0  0
   28.9477  -20.9723  -16.6342 C   0  0  0  0  0  0  0  0  0  0  0  0
   28.9278  -19.7278  -16.8470 O   0  0  0  0  0  0  0  0  0  0  0  0
   26.5606  -21.0905  -13.6912 C   0  0  0  0  0  0  0  0  0  0  0  0
   25.8470  -22.0209  -14.1068 O   0  0  0  0  0  0  0  0  0  0  0  0
   29.8583  -21.7822  -17.2771 O   0  0  0  0  0  0  0  0  0  0  0  0
   28.7663  -21.1560   -7.2683 C   0  0  0  0  0  0  0  0  0  0  0  0
   27.2356  -20.3428   -7.8144 S   0  0  0  0  0  0  0  0  0  0  0  0
   26.8133  -20.9781   -9.4291 C   0  0  0  0  0  0  0  0  0  0  0  0
   25.5730  -20.4046  -10.0558 C   0  0  0  0  0  0  0  0  0  0  0  0
   25.3545  -20.7253  -11.4630 C   0  0  2  0  0  0  0  0  0  0  0  0
   26.4710  -20.6306  -12.3514 N   0  0  0  0  0  0  0  0  0  0  0  0
   24.0908  -20.3570  -12.0941 C   0  0  0  0  0  0  0  0  0  0  0  0
   23.9105  -19.1778  -12.4785 O   0  0  0  0  0  0  0  0  0  0  0  0
   23.0477  -21.3157  -12.2859 N   0  0  0  0  0  0  0  0  0  0  0  0
   21.8497  -20.8766  -12.9653 C   0  0  1  0  0  0  0  0  0  0  0  0
   21.6026  -21.8240  -14.1213 C   0  0  0  0  0  0  0  0  0  0  0  0
   20.4049  -21.5059  -14.9002 C   0  0  0  0  0  0  0  0  0  0  0  0
   19.5123  -20.4847  -14.6971 C   0  0  0  0  0  0  0  0  0  0  0  0
   18.5212  -20.5422  -15.6393 N   0  0  0  0  0  0  0  0  0  0  0  0
   18.7979  -21.5869  -16.4143 C   0  0  0  0  0  0  0  0  0  0  0  0
   19.9257  -22.1816  -15.9893 N   0  0  0  0  0  0  0  0  0  0  0  0
   20.7221  -20.9613  -12.0206 C   0  0  0  0  0  0  0  0  0  0  0  0
   20.8527  -21.5844  -10.9442 O   0  0  0  0  0  0  0  0  0  0  0  0
   19.5189  -20.3525  -12.3218 O   0  0  0  0  0  0  0  0  0  0  0  0
  2  1  1  1
  2  3  1  0
  3  4  1  0
  4  5  2  0
  6  7  2  0
  6  2  1  0
  8  4  1  0
  9 10  1  0
 10 11  1  0
 11 12  1  0
 13 12  1  1
 13 14  1  0
 14  6  1  0
 15 16  2  0
 15 13  1  0
 17 15  1  0
 18 19  1  6
 18 17  1  0
 20 24  1  0
 20 19  1  0
 21 20  2  0
 22 21  1  0
 22 23  1  0
 23 24  2  0
 25 18  1  0
 26 25  2  0
 27 25  1  0
M  END
$$$$
