DMH.pdb
     RDKit          3D

 27 27  0  0  1  0  0  0  0  0999 V2000
   23.0294  -14.0680  -17.5895 N   0  0  0  0  0  0  0  0  0  0  0  0
   23.4147  -12.8513  -18.3542 C   0  0  1  0  0  0  0  0  0  0  0  0
   22.3292  -12.6808  -19.3759 C   0  0  0  0  0  0  0  0  0  0  0  0
   22.3188  -13.7410  -20.3906 C   0  0  0  0  0  0  0  0  0  0  0  0
   23.4133  -14.3209  -20.6362 O   0  0  0  0  0  0  0  0  0  0  0  0
   23.4223  -11.7414  -17.3643 C   0  0  0  0  0  0  0  0  0  0  0  0
   22.4413  -11.6766  -16.6020 O   0  0  0  0  0  0  0  0  0  0  0  0
   21.1671  -14.0993  -21.0565 O   0  0  0  0  0  0  0  0  0  0  0  0
   27.7322  -12.9568  -14.4779 C   0  0  0  0  0  0  0  0  0  0  0  0
   27.0455  -11.8558  -15.7503 S   0  0  0  0  0  0  0  0  0  0  0  0
   26.4457  -10.3794  -14.9442 C   0  0  0  0  0  0  0  0  0  0  0  0
   25.8631   -9.3291  -15.8482 C   0  0  0  0  0  0  0  0  0  0  0  0
   24.5727   -9.6437  -16.4539 C   0  0  2  0  0  0  0  0  0  0  0  0
   24.4879  -10.8077  -17.2800 N   0  0  0  0  0  0  0  0  0  0  0  0
   23.7111   -8.5570  -16.9095 C   0  0  0  0  0  0  0  0  0  0  0  0
   23.9958   -7.9403  -17.9627 O   0  0  0  0  0  0  0  0  0  0  0  0
   22.5422   -8.1779  -16.1787 N   0  0  0  0  0  0  0  0  0  0  0  0
   21.6706   -7.1898  -16.7732 C   0  0  1  0  0  0  0  0  0  0  0  0
   20.3324   -7.2725  -16.0679 C   0  0  0  0  0  0  0  0  0  0  0  0
   19.3353   -6.3316  -16.5805 C   0  0  0  0  0  0  0  0  0  0  0  0
   19.4379   -5.5016  -17.6675 C   0  0  0  0  0  0  0  0  0  0  0  0
   18.2889   -4.7701  -17.8013 N   0  0  0  0  0  0  0  0  0  0  0  0
   17.4867   -5.1431  -16.8083 C   0  0  0  0  0  0  0  0  0  0  0  0
   18.0942   -6.0809  -16.0615 N   0  0  0  0  0  0  0  0  0  0  0  0
   22.2558   -5.8567  -16.5458 C   0  0  0  0  0  0  0  0  0  0  0  0
   22.8685   -5.6152  -15.4826 O   0  0  0  0  0  0  0  0  0  0  0  0
   22.1293   -4.8716  -17.5062 O   0  0  0  0  0  0  0  0  0  0  0  0
  2  1  1  1
  2  3  1  0
  3  4  1  0
  4  5  2  0
  6  7  2  0
  6  2  1  0
  8  4  1  0
  9 10  1  0
 10 11  1  0
 11 12  1  0
 13 12  1  6
 13 14  1  0
 14  6  1  0
 15 16  2  0
 15 13  1  0
 17 15  1  0
 18 19  1  1
 18 17  1  0
 20 24  1  0
 20 19  1  0
 21 20  2  0
 22 21  1  0
 22 23  1  0
 23 24  2  0
 25 18  1  0
 26 25  2  0
 27 25  1  0
M  END
$$$$
