DMH.pdb
     RDKit          3D

 27 27  0  0  1  0  0  0  0  0999 V2000
   21.0783  -12.9731  -17.3017 N   0  0  0  0  0  0  0  0  0  0  0  0
   20.3608  -11.6869  -17.5132 C   0  0  1  0  0  0  0  0  0  0  0  0
   19.1468  -11.7762  -16.6361 C   0  0  0  0  0  0  0  0  0  0  0  0
   18.1419  -12.7224  -17.1347 C   0  0  0  0  0  0  0  0  0  0  0  0
   17.0374  -12.7721  -16.5246 O   0  0  0  0  0  0  0  0  0  0  0  0
   21.2972  -10.6258  -17.0558 C   0  0  0  0  0  0  0  0  0  0  0  0
   21.3428  -10.4228  -15.8293 O   0  0  0  0  0  0  0  0  0  0  0  0
   18.3813  -13.5305  -18.2247 O   0  0  0  0  0  0  0  0  0  0  0  0
   27.3803   -5.8010  -18.8072 C   0  0  0  0  0  0  0  0  0  0  0  0
   26.3404   -7.1441  -19.4530 S   0  0  0  0  0  0  0  0  0  0  0  0
   25.1190   -7.5474  -18.2141 C   0  0  0  0  0  0  0  0  0  0  0  0
   24.1487   -8.6358  -18.5795 C   0  0  0  0  0  0  0  0  0  0  0  0
   23.0407   -8.8492  -17.6533 C   0  0  2  0  0  0  0  0  0  0  0  0
   22.1041   -9.8856  -17.9589 N   0  0  0  0  0  0  0  0  0  0  0  0
   22.4257   -7.7007  -16.9950 C   0  0  0  0  0  0  0  0  0  0  0  0
   21.4692   -7.1086  -17.5475 O   0  0  0  0  0  0  0  0  0  0  0  0
   22.8909   -7.2330  -15.7266 N   0  0  0  0  0  0  0  0  0  0  0  0
   22.1753   -6.1375  -15.1121 C   0  0  1  0  0  0  0  0  0  0  0  0
   21.9108   -6.5128  -13.6684 C   0  0  0  0  0  0  0  0  0  0  0  0
   20.7615   -7.4014  -13.4900 C   0  0  0  0  0  0  0  0  0  0  0  0
   19.9228   -7.9008  -14.4535 C   0  0  0  0  0  0  0  0  0  0  0  0
   18.9636   -8.6843  -13.8711 N   0  0  0  0  0  0  0  0  0  0  0  0
   19.2063   -8.6683  -12.5636 C   0  0  0  0  0  0  0  0  0  0  0  0
   20.2823   -7.9036  -12.3109 N   0  0  0  0  0  0  0  0  0  0  0  0
   23.0342   -4.9410  -15.1515 C   0  0  0  0  0  0  0  0  0  0  0  0
   24.1706   -5.0029  -15.6702 O   0  0  0  0  0  0  0  0  0  0  0  0
   22.5861   -3.7487  -14.6162 O   0  0  0  0  0  0  0  0  0  0  0  0
  2  1  1  1
  2  3  1  0
  3  4  1  0
  4  5  2  0
  6  7  2  0
  6  2  1  0
  8  4  1  0
  9 10  1  0
 10 11  1  0
 11 12  1  0
 13 12  1  6
 13 14  1  0
 14  6  1  0
 15 16  2  0
 15 13  1  0
 17 15  1  0
 18 19  1  1
 18 17  1  0
 20 24  1  0
 20 19  1  0
 21 20  2  0
 22 21  1  0
 22 23  1  0
 23 24  2  0
 25 18  1  0
 26 25  2  0
 27 25  1  0
M  END
$$$$
