DMH.pdb
     RDKit          3D

 27 27  0  0  1  0  0  0  0  0999 V2000
   26.7754  -22.3818  -17.3166 N   0  0  0  0  0  0  0  0  0  0  0  0
   26.9911  -21.2830  -16.3369 C   0  0  1  0  0  0  0  0  0  0  0  0
   26.6607  -20.0278  -17.0894 C   0  0  0  0  0  0  0  0  0  0  0  0
   27.7195  -19.6150  -18.0180 C   0  0  0  0  0  0  0  0  0  0  0  0
   28.8936  -20.0102  -17.7734 O   0  0  0  0  0  0  0  0  0  0  0  0
   26.0278  -21.5361  -15.2324 C   0  0  0  0  0  0  0  0  0  0  0  0
   25.0276  -22.2178  -15.5194 O   0  0  0  0  0  0  0  0  0  0  0  0
   27.4564  -18.8272  -19.1174 O   0  0  0  0  0  0  0  0  0  0  0  0
   24.1655  -20.8136   -7.5200 C   0  0  0  0  0  0  0  0  0  0  0  0
   25.5414  -20.7615   -8.7061 S   0  0  0  0  0  0  0  0  0  0  0  0
   24.8707  -20.9800  -10.3467 C   0  0  0  0  0  0  0  0  0  0  0  0
   25.8586  -20.8910  -11.4763 C   0  0  0  0  0  0  0  0  0  0  0  0
   25.3155  -21.0522  -12.8217 C   0  0  2  0  0  0  0  0  0  0  0  0
   26.2324  -21.0388  -13.9188 N   0  0  0  0  0  0  0  0  0  0  0  0
   24.0249  -20.4543  -13.1499 C   0  0  0  0  0  0  0  0  0  0  0  0
   23.9420  -19.2161  -13.3249 O   0  0  0  0  0  0  0  0  0  0  0  0
   22.8459  -21.2528  -13.2780 N   0  0  0  0  0  0  0  0  0  0  0  0
   21.6029  -20.5726  -13.5641 C   0  0  1  0  0  0  0  0  0  0  0  0
   21.2357  -20.8708  -15.0033 C   0  0  0  0  0  0  0  0  0  0  0  0
   21.6874  -19.8515  -15.9516 C   0  0  0  0  0  0  0  0  0  0  0  0
   22.3217  -18.6665  -15.6788 C   0  0  0  0  0  0  0  0  0  0  0  0
   22.5628  -17.9916  -16.8449 N   0  0  0  0  0  0  0  0  0  0  0  0
   22.0823  -18.7502  -17.8258 C   0  0  0  0  0  0  0  0  0  0  0  0
   21.5514  -19.8733  -17.3129 N   0  0  0  0  0  0  0  0  0  0  0  0
   20.5604  -21.1164  -12.6760 C   0  0  0  0  0  0  0  0  0  0  0  0
   19.4037  -20.6419  -12.7047 O   0  0  0  0  0  0  0  0  0  0  0  0
   20.8585  -22.1514  -11.8106 O   0  0  0  0  0  0  0  0  0  0  0  0
  2  1  1  6
  2  3  1  0
  3  4  1  0
  4  5  2  0
  6  7  2  0
  6  2  1  0
  8  4  1  0
  9 10  1  0
 10 11  1  0
 11 12  1  0
 13 12  1  1
 13 14  1  0
 14  6  1  0
 15 16  2  0
 15 13  1  0
 17 15  1  0
 18 19  1  6
 18 17  1  0
 20 24  1  0
 20 19  1  0
 21 20  2  0
 22 21  1  0
 22 23  1  0
 23 24  2  0
 25 18  1  0
 26 25  2  0
 27 25  1  0
M  END
$$$$
