DMH.pdb
     RDKit          3D

 27 27  0  0  1  0  0  0  0  0999 V2000
   19.4413  -12.7375  -16.2900 N   0  0  0  0  0  0  0  0  0  0  0  0
   19.2286  -11.4515  -17.0075 C   0  0  1  0  0  0  0  0  0  0  0  0
   17.8030  -11.0828  -16.7194 C   0  0  0  0  0  0  0  0  0  0  0  0
   16.8333  -11.9252  -17.4291 C   0  0  0  0  0  0  0  0  0  0  0  0
   17.1436  -12.3177  -18.5885 O   0  0  0  0  0  0  0  0  0  0  0  0
   20.1836  -10.4890  -16.3965 C   0  0  0  0  0  0  0  0  0  0  0  0
   20.2400  -10.4829  -15.1537 O   0  0  0  0  0  0  0  0  0  0  0  0
   15.6282  -12.2811  -16.8642 O   0  0  0  0  0  0  0  0  0  0  0  0
   25.1513  -11.5963  -19.8076 C   0  0  0  0  0  0  0  0  0  0  0  0
   24.6831   -9.8898  -19.3940 S   0  0  0  0  0  0  0  0  0  0  0  0
   23.8091   -9.9142  -17.8368 C   0  0  0  0  0  0  0  0  0  0  0  0
   23.2383   -8.5991  -17.3844 C   0  0  0  0  0  0  0  0  0  0  0  0
   21.9392   -8.6545  -16.7209 C   0  0  2  0  0  0  0  0  0  0  0  0
   20.9957   -9.6267  -17.1784 N   0  0  0  0  0  0  0  0  0  0  0  0
   21.3100   -7.4158  -16.2731 C   0  0  0  0  0  0  0  0  0  0  0  0
   20.3814   -6.9131  -16.9482 O   0  0  0  0  0  0  0  0  0  0  0  0
   21.7298   -6.7590  -15.0746 N   0  0  0  0  0  0  0  0  0  0  0  0
   21.1084   -5.4949  -14.7496 C   0  0  1  0  0  0  0  0  0  0  0  0
   19.9369   -5.7803  -13.8324 C   0  0  0  0  0  0  0  0  0  0  0  0
   18.7299   -6.2187  -14.5348 C   0  0  0  0  0  0  0  0  0  0  0  0
   18.5326   -6.3270  -15.8876 C   0  0  0  0  0  0  0  0  0  0  0  0
   17.2585   -6.7608  -16.1363 N   0  0  0  0  0  0  0  0  0  0  0  0
   16.6756   -6.9176  -14.9512 C   0  0  0  0  0  0  0  0  0  0  0  0
   17.5408   -6.5978  -13.9737 N   0  0  0  0  0  0  0  0  0  0  0  0
   22.0922   -4.6639  -14.0336 C   0  0  0  0  0  0  0  0  0  0  0  0
   23.1995   -5.1454  -13.7080 O   0  0  0  0  0  0  0  0  0  0  0  0
   21.7936   -3.3516  -13.7211 O   0  0  0  0  0  0  0  0  0  0  0  0
  2  1  1  1
  2  3  1  0
  3  4  1  0
  4  5  2  0
  6  7  2  0
  6  2  1  0
  8  4  1  0
  9 10  1  0
 10 11  1  0
 11 12  1  0
 13 12  1  6
 13 14  1  0
 14  6  1  0
 15 16  2  0
 15 13  1  0
 17 15  1  0
 18 19  1  1
 18 17  1  0
 20 24  1  0
 20 19  1  0
 21 20  2  0
 22 21  1  0
 22 23  1  0
 23 24  2  0
 25 18  1  0
 26 25  2  0
 27 25  1  0
M  END
$$$$
