DMH.pdb
     RDKit          3D

 27 27  0  0  1  0  0  0  0  0999 V2000
   21.7891  -12.8899  -15.2426 N   0  0  0  0  0  0  0  0  0  0  0  0
   21.7498  -12.1330  -16.5230 C   0  0  1  0  0  0  0  0  0  0  0  0
   20.3269  -12.2379  -16.9871 C   0  0  0  0  0  0  0  0  0  0  0  0
   19.9391  -13.6039  -17.3577 C   0  0  0  0  0  0  0  0  0  0  0  0
   18.7895  -13.9956  -17.0117 O   0  0  0  0  0  0  0  0  0  0  0  0
   22.1163  -10.7347  -16.1732 C   0  0  0  0  0  0  0  0  0  0  0  0
   21.4141  -10.1813  -15.3081 O   0  0  0  0  0  0  0  0  0  0  0  0
   20.7862  -14.4366  -18.0556 O   0  0  0  0  0  0  0  0  0  0  0  0
   27.2546  -11.7921  -14.9649 C   0  0  0  0  0  0  0  0  0  0  0  0
   26.1316  -11.0126  -16.1624 S   0  0  0  0  0  0  0  0  0  0  0  0
   25.9798   -9.2842  -15.7397 C   0  0  0  0  0  0  0  0  0  0  0  0
   25.0942   -8.4650  -16.6366 C   0  0  0  0  0  0  0  0  0  0  0  0
   23.6613   -8.7273  -16.5417 C   0  0  2  0  0  0  0  0  0  0  0  0
   23.2089  -10.0625  -16.7806 N   0  0  0  0  0  0  0  0  0  0  0  0
   22.7155   -7.7142  -16.9999 C   0  0  0  0  0  0  0  0  0  0  0  0
   22.5238   -7.5556  -18.2282 O   0  0  0  0  0  0  0  0  0  0  0  0
   21.9976   -6.8940  -16.0747 N   0  0  0  0  0  0  0  0  0  0  0  0
   21.1306   -5.8723  -16.6169 C   0  0  1  0  0  0  0  0  0  0  0  0
   19.8111   -5.9478  -15.8765 C   0  0  0  0  0  0  0  0  0  0  0  0
   18.8626   -4.8978  -16.2507 C   0  0  0  0  0  0  0  0  0  0  0  0
   18.8046   -4.1920  -17.4252 C   0  0  0  0  0  0  0  0  0  0  0  0
   17.7768   -3.2896  -17.3725 N   0  0  0  0  0  0  0  0  0  0  0  0
   17.2076   -3.4358  -16.1795 C   0  0  0  0  0  0  0  0  0  0  0  0
   17.8432   -4.3968  -15.4877 N   0  0  0  0  0  0  0  0  0  0  0  0
   21.7496   -4.5582  -16.3697 C   0  0  0  0  0  0  0  0  0  0  0  0
   21.1479   -3.5115  -16.6960 O   0  0  0  0  0  0  0  0  0  0  0  0
   22.9951   -4.4797  -15.7768 O   0  0  0  0  0  0  0  0  0  0  0  0
  2  1  1  1
  2  3  1  0
  3  4  1  0
  4  5  2  0
  6  7  2  0
  6  2  1  0
  8  4  1  0
  9 10  1  0
 10 11  1  0
 11 12  1  0
 13 12  1  6
 13 14  1  0
 14  6  1  0
 15 16  2  0
 15 13  1  0
 17 15  1  0
 18 19  1  1
 18 17  1  0
 20 24  1  0
 20 19  1  0
 21 20  2  0
 22 21  1  0
 22 23  1  0
 23 24  2  0
 25 18  1  0
 26 25  2  0
 27 25  1  0
M  END
$$$$
