FHR.pdb
     RDKit          3D

 33 34  0  0  1  0  0  0  0  0999 V2000
   27.2747  -20.7507  -11.2570 N   0  0  0  0  0  0  0  0  0  0  0  0
   26.2020  -21.1380  -10.3869 C   0  0  1  0  0  0  0  0  0  0  0  0
   26.2357  -20.2976   -9.1309 C   0  0  0  0  0  0  0  0  0  0  0  0
   27.5886  -20.2290   -8.5483 C   0  0  0  0  0  0  0  0  0  0  0  0
   28.6606  -20.8436   -9.1219 C   0  0  0  0  0  0  0  0  0  0  0  0
   29.9187  -20.7493   -8.5323 C   0  0  0  0  0  0  0  0  0  0  0  0
   30.1188  -20.0423   -7.3672 C   0  0  0  0  0  0  0  0  0  0  0  0
   29.0299  -19.4234   -6.7929 C   0  0  0  0  0  0  0  0  0  0  0  0
   27.7751  -19.5105   -7.3701 C   0  0  0  0  0  0  0  0  0  0  0  0
   24.9004  -20.8533  -11.0922 C   0  0  0  0  0  0  0  0  0  0  0  0
   23.8258  -20.7834  -10.4457 O   0  0  0  0  0  0  0  0  0  0  0  0
   24.8619  -20.6584  -12.4979 N   0  0  0  0  0  0  0  0  0  0  0  0
   23.6863  -20.3785  -13.2785 C   0  0  1  0  0  0  0  0  0  0  0  0
   23.9614  -19.9201  -14.6657 C   0  0  0  0  0  0  0  0  0  0  0  0
   22.7725  -19.3767  -15.3527 C   0  0  0  0  0  0  0  0  0  0  0  0
   22.1041  -18.1974  -15.1283 C   0  0  0  0  0  0  0  0  0  0  0  0
   21.0575  -18.1032  -16.0013 N   0  0  0  0  0  0  0  0  0  0  0  0
   21.0852  -19.2302  -16.7638 C   0  0  0  0  0  0  0  0  0  0  0  0
   22.1266  -19.9848  -16.3570 N   0  0  0  0  0  0  0  0  0  0  0  0
   22.6029  -21.3826  -13.1497 C   0  0  0  0  0  0  0  0  0  0  0  0
   22.8821  -22.5997  -13.1900 O   0  0  0  0  0  0  0  0  0  0  0  0
   18.0524  -24.5561   -6.8900 N   0  0  0  0  0  0  0  0  0  0  0  0
   17.4590  -25.0770   -8.0649 C   0  0  0  0  0  0  0  0  0  0  0  0
   16.6305  -26.0597   -7.9885 N   0  0  0  0  0  0  0  0  0  0  0  0
   17.7455  -24.5475   -9.3517 N   0  0  0  0  0  0  0  0  0  0  0  0
   18.7422  -23.5251   -9.5731 C   0  0  0  0  0  0  0  0  0  0  0  0
   18.7622  -23.0766  -11.0120 C   0  0  0  0  0  0  0  0  0  0  0  0
   19.8809  -22.1575  -11.3374 C   0  0  0  0  0  0  0  0  0  0  0  0
   20.2192  -22.0745  -12.8080 C   0  0  2  0  0  0  0  0  0  0  0  0
   21.2432  -21.0470  -12.9802 N   0  0  0  0  0  0  0  0  0  0  0  0
   19.0542  -21.6482  -13.5968 C   0  0  0  0  0  0  0  0  0  0  0  0
   18.2181  -22.5452  -14.2254 O   0  0  0  0  0  0  0  0  0  0  0  0
   18.8031  -20.4311  -13.7080 O   0  0  0  0  0  0  0  0  0  0  0  0
  2  1  1  6
  2 10  1  0
  2  3  1  0
  4  3  1  0
  4  5  2  0
  6  5  1  0
  7  6  2  0
  8  9  2  0
  8  7  1  0
  9  4  1  0
 10 11  2  0
 12 13  1  0
 12 10  1  0
 13 14  1  6
 15 14  1  0
 16 15  2  0
 17 16  1  0
 18 17  1  0
 18 19  2  0
 19 15  1  0
 20 30  1  0
 20 13  1  0
 21 20  2  0
 23 24  2  0
 23 22  1  0
 25 23  1  0
 26 25  1  0
 26 27  1  0
 27 28  1  0
 29 30  1  0
 29 28  1  1
 31 32  1  0
 31 29  1  0
 33 31  2  0
M  END
$$$$
