FHR.pdb
     RDKit          3D

 33 34  0  0  1  0  0  0  0  0999 V2000
   29.3291  -19.1590  -12.3354 N   0  0  0  0  0  0  0  0  0  0  0  0
   28.7829  -20.3501  -12.9189 C   0  0  1  0  0  0  0  0  0  0  0  0
   28.5849  -21.3980  -11.8477 C   0  0  0  0  0  0  0  0  0  0  0  0
   29.8514  -21.7523  -11.1807 C   0  0  0  0  0  0  0  0  0  0  0  0
   30.0943  -21.4546   -9.8737 C   0  0  0  0  0  0  0  0  0  0  0  0
   31.3072  -21.8105   -9.2893 C   0  0  0  0  0  0  0  0  0  0  0  0
   32.2874  -22.4654  -10.0019 C   0  0  0  0  0  0  0  0  0  0  0  0
   32.0344  -22.7630  -11.3232 C   0  0  0  0  0  0  0  0  0  0  0  0
   30.8327  -22.4141  -11.9143 C   0  0  0  0  0  0  0  0  0  0  0  0
   27.4269  -20.0148  -13.4861 C   0  0  0  0  0  0  0  0  0  0  0  0
   26.6266  -19.2915  -12.8424 O   0  0  0  0  0  0  0  0  0  0  0  0
   27.0270  -20.5077  -14.7559 N   0  0  0  0  0  0  0  0  0  0  0  0
   25.8127  -20.1674  -15.4484 C   0  0  1  0  0  0  0  0  0  0  0  0
   25.9817  -19.9177  -16.9040 C   0  0  0  0  0  0  0  0  0  0  0  0
   24.7451  -19.4622  -17.5705 C   0  0  0  0  0  0  0  0  0  0  0  0
   24.0606  -18.2808  -17.4158 C   0  0  0  0  0  0  0  0  0  0  0  0
   22.9674  -18.2867  -18.2351 N   0  0  0  0  0  0  0  0  0  0  0  0
   22.9825  -19.4773  -18.8944 C   0  0  0  0  0  0  0  0  0  0  0  0
   24.0622  -20.1713  -18.4797 N   0  0  0  0  0  0  0  0  0  0  0  0
   24.6379  -20.9951  -15.0830 C   0  0  0  0  0  0  0  0  0  0  0  0
   24.7432  -22.2398  -15.0612 O   0  0  0  0  0  0  0  0  0  0  0  0
   17.4014  -22.0921  -12.3811 N   0  0  0  0  0  0  0  0  0  0  0  0
   17.9158  -22.4640  -11.1158 C   0  0  0  0  0  0  0  0  0  0  0  0
   17.2787  -23.3098  -10.3833 N   0  0  0  0  0  0  0  0  0  0  0  0
   19.1325  -21.9315  -10.6114 N   0  0  0  0  0  0  0  0  0  0  0  0
   19.9287  -20.9716  -11.3411 C   0  0  0  0  0  0  0  0  0  0  0  0
   20.6026  -21.6050  -12.5313 C   0  0  0  0  0  0  0  0  0  0  0  0
   21.4793  -20.6768  -13.2874 C   0  0  0  0  0  0  0  0  0  0  0  0
   22.2423  -21.3175  -14.4238 C   0  0  2  0  0  0  0  0  0  0  0  0
   23.3770  -20.4573  -14.7497 N   0  0  0  0  0  0  0  0  0  0  0  0
   21.4146  -21.4047  -15.6355 C   0  0  0  0  0  0  0  0  0  0  0  0
   21.9588  -21.4897  -16.8986 O   0  0  0  0  0  0  0  0  0  0  0  0
   20.1715  -21.4027  -15.5285 O   0  0  0  0  0  0  0  0  0  0  0  0
  2  1  1  1
  2 10  1  0
  2  3  1  0
  4  3  1  0
  4  5  2  0
  6  5  1  0
  7  6  2  0
  8  9  2  0
  8  7  1  0
  9  4  1  0
 10 11  2  0
 12 13  1  0
 12 10  1  0
 13 14  1  6
 15 14  1  0
 16 15  2  0
 17 16  1  0
 18 17  1  0
 18 19  2  0
 19 15  1  0
 20 30  1  0
 20 13  1  0
 21 20  2  0
 23 24  2  0
 23 22  1  0
 25 23  1  0
 26 25  1  0
 26 27  1  0
 27 28  1  0
 29 30  1  0
 29 28  1  1
 31 32  1  0
 31 29  1  0
 33 31  2  0
M  END
$$$$
