FHR.pdb
     RDKit          3D

 33 34  0  0  1  0  0  0  0  0999 V2000
   18.6321  -13.4784  -17.7129 N   0  0  0  0  0  0  0  0  0  0  0  0
   18.8111  -12.1853  -18.3077 C   0  0  1  0  0  0  0  0  0  0  0  0
   17.5673  -11.8010  -19.0759 C   0  0  0  0  0  0  0  0  0  0  0  0
   17.3954  -12.6164  -20.2924 C   0  0  0  0  0  0  0  0  0  0  0  0
   18.1914  -12.4669  -21.3878 C   0  0  0  0  0  0  0  0  0  0  0  0
   17.9885  -13.2617  -22.5133 C   0  0  0  0  0  0  0  0  0  0  0  0
   16.9915  -14.2112  -22.5563 C   0  0  0  0  0  0  0  0  0  0  0  0
   16.1906  -14.3566  -21.4447 C   0  0  0  0  0  0  0  0  0  0  0  0
   16.3831  -13.5722  -20.3209 C   0  0  0  0  0  0  0  0  0  0  0  0
   18.9917  -11.1804  -17.1986 C   0  0  0  0  0  0  0  0  0  0  0  0
   18.2324  -11.1902  -16.1980 O   0  0  0  0  0  0  0  0  0  0  0  0
   20.0210  -10.2047  -17.2611 N   0  0  0  0  0  0  0  0  0  0  0  0
   20.1839   -9.0920  -16.3638 C   0  0  1  0  0  0  0  0  0  0  0  0
   21.5877   -8.8355  -15.9472 C   0  0  0  0  0  0  0  0  0  0  0  0
   21.7194   -7.7418  -14.9638 C   0  0  0  0  0  0  0  0  0  0  0  0
   21.6813   -7.7996  -13.5915 C   0  0  0  0  0  0  0  0  0  0  0  0
   21.8464   -6.5411  -13.0860 N   0  0  0  0  0  0  0  0  0  0  0  0
   21.9860   -5.7089  -14.1538 C   0  0  0  0  0  0  0  0  0  0  0  0
   21.9066   -6.4523  -15.2766 N   0  0  0  0  0  0  0  0  0  0  0  0
   19.4031   -7.8844  -16.7255 C   0  0  0  0  0  0  0  0  0  0  0  0
   19.3654   -7.5082  -17.9163 O   0  0  0  0  0  0  0  0  0  0  0  0
   11.2604   -5.2193  -14.8281 N   0  0  0  0  0  0  0  0  0  0  0  0
   11.8966   -4.1354  -15.4796 C   0  0  0  0  0  0  0  0  0  0  0  0
   11.2152   -3.0976  -15.8211 N   0  0  0  0  0  0  0  0  0  0  0  0
   13.2857   -4.1462  -15.7772 N   0  0  0  0  0  0  0  0  0  0  0  0
   14.1475   -5.2590  -15.4506 C   0  0  0  0  0  0  0  0  0  0  0  0
   15.5650   -5.0088  -15.8979 C   0  0  0  0  0  0  0  0  0  0  0  0
   16.4786   -6.1539  -15.6614 C   0  0  0  0  0  0  0  0  0  0  0  0
   17.8754   -5.9673  -16.2075 C   0  0  2  0  0  0  0  0  0  0  0  0
   18.6815   -7.1122  -15.7911 N   0  0  0  0  0  0  0  0  0  0  0  0
   18.5119   -4.7710  -15.6377 C   0  0  0  0  0  0  0  0  0  0  0  0
   18.5488   -3.5647  -16.3028 O   0  0  0  0  0  0  0  0  0  0  0  0
   19.0418   -4.8384  -14.5101 O   0  0  0  0  0  0  0  0  0  0  0  0
  2  1  1  1
  2 10  1  0
  2  3  1  0
  4  3  1  0
  4  5  2  0
  6  5  1  0
  7  6  2  0
  8  9  2  0
  8  7  1  0
  9  4  1  0
 10 11  2  0
 12 13  1  0
 12 10  1  0
 13 14  1  6
 15 14  1  0
 16 15  2  0
 17 16  1  0
 18 17  1  0
 18 19  2  0
 19 15  1  0
 20 30  1  0
 20 13  1  0
 21 20  2  0
 23 24  2  0
 23 22  1  0
 25 23  1  0
 26 25  1  0
 26 27  1  0
 27 28  1  0
 29 30  1  0
 29 28  1  1
 31 32  1  0
 31 29  1  0
 33 31  2  0
M  END
$$$$
