FHR.pdb
     RDKit          3D

 33 34  0  0  1  0  0  0  0  0999 V2000
   23.7784  -16.7583  -18.1083 N   0  0  0  0  0  0  0  0  0  0  0  0
   24.3000  -16.3626  -16.8320 C   0  0  1  0  0  0  0  0  0  0  0  0
   23.1649  -15.9503  -15.9230 C   0  0  0  0  0  0  0  0  0  0  0  0
   21.8869  -15.8402  -16.6503 C   0  0  0  0  0  0  0  0  0  0  0  0
   21.5950  -14.7791  -17.4533 C   0  0  0  0  0  0  0  0  0  0  0  0
   20.3733  -14.7213  -18.1192 C   0  0  0  0  0  0  0  0  0  0  0  0
   19.4330  -15.7197  -17.9905 C   0  0  0  0  0  0  0  0  0  0  0  0
   19.7353  -16.7896  -17.1767 C   0  0  0  0  0  0  0  0  0  0  0  0
   20.9463  -16.8574  -16.5102 C   0  0  0  0  0  0  0  0  0  0  0  0
   24.9724  -17.5595  -16.2091 C   0  0  0  0  0  0  0  0  0  0  0  0
   24.4208  -18.6877  -16.2361 O   0  0  0  0  0  0  0  0  0  0  0  0
   26.2396  -17.4374  -15.5808 N   0  0  0  0  0  0  0  0  0  0  0  0
   26.9994  -18.5115  -14.9989 C   0  0  1  0  0  0  0  0  0  0  0  0
   28.4467  -18.4981  -15.3381 C   0  0  0  0  0  0  0  0  0  0  0  0
   28.7276  -18.8881  -16.7344 C   0  0  0  0  0  0  0  0  0  0  0  0
   27.8484  -19.2292  -17.7337 C   0  0  0  0  0  0  0  0  0  0  0  0
   28.5516  -19.5191  -18.8685 N   0  0  0  0  0  0  0  0  0  0  0  0
   29.8675  -19.3547  -18.5627 C   0  0  0  0  0  0  0  0  0  0  0  0
   29.9523  -18.9741  -17.2714 N   0  0  0  0  0  0  0  0  0  0  0  0
   26.6879  -18.7914  -13.5764 C   0  0  0  0  0  0  0  0  0  0  0  0
   26.7979  -17.8792  -12.7299 O   0  0  0  0  0  0  0  0  0  0  0  0
   19.9973  -20.2186   -9.8371 N   0  0  0  0  0  0  0  0  0  0  0  0
   20.4540  -21.1539  -10.7966 C   0  0  0  0  0  0  0  0  0  0  0  0
   19.6284  -21.6687  -11.6401 N   0  0  0  0  0  0  0  0  0  0  0  0
   21.8149  -21.5550  -10.8689 N   0  0  0  0  0  0  0  0  0  0  0  0
   22.8553  -20.9394  -10.0776 C   0  0  0  0  0  0  0  0  0  0  0  0
   24.1985  -21.5681  -10.3473 C   0  0  0  0  0  0  0  0  0  0  0  0
   24.7396  -21.2691  -11.6963 C   0  0  0  0  0  0  0  0  0  0  0  0
   25.8514  -20.2455  -11.7154 C   0  0  2  0  0  0  0  0  0  0  0  0
   26.2648  -20.0512  -13.1029 N   0  0  0  0  0  0  0  0  0  0  0  0
   27.0315  -20.7310  -10.9855 C   0  0  0  0  0  0  0  0  0  0  0  0
   27.1897  -20.5472   -9.6290 O   0  0  0  0  0  0  0  0  0  0  0  0
   27.9300  -21.3337  -11.6071 O   0  0  0  0  0  0  0  0  0  0  0  0
  2  1  1  6
  2 10  1  0
  2  3  1  0
  4  3  1  0
  4  5  2  0
  6  5  1  0
  7  6  2  0
  8  9  2  0
  8  7  1  0
  9  4  1  0
 10 11  2  0
 12 13  1  0
 12 10  1  0
 13 14  1  1
 15 14  1  0
 16 15  2  0
 17 16  1  0
 18 17  1  0
 18 19  2  0
 19 15  1  0
 20 30  1  0
 20 13  1  0
 21 20  2  0
 23 24  2  0
 23 22  1  0
 25 23  1  0
 26 25  1  0
 26 27  1  0
 27 28  1  0
 29 30  1  0
 29 28  1  6
 31 32  1  0
 31 29  1  0
 33 31  2  0
M  END
$$$$
