FHR.pdb
     RDKit          3D

 33 34  0  0  1  0  0  0  0  0999 V2000
   23.9765  -26.4038  -17.4328 N   0  0  0  0  0  0  0  0  0  0  0  0
   23.1189  -25.3900  -17.9756 C   0  0  1  0  0  0  0  0  0  0  0  0
   22.0081  -26.0349  -18.7724 C   0  0  0  0  0  0  0  0  0  0  0  0
   22.5069  -26.6544  -20.0142 C   0  0  0  0  0  0  0  0  0  0  0  0
   22.8729  -25.9172  -21.0997 C   0  0  0  0  0  0  0  0  0  0  0  0
   23.3379  -26.5497  -22.2499 C   0  0  0  0  0  0  0  0  0  0  0  0
   23.4418  -27.9211  -22.3279 C   0  0  0  0  0  0  0  0  0  0  0  0
   23.0698  -28.6599  -21.2260 C   0  0  0  0  0  0  0  0  0  0  0  0
   22.6063  -28.0419  -20.0777 C   0  0  0  0  0  0  0  0  0  0  0  0
   22.4854  -24.6478  -16.8265 C   0  0  0  0  0  0  0  0  0  0  0  0
   22.2440  -25.2349  -15.7426 O   0  0  0  0  0  0  0  0  0  0  0  0
   22.1492  -23.2736  -16.9447 N   0  0  0  0  0  0  0  0  0  0  0  0
   21.5276  -22.4671  -15.9284 C   0  0  1  0  0  0  0  0  0  0  0  0
   21.8414  -21.0165  -16.0139 C   0  0  0  0  0  0  0  0  0  0  0  0
   21.1750  -20.2078  -14.9735 C   0  0  0  0  0  0  0  0  0  0  0  0
   20.2154  -20.5834  -14.0646 C   0  0  0  0  0  0  0  0  0  0  0  0
   19.8859  -19.5064  -13.2913 N   0  0  0  0  0  0  0  0  0  0  0  0
   20.6471  -18.4665  -13.7288 C   0  0  0  0  0  0  0  0  0  0  0  0
   21.4175  -18.9101  -14.7433 N   0  0  0  0  0  0  0  0  0  0  0  0
   20.1043  -22.7896  -15.6655 C   0  0  0  0  0  0  0  0  0  0  0  0
   19.2814  -22.7594  -16.6050 O   0  0  0  0  0  0  0  0  0  0  0  0
   18.3530  -26.1619   -8.1535 N   0  0  0  0  0  0  0  0  0  0  0  0
   17.7433  -24.9670   -8.6055 C   0  0  0  0  0  0  0  0  0  0  0  0
   16.8684  -24.3713   -7.8722 N   0  0  0  0  0  0  0  0  0  0  0  0
   18.0652  -24.3855   -9.8612 N   0  0  0  0  0  0  0  0  0  0  0  0
   19.0424  -24.9554  -10.7600 C   0  0  0  0  0  0  0  0  0  0  0  0
   19.2060  -24.1158  -12.0011 C   0  0  0  0  0  0  0  0  0  0  0  0
   18.0047  -24.0939  -12.8720 C   0  0  0  0  0  0  0  0  0  0  0  0
   18.1742  -23.3182  -14.1579 C   0  0  2  0  0  0  0  0  0  0  0  0
   19.6045  -23.1370  -14.3928 N   0  0  0  0  0  0  0  0  0  0  0  0
   17.5893  -21.9741  -14.0472 C   0  0  0  0  0  0  0  0  0  0  0  0
   16.2321  -21.7651  -13.9311 O   0  0  0  0  0  0  0  0  0  0  0  0
   18.3400  -20.9776  -14.0575 O   0  0  0  0  0  0  0  0  0  0  0  0
  2  1  1  1
  2 10  1  0
  2  3  1  0
  4  3  1  0
  4  5  2  0
  6  5  1  0
  7  6  2  0
  8  9  2  0
  8  7  1  0
  9  4  1  0
 10 11  2  0
 12 13  1  0
 12 10  1  0
 13 14  1  6
 15 14  1  0
 16 15  2  0
 17 16  1  0
 18 17  1  0
 18 19  2  0
 19 15  1  0
 20 30  1  0
 20 13  1  0
 21 20  2  0
 23 24  2  0
 23 22  1  0
 25 23  1  0
 26 25  1  0
 26 27  1  0
 27 28  1  0
 29 30  1  0
 29 28  1  1
 31 32  1  0
 31 29  1  0
 33 31  2  0
M  END
$$$$
