MKQ.pdb
     RDKit          3D

 27 26  0  0  1  0  0  0  0  0999 V2000
   24.6327  -20.9983  -17.6149 C   0  0  0  0  0  0  0  0  0  0  0  0
   24.7860  -19.2767  -17.0554 S   0  0  0  0  0  0  0  0  0  0  0  0
   23.5508  -19.0145  -15.7511 C   0  0  0  0  0  0  0  0  0  0  0  0
   22.6902  -20.2182  -15.5403 C   0  0  0  0  0  0  0  0  0  0  0  0
   21.6825  -19.9208  -14.4602 C   0  0  2  0  0  0  0  0  0  0  0  0
   22.3250  -19.6287  -13.1975 N   0  0  0  0  0  0  0  0  0  0  0  0
   20.7213  -21.0206  -14.2579 C   0  0  0  0  0  0  0  0  0  0  0  0
   20.2998  -21.6476  -15.2553 O   0  0  0  0  0  0  0  0  0  0  0  0
   20.2913  -21.3524  -12.9691 N   0  0  0  0  0  0  0  0  0  0  0  0
   19.2843  -22.3927  -12.7090 C   0  0  1  0  0  0  0  0  0  0  0  0
   19.5264  -22.8141  -11.2749 C   0  0  0  0  0  0  0  0  0  0  0  0
   18.6130  -23.8837  -10.7959 C   0  0  0  0  0  0  0  0  0  0  0  0
   18.8322  -24.1254   -9.3284 C   0  0  0  0  0  0  0  0  0  0  0  0
   17.9286  -25.1815   -8.7815 C   0  0  0  0  0  0  0  0  0  0  0  0
   18.1924  -25.3162   -7.3610 N   0  0  0  0  0  0  0  0  0  0  0  0
   17.9657  -21.7940  -12.9456 C   0  0  0  0  0  0  0  0  0  0  0  0
   17.6614  -20.7321  -12.3475 O   0  0  0  0  0  0  0  0  0  0  0  0
   13.9364  -23.7711  -17.1522 N   0  0  0  0  0  0  0  0  0  0  0  0
   13.1655  -22.6568  -16.6723 C   0  0  0  0  0  0  0  0  0  0  0  0
   12.0258  -22.5025  -17.1309 O   0  0  0  0  0  0  0  0  0  0  0  0
   13.8229  -21.8027  -15.6710 C   0  0  0  0  0  0  0  0  0  0  0  0
   15.1730  -22.2929  -15.3005 C   0  0  0  0  0  0  0  0  0  0  0  0
   15.7755  -21.7134  -14.0677 C   0  0  2  0  0  0  0  0  0  0  0  0
   17.0379  -22.3764  -13.8205 N   0  0  0  0  0  0  0  0  0  0  0  0
   14.8753  -21.8022  -12.8861 C   0  0  0  0  0  0  0  0  0  0  0  0
   14.1853  -20.7868  -12.6141 O   0  0  0  0  0  0  0  0  0  0  0  0
   14.7628  -22.9110  -12.0963 O   0  0  0  0  0  0  0  0  0  0  0  0
  1  2  1  0
  3  4  1  0
  3  2  1  0
  4  5  1  0
  5  6  1  1
  7  8  2  0
  7  5  1  0
  9  7  1  0
 10  9  1  0
 10 11  1  1
 11 12  1  0
 12 13  1  0
 13 14  1  0
 14 15  1  0
 16 10  1  0
 17 16  2  0
 19 18  1  0
 19 21  1  0
 20 19  2  0
 23 22  1  6
 22 21  1  0
 23 24  1  0
 24 16  1  0
 25 23  1  0
 26 25  2  0
 27 25  1  0
M  END
$$$$
