MKQ.pdb
     RDKit          3D

 27 26  0  0  1  0  0  0  0  0999 V2000
   27.0924  -13.9583  -14.9271 C   0  0  0  0  0  0  0  0  0  0  0  0
   27.4226  -15.1969  -16.2145 S   0  0  0  0  0  0  0  0  0  0  0  0
   25.9039  -15.3876  -17.1907 C   0  0  0  0  0  0  0  0  0  0  0  0
   24.9802  -14.2239  -17.0285 C   0  0  0  0  0  0  0  0  0  0  0  0
   23.8012  -14.3979  -17.9505 C   0  0  2  0  0  0  0  0  0  0  0  0
   24.2128  -14.4634  -19.3357 N   0  0  0  0  0  0  0  0  0  0  0  0
   22.7999  -13.3252  -17.8054 C   0  0  0  0  0  0  0  0  0  0  0  0
   22.8901  -12.3103  -18.5317 O   0  0  0  0  0  0  0  0  0  0  0  0
   21.7684  -13.4462  -16.8686 N   0  0  0  0  0  0  0  0  0  0  0  0
   20.7892  -12.3769  -16.6202 C   0  0  1  0  0  0  0  0  0  0  0  0
   19.6063  -13.0770  -15.9850 C   0  0  0  0  0  0  0  0  0  0  0  0
   18.4886  -12.1679  -15.6216 C   0  0  0  0  0  0  0  0  0  0  0  0
   17.3016  -12.9711  -15.1677 C   0  0  0  0  0  0  0  0  0  0  0  0
   16.0804  -12.1317  -14.9815 C   0  0  0  0  0  0  0  0  0  0  0  0
   14.9850  -13.0006  -14.5933 N   0  0  0  0  0  0  0  0  0  0  0  0
   21.4360  -11.3838  -15.7551 C   0  0  0  0  0  0  0  0  0  0  0  0
   22.5334  -11.6683  -15.2139 O   0  0  0  0  0  0  0  0  0  0  0  0
   24.3513   -8.5922  -18.4210 N   0  0  0  0  0  0  0  0  0  0  0  0
   24.6010   -7.6692  -17.3477 C   0  0  0  0  0  0  0  0  0  0  0  0
   25.5746   -6.9114  -17.4522 O   0  0  0  0  0  0  0  0  0  0  0  0
   23.6586   -7.7235  -16.2194 C   0  0  0  0  0  0  0  0  0  0  0  0
   22.6845   -8.8355  -16.3422 C   0  0  0  0  0  0  0  0  0  0  0  0
   21.7139   -8.9956  -15.2238 C   0  0  2  0  0  0  0  0  0  0  0  0
   20.8611  -10.1275  -15.5169 N   0  0  0  0  0  0  0  0  0  0  0  0
   20.9154   -7.7660  -14.9692 C   0  0  0  0  0  0  0  0  0  0  0  0
   19.8640   -7.6161  -15.6425 O   0  0  0  0  0  0  0  0  0  0  0  0
   21.2606   -6.8092  -14.0575 O   0  0  0  0  0  0  0  0  0  0  0  0
  1  2  1  0
  3  4  1  0
  3  2  1  0
  4  5  1  0
  5  6  1  6
  7  8  2  0
  7  5  1  0
  9  7  1  0
 10  9  1  0
 10 11  1  1
 11 12  1  0
 12 13  1  0
 13 14  1  0
 14 15  1  0
 16 10  1  0
 17 16  2  0
 19 18  1  0
 19 21  1  0
 20 19  2  0
 23 22  1  6
 22 21  1  0
 23 24  1  0
 24 16  1  0
 25 23  1  0
 26 25  2  0
 27 25  1  0
M  END
$$$$
