MKQ.pdb
     RDKit          3D

 27 26  0  0  1  0  0  0  0  0999 V2000
   11.5507  -12.9494  -17.0218 C   0  0  0  0  0  0  0  0  0  0  0  0
   11.4765  -14.4598  -16.0149 S   0  0  0  0  0  0  0  0  0  0  0  0
   13.1816  -15.0239  -15.7505 C   0  0  0  0  0  0  0  0  0  0  0  0
   14.0837  -13.9105  -15.3258 C   0  0  0  0  0  0  0  0  0  0  0  0
   15.4895  -14.4372  -15.1960 C   0  0  2  0  0  0  0  0  0  0  0  0
   15.6211  -15.3332  -14.0680 N   0  0  0  0  0  0  0  0  0  0  0  0
   16.4916  -13.3633  -15.0657 C   0  0  0  0  0  0  0  0  0  0  0  0
   16.7236  -12.8857  -13.9327 O   0  0  0  0  0  0  0  0  0  0  0  0
   17.1683  -12.8903  -16.1947 N   0  0  0  0  0  0  0  0  0  0  0  0
   18.2550  -11.9021  -16.1154 C   0  0  1  0  0  0  0  0  0  0  0  0
   19.2742  -12.3669  -17.1342 C   0  0  0  0  0  0  0  0  0  0  0  0
   20.4384  -11.4560  -17.2850 C   0  0  0  0  0  0  0  0  0  0  0  0
   21.3077  -11.9189  -18.4207 C   0  0  0  0  0  0  0  0  0  0  0  0
   22.5249  -11.0706  -18.5920 C   0  0  0  0  0  0  0  0  0  0  0  0
   23.1744  -11.4506  -19.8326 N   0  0  0  0  0  0  0  0  0  0  0  0
   17.6723  -10.5869  -16.4045 C   0  0  0  0  0  0  0  0  0  0  0  0
   16.7414  -10.5029  -17.2438 O   0  0  0  0  0  0  0  0  0  0  0  0
   13.6914   -8.7672  -14.6509 N   0  0  0  0  0  0  0  0  0  0  0  0
   13.8653   -7.4428  -15.1818 C   0  0  0  0  0  0  0  0  0  0  0  0
   12.8539   -6.7465  -15.3405 O   0  0  0  0  0  0  0  0  0  0  0  0
   15.2494   -7.0479  -15.4863 C   0  0  0  0  0  0  0  0  0  0  0  0
   16.2305   -8.1137  -15.1674 C   0  0  0  0  0  0  0  0  0  0  0  0
   17.4547   -8.1655  -16.0142 C   0  0  2  0  0  0  0  0  0  0  0  0
   18.1276   -9.4231  -15.7690 N   0  0  0  0  0  0  0  0  0  0  0  0
   18.3647   -7.0099  -15.7882 C   0  0  0  0  0  0  0  0  0  0  0  0
   19.4883   -7.2564  -15.2805 O   0  0  0  0  0  0  0  0  0  0  0  0
   18.0467   -5.7183  -16.0988 O   0  0  0  0  0  0  0  0  0  0  0  0
  1  2  1  0
  3  4  1  0
  3  2  1  0
  4  5  1  0
  5  6  1  1
  7  8  2  0
  7  5  1  0
  9  7  1  0
 10  9  1  0
 10 11  1  6
 11 12  1  0
 12 13  1  0
 13 14  1  0
 14 15  1  0
 16 10  1  0
 17 16  2  0
 19 18  1  0
 19 21  1  0
 20 19  2  0
 23 22  1  1
 22 21  1  0
 23 24  1  0
 24 16  1  0
 25 23  1  0
 26 25  2  0
 27 25  1  0
M  END
$$$$
