MKQ.pdb
     RDKit          3D

 27 26  0  0  1  0  0  0  0  0999 V2000
   25.7674  -20.9341   -6.4532 C   0  0  0  0  0  0  0  0  0  0  0  0
   26.3048  -19.5042   -7.4366 S   0  0  0  0  0  0  0  0  0  0  0  0
   27.0020  -20.1394   -8.9877 C   0  0  0  0  0  0  0  0  0  0  0  0
   25.9657  -20.7888   -9.8469 C   0  0  0  0  0  0  0  0  0  0  0  0
   26.6246  -21.3337  -11.0876 C   0  0  2  0  0  0  0  0  0  0  0  0
   27.8080  -20.5791  -11.4379 N   0  0  0  0  0  0  0  0  0  0  0  0
   25.7187  -21.3588  -12.2508 C   0  0  0  0  0  0  0  0  0  0  0  0
   25.4652  -20.2867  -12.8442 O   0  0  0  0  0  0  0  0  0  0  0  0
   25.1547  -22.5650  -12.6788 N   0  0  0  0  0  0  0  0  0  0  0  0
   24.3862  -22.6857  -13.9273 C   0  0  1  0  0  0  0  0  0  0  0  0
   24.3702  -24.1696  -14.2284 C   0  0  0  0  0  0  0  0  0  0  0  0
   23.6516  -24.5257  -15.4793 C   0  0  0  0  0  0  0  0  0  0  0  0
   24.2906  -25.7303  -16.1122 C   0  0  0  0  0  0  0  0  0  0  0  0
   23.6810  -26.0742  -17.4316 C   0  0  0  0  0  0  0  0  0  0  0  0
   24.4644  -27.1376  -18.0323 N   0  0  0  0  0  0  0  0  0  0  0  0
   23.0602  -22.1073  -13.6824 C   0  0  0  0  0  0  0  0  0  0  0  0
   22.7731  -21.7062  -12.5271 O   0  0  0  0  0  0  0  0  0  0  0  0
   23.7616  -18.3857  -15.6652 N   0  0  0  0  0  0  0  0  0  0  0  0
   22.4991  -18.0830  -16.2820 C   0  0  0  0  0  0  0  0  0  0  0  0
   22.4965  -17.2934  -17.2357 O   0  0  0  0  0  0  0  0  0  0  0  0
   21.3235  -18.7537  -15.7053 C   0  0  0  0  0  0  0  0  0  0  0  0
   21.6745  -19.6520  -14.5783 C   0  0  0  0  0  0  0  0  0  0  0  0
   21.0531  -21.0056  -14.5886 C   0  0  2  0  0  0  0  0  0  0  0  0
   22.1064  -21.9915  -14.7035 N   0  0  0  0  0  0  0  0  0  0  0  0
   20.0376  -21.1687  -15.6640 C   0  0  0  0  0  0  0  0  0  0  0  0
   20.4570  -21.4965  -16.8032 O   0  0  0  0  0  0  0  0  0  0  0  0
   18.6968  -20.9835  -15.4794 O   0  0  0  0  0  0  0  0  0  0  0  0
  1  2  1  0
  3  4  1  0
  3  2  1  0
  4  5  1  0
  5  6  1  6
  7  8  2  0
  7  5  1  0
  9  7  1  0
 10  9  1  0
 10 11  1  1
 11 12  1  0
 12 13  1  0
 13 14  1  0
 14 15  1  0
 16 10  1  0
 17 16  2  0
 19 18  1  0
 19 21  1  0
 20 19  2  0
 23 22  1  6
 22 21  1  0
 23 24  1  0
 24 16  1  0
 25 23  1  0
 26 25  2  0
 27 25  1  0
M  END
$$$$
