MKQ.pdb
     RDKit          3D

 27 26  0  0  1  0  0  0  0  0999 V2000
   22.5011  -30.0132  -15.2916 C   0  0  0  0  0  0  0  0  0  0  0  0
   21.0521  -28.9193  -15.2275 S   0  0  0  0  0  0  0  0  0  0  0  0
   21.4401  -27.4414  -16.2078 C   0  0  0  0  0  0  0  0  0  0  0  0
   22.5501  -26.6418  -15.6059 C   0  0  0  0  0  0  0  0  0  0  0  0
   22.3739  -25.1931  -15.9812 C   0  0  2  0  0  0  0  0  0  0  0  0
   23.5295  -24.6802  -16.6841 N   0  0  0  0  0  0  0  0  0  0  0  0
   22.1083  -24.3298  -14.8156 C   0  0  0  0  0  0  0  0  0  0  0  0
   22.9876  -24.2172  -13.9325 O   0  0  0  0  0  0  0  0  0  0  0  0
   20.8907  -23.6507  -14.7047 N   0  0  0  0  0  0  0  0  0  0  0  0
   20.5584  -22.7948  -13.5553 C   0  0  1  0  0  0  0  0  0  0  0  0
   20.2580  -21.4387  -14.1583 C   0  0  0  0  0  0  0  0  0  0  0  0
   19.7474  -20.4418  -13.1820 C   0  0  0  0  0  0  0  0  0  0  0  0
   19.3743  -19.1716  -13.8942 C   0  0  0  0  0  0  0  0  0  0  0  0
   18.9872  -18.0797  -12.9514 C   0  0  0  0  0  0  0  0  0  0  0  0
   18.6673  -16.8976  -13.7298 N   0  0  0  0  0  0  0  0  0  0  0  0
   19.4200  -23.4117  -12.8651 C   0  0  0  0  0  0  0  0  0  0  0  0
   18.4810  -23.8932  -13.5467 O   0  0  0  0  0  0  0  0  0  0  0  0
   19.2522  -25.1127   -6.9630 N   0  0  0  0  0  0  0  0  0  0  0  0
   17.8361  -25.1774   -7.2010 C   0  0  0  0  0  0  0  0  0  0  0  0
   17.1099  -25.5475   -6.2688 O   0  0  0  0  0  0  0  0  0  0  0  0
   17.3915  -24.7915   -8.5492 C   0  0  0  0  0  0  0  0  0  0  0  0
   18.5036  -24.2980   -9.3976 C   0  0  0  0  0  0  0  0  0  0  0  0
   18.1878  -24.0556  -10.8329 C   0  0  2  0  0  0  0  0  0  0  0  0
   19.3533  -23.4770  -11.4663 N   0  0  0  0  0  0  0  0  0  0  0  0
   16.9850  -23.2006  -11.0251 C   0  0  0  0  0  0  0  0  0  0  0  0
   15.9166  -23.7793  -11.3484 O   0  0  0  0  0  0  0  0  0  0  0  0
   16.9832  -21.8434  -10.8707 O   0  0  0  0  0  0  0  0  0  0  0  0
  1  2  1  0
  3  4  1  0
  3  2  1  0
  4  5  1  0
  5  6  1  1
  7  8  2  0
  7  5  1  0
  9  7  1  0
 10  9  1  0
 10 11  1  6
 11 12  1  0
 12 13  1  0
 13 14  1  0
 14 15  1  0
 16 10  1  0
 17 16  2  0
 19 18  1  0
 19 21  1  0
 20 19  2  0
 23 22  1  1
 22 21  1  0
 23 24  1  0
 24 16  1  0
 25 23  1  0
 26 25  2  0
 27 25  1  0
M  END
$$$$
