MKQ.pdb
     RDKit          3D

 27 26  0  0  1  0  0  0  0  0999 V2000
   36.4316   -2.5940  -22.4800 C   0  0  0  0  0  0  0  0  0  0  0  0
   35.7516   -4.2698  -22.6527 S   0  0  0  0  0  0  0  0  0  0  0  0
   35.1933   -4.8043  -21.0101 C   0  0  0  0  0  0  0  0  0  0  0  0
   34.5880   -6.1706  -21.0379 C   0  0  0  0  0  0  0  0  0  0  0  0
   33.7100   -6.3457  -19.8259 C   0  0  2  0  0  0  0  0  0  0  0  0
   34.3224   -5.7895  -18.6392 N   0  0  0  0  0  0  0  0  0  0  0  0
   33.3714   -7.7571  -19.5655 C   0  0  0  0  0  0  0  0  0  0  0  0
   32.7411   -8.3990  -20.4352 O   0  0  0  0  0  0  0  0  0  0  0  0
   33.7513   -8.3627  -18.3634 N   0  0  0  0  0  0  0  0  0  0  0  0
   33.5744   -9.8000  -18.1054 C   0  0  1  0  0  0  0  0  0  0  0  0
   34.4570  -10.0888  -16.9094 C   0  0  0  0  0  0  0  0  0  0  0  0
   35.7744  -10.6808  -17.2580 C   0  0  0  0  0  0  0  0  0  0  0  0
   36.5998  -10.8625  -16.0147 C   0  0  0  0  0  0  0  0  0  0  0  0
   37.9434  -11.4487  -16.3007 C   0  0  0  0  0  0  0  0  0  0  0  0
   38.6474  -11.6103  -15.0423 N   0  0  0  0  0  0  0  0  0  0  0  0
   32.1449  -10.0291  -17.8674 C   0  0  0  0  0  0  0  0  0  0  0  0
   31.5023   -9.2046  -17.1707 O   0  0  0  0  0  0  0  0  0  0  0  0
   28.2142   -7.9188  -19.7583 N   0  0  0  0  0  0  0  0  0  0  0  0
   27.2865   -8.9106  -19.2873 C   0  0  0  0  0  0  0  0  0  0  0  0
   26.0772   -8.6622  -19.3830 O   0  0  0  0  0  0  0  0  0  0  0  0
   27.8812  -10.1360  -18.7314 C   0  0  0  0  0  0  0  0  0  0  0  0
   29.3638  -10.0932  -18.7123 C   0  0  0  0  0  0  0  0  0  0  0  0
   30.0567  -11.2972  -18.1752 C   0  0  2  0  0  0  0  0  0  0  0  0
   31.4786  -11.1434  -18.3967 N   0  0  0  0  0  0  0  0  0  0  0  0
   29.5503  -12.5673  -18.7625 C   0  0  0  0  0  0  0  0  0  0  0  0
   30.2724  -13.1269  -19.6265 O   0  0  0  0  0  0  0  0  0  0  0  0
   28.3620  -13.1455  -18.4165 O   0  0  0  0  0  0  0  0  0  0  0  0
  1  2  1  0
  3  4  1  0
  3  2  1  0
  4  5  1  0
  5  6  1  1
  7  8  2  0
  7  5  1  0
  9  7  1  0
 10  9  1  0
 10 11  1  1
 11 12  1  0
 12 13  1  0
 13 14  1  0
 14 15  1  0
 16 10  1  0
 17 16  2  0
 19 18  1  0
 19 21  1  0
 20 19  2  0
 23 22  1  6
 22 21  1  0
 23 24  1  0
 24 16  1  0
 25 23  1  0
 26 25  2  0
 27 25  1  0
M  END
$$$$
