MKQ.pdb
     RDKit          3D

 27 26  0  0  1  0  0  0  0  0999 V2000
   27.5264  -16.7858  -19.0607 C   0  0  0  0  0  0  0  0  0  0  0  0
   29.3213  -16.8668  -18.7923 S   0  0  0  0  0  0  0  0  0  0  0  0
   29.6540  -18.3240  -17.7621 C   0  0  0  0  0  0  0  0  0  0  0  0
   28.8797  -19.5206  -18.2121 C   0  0  0  0  0  0  0  0  0  0  0  0
   27.6838  -19.7007  -17.3133 C   0  0  2  0  0  0  0  0  0  0  0  0
   28.0747  -19.8398  -15.9275 N   0  0  0  0  0  0  0  0  0  0  0  0
   26.8567  -20.8620  -17.6897 C   0  0  0  0  0  0  0  0  0  0  0  0
   26.5157  -21.0004  -18.8856 O   0  0  0  0  0  0  0  0  0  0  0  0
   26.4625  -21.7900  -16.7204 N   0  0  0  0  0  0  0  0  0  0  0  0
   25.6213  -22.9563  -17.0305 C   0  0  1  0  0  0  0  0  0  0  0  0
   26.3861  -24.1411  -16.4793 C   0  0  0  0  0  0  0  0  0  0  0  0
   27.4710  -24.6287  -17.3697 C   0  0  0  0  0  0  0  0  0  0  0  0
   28.2112  -25.7562  -16.7057 C   0  0  0  0  0  0  0  0  0  0  0  0
   29.3528  -26.2547  -17.5297 C   0  0  0  0  0  0  0  0  0  0  0  0
   30.0250  -27.3056  -16.7887 N   0  0  0  0  0  0  0  0  0  0  0  0
   24.3163  -22.7352  -16.3972 C   0  0  0  0  0  0  0  0  0  0  0  0
   24.1988  -22.9213  -15.1604 O   0  0  0  0  0  0  0  0  0  0  0  0
   22.4395  -18.8230  -13.7931 N   0  0  0  0  0  0  0  0  0  0  0  0
   21.5321  -18.5324  -14.8693 C   0  0  0  0  0  0  0  0  0  0  0  0
   20.9491  -17.4401  -14.8544 O   0  0  0  0  0  0  0  0  0  0  0  0
   21.3886  -19.5807  -15.8914 C   0  0  0  0  0  0  0  0  0  0  0  0
   22.2295  -20.7701  -15.6111 C   0  0  0  0  0  0  0  0  0  0  0  0
   21.9743  -21.9765  -16.4465 C   0  0  2  0  0  0  0  0  0  0  0  0
   23.1986  -22.3226  -17.1362 N   0  0  0  0  0  0  0  0  0  0  0  0
   20.8472  -21.7926  -17.4006 C   0  0  0  0  0  0  0  0  0  0  0  0
   19.6896  -21.7276  -16.9141 O   0  0  0  0  0  0  0  0  0  0  0  0
   21.0040  -21.6927  -18.7539 O   0  0  0  0  0  0  0  0  0  0  0  0
  1  2  1  0
  3  4  1  0
  3  2  1  0
  4  5  1  0
  5  6  1  1
  7  8  2  0
  7  5  1  0
  9  7  1  0
 10  9  1  0
 10 11  1  1
 11 12  1  0
 12 13  1  0
 13 14  1  0
 14 15  1  0
 16 10  1  0
 17 16  2  0
 19 18  1  0
 19 21  1  0
 20 19  2  0
 23 22  1  6
 22 21  1  0
 23 24  1  0
 24 16  1  0
 25 23  1  0
 26 25  2  0
 27 25  1  0
M  END
$$$$
