CQV.pdb
     RDKit          3D

 23 22  0  0  1  0  0  0  0  0999 V2000
    7.2744  -16.2502   18.5752 N   0  0  0  0  0  0  0  0  0  0  0  0
    8.0179  -15.3671   19.4526 C   0  0  1  0  0  0  0  0  0  0  0  0
    7.6924  -13.9545   19.0413 C   0  0  0  0  0  0  0  0  0  0  0  0
    8.4628  -12.7100   20.0724 S   0  0  0  0  0  0  0  0  0  0  0  0
    7.6967  -15.6439   20.8617 C   0  0  0  0  0  0  0  0  0  0  0  0
    6.5215  -15.7964   21.2883 O   0  0  0  0  0  0  0  0  0  0  0  0
   11.1316  -19.2831   24.2186 N   0  0  0  0  0  0  0  0  0  0  0  0
   10.2905  -18.7431   25.2087 C   0  0  0  0  0  0  0  0  0  0  0  0
   10.3262  -19.2672   26.3716 O   0  0  0  0  0  0  0  0  0  0  0  0
    9.3850  -17.6060   24.9388 C   0  0  0  0  0  0  0  0  0  0  0  0
    9.5386  -17.1831   23.5183 C   0  0  0  0  0  0  0  0  0  0  0  0
    8.5875  -16.0319   23.1897 C   0  0  2  0  0  0  0  0  0  0  0  0
    8.7449  -15.7472   21.7969 N   0  0  0  0  0  0  0  0  0  0  0  0
    8.9151  -14.9317   24.0908 C   0  0  0  0  0  0  0  0  0  0  0  0
   10.0047  -14.3113   24.0776 O   0  0  0  0  0  0  0  0  0  0  0  0
    6.1625  -12.2988   25.2553 C   0  0  0  0  0  0  0  0  0  0  0  0
    6.7965  -12.9735   26.4274 C   0  0  2  0  0  0  0  0  0  0  0  0
    7.0501  -11.9280   27.5132 C   0  0  0  0  0  0  0  0  0  0  0  0
    8.1747  -13.5229   26.0419 C   0  0  2  0  0  0  0  0  0  0  0  0
    7.9386  -14.5367   25.0443 N   0  0  0  0  0  0  0  0  0  0  0  0
    8.7503  -14.1125   27.2556 C   0  0  0  0  0  0  0  0  0  0  0  0
    8.6339  -15.3173   27.5827 O   0  0  0  0  0  0  0  0  0  0  0  0
    9.4761  -13.2990   28.1127 O   0  0  0  0  0  0  0  0  0  0  0  0
  2  1  1  6
  2  3  1  0
  3  4  1  0
  5 13  1  0
  5  2  1  0
  6  5  2  0
  8  7  1  0
  9  8  2  0
 10  8  1  0
 11 10  1  0
 12 11  1  1
 12 14  1  0
 12 13  1  0
 14 15  2  0
 17 16  1  6
 17 19  1  0
 17 18  1  0
 20 14  1  0
 19 20  1  6
 21 19  1  0
 21 23  1  0
 22 21  2  0
M  END
$$$$
