CQV.pdb
     RDKit          3D

 23 22  0  0  1  0  0  0  0  0999 V2000
    7.3729  -15.4778   18.3231 N   0  0  0  0  0  0  0  0  0  0  0  0
    8.0652  -14.7052   19.3360 C   0  0  1  0  0  0  0  0  0  0  0  0
    7.6283  -13.2718   19.1776 C   0  0  0  0  0  0  0  0  0  0  0  0
    8.3750  -12.1575   20.3634 S   0  0  0  0  0  0  0  0  0  0  0  0
    7.7919  -15.2444   20.6777 C   0  0  0  0  0  0  0  0  0  0  0  0
    6.6387  -15.5516   21.0800 O   0  0  0  0  0  0  0  0  0  0  0  0
   10.3159  -19.3089   24.4609 N   0  0  0  0  0  0  0  0  0  0  0  0
    9.6517  -19.4123   23.2249 C   0  0  0  0  0  0  0  0  0  0  0  0
    9.3389  -20.5785   22.8123 O   0  0  0  0  0  0  0  0  0  0  0  0
    9.3149  -18.2256   22.4099 C   0  0  0  0  0  0  0  0  0  0  0  0
    9.7509  -16.9961   23.1299 C   0  0  0  0  0  0  0  0  0  0  0  0
    8.7418  -15.8649   22.9308 C   0  0  2  0  0  0  0  0  0  0  0  0
    8.8632  -15.4338   21.5724 N   0  0  0  0  0  0  0  0  0  0  0  0
    9.0320  -14.8467   23.9351 C   0  0  0  0  0  0  0  0  0  0  0  0
   10.0598  -14.1283   23.9331 O   0  0  0  0  0  0  0  0  0  0  0  0
    6.4145  -12.3552   24.9850 C   0  0  0  0  0  0  0  0  0  0  0  0
    6.8707  -13.0398   26.2317 C   0  0  2  0  0  0  0  0  0  0  0  0
    7.0499  -11.9889   27.3272 C   0  0  0  0  0  0  0  0  0  0  0  0
    8.2538  -13.6653   26.0181 C   0  0  2  0  0  0  0  0  0  0  0  0
    8.0915  -14.6556   24.9828 N   0  0  0  0  0  0  0  0  0  0  0  0
    8.6335  -14.2971   27.2863 C   0  0  0  0  0  0  0  0  0  0  0  0
    8.3625  -15.4809   27.5981 O   0  0  0  0  0  0  0  0  0  0  0  0
    9.3408  -13.5514   28.2175 O   0  0  0  0  0  0  0  0  0  0  0  0
  2  1  1  6
  2  3  1  0
  3  4  1  0
  5 13  1  0
  5  2  1  0
  6  5  2  0
  8  7  1  0
  9  8  2  0
 10  8  1  0
 11 10  1  0
 12 11  1  6
 12 14  1  0
 12 13  1  0
 14 15  2  0
 17 16  1  6
 17 19  1  0
 17 18  1  0
 20 14  1  0
 19 20  1  6
 21 19  1  0
 21 23  1  0
 22 21  2  0
M  END
$$$$
