CQV.pdb
     RDKit          3D

 23 22  0  0  1  0  0  0  0  0999 V2000
    9.1472  -15.1243   19.1633 N   0  0  0  0  0  0  0  0  0  0  0  0
    8.5695  -13.9018   19.6868 C   0  0  1  0  0  0  0  0  0  0  0  0
    7.6258  -13.3717   18.6385 C   0  0  0  0  0  0  0  0  0  0  0  0
    8.2035  -13.6164   16.9615 S   0  0  0  0  0  0  0  0  0  0  0  0
    7.9118  -14.1501   20.9795 C   0  0  0  0  0  0  0  0  0  0  0  0
    7.2530  -13.2755   21.6018 O   0  0  0  0  0  0  0  0  0  0  0  0
    8.2576  -19.9202   23.5220 N   0  0  0  0  0  0  0  0  0  0  0  0
    7.6522  -19.1694   24.5463 C   0  0  0  0  0  0  0  0  0  0  0  0
    7.3302  -19.7780   25.6206 O   0  0  0  0  0  0  0  0  0  0  0  0
    7.3859  -17.7216   24.4097 C   0  0  0  0  0  0  0  0  0  0  0  0
    7.8060  -17.2713   23.0529 C   0  0  0  0  0  0  0  0  0  0  0  0
    7.5670  -15.7709   22.8816 C   0  0  2  0  0  0  0  0  0  0  0  0
    8.0132  -15.4262   21.5671 N   0  0  0  0  0  0  0  0  0  0  0  0
    8.2637  -15.0963   23.9721 C   0  0  0  0  0  0  0  0  0  0  0  0
    9.5072  -15.1161   24.1323 O   0  0  0  0  0  0  0  0  0  0  0  0
    7.4845  -11.3394   27.0531 C   0  0  0  0  0  0  0  0  0  0  0  0
    6.9598  -12.4060   26.1486 C   0  0  2  0  0  0  0  0  0  0  0  0
    5.8511  -13.1631   26.8795 C   0  0  0  0  0  0  0  0  0  0  0  0
    8.0535  -13.4396   25.8565 C   0  0  2  0  0  0  0  0  0  0  0  0
    7.4853  -14.3703   24.9133 N   0  0  0  0  0  0  0  0  0  0  0  0
    8.3557  -14.1072   27.1273 C   0  0  0  0  0  0  0  0  0  0  0  0
    8.9561  -13.5676   28.0867 O   0  0  0  0  0  0  0  0  0  0  0  0
    7.9589  -15.4249   27.2993 O   0  0  0  0  0  0  0  0  0  0  0  0
  2  1  1  6
  2  3  1  0
  3  4  1  0
  5 13  1  0
  5  2  1  0
  6  5  2  0
  8  7  1  0
  9  8  2  0
 10  8  1  0
 11 10  1  0
 12 11  1  1
 12 14  1  0
 12 13  1  0
 14 15  2  0
 17 16  1  1
 17 19  1  0
 17 18  1  0
 20 14  1  0
 19 20  1  6
 21 19  1  0
 21 23  1  0
 22 21  2  0
M  END
$$$$
