CQV.pdb
     RDKit          3D

 23 22  0  0  1  0  0  0  0  0999 V2000
    7.9096  -16.3206   18.2868 N   0  0  0  0  0  0  0  0  0  0  0  0
    8.3342  -15.4355   19.3538 C   0  0  1  0  0  0  0  0  0  0  0  0
    7.9803  -14.0321   18.9345 C   0  0  0  0  0  0  0  0  0  0  0  0
    8.4427  -12.7854   20.1334 S   0  0  0  0  0  0  0  0  0  0  0  0
    7.7161  -15.8270   20.6305 C   0  0  0  0  0  0  0  0  0  0  0  0
    6.4905  -16.0883   20.7565 O   0  0  0  0  0  0  0  0  0  0  0  0
    6.0182  -18.8468   23.2188 N   0  0  0  0  0  0  0  0  0  0  0  0
    6.5887  -18.6754   24.4934 C   0  0  0  0  0  0  0  0  0  0  0  0
    5.8788  -18.9781   25.5096 O   0  0  0  0  0  0  0  0  0  0  0  0
    7.9632  -18.1634   24.6788 C   0  0  0  0  0  0  0  0  0  0  0  0
    8.4922  -17.6919   23.3681 C   0  0  0  0  0  0  0  0  0  0  0  0
    8.0561  -16.2524   23.0937 C   0  0  2  0  0  0  0  0  0  0  0  0
    8.5211  -15.9198   21.7826 N   0  0  0  0  0  0  0  0  0  0  0  0
    8.5910  -15.4271   24.1719 C   0  0  0  0  0  0  0  0  0  0  0  0
    9.8086  -15.3497   24.4616 O   0  0  0  0  0  0  0  0  0  0  0  0
    5.9975  -12.4941   25.3765 C   0  0  0  0  0  0  0  0  0  0  0  0
    6.8049  -13.0770   26.4897 C   0  0  2  0  0  0  0  0  0  0  0  0
    7.2533  -11.9436   27.4121 C   0  0  0  0  0  0  0  0  0  0  0  0
    8.0903  -13.7060   25.9402 C   0  0  2  0  0  0  0  0  0  0  0  0
    7.6758  -14.6618   24.9435 N   0  0  0  0  0  0  0  0  0  0  0  0
    8.7467  -14.3804   27.0654 C   0  0  0  0  0  0  0  0  0  0  0  0
    8.4925  -15.5506   27.4368 O   0  0  0  0  0  0  0  0  0  0  0  0
    9.7171  -13.6942   27.7801 O   0  0  0  0  0  0  0  0  0  0  0  0
  2  1  1  6
  2  3  1  0
  3  4  1  0
  5 13  1  0
  5  2  1  0
  6  5  2  0
  8  7  1  0
  9  8  2  0
 10  8  1  0
 11 10  1  0
 12 11  1  1
 12 14  1  0
 12 13  1  0
 14 15  2  0
 17 16  1  6
 17 19  1  0
 17 18  1  0
 20 14  1  0
 19 20  1  6
 21 19  1  0
 21 23  1  0
 22 21  2  0
M  END
$$$$
