CQV.pdb
     RDKit          3D

 23 22  0  0  1  0  0  0  0  0999 V2000
    7.6717  -15.4130   18.4084 N   0  0  0  0  0  0  0  0  0  0  0  0
    8.2481  -14.6080   19.4676 C   0  0  1  0  0  0  0  0  0  0  0  0
    7.6965  -13.2139   19.3166 C   0  0  0  0  0  0  0  0  0  0  0  0
    8.6693  -12.1691   18.2360 S   0  0  0  0  0  0  0  0  0  0  0  0
    7.9620  -15.1998   20.7842 C   0  0  0  0  0  0  0  0  0  0  0  0
    6.8158  -15.5836   21.1379 O   0  0  0  0  0  0  0  0  0  0  0  0
   11.6189  -19.1236   23.4738 N   0  0  0  0  0  0  0  0  0  0  0  0
   10.8453  -18.7313   24.5815 C   0  0  0  0  0  0  0  0  0  0  0  0
   11.0476  -19.3281   25.6910 O   0  0  0  0  0  0  0  0  0  0  0  0
    9.8244  -17.6657   24.4916 C   0  0  0  0  0  0  0  0  0  0  0  0
    9.8856  -17.0403   23.1406 C   0  0  0  0  0  0  0  0  0  0  0  0
    8.8819  -15.8924   23.0287 C   0  0  2  0  0  0  0  0  0  0  0  0
    9.0121  -15.3532   21.7103 N   0  0  0  0  0  0  0  0  0  0  0  0
    9.1707  -14.9601   24.1137 C   0  0  0  0  0  0  0  0  0  0  0  0
   10.2819  -14.4061   24.2891 O   0  0  0  0  0  0  0  0  0  0  0  0
    6.4097  -12.3980   25.2439 C   0  0  0  0  0  0  0  0  0  0  0  0
    6.8982  -13.1734   26.4234 C   0  0  2  0  0  0  0  0  0  0  0  0
    7.0754  -12.2126   27.5990 C   0  0  0  0  0  0  0  0  0  0  0  0
    8.2891  -13.7518   26.1391 C   0  0  2  0  0  0  0  0  0  0  0  0
    8.1280  -14.6597   25.0308 N   0  0  0  0  0  0  0  0  0  0  0  0
    8.7022  -14.4746   27.3469 C   0  0  0  0  0  0  0  0  0  0  0  0
    9.0797  -13.9244   28.4085 O   0  0  0  0  0  0  0  0  0  0  0  0
    8.6810  -15.8613   27.3343 O   0  0  0  0  0  0  0  0  0  0  0  0
  2  1  1  6
  2  3  1  0
  3  4  1  0
  5 13  1  0
  5  2  1  0
  6  5  2  0
  8  7  1  0
  9  8  2  0
 10  8  1  0
 11 10  1  0
 12 11  1  6
 12 14  1  0
 12 13  1  0
 14 15  2  0
 17 16  1  6
 17 19  1  0
 17 18  1  0
 20 14  1  0
 19 20  1  6
 21 19  1  0
 21 23  1  0
 22 21  2  0
M  END
$$$$
