CQV.pdb
     RDKit          3D

 23 22  0  0  1  0  0  0  0  0999 V2000
    6.9435  -16.0284   18.8193 N   0  0  0  0  0  0  0  0  0  0  0  0
    7.8440  -15.2489   19.6462 C   0  0  1  0  0  0  0  0  0  0  0  0
    7.6122  -13.7983   19.3105 C   0  0  0  0  0  0  0  0  0  0  0  0
    8.6432  -12.6708   20.2440 S   0  0  0  0  0  0  0  0  0  0  0  0
    7.6328  -15.5500   21.0710 C   0  0  0  0  0  0  0  0  0  0  0  0
    6.5023  -15.5233   21.6254 O   0  0  0  0  0  0  0  0  0  0  0  0
   11.0878  -19.1597   26.4583 N   0  0  0  0  0  0  0  0  0  0  0  0
   10.8933  -18.4698   25.2476 C   0  0  0  0  0  0  0  0  0  0  0  0
   11.8955  -18.3394   24.4685 O   0  0  0  0  0  0  0  0  0  0  0  0
    9.5821  -17.9042   24.8651 C   0  0  0  0  0  0  0  0  0  0  0  0
    9.6557  -17.3973   23.4659 C   0  0  0  0  0  0  0  0  0  0  0  0
    8.6854  -16.2339   23.2592 C   0  0  2  0  0  0  0  0  0  0  0  0
    8.7408  -15.8877   21.8725 N   0  0  0  0  0  0  0  0  0  0  0  0
    9.0803  -15.1742   24.1815 C   0  0  0  0  0  0  0  0  0  0  0  0
   10.1024  -14.4617   24.0394 O   0  0  0  0  0  0  0  0  0  0  0  0
    6.6553  -12.5780   25.3938 C   0  0  0  0  0  0  0  0  0  0  0  0
    7.2033  -13.2417   26.6145 C   0  0  2  0  0  0  0  0  0  0  0  0
    7.5130  -12.1669   27.6563 C   0  0  0  0  0  0  0  0  0  0  0  0
    8.5419  -13.9172   26.2957 C   0  0  2  0  0  0  0  0  0  0  0  0
    8.2558  -14.9327   25.3130 N   0  0  0  0  0  0  0  0  0  0  0  0
    9.0191  -14.5221   27.5440 C   0  0  0  0  0  0  0  0  0  0  0  0
    8.8682  -15.7285   27.8505 O   0  0  0  0  0  0  0  0  0  0  0  0
    9.6847  -13.7223   28.4609 O   0  0  0  0  0  0  0  0  0  0  0  0
  2  1  1  6
  2  3  1  0
  3  4  1  0
  5 13  1  0
  5  2  1  0
  6  5  2  0
  8  7  1  0
  9  8  2  0
 10  8  1  0
 11 10  1  0
 12 11  1  6
 12 14  1  0
 12 13  1  0
 14 15  2  0
 17 16  1  6
 17 19  1  0
 17 18  1  0
 20 14  1  0
 19 20  1  6
 21 19  1  0
 21 23  1  0
 22 21  2  0
M  END
$$$$
