TNY.pdb
     RDKit          3D

 28 28  0  0  1  0  0  0  0  0999 V2000
    7.8877  -12.1696   19.6464 C   0  0  0  0  0  0  0  0  0  0  0  0
    8.2232  -13.2202   20.6833 C   0  0  1  0  0  0  0  0  0  0  0  0
    7.2179  -13.1713   21.6484 O   0  0  0  0  0  0  0  0  0  0  0  0
    8.2875  -14.5896   20.0464 C   0  0  2  0  0  0  0  0  0  0  0  0
    7.1049  -14.8005   19.2727 N   0  0  0  0  0  0  0  0  0  0  0  0
    8.5566  -15.6580   21.0151 C   0  0  0  0  0  0  0  0  0  0  0  0
    7.6308  -16.4513   21.3171 O   0  0  0  0  0  0  0  0  0  0  0  0
   10.6757  -19.5751   20.8270 N   0  0  0  0  0  0  0  0  0  0  0  0
   11.4240  -18.3919   20.9879 C   0  0  0  0  0  0  0  0  0  0  0  0
   12.1136  -17.9666   20.0446 O   0  0  0  0  0  0  0  0  0  0  0  0
   11.3802  -17.6729   22.2721 C   0  0  0  0  0  0  0  0  0  0  0  0
   10.0988  -16.9560   22.5284 C   0  0  2  0  0  0  0  0  0  0  0  0
    9.8081  -15.8768   21.6567 N   0  0  0  0  0  0  0  0  0  0  0  0
   10.0552  -16.5899   23.9753 C   0  0  0  0  0  0  0  0  0  0  0  0
   10.7679  -15.6188   24.3369 O   0  0  0  0  0  0  0  0  0  0  0  0
    6.7651  -11.0406   26.1596 O   0  0  0  0  0  0  0  0  0  0  0  0
    7.0616  -12.3958   26.3331 C   0  0  0  0  0  0  0  0  0  0  0  0
    8.3027  -12.7643   26.8157 C   0  0  0  0  0  0  0  0  0  0  0  0
    8.5761  -14.0965   26.9794 C   0  0  0  0  0  0  0  0  0  0  0  0
    7.6866  -15.1152   26.6920 C   0  0  0  0  0  0  0  0  0  0  0  0
    7.9782  -16.5473   26.8566 C   0  0  0  0  0  0  0  0  0  0  0  0
    9.3343  -16.8710   26.3360 C   0  0  2  0  0  0  0  0  0  0  0  0
    9.2705  -17.2705   24.9191 N   0  0  0  0  0  0  0  0  0  0  0  0
    9.9573  -17.9843   27.0662 C   0  0  0  0  0  0  0  0  0  0  0  0
   10.1735  -19.0869   26.5078 O   0  0  0  0  0  0  0  0  0  0  0  0
    6.4453  -14.6976   26.2073 C   0  0  0  0  0  0  0  0  0  0  0  0
    6.1439  -13.3650   26.0332 C   0  0  0  0  0  0  0  0  0  0  0  0
   10.3295  -17.8424   28.4169 O   0  0  0  0  0  0  0  0  0  0  0  0
  2  1  1  6
  2  4  1  0
  3  2  1  0
  4  5  1  1
  4  6  1  0
  6  7  2  0
  9  8  1  0
 10  9  2  0
 12 11  1  6
 11  9  1  0
 13  6  1  0
 13 12  1  0
 14 12  1  0
 14 15  2  0
 16 17  1  0
 17 27  2  0
 17 18  1  0
 18 19  2  0
 19 20  1  0
 20 21  1  0
 22 21  1  1
 22 23  1  0
 23 14  1  0
 24 22  1  0
 25 24  2  0
 26 20  2  0
 27 26  1  0
 28 24  1  0
M  END
$$$$
