TNY.pdb
     RDKit          3D

 28 28  0  0  1  0  0  0  0  0999 V2000
    8.5842  -12.6436   20.6329 C   0  0  0  0  0  0  0  0  0  0  0  0
    7.5601  -13.4315   19.8441 C   0  0  1  0  0  0  0  0  0  0  0  0
    7.1892  -12.6392   18.7583 O   0  0  0  0  0  0  0  0  0  0  0  0
    8.1491  -14.7418   19.3742 C   0  0  2  0  0  0  0  0  0  0  0  0
    7.2185  -15.3859   18.5019 N   0  0  0  0  0  0  0  0  0  0  0  0
    8.6065  -15.5914   20.4794 C   0  0  0  0  0  0  0  0  0  0  0  0
    7.7619  -16.2751   21.1095 O   0  0  0  0  0  0  0  0  0  0  0  0
   12.1315  -19.2967   22.6952 N   0  0  0  0  0  0  0  0  0  0  0  0
   12.2867  -17.9106   22.8957 C   0  0  0  0  0  0  0  0  0  0  0  0
   12.7849  -17.4938   23.9560 O   0  0  0  0  0  0  0  0  0  0  0  0
   11.8566  -16.9715   21.8462 C   0  0  0  0  0  0  0  0  0  0  0  0
   10.4183  -16.5877   21.9209 C   0  0  2  0  0  0  0  0  0  0  0  0
    9.9585  -15.7093   20.9080 N   0  0  0  0  0  0  0  0  0  0  0  0
   10.1392  -16.1073   23.3068 C   0  0  0  0  0  0  0  0  0  0  0  0
   10.5949  -14.9772   23.6185 O   0  0  0  0  0  0  0  0  0  0  0  0
    7.0247  -10.4381   26.4346 O   0  0  0  0  0  0  0  0  0  0  0  0
    7.2247  -11.8164   26.3127 C   0  0  0  0  0  0  0  0  0  0  0  0
    8.0667  -12.4626   27.1972 C   0  0  0  0  0  0  0  0  0  0  0  0
    8.2510  -13.8132   27.0631 C   0  0  0  0  0  0  0  0  0  0  0  0
    7.6464  -14.5891   26.0914 C   0  0  0  0  0  0  0  0  0  0  0  0
    7.8483  -16.0376   25.9367 C   0  0  0  0  0  0  0  0  0  0  0  0
    9.2713  -16.3398   25.6229 C   0  0  2  0  0  0  0  0  0  0  0  0
    9.4081  -16.8495   24.2471 N   0  0  0  0  0  0  0  0  0  0  0  0
    9.8304  -17.3647   26.5159 C   0  0  0  0  0  0  0  0  0  0  0  0
    9.8783  -17.1883   27.7572 O   0  0  0  0  0  0  0  0  0  0  0  0
    6.8042  -13.8955   25.2198 C   0  0  0  0  0  0  0  0  0  0  0  0
    6.6008  -12.5380   25.3320 C   0  0  0  0  0  0  0  0  0  0  0  0
   10.3291  -18.5765   26.0002 O   0  0  0  0  0  0  0  0  0  0  0  0
  2  1  1  6
  2  4  1  0
  3  2  1  0
  4  5  1  1
  4  6  1  0
  6  7  2  0
  9  8  1  0
 10  9  2  0
 12 11  1  1
 11  9  1  0
 13  6  1  0
 13 12  1  0
 14 12  1  0
 14 15  2  0
 16 17  1  0
 17 27  2  0
 17 18  1  0
 18 19  2  0
 19 20  1  0
 20 21  1  0
 22 21  1  1
 22 23  1  0
 23 14  1  0
 24 22  1  0
 25 24  2  0
 26 20  2  0
 27 26  1  0
 28 24  1  0
M  END
$$$$
