TNY.pdb
     RDKit          3D

 28 28  0  0  1  0  0  0  0  0999 V2000
    7.8369  -13.7068   18.6352 C   0  0  0  0  0  0  0  0  0  0  0  0
    7.3931  -14.7495   19.6389 C   0  0  1  0  0  0  0  0  0  0  0  0
    8.2347  -15.8496   19.4779 O   0  0  0  0  0  0  0  0  0  0  0  0
    7.4887  -14.2036   21.0452 C   0  0  2  0  0  0  0  0  0  0  0  0
    8.7872  -13.6398   21.2398 N   0  0  0  0  0  0  0  0  0  0  0  0
    7.1141  -15.1878   22.0666 C   0  0  0  0  0  0  0  0  0  0  0  0
    5.9941  -15.7506   21.9858 O   0  0  0  0  0  0  0  0  0  0  0  0
    6.5482  -18.4361   25.9331 N   0  0  0  0  0  0  0  0  0  0  0  0
    6.9384  -18.8866   24.6562 C   0  0  0  0  0  0  0  0  0  0  0  0
    6.9777  -20.1066   24.4192 O   0  0  0  0  0  0  0  0  0  0  0  0
    7.2953  -17.9063   23.6171 C   0  0  0  0  0  0  0  0  0  0  0  0
    7.5896  -16.5415   24.1390 C   0  0  2  0  0  0  0  0  0  0  0  0
    7.9321  -15.5677   23.1676 N   0  0  0  0  0  0  0  0  0  0  0  0
    8.5909  -16.6730   25.2388 C   0  0  0  0  0  0  0  0  0  0  0  0
    9.6533  -17.2897   24.9686 O   0  0  0  0  0  0  0  0  0  0  0  0
    5.7070  -11.0509   25.4511 O   0  0  0  0  0  0  0  0  0  0  0  0
    6.5753  -11.9181   26.1208 C   0  0  0  0  0  0  0  0  0  0  0  0
    6.1857  -12.4769   27.3228 C   0  0  0  0  0  0  0  0  0  0  0  0
    7.0490  -13.3244   27.9652 C   0  0  0  0  0  0  0  0  0  0  0  0
    8.3019  -13.6664   27.4909 C   0  0  0  0  0  0  0  0  0  0  0  0
    9.2367  -14.5679   28.1812 C   0  0  0  0  0  0  0  0  0  0  0  0
    9.5635  -15.7414   27.3263 C   0  0  2  0  0  0  0  0  0  0  0  0
    8.3953  -16.1487   26.5258 N   0  0  0  0  0  0  0  0  0  0  0  0
    9.9659  -16.9110   28.1206 C   0  0  0  0  0  0  0  0  0  0  0  0
   10.9200  -16.8470   28.9330 O   0  0  0  0  0  0  0  0  0  0  0  0
    8.6544  -13.0792   26.2739 C   0  0  0  0  0  0  0  0  0  0  0  0
    7.8057  -12.2239   25.6067 C   0  0  0  0  0  0  0  0  0  0  0  0
    9.2889  -18.1389   27.9905 O   0  0  0  0  0  0  0  0  0  0  0  0
  2  1  1  6
  2  4  1  0
  3  2  1  0
  4  5  1  1
  4  6  1  0
  6  7  2  0
  9  8  1  0
 10  9  2  0
 12 11  1  6
 11  9  1  0
 13  6  1  0
 13 12  1  0
 14 12  1  0
 14 15  2  0
 16 17  1  0
 17 27  2  0
 17 18  1  0
 18 19  2  0
 19 20  1  0
 20 21  1  0
 22 21  1  1
 22 23  1  0
 23 14  1  0
 24 22  1  0
 25 24  2  0
 26 20  2  0
 27 26  1  0
 28 24  1  0
M  END
$$$$
