TNY.pdb
     RDKit          3D

 28 28  0  0  1  0  0  0  0  0999 V2000
    7.6110  -12.6759   18.3372 C   0  0  0  0  0  0  0  0  0  0  0  0
    7.4277  -13.7863   19.3496 C   0  0  1  0  0  0  0  0  0  0  0  0
    7.3111  -14.9747   18.6296 O   0  0  0  0  0  0  0  0  0  0  0  0
    8.6096  -13.8441   20.2902 C   0  0  2  0  0  0  0  0  0  0  0  0
    9.8091  -13.9757   19.5250 N   0  0  0  0  0  0  0  0  0  0  0  0
    8.4603  -14.8652   21.3330 C   0  0  0  0  0  0  0  0  0  0  0  0
    7.4888  -14.7865   22.1253 O   0  0  0  0  0  0  0  0  0  0  0  0
   11.3619  -19.7594   21.2645 N   0  0  0  0  0  0  0  0  0  0  0  0
   10.9796  -18.5108   21.7942 C   0  0  0  0  0  0  0  0  0  0  0  0
   11.8153  -17.5935   21.8729 O   0  0  0  0  0  0  0  0  0  0  0  0
    9.5939  -18.3073   22.2486 C   0  0  0  0  0  0  0  0  0  0  0  0
    9.2642  -16.8950   22.5926 C   0  0  2  0  0  0  0  0  0  0  0  0
    9.3444  -15.9634   21.5273 N   0  0  0  0  0  0  0  0  0  0  0  0
   10.0689  -16.5109   23.7903 C   0  0  0  0  0  0  0  0  0  0  0  0
   11.2871  -16.2631   23.6001 O   0  0  0  0  0  0  0  0  0  0  0  0
    5.3449  -12.1109   26.9204 O   0  0  0  0  0  0  0  0  0  0  0  0
    6.6045  -12.6888   26.7360 C   0  0  0  0  0  0  0  0  0  0  0  0
    7.4785  -12.7704   27.8030 C   0  0  0  0  0  0  0  0  0  0  0  0
    8.7084  -13.3396   27.6043 C   0  0  0  0  0  0  0  0  0  0  0  0
    9.1459  -13.8462   26.3945 C   0  0  0  0  0  0  0  0  0  0  0  0
   10.4688  -14.4495   26.1732 C   0  0  0  0  0  0  0  0  0  0  0  0
   10.3783  -15.9349   26.1870 C   0  0  2  0  0  0  0  0  0  0  0  0
    9.5306  -16.4189   25.0831 N   0  0  0  0  0  0  0  0  0  0  0  0
    9.7877  -16.4428   27.4336 C   0  0  0  0  0  0  0  0  0  0  0  0
   10.3043  -16.1872   28.5481 O   0  0  0  0  0  0  0  0  0  0  0  0
    8.2312  -13.7432   25.3444 C   0  0  0  0  0  0  0  0  0  0  0  0
    6.9880  -13.1757   25.5164 C   0  0  0  0  0  0  0  0  0  0  0  0
    8.6222  -17.2328   27.4101 O   0  0  0  0  0  0  0  0  0  0  0  0
  2  1  1  6
  2  4  1  0
  3  2  1  0
  4  5  1  6
  4  6  1  0
  6  7  2  0
  9  8  1  0
 10  9  2  0
 12 11  1  6
 11  9  1  0
 13  6  1  0
 13 12  1  0
 14 12  1  0
 14 15  2  0
 16 17  1  0
 17 27  2  0
 17 18  1  0
 18 19  2  0
 19 20  1  0
 20 21  1  0
 22 21  1  1
 22 23  1  0
 23 14  1  0
 24 22  1  0
 25 24  2  0
 26 20  2  0
 27 26  1  0
 28 24  1  0
M  END
$$$$
