TNY.pdb
     RDKit          3D

 28 28  0  0  1  0  0  0  0  0999 V2000
    9.2800  -12.6054   20.8045 C   0  0  0  0  0  0  0  0  0  0  0  0
    8.0305  -12.9728   20.0330 C   0  0  1  0  0  0  0  0  0  0  0  0
    7.9735  -12.1243   18.9279 O   0  0  0  0  0  0  0  0  0  0  0  0
    8.0856  -14.4186   19.5954 C   0  0  2  0  0  0  0  0  0  0  0  0
    6.9805  -14.6870   18.7304 N   0  0  0  0  0  0  0  0  0  0  0  0
    8.1933  -15.3525   20.7217 C   0  0  0  0  0  0  0  0  0  0  0  0
    7.1413  -15.7791   21.2595 O   0  0  0  0  0  0  0  0  0  0  0  0
    9.3667  -19.7412   20.7868 N   0  0  0  0  0  0  0  0  0  0  0  0
   10.2862  -18.6737   20.7621 C   0  0  0  0  0  0  0  0  0  0  0  0
   10.8764  -18.3939   19.7040 O   0  0  0  0  0  0  0  0  0  0  0  0
   10.5373  -17.9018   21.9906 C   0  0  0  0  0  0  0  0  0  0  0  0
    9.5311  -16.8355   22.2593 C   0  0  2  0  0  0  0  0  0  0  0  0
    9.4181  -15.8273   21.2695 N   0  0  0  0  0  0  0  0  0  0  0  0
    9.7750  -16.3054   23.6337 C   0  0  0  0  0  0  0  0  0  0  0  0
   10.7936  -15.5848   23.7918 O   0  0  0  0  0  0  0  0  0  0  0  0
    6.0561  -10.6305   25.4341 O   0  0  0  0  0  0  0  0  0  0  0  0
    6.5536  -11.8888   25.7857 C   0  0  0  0  0  0  0  0  0  0  0  0
    7.8593  -12.0067   26.2221 C   0  0  0  0  0  0  0  0  0  0  0  0
    8.3300  -13.2471   26.5624 C   0  0  0  0  0  0  0  0  0  0  0  0
    7.5821  -14.4083   26.4996 C   0  0  0  0  0  0  0  0  0  0  0  0
    8.0853  -15.7439   26.8544 C   0  0  0  0  0  0  0  0  0  0  0  0
    9.3000  -16.0759   26.0613 C   0  0  2  0  0  0  0  0  0  0  0  0
    8.9332  -16.5742   24.7240 N   0  0  0  0  0  0  0  0  0  0  0  0
   10.1101  -17.1231   26.7001 C   0  0  0  0  0  0  0  0  0  0  0  0
   10.5849  -16.9653   27.8508 O   0  0  0  0  0  0  0  0  0  0  0  0
    6.2691  -14.2428   26.0538 C   0  0  0  0  0  0  0  0  0  0  0  0
    5.7700  -13.0073   25.7053 C   0  0  0  0  0  0  0  0  0  0  0  0
   10.3757  -18.3357   26.0353 O   0  0  0  0  0  0  0  0  0  0  0  0
  2  1  1  6
  2  4  1  0
  3  2  1  0
  4  5  1  1
  4  6  1  0
  6  7  2  0
  9  8  1  0
 10  9  2  0
 12 11  1  6
 11  9  1  0
 13  6  1  0
 13 12  1  0
 14 12  1  0
 14 15  2  0
 16 17  1  0
 17 27  2  0
 17 18  1  0
 18 19  2  0
 19 20  1  0
 20 21  1  0
 22 21  1  1
 22 23  1  0
 23 14  1  0
 24 22  1  0
 25 24  2  0
 26 20  2  0
 27 26  1  0
 28 24  1  0
M  END
$$$$
