TNY.pdb
     RDKit          3D

 28 28  0  0  1  0  0  0  0  0999 V2000
    6.6583  -24.8971   15.2213 C   0  0  0  0  0  0  0  0  0  0  0  0
    7.9053  -24.0582   15.0396 C   0  0  1  0  0  0  0  0  0  0  0  0
    8.8428  -24.8624   14.3925 O   0  0  0  0  0  0  0  0  0  0  0  0
    7.5986  -22.8269   14.2183 C   0  0  2  0  0  0  0  0  0  0  0  0
    7.1165  -23.2298   12.9350 N   0  0  0  0  0  0  0  0  0  0  0  0
    8.7230  -21.8865   14.1571 C   0  0  0  0  0  0  0  0  0  0  0  0
    9.5722  -22.0141   13.2404 O   0  0  0  0  0  0  0  0  0  0  0  0
    7.7933  -17.8438   13.4897 N   0  0  0  0  0  0  0  0  0  0  0  0
    9.1439  -18.2442   13.5225 C   0  0  0  0  0  0  0  0  0  0  0  0
    9.7768  -18.3632   12.4588 O   0  0  0  0  0  0  0  0  0  0  0  0
    9.7901  -18.5172   14.8171 C   0  0  0  0  0  0  0  0  0  0  0  0
   10.0672  -19.9597   15.0703 C   0  0  2  0  0  0  0  0  0  0  0  0
    8.9379  -20.8163   15.0705 N   0  0  0  0  0  0  0  0  0  0  0  0
   10.8998  -20.0607   16.3057 C   0  0  0  0  0  0  0  0  0  0  0  0
   10.3393  -20.5242   17.3317 O   0  0  0  0  0  0  0  0  0  0  0  0
    9.8745  -23.1335   22.0877 O   0  0  0  0  0  0  0  0  0  0  0  0
   10.6974  -22.6927   21.0469 C   0  0  0  0  0  0  0  0  0  0  0  0
   11.7043  -21.7849   21.3135 C   0  0  0  0  0  0  0  0  0  0  0  0
   12.5010  -21.3639   20.2819 C   0  0  0  0  0  0  0  0  0  0  0  0
   12.3685  -21.7877   18.9725 C   0  0  0  0  0  0  0  0  0  0  0  0
   13.2146  -21.3317   17.8594 C   0  0  0  0  0  0  0  0  0  0  0  0
   13.0101  -19.8799   17.6039 C   0  0  2  0  0  0  0  0  0  0  0  0
   12.2461  -19.6685   16.3617 N   0  0  0  0  0  0  0  0  0  0  0  0
   14.2822  -19.1593   17.4511 C   0  0  0  0  0  0  0  0  0  0  0  0
   15.1481  -19.1707   18.3590 O   0  0  0  0  0  0  0  0  0  0  0  0
   11.3391  -22.7044   18.7486 C   0  0  0  0  0  0  0  0  0  0  0  0
   10.5235  -23.1446   19.7674 C   0  0  0  0  0  0  0  0  0  0  0  0
   14.5639  -18.4342   16.2772 O   0  0  0  0  0  0  0  0  0  0  0  0
  2  1  1  6
  2  4  1  0
  3  2  1  0
  4  5  1  6
  4  6  1  0
  6  7  2  0
  9  8  1  0
 10  9  2  0
 12 11  1  1
 11  9  1  0
 13  6  1  0
 13 12  1  0
 14 12  1  0
 14 15  2  0
 16 17  1  0
 17 27  2  0
 17 18  1  0
 18 19  2  0
 19 20  1  0
 20 21  1  0
 22 21  1  6
 22 23  1  0
 23 14  1  0
 24 22  1  0
 25 24  2  0
 26 20  2  0
 27 26  1  0
 28 24  1  0
M  END
$$$$
