TNY.pdb
     RDKit          3D

 28 28  0  0  1  0  0  0  0  0999 V2000
   11.1089  -19.4043   13.1945 C   0  0  0  0  0  0  0  0  0  0  0  0
   11.9803  -19.3564   14.4314 C   0  0  1  0  0  0  0  0  0  0  0  0
   11.4122  -20.2275   15.3602 O   0  0  0  0  0  0  0  0  0  0  0  0
   13.3937  -19.7763   14.0986 C   0  0  2  0  0  0  0  0  0  0  0  0
   13.3670  -21.0751   13.5036 N   0  0  0  0  0  0  0  0  0  0  0  0
   14.3055  -19.6707   15.2430 C   0  0  0  0  0  0  0  0  0  0  0  0
   14.5208  -20.6905   15.9440 O   0  0  0  0  0  0  0  0  0  0  0  0
   19.2458  -18.3471   16.1552 N   0  0  0  0  0  0  0  0  0  0  0  0
   18.0129  -17.8695   15.6679 C   0  0  0  0  0  0  0  0  0  0  0  0
   17.8089  -17.8303   14.4419 O   0  0  0  0  0  0  0  0  0  0  0  0
   16.9801  -17.4221   16.6172 C   0  0  0  0  0  0  0  0  0  0  0  0
   15.8339  -18.3639   16.7627 C   0  0  2  0  0  0  0  0  0  0  0  0
   14.9827  -18.4820   15.6355 N   0  0  0  0  0  0  0  0  0  0  0  0
   15.1152  -18.0257   18.0270 C   0  0  0  0  0  0  0  0  0  0  0  0
   13.9027  -17.7081   17.9234 O   0  0  0  0  0  0  0  0  0  0  0  0
   10.8013  -18.0056   25.3302 O   0  0  0  0  0  0  0  0  0  0  0  0
   11.5368  -18.2054   24.1582 C   0  0  0  0  0  0  0  0  0  0  0  0
   12.2116  -19.3968   23.9733 C   0  0  0  0  0  0  0  0  0  0  0  0
   12.9273  -19.5754   22.8191 C   0  0  0  0  0  0  0  0  0  0  0  0
   13.0254  -18.6354   21.8100 C   0  0  0  0  0  0  0  0  0  0  0  0
   13.8001  -18.8180   20.5733 C   0  0  0  0  0  0  0  0  0  0  0  0
   14.9063  -17.8256   20.4944 C   0  0  2  0  0  0  0  0  0  0  0  0
   15.7260  -18.0486   19.2904 N   0  0  0  0  0  0  0  0  0  0  0  0
   15.8115  -17.9113   21.6495 C   0  0  0  0  0  0  0  0  0  0  0  0
   16.8256  -18.6497   21.6264 O   0  0  0  0  0  0  0  0  0  0  0  0
   12.3281  -17.4472   22.0385 C   0  0  0  0  0  0  0  0  0  0  0  0
   11.6007  -17.2412   23.1898 C   0  0  0  0  0  0  0  0  0  0  0  0
   15.5636  -17.1641   22.8171 O   0  0  0  0  0  0  0  0  0  0  0  0
  2  1  1  6
  2  4  1  0
  3  2  1  0
  4  5  1  1
  4  6  1  0
  6  7  2  0
  9  8  1  0
 10  9  2  0
 12 11  1  6
 11  9  1  0
 13  6  1  0
 13 12  1  0
 14 12  1  0
 14 15  2  0
 16 17  1  0
 17 27  2  0
 17 18  1  0
 18 19  2  0
 19 20  1  0
 20 21  1  0
 22 21  1  1
 22 23  1  0
 23 14  1  0
 24 22  1  0
 25 24  2  0
 26 20  2  0
 27 26  1  0
 28 24  1  0
M  END
$$$$
