TNY.pdb
     RDKit          3D

 28 28  0  0  1  0  0  0  0  0999 V2000
    9.2496  -12.8302   19.2430 C   0  0  0  0  0  0  0  0  0  0  0  0
    8.2980  -13.5819   18.3369 C   0  0  1  0  0  0  0  0  0  0  0  0
    8.1626  -12.8238   17.1745 O   0  0  0  0  0  0  0  0  0  0  0  0
    8.8443  -14.9551   18.0197 C   0  0  2  0  0  0  0  0  0  0  0  0
    7.9761  -15.5986   17.0850 N   0  0  0  0  0  0  0  0  0  0  0  0
    9.1140  -15.7539   19.2204 C   0  0  0  0  0  0  0  0  0  0  0  0
    8.1493  -16.2794   19.8295 O   0  0  0  0  0  0  0  0  0  0  0  0
   13.4024  -18.1973   19.1950 N   0  0  0  0  0  0  0  0  0  0  0  0
   12.3001  -18.3496   20.0595 C   0  0  0  0  0  0  0  0  0  0  0  0
   11.5732  -19.3535   19.9593 O   0  0  0  0  0  0  0  0  0  0  0  0
   12.0221  -17.3173   21.0720 C   0  0  0  0  0  0  0  0  0  0  0  0
   10.6686  -16.7025   20.9629 C   0  0  2  0  0  0  0  0  0  0  0  0
   10.4072  -15.9893   19.7663 N   0  0  0  0  0  0  0  0  0  0  0  0
   10.4199  -15.9093   22.2032 C   0  0  0  0  0  0  0  0  0  0  0  0
   11.0032  -14.7987   22.2934 O   0  0  0  0  0  0  0  0  0  0  0  0
    6.3474  -11.2718   28.2441 O   0  0  0  0  0  0  0  0  0  0  0  0
    6.7299  -12.1318   27.2103 C   0  0  0  0  0  0  0  0  0  0  0  0
    7.9413  -12.7918   27.2876 C   0  0  0  0  0  0  0  0  0  0  0  0
    8.3001  -13.6305   26.2658 C   0  0  0  0  0  0  0  0  0  0  0  0
    7.5262  -13.8682   25.1450 C   0  0  0  0  0  0  0  0  0  0  0  0
    7.9108  -14.7600   24.0406 C   0  0  0  0  0  0  0  0  0  0  0  0
    9.2205  -15.4091   24.3205 C   0  0  2  0  0  0  0  0  0  0  0  0
    9.5829  -16.3454   23.2420 N   0  0  0  0  0  0  0  0  0  0  0  0
    9.1996  -16.1836   25.5697 C   0  0  0  0  0  0  0  0  0  0  0  0
    9.0167  -15.6239   26.6777 O   0  0  0  0  0  0  0  0  0  0  0  0
    6.3111  -13.1811   25.1085 C   0  0  0  0  0  0  0  0  0  0  0  0
    5.9254  -12.3320   26.1221 C   0  0  0  0  0  0  0  0  0  0  0  0
    9.3850  -17.5795   25.5561 O   0  0  0  0  0  0  0  0  0  0  0  0
  2  1  1  1
  2  4  1  0
  3  2  1  0
  4  5  1  6
  4  6  1  0
  6  7  2  0
  9  8  1  0
 10  9  2  0
 12 11  1  6
 11  9  1  0
 13  6  1  0
 13 12  1  0
 14 12  1  0
 14 15  2  0
 16 17  1  0
 17 27  2  0
 17 18  1  0
 18 19  2  0
 19 20  1  0
 20 21  1  0
 22 21  1  6
 22 23  1  0
 23 14  1  0
 24 22  1  0
 25 24  2  0
 26 20  2  0
 27 26  1  0
 28 24  1  0
M  END
$$$$
