TNY.pdb
     RDKit          3D

 28 28  0  0  1  0  0  0  0  0999 V2000
    5.7046  -20.3757   21.0942 C   0  0  0  0  0  0  0  0  0  0  0  0
    6.6046  -19.1746   21.2917 C   0  0  1  0  0  0  0  0  0  0  0  0
    7.8106  -19.6528   21.8030 O   0  0  0  0  0  0  0  0  0  0  0  0
    6.8262  -18.4588   19.9789 C   0  0  2  0  0  0  0  0  0  0  0  0
    7.3018  -19.3958   19.0108 N   0  0  0  0  0  0  0  0  0  0  0  0
    7.6732  -17.2685   20.1132 C   0  0  0  0  0  0  0  0  0  0  0  0
    8.8837  -17.3445   19.7864 O   0  0  0  0  0  0  0  0  0  0  0  0
    8.8602  -11.8483   19.6587 N   0  0  0  0  0  0  0  0  0  0  0  0
    8.2696  -12.3885   20.8184 C   0  0  0  0  0  0  0  0  0  0  0  0
    8.5160  -11.8830   21.9274 O   0  0  0  0  0  0  0  0  0  0  0  0
    7.3670  -13.5461   20.7030 C   0  0  0  0  0  0  0  0  0  0  0  0
    8.0537  -14.8669   20.7771 C   0  0  2  0  0  0  0  0  0  0  0  0
    7.2287  -16.0048   20.5940 N   0  0  0  0  0  0  0  0  0  0  0  0
    8.8557  -14.9010   22.0362 C   0  0  0  0  0  0  0  0  0  0  0  0
    9.7692  -14.0443   22.1508 O   0  0  0  0  0  0  0  0  0  0  0  0
    5.4815  -11.1108   26.3350 O   0  0  0  0  0  0  0  0  0  0  0  0
    6.2248  -12.2774   26.1325 C   0  0  0  0  0  0  0  0  0  0  0  0
    7.5958  -12.1933   25.9831 C   0  0  0  0  0  0  0  0  0  0  0  0
    8.3081  -13.3464   25.7855 C   0  0  0  0  0  0  0  0  0  0  0  0
    7.7463  -14.6082   25.7234 C   0  0  0  0  0  0  0  0  0  0  0  0
    8.5051  -15.8483   25.5017 C   0  0  0  0  0  0  0  0  0  0  0  0
    9.3996  -15.7134   24.3200 C   0  0  2  0  0  0  0  0  0  0  0  0
    8.6334  -15.8277   23.0665 N   0  0  0  0  0  0  0  0  0  0  0  0
   10.4337  -16.7576   24.2854 C   0  0  0  0  0  0  0  0  0  0  0  0
   10.4996  -17.5750   23.3358 O   0  0  0  0  0  0  0  0  0  0  0  0
    6.3591  -14.6464   25.8795 C   0  0  0  0  0  0  0  0  0  0  0  0
    5.6184  -13.5026   26.0796 C   0  0  0  0  0  0  0  0  0  0  0  0
   11.3815  -16.8686   25.3210 O   0  0  0  0  0  0  0  0  0  0  0  0
  2  1  1  6
  2  4  1  0
  3  2  1  0
  4  5  1  6
  4  6  1  0
  6  7  2  0
  9  8  1  0
 10  9  2  0
 12 11  1  1
 11  9  1  0
 13  6  1  0
 13 12  1  0
 14 12  1  0
 14 15  2  0
 16 17  1  0
 17 27  2  0
 17 18  1  0
 18 19  2  0
 19 20  1  0
 20 21  1  0
 22 21  1  1
 22 23  1  0
 23 14  1  0
 24 22  1  0
 25 24  2  0
 26 20  2  0
 27 26  1  0
 28 24  1  0
M  END
$$$$
