TNY.pdb
     RDKit          3D

 28 28  0  0  1  0  0  0  0  0999 V2000
    7.4181  -12.8719   17.8722 C   0  0  0  0  0  0  0  0  0  0  0  0
    7.7880  -14.1658   18.5655 C   0  0  1  0  0  0  0  0  0  0  0  0
    9.0491  -14.5303   18.0952 O   0  0  0  0  0  0  0  0  0  0  0  0
    7.8106  -13.9742   20.0647 C   0  0  2  0  0  0  0  0  0  0  0  0
    8.7962  -12.9938   20.3952 N   0  0  0  0  0  0  0  0  0  0  0  0
    7.9634  -15.2348   20.7994 C   0  0  0  0  0  0  0  0  0  0  0  0
    7.2246  -16.2055   20.5001 O   0  0  0  0  0  0  0  0  0  0  0  0
    9.9035  -20.0126   21.1718 N   0  0  0  0  0  0  0  0  0  0  0  0
   10.5802  -18.8076   21.4468 C   0  0  0  0  0  0  0  0  0  0  0  0
   11.6820  -18.8377   22.0224 O   0  0  0  0  0  0  0  0  0  0  0  0
    9.9739  -17.5261   21.0490 C   0  0  0  0  0  0  0  0  0  0  0  0
    9.4606  -16.7127   22.1877 C   0  0  2  0  0  0  0  0  0  0  0  0
    8.9003  -15.4559   21.8478 N   0  0  0  0  0  0  0  0  0  0  0  0
   10.5359  -16.6329   23.2207 C   0  0  0  0  0  0  0  0  0  0  0  0
   11.7003  -16.3928   22.8107 O   0  0  0  0  0  0  0  0  0  0  0  0
    6.0439  -11.1018   27.7609 O   0  0  0  0  0  0  0  0  0  0  0  0
    6.6377  -12.1127   26.9993 C   0  0  0  0  0  0  0  0  0  0  0  0
    5.9719  -13.3101   26.8206 C   0  0  0  0  0  0  0  0  0  0  0  0
    6.5685  -14.2894   26.0715 C   0  0  0  0  0  0  0  0  0  0  0  0
    7.8082  -14.1650   25.4720 C   0  0  0  0  0  0  0  0  0  0  0  0
    8.4577  -15.2165   24.6749 C   0  0  0  0  0  0  0  0  0  0  0  0
    9.6734  -15.7252   25.3663 C   0  0  2  0  0  0  0  0  0  0  0  0
   10.3010  -16.8111   24.5928 N   0  0  0  0  0  0  0  0  0  0  0  0
    9.3674  -16.2701   26.6969 C   0  0  0  0  0  0  0  0  0  0  0  0
    9.0481  -15.5177   27.6489 O   0  0  0  0  0  0  0  0  0  0  0  0
    8.4449  -12.9394   25.6784 C   0  0  0  0  0  0  0  0  0  0  0  0
    7.8678  -11.9375   26.4269 C   0  0  0  0  0  0  0  0  0  0  0  0
    9.4246  -17.6561   26.9394 O   0  0  0  0  0  0  0  0  0  0  0  0
  2  1  1  6
  2  4  1  0
  3  2  1  0
  4  5  1  6
  4  6  1  0
  6  7  2  0
  9  8  1  0
 10  9  2  0
 12 11  1  6
 11  9  1  0
 13  6  1  0
 13 12  1  0
 14 12  1  0
 14 15  2  0
 16 17  1  0
 17 27  2  0
 17 18  1  0
 18 19  2  0
 19 20  1  0
 20 21  1  0
 22 21  1  6
 22 23  1  0
 23 14  1  0
 24 22  1  0
 25 24  2  0
 26 20  2  0
 27 26  1  0
 28 24  1  0
M  END
$$$$
