FRQ.pdb
     RDKit          3D

 32 32  0  0  1  0  0  0  0  0999 V2000
    6.7025  -16.2431   26.1695 N   0  0  0  0  0  0  0  0  0  0  0  0
    6.9161  -15.2799   25.1363 C   0  0  1  0  0  0  0  0  0  0  0  0
    7.7449  -14.1432   25.6911 C   0  0  0  0  0  0  0  0  0  0  0  0
    6.9223  -13.1843   26.4573 C   0  0  0  0  0  0  0  0  0  0  0  0
    5.8100  -12.6302   25.8782 C   0  0  0  0  0  0  0  0  0  0  0  0
    5.0320  -11.7282   26.5927 C   0  0  0  0  0  0  0  0  0  0  0  0
    5.3511  -11.3708   27.8817 C   0  0  0  0  0  0  0  0  0  0  0  0
    6.4616  -11.9204   28.4669 C   0  0  0  0  0  0  0  0  0  0  0  0
    7.2291  -12.8158   27.7502 C   0  0  0  0  0  0  0  0  0  0  0  0
    7.5256  -15.8628   23.9183 C   0  0  0  0  0  0  0  0  0  0  0  0
    7.9542  -17.0557   23.9127 O   0  0  0  0  0  0  0  0  0  0  0  0
    8.8332  -15.8040   17.2102 N   0  0  0  0  0  0  0  0  0  0  0  0
    8.2176  -14.5698   16.8657 C   0  0  0  0  0  0  0  0  0  0  0  0
    8.7051  -13.9322   15.8504 N   0  0  0  0  0  0  0  0  0  0  0  0
    7.1215  -14.0405   17.5832 N   0  0  0  0  0  0  0  0  0  0  0  0
    7.3435  -13.3322   18.8170 C   0  0  0  0  0  0  0  0  0  0  0  0
    7.1698  -14.2632   20.0212 C   0  0  0  0  0  0  0  0  0  0  0  0
    8.5537  -14.7476   20.4144 C   0  0  0  0  0  0  0  0  0  0  0  0
    8.5382  -15.6099   21.6363 C   0  0  2  0  0  0  0  0  0  0  0  0
    7.6874  -15.1831   22.6867 N   0  0  0  0  0  0  0  0  0  0  0  0
    9.9420  -15.8641   22.0202 C   0  0  0  0  0  0  0  0  0  0  0  0
   10.5241  -15.0960   22.8245 O   0  0  0  0  0  0  0  0  0  0  0  0
    8.3202  -13.0115   15.5850 N   0  0  0  0  0  0  0  0  0  0  0  0
   11.7860  -20.0430   24.7901 C   0  0  0  0  0  0  0  0  0  0  0  0
   13.0475  -20.1005   24.1679 O   0  0  0  0  0  0  0  0  0  0  0  0
   13.9619  -20.7726   24.6720 C   0  0  0  0  0  0  0  0  0  0  0  0
   13.2913  -19.3557   22.9030 C   0  0  0  0  0  0  0  0  0  0  0  0
   11.9810  -18.8344   22.3918 C   0  0  1  0  0  0  0  0  0  0  0  0
   11.9632  -17.3552   22.1943 N   0  0  0  0  0  0  0  0  0  0  0  0
   10.7038  -16.9528   21.5259 C   0  0  0  0  0  0  0  0  0  0  0  0
   13.0597  -16.8930   21.3366 O   0  0  0  0  0  0  0  0  0  0  0  0
   14.3368  -16.7238   21.8183 O   0  0  0  0  0  0  0  0  0  0  0  0
  2  1  1  1
  2 10  1  0
  3  2  1  0
  4  3  1  0
  4  5  2  0
  6  5  1  0
  7  6  2  0
  8  9  2  0
  8  7  1  0
  9  4  1  0
 10 20  1  0
 10 11  2  0
 13 12  1  0
 13 14  2  0
 15 13  1  0
 16 15  1  0
 16 17  1  0
 17 18  1  0
 19 18  1  6
 20 19  1  0
 21 19  1  0
 21 29  1  0
 22 21  2  0
 23 24  1  0
 24 25  2  0
 26 24  1  0
 26 27  1  0
 28 27  1  1
 28 29  1  0
 28 30  1  0
 30 31  1  0
 32 30  2  0
M  END
$$$$
