FRQ.pdb
     RDKit          3D

 32 32  0  0  1  0  0  0  0  0999 V2000
    6.0087  -16.1020   25.8107 N   0  0  0  0  0  0  0  0  0  0  0  0
    6.9266  -15.5834   24.8467 C   0  0  1  0  0  0  0  0  0  0  0  0
    7.7656  -14.5078   25.4994 C   0  0  0  0  0  0  0  0  0  0  0  0
    6.9595  -13.3232   25.8602 C   0  0  0  0  0  0  0  0  0  0  0  0
    6.6123  -13.1118   27.1696 C   0  0  0  0  0  0  0  0  0  0  0  0
    5.8548  -12.0002   27.5159 C   0  0  0  0  0  0  0  0  0  0  0  0
    5.4380  -11.0941   26.5692 C   0  0  0  0  0  0  0  0  0  0  0  0
    5.7811  -11.2991   25.2584 C   0  0  0  0  0  0  0  0  0  0  0  0
    6.5338  -12.4059   24.9228 C   0  0  0  0  0  0  0  0  0  0  0  0
    7.7651  -16.6331   24.2224 C   0  0  0  0  0  0  0  0  0  0  0  0
    8.2661  -17.5655   24.9198 O   0  0  0  0  0  0  0  0  0  0  0  0
    7.2772  -13.2036   19.2423 N   0  0  0  0  0  0  0  0  0  0  0  0
    8.2996  -13.4677   18.2906 C   0  0  0  0  0  0  0  0  0  0  0  0
    8.0334  -13.2027   17.0521 N   0  0  0  0  0  0  0  0  0  0  0  0
    9.5588  -13.9958   18.6541 N   0  0  0  0  0  0  0  0  0  0  0  0
    9.6723  -15.3739   19.0558 C   0  0  0  0  0  0  0  0  0  0  0  0
    9.3995  -15.5310   20.5550 C   0  0  0  0  0  0  0  0  0  0  0  0
    9.5587  -17.0039   20.8860 C   0  0  0  0  0  0  0  0  0  0  0  0
    9.2507  -17.3109   22.3170 C   0  0  2  0  0  0  0  0  0  0  0  0
    8.0824  -16.7057   22.8443 N   0  0  0  0  0  0  0  0  0  0  0  0
   10.4865  -17.0904   23.0960 C   0  0  0  0  0  0  0  0  0  0  0  0
   10.9394  -15.9290   23.2434 O   0  0  0  0  0  0  0  0  0  0  0  0
    8.7364  -13.3932   16.3201 N   0  0  0  0  0  0  0  0  0  0  0  0
   12.9971  -19.3935   29.4649 C   0  0  0  0  0  0  0  0  0  0  0  0
   12.1726  -19.0003   28.3938 O   0  0  0  0  0  0  0  0  0  0  0  0
   10.9384  -19.1015   28.4864 C   0  0  0  0  0  0  0  0  0  0  0  0
   12.7763  -18.4616   27.1449 C   0  0  0  0  0  0  0  0  0  0  0  0
   11.7374  -18.4772   26.0631 C   0  0  1  0  0  0  0  0  0  0  0  0
   12.1898  -17.8404   24.7916 N   0  0  0  0  0  0  0  0  0  0  0  0
   11.2219  -18.1356   23.7096 C   0  0  0  0  0  0  0  0  0  0  0  0
   13.4896  -18.3510   24.3428 O   0  0  0  0  0  0  0  0  0  0  0  0
   13.5921  -19.3943   23.4524 O   0  0  0  0  0  0  0  0  0  0  0  0
  2  1  1  1
  2 10  1  0
  3  2  1  0
  4  3  1  0
  4  5  2  0
  6  5  1  0
  7  6  2  0
  8  9  2  0
  8  7  1  0
  9  4  1  0
 10 20  1  0
 10 11  2  0
 13 12  1  0
 13 14  2  0
 15 13  1  0
 16 15  1  0
 16 17  1  0
 17 18  1  0
 19 18  1  6
 20 19  1  0
 21 19  1  0
 21 29  1  0
 22 21  2  0
 23 24  1  0
 24 25  2  0
 26 24  1  0
 26 27  1  0
 28 27  1  1
 28 29  1  0
 28 30  1  0
 30 31  1  0
 32 30  2  0
M  END
$$$$
