FRQ.pdb
     RDKit          3D

 32 32  0  0  1  0  0  0  0  0999 V2000
    5.8914  -17.4475   25.2788 N   0  0  0  0  0  0  0  0  0  0  0  0
    6.4386  -16.1507   25.0347 C   0  0  1  0  0  0  0  0  0  0  0  0
    7.1258  -15.6653   26.2912 C   0  0  0  0  0  0  0  0  0  0  0  0
    7.0060  -14.2017   26.4546 C   0  0  0  0  0  0  0  0  0  0  0  0
    8.1381  -13.4360   26.5630 C   0  0  0  0  0  0  0  0  0  0  0  0
    8.0328  -12.0595   26.7165 C   0  0  0  0  0  0  0  0  0  0  0  0
    6.8083  -11.4354   26.7635 C   0  0  0  0  0  0  0  0  0  0  0  0
    5.6724  -12.1944   26.6560 C   0  0  0  0  0  0  0  0  0  0  0  0
    5.7857  -13.5613   26.5037 C   0  0  0  0  0  0  0  0  0  0  0  0
    7.3441  -16.1155   23.8627 C   0  0  0  0  0  0  0  0  0  0  0  0
    7.8214  -17.1848   23.3774 O   0  0  0  0  0  0  0  0  0  0  0  0
    9.2865  -15.5883   17.0544 N   0  0  0  0  0  0  0  0  0  0  0  0
    8.6305  -14.4430   16.5264 C   0  0  0  0  0  0  0  0  0  0  0  0
    8.8543  -14.1570   15.2842 N   0  0  0  0  0  0  0  0  0  0  0  0
    7.7677  -13.6360   17.3016 N   0  0  0  0  0  0  0  0  0  0  0  0
    7.3700  -14.0652   18.6172 C   0  0  0  0  0  0  0  0  0  0  0  0
    8.4599  -13.7527   19.6474 C   0  0  0  0  0  0  0  0  0  0  0  0
    7.8001  -13.7686   21.0144 C   0  0  0  0  0  0  0  0  0  0  0  0
    8.2669  -14.9047   21.8679 C   0  0  2  0  0  0  0  0  0  0  0  0
    7.7550  -14.9396   23.1893 N   0  0  0  0  0  0  0  0  0  0  0  0
    9.7384  -14.9715   21.7553 C   0  0  0  0  0  0  0  0  0  0  0  0
   10.2805  -15.0583   20.6265 O   0  0  0  0  0  0  0  0  0  0  0  0
    8.4235  -13.3194   14.8609 N   0  0  0  0  0  0  0  0  0  0  0  0
   12.1026  -18.0784   25.6532 C   0  0  0  0  0  0  0  0  0  0  0  0
   12.6586  -18.7131   24.5263 O   0  0  0  0  0  0  0  0  0  0  0  0
   13.5664  -19.5490   24.6653 C   0  0  0  0  0  0  0  0  0  0  0  0
   12.1611  -18.3851   23.1628 C   0  0  0  0  0  0  0  0  0  0  0  0
   11.1501  -17.2824   23.2723 C   0  0  1  0  0  0  0  0  0  0  0  0
   11.7112  -15.9281   22.9929 N   0  0  0  0  0  0  0  0  0  0  0  0
   10.6109  -14.9434   22.8723 C   0  0  0  0  0  0  0  0  0  0  0  0
   12.4561  -15.8818   21.7301 O   0  0  0  0  0  0  0  0  0  0  0  0
   11.8533  -15.5354   20.5434 O   0  0  0  0  0  0  0  0  0  0  0  0
  2  1  1  1
  2 10  1  0
  3  2  1  0
  4  3  1  0
  4  5  2  0
  6  5  1  0
  7  6  2  0
  8  9  2  0
  8  7  1  0
  9  4  1  0
 10 20  1  0
 10 11  2  0
 13 12  1  0
 13 14  2  0
 15 13  1  0
 16 15  1  0
 16 17  1  0
 17 18  1  0
 19 18  1  1
 20 19  1  0
 21 19  1  0
 21 29  1  0
 22 21  2  0
 23 24  1  0
 24 25  2  0
 26 24  1  0
 26 27  1  0
 28 27  1  1
 28 29  1  0
 28 30  1  0
 30 31  1  0
 32 30  2  0
M  END
$$$$
