FRQ.pdb
     RDKit          3D

 32 32  0  0  1  0  0  0  0  0999 V2000
    5.9663  -17.5230   26.3176 N   0  0  0  0  0  0  0  0  0  0  0  0
    6.4358  -16.2859   25.7791 C   0  0  1  0  0  0  0  0  0  0  0  0
    7.3298  -15.6165   26.7987 C   0  0  0  0  0  0  0  0  0  0  0  0
    7.3492  -14.1482   26.6350 C   0  0  0  0  0  0  0  0  0  0  0  0
    6.1801  -13.4388   26.7337 C   0  0  0  0  0  0  0  0  0  0  0  0
    6.1910  -12.0583   26.5812 C   0  0  0  0  0  0  0  0  0  0  0  0
    7.3575  -11.3744   26.3304 C   0  0  0  0  0  0  0  0  0  0  0  0
    8.5298  -12.0768   26.2302 C   0  0  0  0  0  0  0  0  0  0  0  0
    8.5102  -13.4482   26.3832 C   0  0  0  0  0  0  0  0  0  0  0  0
    7.1137  -16.4438   24.4713 C   0  0  0  0  0  0  0  0  0  0  0  0
    7.6428  -17.5477   24.1423 O   0  0  0  0  0  0  0  0  0  0  0  0
    9.9303  -14.7687   17.1796 N   0  0  0  0  0  0  0  0  0  0  0  0
    9.9771  -13.6125   18.0053 C   0  0  0  0  0  0  0  0  0  0  0  0
   11.1469  -13.1290   18.2753 N   0  0  0  0  0  0  0  0  0  0  0  0
    8.8135  -12.9989   18.5211 N   0  0  0  0  0  0  0  0  0  0  0  0
    7.6698  -13.8021   18.8678 C   0  0  0  0  0  0  0  0  0  0  0  0
    8.0655  -14.9351   19.8199 C   0  0  0  0  0  0  0  0  0  0  0  0
    7.5174  -14.5790   21.1900 C   0  0  0  0  0  0  0  0  0  0  0  0
    7.8633  -15.5943   22.2323 C   0  0  2  0  0  0  0  0  0  0  0  0
    7.2378  -15.4274   23.4933 N   0  0  0  0  0  0  0  0  0  0  0  0
    9.3353  -15.7157   22.2651 C   0  0  0  0  0  0  0  0  0  0  0  0
   10.0395  -14.7431   22.6309 O   0  0  0  0  0  0  0  0  0  0  0  0
   11.2373  -12.3162   18.9057 N   0  0  0  0  0  0  0  0  0  0  0  0
   13.1873  -16.0368   18.5916 C   0  0  0  0  0  0  0  0  0  0  0  0
   14.0373  -15.7336   19.6720 O   0  0  0  0  0  0  0  0  0  0  0  0
   15.2573  -15.5950   19.4865 C   0  0  0  0  0  0  0  0  0  0  0  0
   13.4777  -15.5779   21.0420 C   0  0  0  0  0  0  0  0  0  0  0  0
   11.9934  -15.7854   20.9815 C   0  0  1  0  0  0  0  0  0  0  0  0
   11.5120  -16.9073   21.8399 N   0  0  0  0  0  0  0  0  0  0  0  0
   10.0318  -16.8950   21.8993 C   0  0  0  0  0  0  0  0  0  0  0  0
   11.9884  -16.7967   23.2228 O   0  0  0  0  0  0  0  0  0  0  0  0
   12.8096  -15.7706   23.6283 O   0  0  0  0  0  0  0  0  0  0  0  0
  2  1  1  1
  2 10  1  0
  3  2  1  0
  4  3  1  0
  4  5  2  0
  6  5  1  0
  7  6  2  0
  8  9  2  0
  8  7  1  0
  9  4  1  0
 10 20  1  0
 10 11  2  0
 13 12  1  0
 13 14  2  0
 15 13  1  0
 16 15  1  0
 16 17  1  0
 17 18  1  0
 19 18  1  6
 20 19  1  0
 21 19  1  0
 21 29  1  0
 22 21  2  0
 23 24  1  0
 24 25  2  0
 26 24  1  0
 26 27  1  0
 28 27  1  6
 28 29  1  0
 28 30  1  0
 30 31  1  0
 32 30  2  0
M  END
$$$$
