FRQ.pdb
     RDKit          3D

 32 32  0  0  1  0  0  0  0  0999 V2000
    8.7713  -13.3196   24.0519 N   0  0  0  0  0  0  0  0  0  0  0  0
    8.5691  -14.5166   24.8050 C   0  0  1  0  0  0  0  0  0  0  0  0
    7.1312  -14.5644   25.2707 C   0  0  0  0  0  0  0  0  0  0  0  0
    6.6829  -13.2636   25.8094 C   0  0  0  0  0  0  0  0  0  0  0  0
    5.7923  -12.5041   25.0956 C   0  0  0  0  0  0  0  0  0  0  0  0
    5.3664  -11.2804   25.5961 C   0  0  0  0  0  0  0  0  0  0  0  0
    5.8196  -10.8034   26.8037 C   0  0  0  0  0  0  0  0  0  0  0  0
    6.7101  -11.5571   27.5226 C   0  0  0  0  0  0  0  0  0  0  0  0
    7.1281  -12.7717   27.0183 C   0  0  0  0  0  0  0  0  0  0  0  0
    8.9481  -15.7401   24.0605 C   0  0  0  0  0  0  0  0  0  0  0  0
    8.8465  -16.8846   24.5957 O   0  0  0  0  0  0  0  0  0  0  0  0
    8.7118  -20.1933   18.5709 N   0  0  0  0  0  0  0  0  0  0  0  0
    9.9440  -20.2595   17.8650 C   0  0  0  0  0  0  0  0  0  0  0  0
   10.2489  -21.3923   17.3183 N   0  0  0  0  0  0  0  0  0  0  0  0
   10.8150  -19.1528   17.7504 N   0  0  0  0  0  0  0  0  0  0  0  0
   10.5156  -17.9267   18.4434 C   0  0  0  0  0  0  0  0  0  0  0  0
   10.4322  -18.1590   19.9553 C   0  0  0  0  0  0  0  0  0  0  0  0
   10.0126  -16.8439   20.5867 C   0  0  0  0  0  0  0  0  0  0  0  0
    9.9412  -16.9165   22.0789 C   0  0  2  0  0  0  0  0  0  0  0  0
    9.4412  -15.7628   22.7333 N   0  0  0  0  0  0  0  0  0  0  0  0
   11.2482  -17.4051   22.5643 C   0  0  0  0  0  0  0  0  0  0  0  0
   12.2639  -16.6718   22.4850 O   0  0  0  0  0  0  0  0  0  0  0  0
   11.1449  -21.4994   16.8164 N   0  0  0  0  0  0  0  0  0  0  0  0
   10.7153  -19.9121   27.7981 C   0  0  0  0  0  0  0  0  0  0  0  0
   12.1043  -20.1271   27.7191 O   0  0  0  0  0  0  0  0  0  0  0  0
   12.7201  -20.5928   28.6917 C   0  0  0  0  0  0  0  0  0  0  0  0
   12.8415  -19.7969   26.4694 C   0  0  0  0  0  0  0  0  0  0  0  0
   11.8623  -19.2868   25.4541 C   0  0  1  0  0  0  0  0  0  0  0  0
   12.4916  -18.9098   24.1545 N   0  0  0  0  0  0  0  0  0  0  0  0
   11.4416  -18.6893   23.1330 C   0  0  0  0  0  0  0  0  0  0  0  0
   13.3699  -19.9626   23.6330 O   0  0  0  0  0  0  0  0  0  0  0  0
   12.8773  -21.0383   22.9316 O   0  0  0  0  0  0  0  0  0  0  0  0
  2  1  1  6
  2 10  1  0
  3  2  1  0
  4  3  1  0
  4  5  2  0
  6  5  1  0
  7  6  2  0
  8  9  2  0
  8  7  1  0
  9  4  1  0
 10 20  1  0
 10 11  2  0
 13 12  1  0
 13 14  2  0
 15 13  1  0
 16 15  1  0
 16 17  1  0
 17 18  1  0
 19 18  1  6
 20 19  1  0
 21 19  1  0
 21 29  1  0
 22 21  2  0
 23 24  1  0
 24 25  2  0
 26 24  1  0
 26 27  1  0
 28 27  1  1
 28 29  1  0
 28 30  1  0
 30 31  1  0
 32 30  2  0
M  END
$$$$
