FRQ.pdb
     RDKit          3D

 32 32  0  0  1  0  0  0  0  0999 V2000
    7.0574  -16.2120   26.5291 N   0  0  0  0  0  0  0  0  0  0  0  0
    7.4044  -15.7977   25.2067 C   0  0  1  0  0  0  0  0  0  0  0  0
    8.2802  -14.5680   25.2934 C   0  0  0  0  0  0  0  0  0  0  0  0
    7.6425  -13.4915   26.0794 C   0  0  0  0  0  0  0  0  0  0  0  0
    6.2802  -13.3417   26.0447 C   0  0  0  0  0  0  0  0  0  0  0  0
    5.6741  -12.3321   26.7814 C   0  0  0  0  0  0  0  0  0  0  0  0
    6.4125  -11.4672   27.5545 C   0  0  0  0  0  0  0  0  0  0  0  0
    7.7748  -11.6108   27.5938 C   0  0  0  0  0  0  0  0  0  0  0  0
    8.3691  -12.6165   26.8591 C   0  0  0  0  0  0  0  0  0  0  0  0
    8.0415  -16.8730   24.4114 C   0  0  0  0  0  0  0  0  0  0  0  0
    9.1603  -17.3600   24.7549 O   0  0  0  0  0  0  0  0  0  0  0  0
    9.4182  -13.5071   17.8899 N   0  0  0  0  0  0  0  0  0  0  0  0
    8.8169  -12.8382   18.9909 C   0  0  0  0  0  0  0  0  0  0  0  0
    9.3730  -11.7385   19.3864 N   0  0  0  0  0  0  0  0  0  0  0  0
    7.6636  -13.3306   19.6420 N   0  0  0  0  0  0  0  0  0  0  0  0
    7.0994  -14.5954   19.2479 C   0  0  0  0  0  0  0  0  0  0  0  0
    7.8905  -15.7595   19.8527 C   0  0  0  0  0  0  0  0  0  0  0  0
    7.3790  -15.9595   21.2679 C   0  0  0  0  0  0  0  0  0  0  0  0
    7.9508  -17.1768   21.9222 C   0  0  2  0  0  0  0  0  0  0  0  0
    7.4959  -17.4464   23.2373 N   0  0  0  0  0  0  0  0  0  0  0  0
    9.4179  -17.1244   21.7563 C   0  0  0  0  0  0  0  0  0  0  0  0
    9.9275  -17.2443   20.6155 O   0  0  0  0  0  0  0  0  0  0  0  0
    8.9599  -11.2016   20.1657 N   0  0  0  0  0  0  0  0  0  0  0  0
   13.4866  -13.9569   20.2351 C   0  0  0  0  0  0  0  0  0  0  0  0
   13.1908  -15.1620   19.5704 O   0  0  0  0  0  0  0  0  0  0  0  0
   13.5970  -15.3521   18.4125 C   0  0  0  0  0  0  0  0  0  0  0  0
   12.3894  -16.2141   20.2525 C   0  0  0  0  0  0  0  0  0  0  0  0
   12.0871  -15.7584   21.6492 C   0  0  2  0  0  0  0  0  0  0  0  0
   11.7810  -16.8766   22.5889 N   0  0  0  0  0  0  0  0  0  0  0  0
   10.3213  -16.9420   22.8335 C   0  0  0  0  0  0  0  0  0  0  0  0
   12.4182  -16.6965   23.8978 O   0  0  0  0  0  0  0  0  0  0  0  0
   13.7857  -16.6891   24.0451 O   0  0  0  0  0  0  0  0  0  0  0  0
  2  1  1  1
  2 10  1  0
  3  2  1  0
  4  3  1  0
  4  5  2  0
  6  5  1  0
  7  6  2  0
  8  9  2  0
  8  7  1  0
  9  4  1  0
 10 20  1  0
 10 11  2  0
 13 12  1  0
 13 14  2  0
 15 13  1  0
 16 15  1  0
 16 17  1  0
 17 18  1  0
 19 18  1  1
 20 19  1  0
 21 19  1  0
 21 29  1  0
 22 21  2  0
 23 24  1  0
 24 25  2  0
 26 24  1  0
 26 27  1  0
 28 27  1  6
 28 29  1  0
 28 30  1  0
 30 31  1  0
 32 30  2  0
M  END
$$$$
