FRQ.pdb
     RDKit          3D

 32 32  0  0  1  0  0  0  0  0999 V2000
    6.4000  -16.7793   26.1037 N   0  0  0  0  0  0  0  0  0  0  0  0
    6.7497  -15.7015   25.2337 C   0  0  1  0  0  0  0  0  0  0  0  0
    7.6849  -14.7655   25.9660 C   0  0  0  0  0  0  0  0  0  0  0  0
    6.9972  -13.5354   26.4099 C   0  0  0  0  0  0  0  0  0  0  0  0
    5.9727  -13.0215   25.6576 C   0  0  0  0  0  0  0  0  0  0  0  0
    5.3217  -11.8656   26.0690 C   0  0  0  0  0  0  0  0  0  0  0  0
    5.6813  -11.2138   27.2253 C   0  0  0  0  0  0  0  0  0  0  0  0
    6.7046  -11.7215   27.9822 C   0  0  0  0  0  0  0  0  0  0  0  0
    7.3461  -12.8704   27.5664 C   0  0  0  0  0  0  0  0  0  0  0  0
    7.3241  -16.1590   23.9470 C   0  0  0  0  0  0  0  0  0  0  0  0
    7.9915  -17.2345   23.8786 O   0  0  0  0  0  0  0  0  0  0  0  0
    8.0048  -14.8088   14.9605 N   0  0  0  0  0  0  0  0  0  0  0  0
    8.0469  -14.0292   16.1485 C   0  0  0  0  0  0  0  0  0  0  0  0
    8.6846  -12.9045   16.0921 N   0  0  0  0  0  0  0  0  0  0  0  0
    7.4285  -14.4410   17.3504 N   0  0  0  0  0  0  0  0  0  0  0  0
    8.0036  -15.5087   18.1265 C   0  0  0  0  0  0  0  0  0  0  0  0
    8.8064  -14.9553   19.3081 C   0  0  0  0  0  0  0  0  0  0  0  0
    7.8272  -14.7265   20.4452 C   0  0  0  0  0  0  0  0  0  0  0  0
    8.0835  -15.6202   21.6168 C   0  0  2  0  0  0  0  0  0  0  0  0
    7.1958  -15.4772   22.7126 N   0  0  0  0  0  0  0  0  0  0  0  0
    9.5201  -15.5214   21.9468 C   0  0  0  0  0  0  0  0  0  0  0  0
    9.9928  -14.4451   22.3870 O   0  0  0  0  0  0  0  0  0  0  0  0
    8.7189  -12.2876   16.9195 N   0  0  0  0  0  0  0  0  0  0  0  0
   12.8129  -18.1444   25.8660 C   0  0  0  0  0  0  0  0  0  0  0  0
   12.1116  -18.9739   24.9706 O   0  0  0  0  0  0  0  0  0  0  0  0
   11.7626  -20.1137   25.3186 C   0  0  0  0  0  0  0  0  0  0  0  0
   11.7853  -18.4888   23.6022 C   0  0  0  0  0  0  0  0  0  0  0  0
   12.0890  -17.0218   23.5271 C   0  0  1  0  0  0  0  0  0  0  0  0
   11.8561  -16.4323   22.1760 N   0  0  0  0  0  0  0  0  0  0  0  0
   10.4336  -16.5949   21.7953 C   0  0  0  0  0  0  0  0  0  0  0  0
   12.6478  -17.0944   21.1337 O   0  0  0  0  0  0  0  0  0  0  0  0
   12.0589  -17.8255   20.1285 O   0  0  0  0  0  0  0  0  0  0  0  0
  2  1  1  1
  2 10  1  0
  3  2  1  0
  4  3  1  0
  4  5  2  0
  6  5  1  0
  7  6  2  0
  8  9  2  0
  8  7  1  0
  9  4  1  0
 10 20  1  0
 10 11  2  0
 13 12  1  0
 13 14  2  0
 15 13  1  0
 16 15  1  0
 16 17  1  0
 17 18  1  0
 19 18  1  6
 20 19  1  0
 21 19  1  0
 21 29  1  0
 22 21  2  0
 23 24  1  0
 24 25  2  0
 26 24  1  0
 26 27  1  0
 28 27  1  1
 28 29  1  0
 28 30  1  0
 30 31  1  0
 32 30  2  0
M  END
$$$$
