FVK.pdb
     RDKit          3D

 28 28  0  0  1  0  0  0  0  0999 V2000
   18.2041  -25.7216  -14.4918 N   0  0  0  0  0  0  0  0  0  0  0  0
   17.9931  -25.5657  -13.0857 C   0  0  1  0  0  0  0  0  0  0  0  0
   16.6597  -24.8694  -12.8907 C   0  0  0  0  0  0  0  0  0  0  0  0
   16.7550  -23.5619  -13.5953 C   0  0  0  0  0  0  0  0  0  0  0  0
   17.5059  -22.5389  -13.0520 C   0  0  0  0  0  0  0  0  0  0  0  0
   17.6165  -21.3061  -13.6829 C   0  0  0  0  0  0  0  0  0  0  0  0
   16.9675  -21.0973  -14.8705 C   0  0  0  0  0  0  0  0  0  0  0  0
   16.2194  -22.1205  -15.4090 C   0  0  0  0  0  0  0  0  0  0  0  0
   16.0973  -23.3505  -14.7987 C   0  0  0  0  0  0  0  0  0  0  0  0
   18.0209  -26.8807  -12.3660 C   0  0  0  0  0  0  0  0  0  0  0  0
   17.1513  -27.7354  -12.6449 O   0  0  0  0  0  0  0  0  0  0  0  0
   21.4493  -27.9369  -10.1320 C   0  0  0  0  0  0  0  0  0  0  0  0
   20.5653  -28.9196  -10.9267 C   0  0  2  0  0  0  0  0  0  0  0  0
   21.0953  -28.9250  -12.3186 C   0  0  0  0  0  0  0  0  0  0  0  0
   19.1312  -28.4696  -10.7842 C   0  0  2  0  0  0  0  0  0  0  0  0
   19.0113  -27.1430  -11.3939 N   0  0  0  0  0  0  0  0  0  0  0  0
   18.6323  -28.3924   -9.4136 C   0  0  0  0  0  0  0  0  0  0  0  0
   18.5209  -29.4653   -8.7346 O   0  0  0  0  0  0  0  0  0  0  0  0
   18.2411  -27.2184   -8.7154 N   0  0  0  0  0  0  0  0  0  0  0  0
   17.7353  -27.1796   -7.3883 C   0  0  1  0  0  0  0  0  0  0  0  0
   16.9571  -25.9785   -6.9994 C   0  0  0  0  0  0  0  0  0  0  0  0
   16.5372  -25.9946   -5.5476 C   0  0  0  0  0  0  0  0  0  0  0  0
   15.6724  -24.8261   -5.2036 C   0  0  0  0  0  0  0  0  0  0  0  0
   15.1717  -24.8521   -3.7775 C   0  0  0  0  0  0  0  0  0  0  0  0
   14.1495  -23.8677   -3.5630 N   0  0  0  0  0  0  0  0  0  0  0  0
   17.0077  -28.4173   -6.9639 C   0  0  0  0  0  0  0  0  0  0  0  0
   17.4800  -29.1141   -5.8788 O   0  0  0  0  0  0  0  0  0  0  0  0
   16.0046  -28.8020   -7.5733 O   0  0  0  0  0  0  0  0  0  0  0  0
  2 10  1  0
  2  1  1  6
  3  2  1  0
  4  3  1  0
  4  9  2  0
  5  4  1  0
  6  5  2  0
  6  7  1  0
  7  8  2  0
  8  9  1  0
 10 11  2  0
 13 12  1  1
 14 13  1  0
 15 13  1  0
 15 16  1  1
 16 10  1  0
 17 18  2  0
 17 15  1  0
 19 17  1  0
 20 21  1  6
 20 19  1  0
 21 22  1  0
 23 22  1  0
 23 24  1  0
 24 25  1  0
 26 27  1  0
 26 20  1  0
 28 26  2  0
M  END
$$$$
