FVK.pdb
     RDKit          3D

 28 28  0  0  1  0  0  0  0  0999 V2000
   16.5517  -16.3850    4.3568 N   0  0  0  0  0  0  0  0  0  0  0  0
   16.5316  -15.1744    5.1186 C   0  0  1  0  0  0  0  0  0  0  0  0
   15.5429  -15.3572    6.2544 C   0  0  0  0  0  0  0  0  0  0  0  0
   14.1892  -15.4005    5.6377 C   0  0  0  0  0  0  0  0  0  0  0  0
   13.5944  -14.2352    5.1972 C   0  0  0  0  0  0  0  0  0  0  0  0
   12.3321  -14.2394    4.6169 C   0  0  0  0  0  0  0  0  0  0  0  0
   11.6597  -15.4241    4.4771 C   0  0  0  0  0  0  0  0  0  0  0  0
   12.2566  -16.5843    4.9179 C   0  0  0  0  0  0  0  0  0  0  0  0
   13.5079  -16.6010    5.4961 C   0  0  0  0  0  0  0  0  0  0  0  0
   17.8907  -14.8204    5.6434 C   0  0  0  0  0  0  0  0  0  0  0  0
   18.7208  -15.7381    5.8261 O   0  0  0  0  0  0  0  0  0  0  0  0
   21.2362  -11.3127    6.5054 C   0  0  0  0  0  0  0  0  0  0  0  0
   19.8444  -11.7007    5.9659 C   0  0  2  0  0  0  0  0  0  0  0  0
   18.8971  -10.6717    6.4780 C   0  0  0  0  0  0  0  0  0  0  0  0
   19.5575  -13.1167    6.4041 C   0  0  2  0  0  0  0  0  0  0  0  0
   18.2211  -13.4762    5.9240 N   0  0  0  0  0  0  0  0  0  0  0  0
   19.6057  -13.3481    7.8455 C   0  0  0  0  0  0  0  0  0  0  0  0
   18.5731  -13.0932    8.5478 O   0  0  0  0  0  0  0  0  0  0  0  0
   20.7087  -13.8446    8.5911 N   0  0  0  0  0  0  0  0  0  0  0  0
   20.7531  -13.9796   10.0047 C   0  0  1  0  0  0  0  0  0  0  0  0
   21.5844  -15.0801   10.5499 C   0  0  0  0  0  0  0  0  0  0  0  0
   21.3997  -15.2753   12.0372 C   0  0  0  0  0  0  0  0  0  0  0  0
   21.7178  -16.6720   12.4608 C   0  0  0  0  0  0  0  0  0  0  0  0
   21.4193  -16.9373   13.9187 C   0  0  0  0  0  0  0  0  0  0  0  0
   21.7034  -18.2990   14.2724 N   0  0  0  0  0  0  0  0  0  0  0  0
   21.0428  -12.7092   10.7418 C   0  0  0  0  0  0  0  0  0  0  0  0
   20.2126  -12.3483   11.7746 O   0  0  0  0  0  0  0  0  0  0  0  0
   22.0070  -12.0028   10.4306 O   0  0  0  0  0  0  0  0  0  0  0  0
  2 10  1  0
  2  1  1  1
  3  2  1  0
  4  3  1  0
  4  9  2  0
  5  4  1  0
  6  5  2  0
  6  7  1  0
  7  8  2  0
  8  9  1  0
 10 11  2  0
 13 12  1  1
 14 13  1  0
 15 13  1  0
 15 16  1  1
 16 10  1  0
 17 18  2  0
 17 15  1  0
 19 17  1  0
 20 21  1  6
 20 19  1  0
 21 22  1  0
 23 22  1  0
 23 24  1  0
 24 25  1  0
 26 27  1  0
 26 20  1  0
 28 26  2  0
M  END
$$$$
