FVK.pdb
     RDKit          3D

 28 28  0  0  1  0  0  0  0  0999 V2000
   28.9857  -36.3299   -6.1863 N   0  0  0  0  0  0  0  0  0  0  0  0
   27.9711  -36.4616   -5.1866 C   0  0  1  0  0  0  0  0  0  0  0  0
   28.1853  -37.7864   -4.4795 C   0  0  0  0  0  0  0  0  0  0  0  0
   27.8686  -38.8528   -5.4681 C   0  0  0  0  0  0  0  0  0  0  0  0
   26.5537  -39.1434   -5.7717 C   0  0  0  0  0  0  0  0  0  0  0  0
   26.2225  -40.1323   -6.6896 C   0  0  0  0  0  0  0  0  0  0  0  0
   27.2200  -40.8368   -7.3091 C   0  0  0  0  0  0  0  0  0  0  0  0
   28.5305  -40.5438   -7.0033 C   0  0  0  0  0  0  0  0  0  0  0  0
   28.8795  -39.5666   -6.0958 C   0  0  0  0  0  0  0  0  0  0  0  0
   27.9954  -35.3236   -4.2108 C   0  0  0  0  0  0  0  0  0  0  0  0
   29.0908  -34.7774   -3.9537 O   0  0  0  0  0  0  0  0  0  0  0  0
   24.3880  -33.5516   -3.0104 C   0  0  0  0  0  0  0  0  0  0  0  0
   25.7339  -32.7991   -3.0410 C   0  0  2  0  0  0  0  0  0  0  0  0
   25.8630  -32.2316   -4.4120 C   0  0  0  0  0  0  0  0  0  0  0  0
   26.8165  -33.7725   -2.6412 C   0  0  2  0  0  0  0  0  0  0  0  0
   26.8022  -34.8820   -3.5976 N   0  0  0  0  0  0  0  0  0  0  0  0
   26.6958  -34.3248   -1.2945 C   0  0  0  0  0  0  0  0  0  0  0  0
   25.9969  -35.3759   -1.1173 O   0  0  0  0  0  0  0  0  0  0  0  0
   27.2881  -33.8131   -0.1086 N   0  0  0  0  0  0  0  0  0  0  0  0
   27.1112  -34.3460    1.1964 C   0  0  1  0  0  0  0  0  0  0  0  0
   28.0659  -33.9008    2.2403 C   0  0  0  0  0  0  0  0  0  0  0  0
   27.8571  -34.5991    3.5644 C   0  0  0  0  0  0  0  0  0  0  0  0
   28.7377  -34.0416    4.6346 C   0  0  0  0  0  0  0  0  0  0  0  0
   28.6304  -34.7864    5.9456 C   0  0  0  0  0  0  0  0  0  0  0  0
   29.5606  -34.2794    6.9140 N   0  0  0  0  0  0  0  0  0  0  0  0
   25.7104  -34.2616    1.7178 C   0  0  0  0  0  0  0  0  0  0  0  0
   24.8724  -33.3099    1.1906 O   0  0  0  0  0  0  0  0  0  0  0  0
   25.3160  -35.0312    2.5998 O   0  0  0  0  0  0  0  0  0  0  0  0
  2 10  1  0
  2  1  1  6
  3  2  1  0
  4  3  1  0
  4  9  2  0
  5  4  1  0
  6  5  2  0
  6  7  1  0
  7  8  2  0
  8  9  1  0
 10 11  2  0
 13 12  1  6
 14 13  1  0
 15 13  1  0
 15 16  1  6
 16 10  1  0
 17 18  2  0
 17 15  1  0
 19 17  1  0
 20 21  1  1
 20 19  1  0
 21 22  1  0
 23 22  1  0
 23 24  1  0
 24 25  1  0
 26 27  1  0
 26 20  1  0
 28 26  2  0
M  END
$$$$
