FVK.pdb
     RDKit          3D

 28 28  0  0  1  0  0  0  0  0999 V2000
   27.8457  -18.9835  -16.4445 N   0  0  0  0  0  0  0  0  0  0  0  0
   27.0497  -18.5556  -15.3357 C   0  0  1  0  0  0  0  0  0  0  0  0
   26.0003  -17.5946  -15.8612 C   0  0  0  0  0  0  0  0  0  0  0  0
   26.7085  -16.3262  -16.1848 C   0  0  0  0  0  0  0  0  0  0  0  0
   26.9855  -15.4163  -15.1843 C   0  0  0  0  0  0  0  0  0  0  0  0
   27.6448  -14.2229  -15.4512 C   0  0  0  0  0  0  0  0  0  0  0  0
   28.0301  -13.9393  -16.7343 C   0  0  0  0  0  0  0  0  0  0  0  0
   27.7518  -14.8498  -17.7294 C   0  0  0  0  0  0  0  0  0  0  0  0
   27.0988  -16.0390  -17.4850 C   0  0  0  0  0  0  0  0  0  0  0  0
   26.4101  -19.7114  -14.6264 C   0  0  0  0  0  0  0  0  0  0  0  0
   26.0164  -20.6868  -15.3032 O   0  0  0  0  0  0  0  0  0  0  0  0
   25.1647  -21.8479  -10.3489 C   0  0  0  0  0  0  0  0  0  0  0  0
   26.0205  -20.8114  -11.1052 C   0  0  2  0  0  0  0  0  0  0  0  0
   25.8979  -19.5360  -10.3458 C   0  0  0  0  0  0  0  0  0  0  0  0
   25.5314  -20.7618  -12.5327 C   0  0  2  0  0  0  0  0  0  0  0  0
   26.2582  -19.6932  -13.2224 N   0  0  0  0  0  0  0  0  0  0  0  0
   24.0996  -20.5237  -12.6962 C   0  0  0  0  0  0  0  0  0  0  0  0
   23.6571  -19.3314  -12.6111 O   0  0  0  0  0  0  0  0  0  0  0  0
   23.0984  -21.4993  -12.9505 N   0  0  0  0  0  0  0  0  0  0  0  0
   21.7245  -21.2265  -13.1886 C   0  0  1  0  0  0  0  0  0  0  0  0
   21.3381  -20.8801  -14.5779 C   0  0  0  0  0  0  0  0  0  0  0  0
   20.0273  -21.5051  -14.9968 C   0  0  0  0  0  0  0  0  0  0  0  0
   18.9909  -20.4746  -15.3059 C   0  0  0  0  0  0  0  0  0  0  0  0
   17.5799  -21.0155  -15.2685 C   0  0  0  0  0  0  0  0  0  0  0  0
   16.6132  -19.9714  -15.4562 N   0  0  0  0  0  0  0  0  0  0  0  0
   20.7827  -22.2520  -12.6386 C   0  0  0  0  0  0  0  0  0  0  0  0
   19.5917  -21.8262  -12.1036 O   0  0  0  0  0  0  0  0  0  0  0  0
   21.0683  -23.4534  -12.6671 O   0  0  0  0  0  0  0  0  0  0  0  0
  2 10  1  0
  2  1  1  6
  3  2  1  0
  4  3  1  0
  4  9  2  0
  5  4  1  0
  6  5  2  0
  6  7  1  0
  7  8  2  0
  8  9  1  0
 10 11  2  0
 13 12  1  1
 14 13  1  0
 15 13  1  0
 15 16  1  6
 16 10  1  0
 17 18  2  0
 17 15  1  0
 19 17  1  0
 20 21  1  6
 20 19  1  0
 21 22  1  0
 23 22  1  0
 23 24  1  0
 24 25  1  0
 26 27  1  0
 26 20  1  0
 28 26  2  0
M  END
$$$$
