FVK.pdb
     RDKit          3D

 28 28  0  0  1  0  0  0  0  0999 V2000
   28.4347  -21.4766   -9.1412 N   0  0  0  0  0  0  0  0  0  0  0  0
   27.1237  -20.9158   -9.2551 C   0  0  1  0  0  0  0  0  0  0  0  0
   27.1232  -19.5851   -8.5270 C   0  0  0  0  0  0  0  0  0  0  0  0
   27.5420  -19.8657   -7.1268 C   0  0  0  0  0  0  0  0  0  0  0  0
   26.6344  -20.3874   -6.2269 C   0  0  0  0  0  0  0  0  0  0  0  0
   26.9916  -20.6613   -4.9125 C   0  0  0  0  0  0  0  0  0  0  0  0
   28.2717  -20.4094   -4.4965 C   0  0  0  0  0  0  0  0  0  0  0  0
   29.1740  -19.8889   -5.3974 C   0  0  0  0  0  0  0  0  0  0  0  0
   28.8392  -19.6104   -6.7054 C   0  0  0  0  0  0  0  0  0  0  0  0
   26.7108  -20.7435  -10.6861 C   0  0  0  0  0  0  0  0  0  0  0  0
   27.5917  -20.7819  -11.5732 O   0  0  0  0  0  0  0  0  0  0  0  0
   24.4867  -22.9659  -12.2594 C   0  0  0  0  0  0  0  0  0  0  0  0
   25.2764  -21.8797  -13.0179 C   0  0  2  0  0  0  0  0  0  0  0  0
   26.7130  -22.2584  -12.9121 C   0  0  0  0  0  0  0  0  0  0  0  0
   24.9158  -20.5423  -12.4173 C   0  0  2  0  0  0  0  0  0  0  0  0
   25.3532  -20.5422  -11.0192 N   0  0  0  0  0  0  0  0  0  0  0  0
   23.4961  -20.2012  -12.4549 C   0  0  0  0  0  0  0  0  0  0  0  0
   22.7442  -20.5763  -11.4965 O   0  0  0  0  0  0  0  0  0  0  0  0
   22.8231  -19.4708  -13.4710 N   0  0  0  0  0  0  0  0  0  0  0  0
   21.4431  -19.1331  -13.4657 C   0  0  1  0  0  0  0  0  0  0  0  0
   20.9887  -18.1430  -14.4720 C   0  0  0  0  0  0  0  0  0  0  0  0
   19.5108  -17.8415  -14.3745 C   0  0  0  0  0  0  0  0  0  0  0  0
   19.2434  -16.6143  -13.5659 C   0  0  0  0  0  0  0  0  0  0  0  0
   17.7706  -16.3359  -13.3708 C   0  0  0  0  0  0  0  0  0  0  0  0
   17.2922  -15.3624  -14.3108 N   0  0  0  0  0  0  0  0  0  0  0  0
   20.5156  -20.3082  -13.4524 C   0  0  0  0  0  0  0  0  0  0  0  0
   20.7838  -21.3628  -14.2902 O   0  0  0  0  0  0  0  0  0  0  0  0
   19.5332  -20.3305  -12.7041 O   0  0  0  0  0  0  0  0  0  0  0  0
  2 10  1  0
  2  1  1  6
  3  2  1  0
  4  3  1  0
  4  9  2  0
  5  4  1  0
  6  5  2  0
  6  7  1  0
  7  8  2  0
  8  9  1  0
 10 11  2  0
 13 12  1  1
 14 13  1  0
 15 13  1  0
 15 16  1  1
 16 10  1  0
 17 18  2  0
 17 15  1  0
 19 17  1  0
 20 21  1  6
 20 19  1  0
 21 22  1  0
 23 22  1  0
 23 24  1  0
 24 25  1  0
 26 27  1  0
 26 20  1  0
 28 26  2  0
M  END
$$$$
