FVK.pdb
     RDKit          3D

 28 28  0  0  1  0  0  0  0  0999 V2000
   28.0281  -22.1195   -9.6746 N   0  0  0  0  0  0  0  0  0  0  0  0
   27.0916  -21.0917   -9.3394 C   0  0  1  0  0  0  0  0  0  0  0  0
   27.8439  -19.7752   -9.2938 C   0  0  0  0  0  0  0  0  0  0  0  0
   28.1482  -19.5081   -7.8618 C   0  0  0  0  0  0  0  0  0  0  0  0
   27.2605  -18.7840   -7.0915 C   0  0  0  0  0  0  0  0  0  0  0  0
   27.5131  -18.5164   -5.7518 C   0  0  0  0  0  0  0  0  0  0  0  0
   28.6675  -18.9796   -5.1790 C   0  0  0  0  0  0  0  0  0  0  0  0
   29.5504  -19.7015   -5.9510 C   0  0  0  0  0  0  0  0  0  0  0  0
   29.3180  -19.9775   -7.2815 C   0  0  0  0  0  0  0  0  0  0  0  0
   25.9573  -21.0267  -10.3178 C   0  0  0  0  0  0  0  0  0  0  0  0
   26.1720  -21.3493  -11.5070 O   0  0  0  0  0  0  0  0  0  0  0  0
   21.9943  -19.7543   -9.1217 C   0  0  0  0  0  0  0  0  0  0  0  0
   22.3577  -21.1783   -9.5894 C   0  0  2  0  0  0  0  0  0  0  0  0
   22.6932  -21.9482   -8.3593 C   0  0  0  0  0  0  0  0  0  0  0  0
   23.4718  -21.0619  -10.6015 C   0  0  2  0  0  0  0  0  0  0  0  0
   24.6749  -20.6090   -9.8990 N   0  0  0  0  0  0  0  0  0  0  0  0
   23.2163  -20.1478  -11.7117 C   0  0  0  0  0  0  0  0  0  0  0  0
   23.4077  -18.8992  -11.5416 O   0  0  0  0  0  0  0  0  0  0  0  0
   22.7631  -20.4952  -13.0128 N   0  0  0  0  0  0  0  0  0  0  0  0
   22.4877  -19.5769  -14.0613 C   0  0  1  0  0  0  0  0  0  0  0  0
   23.4442  -19.5421  -15.1940 C   0  0  0  0  0  0  0  0  0  0  0  0
   23.3328  -20.7505  -16.0950 C   0  0  0  0  0  0  0  0  0  0  0  0
   24.3217  -20.7059  -17.2137 C   0  0  0  0  0  0  0  0  0  0  0  0
   24.2056  -21.8776  -18.1616 C   0  0  0  0  0  0  0  0  0  0  0  0
   25.1720  -21.7938  -19.2194 N   0  0  0  0  0  0  0  0  0  0  0  0
   21.0846  -19.6290  -14.5809 C   0  0  0  0  0  0  0  0  0  0  0  0
   20.2946  -20.6946  -14.2254 O   0  0  0  0  0  0  0  0  0  0  0  0
   20.6462  -18.7337  -15.3102 O   0  0  0  0  0  0  0  0  0  0  0  0
  2 10  1  0
  2  1  1  6
  3  2  1  0
  4  3  1  0
  4  9  2  0
  5  4  1  0
  6  5  2  0
  6  7  1  0
  7  8  2  0
  8  9  1  0
 10 11  2  0
 13 12  1  1
 14 13  1  0
 15 13  1  0
 15 16  1  1
 16 10  1  0
 17 18  2  0
 17 15  1  0
 19 17  1  0
 20 21  1  6
 20 19  1  0
 21 22  1  0
 23 22  1  0
 23 24  1  0
 24 25  1  0
 26 27  1  0
 26 20  1  0
 28 26  2  0
M  END
$$$$
