FVK.pdb
     RDKit          3D

 28 28  0  0  1  0  0  0  0  0999 V2000
   26.0204  -18.6062   -8.0347 N   0  0  0  0  0  0  0  0  0  0  0  0
   26.6878  -19.6786   -8.7060 C   0  0  1  0  0  0  0  0  0  0  0  0
   26.7871  -20.8420   -7.7377 C   0  0  0  0  0  0  0  0  0  0  0  0
   27.6103  -20.3720   -6.5904 C   0  0  0  0  0  0  0  0  0  0  0  0
   26.9972  -19.8405   -5.4736 C   0  0  0  0  0  0  0  0  0  0  0  0
   27.7351  -19.3923   -4.3851 C   0  0  0  0  0  0  0  0  0  0  0  0
   29.1014  -19.4782   -4.4170 C   0  0  0  0  0  0  0  0  0  0  0  0
   29.7090  -20.0091   -5.5330 C   0  0  0  0  0  0  0  0  0  0  0  0
   28.9948  -20.4591   -6.6228 C   0  0  0  0  0  0  0  0  0  0  0  0
   25.9736  -20.0851   -9.9600 C   0  0  0  0  0  0  0  0  0  0  0  0
   24.7229  -20.0720   -9.9689 O   0  0  0  0  0  0  0  0  0  0  0  0
   28.2143  -21.2287  -13.4128 C   0  0  0  0  0  0  0  0  0  0  0  0
   27.3047  -19.9836  -13.3824 C   0  0  2  0  0  0  0  0  0  0  0  0
   28.1744  -18.8415  -12.9852 C   0  0  0  0  0  0  0  0  0  0  0  0
   26.1549  -20.2743  -12.4481 C   0  0  2  0  0  0  0  0  0  0  0  0
   26.7038  -20.4739  -11.1047 N   0  0  0  0  0  0  0  0  0  0  0  0
   25.3475  -21.4416  -12.7930 C   0  0  0  0  0  0  0  0  0  0  0  0
   25.4633  -22.5019  -12.0951 O   0  0  0  0  0  0  0  0  0  0  0  0
   24.4087  -21.5433  -13.8547 N   0  0  0  0  0  0  0  0  0  0  0  0
   23.1030  -22.0933  -13.7494 C   0  0  1  0  0  0  0  0  0  0  0  0
   22.2785  -21.6540  -12.5977 C   0  0  0  0  0  0  0  0  0  0  0  0
   20.9631  -22.3920  -12.5008 C   0  0  0  0  0  0  0  0  0  0  0  0
   19.8152  -21.4610  -12.2835 C   0  0  0  0  0  0  0  0  0  0  0  0
   18.5005  -22.1738  -12.0634 C   0  0  0  0  0  0  0  0  0  0  0  0
   17.4141  -21.2438  -11.9418 N   0  0  0  0  0  0  0  0  0  0  0  0
   22.2963  -22.0253  -15.0088 C   0  0  0  0  0  0  0  0  0  0  0  0
   22.7027  -21.1664  -16.0003 O   0  0  0  0  0  0  0  0  0  0  0  0
   21.2901  -22.7267  -15.1544 O   0  0  0  0  0  0  0  0  0  0  0  0
  2 10  1  0
  2  1  1  1
  3  2  1  0
  4  3  1  0
  4  9  2  0
  5  4  1  0
  6  5  2  0
  6  7  1  0
  7  8  2  0
  8  9  1  0
 10 11  2  0
 13 12  1  1
 14 13  1  0
 15 13  1  0
 15 16  1  1
 16 10  1  0
 17 18  2  0
 17 15  1  0
 19 17  1  0
 20 21  1  1
 20 19  1  0
 21 22  1  0
 23 22  1  0
 23 24  1  0
 24 25  1  0
 26 27  1  0
 26 20  1  0
 28 26  2  0
M  END
$$$$
