VPR.pdb
     RDKit          3D

 26 26  0  0  1  0  0  0  0  0999 V2000
   20.4975  -15.5492  -18.4938 C   0  0  0  0  0  0  0  0  0  0  0  0
   20.6803  -14.2980  -17.7006 C   0  0  1  0  0  0  0  0  0  0  0  0
   19.3877  -13.5380  -17.4975 C   0  0  0  0  0  0  0  0  0  0  0  0
   21.3723  -14.5607  -16.3677 C   0  0  2  0  0  0  0  0  0  0  0  0
   20.7604  -15.6990  -15.8032 N   0  0  0  0  0  0  0  0  0  0  0  0
   21.4468  -13.3430  -15.5772 C   0  0  0  0  0  0  0  0  0  0  0  0
   20.4593  -13.0901  -14.7743 O   0  0  0  0  0  0  0  0  0  0  0  0
   22.4919  -12.4080  -15.6006 N   0  0  0  0  0  0  0  0  0  0  0  0
   23.6938  -12.4442  -16.3636 C   0  0  0  0  0  0  0  0  0  0  0  0
   24.7353  -11.9365  -15.3457 C   0  0  0  0  0  0  0  0  0  0  0  0
   23.9739  -10.7567  -14.7795 C   0  0  0  0  0  0  0  0  0  0  0  0
   22.5374  -11.1606  -14.8300 C   0  0  1  0  0  0  0  0  0  0  0  0
   21.6841  -10.1224  -15.4384 C   0  0  0  0  0  0  0  0  0  0  0  0
   21.0382  -10.4160  -16.4755 O   0  0  0  0  0  0  0  0  0  0  0  0
   14.3029   -9.9575  -15.7224 N   0  0  0  0  0  0  0  0  0  0  0  0
   14.3669   -8.5448  -15.4627 C   0  0  0  0  0  0  0  0  0  0  0  0
   13.2955   -7.8641  -15.6044 N   0  0  0  0  0  0  0  0  0  0  0  0
   15.5869   -7.9560  -15.0617 N   0  0  0  0  0  0  0  0  0  0  0  0
   16.7941   -8.7100  -14.9432 C   0  0  0  0  0  0  0  0  0  0  0  0
   17.9957   -7.9383  -14.5304 C   0  0  0  0  0  0  0  0  0  0  0  0
   19.2867   -8.6597  -14.4693 C   0  0  0  0  0  0  0  0  0  0  0  0
   20.4537   -7.9943  -15.1170 C   0  0  2  0  0  0  0  0  0  0  0  0
   21.6228   -8.8392  -14.8363 N   0  0  0  0  0  0  0  0  0  0  0  0
   20.6602   -6.6598  -14.4636 C   0  0  0  0  0  0  0  0  0  0  0  0
   20.3130   -5.4979  -15.1273 O   0  0  0  0  0  0  0  0  0  0  0  0
   21.1446   -6.5526  -13.3162 O   0  0  0  0  0  0  0  0  0  0  0  0
  2  3  1  1
  2  1  1  0
  4  5  1  1
  4  2  1  0
  6  4  1  0
  7  6  2  0
  8  9  1  0
  8  6  1  0
 10  9  1  0
 11 12  1  0
 11 10  1  0
 12  8  1  0
 13 14  2  0
 12 13  1  6
 16 17  2  0
 16 15  1  0
 18 16  1  0
 19 18  1  0
 20 19  1  0
 20 21  1  0
 22 21  1  1
 22 23  1  0
 23 13  1  0
 24 22  1  0
 25 24  1  0
 26 24  2  0
M  END
$$$$
