VPR.pdb
     RDKit          3D

 26 26  0  0  1  0  0  0  0  0999 V2000
   16.6105  -27.0647   -6.8447 C   0  0  0  0  0  0  0  0  0  0  0  0
   17.3437  -26.3165   -5.7813 C   0  0  1  0  0  0  0  0  0  0  0  0
   16.7469  -24.9537   -5.5051 C   0  0  0  0  0  0  0  0  0  0  0  0
   17.4705  -27.1257   -4.4954 C   0  0  2  0  0  0  0  0  0  0  0  0
   18.2365  -26.3543   -3.5971 N   0  0  0  0  0  0  0  0  0  0  0  0
   17.8920  -28.4870   -4.7828 C   0  0  0  0  0  0  0  0  0  0  0  0
   19.1676  -28.7216   -4.8244 O   0  0  0  0  0  0  0  0  0  0  0  0
   17.0449  -29.5788   -5.0221 N   0  0  0  0  0  0  0  0  0  0  0  0
   15.6220  -29.6199   -4.9798 C   0  0  0  0  0  0  0  0  0  0  0  0
   15.3605  -30.9769   -4.2952 C   0  0  0  0  0  0  0  0  0  0  0  0
   16.3392  -31.8366   -5.0668 C   0  0  0  0  0  0  0  0  0  0  0  0
   17.4794  -30.9298   -5.3938 C   0  0  1  0  0  0  0  0  0  0  0  0
   17.8601  -30.9985   -6.8173 C   0  0  0  0  0  0  0  0  0  0  0  0
   17.3114  -30.2013   -7.6188 O   0  0  0  0  0  0  0  0  0  0  0  0
   25.2342  -31.5077   -7.6823 N   0  0  0  0  0  0  0  0  0  0  0  0
   24.6572  -32.2932   -8.7394 C   0  0  0  0  0  0  0  0  0  0  0  0
   25.4019  -32.5936   -9.7325 N   0  0  0  0  0  0  0  0  0  0  0  0
   23.3095  -32.7082   -8.6547 N   0  0  0  0  0  0  0  0  0  0  0  0
   22.5260  -32.5167   -7.4759 C   0  0  0  0  0  0  0  0  0  0  0  0
   21.1412  -33.0545   -7.5304 C   0  0  0  0  0  0  0  0  0  0  0  0
   20.3757  -32.8530   -8.7811 C   0  0  0  0  0  0  0  0  0  0  0  0
   19.0981  -32.0924   -8.6657 C   0  0  2  0  0  0  0  0  0  0  0  0
   18.8246  -31.9543   -7.2285 N   0  0  0  0  0  0  0  0  0  0  0  0
   18.0030  -32.9102   -9.2843 C   0  0  0  0  0  0  0  0  0  0  0  0
   17.9228  -33.0417  -10.6581 O   0  0  0  0  0  0  0  0  0  0  0  0
   17.1396  -33.4918   -8.5921 O   0  0  0  0  0  0  0  0  0  0  0  0
  2  3  1  1
  2  1  1  0
  4  5  1  1
  4  2  1  0
  6  4  1  0
  7  6  2  0
  8  9  1  0
  8  6  1  0
 10  9  1  0
 11 12  1  0
 11 10  1  0
 12  8  1  0
 13 14  2  0
 12 13  1  6
 16 17  2  0
 16 15  1  0
 18 16  1  0
 19 18  1  0
 20 19  1  0
 20 21  1  0
 22 21  1  1
 22 23  1  0
 23 13  1  0
 24 22  1  0
 25 24  1  0
 26 24  2  0
M  END
$$$$
