VPR.pdb
     RDKit          3D

 26 26  0  0  1  0  0  0  0  0999 V2000
   26.6824  -21.4071   -8.3315 C   0  0  0  0  0  0  0  0  0  0  0  0
   26.4577  -21.0933   -9.7734 C   0  0  1  0  0  0  0  0  0  0  0  0
   25.1998  -21.7298  -10.3233 C   0  0  0  0  0  0  0  0  0  0  0  0
   26.4701  -19.5925  -10.0418 C   0  0  2  0  0  0  0  0  0  0  0  0
   25.4483  -19.0246   -9.2531 N   0  0  0  0  0  0  0  0  0  0  0  0
   26.4806  -19.3248  -11.4706 C   0  0  0  0  0  0  0  0  0  0  0  0
   25.3980  -18.8391  -11.9957 O   0  0  0  0  0  0  0  0  0  0  0  0
   27.5573  -19.5438  -12.3422 N   0  0  0  0  0  0  0  0  0  0  0  0
   28.8644  -20.0163  -12.0316 C   0  0  0  0  0  0  0  0  0  0  0  0
   29.7487  -19.1268  -12.9288 C   0  0  0  0  0  0  0  0  0  0  0  0
   28.9603  -19.2138  -14.2184 C   0  0  0  0  0  0  0  0  0  0  0  0
   27.5341  -19.3386  -13.7945 C   0  0  1  0  0  0  0  0  0  0  0  0
   26.8395  -20.4438  -14.4817 C   0  0  0  0  0  0  0  0  0  0  0  0
   26.7836  -21.5598  -13.9070 O   0  0  0  0  0  0  0  0  0  0  0  0
   19.1586  -20.3227  -13.0965 N   0  0  0  0  0  0  0  0  0  0  0  0
   19.1242  -21.2666  -14.1806 C   0  0  0  0  0  0  0  0  0  0  0  0
   18.0151  -21.8496  -14.4277 N   0  0  0  0  0  0  0  0  0  0  0  0
   20.2928  -21.5189  -14.9334 N   0  0  0  0  0  0  0  0  0  0  0  0
   21.5500  -20.9226  -14.6114 C   0  0  0  0  0  0  0  0  0  0  0  0
   22.6694  -21.2450  -15.5349 C   0  0  0  0  0  0  0  0  0  0  0  0
   24.0014  -20.6805  -15.2218 C   0  0  0  0  0  0  0  0  0  0  0  0
   25.1090  -21.0259  -16.1588 C   0  0  2  0  0  0  0  0  0  0  0  0
   26.2633  -20.2100  -15.7570 N   0  0  0  0  0  0  0  0  0  0  0  0
   24.6990  -20.6243  -17.5448 C   0  0  0  0  0  0  0  0  0  0  0  0
   24.2558  -19.3391  -17.7954 O   0  0  0  0  0  0  0  0  0  0  0  0
   24.7429  -21.4229  -18.5056 O   0  0  0  0  0  0  0  0  0  0  0  0
  2  3  1  1
  2  1  1  0
  4  5  1  6
  4  2  1  0
  6  4  1  0
  7  6  2  0
  8  9  1  0
  8  6  1  0
 10  9  1  0
 11 12  1  0
 11 10  1  0
 12  8  1  0
 13 14  2  0
 12 13  1  6
 16 17  2  0
 16 15  1  0
 18 16  1  0
 19 18  1  0
 20 19  1  0
 20 21  1  0
 22 21  1  1
 22 23  1  0
 23 13  1  0
 24 22  1  0
 25 24  1  0
 26 24  2  0
M  END
$$$$
