VPR.pdb
     RDKit          3D

 26 26  0  0  1  0  0  0  0  0999 V2000
   27.1773  -17.3868  -17.8705 C   0  0  0  0  0  0  0  0  0  0  0  0
   26.8494  -18.2007  -16.6630 C   0  0  1  0  0  0  0  0  0  0  0  0
   25.3597  -18.3439  -16.4389 C   0  0  0  0  0  0  0  0  0  0  0  0
   27.5292  -19.5651  -16.6899 C   0  0  2  0  0  0  0  0  0  0  0  0
   27.1474  -20.1919  -17.8940 N   0  0  0  0  0  0  0  0  0  0  0  0
   27.3174  -20.2709  -15.4368 C   0  0  0  0  0  0  0  0  0  0  0  0
   26.3841  -21.1720  -15.4087 O   0  0  0  0  0  0  0  0  0  0  0  0
   28.0306  -20.0686  -14.2463 N   0  0  0  0  0  0  0  0  0  0  0  0
   29.0552  -19.1159  -13.9803 C   0  0  0  0  0  0  0  0  0  0  0  0
   30.0532  -19.9430  -13.1446 C   0  0  0  0  0  0  0  0  0  0  0  0
   29.0832  -20.6223  -12.2011 C   0  0  0  0  0  0  0  0  0  0  0  0
   27.8355  -20.8143  -12.9982 C   0  0  1  0  0  0  0  0  0  0  0  0
   26.6336  -20.3515  -12.2787 C   0  0  0  0  0  0  0  0  0  0  0  0
   26.3384  -19.1315  -12.3374 O   0  0  0  0  0  0  0  0  0  0  0  0
   19.4138  -22.7295  -12.2591 N   0  0  0  0  0  0  0  0  0  0  0  0
   19.7108  -21.8494  -13.3566 C   0  0  0  0  0  0  0  0  0  0  0  0
   18.7300  -21.3862  -14.0307 N   0  0  0  0  0  0  0  0  0  0  0  0
   21.0523  -21.5218  -13.6548 N   0  0  0  0  0  0  0  0  0  0  0  0
   22.1511  -22.0752  -12.9293 C   0  0  0  0  0  0  0  0  0  0  0  0
   22.3995  -21.4828  -11.5887 C   0  0  0  0  0  0  0  0  0  0  0  0
   23.6519  -21.8573  -10.8945 C   0  0  0  0  0  0  0  0  0  0  0  0
   24.7001  -20.8012  -10.7938 C   0  0  2  0  0  0  0  0  0  0  0  0
   25.8594  -21.2922  -11.5516 N   0  0  0  0  0  0  0  0  0  0  0  0
   25.0947  -20.6620   -9.3532 C   0  0  0  0  0  0  0  0  0  0  0  0
   24.3414  -19.8809   -8.4968 O   0  0  0  0  0  0  0  0  0  0  0  0
   26.1005  -21.2373   -8.8839 O   0  0  0  0  0  0  0  0  0  0  0  0
  2  3  1  6
  2  1  1  0
  4  5  1  6
  4  2  1  0
  6  4  1  0
  7  6  2  0
  8  9  1  0
  8  6  1  0
 10  9  1  0
 11 12  1  0
 11 10  1  0
 12  8  1  0
 13 14  2  0
 12 13  1  1
 16 17  2  0
 16 15  1  0
 18 16  1  0
 19 18  1  0
 20 19  1  0
 20 21  1  0
 22 21  1  1
 22 23  1  0
 23 13  1  0
 24 22  1  0
 25 24  1  0
 26 24  2  0
M  END
$$$$
