VPR.pdb
     RDKit          3D

 26 26  0  0  1  0  0  0  0  0999 V2000
   26.4448  -19.2948  -16.6272 C   0  0  0  0  0  0  0  0  0  0  0  0
   25.5962  -19.9833  -15.6105 C   0  0  1  0  0  0  0  0  0  0  0  0
   24.3708  -20.6352  -16.2133 C   0  0  0  0  0  0  0  0  0  0  0  0
   26.3934  -20.9849  -14.7823 C   0  0  2  0  0  0  0  0  0  0  0  0
   27.0380  -21.8499  -15.6906 N   0  0  0  0  0  0  0  0  0  0  0  0
   25.5663  -21.5615  -13.7351 C   0  0  0  0  0  0  0  0  0  0  0  0
   25.0373  -22.7243  -13.9633 O   0  0  0  0  0  0  0  0  0  0  0  0
   25.2827  -20.9760  -12.4926 N   0  0  0  0  0  0  0  0  0  0  0  0
   25.7092  -19.7126  -11.9926 C   0  0  0  0  0  0  0  0  0  0  0  0
   26.0378  -20.0437  -10.5226 C   0  0  0  0  0  0  0  0  0  0  0  0
   24.8169  -20.8692  -10.1755 C   0  0  0  0  0  0  0  0  0  0  0  0
   24.4467  -21.5674  -11.4422 C   0  0  1  0  0  0  0  0  0  0  0  0
   23.0121  -21.4322  -11.7584 C   0  0  0  0  0  0  0  0  0  0  0  0
   22.6756  -20.6263  -12.6618 O   0  0  0  0  0  0  0  0  0  0  0  0
   16.6045  -25.8075   -7.7303 N   0  0  0  0  0  0  0  0  0  0  0  0
   17.5447  -24.7679   -7.4099 C   0  0  0  0  0  0  0  0  0  0  0  0
   17.7451  -24.5058   -6.1761 N   0  0  0  0  0  0  0  0  0  0  0  0
   18.2131  -24.0777   -8.4456 N   0  0  0  0  0  0  0  0  0  0  0  0
   17.6721  -23.9715   -9.7632 C   0  0  0  0  0  0  0  0  0  0  0  0
   18.4487  -23.1296  -10.7107 C   0  0  0  0  0  0  0  0  0  0  0  0
   19.9057  -23.0049  -10.4820 C   0  0  0  0  0  0  0  0  0  0  0  0
   20.6533  -22.1135  -11.4150 C   0  0  2  0  0  0  0  0  0  0  0  0
   22.0701  -22.2105  -11.0374 N   0  0  0  0  0  0  0  0  0  0  0  0
   20.1945  -20.7028  -11.1913 C   0  0  0  0  0  0  0  0  0  0  0  0
   20.7001  -19.9646  -10.1376 O   0  0  0  0  0  0  0  0  0  0  0  0
   19.3539  -20.1542  -11.9365 O   0  0  0  0  0  0  0  0  0  0  0  0
  2  3  1  6
  2  1  1  0
  4  5  1  6
  4  2  1  0
  6  4  1  0
  7  6  2  0
  8  9  1  0
  8  6  1  0
 10  9  1  0
 11 12  1  0
 11 10  1  0
 12  8  1  0
 13 14  2  0
 12 13  1  6
 16 17  2  0
 16 15  1  0
 18 16  1  0
 19 18  1  0
 20 19  1  0
 20 21  1  0
 22 21  1  1
 22 23  1  0
 23 13  1  0
 24 22  1  0
 25 24  1  0
 26 24  2  0
M  END
$$$$
