VPR.pdb
     RDKit          3D

 26 26  0  0  1  0  0  0  0  0999 V2000
   25.9799  -30.0324  -18.8847 C   0  0  0  0  0  0  0  0  0  0  0  0
   27.0269  -30.7155  -18.0691 C   0  0  1  0  0  0  0  0  0  0  0  0
   27.9502  -31.5772  -18.9026 C   0  0  0  0  0  0  0  0  0  0  0  0
   27.8218  -29.7320  -17.2174 C   0  0  2  0  0  0  0  0  0  0  0  0
   28.7188  -30.4925  -16.4391 N   0  0  0  0  0  0  0  0  0  0  0  0
   26.9337  -28.7968  -16.5465 C   0  0  0  0  0  0  0  0  0  0  0  0
   26.2626  -29.2366  -15.5266 O   0  0  0  0  0  0  0  0  0  0  0  0
   26.7312  -27.4548  -16.8996 N   0  0  0  0  0  0  0  0  0  0  0  0
   27.3195  -26.7239  -17.9710 C   0  0  0  0  0  0  0  0  0  0  0  0
   27.6049  -25.3599  -17.3102 C   0  0  0  0  0  0  0  0  0  0  0  0
   26.2875  -25.1511  -16.5937 C   0  0  0  0  0  0  0  0  0  0  0  0
   25.8272  -26.5211  -16.2192 C   0  0  1  0  0  0  0  0  0  0  0  0
   24.4218  -26.7632  -16.5969 C   0  0  0  0  0  0  0  0  0  0  0  0
   24.1917  -27.3922  -17.6601 O   0  0  0  0  0  0  0  0  0  0  0  0
   19.4684  -28.2631  -10.2607 N   0  0  0  0  0  0  0  0  0  0  0  0
   19.7874  -26.9945  -10.8578 C   0  0  0  0  0  0  0  0  0  0  0  0
   19.4124  -25.9376  -10.2467 N   0  0  0  0  0  0  0  0  0  0  0  0
   20.4964  -26.9482  -12.0789 N   0  0  0  0  0  0  0  0  0  0  0  0
   20.8571  -28.1297  -12.7957 C   0  0  0  0  0  0  0  0  0  0  0  0
   21.6019  -27.9099  -14.0634 C   0  0  0  0  0  0  0  0  0  0  0  0
   21.2287  -26.7357  -14.8836 C   0  0  0  0  0  0  0  0  0  0  0  0
   21.9946  -26.5344  -16.1473 C   0  0  2  0  0  0  0  0  0  0  0  0
   23.3876  -26.2816  -15.7535 N   0  0  0  0  0  0  0  0  0  0  0  0
   21.4622  -25.3113  -16.8336 C   0  0  0  0  0  0  0  0  0  0  0  0
   20.2547  -25.3590  -17.5048 O   0  0  0  0  0  0  0  0  0  0  0  0
   22.0802  -24.2246  -16.8230 O   0  0  0  0  0  0  0  0  0  0  0  0
  2  3  1  6
  2  1  1  0
  4  5  1  1
  4  2  1  0
  6  4  1  0
  7  6  2  0
  8  9  1  0
  8  6  1  0
 10  9  1  0
 11 12  1  0
 11 10  1  0
 12  8  1  0
 13 14  2  0
 12 13  1  6
 16 17  2  0
 16 15  1  0
 18 16  1  0
 19 18  1  0
 20 19  1  0
 20 21  1  0
 22 21  1  1
 22 23  1  0
 23 13  1  0
 24 22  1  0
 25 24  1  0
 26 24  2  0
M  END
$$$$
