PKN.pdb
     RDKit          3D

 25 25  0  0  1  0  0  0  0  0999 V2000
   31.2726  -28.8952  -21.4350 N   0  0  0  0  0  0  0  0  0  0  0  0
   30.7969  -27.7442  -22.1783 C   0  0  0  0  0  0  0  0  0  0  0  0
   29.7654  -27.0672  -21.2645 C   0  0  0  0  0  0  0  0  0  0  0  0
   30.4151  -27.3061  -19.9172 C   0  0  0  0  0  0  0  0  0  0  0  0
   30.8979  -28.7312  -20.0684 C   0  0  1  0  0  0  0  0  0  0  0  0
   29.7821  -29.6631  -19.6672 C   0  0  0  0  0  0  0  0  0  0  0  0
   29.0546  -30.1713  -20.5629 O   0  0  0  0  0  0  0  0  0  0  0  0
   29.5293  -29.9831  -18.3097 N   0  0  0  0  0  0  0  0  0  0  0  0
   28.4976  -30.9981  -17.9855 C   0  0  1  0  0  0  0  0  0  0  0  0
   29.0876  -31.9434  -16.9616 C   0  0  0  0  0  0  0  0  0  0  0  0
   30.0716  -32.9057  -17.5277 C   0  0  0  0  0  0  0  0  0  0  0  0
   30.5659  -33.7716  -16.3635 C   0  0  0  0  0  0  0  0  0  0  0  0
   31.5781  -34.7702  -16.8769 C   0  0  0  0  0  0  0  0  0  0  0  0
   32.1622  -35.4770  -15.7289 N   0  0  0  0  0  0  0  0  0  0  0  0
   27.2971  -30.2842  -17.5430 C   0  0  0  0  0  0  0  0  0  0  0  0
   27.4237  -29.0883  -17.1524 O   0  0  0  0  0  0  0  0  0  0  0  0
   22.3317  -27.8915  -18.0554 N   0  0  0  0  0  0  0  0  0  0  0  0
   23.3701  -28.2834  -17.1572 C   0  0  0  0  0  0  0  0  0  0  0  0
   23.2052  -28.1322  -15.9256 O   0  0  0  0  0  0  0  0  0  0  0  0
   24.6344  -28.8629  -17.6491 C   0  0  0  0  0  0  0  0  0  0  0  0
   24.7862  -30.2683  -17.2138 C   0  0  2  0  0  0  0  0  0  0  0  0
   26.0263  -30.8959  -17.5496 N   0  0  0  0  0  0  0  0  0  0  0  0
   23.5912  -31.1101  -17.3436 C   0  0  0  0  0  0  0  0  0  0  0  0
   22.6628  -31.2067  -16.3093 O   0  0  0  0  0  0  0  0  0  0  0  0
   23.3233  -31.7809  -18.3661 O   0  0  0  0  0  0  0  0  0  0  0  0
  1  2  1  0
  2  3  1  0
  4  3  1  0
  5  1  1  0
  5  4  1  0
  5  6  1  6
  7  6  2  0
  8  6  1  0
  9  8  1  0
  9 10  1  1
 10 11  1  0
 11 12  1  0
 12 13  1  0
 13 14  1  0
 15 22  1  0
 15  9  1  0
 16 15  2  0
 18 19  2  0
 18 17  1  0
 21 20  1  6
 20 18  1  0
 21 23  1  0
 21 22  1  0
 23 24  1  0
 25 23  2  0
M  END
$$$$
