PKN.pdb
     RDKit          3D

 25 25  0  0  1  0  0  0  0  0999 V2000
   26.9364  -19.5241  -15.1942 N   0  0  0  0  0  0  0  0  0  0  0  0
   28.1698  -19.2065  -14.5005 C   0  0  0  0  0  0  0  0  0  0  0  0
   28.4839  -20.4404  -13.6425 C   0  0  0  0  0  0  0  0  0  0  0  0
   28.0042  -21.5340  -14.5744 C   0  0  0  0  0  0  0  0  0  0  0  0
   26.7226  -20.9316  -15.1049 C   0  0  1  0  0  0  0  0  0  0  0  0
   25.5996  -21.2791  -14.1600 C   0  0  0  0  0  0  0  0  0  0  0  0
   25.3244  -22.4921  -13.9533 O   0  0  0  0  0  0  0  0  0  0  0  0
   24.8453  -20.2783  -13.4979 N   0  0  0  0  0  0  0  0  0  0  0  0
   23.7028  -20.6807  -12.6421 C   0  0  1  0  0  0  0  0  0  0  0  0
   23.8034  -19.9062  -11.3458 C   0  0  0  0  0  0  0  0  0  0  0  0
   24.3501  -20.6997  -10.2117 C   0  0  0  0  0  0  0  0  0  0  0  0
   23.2958  -20.6688   -9.0995 C   0  0  0  0  0  0  0  0  0  0  0  0
   23.8423  -21.3620   -7.8723 C   0  0  0  0  0  0  0  0  0  0  0  0
   22.7750  -21.4426   -6.8658 N   0  0  0  0  0  0  0  0  0  0  0  0
   22.4737  -20.4462  -13.4044 C   0  0  0  0  0  0  0  0  0  0  0  0
   22.2304  -19.2693  -13.7973 O   0  0  0  0  0  0  0  0  0  0  0  0
   19.9220  -23.9235  -16.8135 N   0  0  0  0  0  0  0  0  0  0  0  0
   20.7899  -23.0120  -16.1394 C   0  0  0  0  0  0  0  0  0  0  0  0
   21.9257  -23.3975  -15.7811 O   0  0  0  0  0  0  0  0  0  0  0  0
   20.3771  -21.6245  -15.8552 C   0  0  0  0  0  0  0  0  0  0  0  0
   20.3339  -21.3644  -14.3998 C   0  0  2  0  0  0  0  0  0  0  0  0
   21.5770  -21.4925  -13.7050 N   0  0  0  0  0  0  0  0  0  0  0  0
   19.1544  -21.8780  -13.6936 C   0  0  0  0  0  0  0  0  0  0  0  0
   19.2836  -22.6193  -12.5210 O   0  0  0  0  0  0  0  0  0  0  0  0
   17.9785  -21.6893  -14.0794 O   0  0  0  0  0  0  0  0  0  0  0  0
  1  2  1  0
  2  3  1  0
  4  3  1  0
  5  1  1  0
  5  4  1  0
  5  6  1  1
  7  6  2  0
  8  6  1  0
  9  8  1  0
  9 10  1  1
 10 11  1  0
 11 12  1  0
 12 13  1  0
 13 14  1  0
 15 22  1  0
 15  9  1  0
 16 15  2  0
 18 19  2  0
 18 17  1  0
 21 20  1  6
 20 18  1  0
 21 23  1  0
 21 22  1  0
 23 24  1  0
 25 23  2  0
M  END
$$$$
