PKN.pdb
     RDKit          3D

 25 25  0  0  1  0  0  0  0  0999 V2000
   25.3753  -12.7149  -19.3825 N   0  0  0  0  0  0  0  0  0  0  0  0
   25.2253  -13.9123  -20.1870 C   0  0  0  0  0  0  0  0  0  0  0  0
   24.1593  -13.5669  -21.2365 C   0  0  0  0  0  0  0  0  0  0  0  0
   24.5065  -12.1148  -21.4918 C   0  0  0  0  0  0  0  0  0  0  0  0
   24.7856  -11.6247  -20.0888 C   0  0  1  0  0  0  0  0  0  0  0  0
   23.4862  -11.1784  -19.4668 C   0  0  0  0  0  0  0  0  0  0  0  0
   22.8041  -10.2878  -20.0424 O   0  0  0  0  0  0  0  0  0  0  0  0
   23.0111  -11.7335  -18.2523 N   0  0  0  0  0  0  0  0  0  0  0  0
   21.7007  -11.2901  -17.7177 C   0  0  1  0  0  0  0  0  0  0  0  0
   20.9805  -12.5127  -17.1916 C   0  0  0  0  0  0  0  0  0  0  0  0
   20.2816  -13.2988  -18.2444 C   0  0  0  0  0  0  0  0  0  0  0  0
   19.5428  -14.4369  -17.5314 C   0  0  0  0  0  0  0  0  0  0  0  0
   18.8974  -15.3367  -18.5604 C   0  0  0  0  0  0  0  0  0  0  0  0
   18.0915  -16.3462  -17.8601 N   0  0  0  0  0  0  0  0  0  0  0  0
   21.9586  -10.2509  -16.7176 C   0  0  0  0  0  0  0  0  0  0  0  0
   22.8581  -10.4630  -15.8548 O   0  0  0  0  0  0  0  0  0  0  0  0
   21.8486   -5.8256  -18.7518 N   0  0  0  0  0  0  0  0  0  0  0  0
   22.2641   -6.4222  -17.5229 C   0  0  0  0  0  0  0  0  0  0  0  0
   23.4484   -6.8079  -17.3979 O   0  0  0  0  0  0  0  0  0  0  0  0
   21.3275   -6.5944  -16.3962 C   0  0  0  0  0  0  0  0  0  0  0  0
   21.4404   -7.9459  -15.8059 C   0  0  2  0  0  0  0  0  0  0  0  0
   21.2369   -9.0393  -16.7045 N   0  0  0  0  0  0  0  0  0  0  0  0
   20.8645   -8.1079  -14.4658 C   0  0  0  0  0  0  0  0  0  0  0  0
   20.0742   -9.2111  -14.1505 O   0  0  0  0  0  0  0  0  0  0  0  0
   21.0399   -7.2924  -13.5324 O   0  0  0  0  0  0  0  0  0  0  0  0
  1  2  1  0
  2  3  1  0
  4  3  1  0
  5  1  1  0
  5  4  1  0
  5  6  1  1
  7  6  2  0
  8  6  1  0
  9  8  1  0
  9 10  1  1
 10 11  1  0
 11 12  1  0
 12 13  1  0
 13 14  1  0
 15 22  1  0
 15  9  1  0
 16 15  2  0
 18 19  2  0
 18 17  1  0
 21 20  1  6
 20 18  1  0
 21 23  1  0
 21 22  1  0
 23 24  1  0
 25 23  2  0
M  END
$$$$
