PKN.pdb
     RDKit          3D

 25 25  0  0  1  0  0  0  0  0999 V2000
   17.5713  -15.6766  -17.0916 N   0  0  0  0  0  0  0  0  0  0  0  0
   17.8841  -16.6005  -18.1650 C   0  0  0  0  0  0  0  0  0  0  0  0
   19.4006  -16.4833  -18.3742 C   0  0  0  0  0  0  0  0  0  0  0  0
   19.8461  -16.2820  -16.9405 C   0  0  0  0  0  0  0  0  0  0  0  0
   18.7872  -15.3302  -16.4310 C   0  0  1  0  0  0  0  0  0  0  0  0
   19.2205  -13.9185  -16.7372 C   0  0  0  0  0  0  0  0  0  0  0  0
   20.3644  -13.5344  -16.3713 O   0  0  0  0  0  0  0  0  0  0  0  0
   18.3762  -13.0118  -17.4256 N   0  0  0  0  0  0  0  0  0  0  0  0
   18.8641  -11.6399  -17.7071 C   0  0  1  0  0  0  0  0  0  0  0  0
   18.2445  -11.1895  -19.0122 C   0  0  0  0  0  0  0  0  0  0  0  0
   18.7852  -11.8905  -20.2085 C   0  0  0  0  0  0  0  0  0  0  0  0
   18.0388  -11.3320  -21.4253 C   0  0  0  0  0  0  0  0  0  0  0  0
   18.5198  -12.0356  -22.6738 C   0  0  0  0  0  0  0  0  0  0  0  0
   17.8161  -11.4676  -23.8318 N   0  0  0  0  0  0  0  0  0  0  0  0
   18.5330  -10.8053  -16.5493 C   0  0  0  0  0  0  0  0  0  0  0  0
   17.5449  -11.1403  -15.8351 O   0  0  0  0  0  0  0  0  0  0  0  0
   18.6509   -7.1522  -12.9214 N   0  0  0  0  0  0  0  0  0  0  0  0
   18.7278   -8.5580  -12.6835 C   0  0  0  0  0  0  0  0  0  0  0  0
   18.6509   -8.9866  -11.5099 O   0  0  0  0  0  0  0  0  0  0  0  0
   18.8964   -9.5173  -13.7914 C   0  0  0  0  0  0  0  0  0  0  0  0
   19.0930   -8.8197  -15.0807 C   0  0  2  0  0  0  0  0  0  0  0  0
   19.2865   -9.6589  -16.2221 N   0  0  0  0  0  0  0  0  0  0  0  0
   19.9221   -7.6098  -15.0326 C   0  0  0  0  0  0  0  0  0  0  0  0
   19.7328   -6.6462  -14.0443 O   0  0  0  0  0  0  0  0  0  0  0  0
   20.8378   -7.3636  -15.8500 O   0  0  0  0  0  0  0  0  0  0  0  0
  1  2  1  0
  2  3  1  0
  4  3  1  0
  5  1  1  0
  5  4  1  0
  5  6  1  6
  7  6  2  0
  8  6  1  0
  9  8  1  0
  9 10  1  6
 10 11  1  0
 11 12  1  0
 12 13  1  0
 13 14  1  0
 15 22  1  0
 15  9  1  0
 16 15  2  0
 18 19  2  0
 18 17  1  0
 21 20  1  1
 20 18  1  0
 21 23  1  0
 21 22  1  0
 23 24  1  0
 25 23  2  0
M  END
$$$$
