PKN.pdb
     RDKit          3D

 25 25  0  0  1  0  0  0  0  0999 V2000
   18.4231  -14.1821  -15.7826 N   0  0  0  0  0  0  0  0  0  0  0  0
   17.7159  -15.1493  -16.5998 C   0  0  0  0  0  0  0  0  0  0  0  0
   18.5257  -15.2536  -17.9000 C   0  0  0  0  0  0  0  0  0  0  0  0
   19.9277  -15.1082  -17.3454 C   0  0  0  0  0  0  0  0  0  0  0  0
   19.7313  -14.0099  -16.3246 C   0  0  1  0  0  0  0  0  0  0  0  0
   19.8926  -12.6777  -17.0130 C   0  0  0  0  0  0  0  0  0  0  0  0
   21.0133  -12.3716  -17.5031 O   0  0  0  0  0  0  0  0  0  0  0  0
   18.8178  -11.7604  -17.1240 N   0  0  0  0  0  0  0  0  0  0  0  0
   19.0510  -10.4474  -17.7727 C   0  0  1  0  0  0  0  0  0  0  0  0
   17.8636  -10.1571  -18.6648 C   0  0  0  0  0  0  0  0  0  0  0  0
   17.7016  -11.1239  -19.7845 C   0  0  0  0  0  0  0  0  0  0  0  0
   16.4128  -10.7395  -20.5199 C   0  0  0  0  0  0  0  0  0  0  0  0
   16.1381  -11.7500  -21.6101 C   0  0  0  0  0  0  0  0  0  0  0  0
   15.9779  -13.0734  -20.9921 N   0  0  0  0  0  0  0  0  0  0  0  0
   19.2779   -9.4627  -16.7117 C   0  0  0  0  0  0  0  0  0  0  0  0
   18.8090   -9.7047  -15.5627 O   0  0  0  0  0  0  0  0  0  0  0  0
   21.6762   -5.6614  -14.1298 N   0  0  0  0  0  0  0  0  0  0  0  0
   21.6373   -7.0510  -13.8039 C   0  0  0  0  0  0  0  0  0  0  0  0
   22.0787   -7.4340  -12.6969 O   0  0  0  0  0  0  0  0  0  0  0  0
   21.0881   -8.0464  -14.7441 C   0  0  0  0  0  0  0  0  0  0  0  0
   20.5245   -7.3954  -15.9467 C   0  0  2  0  0  0  0  0  0  0  0  0
   20.0006   -8.2744  -16.9454 N   0  0  0  0  0  0  0  0  0  0  0  0
   21.2629   -6.2306  -16.4482 C   0  0  0  0  0  0  0  0  0  0  0  0
   22.2019   -6.3586  -17.4695 O   0  0  0  0  0  0  0  0  0  0  0  0
   21.1047   -5.0683  -16.0108 O   0  0  0  0  0  0  0  0  0  0  0  0
  1  2  1  0
  2  3  1  0
  4  3  1  0
  5  1  1  0
  5  4  1  0
  5  6  1  6
  7  6  2  0
  8  6  1  0
  9  8  1  0
  9 10  1  1
 10 11  1  0
 11 12  1  0
 12 13  1  0
 13 14  1  0
 15 22  1  0
 15  9  1  0
 16 15  2  0
 18 19  2  0
 18 17  1  0
 21 20  1  1
 20 18  1  0
 21 23  1  0
 21 22  1  0
 23 24  1  0
 25 23  2  0
M  END
$$$$
