PKN.pdb
     RDKit          3D

 25 25  0  0  1  0  0  0  0  0999 V2000
   20.6971  -16.6700  -17.9695 N   0  0  0  0  0  0  0  0  0  0  0  0
   21.3080  -17.7845  -18.6681 C   0  0  0  0  0  0  0  0  0  0  0  0
   22.6121  -18.0741  -17.9113 C   0  0  0  0  0  0  0  0  0  0  0  0
   22.1595  -17.7878  -16.4944 C   0  0  0  0  0  0  0  0  0  0  0  0
   21.3245  -16.5431  -16.6948 C   0  0  1  0  0  0  0  0  0  0  0  0
   22.2295  -15.3389  -16.6219 C   0  0  0  0  0  0  0  0  0  0  0  0
   22.9583  -15.1791  -15.6055 O   0  0  0  0  0  0  0  0  0  0  0  0
   22.2830  -14.3817  -17.6660 N   0  0  0  0  0  0  0  0  0  0  0  0
   23.2444  -13.2567  -17.5678 C   0  0  1  0  0  0  0  0  0  0  0  0
   23.9553  -13.1412  -18.8988 C   0  0  0  0  0  0  0  0  0  0  0  0
   24.9318  -14.2343  -19.1562 C   0  0  0  0  0  0  0  0  0  0  0  0
   25.6463  -13.8912  -20.4682 C   0  0  0  0  0  0  0  0  0  0  0  0
   26.6259  -14.9916  -20.8072 C   0  0  0  0  0  0  0  0  0  0  0  0
   27.2126  -14.7068  -22.1239 N   0  0  0  0  0  0  0  0  0  0  0  0
   22.4925  -12.0647  -17.1671 C   0  0  0  0  0  0  0  0  0  0  0  0
   21.3165  -11.9242  -17.6096 O   0  0  0  0  0  0  0  0  0  0  0  0
   20.8445   -8.2657  -13.3473 N   0  0  0  0  0  0  0  0  0  0  0  0
   22.0325   -8.2112  -14.1375 C   0  0  0  0  0  0  0  0  0  0  0  0
   22.4587   -7.1010  -14.5284 O   0  0  0  0  0  0  0  0  0  0  0  0
   22.7693   -9.4356  -14.5038 C   0  0  0  0  0  0  0  0  0  0  0  0
   22.4023   -9.8975  -15.8602 C   0  0  2  0  0  0  0  0  0  0  0  0
   23.0468  -11.0925  -16.3090 N   0  0  0  0  0  0  0  0  0  0  0  0
   22.2368   -8.8460  -16.8703 C   0  0  0  0  0  0  0  0  0  0  0  0
   23.3089   -8.4262  -17.6549 O   0  0  0  0  0  0  0  0  0  0  0  0
   21.1497   -8.2684  -17.0984 O   0  0  0  0  0  0  0  0  0  0  0  0
  1  2  1  0
  2  3  1  0
  4  3  1  0
  5  1  1  0
  5  4  1  0
  5  6  1  6
  7  6  2  0
  8  6  1  0
  9  8  1  0
  9 10  1  6
 10 11  1  0
 11 12  1  0
 12 13  1  0
 13 14  1  0
 15 22  1  0
 15  9  1  0
 16 15  2  0
 18 19  2  0
 18 17  1  0
 21 20  1  1
 20 18  1  0
 21 23  1  0
 21 22  1  0
 23 24  1  0
 25 23  2  0
M  END
$$$$
