PKN.pdb
     RDKit          3D

 25 25  0  0  1  0  0  0  0  0999 V2000
   18.9687  -12.0120  -19.0341 N   0  0  0  0  0  0  0  0  0  0  0  0
   19.1192  -13.4407  -19.2327 C   0  0  0  0  0  0  0  0  0  0  0  0
   19.1541  -14.0465  -17.8224 C   0  0  0  0  0  0  0  0  0  0  0  0
   18.1628  -13.1384  -17.1246 C   0  0  0  0  0  0  0  0  0  0  0  0
   18.5467  -11.7893  -17.6898 C   0  0  1  0  0  0  0  0  0  0  0  0
   19.6444  -11.2042  -16.8369 C   0  0  0  0  0  0  0  0  0  0  0  0
   19.4167  -10.9695  -15.6192 O   0  0  0  0  0  0  0  0  0  0  0  0
   20.9256  -10.9114  -17.3678 N   0  0  0  0  0  0  0  0  0  0  0  0
   21.9856  -10.4051  -16.4624 C   0  0  1  0  0  0  0  0  0  0  0  0
   23.3055  -10.9751  -16.9349 C   0  0  0  0  0  0  0  0  0  0  0  0
   24.4714  -10.5561  -16.1104 C   0  0  0  0  0  0  0  0  0  0  0  0
   25.6974  -11.2841  -16.6730 C   0  0  0  0  0  0  0  0  0  0  0  0
   26.9139  -10.9247  -15.8507 C   0  0  0  0  0  0  0  0  0  0  0  0
   28.0988  -11.5217  -16.4822 N   0  0  0  0  0  0  0  0  0  0  0  0
   21.9111   -8.9419  -16.4671 C   0  0  0  0  0  0  0  0  0  0  0  0
   22.1315   -8.3365  -17.5551 O   0  0  0  0  0  0  0  0  0  0  0  0
   21.1062   -3.7955  -16.5248 N   0  0  0  0  0  0  0  0  0  0  0  0
   20.3617   -4.6980  -15.7062 C   0  0  0  0  0  0  0  0  0  0  0  0
   19.6633   -4.2444  -14.7716 O   0  0  0  0  0  0  0  0  0  0  0  0
   20.3978   -6.1545  -15.9376 C   0  0  0  0  0  0  0  0  0  0  0  0
   21.5095   -6.7886  -15.1962 C   0  0  2  0  0  0  0  0  0  0  0  0
   21.5992   -8.2118  -15.3015 N   0  0  0  0  0  0  0  0  0  0  0  0
   21.7939   -6.2295  -13.8696 C   0  0  0  0  0  0  0  0  0  0  0  0
   21.5953   -6.9816  -12.7137 O   0  0  0  0  0  0  0  0  0  0  0  0
   22.2281   -5.0700  -13.6842 O   0  0  0  0  0  0  0  0  0  0  0  0
  1  2  1  0
  2  3  1  0
  4  3  1  0
  5  1  1  0
  5  4  1  0
  5  6  1  1
  7  6  2  0
  8  6  1  0
  9  8  1  0
  9 10  1  6
 10 11  1  0
 11 12  1  0
 12 13  1  0
 13 14  1  0
 15 22  1  0
 15  9  1  0
 16 15  2  0
 18 19  2  0
 18 17  1  0
 21 20  1  1
 20 18  1  0
 21 23  1  0
 21 22  1  0
 23 24  1  0
 25 23  2  0
M  END
$$$$
