IMN.pdb
     RDKit          3D

 25 24  0  0  1  0  0  0  0  0999 V2000
   18.8849  -12.3969  -21.3064 C   0  0  0  0  0  0  0  0  0  0  0  0
   20.1597  -12.7435  -20.6038 C   0  0  0  0  0  0  0  0  0  0  0  0
   20.4994  -11.8064  -19.4653 C   0  0  2  0  0  0  0  0  0  0  0  0
   20.5772  -10.4007  -19.9464 C   0  0  0  0  0  0  0  0  0  0  0  0
   21.7884  -12.3082  -18.8489 C   0  0  2  0  0  0  0  0  0  0  0  0
   21.5362  -13.7112  -18.4644 N   0  0  0  0  0  0  0  0  0  0  0  0
   22.1784  -11.5854  -17.6209 C   0  0  0  0  0  0  0  0  0  0  0  0
   21.4687  -11.7153  -16.5617 O   0  0  0  0  0  0  0  0  0  0  0  0
   27.9525  -13.1385  -15.1486 C   0  0  0  0  0  0  0  0  0  0  0  0
   27.3358  -11.5298  -15.6677 S   0  0  0  0  0  0  0  0  0  0  0  0
   25.5008  -11.4990  -15.6787 C   0  0  0  0  0  0  0  0  0  0  0  0
   25.1052  -10.1017  -16.0466 C   0  0  0  0  0  0  0  0  0  0  0  0
   23.6195   -9.9526  -16.3130 C   0  0  2  0  0  0  0  0  0  0  0  0
   23.2924  -10.7348  -17.4833 N   0  0  0  0  0  0  0  0  0  0  0  0
   23.2254   -8.5411  -16.4514 C   0  0  0  0  0  0  0  0  0  0  0  0
   23.1117   -8.0381  -17.6166 O   0  0  0  0  0  0  0  0  0  0  0  0
   21.3746   -3.7846  -15.8154 N   0  0  0  0  0  0  0  0  0  0  0  0
   20.7768   -4.8693  -16.5636 C   0  0  0  0  0  0  0  0  0  0  0  0
   19.8429   -4.5381  -17.3257 O   0  0  0  0  0  0  0  0  0  0  0  0
   21.2648   -6.2496  -16.4084 C   0  0  0  0  0  0  0  0  0  0  0  0
   22.4730   -6.3096  -15.5604 C   0  0  2  0  0  0  0  0  0  0  0  0
   22.9560   -7.6773  -15.3614 N   0  0  0  0  0  0  0  0  0  0  0  0
   22.2737   -5.6769  -14.2627 C   0  0  0  0  0  0  0  0  0  0  0  0
   21.9191   -6.4098  -13.2775 O   0  0  0  0  0  0  0  0  0  0  0  0
   22.4301   -4.3518  -13.9848 O   0  0  0  0  0  0  0  0  0  0  0  0
  2  1  1  0
  3  2  1  0
  3  5  1  0
  3  4  1  6
  5  7  1  0
  5  6  1  1
  7  8  2  0
 10 11  1  0
 10  9  1  0
 11 12  1  0
 13 12  1  6
 14 13  1  0
 14  7  1  0
 15 16  2  0
 15 13  1  0
 17 18  1  0
 18 20  1  0
 19 18  2  0
 21 20  1  1
 21 23  1  0
 21 22  1  0
 22 15  1  0
 23 25  1  0
 24 23  2  0
M  END
$$$$
