IMN.pdb
     RDKit          3D

 25 24  0  0  1  0  0  0  0  0999 V2000
   17.0665  -11.8898  -20.2809 C   0  0  0  0  0  0  0  0  0  0  0  0
   18.4975  -12.1777  -19.9514 C   0  0  0  0  0  0  0  0  0  0  0  0
   19.0353  -11.3480  -18.8058 C   0  0  2  0  0  0  0  0  0  0  0  0
   18.9053   -9.8958  -19.1017 C   0  0  0  0  0  0  0  0  0  0  0  0
   20.4633  -11.7931  -18.5696 C   0  0  2  0  0  0  0  0  0  0  0  0
   20.3945  -13.2358  -18.2634 N   0  0  0  0  0  0  0  0  0  0  0  0
   21.1054  -11.1346  -17.4134 C   0  0  0  0  0  0  0  0  0  0  0  0
   20.7431  -11.4535  -16.2262 O   0  0  0  0  0  0  0  0  0  0  0  0
   26.6953  -11.4498  -15.3203 C   0  0  0  0  0  0  0  0  0  0  0  0
   26.6313   -9.6525  -15.2632 S   0  0  0  0  0  0  0  0  0  0  0  0
   24.8966   -9.0556  -15.2092 C   0  0  0  0  0  0  0  0  0  0  0  0
   24.1806   -9.7397  -16.3332 C   0  0  0  0  0  0  0  0  0  0  0  0
   22.6904   -9.4576  -16.3509 C   0  0  2  0  0  0  0  0  0  0  0  0
   22.1148  -10.1547  -17.4784 N   0  0  0  0  0  0  0  0  0  0  0  0
   22.4050   -8.0138  -16.3766 C   0  0  0  0  0  0  0  0  0  0  0  0
   22.7360   -7.3321  -17.4009 O   0  0  0  0  0  0  0  0  0  0  0  0
   17.9519   -6.7139  -15.6421 N   0  0  0  0  0  0  0  0  0  0  0  0
   19.1585   -6.0289  -16.0524 C   0  0  0  0  0  0  0  0  0  0  0  0
   19.3071   -5.9079  -17.2878 O   0  0  0  0  0  0  0  0  0  0  0  0
   20.1157   -5.5259  -15.0533 C   0  0  0  0  0  0  0  0  0  0  0  0
   21.5078   -5.8692  -15.4095 C   0  0  2  0  0  0  0  0  0  0  0  0
   21.7747   -7.3062  -15.3235 N   0  0  0  0  0  0  0  0  0  0  0  0
   22.4827   -5.1502  -14.5992 C   0  0  0  0  0  0  0  0  0  0  0  0
   23.3181   -5.8284  -13.9095 O   0  0  0  0  0  0  0  0  0  0  0  0
   22.5981   -3.7958  -14.4985 O   0  0  0  0  0  0  0  0  0  0  0  0
  2  1  1  0
  3  2  1  0
  3  5  1  0
  3  4  1  6
  5  7  1  0
  5  6  1  1
  7  8  2  0
 10 11  1  0
 10  9  1  0
 11 12  1  0
 13 12  1  6
 14 13  1  0
 14  7  1  0
 15 16  2  0
 15 13  1  0
 17 18  1  0
 18 20  1  0
 19 18  2  0
 21 20  1  1
 21 23  1  0
 21 22  1  0
 22 15  1  0
 23 25  1  0
 24 23  2  0
M  END
$$$$
