IMN.pdb
     RDKit          3D

 25 24  0  0  1  0  0  0  0  0999 V2000
   28.4117  -17.7543  -17.5624 C   0  0  0  0  0  0  0  0  0  0  0  0
   28.7563  -18.7825  -16.5313 C   0  0  0  0  0  0  0  0  0  0  0  0
   27.5908  -19.1699  -15.6473 C   0  0  2  0  0  0  0  0  0  0  0  0
   27.0231  -17.9726  -14.9707 C   0  0  0  0  0  0  0  0  0  0  0  0
   28.0960  -20.2262  -14.6869 C   0  0  2  0  0  0  0  0  0  0  0  0
   28.6051  -21.3290  -15.5262 N   0  0  0  0  0  0  0  0  0  0  0  0
   27.0416  -20.7918  -13.8204 C   0  0  0  0  0  0  0  0  0  0  0  0
   26.1378  -21.5402  -14.3355 O   0  0  0  0  0  0  0  0  0  0  0  0
   27.3475  -20.1749   -7.5437 C   0  0  0  0  0  0  0  0  0  0  0  0
   25.5697  -20.4518   -7.5609 S   0  0  0  0  0  0  0  0  0  0  0  0
   24.9970  -20.9579   -9.2294 C   0  0  0  0  0  0  0  0  0  0  0  0
   26.1206  -20.6509  -10.1715 C   0  0  0  0  0  0  0  0  0  0  0  0
   25.8122  -21.0223  -11.6094 C   0  0  2  0  0  0  0  0  0  0  0  0
   26.9186  -20.5893  -12.4321 N   0  0  0  0  0  0  0  0  0  0  0  0
   24.5259  -20.4639  -12.0570 C   0  0  0  0  0  0  0  0  0  0  0  0
   24.4281  -19.2095  -12.2581 O   0  0  0  0  0  0  0  0  0  0  0  0
   20.3170  -20.6184  -16.1717 N   0  0  0  0  0  0  0  0  0  0  0  0
   20.8039  -20.2603  -14.8569 C   0  0  0  0  0  0  0  0  0  0  0  0
   20.1278  -19.3969  -14.2567 O   0  0  0  0  0  0  0  0  0  0  0  0
   22.0130  -20.8924  -14.3038 C   0  0  0  0  0  0  0  0  0  0  0  0
   22.1441  -20.6442  -12.8534 C   0  0  2  0  0  0  0  0  0  0  0  0
   23.3589  -21.2334  -12.2871 N   0  0  0  0  0  0  0  0  0  0  0  0
   20.9870  -21.1139  -12.1019 C   0  0  0  0  0  0  0  0  0  0  0  0
   21.1433  -22.0919  -11.2940 O   0  0  0  0  0  0  0  0  0  0  0  0
   19.7245  -20.6053  -12.1738 O   0  0  0  0  0  0  0  0  0  0  0  0
  2  1  1  0
  3  2  1  0
  3  5  1  0
  3  4  1  1
  5  7  1  0
  5  6  1  6
  7  8  2  0
 10 11  1  0
 10  9  1  0
 11 12  1  0
 13 12  1  1
 14 13  1  0
 14  7  1  0
 15 16  2  0
 15 13  1  0
 17 18  1  0
 18 20  1  0
 19 18  2  0
 21 20  1  6
 21 23  1  0
 21 22  1  0
 22 15  1  0
 23 25  1  0
 24 23  2  0
M  END
$$$$
