IMN.pdb
     RDKit          3D

 25 24  0  0  1  0  0  0  0  0999 V2000
   21.3140  -16.4099  -21.5944 C   0  0  0  0  0  0  0  0  0  0  0  0
   21.5677  -15.7333  -20.2841 C   0  0  0  0  0  0  0  0  0  0  0  0
   20.8121  -14.4331  -20.1161 C   0  0  2  0  0  0  0  0  0  0  0  0
   21.1513  -13.4825  -21.2092 C   0  0  0  0  0  0  0  0  0  0  0  0
   21.1374  -13.9079  -18.7335 C   0  0  2  0  0  0  0  0  0  0  0  0
   20.8443  -15.0129  -17.7992 N   0  0  0  0  0  0  0  0  0  0  0  0
   20.3017  -12.7606  -18.3239 C   0  0  0  0  0  0  0  0  0  0  0  0
   20.3861  -11.6575  -18.9709 O   0  0  0  0  0  0  0  0  0  0  0  0
   16.2155  -14.6582  -14.2969 C   0  0  0  0  0  0  0  0  0  0  0  0
   15.2441  -13.5082  -15.2826 S   0  0  0  0  0  0  0  0  0  0  0  0
   16.2641  -12.7487  -16.6058 C   0  0  0  0  0  0  0  0  0  0  0  0
   17.4705  -12.1729  -15.9296 C   0  0  0  0  0  0  0  0  0  0  0  0
   18.5098  -11.6528  -16.9043 C   0  0  2  0  0  0  0  0  0  0  0  0
   19.3838  -12.7487  -17.2558 N   0  0  0  0  0  0  0  0  0  0  0  0
   19.2445  -10.4994  -16.3599 C   0  0  0  0  0  0  0  0  0  0  0  0
   20.1851  -10.6989  -15.5238 O   0  0  0  0  0  0  0  0  0  0  0  0
   20.9225   -5.7748  -15.0725 N   0  0  0  0  0  0  0  0  0  0  0  0
   21.1836   -6.1254  -16.4518 C   0  0  0  0  0  0  0  0  0  0  0  0
   21.9873   -5.3760  -17.0478 O   0  0  0  0  0  0  0  0  0  0  0  0
   20.5284   -7.2901  -17.0697 C   0  0  0  0  0  0  0  0  0  0  0  0
   19.7128   -8.0399  -16.0924 C   0  0  2  0  0  0  0  0  0  0  0  0
   18.9796   -9.1506  -16.7028 N   0  0  0  0  0  0  0  0  0  0  0  0
   18.7770   -7.1831  -15.3753 C   0  0  0  0  0  0  0  0  0  0  0  0
   19.2372   -6.1614  -14.7606 O   0  0  0  0  0  0  0  0  0  0  0  0
   17.4287   -7.3635  -15.2905 O   0  0  0  0  0  0  0  0  0  0  0  0
  2  1  1  0
  3  2  1  0
  3  5  1  0
  3  4  1  6
  5  7  1  0
  5  6  1  1
  7  8  2  0
 10 11  1  0
 10  9  1  0
 11 12  1  0
 13 12  1  1
 14 13  1  0
 14  7  1  0
 15 16  2  0
 15 13  1  0
 17 18  1  0
 18 20  1  0
 19 18  2  0
 21 20  1  6
 21 23  1  0
 21 22  1  0
 22 15  1  0
 23 25  1  0
 24 23  2  0
M  END
$$$$
