IMN.pdb
     RDKit          3D

 25 24  0  0  1  0  0  0  0  0999 V2000
   18.9225  -16.2181  -18.9541 C   0  0  0  0  0  0  0  0  0  0  0  0
   20.3701  -16.1578  -18.5800 C   0  0  0  0  0  0  0  0  0  0  0  0
   20.7273  -14.9594  -17.7278 C   0  0  2  0  0  0  0  0  0  0  0  0
   20.2894  -13.6980  -18.3839 C   0  0  0  0  0  0  0  0  0  0  0  0
   22.2190  -15.0251  -17.4753 C   0  0  2  0  0  0  0  0  0  0  0  0
   22.4589  -16.3089  -16.7868 N   0  0  0  0  0  0  0  0  0  0  0  0
   22.7167  -13.9561  -16.5853 C   0  0  0  0  0  0  0  0  0  0  0  0
   22.3446  -13.9336  -15.3592 O   0  0  0  0  0  0  0  0  0  0  0  0
   28.4995  -11.6440  -15.7220 C   0  0  0  0  0  0  0  0  0  0  0  0
   27.6530  -10.0734  -15.9553 S   0  0  0  0  0  0  0  0  0  0  0  0
   25.8563  -10.2361  -15.6185 C   0  0  0  0  0  0  0  0  0  0  0  0
   25.3902  -11.4339  -16.3880 C   0  0  0  0  0  0  0  0  0  0  0  0
   23.9309  -11.7685  -16.1452 C   0  0  2  0  0  0  0  0  0  0  0  0
   23.5929  -12.9171  -16.9545 N   0  0  0  0  0  0  0  0  0  0  0  0
   23.0524  -10.6170  -16.4078 C   0  0  0  0  0  0  0  0  0  0  0  0
   22.7555  -10.3223  -17.6114 O   0  0  0  0  0  0  0  0  0  0  0  0
   19.8298   -6.6416  -16.3012 N   0  0  0  0  0  0  0  0  0  0  0  0
   19.6902   -7.3282  -15.0352 C   0  0  0  0  0  0  0  0  0  0  0  0
   18.7559   -6.9223  -14.3105 O   0  0  0  0  0  0  0  0  0  0  0  0
   20.6046   -8.4217  -14.6668 C   0  0  0  0  0  0  0  0  0  0  0  0
   21.6097   -8.6713  -15.7203 C   0  0  2  0  0  0  0  0  0  0  0  0
   22.4978   -9.7903  -15.3999 N   0  0  0  0  0  0  0  0  0  0  0  0
   22.4117   -7.4906  -16.0148 C   0  0  0  0  0  0  0  0  0  0  0  0
   23.5057   -7.3241  -15.3752 O   0  0  0  0  0  0  0  0  0  0  0  0
   22.1079   -6.5219  -16.9242 O   0  0  0  0  0  0  0  0  0  0  0  0
  2  1  1  0
  3  2  1  0
  3  5  1  0
  3  4  1  6
  5  7  1  0
  5  6  1  1
  7  8  2  0
 10 11  1  0
 10  9  1  0
 11 12  1  0
 13 12  1  6
 14 13  1  0
 14  7  1  0
 15 16  2  0
 15 13  1  0
 17 18  1  0
 18 20  1  0
 19 18  2  0
 21 20  1  1
 21 23  1  0
 21 22  1  0
 22 15  1  0
 23 25  1  0
 24 23  2  0
M  END
$$$$
