VDD.pdb
     RDKit          3D

 24 23  0  0  1  0  0  0  0  0999 V2000
   23.9406  -20.1366  -15.7316 C   0  0  0  0  0  0  0  0  0  0  0  0
   24.8864  -20.6947  -14.6987 C   0  0  2  0  0  0  0  0  0  0  0  0
   26.1251  -21.1823  -15.3774 C   0  0  0  0  0  0  0  0  0  0  0  0
   24.1514  -21.7703  -13.9295 C   0  0  2  0  0  0  0  0  0  0  0  0
   23.7984  -22.7951  -14.9243 N   0  0  0  0  0  0  0  0  0  0  0  0
   22.9357  -21.2484  -13.2687 C   0  0  0  0  0  0  0  0  0  0  0  0
   23.0481  -20.3577  -12.4019 O   0  0  0  0  0  0  0  0  0  0  0  0
   21.6630  -21.7527  -13.6150 N   0  0  0  0  0  0  0  0  0  0  0  0
   20.4196  -21.2547  -12.9230 C   0  0  1  0  0  0  0  0  0  0  0  0
   19.4619  -21.0180  -14.0810 C   0  0  0  0  0  0  0  0  0  0  0  0
   18.7402  -19.7679  -14.1146 C   0  0  0  0  0  0  0  0  0  0  0  0
   18.5780  -19.0069  -13.1554 O   0  0  0  0  0  0  0  0  0  0  0  0
   19.9762  -22.4265  -12.1412 C   0  0  0  0  0  0  0  0  0  0  0  0
   20.3693  -23.5753  -12.5522 O   0  0  0  0  0  0  0  0  0  0  0  0
   18.1498  -19.3320  -15.3245 O   0  0  0  0  0  0  0  0  0  0  0  0
   19.1660  -22.3594  -10.9884 N   0  0  0  0  0  0  0  0  0  0  0  0
   18.9082  -23.6218  -10.2731 C   0  0  1  0  0  0  0  0  0  0  0  0
   19.4482  -23.5486   -8.8647 C   0  0  0  0  0  0  0  0  0  0  0  0
   19.1848  -24.8158   -8.1355 C   0  0  0  0  0  0  0  0  0  0  0  0
   18.9042  -25.9000   -8.7358 O   0  0  0  0  0  0  0  0  0  0  0  0
   17.4464  -23.8438  -10.2409 C   0  0  0  0  0  0  0  0  0  0  0  0
   16.6231  -22.9505  -10.5756 O   0  0  0  0  0  0  0  0  0  0  0  0
   19.2343  -24.8756   -6.7337 O   0  0  0  0  0  0  0  0  0  0  0  0
   16.9353  -25.0682   -9.8322 O   0  0  0  0  0  0  0  0  0  0  0  0
  2  1  1  6
  2  3  1  0
  4  6  1  0
  4  2  1  0
  4  5  1  6
  6  7  2  0
  8  6  1  0
  8  9  1  0
  9 10  1  6
 11 10  1  0
 11 15  1  0
 12 11  2  0
 13 16  1  0
 13  9  1  0
 14 13  2  0
 17 21  1  0
 17 18  1  1
 17 16  1  0
 19 18  1  0
 19 23  1  0
 20 19  2  0
 21 24  1  0
 22 21  2  0
M  END
$$$$
