VDD.pdb
     RDKit          3D

 24 23  0  0  1  0  0  0  0  0999 V2000
   14.1984   -8.7648   -9.3154 C   0  0  0  0  0  0  0  0  0  0  0  0
   14.8485   -7.8149   -8.3417 C   0  0  2  0  0  0  0  0  0  0  0  0
   13.8021   -6.9352   -7.7386 C   0  0  0  0  0  0  0  0  0  0  0  0
   15.9267   -7.0559   -9.0834 C   0  0  2  0  0  0  0  0  0  0  0  0
   15.2138   -6.1186   -9.9651 N   0  0  0  0  0  0  0  0  0  0  0  0
   16.7943   -7.9547   -9.8750 C   0  0  0  0  0  0  0  0  0  0  0  0
   17.5802   -8.7212   -9.2817 O   0  0  0  0  0  0  0  0  0  0  0  0
   16.7334   -7.9449  -11.2858 N   0  0  0  0  0  0  0  0  0  0  0  0
   17.7006   -8.7593  -12.1070 C   0  0  1  0  0  0  0  0  0  0  0  0
   16.7828   -9.5151  -13.0560 C   0  0  0  0  0  0  0  0  0  0  0  0
   17.3935  -10.3619  -14.0534 C   0  0  0  0  0  0  0  0  0  0  0  0
   16.7868  -11.0278  -14.8984 O   0  0  0  0  0  0  0  0  0  0  0  0
   18.4552   -7.7337  -12.8549 C   0  0  0  0  0  0  0  0  0  0  0  0
   17.7686   -6.9190  -13.5678 O   0  0  0  0  0  0  0  0  0  0  0  0
   18.8030  -10.4731  -14.1103 O   0  0  0  0  0  0  0  0  0  0  0  0
   19.8588   -7.5952  -12.8289 N   0  0  0  0  0  0  0  0  0  0  0  0
   20.4460   -6.5374  -13.6703 C   0  0  1  0  0  0  0  0  0  0  0  0
   20.5833   -5.2552  -12.8845 C   0  0  0  0  0  0  0  0  0  0  0  0
   21.2451   -4.2067  -13.7029 C   0  0  0  0  0  0  0  0  0  0  0  0
   20.7563   -3.7911  -14.7998 O   0  0  0  0  0  0  0  0  0  0  0  0
   21.7771   -6.9946  -14.1244 C   0  0  0  0  0  0  0  0  0  0  0  0
   22.5136   -6.2898  -14.8651 O   0  0  0  0  0  0  0  0  0  0  0  0
   22.4544   -3.6194  -13.2984 O   0  0  0  0  0  0  0  0  0  0  0  0
   22.2573   -8.2384  -13.7373 O   0  0  0  0  0  0  0  0  0  0  0  0
  2  1  1  6
  2  3  1  0
  4  6  1  0
  4  2  1  0
  4  5  1  6
  6  7  2  0
  8  6  1  0
  8  9  1  0
  9 10  1  6
 11 10  1  0
 11 15  1  0
 12 11  2  0
 13 16  1  0
 13  9  1  0
 14 13  2  0
 17 21  1  0
 17 18  1  1
 17 16  1  0
 19 18  1  0
 19 23  1  0
 20 19  2  0
 21 24  1  0
 22 21  2  0
M  END
$$$$
