VDD.pdb
     RDKit          3D

 24 23  0  0  1  0  0  0  0  0999 V2000
   16.2421   -9.6590  -17.0297 C   0  0  0  0  0  0  0  0  0  0  0  0
   15.8363  -11.0533  -16.6243 C   0  0  2  0  0  0  0  0  0  0  0  0
   15.5549  -11.0775  -15.1571 C   0  0  0  0  0  0  0  0  0  0  0  0
   16.9389  -11.9989  -17.0473 C   0  0  2  0  0  0  0  0  0  0  0  0
   16.4299  -13.3499  -16.7644 N   0  0  0  0  0  0  0  0  0  0  0  0
   18.1958  -11.7529  -16.3080 C   0  0  0  0  0  0  0  0  0  0  0  0
   18.3265  -12.2170  -15.1570 O   0  0  0  0  0  0  0  0  0  0  0  0
   19.2355  -11.0015  -16.8985 N   0  0  0  0  0  0  0  0  0  0  0  0
   20.5322  -10.7671  -16.1659 C   0  0  1  0  0  0  0  0  0  0  0  0
   21.5759  -11.2190  -17.1761 C   0  0  0  0  0  0  0  0  0  0  0  0
   22.9652  -11.1441  -16.7900 C   0  0  0  0  0  0  0  0  0  0  0  0
   23.9177  -10.9967  -17.5624 O   0  0  0  0  0  0  0  0  0  0  0  0
   20.5790   -9.2979  -16.0245 C   0  0  0  0  0  0  0  0  0  0  0  0
   20.0083   -8.6122  -16.9449 O   0  0  0  0  0  0  0  0  0  0  0  0
   23.3189  -11.2424  -15.4234 O   0  0  0  0  0  0  0  0  0  0  0  0
   21.1974   -8.6161  -14.9554 N   0  0  0  0  0  0  0  0  0  0  0  0
   21.2286   -7.1444  -15.0246 C   0  0  1  0  0  0  0  0  0  0  0  0
   21.4823   -6.5583  -13.6562 C   0  0  0  0  0  0  0  0  0  0  0  0
   21.5336   -5.0751  -13.7222 C   0  0  0  0  0  0  0  0  0  0  0  0
   20.6193   -4.3871  -14.2749 O   0  0  0  0  0  0  0  0  0  0  0  0
   22.3118   -6.7489  -15.9505 C   0  0  0  0  0  0  0  0  0  0  0  0
   23.2676   -7.5190  -16.2353 O   0  0  0  0  0  0  0  0  0  0  0  0
   22.6060   -4.3560  -13.1708 O   0  0  0  0  0  0  0  0  0  0  0  0
   22.3014   -5.4923  -16.5408 O   0  0  0  0  0  0  0  0  0  0  0  0
  2  1  1  1
  2  3  1  0
  4  6  1  0
  4  2  1  0
  4  5  1  1
  6  7  2  0
  8  6  1  0
  8  9  1  0
  9 10  1  6
 11 10  1  0
 11 15  1  0
 12 11  2  0
 13 16  1  0
 13  9  1  0
 14 13  2  0
 17 21  1  0
 17 18  1  1
 17 16  1  0
 19 18  1  0
 19 23  1  0
 20 19  2  0
 21 24  1  0
 22 21  2  0
M  END
$$$$
