VDD.pdb
     RDKit          3D

 24 23  0  0  1  0  0  0  0  0999 V2000
   18.6045  -13.6785  -16.3175 C   0  0  0  0  0  0  0  0  0  0  0  0
   19.6450  -13.4387  -17.3819 C   0  0  2  0  0  0  0  0  0  0  0  0
   20.7504  -14.4313  -17.2227 C   0  0  0  0  0  0  0  0  0  0  0  0
   20.0995  -12.0000  -17.2708 C   0  0  2  0  0  0  0  0  0  0  0  0
   20.8599  -11.9226  -16.0138 N   0  0  0  0  0  0  0  0  0  0  0  0
   18.9600  -11.0576  -17.2465 C   0  0  0  0  0  0  0  0  0  0  0  0
   18.2171  -10.9740  -18.2457 O   0  0  0  0  0  0  0  0  0  0  0  0
   18.7161  -10.2622  -16.1054 N   0  0  0  0  0  0  0  0  0  0  0  0
   17.5035   -9.3694  -16.0302 C   0  0  1  0  0  0  0  0  0  0  0  0
   16.8048   -9.8566  -14.7698 C   0  0  0  0  0  0  0  0  0  0  0  0
   15.7269  -10.8055  -14.9201 C   0  0  0  0  0  0  0  0  0  0  0  0
   14.9519  -10.8651  -15.8800 O   0  0  0  0  0  0  0  0  0  0  0  0
   18.0833   -8.0321  -15.7932 C   0  0  0  0  0  0  0  0  0  0  0  0
   18.9736   -7.9447  -14.8751 O   0  0  0  0  0  0  0  0  0  0  0  0
   15.4965  -11.7699  -13.9105 O   0  0  0  0  0  0  0  0  0  0  0  0
   17.7276   -6.8679  -16.5060 N   0  0  0  0  0  0  0  0  0  0  0  0
   18.4031   -5.6143  -16.1266 C   0  0  1  0  0  0  0  0  0  0  0  0
   18.4385   -4.6604  -17.2968 C   0  0  0  0  0  0  0  0  0  0  0  0
   19.4463   -5.0955  -18.2978 C   0  0  0  0  0  0  0  0  0  0  0  0
   20.3257   -5.9755  -18.0390 O   0  0  0  0  0  0  0  0  0  0  0  0
   17.6540   -5.0077  -15.0050 C   0  0  0  0  0  0  0  0  0  0  0  0
   16.5497   -5.4666  -14.6078 O   0  0  0  0  0  0  0  0  0  0  0  0
   19.4747   -4.5490  -19.5907 O   0  0  0  0  0  0  0  0  0  0  0  0
   18.1604   -3.8939  -14.3489 O   0  0  0  0  0  0  0  0  0  0  0  0
  2  1  1  1
  2  3  1  0
  4  6  1  0
  4  2  1  0
  4  5  1  1
  6  7  2  0
  8  6  1  0
  8  9  1  0
  9 10  1  1
 11 10  1  0
 11 15  1  0
 12 11  2  0
 13 16  1  0
 13  9  1  0
 14 13  2  0
 17 21  1  0
 17 18  1  6
 17 16  1  0
 19 18  1  0
 19 23  1  0
 20 19  2  0
 21 24  1  0
 22 21  2  0
M  END
$$$$
