VDD.pdb
     RDKit          3D

 24 23  0  0  1  0  0  0  0  0999 V2000
   23.6046  -11.0985  -22.4032 C   0  0  0  0  0  0  0  0  0  0  0  0
   22.4804  -10.2771  -21.8248 C   0  0  2  0  0  0  0  0  0  0  0  0
   22.0064   -9.2994  -22.8504 C   0  0  0  0  0  0  0  0  0  0  0  0
   22.9853   -9.6286  -20.5546 C   0  0  2  0  0  0  0  0  0  0  0  0
   23.4417  -10.7363  -19.7007 N   0  0  0  0  0  0  0  0  0  0  0  0
   21.9308   -8.8481  -19.8721 C   0  0  0  0  0  0  0  0  0  0  0  0
   21.4634   -7.8355  -20.4321 O   0  0  0  0  0  0  0  0  0  0  0  0
   21.4589   -9.2447  -18.6016 N   0  0  0  0  0  0  0  0  0  0  0  0
   20.3391   -8.4960  -17.9245 C   0  0  1  0  0  0  0  0  0  0  0  0
   19.6815   -9.5717  -17.0733 C   0  0  0  0  0  0  0  0  0  0  0  0
   18.6382   -9.1660  -16.1613 C   0  0  0  0  0  0  0  0  0  0  0  0
   18.2022   -8.0173  -16.0349 O   0  0  0  0  0  0  0  0  0  0  0  0
   21.0511   -7.5383  -17.0547 C   0  0  0  0  0  0  0  0  0  0  0  0
   22.1661   -7.9300  -16.5582 O   0  0  0  0  0  0  0  0  0  0  0  0
   18.0308  -10.1274  -15.3192 O   0  0  0  0  0  0  0  0  0  0  0  0
   20.5901   -6.2410  -16.7470 N   0  0  0  0  0  0  0  0  0  0  0  0
   21.4668   -5.3948  -15.9180 C   0  0  1  0  0  0  0  0  0  0  0  0
   21.2216   -3.9344  -16.2137 C   0  0  0  0  0  0  0  0  0  0  0  0
   22.1056   -3.0757  -15.3842 C   0  0  0  0  0  0  0  0  0  0  0  0
   23.3629   -3.2501  -15.3258 O   0  0  0  0  0  0  0  0  0  0  0  0
   21.1711   -5.6773  -14.4968 C   0  0  0  0  0  0  0  0  0  0  0  0
   21.7596   -5.0803  -13.5560 O   0  0  0  0  0  0  0  0  0  0  0  0
   21.5878   -2.0196  -14.6176 O   0  0  0  0  0  0  0  0  0  0  0  0
   20.2174   -6.6276  -14.1578 O   0  0  0  0  0  0  0  0  0  0  0  0
  2  1  1  6
  2  3  1  0
  4  6  1  0
  4  2  1  0
  4  5  1  1
  6  7  2  0
  8  6  1  0
  8  9  1  0
  9 10  1  1
 11 10  1  0
 11 15  1  0
 12 11  2  0
 13 16  1  0
 13  9  1  0
 14 13  2  0
 17 21  1  0
 17 18  1  6
 17 16  1  0
 19 18  1  0
 19 23  1  0
 20 19  2  0
 21 24  1  0
 22 21  2  0
M  END
$$$$
