VDD.pdb
     RDKit          3D

 24 23  0  0  1  0  0  0  0  0999 V2000
   15.0463  -10.8355  -17.9248 C   0  0  0  0  0  0  0  0  0  0  0  0
   16.1573  -11.7940  -17.5783 C   0  0  2  0  0  0  0  0  0  0  0  0
   15.5688  -13.1147  -17.2015 C   0  0  0  0  0  0  0  0  0  0  0  0
   16.9886  -11.1642  -16.4824 C   0  0  2  0  0  0  0  0  0  0  0  0
   16.2013  -11.3227  -15.2497 N   0  0  0  0  0  0  0  0  0  0  0  0
   17.2609   -9.7343  -16.7436 C   0  0  0  0  0  0  0  0  0  0  0  0
   17.9607   -9.4171  -17.7270 O   0  0  0  0  0  0  0  0  0  0  0  0
   16.7347   -8.7401  -15.8899 N   0  0  0  0  0  0  0  0  0  0  0  0
   17.0699   -7.2851  -16.0988 C   0  0  1  0  0  0  0  0  0  0  0  0
   15.8296   -6.5758  -15.5767 C   0  0  0  0  0  0  0  0  0  0  0  0
   15.8478   -5.1328  -15.5289 C   0  0  0  0  0  0  0  0  0  0  0  0
   16.7160   -4.4092  -16.0271 O   0  0  0  0  0  0  0  0  0  0  0  0
   18.1983   -7.0624  -15.1725 C   0  0  0  0  0  0  0  0  0  0  0  0
   18.3145   -7.8867  -14.1976 O   0  0  0  0  0  0  0  0  0  0  0  0
   14.8058   -4.4405  -14.8676 O   0  0  0  0  0  0  0  0  0  0  0  0
   19.1414   -6.0207  -15.2959 N   0  0  0  0  0  0  0  0  0  0  0  0
   20.3369   -6.0905  -14.4371 C   0  0  1  0  0  0  0  0  0  0  0  0
   21.1095   -7.3584  -14.7125 C   0  0  0  0  0  0  0  0  0  0  0  0
   22.4024   -7.3542  -13.9807 C   0  0  0  0  0  0  0  0  0  0  0  0
   22.7434   -6.4046  -13.2082 O   0  0  0  0  0  0  0  0  0  0  0  0
   21.1827   -4.9125  -14.7270 C   0  0  0  0  0  0  0  0  0  0  0  0
   21.1739   -4.3380  -15.8484 O   0  0  0  0  0  0  0  0  0  0  0  0
   23.3179   -8.4108  -14.1094 O   0  0  0  0  0  0  0  0  0  0  0  0
   22.0250   -4.4005  -13.7492 O   0  0  0  0  0  0  0  0  0  0  0  0
  2  1  1  1
  2  3  1  0
  4  6  1  0
  4  2  1  0
  4  5  1  1
  6  7  2  0
  8  6  1  0
  8  9  1  0
  9 10  1  1
 11 10  1  0
 11 15  1  0
 12 11  2  0
 13 16  1  0
 13  9  1  0
 14 13  2  0
 17 21  1  0
 17 18  1  6
 17 16  1  0
 19 18  1  0
 19 23  1  0
 20 19  2  0
 21 24  1  0
 22 21  2  0
M  END
$$$$
