VDD.pdb
     RDKit          3D

 24 23  0  0  1  0  0  0  0  0999 V2000
   19.3983  -12.8466  -18.5250 C   0  0  0  0  0  0  0  0  0  0  0  0
   20.4076  -13.1858  -17.4577 C   0  0  2  0  0  0  0  0  0  0  0  0
   20.0694  -14.5148  -16.8644 C   0  0  0  0  0  0  0  0  0  0  0  0
   20.4167  -12.0559  -16.4517 C   0  0  2  0  0  0  0  0  0  0  0  0
   19.1394  -12.1607  -15.7293 N   0  0  0  0  0  0  0  0  0  0  0  0
   20.5374  -10.7335  -17.1026 C   0  0  0  0  0  0  0  0  0  0  0  0
   21.5770  -10.4588  -17.7361 O   0  0  0  0  0  0  0  0  0  0  0  0
   19.4881   -9.7932  -17.0080 N   0  0  0  0  0  0  0  0  0  0  0  0
   19.5650   -8.4734  -17.7327 C   0  0  1  0  0  0  0  0  0  0  0  0
   18.2502   -8.4319  -18.4966 C   0  0  0  0  0  0  0  0  0  0  0  0
   17.9891   -7.2805  -19.3280 C   0  0  0  0  0  0  0  0  0  0  0  0
   18.0961   -6.1017  -18.9752 O   0  0  0  0  0  0  0  0  0  0  0  0
   19.5358   -7.4843  -16.6366 C   0  0  0  0  0  0  0  0  0  0  0  0
   18.7803   -7.7544  -15.6370 O   0  0  0  0  0  0  0  0  0  0  0  0
   17.5732   -7.4637  -20.6680 O   0  0  0  0  0  0  0  0  0  0  0  0
   20.2790   -6.2853  -16.6206 N   0  0  0  0  0  0  0  0  0  0  0  0
   20.1711   -5.4433  -15.4159 C   0  0  1  0  0  0  0  0  0  0  0  0
   21.5086   -5.3434  -14.7220 C   0  0  0  0  0  0  0  0  0  0  0  0
   21.6672   -6.4367  -13.7289 C   0  0  0  0  0  0  0  0  0  0  0  0
   20.7196   -7.2305  -13.4344 O   0  0  0  0  0  0  0  0  0  0  0  0
   19.7181   -4.0984  -15.8321 C   0  0  0  0  0  0  0  0  0  0  0  0
   19.5766   -3.7815  -17.0434 O   0  0  0  0  0  0  0  0  0  0  0  0
   22.8847   -6.6468  -13.0620 O   0  0  0  0  0  0  0  0  0  0  0  0
   19.4319   -3.1319  -14.8774 O   0  0  0  0  0  0  0  0  0  0  0  0
  2  1  1  6
  2  3  1  0
  4  6  1  0
  4  2  1  0
  4  5  1  6
  6  7  2  0
  8  6  1  0
  8  9  1  0
  9 10  1  6
 11 10  1  0
 11 15  1  0
 12 11  2  0
 13 16  1  0
 13  9  1  0
 14 13  2  0
 17 21  1  0
 17 18  1  6
 17 16  1  0
 19 18  1  0
 19 23  1  0
 20 19  2  0
 21 24  1  0
 22 21  2  0
M  END
$$$$
