YED.pdb
     RDKit          3D

 30 30  0  0  1  0  0  0  0  0999 V2000
    7.7933  -12.5887   26.7317 O   0  0  0  0  0  0  0  0  0  0  0  0
    7.4987  -13.1584   25.5047 C   0  0  0  0  0  0  0  0  0  0  0  0
    7.0693  -14.4686   25.4306 C   0  0  0  0  0  0  0  0  0  0  0  0
    6.7673  -15.0737   24.2357 C   0  0  0  0  0  0  0  0  0  0  0  0
    6.8962  -14.3492   23.0705 C   0  0  0  0  0  0  0  0  0  0  0  0
    6.5700  -15.0033   21.7877 C   0  0  0  0  0  0  0  0  0  0  0  0
    7.7800  -15.4684   21.0422 C   0  0  2  0  0  0  0  0  0  0  0  0
    7.3560  -16.0874   19.8032 N   0  0  0  0  0  0  0  0  0  0  0  0
    8.6210  -16.3980   21.8484 C   0  0  0  0  0  0  0  0  0  0  0  0
    8.2883  -17.6063   21.9489 O   0  0  0  0  0  0  0  0  0  0  0  0
    7.3220  -13.0359   23.0992 C   0  0  0  0  0  0  0  0  0  0  0  0
    7.6134  -12.4717   24.3165 C   0  0  0  0  0  0  0  0  0  0  0  0
    9.7732  -15.9218   22.4884 N   0  0  0  0  0  0  0  0  0  0  0  0
   10.8175  -16.6688   23.1099 C   0  0  1  0  0  0  0  0  0  0  0  0
   12.2134  -16.1445   22.8877 C   0  0  0  0  0  0  0  0  0  0  0  0
   13.3251  -16.9365   23.4639 C   0  0  0  0  0  0  0  0  0  0  0  0
   14.6898  -16.3560   23.2069 C   0  0  0  0  0  0  0  0  0  0  0  0
   15.2431  -16.4602   22.1017 O   0  0  0  0  0  0  0  0  0  0  0  0
   10.6083  -16.9290   24.5324 C   0  0  0  0  0  0  0  0  0  0  0  0
   10.5180  -15.9790   25.3916 O   0  0  0  0  0  0  0  0  0  0  0  0
   15.3753  -15.6821   24.2094 O   0  0  0  0  0  0  0  0  0  0  0  0
   10.4958  -18.2620   25.0126 N   0  0  0  0  0  0  0  0  0  0  0  0
   10.2237  -18.5069   26.4251 C   0  0  1  0  0  0  0  0  0  0  0  0
    9.5391  -19.8706   26.5158 C   0  0  0  0  0  0  0  0  0  0  0  0
    8.2834  -19.6823   27.2985 C   0  0  0  0  0  0  0  0  0  0  0  0
    8.0799  -18.5698   27.8815 O   0  0  0  0  0  0  0  0  0  0  0  0
   11.5126  -18.4837   27.1489 C   0  0  0  0  0  0  0  0  0  0  0  0
   11.5243  -18.3930   28.4015 O   0  0  0  0  0  0  0  0  0  0  0  0
    7.3689  -20.7320   27.3697 O   0  0  0  0  0  0  0  0  0  0  0  0
   12.6981  -18.5605   26.4640 O   0  0  0  0  0  0  0  0  0  0  0  0
  2  1  1  0
  3  2  2  0
  4  3  1  0
  5 11  1  0
  5  4  2  0
  6  5  1  0
  7  9  1  0
  7  6  1  0
  7  8  1  6
  9 10  2  0
 11 12  2  0
 12  2  1  0
 13 14  1  0
 13  9  1  0
 14 15  1  1
 15 16  1  0
 16 17  1  0
 17 21  1  0
 17 18  2  0
 19 14  1  0
 20 19  2  0
 22 19  1  0
 23 27  1  0
 23 22  1  0
 23 24  1  6
 25 24  1  0
 26 25  2  0
 27 30  1  0
 28 27  2  0
 29 25  1  0
M  END
$$$$
