YED.pdb
     RDKit          3D

 30 30  0  0  1  0  0  0  0  0999 V2000
    5.4879  -10.7968   28.4050 O   0  0  0  0  0  0  0  0  0  0  0  0
    6.1286  -11.7228   27.5994 C   0  0  0  0  0  0  0  0  0  0  0  0
    5.6417  -12.0033   26.3382 C   0  0  0  0  0  0  0  0  0  0  0  0
    6.2445  -12.9145   25.5065 C   0  0  0  0  0  0  0  0  0  0  0  0
    7.3739  -13.5714   25.9446 C   0  0  0  0  0  0  0  0  0  0  0  0
    8.0194  -14.5500   25.0472 C   0  0  0  0  0  0  0  0  0  0  0  0
    7.0884  -15.6254   24.5856 C   0  0  2  0  0  0  0  0  0  0  0  0
    6.6266  -16.3703   25.7390 N   0  0  0  0  0  0  0  0  0  0  0  0
    7.7170  -16.5268   23.5788 C   0  0  0  0  0  0  0  0  0  0  0  0
    8.2906  -17.5786   23.9603 O   0  0  0  0  0  0  0  0  0  0  0  0
    7.8948  -13.3206   27.1988 C   0  0  0  0  0  0  0  0  0  0  0  0
    7.2589  -12.4018   27.9967 C   0  0  0  0  0  0  0  0  0  0  0  0
    7.6663  -16.1980   22.2174 N   0  0  0  0  0  0  0  0  0  0  0  0
    8.5228  -16.6372   21.1647 C   0  0  1  0  0  0  0  0  0  0  0  0
    8.1694  -16.1369   19.7871 C   0  0  0  0  0  0  0  0  0  0  0  0
    8.9303  -16.7093   18.6520 C   0  0  0  0  0  0  0  0  0  0  0  0
    8.4428  -16.2638   17.2995 C   0  0  0  0  0  0  0  0  0  0  0  0
    7.7786  -17.0137   16.5682 O   0  0  0  0  0  0  0  0  0  0  0  0
    9.9462  -16.4246   21.4172 C   0  0  0  0  0  0  0  0  0  0  0  0
   10.3655  -15.5279   22.2350 O   0  0  0  0  0  0  0  0  0  0  0  0
    8.7265  -14.9889   16.8268 O   0  0  0  0  0  0  0  0  0  0  0  0
   10.9221  -17.2180   20.7551 N   0  0  0  0  0  0  0  0  0  0  0  0
   12.1498  -17.5923   21.4494 C   0  0  1  0  0  0  0  0  0  0  0  0
   11.7529  -18.5629   22.5616 C   0  0  0  0  0  0  0  0  0  0  0  0
   12.6360  -18.2797   23.7299 C   0  0  0  0  0  0  0  0  0  0  0  0
   12.9605  -19.2353   24.5048 O   0  0  0  0  0  0  0  0  0  0  0  0
   13.0584  -18.2176   20.4650 C   0  0  0  0  0  0  0  0  0  0  0  0
   12.6430  -19.1535   19.7377 O   0  0  0  0  0  0  0  0  0  0  0  0
   13.0795  -16.9749   23.9397 O   0  0  0  0  0  0  0  0  0  0  0  0
   14.3531  -17.7844   20.3381 O   0  0  0  0  0  0  0  0  0  0  0  0
  2  1  1  0
  3  2  2  0
  4  3  1  0
  5 11  1  0
  5  4  2  0
  6  5  1  0
  7  9  1  0
  7  6  1  0
  7  8  1  1
  9 10  2  0
 11 12  2  0
 12  2  1  0
 13 14  1  0
 13  9  1  0
 14 15  1  6
 15 16  1  0
 16 17  1  0
 17 21  1  0
 17 18  2  0
 19 14  1  0
 20 19  2  0
 22 19  1  0
 23 27  1  0
 23 22  1  0
 23 24  1  1
 25 24  1  0
 26 25  2  0
 27 30  1  0
 28 27  2  0
 29 25  1  0
M  END
$$$$
