YED.pdb
     RDKit          3D

 30 30  0  0  1  0  0  0  0  0999 V2000
    4.8289  -10.3896   26.5846 O   0  0  0  0  0  0  0  0  0  0  0  0
    5.6899  -11.4208   26.2496 C   0  0  0  0  0  0  0  0  0  0  0  0
    5.8421  -11.8000   24.9308 C   0  0  0  0  0  0  0  0  0  0  0  0
    6.6838  -12.8172   24.5538 C   0  0  0  0  0  0  0  0  0  0  0  0
    7.4016  -13.4824   25.5240 C   0  0  0  0  0  0  0  0  0  0  0  0
    8.3059  -14.5752   25.1146 C   0  0  0  0  0  0  0  0  0  0  0  0
    7.5791  -15.8222   24.7236 C   0  0  2  0  0  0  0  0  0  0  0  0
    6.8854  -16.3420   25.8841 N   0  0  0  0  0  0  0  0  0  0  0  0
    8.4868  -16.8474   24.1349 C   0  0  0  0  0  0  0  0  0  0  0  0
    9.0006  -17.7213   24.8786 O   0  0  0  0  0  0  0  0  0  0  0  0
    7.2797  -13.1350   26.8551 C   0  0  0  0  0  0  0  0  0  0  0  0
    6.4260  -12.1120   27.1861 C   0  0  0  0  0  0  0  0  0  0  0  0
    8.7624  -16.8312   22.7609 N   0  0  0  0  0  0  0  0  0  0  0  0
    9.7413  -17.5793   22.0420 C   0  0  1  0  0  0  0  0  0  0  0  0
    9.7658  -17.3552   20.5514 C   0  0  0  0  0  0  0  0  0  0  0  0
   10.6020  -18.2789   19.7498 C   0  0  0  0  0  0  0  0  0  0  0  0
   10.5390  -18.0328   18.2662 C   0  0  0  0  0  0  0  0  0  0  0  0
   11.5173  -17.6035   17.6361 O   0  0  0  0  0  0  0  0  0  0  0  0
   11.0958  -17.4731   22.5797 C   0  0  0  0  0  0  0  0  0  0  0  0
   11.6001  -16.3471   22.9353 O   0  0  0  0  0  0  0  0  0  0  0  0
    9.3725  -18.2804   17.5541 O   0  0  0  0  0  0  0  0  0  0  0  0
   11.9056  -18.6318   22.7277 N   0  0  0  0  0  0  0  0  0  0  0  0
   13.1675  -18.5503   23.4558 C   0  0  1  0  0  0  0  0  0  0  0  0
   13.2851  -19.8287   24.2856 C   0  0  0  0  0  0  0  0  0  0  0  0
   14.6244  -19.8068   24.9418 C   0  0  0  0  0  0  0  0  0  0  0  0
   15.6519  -19.5420   24.2396 O   0  0  0  0  0  0  0  0  0  0  0  0
   14.2586  -18.4290   22.4656 C   0  0  0  0  0  0  0  0  0  0  0  0
   15.4396  -18.2540   22.8554 O   0  0  0  0  0  0  0  0  0  0  0  0
   14.7117  -20.0784   26.3063 O   0  0  0  0  0  0  0  0  0  0  0  0
   13.9928  -18.5059   21.1226 O   0  0  0  0  0  0  0  0  0  0  0  0
  2  1  1  0
  3  2  2  0
  4  3  1  0
  5 11  1  0
  5  4  2  0
  6  5  1  0
  7  9  1  0
  7  6  1  0
  7  8  1  1
  9 10  2  0
 11 12  2  0
 12  2  1  0
 13 14  1  0
 13  9  1  0
 14 15  1  6
 15 16  1  0
 16 17  1  0
 17 21  1  0
 17 18  2  0
 19 14  1  0
 20 19  2  0
 22 19  1  0
 23 27  1  0
 23 22  1  0
 23 24  1  6
 25 24  1  0
 26 25  2  0
 27 30  1  0
 28 27  2  0
 29 25  1  0
M  END
$$$$
