YED.pdb
     RDKit          3D

 30 30  0  0  1  0  0  0  0  0999 V2000
    4.9628  -10.4620   26.3253 O   0  0  0  0  0  0  0  0  0  0  0  0
    5.8007  -11.5379   26.0861 C   0  0  0  0  0  0  0  0  0  0  0  0
    5.9941  -12.4993   27.0580 C   0  0  0  0  0  0  0  0  0  0  0  0
    6.8166  -13.5816   26.8640 C   0  0  0  0  0  0  0  0  0  0  0  0
    7.4711  -13.7136   25.6585 C   0  0  0  0  0  0  0  0  0  0  0  0
    8.3541  -14.8789   25.4537 C   0  0  0  0  0  0  0  0  0  0  0  0
    7.6919  -15.9922   24.7065 C   0  0  2  0  0  0  0  0  0  0  0  0
    6.6634  -16.5714   25.5460 N   0  0  0  0  0  0  0  0  0  0  0  0
    8.6631  -17.0278   24.2527 C   0  0  0  0  0  0  0  0  0  0  0  0
    8.6318  -18.1749   24.7663 O   0  0  0  0  0  0  0  0  0  0  0  0
    7.3057  -12.7753   24.6589 C   0  0  0  0  0  0  0  0  0  0  0  0
    6.4741  -11.7090   24.8970 C   0  0  0  0  0  0  0  0  0  0  0  0
    9.6030  -16.7180   23.2603 N   0  0  0  0  0  0  0  0  0  0  0  0
   10.6526  -17.5348   22.7446 C   0  0  1  0  0  0  0  0  0  0  0  0
   10.9727  -17.3375   21.2847 C   0  0  0  0  0  0  0  0  0  0  0  0
   12.0133  -18.2175   20.7032 C   0  0  0  0  0  0  0  0  0  0  0  0
   12.2562  -17.9933   19.2349 C   0  0  0  0  0  0  0  0  0  0  0  0
   11.6760  -18.6662   18.3695 O   0  0  0  0  0  0  0  0  0  0  0  0
   11.8846  -17.4998   23.5295 C   0  0  0  0  0  0  0  0  0  0  0  0
   13.0308  -17.7501   23.0077 O   0  0  0  0  0  0  0  0  0  0  0  0
   13.1463  -17.0184   18.8030 O   0  0  0  0  0  0  0  0  0  0  0  0
   11.8484  -17.1817   24.9143 N   0  0  0  0  0  0  0  0  0  0  0  0
   12.2200  -18.1885   25.9029 C   0  0  1  0  0  0  0  0  0  0  0  0
   10.9677  -19.0189   26.1838 C   0  0  0  0  0  0  0  0  0  0  0  0
   11.0384  -19.4553   27.6083 C   0  0  0  0  0  0  0  0  0  0  0  0
   12.0933  -19.2122   28.2771 O   0  0  0  0  0  0  0  0  0  0  0  0
   13.3120  -19.0062   25.3332 C   0  0  0  0  0  0  0  0  0  0  0  0
   13.1427  -19.6002   24.2396 O   0  0  0  0  0  0  0  0  0  0  0  0
    9.9464  -20.1185   28.1658 O   0  0  0  0  0  0  0  0  0  0  0  0
   14.5107  -19.1225   25.9889 O   0  0  0  0  0  0  0  0  0  0  0  0
  2  1  1  0
  3  2  2  0
  4  3  1  0
  5 11  1  0
  5  4  2  0
  6  5  1  0
  7  9  1  0
  7  6  1  0
  7  8  1  1
  9 10  2  0
 11 12  2  0
 12  2  1  0
 13 14  1  0
 13  9  1  0
 14 15  1  6
 15 16  1  0
 16 17  1  0
 17 21  1  0
 17 18  2  0
 19 14  1  0
 20 19  2  0
 22 19  1  0
 23 27  1  0
 23 22  1  0
 23 24  1  6
 25 24  1  0
 26 25  2  0
 27 30  1  0
 28 27  2  0
 29 25  1  0
M  END
$$$$
