YED.pdb
     RDKit          3D

 30 30  0  0  1  0  0  0  0  0999 V2000
    5.8956  -11.9553   19.1761 O   0  0  0  0  0  0  0  0  0  0  0  0
    6.8587  -12.7563   19.7659 C   0  0  0  0  0  0  0  0  0  0  0  0
    6.6346  -13.3136   21.0091 C   0  0  0  0  0  0  0  0  0  0  0  0
    7.5619  -14.1127   21.6312 C   0  0  0  0  0  0  0  0  0  0  0  0
    8.7565  -14.3680   20.9936 C   0  0  0  0  0  0  0  0  0  0  0  0
    9.7507  -15.2281   21.6655 C   0  0  0  0  0  0  0  0  0  0  0  0
    9.8344  -16.5993   21.0749 C   0  0  2  0  0  0  0  0  0  0  0  0
    8.6262  -17.3258   21.4075 N   0  0  0  0  0  0  0  0  0  0  0  0
   11.0481  -17.3381   21.5248 C   0  0  0  0  0  0  0  0  0  0  0  0
   11.0511  -17.8995   22.6498 O   0  0  0  0  0  0  0  0  0  0  0  0
    9.0214  -13.8311   19.7491 C   0  0  0  0  0  0  0  0  0  0  0  0
    8.0655  -13.0373   19.1649 C   0  0  0  0  0  0  0  0  0  0  0  0
   12.1756  -17.4022   20.6949 N   0  0  0  0  0  0  0  0  0  0  0  0
   13.4256  -18.0435   20.9420 C   0  0  1  0  0  0  0  0  0  0  0  0
   14.3601  -18.1237   19.7617 C   0  0  0  0  0  0  0  0  0  0  0  0
   15.5913  -18.9290   19.9368 C   0  0  0  0  0  0  0  0  0  0  0  0
   16.4969  -18.9349   18.7347 C   0  0  0  0  0  0  0  0  0  0  0  0
   16.2892  -19.6833   17.7677 O   0  0  0  0  0  0  0  0  0  0  0  0
   14.1447  -17.5339   22.1074 C   0  0  0  0  0  0  0  0  0  0  0  0
   14.2356  -16.2772   22.3547 O   0  0  0  0  0  0  0  0  0  0  0  0
   17.6020  -18.0957   18.6738 O   0  0  0  0  0  0  0  0  0  0  0  0
   14.7727  -18.4293   23.0153 N   0  0  0  0  0  0  0  0  0  0  0  0
   15.4087  -17.9144   24.2234 C   0  0  1  0  0  0  0  0  0  0  0  0
   15.5981  -19.1024   25.1666 C   0  0  0  0  0  0  0  0  0  0  0  0
   15.4568  -18.5867   26.5590 C   0  0  0  0  0  0  0  0  0  0  0  0
   15.4003  -17.3299   26.7495 O   0  0  0  0  0  0  0  0  0  0  0  0
   16.6975  -17.3026   23.8355 C   0  0  0  0  0  0  0  0  0  0  0  0
   17.1991  -16.3979   24.5476 O   0  0  0  0  0  0  0  0  0  0  0  0
   15.3917  -19.4975   27.6124 O   0  0  0  0  0  0  0  0  0  0  0  0
   17.3518  -17.7147   22.7031 O   0  0  0  0  0  0  0  0  0  0  0  0
  2  1  1  0
  3  2  2  0
  4  3  1  0
  5 11  1  0
  5  4  2  0
  6  5  1  0
  7  9  1  0
  7  6  1  0
  7  8  1  1
  9 10  2  0
 11 12  2  0
 12  2  1  0
 13 14  1  0
 13  9  1  0
 14 15  1  6
 15 16  1  0
 16 17  1  0
 17 21  1  0
 17 18  2  0
 19 14  1  0
 20 19  2  0
 22 19  1  0
 23 27  1  0
 23 22  1  0
 23 24  1  1
 25 24  1  0
 26 25  2  0
 27 30  1  0
 28 27  2  0
 29 25  1  0
M  END
$$$$
