YED.pdb
     RDKit          3D

 30 30  0  0  1  0  0  0  0  0999 V2000
    7.2585  -11.6403   18.5794 O   0  0  0  0  0  0  0  0  0  0  0  0
    7.7772  -12.5995   19.4325 C   0  0  0  0  0  0  0  0  0  0  0  0
    6.9334  -13.4452   20.1247 C   0  0  0  0  0  0  0  0  0  0  0  0
    7.4043  -14.4094   20.9813 C   0  0  0  0  0  0  0  0  0  0  0  0
    8.7651  -14.5385   21.1562 C   0  0  0  0  0  0  0  0  0  0  0  0
    9.2674  -15.5768   22.0777 C   0  0  0  0  0  0  0  0  0  0  0  0
    9.8645  -16.7505   21.3692 C   0  0  2  0  0  0  0  0  0  0  0  0
    8.8398  -17.3793   20.5612 N   0  0  0  0  0  0  0  0  0  0  0  0
   10.4831  -17.7270   22.3100 C   0  0  0  0  0  0  0  0  0  0  0  0
    9.7568  -18.5699   22.8954 O   0  0  0  0  0  0  0  0  0  0  0  0
    9.6447  -13.7137   20.4831 C   0  0  0  0  0  0  0  0  0  0  0  0
    9.1293  -12.7632   19.6370 C   0  0  0  0  0  0  0  0  0  0  0  0
   11.8659  -17.6998   22.5369 N   0  0  0  0  0  0  0  0  0  0  0  0
   12.6554  -18.5925   23.3208 C   0  0  1  0  0  0  0  0  0  0  0  0
   14.1415  -18.5349   23.0733 C   0  0  0  0  0  0  0  0  0  0  0  0
   14.5785  -18.1280   21.7174 C   0  0  0  0  0  0  0  0  0  0  0  0
   15.9894  -17.6074   21.6578 C   0  0  0  0  0  0  0  0  0  0  0  0
   16.2472  -16.4062   21.8283 O   0  0  0  0  0  0  0  0  0  0  0  0
   12.3910  -18.5289   24.7565 C   0  0  0  0  0  0  0  0  0  0  0  0
   12.2758  -17.4114   25.3781 O   0  0  0  0  0  0  0  0  0  0  0  0
   17.0528  -18.4649   21.4064 O   0  0  0  0  0  0  0  0  0  0  0  0
   12.2506  -19.7214   25.5171 N   0  0  0  0  0  0  0  0  0  0  0  0
   11.9325  -19.6451   26.9391 C   0  0  1  0  0  0  0  0  0  0  0  0
   10.8769  -20.7154   27.2163 C   0  0  0  0  0  0  0  0  0  0  0  0
   10.6482  -20.7378   28.6901 C   0  0  0  0  0  0  0  0  0  0  0  0
   11.1951  -21.6518   29.3863 O   0  0  0  0  0  0  0  0  0  0  0  0
   13.1781  -19.8840   27.6989 C   0  0  0  0  0  0  0  0  0  0  0  0
   14.1746  -20.3864   27.1229 O   0  0  0  0  0  0  0  0  0  0  0  0
    9.8402  -19.7565   29.2625 O   0  0  0  0  0  0  0  0  0  0  0  0
   13.2557  -19.5613   29.0293 O   0  0  0  0  0  0  0  0  0  0  0  0
  2  1  1  0
  3  2  2  0
  4  3  1  0
  5 11  1  0
  5  4  2  0
  6  5  1  0
  7  9  1  0
  7  6  1  0
  7  8  1  1
  9 10  2  0
 11 12  2  0
 12  2  1  0
 13 14  1  0
 13  9  1  0
 14 15  1  1
 15 16  1  0
 16 17  1  0
 17 21  1  0
 17 18  2  0
 19 14  1  0
 20 19  2  0
 22 19  1  0
 23 27  1  0
 23 22  1  0
 23 24  1  1
 25 24  1  0
 26 25  2  0
 27 30  1  0
 28 27  2  0
 29 25  1  0
M  END
$$$$
