TVF.pdb
     RDKit          3D

 26 26  0  0  1  0  0  0  0  0999 V2000
    8.0459  -19.2731   20.8282 C   0  0  0  0  0  0  0  0  0  0  0  0
    9.0713  -19.2286   19.7041 C   0  0  1  0  0  0  0  0  0  0  0  0
    8.7214  -20.2201   18.8102 O   0  0  0  0  0  0  0  0  0  0  0  0
    9.0246  -17.8469   19.1270 C   0  0  2  0  0  0  0  0  0  0  0  0
    9.7650  -17.8246   17.8858 N   0  0  0  0  0  0  0  0  0  0  0  0
    9.4415  -16.7845   20.0532 C   0  0  0  0  0  0  0  0  0  0  0  0
   10.6326  -16.7521   20.4606 O   0  0  0  0  0  0  0  0  0  0  0  0
    8.2618  -12.7963   20.0993 C   0  0  0  0  0  0  0  0  0  0  0  0
    8.0314  -13.5416   21.3714 C   0  0  1  0  0  0  0  0  0  0  0  0
    6.5645  -13.8896   21.4818 C   0  0  0  0  0  0  0  0  0  0  0  0
    8.9029  -14.7773   21.4902 C   0  0  2  0  0  0  0  0  0  0  0  0
    8.5681  -15.7793   20.5218 N   0  0  0  0  0  0  0  0  0  0  0  0
    8.6790  -15.3260   22.8521 C   0  0  0  0  0  0  0  0  0  0  0  0
    7.7827  -16.1817   23.0456 O   0  0  0  0  0  0  0  0  0  0  0  0
    9.4432  -14.9261   23.9803 N   0  0  0  0  0  0  0  0  0  0  0  0
    9.1945  -15.4036   25.3256 C   0  0  1  0  0  0  0  0  0  0  0  0
    7.7069  -15.2324   25.5627 C   0  0  0  0  0  0  0  0  0  0  0  0
    7.3213  -13.8768   25.9767 C   0  0  0  0  0  0  0  0  0  0  0  0
    6.0226  -13.4503   25.8493 C   0  0  0  0  0  0  0  0  0  0  0  0
    5.6175  -12.1774   26.2339 C   0  0  0  0  0  0  0  0  0  0  0  0
    6.5846  -11.3441   26.7569 C   0  0  0  0  0  0  0  0  0  0  0  0
    7.9079  -11.7477   26.8980 C   0  0  0  0  0  0  0  0  0  0  0  0
    8.2681  -13.0266   26.5015 C   0  0  0  0  0  0  0  0  0  0  0  0
    9.6274  -16.7955   25.4361 C   0  0  0  0  0  0  0  0  0  0  0  0
   10.1369  -17.4428   24.3140 O   0  0  0  0  0  0  0  0  0  0  0  0
    9.5595  -17.4559   26.5295 O   0  0  0  0  0  0  0  0  0  0  0  0
  2  1  1  1
  3  2  1  0
  4  2  1  0
  4  6  1  0
  4  5  1  6
  6  7  2  0
  9  8  1  6
  9 11  1  0
 10  9  1  0
 12  6  1  0
 11 12  1  6
 13 11  1  0
 13 14  2  0
 15 13  1  0
 16 15  1  0
 16 24  1  0
 16 17  1  6
 18 23  2  0
 18 17  1  0
 19 18  1  0
 20 21  1  0
 20 19  2  0
 21 22  2  0
 22 23  1  0
 24 26  2  0
 24 25  1  0
M  END
$$$$
