TVF.pdb
     RDKit          3D

 26 26  0  0  1  0  0  0  0  0999 V2000
    7.1328  -20.5023   20.2320 C   0  0  0  0  0  0  0  0  0  0  0  0
    7.8726  -19.2294   20.6185 C   0  0  1  0  0  0  0  0  0  0  0  0
    9.1183  -19.6172   21.0685 O   0  0  0  0  0  0  0  0  0  0  0  0
    7.9111  -18.3610   19.3984 C   0  0  2  0  0  0  0  0  0  0  0  0
    8.4420  -19.1215   18.2898 N   0  0  0  0  0  0  0  0  0  0  0  0
    8.6012  -17.0769   19.5852 C   0  0  0  0  0  0  0  0  0  0  0  0
    9.7697  -16.9325   19.1385 O   0  0  0  0  0  0  0  0  0  0  0  0
    8.2170  -12.2631   20.8942 C   0  0  0  0  0  0  0  0  0  0  0  0
    7.5955  -13.5802   20.5689 C   0  0  1  0  0  0  0  0  0  0  0  0
    6.7318  -13.4286   19.3376 C   0  0  0  0  0  0  0  0  0  0  0  0
    8.6222  -14.6824   20.3914 C   0  0  2  0  0  0  0  0  0  0  0  0
    8.0197  -15.9749   20.2489 N   0  0  0  0  0  0  0  0  0  0  0  0
    9.4692  -14.6747   21.6114 C   0  0  0  0  0  0  0  0  0  0  0  0
   10.4768  -13.9304   21.6725 O   0  0  0  0  0  0  0  0  0  0  0  0
    9.1961  -15.4847   22.7455 N   0  0  0  0  0  0  0  0  0  0  0  0
    8.9163  -14.9497   24.0627 C   0  0  1  0  0  0  0  0  0  0  0  0
    7.7815  -13.9610   23.8809 C   0  0  0  0  0  0  0  0  0  0  0  0
    7.3807  -13.2791   25.1187 C   0  0  0  0  0  0  0  0  0  0  0  0
    7.7625  -11.9821   25.3569 C   0  0  0  0  0  0  0  0  0  0  0  0
    7.3997  -11.3012   26.5132 C   0  0  0  0  0  0  0  0  0  0  0  0
    6.6289  -11.9882   27.4282 C   0  0  0  0  0  0  0  0  0  0  0  0
    6.2270  -13.3022   27.2149 C   0  0  0  0  0  0  0  0  0  0  0  0
    6.6117  -13.9432   26.0472 C   0  0  0  0  0  0  0  0  0  0  0  0
    8.5724  -16.0435   24.9696 C   0  0  0  0  0  0  0  0  0  0  0  0
    7.7743  -17.0867   24.5087 O   0  0  0  0  0  0  0  0  0  0  0  0
    8.9754  -16.0882   26.1827 O   0  0  0  0  0  0  0  0  0  0  0  0
  2  1  1  6
  3  2  1  0
  4  2  1  0
  4  6  1  0
  4  5  1  6
  6  7  2  0
  9  8  1  6
  9 11  1  0
 10  9  1  0
 12  6  1  0
 11 12  1  1
 13 11  1  0
 13 14  2  0
 15 13  1  0
 16 15  1  0
 16 24  1  0
 16 17  1  6
 18 23  2  0
 18 17  1  0
 19 18  1  0
 20 21  1  0
 20 19  2  0
 21 22  2  0
 22 23  1  0
 24 26  2  0
 24 25  1  0
M  END
$$$$
