TVF.pdb
     RDKit          3D

 26 26  0  0  1  0  0  0  0  0999 V2000
    9.7261  -19.8274   17.8341 C   0  0  0  0  0  0  0  0  0  0  0  0
    9.6819  -19.1065   19.1740 C   0  0  1  0  0  0  0  0  0  0  0  0
   10.5400  -19.7841   20.0162 O   0  0  0  0  0  0  0  0  0  0  0  0
   10.0801  -17.6854   18.9169 C   0  0  2  0  0  0  0  0  0  0  0  0
   11.3625  -17.6639   18.2503 N   0  0  0  0  0  0  0  0  0  0  0  0
   10.0447  -16.8178   20.1028 C   0  0  0  0  0  0  0  0  0  0  0  0
   11.1118  -16.5827   20.7286 O   0  0  0  0  0  0  0  0  0  0  0  0
    7.3016  -13.8838   23.1079 C   0  0  0  0  0  0  0  0  0  0  0  0
    7.4764  -14.6105   21.8164 C   0  0  1  0  0  0  0  0  0  0  0  0
    7.3834  -13.6220   20.6765 C   0  0  0  0  0  0  0  0  0  0  0  0
    8.7712  -15.3984   21.7603 C   0  0  2  0  0  0  0  0  0  0  0  0
    8.8617  -16.2214   20.5905 N   0  0  0  0  0  0  0  0  0  0  0  0
    8.7933  -16.2659   22.9657 C   0  0  0  0  0  0  0  0  0  0  0  0
    8.1061  -17.3146   22.9982 O   0  0  0  0  0  0  0  0  0  0  0  0
    9.5699  -15.9679   24.1167 N   0  0  0  0  0  0  0  0  0  0  0  0
    9.7697  -16.8974   25.2103 C   0  0  1  0  0  0  0  0  0  0  0  0
   10.8225  -16.2724   26.1043 C   0  0  0  0  0  0  0  0  0  0  0  0
   10.3049  -15.2209   26.9899 C   0  0  0  0  0  0  0  0  0  0  0  0
   10.4057  -15.3438   28.3535 C   0  0  0  0  0  0  0  0  0  0  0  0
    9.9325  -14.3692   29.2244 C   0  0  0  0  0  0  0  0  0  0  0  0
    9.3479  -13.2550   28.6587 C   0  0  0  0  0  0  0  0  0  0  0  0
    9.2313  -13.1024   27.2814 C   0  0  0  0  0  0  0  0  0  0  0  0
    9.7172  -14.0997   26.4496 C   0  0  0  0  0  0  0  0  0  0  0  0
    8.5001  -17.1167   25.9010 C   0  0  0  0  0  0  0  0  0  0  0  0
    8.4236  -18.0868   26.8964 O   0  0  0  0  0  0  0  0  0  0  0  0
    7.4421  -16.4508   25.6307 O   0  0  0  0  0  0  0  0  0  0  0  0
  2  1  1  6
  3  2  1  0
  4  2  1  0
  4  6  1  0
  4  5  1  1
  6  7  2  0
  9  8  1  1
  9 11  1  0
 10  9  1  0
 12  6  1  0
 11 12  1  6
 13 11  1  0
 13 14  2  0
 15 13  1  0
 16 15  1  0
 16 24  1  0
 16 17  1  1
 18 23  2  0
 18 17  1  0
 19 18  1  0
 20 21  1  0
 20 19  2  0
 21 22  2  0
 22 23  1  0
 24 26  2  0
 24 25  1  0
M  END
$$$$
