TVF.pdb
     RDKit          3D

 26 26  0  0  1  0  0  0  0  0999 V2000
   11.4443  -14.8058   19.6134 C   0  0  0  0  0  0  0  0  0  0  0  0
   10.6763  -13.6054   19.0787 C   0  0  1  0  0  0  0  0  0  0  0  0
   11.2863  -13.2406   17.8956 O   0  0  0  0  0  0  0  0  0  0  0  0
    9.2507  -14.0371   18.9186 C   0  0  2  0  0  0  0  0  0  0  0  0
    8.5226  -13.0166   18.1991 N   0  0  0  0  0  0  0  0  0  0  0  0
    8.5875  -14.4283   20.1706 C   0  0  0  0  0  0  0  0  0  0  0  0
    8.0557  -13.5430   20.8911 O   0  0  0  0  0  0  0  0  0  0  0  0
    6.2655  -17.7654   20.6985 C   0  0  0  0  0  0  0  0  0  0  0  0
    7.3407  -17.6175   21.7225 C   0  0  1  0  0  0  0  0  0  0  0  0
    8.4555  -18.5904   21.4129 C   0  0  0  0  0  0  0  0  0  0  0  0
    7.8600  -16.1959   21.8229 C   0  0  2  0  0  0  0  0  0  0  0  0
    8.5106  -15.7640   20.6212 N   0  0  0  0  0  0  0  0  0  0  0  0
    8.8413  -16.1797   22.9377 C   0  0  0  0  0  0  0  0  0  0  0  0
   10.0299  -16.5242   22.7341 O   0  0  0  0  0  0  0  0  0  0  0  0
    8.5016  -15.7851   24.2590 N   0  0  0  0  0  0  0  0  0  0  0  0
    9.4456  -15.7721   25.3582 C   0  0  1  0  0  0  0  0  0  0  0  0
    9.6405  -14.3142   25.7259 C   0  0  0  0  0  0  0  0  0  0  0  0
    8.3942  -13.6117   26.0593 C   0  0  0  0  0  0  0  0  0  0  0  0
    8.0633  -13.3587   27.3674 C   0  0  0  0  0  0  0  0  0  0  0  0
    6.8961  -12.6930   27.7232 C   0  0  0  0  0  0  0  0  0  0  0  0
    6.0681  -12.2891   26.6961 C   0  0  0  0  0  0  0  0  0  0  0  0
    6.3763  -12.5311   25.3619 C   0  0  0  0  0  0  0  0  0  0  0  0
    7.5515  -13.1987   25.0524 C   0  0  0  0  0  0  0  0  0  0  0  0
    8.9159  -16.5676   26.4644 C   0  0  0  0  0  0  0  0  0  0  0  0
    9.7055  -16.7811   27.5908 O   0  0  0  0  0  0  0  0  0  0  0  0
    7.7458  -17.0838   26.4463 O   0  0  0  0  0  0  0  0  0  0  0  0
  2  1  1  6
  3  2  1  0
  4  2  1  0
  4  6  1  0
  4  5  1  1
  6  7  2  0
  9  8  1  6
  9 11  1  0
 10  9  1  0
 12  6  1  0
 11 12  1  6
 13 11  1  0
 13 14  2  0
 15 13  1  0
 16 15  1  0
 16 24  1  0
 16 17  1  1
 18 23  2  0
 18 17  1  0
 19 18  1  0
 20 21  1  0
 20 19  2  0
 21 22  2  0
 22 23  1  0
 24 26  2  0
 24 25  1  0
M  END
$$$$
