TVF.pdb
     RDKit          3D

 26 26  0  0  1  0  0  0  0  0999 V2000
    7.0930  -20.9990   19.9001 C   0  0  0  0  0  0  0  0  0  0  0  0
    7.7298  -19.6528   19.5853 C   0  0  1  0  0  0  0  0  0  0  0  0
    6.9488  -19.0638   18.6117 O   0  0  0  0  0  0  0  0  0  0  0  0
    7.7804  -18.8842   20.8701 C   0  0  2  0  0  0  0  0  0  0  0  0
    6.4452  -18.7771   21.4133 N   0  0  0  0  0  0  0  0  0  0  0  0
    8.4588  -17.5836   20.7766 C   0  0  0  0  0  0  0  0  0  0  0  0
    9.6685  -17.5411   20.4293 O   0  0  0  0  0  0  0  0  0  0  0  0
    6.4129  -14.0871   22.1201 C   0  0  0  0  0  0  0  0  0  0  0  0
    7.4702  -13.9284   21.0791 C   0  0  1  0  0  0  0  0  0  0  0  0
    8.1634  -12.5997   21.2770 C   0  0  0  0  0  0  0  0  0  0  0  0
    8.4633  -15.0748   21.0760 C   0  0  2  0  0  0  0  0  0  0  0  0
    7.8214  -16.3560   21.0589 N   0  0  0  0  0  0  0  0  0  0  0  0
    9.2609  -14.9494   22.3227 C   0  0  0  0  0  0  0  0  0  0  0  0
   10.2818  -14.2212   22.3453 O   0  0  0  0  0  0  0  0  0  0  0  0
    8.9247  -15.6258   23.5253 N   0  0  0  0  0  0  0  0  0  0  0  0
    9.7383  -15.5808   24.7234 C   0  0  1  0  0  0  0  0  0  0  0  0
    9.7381  -14.1339   25.1759 C   0  0  0  0  0  0  0  0  0  0  0  0
    8.4152  -13.6333   25.5724 C   0  0  0  0  0  0  0  0  0  0  0  0
    7.7896  -14.1233   26.6919 C   0  0  0  0  0  0  0  0  0  0  0  0
    6.5405  -13.6722   27.1025 C   0  0  0  0  0  0  0  0  0  0  0  0
    5.9422  -12.6978   26.3306 C   0  0  0  0  0  0  0  0  0  0  0  0
    6.5510  -12.1823   25.1915 C   0  0  0  0  0  0  0  0  0  0  0  0
    7.7976  -12.6613   24.8186 C   0  0  0  0  0  0  0  0  0  0  0  0
    9.1792  -16.4861   25.7259 C   0  0  0  0  0  0  0  0  0  0  0  0
    8.1089  -17.3071   25.3826 O   0  0  0  0  0  0  0  0  0  0  0  0
    9.6329  -16.5607   26.9195 O   0  0  0  0  0  0  0  0  0  0  0  0
  2  1  1  1
  3  2  1  0
  4  2  1  0
  4  6  1  0
  4  5  1  6
  6  7  2  0
  9  8  1  1
  9 11  1  0
 10  9  1  0
 12  6  1  0
 11 12  1  1
 13 11  1  0
 13 14  2  0
 15 13  1  0
 16 15  1  0
 16 24  1  0
 16 17  1  1
 18 23  2  0
 18 17  1  0
 19 18  1  0
 20 21  1  0
 20 19  2  0
 21 22  2  0
 22 23  1  0
 24 26  2  0
 24 25  1  0
M  END
$$$$
