TVF.pdb
     RDKit          3D

 26 26  0  0  1  0  0  0  0  0999 V2000
    8.9351  -12.5975   20.8220 C   0  0  0  0  0  0  0  0  0  0  0  0
    8.0320  -12.8158   19.6162 C   0  0  1  0  0  0  0  0  0  0  0  0
    8.4926  -11.9785   18.6204 O   0  0  0  0  0  0  0  0  0  0  0  0
    8.1118  -14.2712   19.2707 C   0  0  2  0  0  0  0  0  0  0  0  0
    7.4201  -14.5024   18.0227 N   0  0  0  0  0  0  0  0  0  0  0  0
    7.6678  -15.1772   20.3395 C   0  0  0  0  0  0  0  0  0  0  0  0
    6.4413  -15.4355   20.4610 O   0  0  0  0  0  0  0  0  0  0  0  0
   10.2480  -18.1229   21.6620 C   0  0  0  0  0  0  0  0  0  0  0  0
    8.7681  -18.1561   21.8509 C   0  0  1  0  0  0  0  0  0  0  0  0
    8.4267  -19.1890   22.9004 C   0  0  0  0  0  0  0  0  0  0  0  0
    8.1942  -16.7976   22.2053 C   0  0  2  0  0  0  0  0  0  0  0  0
    8.5529  -15.7863   21.2553 N   0  0  0  0  0  0  0  0  0  0  0  0
    8.7514  -16.4342   23.5332 C   0  0  0  0  0  0  0  0  0  0  0  0
    9.9454  -16.0638   23.6341 O   0  0  0  0  0  0  0  0  0  0  0  0
    7.9882  -16.4832   24.7299 N   0  0  0  0  0  0  0  0  0  0  0  0
    8.5134  -16.1171   26.0299 C   0  0  1  0  0  0  0  0  0  0  0  0
    7.3561  -15.5004   26.7907 C   0  0  0  0  0  0  0  0  0  0  0  0
    7.1370  -14.0787   26.4933 C   0  0  0  0  0  0  0  0  0  0  0  0
    8.1681  -13.1775   26.5910 C   0  0  0  0  0  0  0  0  0  0  0  0
    8.0021  -11.8256   26.3136 C   0  0  0  0  0  0  0  0  0  0  0  0
    6.7418  -11.4156   25.9302 C   0  0  0  0  0  0  0  0  0  0  0  0
    5.6781  -12.3047   25.8225 C   0  0  0  0  0  0  0  0  0  0  0  0
    5.8886  -13.6449   26.1088 C   0  0  0  0  0  0  0  0  0  0  0  0
    9.0537  -17.3049   26.6889 C   0  0  0  0  0  0  0  0  0  0  0  0
    8.5754  -18.5617   26.3294 O   0  0  0  0  0  0  0  0  0  0  0  0
    9.9571  -17.2434   27.5923 O   0  0  0  0  0  0  0  0  0  0  0  0
  2  1  1  1
  3  2  1  0
  4  2  1  0
  4  6  1  0
  4  5  1  6
  6  7  2  0
  9  8  1  1
  9 11  1  0
 10  9  1  0
 12  6  1  0
 11 12  1  6
 13 11  1  0
 13 14  2  0
 15 13  1  0
 16 15  1  0
 16 24  1  0
 16 17  1  1
 18 23  2  0
 18 17  1  0
 19 18  1  0
 20 21  1  0
 20 19  2  0
 21 22  2  0
 22 23  1  0
 24 26  2  0
 24 25  1  0
M  END
$$$$
