TVF.pdb
     RDKit          3D

 26 26  0  0  1  0  0  0  0  0999 V2000
    7.2817  -18.9323   22.7713 C   0  0  0  0  0  0  0  0  0  0  0  0
    7.7828  -19.4123   21.4165 C   0  0  1  0  0  0  0  0  0  0  0  0
    7.1606  -20.6192   21.1696 O   0  0  0  0  0  0  0  0  0  0  0  0
    7.4466  -18.3418   20.4240 C   0  0  2  0  0  0  0  0  0  0  0  0
    7.6216  -18.8612   19.0865 N   0  0  0  0  0  0  0  0  0  0  0  0
    8.1545  -17.0709   20.6341 C   0  0  0  0  0  0  0  0  0  0  0  0
    9.3858  -17.0001   20.3802 O   0  0  0  0  0  0  0  0  0  0  0  0
    7.9299  -12.1626   21.4179 C   0  0  0  0  0  0  0  0  0  0  0  0
    7.3000  -13.4612   21.0389 C   0  0  1  0  0  0  0  0  0  0  0  0
    6.9457  -13.4288   19.5697 C   0  0  0  0  0  0  0  0  0  0  0  0
    8.1768  -14.6539   21.3697 C   0  0  2  0  0  0  0  0  0  0  0  0
    7.5226  -15.9029   21.1131 N   0  0  0  0  0  0  0  0  0  0  0  0
    8.4921  -14.5609   22.8181 C   0  0  0  0  0  0  0  0  0  0  0  0
    8.3158  -13.4814   23.4318 O   0  0  0  0  0  0  0  0  0  0  0  0
    8.9961  -15.6552   23.5700 N   0  0  0  0  0  0  0  0  0  0  0  0
    9.0613  -15.6695   25.0175 C   0  0  1  0  0  0  0  0  0  0  0  0
    7.6375  -15.4804   25.5028 C   0  0  0  0  0  0  0  0  0  0  0  0
    7.3375  -14.1148   25.9531 C   0  0  0  0  0  0  0  0  0  0  0  0
    6.1638  -13.5017   25.5908 C   0  0  0  0  0  0  0  0  0  0  0  0
    5.8415  -12.2130   26.0002 C   0  0  0  0  0  0  0  0  0  0  0  0
    6.7599  -11.5615   26.7974 C   0  0  0  0  0  0  0  0  0  0  0  0
    7.9570  -12.1564   27.1806 C   0  0  0  0  0  0  0  0  0  0  0  0
    8.2378  -13.4439   26.7492 C   0  0  0  0  0  0  0  0  0  0  0  0
    9.6479  -16.9312   25.4660 C   0  0  0  0  0  0  0  0  0  0  0  0
   10.0769  -17.0536   26.7846 O   0  0  0  0  0  0  0  0  0  0  0  0
    9.7877  -17.9415   24.6941 O   0  0  0  0  0  0  0  0  0  0  0  0
  2  1  1  1
  3  2  1  0
  4  2  1  0
  4  6  1  0
  4  5  1  6
  6  7  2  0
  9  8  1  6
  9 11  1  0
 10  9  1  0
 12  6  1  0
 11 12  1  1
 13 11  1  0
 13 14  2  0
 15 13  1  0
 16 15  1  0
 16 24  1  0
 16 17  1  1
 18 23  2  0
 18 17  1  0
 19 18  1  0
 20 21  1  0
 20 19  2  0
 21 22  2  0
 22 23  1  0
 24 26  2  0
 24 25  1  0
M  END
$$$$
