TVF.pdb
     RDKit          3D

 26 26  0  0  1  0  0  0  0  0999 V2000
   10.5132  -20.1450   18.3463 C   0  0  0  0  0  0  0  0  0  0  0  0
   10.3732  -19.2136   19.5421 C   0  0  1  0  0  0  0  0  0  0  0  0
   11.3984  -19.5284   20.4108 O   0  0  0  0  0  0  0  0  0  0  0  0
   10.4346  -17.8135   19.0126 C   0  0  2  0  0  0  0  0  0  0  0  0
   11.7075  -17.6073   18.3595 N   0  0  0  0  0  0  0  0  0  0  0  0
   10.1331  -16.7722   20.0052 C   0  0  0  0  0  0  0  0  0  0  0  0
   11.0688  -16.2832   20.6915 O   0  0  0  0  0  0  0  0  0  0  0  0
    6.8088  -13.5596   21.9040 C   0  0  0  0  0  0  0  0  0  0  0  0
    7.2107  -14.5446   20.8576 C   0  0  1  0  0  0  0  0  0  0  0  0
    7.3425  -13.8309   19.5315 C   0  0  0  0  0  0  0  0  0  0  0  0
    8.4838  -15.2881   21.2139 C   0  0  2  0  0  0  0  0  0  0  0  0
    8.8311  -16.2790   20.2385 N   0  0  0  0  0  0  0  0  0  0  0  0
    8.2349  -15.9571   22.5164 C   0  0  0  0  0  0  0  0  0  0  0  0
    7.8717  -17.1571   22.5476 O   0  0  0  0  0  0  0  0  0  0  0  0
    8.3888  -15.2974   23.7646 N   0  0  0  0  0  0  0  0  0  0  0  0
    8.4149  -15.9888   25.0377 C   0  0  1  0  0  0  0  0  0  0  0  0
    9.0278  -15.0189   26.0287 C   0  0  0  0  0  0  0  0  0  0  0  0
    8.2109  -13.8234   26.2760 C   0  0  0  0  0  0  0  0  0  0  0  0
    8.4193  -13.0537   27.3935 C   0  0  0  0  0  0  0  0  0  0  0  0
    7.6708  -11.9132   27.6604 C   0  0  0  0  0  0  0  0  0  0  0  0
    6.6942  -11.5774   26.7457 C   0  0  0  0  0  0  0  0  0  0  0  0
    6.4596  -12.3373   25.6050 C   0  0  0  0  0  0  0  0  0  0  0  0
    7.2302  -13.4675   25.3782 C   0  0  0  0  0  0  0  0  0  0  0  0
    7.0567  -16.3871   25.4034 C   0  0  0  0  0  0  0  0  0  0  0  0
    6.8687  -17.3073   26.4308 O   0  0  0  0  0  0  0  0  0  0  0  0
    6.0189  -15.9240   24.8165 O   0  0  0  0  0  0  0  0  0  0  0  0
  2  1  1  6
  3  2  1  0
  4  2  1  0
  4  6  1  0
  4  5  1  1
  6  7  2  0
  9  8  1  1
  9 11  1  0
 10  9  1  0
 12  6  1  0
 11 12  1  6
 13 11  1  0
 13 14  2  0
 15 13  1  0
 16 15  1  0
 16 24  1  0
 16 17  1  1
 18 23  2  0
 18 17  1  0
 19 18  1  0
 20 21  1  0
 20 19  2  0
 21 22  2  0
 22 23  1  0
 24 26  2  0
 24 25  1  0
M  END
$$$$
