TVF.pdb
     RDKit          3D

 26 26  0  0  1  0  0  0  0  0999 V2000
    7.1002  -19.5472   21.1714 C   0  0  0  0  0  0  0  0  0  0  0  0
    7.7605  -19.7113   19.8097 C   0  0  1  0  0  0  0  0  0  0  0  0
    7.0757  -20.7160   19.1566 O   0  0  0  0  0  0  0  0  0  0  0  0
    7.6839  -18.3806   19.1258 C   0  0  2  0  0  0  0  0  0  0  0  0
    8.0828  -18.5319   17.7448 N   0  0  0  0  0  0  0  0  0  0  0  0
    8.4103  -17.3009   19.8092 C   0  0  0  0  0  0  0  0  0  0  0  0
    9.6692  -17.2903   19.7834 O   0  0  0  0  0  0  0  0  0  0  0  0
    8.2580  -12.8391   22.0346 C   0  0  0  0  0  0  0  0  0  0  0  0
    7.6299  -13.9076   21.2036 C   0  0  1  0  0  0  0  0  0  0  0  0
    7.4285  -13.3870   19.7987 C   0  0  0  0  0  0  0  0  0  0  0  0
    8.4308  -15.1956   21.2060 C   0  0  2  0  0  0  0  0  0  0  0  0
    7.7668  -16.2552   20.5059 N   0  0  0  0  0  0  0  0  0  0  0  0
    8.6014  -15.5873   22.6285 C   0  0  0  0  0  0  0  0  0  0  0  0
    7.5973  -15.7272   23.3668 O   0  0  0  0  0  0  0  0  0  0  0  0
    9.8725  -15.8193   23.2179 N   0  0  0  0  0  0  0  0  0  0  0  0
   10.1107  -15.7843   24.6467 C   0  0  1  0  0  0  0  0  0  0  0  0
    9.5412  -14.4665   25.1343 C   0  0  0  0  0  0  0  0  0  0  0  0
    9.5728  -14.3070   26.5942 C   0  0  0  0  0  0  0  0  0  0  0  0
    8.5077  -13.7524   27.2595 C   0  0  0  0  0  0  0  0  0  0  0  0
    8.4974  -13.5889   28.6399 C   0  0  0  0  0  0  0  0  0  0  0  0
    9.6157  -14.0115   29.3285 C   0  0  0  0  0  0  0  0  0  0  0  0
   10.7097  -14.5767   28.6824 C   0  0  0  0  0  0  0  0  0  0  0  0
   10.6773  -14.7209   27.3037 C   0  0  0  0  0  0  0  0  0  0  0  0
    9.4749  -16.9411   25.2749 C   0  0  0  0  0  0  0  0  0  0  0  0
    8.4461  -17.6002   24.6079 O   0  0  0  0  0  0  0  0  0  0  0  0
    9.8237  -17.3825   26.4236 O   0  0  0  0  0  0  0  0  0  0  0  0
  2  1  1  1
  3  2  1  0
  4  2  1  0
  4  6  1  0
  4  5  1  6
  6  7  2  0
  9  8  1  1
  9 11  1  0
 10  9  1  0
 12  6  1  0
 11 12  1  6
 13 11  1  0
 13 14  2  0
 15 13  1  0
 16 15  1  0
 16 24  1  0
 16 17  1  1
 18 23  2  0
 18 17  1  0
 19 18  1  0
 20 21  1  0
 20 19  2  0
 21 22  2  0
 22 23  1  0
 24 26  2  0
 24 25  1  0
M  END
$$$$
