ITM.pdb
     RDKit          3D

 24 23  0  0  1  0  0  0  0  0999 V2000
   27.8683  -18.5677  -18.1650 C   0  0  0  0  0  0  0  0  0  0  0  0
   28.2734  -19.3133  -16.9269 C   0  0  0  0  0  0  0  0  0  0  0  0
   27.4190  -18.9381  -15.7291 C   0  0  2  0  0  0  0  0  0  0  0  0
   27.4990  -17.4344  -15.5994 C   0  0  0  0  0  0  0  0  0  0  0  0
   27.8398  -19.6537  -14.4902 C   0  0  2  0  0  0  0  0  0  0  0  0
   27.9408  -21.0639  -14.7913 N   0  0  0  0  0  0  0  0  0  0  0  0
   26.8414  -19.3999  -13.4099 C   0  0  0  0  0  0  0  0  0  0  0  0
   26.4859  -18.2384  -13.0893 O   0  0  0  0  0  0  0  0  0  0  0  0
   23.2867  -20.4019  -13.1763 C   0  0  0  0  0  0  0  0  0  0  0  0
   23.9830  -20.9679  -11.9582 C   0  0  1  0  0  0  0  0  0  0  0  0
   24.3581  -22.2877  -12.3372 O   0  0  0  0  0  0  0  0  0  0  0  0
   25.2773  -20.2432  -11.6383 C   0  0  2  0  0  0  0  0  0  0  0  0
   26.2511  -20.4695  -12.6983 N   0  0  0  0  0  0  0  0  0  0  0  0
   25.8924  -20.6789  -10.3653 C   0  0  0  0  0  0  0  0  0  0  0  0
   26.6836  -21.6804  -10.4082 O   0  0  0  0  0  0  0  0  0  0  0  0
   29.1690  -18.2616   -5.8071 C   0  0  0  0  0  0  0  0  0  0  0  0
   28.2800  -19.4013   -4.7145 S   0  0  0  0  0  0  0  0  0  0  0  0
   27.2664  -20.5335   -5.7077 C   0  0  0  0  0  0  0  0  0  0  0  0
   27.0491  -19.9179   -7.0628 C   0  0  0  0  0  0  0  0  0  0  0  0
   26.1146  -20.7859   -7.8890 C   0  0  2  0  0  0  0  0  0  0  0  0
   25.7005  -20.1045   -9.1021 N   0  0  0  0  0  0  0  0  0  0  0  0
   24.9540  -21.1942   -7.0679 C   0  0  0  0  0  0  0  0  0  0  0  0
   25.1138  -22.0138   -5.9745 O   0  0  0  0  0  0  0  0  0  0  0  0
   23.8121  -20.7921   -7.3674 O   0  0  0  0  0  0  0  0  0  0  0  0
  2  1  1  0
  3  5  1  0
  3  2  1  0
  3  4  1  1
  5  6  1  6
  7  5  1  0
  7  8  2  0
 10  9  1  6
 10 12  1  0
 11 10  1  0
 12 13  1  6
 13  7  1  0
 14 12  1  0
 15 14  2  0
 16 17  1  0
 18 19  1  0
 18 17  1  0
 20 19  1  1
 20 21  1  0
 20 22  1  0
 21 14  1  0
 22 23  1  0
 24 22  2  0
M  END
$$$$
