ITM.pdb
     RDKit          3D

 24 23  0  0  1  0  0  0  0  0999 V2000
   23.0557  -11.3611  -23.2028 C   0  0  0  0  0  0  0  0  0  0  0  0
   23.6099  -12.3593  -22.2284 C   0  0  0  0  0  0  0  0  0  0  0  0
   24.4160  -11.6947  -21.1265 C   0  0  2  0  0  0  0  0  0  0  0  0
   25.5345  -10.9410  -21.8085 C   0  0  0  0  0  0  0  0  0  0  0  0
   24.9053  -12.6761  -20.1158 C   0  0  2  0  0  0  0  0  0  0  0  0
   23.7644  -13.3822  -19.5778 N   0  0  0  0  0  0  0  0  0  0  0  0
   25.6497  -11.9515  -19.0438 C   0  0  0  0  0  0  0  0  0  0  0  0
   25.0736  -11.1831  -18.2340 O   0  0  0  0  0  0  0  0  0  0  0  0
   27.3132  -13.5138  -16.2954 C   0  0  0  0  0  0  0  0  0  0  0  0
   28.3682  -12.6248  -16.9164 C   0  0  1  0  0  0  0  0  0  0  0  0
   29.0766  -13.4755  -17.8111 O   0  0  0  0  0  0  0  0  0  0  0  0
   27.7710  -11.5242  -17.7736 C   0  0  2  0  0  0  0  0  0  0  0  0
   27.0476  -12.1043  -18.8976 N   0  0  0  0  0  0  0  0  0  0  0  0
   28.7839  -10.5970  -18.3242 C   0  0  0  0  0  0  0  0  0  0  0  0
   28.8515  -10.4887  -19.5949 O   0  0  0  0  0  0  0  0  0  0  0  0
   30.2029   -4.3937  -21.4734 C   0  0  0  0  0  0  0  0  0  0  0  0
   29.2390   -5.6207  -20.5522 S   0  0  0  0  0  0  0  0  0  0  0  0
   30.3606   -6.7182  -19.6396 C   0  0  0  0  0  0  0  0  0  0  0  0
   29.5439   -7.7929  -18.9759 C   0  0  0  0  0  0  0  0  0  0  0  0
   30.4518   -8.7527  -18.2251 C   0  0  2  0  0  0  0  0  0  0  0  0
   29.6874   -9.8137  -17.5945 N   0  0  0  0  0  0  0  0  0  0  0  0
   31.2652   -8.0058  -17.2410 C   0  0  0  0  0  0  0  0  0  0  0  0
   32.4366   -7.3882  -17.6140 O   0  0  0  0  0  0  0  0  0  0  0  0
   30.8875   -7.9322  -16.0547 O   0  0  0  0  0  0  0  0  0  0  0  0
  2  1  1  0
  3  5  1  0
  3  2  1  0
  3  4  1  6
  5  6  1  1
  7  5  1  0
  7  8  2  0
 10  9  1  6
 10 12  1  0
 11 10  1  0
 12 13  1  6
 13  7  1  0
 14 12  1  0
 15 14  2  0
 16 17  1  0
 18 19  1  0
 18 17  1  0
 20 19  1  1
 20 21  1  0
 20 22  1  0
 21 14  1  0
 22 23  1  0
 24 22  2  0
M  END
$$$$
