ITM.pdb
     RDKit          3D

 24 23  0  0  1  0  0  0  0  0999 V2000
   22.9117  -18.1131  -14.9528 C   0  0  0  0  0  0  0  0  0  0  0  0
   22.0545  -19.3422  -15.0384 C   0  0  0  0  0  0  0  0  0  0  0  0
   22.7053  -20.5401  -14.3698 C   0  0  2  0  0  0  0  0  0  0  0  0
   22.1791  -21.7660  -15.0802 C   0  0  0  0  0  0  0  0  0  0  0  0
   22.4592  -20.5675  -12.8992 C   0  0  2  0  0  0  0  0  0  0  0  0
   22.3466  -19.2044  -12.4313 N   0  0  0  0  0  0  0  0  0  0  0  0
   23.5825  -21.2818  -12.2237 C   0  0  0  0  0  0  0  0  0  0  0  0
   23.7525  -22.5208  -12.3420 O   0  0  0  0  0  0  0  0  0  0  0  0
   26.6081  -22.0936  -12.9123 C   0  0  0  0  0  0  0  0  0  0  0  0
   26.8315  -21.2794  -11.6568 C   0  0  1  0  0  0  0  0  0  0  0  0
   26.9961  -19.9428  -12.1176 O   0  0  0  0  0  0  0  0  0  0  0  0
   25.6140  -21.2604  -10.7511 C   0  0  2  0  0  0  0  0  0  0  0  0
   24.5084  -20.5828  -11.4156 N   0  0  0  0  0  0  0  0  0  0  0  0
   25.8530  -20.5705   -9.4643 C   0  0  0  0  0  0  0  0  0  0  0  0
   24.8512  -20.0122   -8.9026 O   0  0  0  0  0  0  0  0  0  0  0  0
   29.3223  -19.5932   -4.3653 C   0  0  0  0  0  0  0  0  0  0  0  0
   27.7501  -20.4481   -4.0814 S   0  0  0  0  0  0  0  0  0  0  0  0
   26.4631  -19.7265   -5.1388 C   0  0  0  0  0  0  0  0  0  0  0  0
   26.4090  -20.5037   -6.4255 C   0  0  0  0  0  0  0  0  0  0  0  0
   27.1748  -19.7699   -7.5137 C   0  0  2  0  0  0  0  0  0  0  0  0
   27.0736  -20.4630   -8.7853 N   0  0  0  0  0  0  0  0  0  0  0  0
   28.5835  -19.5898   -7.0999 C   0  0  0  0  0  0  0  0  0  0  0  0
   29.0069  -18.4150   -6.5226 O   0  0  0  0  0  0  0  0  0  0  0  0
   29.4027  -20.5137   -7.2748 O   0  0  0  0  0  0  0  0  0  0  0  0
  2  1  1  0
  3  5  1  0
  3  2  1  0
  3  4  1  6
  5  6  1  1
  7  5  1  0
  7  8  2  0
 10  9  1  6
 10 12  1  0
 11 10  1  0
 12 13  1  6
 13  7  1  0
 14 12  1  0
 15 14  2  0
 16 17  1  0
 18 19  1  0
 18 17  1  0
 20 19  1  1
 20 21  1  0
 20 22  1  0
 21 14  1  0
 22 23  1  0
 24 22  2  0
M  END
$$$$
