ITM.pdb
     RDKit          3D

 24 23  0  0  1  0  0  0  0  0999 V2000
   15.1228  -13.9513  -18.8926 C   0  0  0  0  0  0  0  0  0  0  0  0
   16.2265  -13.6408  -17.9240 C   0  0  0  0  0  0  0  0  0  0  0  0
   16.7577  -12.2289  -18.0971 C   0  0  2  0  0  0  0  0  0  0  0  0
   17.1952  -12.1092  -19.5389 C   0  0  0  0  0  0  0  0  0  0  0  0
   17.8472  -11.9139  -17.1288 C   0  0  2  0  0  0  0  0  0  0  0  0
   17.3093  -12.0123  -15.7907 N   0  0  0  0  0  0  0  0  0  0  0  0
   18.3711  -10.5433  -17.4034 C   0  0  0  0  0  0  0  0  0  0  0  0
   18.9502  -10.2536  -18.4799 O   0  0  0  0  0  0  0  0  0  0  0  0
   16.6419   -7.2561  -17.6895 C   0  0  0  0  0  0  0  0  0  0  0  0
   17.6559   -7.1426  -16.5723 C   0  0  1  0  0  0  0  0  0  0  0  0
   16.9329   -7.4778  -15.3929 O   0  0  0  0  0  0  0  0  0  0  0  0
   18.7656   -8.1712  -16.6866 C   0  0  2  0  0  0  0  0  0  0  0  0
   18.2338   -9.5072  -16.4513 N   0  0  0  0  0  0  0  0  0  0  0  0
   19.8674   -7.9524  -15.7239 C   0  0  0  0  0  0  0  0  0  0  0  0
   20.0416   -8.8375  -14.8199 O   0  0  0  0  0  0  0  0  0  0  0  0
   26.7054   -9.6330  -14.4161 C   0  0  0  0  0  0  0  0  0  0  0  0
   25.1840   -9.4753  -15.3875 S   0  0  0  0  0  0  0  0  0  0  0  0
   24.1721   -8.1231  -14.7218 C   0  0  0  0  0  0  0  0  0  0  0  0
   22.8745   -8.0774  -15.4812 C   0  0  0  0  0  0  0  0  0  0  0  0
   22.0111   -6.9340  -14.9752 C   0  0  2  0  0  0  0  0  0  0  0  0
   20.7529   -6.8672  -15.6964 N   0  0  0  0  0  0  0  0  0  0  0  0
   22.7612   -5.6623  -15.0658 C   0  0  0  0  0  0  0  0  0  0  0  0
   23.5909   -5.2558  -14.0464 O   0  0  0  0  0  0  0  0  0  0  0  0
   22.6430   -4.9451  -16.0791 O   0  0  0  0  0  0  0  0  0  0  0  0
  2  1  1  0
  3  5  1  0
  3  2  1  0
  3  4  1  6
  5  6  1  1
  7  5  1  0
  7  8  2  0
 10  9  1  6
 10 12  1  0
 11 10  1  0
 12 13  1  1
 13  7  1  0
 14 12  1  0
 15 14  2  0
 16 17  1  0
 18 19  1  0
 18 17  1  0
 20 19  1  6
 20 21  1  0
 20 22  1  0
 21 14  1  0
 22 23  1  0
 24 22  2  0
M  END
$$$$
