ITM.pdb
     RDKit          3D

 24 23  0  0  1  0  0  0  0  0999 V2000
   24.0624  -24.0815  -16.9648 C   0  0  0  0  0  0  0  0  0  0  0  0
   25.4598  -23.8906  -16.4513 C   0  0  0  0  0  0  0  0  0  0  0  0
   26.4852  -24.6199  -17.3013 C   0  0  2  0  0  0  0  0  0  0  0  0
   26.0317  -26.0597  -17.3788 C   0  0  0  0  0  0  0  0  0  0  0  0
   27.8690  -24.4723  -16.7656 C   0  0  2  0  0  0  0  0  0  0  0  0
   28.1720  -23.0620  -16.6703 N   0  0  0  0  0  0  0  0  0  0  0  0
   28.8266  -25.1727  -17.6715 C   0  0  0  0  0  0  0  0  0  0  0  0
   28.7759  -25.0489  -18.9206 O   0  0  0  0  0  0  0  0  0  0  0  0
   32.2777  -24.6185  -18.1552 C   0  0  0  0  0  0  0  0  0  0  0  0
   32.1937  -26.0809  -17.7766 C   0  0  1  0  0  0  0  0  0  0  0  0
   32.3875  -26.1007  -16.3666 O   0  0  0  0  0  0  0  0  0  0  0  0
   30.8139  -26.6657  -18.0153 C   0  0  2  0  0  0  0  0  0  0  0  0
   29.8389  -26.0120  -17.1520 N   0  0  0  0  0  0  0  0  0  0  0  0
   30.7413  -28.1196  -17.7516 C   0  0  0  0  0  0  0  0  0  0  0  0
   30.2032  -28.4911  -16.6546 O   0  0  0  0  0  0  0  0  0  0  0  0
   27.6663  -32.4683  -20.3403 C   0  0  0  0  0  0  0  0  0  0  0  0
   28.9442  -33.6194  -19.7700 S   0  0  0  0  0  0  0  0  0  0  0  0
   30.1035  -32.7513  -18.6756 C   0  0  0  0  0  0  0  0  0  0  0  0
   30.1124  -31.2937  -19.0468 C   0  0  0  0  0  0  0  0  0  0  0  0
   31.1158  -30.5405  -18.1895 C   0  0  2  0  0  0  0  0  0  0  0  0
   31.2027  -29.1465  -18.5853 N   0  0  0  0  0  0  0  0  0  0  0  0
   32.4329  -31.2106  -18.2553 C   0  0  0  0  0  0  0  0  0  0  0  0
   32.6744  -32.3676  -17.5513 O   0  0  0  0  0  0  0  0  0  0  0  0
   33.3406  -30.7231  -18.9580 O   0  0  0  0  0  0  0  0  0  0  0  0
  2  1  1  0
  3  5  1  0
  3  2  1  0
  3  4  1  1
  5  6  1  6
  7  5  1  0
  7  8  2  0
 10  9  1  1
 10 12  1  0
 11 10  1  0
 12 13  1  1
 13  7  1  0
 14 12  1  0
 15 14  2  0
 16 17  1  0
 18 19  1  0
 18 17  1  0
 20 19  1  6
 20 21  1  0
 20 22  1  0
 21 14  1  0
 22 23  1  0
 24 22  2  0
M  END
$$$$
