ITM.pdb
     RDKit          3D

 24 23  0  0  1  0  0  0  0  0999 V2000
   25.8513  -13.2807  -15.8413 C   0  0  0  0  0  0  0  0  0  0  0  0
   26.8623  -14.3811  -15.9814 C   0  0  0  0  0  0  0  0  0  0  0  0
   26.2081  -15.7468  -16.0938 C   0  0  2  0  0  0  0  0  0  0  0  0
   25.4141  -15.9476  -14.8235 C   0  0  0  0  0  0  0  0  0  0  0  0
   27.2034  -16.8303  -16.3371 C   0  0  2  0  0  0  0  0  0  0  0  0
   27.9357  -16.5132  -17.5424 N   0  0  0  0  0  0  0  0  0  0  0  0
   26.4911  -18.1361  -16.4629 C   0  0  0  0  0  0  0  0  0  0  0  0
   25.9215  -18.4857  -17.5266 O   0  0  0  0  0  0  0  0  0  0  0  0
   28.0542  -21.3731  -16.0334 C   0  0  0  0  0  0  0  0  0  0  0  0
   26.8180  -21.4361  -15.1635 C   0  0  1  0  0  0  0  0  0  0  0  0
   27.2837  -21.1385  -13.8517 O   0  0  0  0  0  0  0  0  0  0  0  0
   25.8112  -20.3527  -15.5033 C   0  0  2  0  0  0  0  0  0  0  0  0
   26.4298  -19.0395  -15.3770 N   0  0  0  0  0  0  0  0  0  0  0  0
   24.6164  -20.3701  -14.6311 C   0  0  0  0  0  0  0  0  0  0  0  0
   24.5658  -19.5110  -13.6875 O   0  0  0  0  0  0  0  0  0  0  0  0
   20.9001  -16.9363  -14.8615 C   0  0  0  0  0  0  0  0  0  0  0  0
   19.8039  -17.8164  -13.7183 S   0  0  0  0  0  0  0  0  0  0  0  0
   20.4660  -19.4750  -13.3927 C   0  0  0  0  0  0  0  0  0  0  0  0
   21.7462  -19.6397  -14.1649 C   0  0  0  0  0  0  0  0  0  0  0  0
   22.3182  -21.0297  -13.9413 C   0  0  2  0  0  0  0  0  0  0  0  0
   23.5197  -21.2361  -14.7294 N   0  0  0  0  0  0  0  0  0  0  0  0
   21.2878  -22.0486  -14.2383 C   0  0  0  0  0  0  0  0  0  0  0  0
   20.3419  -22.3930  -13.3005 O   0  0  0  0  0  0  0  0  0  0  0  0
   21.2726  -22.6062  -15.3537 O   0  0  0  0  0  0  0  0  0  0  0  0
  2  1  1  0
  3  5  1  0
  3  2  1  0
  3  4  1  1
  5  6  1  6
  7  5  1  0
  7  8  2  0
 10  9  1  6
 10 12  1  0
 11 10  1  0
 12 13  1  1
 13  7  1  0
 14 12  1  0
 15 14  2  0
 16 17  1  0
 18 19  1  0
 18 17  1  0
 20 19  1  6
 20 21  1  0
 20 22  1  0
 21 14  1  0
 22 23  1  0
 24 22  2  0
M  END
$$$$
