ITM.pdb
     RDKit          3D

 24 23  0  0  1  0  0  0  0  0999 V2000
   22.1949  -14.4678  -21.1503 C   0  0  0  0  0  0  0  0  0  0  0  0
   21.8115  -13.8420  -19.8410 C   0  0  0  0  0  0  0  0  0  0  0  0
   22.3423  -12.4256  -19.7080 C   0  0  2  0  0  0  0  0  0  0  0  0
   23.8440  -12.5150  -19.8542 C   0  0  0  0  0  0  0  0  0  0  0  0
   21.9179  -11.7821  -18.4314 C   0  0  2  0  0  0  0  0  0  0  0  0
   20.4834  -11.9135  -18.3106 N   0  0  0  0  0  0  0  0  0  0  0  0
   22.3324  -10.3481  -18.4394 C   0  0  0  0  0  0  0  0  0  0  0  0
   23.5368  -10.0022  -18.5289 O   0  0  0  0  0  0  0  0  0  0  0  0
   21.6688   -7.4590  -20.6981 C   0  0  0  0  0  0  0  0  0  0  0  0
   21.1292   -7.0976  -19.3317 C   0  0  1  0  0  0  0  0  0  0  0  0
   19.7604   -7.4863  -19.3694 O   0  0  0  0  0  0  0  0  0  0  0  0
   21.7632   -7.9141  -18.2208 C   0  0  2  0  0  0  0  0  0  0  0  0
   21.3742   -9.3128  -18.3453 N   0  0  0  0  0  0  0  0  0  0  0  0
   21.3752   -7.4607  -16.8671 C   0  0  0  0  0  0  0  0  0  0  0  0
   20.4961   -8.1489  -16.2470 O   0  0  0  0  0  0  0  0  0  0  0  0
   21.8070   -7.9542   -9.6944 C   0  0  0  0  0  0  0  0  0  0  0  0
   22.0715   -8.3481  -11.4430 S   0  0  0  0  0  0  0  0  0  0  0  0
   21.6420   -6.9103  -12.4646 C   0  0  0  0  0  0  0  0  0  0  0  0
   21.8620   -7.2665  -13.9093 C   0  0  0  0  0  0  0  0  0  0  0  0
   21.5178   -6.0837  -14.7991 C   0  0  2  0  0  0  0  0  0  0  0  0
   21.8744   -6.3455  -16.1817 N   0  0  0  0  0  0  0  0  0  0  0  0
   22.1771   -4.8629  -14.2862 C   0  0  0  0  0  0  0  0  0  0  0  0
   21.7520   -4.2645  -13.1227 O   0  0  0  0  0  0  0  0  0  0  0  0
   23.1328   -4.3655  -14.9144 O   0  0  0  0  0  0  0  0  0  0  0  0
  2  1  1  0
  3  5  1  0
  3  2  1  0
  3  4  1  1
  5  6  1  6
  7  5  1  0
  7  8  2  0
 10  9  1  6
 10 12  1  0
 11 10  1  0
 12 13  1  6
 13  7  1  0
 14 12  1  0
 15 14  2  0
 16 17  1  0
 18 19  1  0
 18 17  1  0
 20 19  1  1
 20 21  1  0
 20 22  1  0
 21 14  1  0
 22 23  1  0
 24 22  2  0
M  END
$$$$
