ITM.pdb
     RDKit          3D

 24 23  0  0  1  0  0  0  0  0999 V2000
   13.3797  -22.4434   -8.2721 C   0  0  0  0  0  0  0  0  0  0  0  0
   14.6745  -22.7882   -7.5957 C   0  0  0  0  0  0  0  0  0  0  0  0
   14.4967  -23.8586   -6.5335 C   0  0  2  0  0  0  0  0  0  0  0  0
   13.5400  -23.2919   -5.5097 C   0  0  0  0  0  0  0  0  0  0  0  0
   15.7968  -24.2877   -5.9425 C   0  0  2  0  0  0  0  0  0  0  0  0
   16.5883  -24.9042   -6.9831 N   0  0  0  0  0  0  0  0  0  0  0  0
   15.5396  -25.2389   -4.8212 C   0  0  0  0  0  0  0  0  0  0  0  0
   14.7459  -26.2061   -4.9353 O   0  0  0  0  0  0  0  0  0  0  0  0
   16.6296  -28.0060   -3.9352 C   0  0  0  0  0  0  0  0  0  0  0  0
   16.9295  -27.2257   -2.6741 C   0  0  1  0  0  0  0  0  0  0  0  0
   18.2252  -26.6768   -2.8884 O   0  0  0  0  0  0  0  0  0  0  0  0
   16.0007  -26.0401   -2.4884 C   0  0  2  0  0  0  0  0  0  0  0  0
   16.1869  -25.0858   -3.5736 N   0  0  0  0  0  0  0  0  0  0  0  0
   16.2204  -25.3188   -1.2156 C   0  0  0  0  0  0  0  0  0  0  0  0
   17.1904  -24.4893   -1.1708 O   0  0  0  0  0  0  0  0  0  0  0  0
   12.2315  -20.7056    0.2647 C   0  0  0  0  0  0  0  0  0  0  0  0
   12.8769  -21.8790    1.4853 S   0  0  0  0  0  0  0  0  0  0  0  0
   14.2579  -22.8114    0.7651 C   0  0  0  0  0  0  0  0  0  0  0  0
   14.6088  -23.9414    1.6938 C   0  0  0  0  0  0  0  0  0  0  0  0
   15.8100  -24.7043    1.1607 C   0  0  2  0  0  0  0  0  0  0  0  0
   15.4700  -25.4466   -0.0396 N   0  0  0  0  0  0  0  0  0  0  0  0
   16.3496  -25.5890    2.2162 C   0  0  0  0  0  0  0  0  0  0  0  0
   16.9065  -25.0672    3.3609 O   0  0  0  0  0  0  0  0  0  0  0  0
   16.3011  -26.8267    2.0706 O   0  0  0  0  0  0  0  0  0  0  0  0
  2  1  1  0
  3  5  1  0
  3  2  1  0
  3  4  1  1
  5  6  1  6
  7  5  1  0
  7  8  2  0
 10  9  1  6
 10 12  1  0
 11 10  1  0
 12 13  1  6
 13  7  1  0
 14 12  1  0
 15 14  2  0
 16 17  1  0
 18 19  1  0
 18 17  1  0
 20 19  1  1
 20 21  1  0
 20 22  1  0
 21 14  1  0
 22 23  1  0
 24 22  2  0
M  END
$$$$
