ITM.pdb
     RDKit          3D

 24 23  0  0  1  0  0  0  0  0999 V2000
   11.3964   -9.4155   -8.3030 C   0  0  0  0  0  0  0  0  0  0  0  0
   12.8367   -9.6810   -8.6316 C   0  0  0  0  0  0  0  0  0  0  0  0
   13.4430   -8.5747   -9.4766 C   0  0  2  0  0  0  0  0  0  0  0  0
   12.6046   -8.4849  -10.7310 C   0  0  0  0  0  0  0  0  0  0  0  0
   14.8890   -8.8075   -9.7569 C   0  0  2  0  0  0  0  0  0  0  0  0
   15.5967   -8.8431   -8.4969 N   0  0  0  0  0  0  0  0  0  0  0  0
   15.4033   -7.7173  -10.6373 C   0  0  0  0  0  0  0  0  0  0  0  0
   15.0101   -7.5748  -11.8219 O   0  0  0  0  0  0  0  0  0  0  0  0
   14.9071   -4.1848  -10.5341 C   0  0  0  0  0  0  0  0  0  0  0  0
   16.4057   -4.3719  -10.4425 C   0  0  1  0  0  0  0  0  0  0  0  0
   16.6792   -4.4191   -9.0464 O   0  0  0  0  0  0  0  0  0  0  0  0
   16.8608   -5.7074  -11.0011 C   0  0  2  0  0  0  0  0  0  0  0  0
   16.3638   -6.7930  -10.1659 N   0  0  0  0  0  0  0  0  0  0  0  0
   18.3324   -5.8389  -11.0768 C   0  0  0  0  0  0  0  0  0  0  0  0
   18.8835   -6.7095  -10.3224 O   0  0  0  0  0  0  0  0  0  0  0  0
   22.7198  -10.1622  -12.7254 C   0  0  0  0  0  0  0  0  0  0  0  0
   21.6536   -9.1985  -13.8288 S   0  0  0  0  0  0  0  0  0  0  0  0
   21.7506   -7.4399  -13.3891 C   0  0  0  0  0  0  0  0  0  0  0  0
   20.4063   -6.9993  -12.8781 C   0  0  0  0  0  0  0  0  0  0  0  0
   20.5075   -5.6127  -12.2646 C   0  0  2  0  0  0  0  0  0  0  0  0
   19.1983   -5.1043  -11.8973 N   0  0  0  0  0  0  0  0  0  0  0  0
   21.2053   -4.7020  -13.1982 C   0  0  0  0  0  0  0  0  0  0  0  0
   22.5780   -4.6098  -13.2036 O   0  0  0  0  0  0  0  0  0  0  0  0
   20.5438   -4.0059  -13.9939 O   0  0  0  0  0  0  0  0  0  0  0  0
  2  1  1  0
  3  5  1  0
  3  2  1  0
  3  4  1  6
  5  6  1  1
  7  5  1  0
  7  8  2  0
 10  9  1  1
 10 12  1  0
 11 10  1  0
 12 13  1  1
 13  7  1  0
 14 12  1  0
 15 14  2  0
 16 17  1  0
 18 19  1  0
 18 17  1  0
 20 19  1  6
 20 21  1  0
 20 22  1  0
 21 14  1  0
 22 23  1  0
 24 22  2  0
M  END
$$$$
