ITM.pdb
     RDKit          3D

 24 23  0  0  1  0  0  0  0  0999 V2000
   19.7781  -25.6640  -14.3073 C   0  0  0  0  0  0  0  0  0  0  0  0
   19.5781  -26.5633  -13.1223 C   0  0  0  0  0  0  0  0  0  0  0  0
   19.3722  -25.7790  -11.8385 C   0  0  2  0  0  0  0  0  0  0  0  0
   20.5808  -24.8847  -11.6839 C   0  0  0  0  0  0  0  0  0  0  0  0
   19.1514  -26.6698  -10.6631 C   0  0  2  0  0  0  0  0  0  0  0  0
   17.9717  -27.4673  -10.9118 N   0  0  0  0  0  0  0  0  0  0  0  0
   18.9936  -25.8365   -9.4347 C   0  0  0  0  0  0  0  0  0  0  0  0
   19.8349  -24.9623   -9.1088 O   0  0  0  0  0  0  0  0  0  0  0  0
   16.4557  -23.4004   -8.1892 C   0  0  0  0  0  0  0  0  0  0  0  0
   16.5066  -24.5398   -7.1952 C   0  0  1  0  0  0  0  0  0  0  0  0
   15.4705  -25.4248   -7.6068 O   0  0  0  0  0  0  0  0  0  0  0  0
   17.7951  -25.3360   -7.2878 C   0  0  2  0  0  0  0  0  0  0  0  0
   17.8785  -26.0015   -8.5813 N   0  0  0  0  0  0  0  0  0  0  0  0
   17.9172  -26.3749   -6.2416 C   0  0  0  0  0  0  0  0  0  0  0  0
   17.9144  -27.5940   -6.6217 O   0  0  0  0  0  0  0  0  0  0  0  0
   20.9431  -26.6868   -0.5018 C   0  0  0  0  0  0  0  0  0  0  0  0
   19.3994  -27.5465   -0.1006 S   0  0  0  0  0  0  0  0  0  0  0  0
   18.5579  -28.0373   -1.6325 C   0  0  0  0  0  0  0  0  0  0  0  0
   18.5171  -26.8518   -2.5573 C   0  0  0  0  0  0  0  0  0  0  0  0
   17.9882  -27.2678   -3.9198 C   0  0  2  0  0  0  0  0  0  0  0  0
   18.0387  -26.1645   -4.8619 N   0  0  0  0  0  0  0  0  0  0  0  0
   16.6174  -27.8062   -3.7815 C   0  0  0  0  0  0  0  0  0  0  0  0
   16.3967  -29.1592   -3.6659 O   0  0  0  0  0  0  0  0  0  0  0  0
   15.6446  -27.0259   -3.7688 O   0  0  0  0  0  0  0  0  0  0  0  0
  2  1  1  0
  3  5  1  0
  3  2  1  0
  3  4  1  1
  5  6  1  6
  7  5  1  0
  7  8  2  0
 10  9  1  6
 10 12  1  0
 11 10  1  0
 12 13  1  6
 13  7  1  0
 14 12  1  0
 15 14  2  0
 16 17  1  0
 18 19  1  0
 18 17  1  0
 20 19  1  1
 20 21  1  0
 20 22  1  0
 21 14  1  0
 22 23  1  0
 24 22  2  0
M  END
$$$$
