ITM.pdb
     RDKit          3D

 24 23  0  0  1  0  0  0  0  0999 V2000
   15.4180  -14.6170  -17.7136 C   0  0  0  0  0  0  0  0  0  0  0  0
   16.2528  -14.1088  -16.5744 C   0  0  0  0  0  0  0  0  0  0  0  0
   16.9231  -12.7866  -16.9032 C   0  0  2  0  0  0  0  0  0  0  0  0
   17.7865  -13.0342  -18.1188 C   0  0  0  0  0  0  0  0  0  0  0  0
   17.6882  -12.2394  -15.7460 C   0  0  2  0  0  0  0  0  0  0  0  0
   16.7803  -12.0868  -14.6315 N   0  0  0  0  0  0  0  0  0  0  0  0
   18.2988  -10.9328  -16.1310 C   0  0  0  0  0  0  0  0  0  0  0  0
   19.0791  -10.8235  -17.1094 O   0  0  0  0  0  0  0  0  0  0  0  0
   16.3745   -7.7860  -16.9576 C   0  0  0  0  0  0  0  0  0  0  0  0
   17.3834   -7.4517  -15.8809 C   0  0  1  0  0  0  0  0  0  0  0  0
   16.6688   -7.5970  -14.6585 O   0  0  0  0  0  0  0  0  0  0  0  0
   18.5219   -8.4531  -15.8188 C   0  0  2  0  0  0  0  0  0  0  0  0
   18.0189   -9.7551  -15.4006 N   0  0  0  0  0  0  0  0  0  0  0  0
   19.5930   -8.0633  -14.8757 C   0  0  0  0  0  0  0  0  0  0  0  0
   19.7794   -8.8110  -13.8574 O   0  0  0  0  0  0  0  0  0  0  0  0
   26.6231   -9.4627  -14.7011 C   0  0  0  0  0  0  0  0  0  0  0  0
   24.9366   -9.4270  -15.3625 S   0  0  0  0  0  0  0  0  0  0  0  0
   24.0465   -7.9957  -14.6881 C   0  0  0  0  0  0  0  0  0  0  0  0
   22.6186   -8.0554  -15.1569 C   0  0  0  0  0  0  0  0  0  0  0  0
   21.7957   -6.9788  -14.4693 C   0  0  2  0  0  0  0  0  0  0  0  0
   20.4370   -6.9500  -14.9800 N   0  0  0  0  0  0  0  0  0  0  0  0
   22.4634   -5.6672  -14.6179 C   0  0  0  0  0  0  0  0  0  0  0  0
   22.1726   -4.8411  -15.6789 O   0  0  0  0  0  0  0  0  0  0  0  0
   23.3027   -5.3009  -13.7714 O   0  0  0  0  0  0  0  0  0  0  0  0
  2  1  1  0
  3  5  1  0
  3  2  1  0
  3  4  1  6
  5  6  1  1
  7  5  1  0
  7  8  2  0
 10  9  1  6
 10 12  1  0
 11 10  1  0
 12 13  1  1
 13  7  1  0
 14 12  1  0
 15 14  2  0
 16 17  1  0
 18 19  1  0
 18 17  1  0
 20 19  1  6
 20 21  1  0
 20 22  1  0
 21 14  1  0
 22 23  1  0
 24 22  2  0
M  END
$$$$
