MYD.pdb
     RDKit          3D

 29 29  0  0  1  0  0  0  0  0999 V2000
    6.1950  -11.9403   19.5888 C   0  0  0  0  0  0  0  0  0  0  0  0
    7.6991  -12.7597   18.9815 S   0  0  0  0  0  0  0  0  0  0  0  0
    7.9953  -14.2542   20.0016 C   0  0  0  0  0  0  0  0  0  0  0  0
    9.2432  -14.9484   19.5640 C   0  0  0  0  0  0  0  0  0  0  0  0
    9.6916  -16.0437   20.4353 C   0  0  2  0  0  0  0  0  0  0  0  0
    8.6827  -17.0913   20.5105 N   0  0  0  0  0  0  0  0  0  0  0  0
   10.1526  -15.6389   21.7807 C   0  0  0  0  0  0  0  0  0  0  0  0
   11.1494  -14.8804   21.9923 O   0  0  0  0  0  0  0  0  0  0  0  0
   10.7054  -14.9925   30.7331 O   0  0  0  0  0  0  0  0  0  0  0  0
   10.2732  -15.1357   29.3993 C   0  0  0  0  0  0  0  0  0  0  0  0
    9.9637  -16.3721   28.8845 C   0  0  0  0  0  0  0  0  0  0  0  0
    9.5437  -16.4996   27.5756 C   0  0  0  0  0  0  0  0  0  0  0  0
    9.4166  -15.4083   26.7356 C   0  0  0  0  0  0  0  0  0  0  0  0
    8.9751  -15.6291   25.3680 C   0  0  0  0  0  0  0  0  0  0  0  0
    9.9699  -15.8469   24.3132 C   0  0  2  0  0  0  0  0  0  0  0  0
    9.4901  -16.0893   22.9752 N   0  0  0  0  0  0  0  0  0  0  0  0
   11.1108  -16.7325   24.6122 C   0  0  0  0  0  0  0  0  0  0  0  0
   11.7207  -16.5642   25.7093 O   0  0  0  0  0  0  0  0  0  0  0  0
    9.7345  -14.1832   27.2846 C   0  0  0  0  0  0  0  0  0  0  0  0
   10.1552  -14.0445   28.5916 C   0  0  0  0  0  0  0  0  0  0  0  0
   11.5934  -17.7556   23.7939 N   0  0  0  0  0  0  0  0  0  0  0  0
   12.7654  -18.5766   24.1999 C   0  0  1  0  0  0  0  0  0  0  0  0
   12.6629  -19.8785   23.5003 C   0  0  0  0  0  0  0  0  0  0  0  0
   11.4284  -20.6173   23.8090 C   0  0  0  0  0  0  0  0  0  0  0  0
   10.9139  -20.6021   24.9489 O   0  0  0  0  0  0  0  0  0  0  0  0
   14.0123  -17.8156   23.9612 C   0  0  0  0  0  0  0  0  0  0  0  0
   15.2731  -18.2498   24.3222 O   0  0  0  0  0  0  0  0  0  0  0  0
   10.7781  -21.3669   22.8448 O   0  0  0  0  0  0  0  0  0  0  0  0
   13.9537  -16.6841   23.3896 O   0  0  0  0  0  0  0  0  0  0  0  0
  2  1  1  0
  3  2  1  0
  4  5  1  0
  4  3  1  0
  5  6  1  1
  7  8  2  0
  7  5  1  0
  9 10  1  0
 10 11  2  0
 11 12  1  0
 13 12  2  0
 13 14  1  0
 15 14  1  1
 15 16  1  0
 16  7  1  0
 17 21  1  0
 17 15  1  0
 18 17  2  0
 19 13  1  0
 20 10  1  0
 20 19  2  0
 22 21  1  0
 22 26  1  0
 22 23  1  6
 23 24  1  0
 24 25  2  0
 26 27  1  0
 28 24  1  0
 29 26  2  0
M  END
$$$$
