MYD.pdb
     RDKit          3D

 29 29  0  0  1  0  0  0  0  0999 V2000
    7.1700  -11.3946   19.9332 C   0  0  0  0  0  0  0  0  0  0  0  0
    6.6531  -12.4953   18.5826 S   0  0  0  0  0  0  0  0  0  0  0  0
    7.1161  -14.2127   19.0272 C   0  0  0  0  0  0  0  0  0  0  0  0
    8.2902  -14.2166   19.9503 C   0  0  0  0  0  0  0  0  0  0  0  0
    8.6412  -15.5271   20.5153 C   0  0  2  0  0  0  0  0  0  0  0  0
    7.4674  -16.3851   20.6003 N   0  0  0  0  0  0  0  0  0  0  0  0
    9.3792  -15.4914   21.7961 C   0  0  0  0  0  0  0  0  0  0  0  0
   10.6378  -15.3461   21.8875 O   0  0  0  0  0  0  0  0  0  0  0  0
   10.7272  -15.2673   30.7335 O   0  0  0  0  0  0  0  0  0  0  0  0
   10.2032  -15.2210   29.4260 C   0  0  0  0  0  0  0  0  0  0  0  0
   10.1118  -14.0323   28.7418 C   0  0  0  0  0  0  0  0  0  0  0  0
    9.5944  -13.9996   27.4624 C   0  0  0  0  0  0  0  0  0  0  0  0
    9.1516  -15.1415   26.8200 C   0  0  0  0  0  0  0  0  0  0  0  0
    8.6131  -15.0202   25.4749 C   0  0  0  0  0  0  0  0  0  0  0  0
    9.3657  -15.5685   24.3424 C   0  0  2  0  0  0  0  0  0  0  0  0
    8.7074  -15.6248   23.0608 N   0  0  0  0  0  0  0  0  0  0  0  0
   10.1506  -16.7973   24.5650 C   0  0  0  0  0  0  0  0  0  0  0  0
    9.5531  -17.9093   24.4635 O   0  0  0  0  0  0  0  0  0  0  0  0
    9.2586  -16.3167   27.5348 C   0  0  0  0  0  0  0  0  0  0  0  0
    9.7742  -16.3606   28.8141 C   0  0  0  0  0  0  0  0  0  0  0  0
   11.5093  -16.8586   24.8804 N   0  0  0  0  0  0  0  0  0  0  0  0
   12.1877  -18.1627   25.1072 C   0  0  1  0  0  0  0  0  0  0  0  0
   13.0104  -18.4529   23.9097 C   0  0  0  0  0  0  0  0  0  0  0  0
   14.0265  -17.4259   23.6304 C   0  0  0  0  0  0  0  0  0  0  0  0
   14.1437  -16.3998   24.3359 O   0  0  0  0  0  0  0  0  0  0  0  0
   12.9176  -18.1264   26.3944 C   0  0  0  0  0  0  0  0  0  0  0  0
   13.5608  -19.2113   26.9581 O   0  0  0  0  0  0  0  0  0  0  0  0
   14.9031  -17.5511   22.5671 O   0  0  0  0  0  0  0  0  0  0  0  0
   12.9743  -17.0411   27.0498 O   0  0  0  0  0  0  0  0  0  0  0  0
  2  1  1  0
  3  2  1  0
  4  5  1  0
  4  3  1  0
  5  6  1  1
  7  8  2  0
  7  5  1  0
  9 10  1  0
 10 11  2  0
 11 12  1  0
 13 12  2  0
 13 14  1  0
 15 14  1  1
 15 16  1  0
 16  7  1  0
 17 21  1  0
 17 15  1  0
 18 17  2  0
 19 13  1  0
 20 10  1  0
 20 19  2  0
 22 21  1  0
 22 26  1  0
 22 23  1  6
 23 24  1  0
 24 25  2  0
 26 27  1  0
 28 24  1  0
 29 26  2  0
M  END
$$$$
