MYD.pdb
     RDKit          3D

 29 29  0  0  1  0  0  0  0  0999 V2000
    7.6239  -11.8962   19.2743 C   0  0  0  0  0  0  0  0  0  0  0  0
    6.7615  -13.3214   18.5479 S   0  0  0  0  0  0  0  0  0  0  0  0
    7.3041  -14.8355   19.4282 C   0  0  0  0  0  0  0  0  0  0  0  0
    8.6666  -14.6438   20.0094 C   0  0  0  0  0  0  0  0  0  0  0  0
    9.2136  -15.8051   20.7249 C   0  0  2  0  0  0  0  0  0  0  0  0
    8.2193  -16.8641   20.8293 N   0  0  0  0  0  0  0  0  0  0  0  0
    9.8315  -15.5120   22.0359 C   0  0  0  0  0  0  0  0  0  0  0  0
   10.8707  -14.7975   22.1882 O   0  0  0  0  0  0  0  0  0  0  0  0
   11.0052  -15.1038   30.9409 O   0  0  0  0  0  0  0  0  0  0  0  0
   10.4900  -15.1894   29.6318 C   0  0  0  0  0  0  0  0  0  0  0  0
   10.1376  -16.4015   29.0877 C   0  0  0  0  0  0  0  0  0  0  0  0
    9.6364  -16.4725   27.8034 C   0  0  0  0  0  0  0  0  0  0  0  0
    9.4679  -15.3469   27.0177 C   0  0  0  0  0  0  0  0  0  0  0  0
    8.9406  -15.5085   25.6723 C   0  0  0  0  0  0  0  0  0  0  0  0
    9.8576  -15.8025   24.5667 C   0  0  2  0  0  0  0  0  0  0  0  0
    9.2875  -16.0308   23.2621 N   0  0  0  0  0  0  0  0  0  0  0  0
   10.9559  -16.7549   24.8152 C   0  0  0  0  0  0  0  0  0  0  0  0
   11.7522  -16.5066   25.7682 O   0  0  0  0  0  0  0  0  0  0  0  0
    9.8305  -14.1475   27.5949 C   0  0  0  0  0  0  0  0  0  0  0  0
   10.3325  -14.0653   28.8777 C   0  0  0  0  0  0  0  0  0  0  0  0
   11.2097  -17.9230   24.0938 N   0  0  0  0  0  0  0  0  0  0  0  0
   12.3503  -18.8109   24.4446 C   0  0  1  0  0  0  0  0  0  0  0  0
   11.8722  -20.2102   24.3527 C   0  0  0  0  0  0  0  0  0  0  0  0
   10.9821  -20.6021   25.4569 C   0  0  0  0  0  0  0  0  0  0  0  0
   10.9467  -19.9709   26.5361 O   0  0  0  0  0  0  0  0  0  0  0  0
   13.5196  -18.4749   23.6017 C   0  0  0  0  0  0  0  0  0  0  0  0
   13.4381  -18.0045   22.3053 O   0  0  0  0  0  0  0  0  0  0  0  0
   10.1395  -21.6943   25.3490 O   0  0  0  0  0  0  0  0  0  0  0  0
   14.6898  -18.6185   24.0711 O   0  0  0  0  0  0  0  0  0  0  0  0
  2  1  1  0
  3  2  1  0
  4  5  1  0
  4  3  1  0
  5  6  1  1
  7  8  2  0
  7  5  1  0
  9 10  1  0
 10 11  2  0
 11 12  1  0
 13 12  2  0
 13 14  1  0
 15 14  1  1
 15 16  1  0
 16  7  1  0
 17 21  1  0
 17 15  1  0
 18 17  2  0
 19 13  1  0
 20 10  1  0
 20 19  2  0
 22 21  1  0
 22 26  1  0
 22 23  1  6
 23 24  1  0
 24 25  2  0
 26 27  1  0
 28 24  1  0
 29 26  2  0
M  END
$$$$
