MYD.pdb
     RDKit          3D

 29 29  0  0  1  0  0  0  0  0999 V2000
    7.5318  -11.3546   19.6061 C   0  0  0  0  0  0  0  0  0  0  0  0
    6.9848  -12.6554   18.4609 S   0  0  0  0  0  0  0  0  0  0  0  0
    7.2624  -14.2825   19.2592 C   0  0  0  0  0  0  0  0  0  0  0  0
    8.6225  -14.3395   19.8736 C   0  0  0  0  0  0  0  0  0  0  0  0
    8.9431  -15.5902   20.5756 C   0  0  2  0  0  0  0  0  0  0  0  0
    7.7702  -16.4489   20.6648 N   0  0  0  0  0  0  0  0  0  0  0  0
    9.5989  -15.4316   21.8914 C   0  0  0  0  0  0  0  0  0  0  0  0
   10.7370  -14.8925   22.0582 O   0  0  0  0  0  0  0  0  0  0  0  0
   10.9151  -15.1156   30.7740 O   0  0  0  0  0  0  0  0  0  0  0  0
   10.3877  -15.1792   29.4686 C   0  0  0  0  0  0  0  0  0  0  0  0
   10.2344  -14.0426   28.7109 C   0  0  0  0  0  0  0  0  0  0  0  0
    9.7144  -14.1177   27.4343 C   0  0  0  0  0  0  0  0  0  0  0  0
    9.3300  -15.3193   26.8676 C   0  0  0  0  0  0  0  0  0  0  0  0
    8.7842  -15.3114   25.5200 C   0  0  0  0  0  0  0  0  0  0  0  0
    9.5935  -15.8215   24.4090 C   0  0  2  0  0  0  0  0  0  0  0  0
    8.9801  -15.8908   23.1058 N   0  0  0  0  0  0  0  0  0  0  0  0
   10.4159  -17.0222   24.6481 C   0  0  0  0  0  0  0  0  0  0  0  0
    9.8639  -18.1547   24.5186 O   0  0  0  0  0  0  0  0  0  0  0  0
    9.4982  -16.4397   27.6549 C   0  0  0  0  0  0  0  0  0  0  0  0
   10.0170  -16.3759   28.9320 C   0  0  0  0  0  0  0  0  0  0  0  0
   11.7649  -17.0360   25.0078 N   0  0  0  0  0  0  0  0  0  0  0  0
   12.4863  -18.3163   25.2374 C   0  0  1  0  0  0  0  0  0  0  0  0
   13.8946  -18.1163   24.8232 C   0  0  0  0  0  0  0  0  0  0  0  0
   14.0826  -18.0999   23.3639 C   0  0  0  0  0  0  0  0  0  0  0  0
   13.1649  -18.4120   22.5735 O   0  0  0  0  0  0  0  0  0  0  0  0
   12.2846  -18.7570   26.6359 C   0  0  0  0  0  0  0  0  0  0  0  0
   12.3341  -17.9192   27.7333 O   0  0  0  0  0  0  0  0  0  0  0  0
   15.2917  -17.7361   22.7980 O   0  0  0  0  0  0  0  0  0  0  0  0
   12.0494  -19.9804   26.8775 O   0  0  0  0  0  0  0  0  0  0  0  0
  2  1  1  0
  3  2  1  0
  4  5  1  0
  4  3  1  0
  5  6  1  1
  7  8  2  0
  7  5  1  0
  9 10  1  0
 10 11  2  0
 11 12  1  0
 13 12  2  0
 13 14  1  0
 15 14  1  1
 15 16  1  0
 16  7  1  0
 17 21  1  0
 17 15  1  0
 18 17  2  0
 19 13  1  0
 20 10  1  0
 20 19  2  0
 22 21  1  0
 22 26  1  0
 22 23  1  1
 23 24  1  0
 24 25  2  0
 26 27  1  0
 28 24  1  0
 29 26  2  0
M  END
$$$$
