MYD.pdb
     RDKit          3D

 29 29  0  0  1  0  0  0  0  0999 V2000
    6.0288  -11.4906   28.8096 C   0  0  0  0  0  0  0  0  0  0  0  0
    7.2691  -12.4525   27.8937 S   0  0  0  0  0  0  0  0  0  0  0  0
    6.4034  -13.4498   26.6217 C   0  0  0  0  0  0  0  0  0  0  0  0
    7.3780  -14.2849   25.8578 C   0  0  0  0  0  0  0  0  0  0  0  0
    6.7929  -15.1331   24.8099 C   0  0  2  0  0  0  0  0  0  0  0  0
    5.8135  -16.0513   25.3742 N   0  0  0  0  0  0  0  0  0  0  0  0
    7.7637  -15.8404   23.9475 C   0  0  0  0  0  0  0  0  0  0  0  0
    7.8441  -17.1048   23.8562 O   0  0  0  0  0  0  0  0  0  0  0  0
    5.8794  -12.8885   17.6476 O   0  0  0  0  0  0  0  0  0  0  0  0
    6.8834  -13.4310   18.4745 C   0  0  0  0  0  0  0  0  0  0  0  0
    7.7978  -12.6197   19.1030 C   0  0  0  0  0  0  0  0  0  0  0  0
    8.7781  -13.1634   19.9087 C   0  0  0  0  0  0  0  0  0  0  0  0
    8.8842  -14.5264   20.1178 C   0  0  0  0  0  0  0  0  0  0  0  0
    9.9502  -15.0191   20.9750 C   0  0  0  0  0  0  0  0  0  0  0  0
    9.6134  -15.7545   22.1978 C   0  0  2  0  0  0  0  0  0  0  0  0
    8.7114  -15.1287   23.1328 N   0  0  0  0  0  0  0  0  0  0  0  0
   10.7072  -16.4296   22.9211 C   0  0  0  0  0  0  0  0  0  0  0  0
   11.5293  -15.7086   23.5603 O   0  0  0  0  0  0  0  0  0  0  0  0
    7.9504  -15.3109   19.4729 C   0  0  0  0  0  0  0  0  0  0  0  0
    6.9665  -14.7778   18.6655 C   0  0  0  0  0  0  0  0  0  0  0  0
   10.9305  -17.8067   22.9738 N   0  0  0  0  0  0  0  0  0  0  0  0
   12.0259  -18.3768   23.8029 C   0  0  1  0  0  0  0  0  0  0  0  0
   11.8329  -17.8955   25.1907 C   0  0  0  0  0  0  0  0  0  0  0  0
   13.0889  -17.7475   25.9428 C   0  0  0  0  0  0  0  0  0  0  0  0
   14.2023  -17.9957   25.4296 O   0  0  0  0  0  0  0  0  0  0  0  0
   12.0653  -19.8466   23.6325 C   0  0  0  0  0  0  0  0  0  0  0  0
   13.2216  -20.6026   23.6389 O   0  0  0  0  0  0  0  0  0  0  0  0
   13.0935  -17.3246   27.2602 O   0  0  0  0  0  0  0  0  0  0  0  0
   10.9814  -20.4853   23.4661 O   0  0  0  0  0  0  0  0  0  0  0  0
  2  1  1  0
  3  2  1  0
  4  5  1  0
  4  3  1  0
  5  6  1  1
  7  8  2  0
  7  5  1  0
  9 10  1  0
 10 11  2  0
 11 12  1  0
 13 12  2  0
 13 14  1  0
 15 14  1  6
 15 16  1  0
 16  7  1  0
 17 21  1  0
 17 15  1  0
 18 17  2  0
 19 13  1  0
 20 10  1  0
 20 19  2  0
 22 21  1  0
 22 26  1  0
 22 23  1  1
 23 24  1  0
 24 25  2  0
 26 27  1  0
 28 24  1  0
 29 26  2  0
M  END
$$$$
