MYD.pdb
     RDKit          3D

 29 29  0  0  1  0  0  0  0  0999 V2000
    0.9501  -19.8765   22.1269 C   0  0  0  0  0  0  0  0  0  0  0  0
    2.5164  -18.9667   22.2738 S   0  0  0  0  0  0  0  0  0  0  0  0
    3.8607  -20.1756   22.5790 C   0  0  0  0  0  0  0  0  0  0  0  0
    5.1615  -19.4715   22.7862 C   0  0  0  0  0  0  0  0  0  0  0  0
    5.6233  -18.6582   21.6525 C   0  0  2  0  0  0  0  0  0  0  0  0
    5.6422  -19.4433   20.4261 N   0  0  0  0  0  0  0  0  0  0  0  0
    6.9028  -17.9464   21.8591 C   0  0  0  0  0  0  0  0  0  0  0  0
    8.0262  -18.3679   21.4421 O   0  0  0  0  0  0  0  0  0  0  0  0
    8.0840  -12.2584   17.5924 O   0  0  0  0  0  0  0  0  0  0  0  0
    8.1051  -12.8233   18.8834 C   0  0  0  0  0  0  0  0  0  0  0  0
    9.2693  -13.3197   19.4198 C   0  0  0  0  0  0  0  0  0  0  0  0
    9.2766  -13.8728   20.6846 C   0  0  0  0  0  0  0  0  0  0  0  0
    8.1328  -13.9518   21.4581 C   0  0  0  0  0  0  0  0  0  0  0  0
    8.2239  -14.5561   22.7774 C   0  0  0  0  0  0  0  0  0  0  0  0
    8.1928  -16.0160   22.9079 C   0  0  2  0  0  0  0  0  0  0  0  0
    6.9678  -16.6963   22.5674 N   0  0  0  0  0  0  0  0  0  0  0  0
    8.7866  -16.6140   24.1183 C   0  0  0  0  0  0  0  0  0  0  0  0
    8.2444  -16.3575   25.2338 O   0  0  0  0  0  0  0  0  0  0  0  0
    6.9829  -13.4438   20.8896 C   0  0  0  0  0  0  0  0  0  0  0  0
    6.9645  -12.8887   19.6263 C   0  0  0  0  0  0  0  0  0  0  0  0
    9.9046  -17.4493   24.1585 N   0  0  0  0  0  0  0  0  0  0  0  0
   10.4268  -17.9732   25.4489 C   0  0  1  0  0  0  0  0  0  0  0  0
   10.4831  -19.4498   25.3417 C   0  0  0  0  0  0  0  0  0  0  0  0
    9.5478  -20.1417   26.2426 C   0  0  0  0  0  0  0  0  0  0  0  0
    8.8061  -19.5189   27.0340 O   0  0  0  0  0  0  0  0  0  0  0  0
   11.7056  -17.3038   25.7764 C   0  0  0  0  0  0  0  0  0  0  0  0
   12.2560  -17.2484   27.0424 O   0  0  0  0  0  0  0  0  0  0  0  0
    9.4472  -21.5217   26.2539 O   0  0  0  0  0  0  0  0  0  0  0  0
   12.3650  -16.7319   24.8553 O   0  0  0  0  0  0  0  0  0  0  0  0
  2  1  1  0
  3  2  1  0
  4  5  1  0
  4  3  1  0
  5  6  1  6
  7  8  2  0
  7  5  1  0
  9 10  1  0
 10 11  2  0
 11 12  1  0
 13 12  2  0
 13 14  1  0
 15 14  1  1
 15 16  1  0
 16  7  1  0
 17 21  1  0
 17 15  1  0
 18 17  2  0
 19 13  1  0
 20 10  1  0
 20 19  2  0
 22 21  1  0
 22 26  1  0
 22 23  1  6
 23 24  1  0
 24 25  2  0
 26 27  1  0
 28 24  1  0
 29 26  2  0
M  END
$$$$
