MYD.pdb
     RDKit          3D

 29 29  0  0  1  0  0  0  0  0999 V2000
    7.0743  -12.8684   19.8388 C   0  0  0  0  0  0  0  0  0  0  0  0
    7.7245  -13.6165   18.3156 S   0  0  0  0  0  0  0  0  0  0  0  0
    9.4821  -14.0587   18.5934 C   0  0  0  0  0  0  0  0  0  0  0  0
    9.6982  -15.5181   18.3610 C   0  0  0  0  0  0  0  0  0  0  0  0
    9.1280  -16.4083   19.3820 C   0  0  2  0  0  0  0  0  0  0  0  0
    7.7429  -16.7330   19.0703 N   0  0  0  0  0  0  0  0  0  0  0  0
    9.2748  -15.9498   20.7801 C   0  0  0  0  0  0  0  0  0  0  0  0
   10.3717  -15.5608   21.2893 O   0  0  0  0  0  0  0  0  0  0  0  0
    7.4324  -12.7503   28.9303 O   0  0  0  0  0  0  0  0  0  0  0  0
    7.3489  -13.2992   27.6350 C   0  0  0  0  0  0  0  0  0  0  0  0
    7.3619  -12.4924   26.5221 C   0  0  0  0  0  0  0  0  0  0  0  0
    7.2771  -13.0420   25.2586 C   0  0  0  0  0  0  0  0  0  0  0  0
    7.1772  -14.4066   25.0567 C   0  0  0  0  0  0  0  0  0  0  0  0
    7.0845  -14.9045   23.6938 C   0  0  0  0  0  0  0  0  0  0  0  0
    8.2501  -15.5455   23.0772 C   0  0  2  0  0  0  0  0  0  0  0  0
    8.1584  -15.9138   21.6861 N   0  0  0  0  0  0  0  0  0  0  0  0
    8.9396  -16.6038   23.8387 C   0  0  0  0  0  0  0  0  0  0  0  0
    8.9714  -17.7679   23.3409 O   0  0  0  0  0  0  0  0  0  0  0  0
    7.1679  -15.1866   26.1947 C   0  0  0  0  0  0  0  0  0  0  0  0
    7.2521  -14.6475   27.4622 C   0  0  0  0  0  0  0  0  0  0  0  0
    9.5724  -16.4483   25.0735 N   0  0  0  0  0  0  0  0  0  0  0  0
   10.5733  -17.4378   25.5545 C   0  0  1  0  0  0  0  0  0  0  0  0
   11.6754  -17.4759   24.5650 C   0  0  0  0  0  0  0  0  0  0  0  0
   11.8699  -18.7988   23.9508 C   0  0  0  0  0  0  0  0  0  0  0  0
   12.7725  -19.0143   23.1122 O   0  0  0  0  0  0  0  0  0  0  0  0
   10.9679  -17.1112   26.9431 C   0  0  0  0  0  0  0  0  0  0  0  0
   11.2811  -15.8412   27.3876 O   0  0  0  0  0  0  0  0  0  0  0  0
   11.0567  -19.8700   24.2762 O   0  0  0  0  0  0  0  0  0  0  0  0
   11.0337  -18.0375   27.8080 O   0  0  0  0  0  0  0  0  0  0  0  0
  2  1  1  0
  3  2  1  0
  4  5  1  0
  4  3  1  0
  5  6  1  6
  7  8  2  0
  7  5  1  0
  9 10  1  0
 10 11  2  0
 11 12  1  0
 13 12  2  0
 13 14  1  0
 15 14  1  1
 15 16  1  0
 16  7  1  0
 17 21  1  0
 17 15  1  0
 18 17  2  0
 19 13  1  0
 20 10  1  0
 20 19  2  0
 22 21  1  0
 22 26  1  0
 22 23  1  6
 23 24  1  0
 24 25  2  0
 26 27  1  0
 28 24  1  0
 29 26  2  0
M  END
$$$$
