MYD.pdb
     RDKit          3D

 29 29  0  0  1  0  0  0  0  0999 V2000
    8.2651  -11.5694   19.2278 C   0  0  0  0  0  0  0  0  0  0  0  0
    6.9583  -12.7965   18.9289 S   0  0  0  0  0  0  0  0  0  0  0  0
    7.5496  -14.4271   19.5235 C   0  0  0  0  0  0  0  0  0  0  0  0
    8.4461  -14.2599   20.7063 C   0  0  0  0  0  0  0  0  0  0  0  0
    8.9342  -15.5094   21.3065 C   0  0  2  0  0  0  0  0  0  0  0  0
    7.9261  -16.5564   21.2139 N   0  0  0  0  0  0  0  0  0  0  0  0
    9.4659  -15.3902   22.6811 C   0  0  0  0  0  0  0  0  0  0  0  0
   10.4196  -14.6182   23.0100 O   0  0  0  0  0  0  0  0  0  0  0  0
    5.8524  -10.8750   26.5143 O   0  0  0  0  0  0  0  0  0  0  0  0
    6.4872  -12.1310   26.4379 C   0  0  0  0  0  0  0  0  0  0  0  0
    7.8476  -12.2474   26.5964 C   0  0  0  0  0  0  0  0  0  0  0  0
    8.4579  -13.4830   26.5170 C   0  0  0  0  0  0  0  0  0  0  0  0
    7.7416  -14.6418   26.2786 C   0  0  0  0  0  0  0  0  0  0  0  0
    8.4613  -15.9029   26.2022 C   0  0  0  0  0  0  0  0  0  0  0  0
    9.4286  -16.1192   25.1219 C   0  0  2  0  0  0  0  0  0  0  0  0
    8.9292  -16.1617   23.7698 N   0  0  0  0  0  0  0  0  0  0  0  0
   10.4599  -17.1556   25.3156 C   0  0  0  0  0  0  0  0  0  0  0  0
   10.8991  -17.3434   26.4886 O   0  0  0  0  0  0  0  0  0  0  0  0
    6.3791  -14.4889   26.1254 C   0  0  0  0  0  0  0  0  0  0  0  0
    5.7589  -13.2586   26.2030 C   0  0  0  0  0  0  0  0  0  0  0  0
   11.0090  -17.9649   24.3193 N   0  0  0  0  0  0  0  0  0  0  0  0
   12.0647  -18.9639   24.6352 C   0  0  1  0  0  0  0  0  0  0  0  0
   11.8219  -20.1541   23.7869 C   0  0  0  0  0  0  0  0  0  0  0  0
   10.4635  -20.7041   23.9187 C   0  0  0  0  0  0  0  0  0  0  0  0
    9.8184  -20.6288   24.9876 O   0  0  0  0  0  0  0  0  0  0  0  0
   13.3989  -18.3382   24.4973 C   0  0  0  0  0  0  0  0  0  0  0  0
   14.5857  -18.9402   24.8685 O   0  0  0  0  0  0  0  0  0  0  0  0
    9.8358  -21.3335   22.8583 O   0  0  0  0  0  0  0  0  0  0  0  0
   13.4937  -17.1704   24.0099 O   0  0  0  0  0  0  0  0  0  0  0  0
  2  1  1  0
  3  2  1  0
  4  5  1  0
  4  3  1  0
  5  6  1  1
  7  8  2  0
  7  5  1  0
  9 10  1  0
 10 11  2  0
 11 12  1  0
 13 12  2  0
 13 14  1  0
 15 14  1  1
 15 16  1  0
 16  7  1  0
 17 21  1  0
 17 15  1  0
 18 17  2  0
 19 13  1  0
 20 10  1  0
 20 19  2  0
 22 21  1  0
 22 26  1  0
 22 23  1  6
 23 24  1  0
 24 25  2  0
 26 27  1  0
 28 24  1  0
 29 26  2  0
M  END
$$$$
