MYD.pdb
     RDKit          3D

 29 29  0  0  1  0  0  0  0  0999 V2000
    7.8851  -11.3684   19.7947 C   0  0  0  0  0  0  0  0  0  0  0  0
    6.7004  -12.4746   18.9729 S   0  0  0  0  0  0  0  0  0  0  0  0
    7.0241  -14.1893   19.5361 C   0  0  0  0  0  0  0  0  0  0  0  0
    8.4738  -14.3750   19.8432 C   0  0  0  0  0  0  0  0  0  0  0  0
    8.8201  -15.6451   20.4967 C   0  0  2  0  0  0  0  0  0  0  0  0
    7.6518  -16.5082   20.6020 N   0  0  0  0  0  0  0  0  0  0  0  0
    9.5218  -15.5238   21.7926 C   0  0  0  0  0  0  0  0  0  0  0  0
   10.7302  -15.1515   21.9145 O   0  0  0  0  0  0  0  0  0  0  0  0
   10.7330  -14.9848   30.7115 O   0  0  0  0  0  0  0  0  0  0  0  0
   10.2143  -15.0623   29.4033 C   0  0  0  0  0  0  0  0  0  0  0  0
   10.0875  -13.9369   28.6243 C   0  0  0  0  0  0  0  0  0  0  0  0
    9.5756  -14.0255   27.3454 C   0  0  0  0  0  0  0  0  0  0  0  0
    9.1736  -15.2299   26.7971 C   0  0  0  0  0  0  0  0  0  0  0  0
    8.6381  -15.2363   25.4454 C   0  0  0  0  0  0  0  0  0  0  0  0
    9.4835  -15.6848   24.3347 C   0  0  2  0  0  0  0  0  0  0  0  0
    8.8701  -15.8293   23.0378 N   0  0  0  0  0  0  0  0  0  0  0  0
   10.4156  -16.8005   24.5832 C   0  0  0  0  0  0  0  0  0  0  0  0
    9.9692  -17.9811   24.4776 O   0  0  0  0  0  0  0  0  0  0  0  0
    9.3154  -16.3388   27.6056 C   0  0  0  0  0  0  0  0  0  0  0  0
    9.8258  -16.2615   28.8854 C   0  0  0  0  0  0  0  0  0  0  0  0
   11.7635  -16.6839   24.9278 N   0  0  0  0  0  0  0  0  0  0  0  0
   12.6127  -17.8885   25.1287 C   0  0  1  0  0  0  0  0  0  0  0  0
   13.9885  -17.5417   24.7022 C   0  0  0  0  0  0  0  0  0  0  0  0
   14.0902  -17.1785   23.2799 C   0  0  0  0  0  0  0  0  0  0  0  0
   13.3399  -17.6778   22.4127 O   0  0  0  0  0  0  0  0  0  0  0  0
   12.4738  -18.3682   26.5220 C   0  0  0  0  0  0  0  0  0  0  0  0
   11.7202  -17.7378   27.4932 O   0  0  0  0  0  0  0  0  0  0  0  0
   15.0274  -16.2623   22.8363 O   0  0  0  0  0  0  0  0  0  0  0  0
   13.0756  -19.4261   26.8813 O   0  0  0  0  0  0  0  0  0  0  0  0
  2  1  1  0
  3  2  1  0
  4  5  1  0
  4  3  1  0
  5  6  1  1
  7  8  2  0
  7  5  1  0
  9 10  1  0
 10 11  2  0
 11 12  1  0
 13 12  2  0
 13 14  1  0
 15 14  1  1
 15 16  1  0
 16  7  1  0
 17 21  1  0
 17 15  1  0
 18 17  2  0
 19 13  1  0
 20 10  1  0
 20 19  2  0
 22 21  1  0
 22 26  1  0
 22 23  1  1
 23 24  1  0
 24 25  2  0
 26 27  1  0
 28 24  1  0
 29 26  2  0
M  END
$$$$
