MYD.pdb
     RDKit          3D

 29 29  0  0  1  0  0  0  0  0999 V2000
    6.0341  -12.3006   17.7521 C   0  0  0  0  0  0  0  0  0  0  0  0
    7.7280  -12.6129   18.3316 S   0  0  0  0  0  0  0  0  0  0  0  0
    7.7100  -14.1095   19.3907 C   0  0  0  0  0  0  0  0  0  0  0  0
    9.0674  -14.3659   19.9584 C   0  0  0  0  0  0  0  0  0  0  0  0
    9.1985  -15.6043   20.7389 C   0  0  2  0  0  0  0  0  0  0  0  0
    7.9131  -16.2782   20.8600 N   0  0  0  0  0  0  0  0  0  0  0  0
    9.8604  -15.4614   22.0534 C   0  0  0  0  0  0  0  0  0  0  0  0
   11.0815  -15.1452   22.2038 O   0  0  0  0  0  0  0  0  0  0  0  0
   10.9419  -15.3082   31.0029 O   0  0  0  0  0  0  0  0  0  0  0  0
   10.4116  -15.3412   29.6975 C   0  0  0  0  0  0  0  0  0  0  0  0
   10.0354  -16.5285   29.1162 C   0  0  0  0  0  0  0  0  0  0  0  0
    9.5195  -16.5481   27.8359 C   0  0  0  0  0  0  0  0  0  0  0  0
    9.3595  -15.3938   27.0911 C   0  0  0  0  0  0  0  0  0  0  0  0
    8.8157  -15.5013   25.7470 C   0  0  0  0  0  0  0  0  0  0  0  0
    9.7250  -15.5042   24.5970 C   0  0  2  0  0  0  0  0  0  0  0  0
    9.1513  -15.6786   23.2856 N   0  0  0  0  0  0  0  0  0  0  0  0
   10.9785  -16.2733   24.7097 C   0  0  0  0  0  0  0  0  0  0  0  0
   11.7929  -15.9495   25.6239 O   0  0  0  0  0  0  0  0  0  0  0  0
    9.7463  -14.2203   27.7050 C   0  0  0  0  0  0  0  0  0  0  0  0
   10.2630  -14.1896   28.9842 C   0  0  0  0  0  0  0  0  0  0  0  0
   11.3632  -17.3412   23.8968 N   0  0  0  0  0  0  0  0  0  0  0  0
   12.2485  -18.4197   24.4122 C   0  0  1  0  0  0  0  0  0  0  0  0
   11.5682  -19.0397   25.5732 C   0  0  0  0  0  0  0  0  0  0  0  0
   12.4793  -19.7703   26.4683 C   0  0  0  0  0  0  0  0  0  0  0  0
   13.7090  -19.8397   26.2503 O   0  0  0  0  0  0  0  0  0  0  0  0
   12.6043  -19.3405   23.3094 C   0  0  0  0  0  0  0  0  0  0  0  0
   11.6982  -20.1312   22.6294 O   0  0  0  0  0  0  0  0  0  0  0  0
   12.0122  -20.4175   27.5986 O   0  0  0  0  0  0  0  0  0  0  0  0
   13.8148  -19.4344   22.9400 O   0  0  0  0  0  0  0  0  0  0  0  0
  2  1  1  0
  3  2  1  0
  4  5  1  0
  4  3  1  0
  5  6  1  1
  7  8  2  0
  7  5  1  0
  9 10  1  0
 10 11  2  0
 11 12  1  0
 13 12  2  0
 13 14  1  0
 15 14  1  1
 15 16  1  0
 16  7  1  0
 17 21  1  0
 17 15  1  0
 18 17  2  0
 19 13  1  0
 20 10  1  0
 20 19  2  0
 22 21  1  0
 22 26  1  0
 22 23  1  1
 23 24  1  0
 24 25  2  0
 26 27  1  0
 28 24  1  0
 29 26  2  0
M  END
$$$$
