TSC.pdb
     RDKit          3D

 20 19  0  0  1  0  0  0  0  0999 V2000
    5.4215  -22.9425   16.6898 C   0  0  0  0  0  0  0  0  0  0  0  0
    3.9320  -23.2060   16.8819 C   0  0  1  0  0  0  0  0  0  0  0  0
    3.6990  -24.1272   17.8815 O   0  0  0  0  0  0  0  0  0  0  0  0
    3.1723  -21.9182   17.0834 C   0  0  2  0  0  0  0  0  0  0  0  0
    3.3147  -21.0017   15.9808 N   0  0  0  0  0  0  0  0  0  0  0  0
    3.6466  -21.3119   18.3435 C   0  0  0  0  0  0  0  0  0  0  0  0
    4.6841  -20.6173   18.3292 O   0  0  0  0  0  0  0  0  0  0  0  0
    1.6950  -21.9921   21.8576 O   0  0  0  0  0  0  0  0  0  0  0  0
    2.2471  -20.7259   21.6898 C   0  0  0  0  0  0  0  0  0  0  0  0
    3.4451  -20.9066   20.7547 C   0  0  2  0  0  0  0  0  0  0  0  0
    2.9464  -21.5067   19.5552 N   0  0  0  0  0  0  0  0  0  0  0  0
    4.4221  -21.7864   21.4623 C   0  0  0  0  0  0  0  0  0  0  0  0
    4.5240  -22.9977   21.1449 O   0  0  0  0  0  0  0  0  0  0  0  0
    5.2679  -21.3172   22.5052 N   0  0  0  0  0  0  0  0  0  0  0  0
    6.2055  -22.1961   23.1762 C   0  0  1  0  0  0  0  0  0  0  0  0
    7.6157  -21.5957   23.1071 C   0  0  0  0  0  0  0  0  0  0  0  0
    7.4944  -19.9401   23.8633 S   0  0  0  0  0  0  0  0  0  0  0  0
    5.8914  -22.3182   24.6277 C   0  0  0  0  0  0  0  0  0  0  0  0
    6.5331  -23.1807   25.4708 O   0  0  0  0  0  0  0  0  0  0  0  0
    4.9813  -21.5764   25.0810 O   0  0  0  0  0  0  0  0  0  0  0  0
  2  1  1  1
  2  3  1  0
  4  6  1  0
  4  2  1  0
  4  5  1  6
  6  7  2  0
  6 11  1  0
  9  8  1  0
 10  9  1  1
 10 12  1  0
 11 10  1  0
 12 13  2  0
 12 14  1  0
 14 15  1  0
 15 18  1  0
 15 16  1  1
 17 16  1  0
 18 19  1  0
 20 18  2  0
M  END
$$$$
