TSC.pdb
     RDKit          3D

 20 19  0  0  1  0  0  0  0  0999 V2000
    7.7143  -15.8361   16.4340 C   0  0  0  0  0  0  0  0  0  0  0  0
    8.3278  -15.4933   17.7872 C   0  0  1  0  0  0  0  0  0  0  0  0
    9.6977  -15.6524   17.7841 O   0  0  0  0  0  0  0  0  0  0  0  0
    7.8982  -14.1227   18.2488 C   0  0  2  0  0  0  0  0  0  0  0  0
    8.2837  -13.0750   17.3379 N   0  0  0  0  0  0  0  0  0  0  0  0
    8.4760  -13.9011   19.5895 C   0  0  0  0  0  0  0  0  0  0  0  0
    9.6031  -13.3721   19.6840 O   0  0  0  0  0  0  0  0  0  0  0  0
    6.4899  -15.2071   22.8474 O   0  0  0  0  0  0  0  0  0  0  0  0
    7.3618  -14.1515   23.0955 C   0  0  0  0  0  0  0  0  0  0  0  0
    8.4469  -14.2364   22.0196 C   0  0  2  0  0  0  0  0  0  0  0  0
    7.7748  -14.2774   20.7569 N   0  0  0  0  0  0  0  0  0  0  0  0
    9.2274  -15.4813   22.2845 C   0  0  0  0  0  0  0  0  0  0  0  0
    8.9751  -16.5317   21.6428 O   0  0  0  0  0  0  0  0  0  0  0  0
   10.2701  -15.5472   23.2496 N   0  0  0  0  0  0  0  0  0  0  0  0
   10.9825  -16.7816   23.5153 C   0  0  1  0  0  0  0  0  0  0  0  0
   12.4711  -16.4816   23.7341 C   0  0  0  0  0  0  0  0  0  0  0  0
   13.0867  -15.8137   22.1522 S   0  0  0  0  0  0  0  0  0  0  0  0
   10.5113  -17.4193   24.7770 C   0  0  0  0  0  0  0  0  0  0  0  0
   11.0169  -18.5898   25.2677 O   0  0  0  0  0  0  0  0  0  0  0  0
    9.5966  -16.8302   25.4095 O   0  0  0  0  0  0  0  0  0  0  0  0
  2  1  1  6
  2  3  1  0
  4  6  1  0
  4  2  1  0
  4  5  1  6
  6  7  2  0
  6 11  1  0
  9  8  1  0
 10  9  1  1
 10 12  1  0
 11 10  1  0
 12 13  2  0
 12 14  1  0
 14 15  1  0
 15 18  1  0
 15 16  1  1
 17 16  1  0
 18 19  1  0
 20 18  2  0
M  END
$$$$
