TSC.pdb
     RDKit          3D

 20 19  0  0  1  0  0  0  0  0999 V2000
    8.6312  -12.1212   17.8672 C   0  0  0  0  0  0  0  0  0  0  0  0
    8.8904  -13.2470   18.8623 C   0  0  1  0  0  0  0  0  0  0  0  0
    9.2116  -12.7622   20.1128 O   0  0  0  0  0  0  0  0  0  0  0  0
    7.7417  -14.2247   18.8904 C   0  0  2  0  0  0  0  0  0  0  0  0
    6.5118  -13.6357   19.3557 N   0  0  0  0  0  0  0  0  0  0  0  0
    8.1429  -15.3614   19.7432 C   0  0  0  0  0  0  0  0  0  0  0  0
    7.6417  -15.4719   20.8815 O   0  0  0  0  0  0  0  0  0  0  0  0
   11.1054  -17.8427   18.5900 O   0  0  0  0  0  0  0  0  0  0  0  0
   10.0460  -18.4893   19.2189 C   0  0  0  0  0  0  0  0  0  0  0  0
    9.3857  -17.4430   20.1197 C   0  0  2  0  0  0  0  0  0  0  0  0
    9.0794  -16.3177   19.2904 N   0  0  0  0  0  0  0  0  0  0  0  0
   10.3705  -17.1044   21.1896 C   0  0  0  0  0  0  0  0  0  0  0  0
   11.1208  -16.1047   21.0620 O   0  0  0  0  0  0  0  0  0  0  0  0
   10.5113  -17.8717   22.3789 N   0  0  0  0  0  0  0  0  0  0  0  0
   11.5252  -17.5612   23.3677 C   0  0  1  0  0  0  0  0  0  0  0  0
   11.1588  -18.2159   24.7059 C   0  0  0  0  0  0  0  0  0  0  0  0
   11.5794  -16.9949   25.9943 S   0  0  0  0  0  0  0  0  0  0  0  0
   12.8470  -18.1350   22.9881 C   0  0  0  0  0  0  0  0  0  0  0  0
   14.0434  -17.5821   23.3479 O   0  0  0  0  0  0  0  0  0  0  0  0
   12.8376  -19.1874   22.2979 O   0  0  0  0  0  0  0  0  0  0  0  0
  2  1  1  6
  2  3  1  0
  4  6  1  0
  4  2  1  0
  4  5  1  1
  6  7  2  0
  6 11  1  0
  9  8  1  0
 10  9  1  6
 10 12  1  0
 11 10  1  0
 12 13  2  0
 12 14  1  0
 14 15  1  0
 15 18  1  0
 15 16  1  1
 17 16  1  0
 18 19  1  0
 20 18  2  0
M  END
$$$$
