TSC.pdb
     RDKit          3D

 20 19  0  0  1  0  0  0  0  0999 V2000
    9.4854  -19.2341   21.3017 C   0  0  0  0  0  0  0  0  0  0  0  0
    9.9537  -19.0480   19.8626 C   0  0  1  0  0  0  0  0  0  0  0  0
   10.2834  -20.2495   19.2713 O   0  0  0  0  0  0  0  0  0  0  0  0
    8.9502  -18.2564   19.0610 C   0  0  2  0  0  0  0  0  0  0  0  0
    9.1730  -18.3393   17.6399 N   0  0  0  0  0  0  0  0  0  0  0  0
    9.0094  -16.8568   19.5279 C   0  0  0  0  0  0  0  0  0  0  0  0
   10.0588  -16.2031   19.3526 O   0  0  0  0  0  0  0  0  0  0  0  0
    5.9868  -15.3425   21.6912 O   0  0  0  0  0  0  0  0  0  0  0  0
    6.5708  -14.4041   20.8459 C   0  0  0  0  0  0  0  0  0  0  0  0
    7.9995  -14.8916   20.5943 C   0  0  2  0  0  0  0  0  0  0  0  0
    7.9021  -16.2533   20.1651 N   0  0  0  0  0  0  0  0  0  0  0  0
    8.7397  -14.7577   21.8840 C   0  0  0  0  0  0  0  0  0  0  0  0
    8.9812  -13.6189   22.3566 O   0  0  0  0  0  0  0  0  0  0  0  0
    9.1999  -15.8785   22.6290 N   0  0  0  0  0  0  0  0  0  0  0  0
   10.0748  -15.7219   23.7745 C   0  0  1  0  0  0  0  0  0  0  0  0
    9.2773  -15.9408   25.0668 C   0  0  0  0  0  0  0  0  0  0  0  0
    8.2111  -17.3887   24.7599 S   0  0  0  0  0  0  0  0  0  0  0  0
   11.1471  -16.7566   23.7837 C   0  0  0  0  0  0  0  0  0  0  0  0
   11.1407  -17.8600   22.9781 O   0  0  0  0  0  0  0  0  0  0  0  0
   12.1017  -16.5848   24.5856 O   0  0  0  0  0  0  0  0  0  0  0  0
  2  1  1  1
  2  3  1  0
  4  6  1  0
  4  2  1  0
  4  5  1  6
  6  7  2  0
  6 11  1  0
  9  8  1  0
 10  9  1  1
 10 12  1  0
 11 10  1  0
 12 13  2  0
 12 14  1  0
 14 15  1  0
 15 18  1  0
 15 16  1  1
 17 16  1  0
 18 19  1  0
 20 18  2  0
M  END
$$$$
