TSC.pdb
     RDKit          3D

 20 19  0  0  1  0  0  0  0  0999 V2000
    0.5858  -19.5241   22.0677 C   0  0  0  0  0  0  0  0  0  0  0  0
    2.0815  -19.5005   22.3631 C   0  0  1  0  0  0  0  0  0  0  0  0
    2.4699  -20.5794   23.1294 O   0  0  0  0  0  0  0  0  0  0  0  0
    2.8855  -19.3638   21.0938 C   0  0  2  0  0  0  0  0  0  0  0  0
    2.7485  -20.4975   20.2152 N   0  0  0  0  0  0  0  0  0  0  0  0
    4.2961  -19.1565   21.4784 C   0  0  0  0  0  0  0  0  0  0  0  0
    5.0668  -20.1384   21.5088 O   0  0  0  0  0  0  0  0  0  0  0  0
    7.7772  -16.1108   22.6282 O   0  0  0  0  0  0  0  0  0  0  0  0
    6.4503  -16.2304   22.2270 C   0  0  0  0  0  0  0  0  0  0  0  0
    6.1320  -17.7270   22.2563 C   0  0  2  0  0  0  0  0  0  0  0  0
    4.7801  -17.8710   21.8095 N   0  0  0  0  0  0  0  0  0  0  0  0
    6.3122  -18.1839   23.6663 C   0  0  0  0  0  0  0  0  0  0  0  0
    5.4804  -17.8520   24.5474 O   0  0  0  0  0  0  0  0  0  0  0  0
    7.4037  -18.9967   24.0800 N   0  0  0  0  0  0  0  0  0  0  0  0
    7.5901  -19.3689   25.4688 C   0  0  1  0  0  0  0  0  0  0  0  0
    7.3822  -20.8804   25.6304 C   0  0  0  0  0  0  0  0  0  0  0  0
    5.6134  -21.1821   25.3020 S   0  0  0  0  0  0  0  0  0  0  0  0
    8.9859  -19.1048   25.9187 C   0  0  0  0  0  0  0  0  0  0  0  0
    9.9407  -18.5327   25.1266 O   0  0  0  0  0  0  0  0  0  0  0  0
    9.2798  -19.4348   27.0971 O   0  0  0  0  0  0  0  0  0  0  0  0
  2  1  1  6
  2  3  1  0
  4  6  1  0
  4  2  1  0
  4  5  1  6
  6  7  2  0
  6 11  1  0
  9  8  1  0
 10  9  1  1
 10 12  1  0
 11 10  1  0
 12 13  2  0
 12 14  1  0
 14 15  1  0
 15 18  1  0
 15 16  1  6
 17 16  1  0
 18 19  1  0
 20 18  2  0
M  END
$$$$
