TSC.pdb
     RDKit          3D

 20 19  0  0  1  0  0  0  0  0999 V2000
    7.4475  -14.7650   16.0892 C   0  0  0  0  0  0  0  0  0  0  0  0
    8.1572  -14.8579   17.4355 C   0  0  1  0  0  0  0  0  0  0  0  0
    9.5166  -15.0365   17.2873 O   0  0  0  0  0  0  0  0  0  0  0  0
    7.8133  -13.6814   18.3151 C   0  0  2  0  0  0  0  0  0  0  0  0
    8.2572  -12.4229   17.7717 N   0  0  0  0  0  0  0  0  0  0  0  0
    8.4097  -13.9269   19.6434 C   0  0  0  0  0  0  0  0  0  0  0  0
    9.5277  -13.4368   19.9061 O   0  0  0  0  0  0  0  0  0  0  0  0
    6.9020  -16.7259   22.0055 O   0  0  0  0  0  0  0  0  0  0  0  0
    7.3088  -15.6304   22.7607 C   0  0  0  0  0  0  0  0  0  0  0  0
    8.3301  -14.8800   21.9027 C   0  0  2  0  0  0  0  0  0  0  0  0
    7.7361  -14.7034   20.6128 N   0  0  0  0  0  0  0  0  0  0  0  0
    9.5590  -15.7260   21.8473 C   0  0  0  0  0  0  0  0  0  0  0  0
    9.6361  -16.6722   21.0243 O   0  0  0  0  0  0  0  0  0  0  0  0
   10.6794  -15.5152   22.6979 N   0  0  0  0  0  0  0  0  0  0  0  0
   11.8514  -16.3662   22.6353 C   0  0  1  0  0  0  0  0  0  0  0  0
   13.1127  -15.5001   22.5219 C   0  0  0  0  0  0  0  0  0  0  0  0
   13.0158  -14.6824   20.8941 S   0  0  0  0  0  0  0  0  0  0  0  0
   12.0169  -17.1550   23.8887 C   0  0  0  0  0  0  0  0  0  0  0  0
   11.1508  -17.0902   24.9433 O   0  0  0  0  0  0  0  0  0  0  0  0
   13.0165  -17.9164   23.9584 O   0  0  0  0  0  0  0  0  0  0  0  0
  2  1  1  6
  2  3  1  0
  4  6  1  0
  4  2  1  0
  4  5  1  6
  6  7  2  0
  6 11  1  0
  9  8  1  0
 10  9  1  1
 10 12  1  0
 11 10  1  0
 12 13  2  0
 12 14  1  0
 14 15  1  0
 15 18  1  0
 15 16  1  1
 17 16  1  0
 18 19  1  0
 20 18  2  0
M  END
$$$$
