TSC.pdb
     RDKit          3D

 20 19  0  0  1  0  0  0  0  0999 V2000
    6.8532  -17.8169   18.4937 C   0  0  0  0  0  0  0  0  0  0  0  0
    7.7831  -17.6252   19.6867 C   0  0  1  0  0  0  0  0  0  0  0  0
    8.5404  -18.7512   19.9327 O   0  0  0  0  0  0  0  0  0  0  0  0
    8.6194  -16.3792   19.5311 C   0  0  2  0  0  0  0  0  0  0  0  0
    9.5459  -16.4563   18.4303 N   0  0  0  0  0  0  0  0  0  0  0  0
    9.3274  -16.1538   20.8072 C   0  0  0  0  0  0  0  0  0  0  0  0
   10.5624  -16.3319   20.8551 O   0  0  0  0  0  0  0  0  0  0  0  0
    7.2322  -15.0590   24.0256 O   0  0  0  0  0  0  0  0  0  0  0  0
    8.5090  -14.5069   23.9935 C   0  0  0  0  0  0  0  0  0  0  0  0
    9.3644  -15.4655   23.1618 C   0  0  2  0  0  0  0  0  0  0  0  0
    8.6300  -15.7424   21.9652 N   0  0  0  0  0  0  0  0  0  0  0  0
    9.5778  -16.6897   23.9893 C   0  0  0  0  0  0  0  0  0  0  0  0
    8.7445  -17.6293   23.9511 O   0  0  0  0  0  0  0  0  0  0  0  0
   10.7033  -16.8571   24.8428 N   0  0  0  0  0  0  0  0  0  0  0  0
   10.8487  -18.0263   25.6876 C   0  0  1  0  0  0  0  0  0  0  0  0
   12.3341  -18.2626   25.9906 C   0  0  0  0  0  0  0  0  0  0  0  0
   13.1442  -18.5040   24.3741 S   0  0  0  0  0  0  0  0  0  0  0  0
   10.1958  -17.8237   27.0117 C   0  0  0  0  0  0  0  0  0  0  0  0
   10.1563  -18.7769   27.9896 O   0  0  0  0  0  0  0  0  0  0  0  0
    9.6572  -16.7054   27.2194 O   0  0  0  0  0  0  0  0  0  0  0  0
  2  1  1  6
  2  3  1  0
  4  6  1  0
  4  2  1  0
  4  5  1  6
  6  7  2  0
  6 11  1  0
  9  8  1  0
 10  9  1  1
 10 12  1  0
 11 10  1  0
 12 13  2  0
 12 14  1  0
 14 15  1  0
 15 18  1  0
 15 16  1  1
 17 16  1  0
 18 19  1  0
 20 18  2  0
M  END
$$$$
