DQP.pdb
     RDKit          3D

 25 25  0  0  1  0  0  0  0  0999 V2000
    6.5768  -16.6565   19.6479 N   0  0  0  0  0  0  0  0  0  0  0  0
    7.5164  -15.8473   20.3973 C   0  0  1  0  0  0  0  0  0  0  0  0
    7.5462  -14.4848   19.7375 C   0  0  0  0  0  0  0  0  0  0  0  0
    8.3911  -14.5973   18.5213 C   0  0  0  0  0  0  0  0  0  0  0  0
    7.9127  -14.6795   17.3832 O   0  0  0  0  0  0  0  0  0  0  0  0
    7.1046  -15.7648   21.8149 C   0  0  0  0  0  0  0  0  0  0  0  0
    6.0208  -15.2532   22.1829 O   0  0  0  0  0  0  0  0  0  0  0  0
    9.7746  -14.6123   18.6482 O   0  0  0  0  0  0  0  0  0  0  0  0
    7.3639  -20.0200   25.8579 N   0  0  0  0  0  0  0  0  0  0  0  0
    7.2040  -18.9734   26.7927 C   0  0  0  0  0  0  0  0  0  0  0  0
    7.0023  -19.2445   27.9904 O   0  0  0  0  0  0  0  0  0  0  0  0
    7.2744  -17.5579   26.3599 C   0  0  0  0  0  0  0  0  0  0  0  0
    7.4769  -17.5082   24.8891 C   0  0  0  0  0  0  0  0  0  0  0  0
    7.6195  -16.1681   24.2695 C   0  0  2  0  0  0  0  0  0  0  0  0
    7.9432  -16.2787   22.8752 N   0  0  0  0  0  0  0  0  0  0  0  0
    8.3122  -15.1526   25.0431 C   0  0  0  0  0  0  0  0  0  0  0  0
    9.5905  -15.1031   24.8721 O   0  0  0  0  0  0  0  0  0  0  0  0
    7.7864  -14.2368   25.9417 N   0  0  0  0  0  0  0  0  0  0  0  0
    6.4270  -14.0145   26.3563 C   0  0  0  0  0  0  0  0  0  0  0  0
    6.3208  -12.5050   26.3680 C   0  0  0  0  0  0  0  0  0  0  0  0
    7.6579  -12.1006   26.9511 C   0  0  0  0  0  0  0  0  0  0  0  0
    8.5468  -13.2916   26.8025 C   0  0  1  0  0  0  0  0  0  0  0  0
    8.7855  -13.9236   28.1300 C   0  0  0  0  0  0  0  0  0  0  0  0
    8.2176  -15.1377   28.4802 O   0  0  0  0  0  0  0  0  0  0  0  0
    9.5206  -13.3750   28.9970 O   0  0  0  0  0  0  0  0  0  0  0  0
  2  1  1  6
  2  3  1  0
  4  8  1  0
  4  3  1  0
  5  4  2  0
  6  2  1  0
  6 15  1  0
  7  6  2  0
  9 10  1  0
 10 11  2  0
 12 13  1  0
 12 10  1  0
 14 16  1  0
 14 13  1  1
 14 15  1  0
 16 18  1  0
 17 16  2  0
 18 22  1  0
 18 19  1  0
 19 20  1  0
 20 21  1  0
 22 21  1  0
 22 23  1  1
 24 23  1  0
 25 23  2  0
M  END
$$$$
