DQP.pdb
     RDKit          3D

 25 25  0  0  1  0  0  0  0  0999 V2000
   10.4525  -17.6342   21.1814 N   0  0  0  0  0  0  0  0  0  0  0  0
   11.6281  -17.0753   21.8174 C   0  0  1  0  0  0  0  0  0  0  0  0
   12.4044  -16.3456   20.7415 C   0  0  0  0  0  0  0  0  0  0  0  0
   13.1080  -17.3697   19.9279 C   0  0  0  0  0  0  0  0  0  0  0  0
   12.6755  -18.5202   19.7861 O   0  0  0  0  0  0  0  0  0  0  0  0
   11.2337  -16.1735   22.9207 C   0  0  0  0  0  0  0  0  0  0  0  0
   12.0446  -15.4222   23.5121 O   0  0  0  0  0  0  0  0  0  0  0  0
   14.2997  -17.0399   19.2943 O   0  0  0  0  0  0  0  0  0  0  0  0
    5.2952  -15.6035   24.9551 N   0  0  0  0  0  0  0  0  0  0  0  0
    5.9659  -14.7521   25.8607 C   0  0  0  0  0  0  0  0  0  0  0  0
    5.3069  -13.9880   26.5892 O   0  0  0  0  0  0  0  0  0  0  0  0
    7.4450  -14.7611   25.9503 C   0  0  0  0  0  0  0  0  0  0  0  0
    8.0053  -15.3248   24.6953 C   0  0  0  0  0  0  0  0  0  0  0  0
    9.4780  -15.4855   24.6227 C   0  0  2  0  0  0  0  0  0  0  0  0
    9.8667  -16.1062   23.3879 N   0  0  0  0  0  0  0  0  0  0  0  0
   10.1568  -15.9122   25.8338 C   0  0  0  0  0  0  0  0  0  0  0  0
   10.8039  -17.0253   25.7424 O   0  0  0  0  0  0  0  0  0  0  0  0
   10.1974  -15.2891   27.0718 N   0  0  0  0  0  0  0  0  0  0  0  0
    9.3522  -14.2664   27.6274 C   0  0  0  0  0  0  0  0  0  0  0  0
   10.3419  -13.3388   28.2983 C   0  0  0  0  0  0  0  0  0  0  0  0
   11.3215  -14.3160   28.9125 C   0  0  0  0  0  0  0  0  0  0  0  0
   11.1027  -15.6138   28.2066 C   0  0  1  0  0  0  0  0  0  0  0  0
   10.4238  -16.5829   29.1113 C   0  0  0  0  0  0  0  0  0  0  0  0
    9.0991  -16.9490   28.9373 O   0  0  0  0  0  0  0  0  0  0  0  0
   11.0320  -17.1145   30.0811 O   0  0  0  0  0  0  0  0  0  0  0  0
  2  1  1  6
  2  3  1  0
  4  8  1  0
  4  3  1  0
  5  4  2  0
  6  2  1  0
  6 15  1  0
  7  6  2  0
  9 10  1  0
 10 11  2  0
 12 13  1  0
 12 10  1  0
 14 16  1  0
 14 13  1  1
 14 15  1  0
 16 18  1  0
 17 16  2  0
 18 22  1  0
 18 19  1  0
 19 20  1  0
 20 21  1  0
 22 21  1  0
 22 23  1  1
 24 23  1  0
 25 23  2  0
M  END
$$$$
