DQP.pdb
     RDKit          3D

 25 25  0  0  1  0  0  0  0  0999 V2000
    8.7958  -15.3710   19.8349 N   0  0  0  0  0  0  0  0  0  0  0  0
    8.4599  -14.0507   20.3280 C   0  0  1  0  0  0  0  0  0  0  0  0
    7.4771  -13.4515   19.3443 C   0  0  0  0  0  0  0  0  0  0  0  0
    8.0698  -13.5795   17.9886 C   0  0  0  0  0  0  0  0  0  0  0  0
    9.1866  -14.0752   17.7940 O   0  0  0  0  0  0  0  0  0  0  0  0
    7.8913  -14.1417   21.6897 C   0  0  0  0  0  0  0  0  0  0  0  0
    7.4576  -13.1467   22.3171 O   0  0  0  0  0  0  0  0  0  0  0  0
    7.3560  -13.1303   16.8845 O   0  0  0  0  0  0  0  0  0  0  0  0
    6.6826  -19.5518   24.5775 N   0  0  0  0  0  0  0  0  0  0  0  0
    6.7500  -18.7125   25.7115 C   0  0  0  0  0  0  0  0  0  0  0  0
    6.6510  -19.2071   26.8491 O   0  0  0  0  0  0  0  0  0  0  0  0
    6.9374  -17.2506   25.5579 C   0  0  0  0  0  0  0  0  0  0  0  0
    7.1323  -16.9333   24.1198 C   0  0  0  0  0  0  0  0  0  0  0  0
    7.4476  -15.5260   23.7729 C   0  0  2  0  0  0  0  0  0  0  0  0
    7.8019  -15.4057   22.3869 N   0  0  0  0  0  0  0  0  0  0  0  0
    8.2265  -14.7667   24.7354 C   0  0  0  0  0  0  0  0  0  0  0  0
    9.5068  -14.8332   24.5865 O   0  0  0  0  0  0  0  0  0  0  0  0
    7.7802  -13.9879   25.7922 N   0  0  0  0  0  0  0  0  0  0  0  0
    6.4431  -13.6415   26.1938 C   0  0  0  0  0  0  0  0  0  0  0  0
    6.5629  -12.1714   26.5318 C   0  0  0  0  0  0  0  0  0  0  0  0
    7.9001  -12.1198   27.2394 C   0  0  0  0  0  0  0  0  0  0  0  0
    8.6095  -13.3802   26.8673 C   0  0  1  0  0  0  0  0  0  0  0  0
    8.6553  -14.3073   28.0321 C   0  0  0  0  0  0  0  0  0  0  0  0
    9.5536  -14.1379   29.0732 O   0  0  0  0  0  0  0  0  0  0  0  0
    7.8717  -15.2929   28.1195 O   0  0  0  0  0  0  0  0  0  0  0  0
  2  1  1  6
  2  3  1  0
  4  8  1  0
  4  3  1  0
  5  4  2  0
  6  2  1  0
  6 15  1  0
  7  6  2  0
  9 10  1  0
 10 11  2  0
 12 13  1  0
 12 10  1  0
 14 16  1  0
 14 13  1  1
 14 15  1  0
 16 18  1  0
 17 16  2  0
 18 22  1  0
 18 19  1  0
 19 20  1  0
 20 21  1  0
 22 21  1  0
 22 23  1  1
 24 23  1  0
 25 23  2  0
M  END
$$$$
