DQP.pdb
     RDKit          3D

 25 25  0  0  1  0  0  0  0  0999 V2000
   10.0835  -17.3513   20.5388 N   0  0  0  0  0  0  0  0  0  0  0  0
   11.1954  -17.0143   21.4044 C   0  0  1  0  0  0  0  0  0  0  0  0
   12.2815  -16.4390   20.5202 C   0  0  0  0  0  0  0  0  0  0  0  0
   12.7576  -17.5302   19.6324 C   0  0  0  0  0  0  0  0  0  0  0  0
   12.6803  -17.4672   18.3991 O   0  0  0  0  0  0  0  0  0  0  0  0
   10.7635  -16.0546   22.4429 C   0  0  0  0  0  0  0  0  0  0  0  0
   11.2927  -14.9283   22.5949 O   0  0  0  0  0  0  0  0  0  0  0  0
   13.3143  -18.6737   20.1917 O   0  0  0  0  0  0  0  0  0  0  0  0
    5.1941  -15.4689   25.0571 N   0  0  0  0  0  0  0  0  0  0  0  0
    5.9578  -14.5328   25.7888 C   0  0  0  0  0  0  0  0  0  0  0  0
    5.3836  -13.6061   26.3892 O   0  0  0  0  0  0  0  0  0  0  0  0
    7.4342  -14.6448   25.8473 C   0  0  0  0  0  0  0  0  0  0  0  0
    7.9143  -15.3821   24.6504 C   0  0  0  0  0  0  0  0  0  0  0  0
    9.3783  -15.5810   24.5188 C   0  0  2  0  0  0  0  0  0  0  0  0
    9.6875  -16.3665   23.3576 N   0  0  0  0  0  0  0  0  0  0  0  0
   10.1195  -15.8586   25.7366 C   0  0  0  0  0  0  0  0  0  0  0  0
   10.9431  -16.8501   25.6691 O   0  0  0  0  0  0  0  0  0  0  0  0
   10.0566  -15.2069   26.9589 N   0  0  0  0  0  0  0  0  0  0  0  0
    9.0980  -14.2588   27.4602 C   0  0  0  0  0  0  0  0  0  0  0  0
    9.9698  -13.2249   28.1391 C   0  0  0  0  0  0  0  0  0  0  0  0
   11.0166  -14.0885   28.8099 C   0  0  0  0  0  0  0  0  0  0  0  0
   10.9485  -15.4169   28.1307 C   0  0  1  0  0  0  0  0  0  0  0  0
   10.3347  -16.4268   29.0372 C   0  0  0  0  0  0  0  0  0  0  0  0
   11.0419  -17.0102   30.0760 O   0  0  0  0  0  0  0  0  0  0  0  0
    9.1360  -16.7956   28.8954 O   0  0  0  0  0  0  0  0  0  0  0  0
  2  1  1  6
  2  3  1  0
  4  8  1  0
  4  3  1  0
  5  4  2  0
  6  2  1  0
  6 15  1  0
  7  6  2  0
  9 10  1  0
 10 11  2  0
 12 13  1  0
 12 10  1  0
 14 16  1  0
 14 13  1  1
 14 15  1  0
 16 18  1  0
 17 16  2  0
 18 22  1  0
 18 19  1  0
 19 20  1  0
 20 21  1  0
 22 21  1  0
 22 23  1  1
 24 23  1  0
 25 23  2  0
M  END
$$$$
