DQP.pdb
     RDKit          3D

 25 25  0  0  1  0  0  0  0  0999 V2000
    7.2165  -18.1500   20.1999 N   0  0  0  0  0  0  0  0  0  0  0  0
    7.7002  -16.8157   20.4910 C   0  0  1  0  0  0  0  0  0  0  0  0
    7.0389  -15.8828   19.4985 C   0  0  0  0  0  0  0  0  0  0  0  0
    7.8832  -15.8611   18.2769 C   0  0  0  0  0  0  0  0  0  0  0  0
    8.2614  -16.8939   17.7102 O   0  0  0  0  0  0  0  0  0  0  0  0
    7.3834  -16.4494   21.8879 C   0  0  0  0  0  0  0  0  0  0  0  0
    6.2609  -16.0191   22.2437 O   0  0  0  0  0  0  0  0  0  0  0  0
    8.2728  -14.6422   17.7358 O   0  0  0  0  0  0  0  0  0  0  0  0
    9.6258  -17.9461   28.6446 N   0  0  0  0  0  0  0  0  0  0  0  0
    9.2808  -18.1695   27.2933 C   0  0  0  0  0  0  0  0  0  0  0  0
    9.8512  -19.0724   26.6545 O   0  0  0  0  0  0  0  0  0  0  0  0
    8.2472  -17.3392   26.6314 C   0  0  0  0  0  0  0  0  0  0  0  0
    8.3643  -17.4985   25.1591 C   0  0  0  0  0  0  0  0  0  0  0  0
    8.0885  -16.3041   24.3240 C   0  0  2  0  0  0  0  0  0  0  0  0
    8.3676  -16.5689   22.9409 N   0  0  0  0  0  0  0  0  0  0  0  0
    8.4947  -15.0160   24.8584 C   0  0  0  0  0  0  0  0  0  0  0  0
    9.6398  -14.5836   24.4491 O   0  0  0  0  0  0  0  0  0  0  0  0
    7.8218  -14.1950   25.7504 N   0  0  0  0  0  0  0  0  0  0  0  0
    6.5493  -14.3692   26.3980 C   0  0  0  0  0  0  0  0  0  0  0  0
    5.9234  -12.9960   26.2861 C   0  0  0  0  0  0  0  0  0  0  0  0
    7.1050  -12.0893   26.5572 C   0  0  0  0  0  0  0  0  0  0  0  0
    8.3222  -12.9304   26.3531 C   0  0  1  0  0  0  0  0  0  0  0  0
    8.9631  -13.2334   27.6630 C   0  0  0  0  0  0  0  0  0  0  0  0
    9.7653  -12.3148   28.3202 O   0  0  0  0  0  0  0  0  0  0  0  0
    8.8005  -14.3479   28.2326 O   0  0  0  0  0  0  0  0  0  0  0  0
  2  1  1  6
  2  3  1  0
  4  8  1  0
  4  3  1  0
  5  4  2  0
  6  2  1  0
  6 15  1  0
  7  6  2  0
  9 10  1  0
 10 11  2  0
 12 13  1  0
 12 10  1  0
 14 16  1  0
 14 13  1  1
 14 15  1  0
 16 18  1  0
 17 16  2  0
 18 22  1  0
 18 19  1  0
 19 20  1  0
 20 21  1  0
 22 21  1  0
 22 23  1  1
 24 23  1  0
 25 23  2  0
M  END
$$$$
