DQP.pdb
     RDKit          3D

 25 25  0  0  1  0  0  0  0  0999 V2000
    9.8900  -16.7534   20.7567 N   0  0  0  0  0  0  0  0  0  0  0  0
    8.5624  -16.3016   20.3925 C   0  0  1  0  0  0  0  0  0  0  0  0
    7.9204  -17.4197   19.5988 C   0  0  0  0  0  0  0  0  0  0  0  0
    8.0018  -17.0500   18.1627 C   0  0  0  0  0  0  0  0  0  0  0  0
    8.7410  -16.1487   17.7477 O   0  0  0  0  0  0  0  0  0  0  0  0
    7.7843  -15.9685   21.6048 C   0  0  0  0  0  0  0  0  0  0  0  0
    6.7820  -15.2156   21.5879 O   0  0  0  0  0  0  0  0  0  0  0  0
    7.2245  -17.7325   17.2352 O   0  0  0  0  0  0  0  0  0  0  0  0
    5.9942  -19.3462   26.2245 N   0  0  0  0  0  0  0  0  0  0  0  0
    7.2876  -18.9332   26.6136 C   0  0  0  0  0  0  0  0  0  0  0  0
    7.8459  -19.4875   27.5778 O   0  0  0  0  0  0  0  0  0  0  0  0
    7.9839  -17.8472   25.8844 C   0  0  0  0  0  0  0  0  0  0  0  0
    7.0438  -17.2332   24.9118 C   0  0  0  0  0  0  0  0  0  0  0  0
    7.5382  -16.0731   24.1309 C   0  0  2  0  0  0  0  0  0  0  0  0
    8.1418  -16.5016   22.9008 N   0  0  0  0  0  0  0  0  0  0  0  0
    8.1978  -15.0114   24.8707 C   0  0  0  0  0  0  0  0  0  0  0  0
    9.4622  -14.8830   24.6450 O   0  0  0  0  0  0  0  0  0  0  0  0
    7.6541  -14.1247   25.7875 N   0  0  0  0  0  0  0  0  0  0  0  0
    6.3337  -14.0657   26.3553 C   0  0  0  0  0  0  0  0  0  0  0  0
    6.0160  -12.5867   26.3167 C   0  0  0  0  0  0  0  0  0  0  0  0
    7.3402  -11.9706   26.7148 C   0  0  0  0  0  0  0  0  0  0  0  0
    8.3663  -13.0360   26.5088 C   0  0  1  0  0  0  0  0  0  0  0  0
    8.8435  -13.5509   27.8225 C   0  0  0  0  0  0  0  0  0  0  0  0
    9.7246  -12.8360   28.6174 O   0  0  0  0  0  0  0  0  0  0  0  0
    8.4620  -14.6681   28.2690 O   0  0  0  0  0  0  0  0  0  0  0  0
  2  1  1  1
  2  3  1  0
  4  8  1  0
  4  3  1  0
  5  4  2  0
  6  2  1  0
  6 15  1  0
  7  6  2  0
  9 10  1  0
 10 11  2  0
 12 13  1  0
 12 10  1  0
 14 16  1  0
 14 13  1  1
 14 15  1  0
 16 18  1  0
 17 16  2  0
 18 22  1  0
 18 19  1  0
 19 20  1  0
 20 21  1  0
 22 21  1  0
 22 23  1  1
 24 23  1  0
 25 23  2  0
M  END
$$$$
