DQP.pdb
     RDKit          3D

 25 25  0  0  1  0  0  0  0  0999 V2000
   10.1616  -14.0003   19.8206 N   0  0  0  0  0  0  0  0  0  0  0  0
    9.0559  -13.0760   19.9699 C   0  0  1  0  0  0  0  0  0  0  0  0
    8.2917  -13.0907   18.6629 C   0  0  0  0  0  0  0  0  0  0  0  0
    8.2196  -14.5017   18.2050 C   0  0  0  0  0  0  0  0  0  0  0  0
    8.6494  -15.4443   18.8815 O   0  0  0  0  0  0  0  0  0  0  0  0
    8.2049  -13.4754   21.1111 C   0  0  0  0  0  0  0  0  0  0  0  0
    7.2186  -12.8038   21.4958 O   0  0  0  0  0  0  0  0  0  0  0  0
    7.6505  -14.7926   16.9714 O   0  0  0  0  0  0  0  0  0  0  0  0
    6.8981  -19.0580   23.1475 N   0  0  0  0  0  0  0  0  0  0  0  0
    6.5205  -18.3453   24.3069 C   0  0  0  0  0  0  0  0  0  0  0  0
    5.9451  -18.9420   25.2351 O   0  0  0  0  0  0  0  0  0  0  0  0
    6.8032  -16.8956   24.4269 C   0  0  0  0  0  0  0  0  0  0  0  0
    7.4302  -16.4162   23.1684 C   0  0  0  0  0  0  0  0  0  0  0  0
    7.8423  -14.9923   23.1161 C   0  0  2  0  0  0  0  0  0  0  0  0
    8.4668  -14.6842   21.8607 N   0  0  0  0  0  0  0  0  0  0  0  0
    8.4335  -14.4308   24.3181 C   0  0  0  0  0  0  0  0  0  0  0  0
    9.7238  -14.4106   24.3424 O   0  0  0  0  0  0  0  0  0  0  0  0
    7.7995  -13.9210   25.4409 N   0  0  0  0  0  0  0  0  0  0  0  0
    6.4031  -13.8809   25.7838 C   0  0  0  0  0  0  0  0  0  0  0  0
    6.2337  -12.4858   26.3450 C   0  0  0  0  0  0  0  0  0  0  0  0
    7.5016  -12.3171   27.1547 C   0  0  0  0  0  0  0  0  0  0  0  0
    8.4482  -13.3590   26.6558 C   0  0  1  0  0  0  0  0  0  0  0  0
    8.6050  -14.4388   27.6698 C   0  0  0  0  0  0  0  0  0  0  0  0
    9.4330  -14.2994   28.7717 O   0  0  0  0  0  0  0  0  0  0  0  0
    7.9854  -15.5335   27.5661 O   0  0  0  0  0  0  0  0  0  0  0  0
  2  1  1  6
  2  3  1  0
  4  8  1  0
  4  3  1  0
  5  4  2  0
  6  2  1  0
  6 15  1  0
  7  6  2  0
  9 10  1  0
 10 11  2  0
 12 13  1  0
 12 10  1  0
 14 16  1  0
 14 13  1  1
 14 15  1  0
 16 18  1  0
 17 16  2  0
 18 22  1  0
 18 19  1  0
 19 20  1  0
 20 21  1  0
 22 21  1  0
 22 23  1  1
 24 23  1  0
 25 23  2  0
M  END
$$$$
