GIM.pdb
     RDKit          3D

 21 20  0  0  1  0  0  0  0  0999 V2000
   19.8873  -20.1804  -10.7394 N   0  0  0  0  0  0  0  0  0  0  0  0
   21.0472  -19.3561  -10.9726 C   0  0  0  0  0  0  0  0  0  0  0  0
   22.2646  -20.1825  -10.8383 C   0  0  0  0  0  0  0  0  0  0  0  0
   22.2411  -21.2376  -10.1670 O   0  0  0  0  0  0  0  0  0  0  0  0
   24.0629  -23.2131  -13.4567 C   0  0  0  0  0  0  0  0  0  0  0  0
   24.2508  -21.7465  -13.5779 C   0  0  0  0  0  0  0  0  0  0  0  0
   25.2081  -21.1034  -12.6458 C   0  0  2  0  0  0  0  0  0  0  0  0
   26.5096  -21.8487  -12.5010 C   0  0  0  0  0  0  0  0  0  0  0  0
   24.6407  -20.6771  -11.3452 C   0  0  2  0  0  0  0  0  0  0  0  0
   23.4945  -19.8165  -11.4581 N   0  0  0  0  0  0  0  0  0  0  0  0
   25.6776  -20.0458  -10.4532 C   0  0  0  0  0  0  0  0  0  0  0  0
   26.0741  -18.8837  -10.6257 O   0  0  0  0  0  0  0  0  0  0  0  0
   27.2648  -18.7741   -4.2016 C   0  0  0  0  0  0  0  0  0  0  0  0
   28.4578  -19.9982   -4.7471 S   0  0  0  0  0  0  0  0  0  0  0  0
   28.6381  -20.0540   -6.5519 C   0  0  0  0  0  0  0  0  0  0  0  0
   27.3839  -20.4638   -7.2435 C   0  0  0  0  0  0  0  0  0  0  0  0
   27.4935  -20.4317   -8.7253 C   0  0  2  0  0  0  0  0  0  0  0  0
   26.2338  -20.7844   -9.3738 N   0  0  0  0  0  0  0  0  0  0  0  0
   28.6191  -21.2007   -9.3001 C   0  0  0  0  0  0  0  0  0  0  0  0
   28.5364  -22.3261   -9.8197 O   0  0  0  0  0  0  0  0  0  0  0  0
   29.8906  -20.5814   -9.2422 O   0  0  0  0  0  0  0  0  0  0  0  0
  2  1  1  0
  2  3  1  0
  3 10  1  0
  4  3  2  0
  6  5  1  0
  7  6  1  0
  7  8  1  1
  9  7  1  0
  9 10  1  6
 11 18  1  0
 11  9  1  0
 12 11  2  0
 14 13  1  0
 15 14  1  0
 16 15  1  0
 17 16  1  1
 17 18  1  0
 19 17  1  0
 20 19  2  0
 21 19  1  0
M  END
$$$$
