GIM.pdb
     RDKit          3D

 21 20  0  0  1  0  0  0  0  0999 V2000
   21.7391  -12.5332  -19.3805 N   0  0  0  0  0  0  0  0  0  0  0  0
   22.4562  -11.7663  -18.3922 C   0  0  0  0  0  0  0  0  0  0  0  0
   21.5797  -10.6916  -17.8823 C   0  0  0  0  0  0  0  0  0  0  0  0
   20.9344   -9.9725  -18.6766 O   0  0  0  0  0  0  0  0  0  0  0  0
   17.7223  -11.5404  -14.6311 C   0  0  0  0  0  0  0  0  0  0  0  0
   18.6196  -10.8795  -15.6103 C   0  0  0  0  0  0  0  0  0  0  0  0
   19.5151   -9.8128  -15.1012 C   0  0  2  0  0  0  0  0  0  0  0  0
   18.7853   -8.6599  -14.4621 C   0  0  0  0  0  0  0  0  0  0  0  0
   20.5779   -9.3747  -16.0358 C   0  0  2  0  0  0  0  0  0  0  0  0
   21.4368  -10.4355  -16.4878 N   0  0  0  0  0  0  0  0  0  0  0  0
   21.4006   -8.2462  -15.4710 C   0  0  0  0  0  0  0  0  0  0  0  0
   22.1923   -8.4153  -14.5320 O   0  0  0  0  0  0  0  0  0  0  0  0
   24.1086   -0.8843  -16.9185 C   0  0  0  0  0  0  0  0  0  0  0  0
   23.0956   -2.2768  -17.4224 S   0  0  0  0  0  0  0  0  0  0  0  0
   22.9759   -3.5618  -16.1468 C   0  0  0  0  0  0  0  0  0  0  0  0
   22.1904   -4.7460  -16.5943 C   0  0  0  0  0  0  0  0  0  0  0  0
   22.0833   -5.8051  -15.5572 C   0  0  2  0  0  0  0  0  0  0  0  0
   21.2835   -6.9380  -16.0142 N   0  0  0  0  0  0  0  0  0  0  0  0
   21.6417   -5.3492  -14.2208 C   0  0  0  0  0  0  0  0  0  0  0  0
   20.4620   -5.2248  -13.8517 O   0  0  0  0  0  0  0  0  0  0  0  0
   22.6688   -5.0330  -13.2996 O   0  0  0  0  0  0  0  0  0  0  0  0
  2  1  1  0
  2  3  1  0
  3 10  1  0
  4  3  2  0
  6  5  1  0
  7  6  1  0
  7  8  1  6
  9  7  1  0
  9 10  1  1
 11 18  1  0
 11  9  1  0
 12 11  2  0
 14 13  1  0
 15 14  1  0
 16 15  1  0
 17 16  1  6
 17 18  1  0
 19 17  1  0
 20 19  2  0
 21 19  1  0
M  END
$$$$
