GIM.pdb
     RDKit          3D

 21 20  0  0  1  0  0  0  0  0999 V2000
   25.4507  -12.3376  -16.5244 N   0  0  0  0  0  0  0  0  0  0  0  0
   24.8030  -11.8066  -15.3507 C   0  0  0  0  0  0  0  0  0  0  0  0
   23.8355  -10.7672  -15.7589 C   0  0  0  0  0  0  0  0  0  0  0  0
   23.8915  -10.2665  -16.9037 O   0  0  0  0  0  0  0  0  0  0  0  0
   19.0433  -11.8363  -14.8496 C   0  0  0  0  0  0  0  0  0  0  0  0
   19.9803  -11.0067  -15.6463 C   0  0  0  0  0  0  0  0  0  0  0  0
   20.4393   -9.7309  -15.0460 C   0  0  2  0  0  0  0  0  0  0  0  0
   19.4732   -8.5895  -15.2314 C   0  0  0  0  0  0  0  0  0  0  0  0
   21.8403   -9.3542  -15.3463 C   0  0  2  0  0  0  0  0  0  0  0  0
   22.8163  -10.3010  -14.8788 N   0  0  0  0  0  0  0  0  0  0  0  0
   22.1764   -7.9733  -14.8468 C   0  0  0  0  0  0  0  0  0  0  0  0
   22.3111   -7.7253  -13.6395 O   0  0  0  0  0  0  0  0  0  0  0  0
   23.1381   -2.9943  -19.1419 C   0  0  0  0  0  0  0  0  0  0  0  0
   23.3310   -2.1359  -17.5783 S   0  0  0  0  0  0  0  0  0  0  0  0
   23.0603   -3.2125  -16.1429 C   0  0  0  0  0  0  0  0  0  0  0  0
   22.7693   -4.6222  -16.5271 C   0  0  0  0  0  0  0  0  0  0  0  0
   22.6075   -5.5272  -15.3595 C   0  0  2  0  0  0  0  0  0  0  0  0
   22.3493   -6.9050  -15.7681 N   0  0  0  0  0  0  0  0  0  0  0  0
   21.6323   -5.0856  -14.3383 C   0  0  0  0  0  0  0  0  0  0  0  0
   20.3967   -5.1757  -14.4306 O   0  0  0  0  0  0  0  0  0  0  0  0
   22.1765   -4.5142  -13.1632 O   0  0  0  0  0  0  0  0  0  0  0  0
  2  1  1  0
  2  3  1  0
  3 10  1  0
  4  3  2  0
  6  5  1  0
  7  6  1  0
  7  8  1  6
  9  7  1  0
  9 10  1  1
 11 18  1  0
 11  9  1  0
 12 11  2  0
 14 13  1  0
 15 14  1  0
 16 15  1  0
 17 16  1  6
 17 18  1  0
 19 17  1  0
 20 19  2  0
 21 19  1  0
M  END
$$$$
