GIM.pdb
     RDKit          3D

 21 20  0  0  1  0  0  0  0  0999 V2000
   16.7939  -10.9926  -16.6988 N   0  0  0  0  0  0  0  0  0  0  0  0
   17.5636   -9.8906  -17.2208 C   0  0  0  0  0  0  0  0  0  0  0  0
   18.5707   -9.4846  -16.2189 C   0  0  0  0  0  0  0  0  0  0  0  0
   18.2123   -8.9917  -15.1266 O   0  0  0  0  0  0  0  0  0  0  0  0
   23.1371  -12.3298  -15.3139 C   0  0  0  0  0  0  0  0  0  0  0  0
   21.9351  -11.4612  -15.2761 C   0  0  0  0  0  0  0  0  0  0  0  0
   22.1480   -9.9985  -15.3945 C   0  0  2  0  0  0  0  0  0  0  0  0
   23.1550   -9.4497  -14.4172 C   0  0  0  0  0  0  0  0  0  0  0  0
   20.9152   -9.1804  -15.4716 C   0  0  2  0  0  0  0  0  0  0  0  0
   19.9682   -9.6360  -16.4530 N   0  0  0  0  0  0  0  0  0  0  0  0
   21.2159   -7.7191  -15.6802 C   0  0  0  0  0  0  0  0  0  0  0  0
   21.4697   -7.2532  -16.8008 O   0  0  0  0  0  0  0  0  0  0  0  0
   18.5837   -2.9980  -17.4856 C   0  0  0  0  0  0  0  0  0  0  0  0
   19.2951   -2.2241  -16.0316 S   0  0  0  0  0  0  0  0  0  0  0  0
   20.6838   -3.1643  -15.3386 C   0  0  0  0  0  0  0  0  0  0  0  0
   20.4038   -4.6249  -15.2511 C   0  0  0  0  0  0  0  0  0  0  0  0
   21.5356   -5.4067  -14.6886 C   0  0  2  0  0  0  0  0  0  0  0  0
   21.2149   -6.8266  -14.5740 N   0  0  0  0  0  0  0  0  0  0  0  0
   22.1055   -4.8885  -13.4255 C   0  0  0  0  0  0  0  0  0  0  0  0
   22.0898   -5.4744  -12.3301 O   0  0  0  0  0  0  0  0  0  0  0  0
   22.7164   -3.6135  -13.4946 O   0  0  0  0  0  0  0  0  0  0  0  0
  2  1  1  0
  2  3  1  0
  3 10  1  0
  4  3  2  0
  6  5  1  0
  7  6  1  0
  7  8  1  1
  9  7  1  0
  9 10  1  6
 11 18  1  0
 11  9  1  0
 12 11  2  0
 14 13  1  0
 15 14  1  0
 16 15  1  0
 17 16  1  1
 17 18  1  0
 19 17  1  0
 20 19  2  0
 21 19  1  0
M  END
$$$$
