GIM.pdb
     RDKit          3D

 21 20  0  0  1  0  0  0  0  0999 V2000
   17.5862  -11.5790  -18.0751 N   0  0  0  0  0  0  0  0  0  0  0  0
   18.9820  -11.2886  -18.2906 C   0  0  0  0  0  0  0  0  0  0  0  0
   19.5831  -10.8276  -17.0221 C   0  0  0  0  0  0  0  0  0  0  0  0
   18.8605  -10.3650  -16.1119 O   0  0  0  0  0  0  0  0  0  0  0  0
   23.4217  -13.5218  -14.4227 C   0  0  0  0  0  0  0  0  0  0  0  0
   22.3167  -12.6305  -14.8534 C   0  0  0  0  0  0  0  0  0  0  0  0
   22.6198  -11.1850  -14.9852 C   0  0  2  0  0  0  0  0  0  0  0  0
   23.2169  -10.5734  -13.7443 C   0  0  0  0  0  0  0  0  0  0  0  0
   21.5384  -10.3591  -15.5713 C   0  0  2  0  0  0  0  0  0  0  0  0
   20.9875  -10.8904  -16.7884 N   0  0  0  0  0  0  0  0  0  0  0  0
   21.9641   -8.9286  -15.7757 C   0  0  0  0  0  0  0  0  0  0  0  0
   22.7853   -8.6047  -16.6463 O   0  0  0  0  0  0  0  0  0  0  0  0
   18.3563   -4.6414  -17.6604 C   0  0  0  0  0  0  0  0  0  0  0  0
   19.7180   -3.5533  -17.2352 S   0  0  0  0  0  0  0  0  0  0  0  0
   20.9690   -4.3593  -16.1969 C   0  0  0  0  0  0  0  0  0  0  0  0
   20.7229   -5.8187  -16.0269 C   0  0  0  0  0  0  0  0  0  0  0  0
   21.7200   -6.4835  -15.1479 C   0  0  2  0  0  0  0  0  0  0  0  0
   21.4220   -7.9002  -14.9580 N   0  0  0  0  0  0  0  0  0  0  0  0
   21.9748   -5.8171  -13.8519 C   0  0  0  0  0  0  0  0  0  0  0  0
   22.5168   -4.7094  -13.7016 O   0  0  0  0  0  0  0  0  0  0  0  0
   21.5568   -6.5206  -12.6968 O   0  0  0  0  0  0  0  0  0  0  0  0
  2  1  1  0
  2  3  1  0
  3 10  1  0
  4  3  2  0
  6  5  1  0
  7  6  1  0
  7  8  1  1
  9  7  1  0
  9 10  1  6
 11 18  1  0
 11  9  1  0
 12 11  2  0
 14 13  1  0
 15 14  1  0
 16 15  1  0
 17 16  1  1
 17 18  1  0
 19 17  1  0
 20 19  2  0
 21 19  1  0
M  END
$$$$
