GIM.pdb
     RDKit          3D

 21 20  0  0  1  0  0  0  0  0999 V2000
   19.0966  -25.0429   -6.4256 N   0  0  0  0  0  0  0  0  0  0  0  0
   18.2336  -24.3051   -7.3145 C   0  0  0  0  0  0  0  0  0  0  0  0
   18.7556  -24.4070   -8.6929 C   0  0  0  0  0  0  0  0  0  0  0  0
   19.9665  -24.6475   -8.8938 O   0  0  0  0  0  0  0  0  0  0  0  0
   16.5410  -27.6761  -11.6938 C   0  0  0  0  0  0  0  0  0  0  0  0
   17.6854  -26.8067  -11.3260 C   0  0  0  0  0  0  0  0  0  0  0  0
   17.7455  -25.4613  -11.9467 C   0  0  2  0  0  0  0  0  0  0  0  0
   18.1686  -25.4773  -13.3928 C   0  0  0  0  0  0  0  0  0  0  0  0
   18.4465  -24.4252  -11.1529 C   0  0  2  0  0  0  0  0  0  0  0  0
   17.9141  -24.2381   -9.8305 N   0  0  0  0  0  0  0  0  0  0  0  0
   18.5146  -23.1055  -11.8762 C   0  0  0  0  0  0  0  0  0  0  0  0
   17.5597  -22.3148  -11.8934 O   0  0  0  0  0  0  0  0  0  0  0  0
   24.2502  -20.5005  -13.8969 C   0  0  0  0  0  0  0  0  0  0  0  0
   23.0927  -19.5606  -14.8948 S   0  0  0  0  0  0  0  0  0  0  0  0
   21.3607  -19.9758  -14.5476 C   0  0  0  0  0  0  0  0  0  0  0  0
   21.2189  -21.1950  -13.7034 C   0  0  0  0  0  0  0  0  0  0  0  0
   19.8060  -21.5248  -13.3814 C   0  0  2  0  0  0  0  0  0  0  0  0
   19.6989  -22.7324  -12.5678 N   0  0  0  0  0  0  0  0  0  0  0  0
   18.8831  -21.5802  -14.5364 C   0  0  0  0  0  0  0  0  0  0  0  0
   18.8132  -22.5047  -15.3634 O   0  0  0  0  0  0  0  0  0  0  0  0
   18.0140  -20.4740  -14.6931 O   0  0  0  0  0  0  0  0  0  0  0  0
  2  1  1  0
  2  3  1  0
  3 10  1  0
  4  3  2  0
  6  5  1  0
  7  6  1  0
  7  8  1  6
  9  7  1  0
  9 10  1  1
 11 18  1  0
 11  9  1  0
 12 11  2  0
 14 13  1  0
 15 14  1  0
 16 15  1  0
 17 16  1  6
 17 18  1  0
 19 17  1  0
 20 19  2  0
 21 19  1  0
M  END
$$$$
