GIM.pdb
     RDKit          3D

 21 20  0  0  1  0  0  0  0  0999 V2000
   15.0375  -19.8509  -87.6634 N   0  0  0  0  0  0  0  0  0  0  0  0
   15.9463  -20.7763  -87.0335 C   0  0  0  0  0  0  0  0  0  0  0  0
   16.4185  -20.2001  -85.7576 C   0  0  0  0  0  0  0  0  0  0  0  0
   16.5765  -20.9306  -84.7546 O   0  0  0  0  0  0  0  0  0  0  0  0
   16.2706  -17.7559  -88.5324 C   0  0  0  0  0  0  0  0  0  0  0  0
   15.4206  -16.9239  -87.6457 C   0  0  0  0  0  0  0  0  0  0  0  0
   14.7680  -17.5994  -86.4982 C   0  0  2  0  0  0  0  0  0  0  0  0
   13.4529  -16.9827  -86.0975 C   0  0  0  0  0  0  0  0  0  0  0  0
   15.6489  -17.8804  -85.3406 C   0  0  2  0  0  0  0  0  0  0  0  0
   16.7080  -18.8116  -85.6206 N   0  0  0  0  0  0  0  0  0  0  0  0
   14.8709  -18.3282  -84.1308 C   0  0  0  0  0  0  0  0  0  0  0  0
   13.7074  -17.9541  -83.9215 O   0  0  0  0  0  0  0  0  0  0  0  0
   13.6760  -23.3365  -78.4920 C   0  0  0  0  0  0  0  0  0  0  0  0
   14.6957  -22.7728  -79.8565 S   0  0  0  0  0  0  0  0  0  0  0  0
   14.8188  -20.9647  -79.9468 C   0  0  0  0  0  0  0  0  0  0  0  0
   15.6120  -20.4993  -81.1188 C   0  0  0  0  0  0  0  0  0  0  0  0
   15.0142  -19.3227  -81.8021 C   0  0  2  0  0  0  0  0  0  0  0  0
   15.4667  -19.2065  -83.1855 N   0  0  0  0  0  0  0  0  0  0  0  0
   15.1493  -18.0329  -81.0902 C   0  0  0  0  0  0  0  0  0  0  0  0
   15.1285  -17.8808  -79.8574 O   0  0  0  0  0  0  0  0  0  0  0  0
   15.3154  -16.8866  -81.9039 O   0  0  0  0  0  0  0  0  0  0  0  0
  2  1  1  0
  2  3  1  0
  3 10  1  0
  4  3  2  0
  6  5  1  0
  7  6  1  0
  7  8  1  1
  9  7  1  0
  9 10  1  6
 11 18  1  0
 11  9  1  0
 12 11  2  0
 14 13  1  0
 15 14  1  0
 16 15  1  0
 17 16  1  1
 17 18  1  0
 19 17  1  0
 20 19  2  0
 21 19  1  0
M  END
$$$$
