LNG.pdb
     RDKit          3D

 21 20  0  0  1  0  0  0  0  0999 V2000
    8.8461  -13.0039   19.1375 C   0  0  0  0  0  0  0  0  0  0  0  0
    7.5388  -13.5357   19.6738 C   0  0  2  0  0  0  0  0  0  0  0  0
    6.3841  -12.5902   19.3854 C   0  0  0  0  0  0  0  0  0  0  0  0
    7.6213  -13.8202   21.1672 C   0  0  0  0  0  0  0  0  0  0  0  0
    8.7758  -14.7687   21.3811 C   0  0  2  0  0  0  0  0  0  0  0  0
    8.4729  -15.9680   20.6162 N   0  0  0  0  0  0  0  0  0  0  0  0
    8.9886  -15.0884   22.8049 C   0  0  0  0  0  0  0  0  0  0  0  0
    9.1176  -14.1381   23.6150 O   0  0  0  0  0  0  0  0  0  0  0  0
    6.2041  -16.0885   25.3749 N   0  0  0  0  0  0  0  0  0  0  0  0
    6.8210  -17.3598   25.0520 C   0  0  0  0  0  0  0  0  0  0  0  0
    6.0008  -18.1858   24.6065 O   0  0  0  0  0  0  0  0  0  0  0  0
    8.2134  -17.5627   25.2503 C   0  0  0  0  0  0  0  0  0  0  0  0
    9.2824  -16.6642   24.7890 C   0  0  2  0  0  0  0  0  0  0  0  0
    9.0562  -16.3997   23.3192 N   0  0  0  0  0  0  0  0  0  0  0  0
   10.6786  -17.0598   24.9516 C   0  0  0  0  0  0  0  0  0  0  0  0
   11.1218  -17.2796   26.1596 O   0  0  0  0  0  0  0  0  0  0  0  0
   11.6690  -17.2557   23.9680 N   0  0  0  0  0  0  0  0  0  0  0  0
   13.0323  -17.6753   24.3090 C   0  0  0  0  0  0  0  0  0  0  0  0
   13.9847  -16.5522   24.1928 C   0  0  0  0  0  0  0  0  0  0  0  0
   15.1960  -16.7688   24.4411 O   0  0  0  0  0  0  0  0  0  0  0  0
   13.6177  -15.2743   23.8257 O   0  0  0  0  0  0  0  0  0  0  0  0
  2  1  1  1
  3  2  1  0
  4  5  1  0
  4  2  1  0
  5  6  1  6
  7  5  1  0
  8  7  2  0
 10  9  1  0
 10 12  1  0
 11 10  2  0
 13 12  1  6
 13 14  1  0
 14  7  1  0
 15 16  2  0
 15 13  1  0
 17 15  1  0
 18 19  1  0
 18 17  1  0
 19 21  1  0
 20 19  2  0
M  END
$$$$
