LNG.pdb
     RDKit          3D

 21 20  0  0  1  0  0  0  0  0999 V2000
    6.7054  -11.9240   24.4548 C   0  0  0  0  0  0  0  0  0  0  0  0
    6.3615  -12.4452   25.8294 C   0  0  2  0  0  0  0  0  0  0  0  0
    6.5230  -11.3741   26.8958 C   0  0  0  0  0  0  0  0  0  0  0  0
    7.1930  -13.6693   26.1875 C   0  0  0  0  0  0  0  0  0  0  0  0
    6.8995  -14.7301   25.1547 C   0  0  2  0  0  0  0  0  0  0  0  0
    5.5404  -15.1843   25.4031 N   0  0  0  0  0  0  0  0  0  0  0  0
    7.8523  -15.8541   25.2119 C   0  0  0  0  0  0  0  0  0  0  0  0
    7.5827  -16.8249   25.9608 O   0  0  0  0  0  0  0  0  0  0  0  0
   11.3400  -15.6136   21.4369 N   0  0  0  0  0  0  0  0  0  0  0  0
   10.7174  -16.7176   22.1402 C   0  0  0  0  0  0  0  0  0  0  0  0
    9.9552  -17.3776   21.4075 O   0  0  0  0  0  0  0  0  0  0  0  0
   10.9969  -16.9544   23.5131 C   0  0  0  0  0  0  0  0  0  0  0  0
    9.9926  -17.0890   24.5791 C   0  0  2  0  0  0  0  0  0  0  0  0
    9.0535  -15.9105   24.4753 N   0  0  0  0  0  0  0  0  0  0  0  0
   10.4246  -17.1817   25.9709 C   0  0  0  0  0  0  0  0  0  0  0  0
   11.0499  -16.1615   26.4928 O   0  0  0  0  0  0  0  0  0  0  0  0
   10.2636  -18.2427   26.8846 N   0  0  0  0  0  0  0  0  0  0  0  0
   10.7490  -18.1607   28.2660 C   0  0  0  0  0  0  0  0  0  0  0  0
   11.9563  -18.9891   28.4611 C   0  0  0  0  0  0  0  0  0  0  0  0
   12.5019  -19.4959   27.4506 O   0  0  0  0  0  0  0  0  0  0  0  0
   12.5203  -19.2386   29.6948 O   0  0  0  0  0  0  0  0  0  0  0  0
  2  1  1  6
  3  2  1  0
  4  5  1  0
  4  2  1  0
  5  6  1  1
  7  5  1  0
  8  7  2  0
 10  9  1  0
 10 12  1  0
 11 10  2  0
 13 12  1  6
 13 14  1  0
 14  7  1  0
 15 16  2  0
 15 13  1  0
 17 15  1  0
 18 19  1  0
 18 17  1  0
 19 21  1  0
 20 19  2  0
M  END
$$$$
