LNG.pdb
     RDKit          3D

 21 20  0  0  1  0  0  0  0  0999 V2000
    9.0656  -12.9481   18.5760 C   0  0  0  0  0  0  0  0  0  0  0  0
    7.9301  -13.3927   19.4662 C   0  0  2  0  0  0  0  0  0  0  0  0
    6.9029  -12.2899   19.6639 C   0  0  0  0  0  0  0  0  0  0  0  0
    8.4366  -13.8837   20.8154 C   0  0  0  0  0  0  0  0  0  0  0  0
    9.4638  -14.9566   20.5468 C   0  0  2  0  0  0  0  0  0  0  0  0
    8.8138  -15.9505   19.7071 N   0  0  0  0  0  0  0  0  0  0  0  0
    9.9814  -15.5667   21.7855 C   0  0  0  0  0  0  0  0  0  0  0  0
    9.4656  -15.2244   22.8777 O   0  0  0  0  0  0  0  0  0  0  0  0
   11.1905  -20.7746   22.1362 N   0  0  0  0  0  0  0  0  0  0  0  0
   10.6398  -19.4393   22.0143 C   0  0  0  0  0  0  0  0  0  0  0  0
   10.1460  -19.2306   20.8891 O   0  0  0  0  0  0  0  0  0  0  0  0
   10.6965  -18.5280   23.1030 C   0  0  0  0  0  0  0  0  0  0  0  0
   11.3956  -17.2341   23.0993 C   0  0  2  0  0  0  0  0  0  0  0  0
   11.0235  -16.5159   21.8237 N   0  0  0  0  0  0  0  0  0  0  0  0
   12.8511  -17.1993   23.2112 C   0  0  0  0  0  0  0  0  0  0  0  0
   13.4137  -17.8860   24.1684 O   0  0  0  0  0  0  0  0  0  0  0  0
   13.7897  -16.5156   22.4124 N   0  0  0  0  0  0  0  0  0  0  0  0
   15.2352  -16.6912   22.5871 C   0  0  0  0  0  0  0  0  0  0  0  0
   15.7670  -15.7745   23.6161 C   0  0  0  0  0  0  0  0  0  0  0  0
   14.9526  -15.1014   24.2940 O   0  0  0  0  0  0  0  0  0  0  0  0
   17.1123  -15.6152   23.8755 O   0  0  0  0  0  0  0  0  0  0  0  0
  2  1  1  6
  3  2  1  0
  4  5  1  0
  4  2  1  0
  5  6  1  6
  7  5  1  0
  8  7  2  0
 10  9  1  0
 10 12  1  0
 11 10  2  0
 13 12  1  6
 13 14  1  0
 14  7  1  0
 15 16  2  0
 15 13  1  0
 17 15  1  0
 18 19  1  0
 18 17  1  0
 19 21  1  0
 20 19  2  0
M  END
$$$$
