LNG.pdb
     RDKit          3D

 21 20  0  0  1  0  0  0  0  0999 V2000
    6.9890  -12.5683   24.5744 C   0  0  0  0  0  0  0  0  0  0  0  0
    6.9857  -12.8559   26.0565 C   0  0  2  0  0  0  0  0  0  0  0  0
    7.8126  -11.8418   26.8301 C   0  0  0  0  0  0  0  0  0  0  0  0
    7.4761  -14.2663   26.3536 C   0  0  0  0  0  0  0  0  0  0  0  0
    6.6678  -15.2126   25.4997 C   0  0  2  0  0  0  0  0  0  0  0  0
    5.3006  -15.1482   25.9914 N   0  0  0  0  0  0  0  0  0  0  0  0
    7.1821  -16.5940   25.5442 C   0  0  0  0  0  0  0  0  0  0  0  0
    6.9276  -17.2910   26.5569 O   0  0  0  0  0  0  0  0  0  0  0  0
    7.1775  -18.6805   21.0226 N   0  0  0  0  0  0  0  0  0  0  0  0
    7.0948  -19.1400   22.3949 C   0  0  0  0  0  0  0  0  0  0  0  0
    5.9352  -19.4622   22.7184 O   0  0  0  0  0  0  0  0  0  0  0  0
    8.2536  -19.1880   23.2158 C   0  0  0  0  0  0  0  0  0  0  0  0
    8.3613  -18.6378   24.5755 C   0  0  2  0  0  0  0  0  0  0  0  0
    7.9449  -17.1871   24.5171 N   0  0  0  0  0  0  0  0  0  0  0  0
    9.6393  -18.6971   25.2795 C   0  0  0  0  0  0  0  0  0  0  0  0
   10.3037  -19.8206   25.2599 O   0  0  0  0  0  0  0  0  0  0  0  0
   10.3032  -17.6885   26.0064 N   0  0  0  0  0  0  0  0  0  0  0  0
   11.6058  -17.9156   26.6408 C   0  0  0  0  0  0  0  0  0  0  0  0
   11.4507  -18.4366   28.0143 C   0  0  0  0  0  0  0  0  0  0  0  0
   10.2971  -18.7254   28.4162 O   0  0  0  0  0  0  0  0  0  0  0  0
   12.5050  -18.6245   28.8836 O   0  0  0  0  0  0  0  0  0  0  0  0
  2  1  1  6
  3  2  1  0
  4  5  1  0
  4  2  1  0
  5  6  1  1
  7  5  1  0
  8  7  2  0
 10  9  1  0
 10 12  1  0
 11 10  2  0
 13 12  1  6
 13 14  1  0
 14  7  1  0
 15 16  2  0
 15 13  1  0
 17 15  1  0
 18 19  1  0
 18 17  1  0
 19 21  1  0
 20 19  2  0
M  END
$$$$
