LNG.pdb
     RDKit          3D

 21 20  0  0  1  0  0  0  0  0999 V2000
    7.1263  -12.1775   24.7664 C   0  0  0  0  0  0  0  0  0  0  0  0
    6.8624  -12.7456   26.1401 C   0  0  2  0  0  0  0  0  0  0  0  0
    7.0030  -11.6895   27.2242 C   0  0  0  0  0  0  0  0  0  0  0  0
    7.7732  -13.9281   26.4407 C   0  0  0  0  0  0  0  0  0  0  0  0
    7.4299  -15.0212   25.4581 C   0  0  2  0  0  0  0  0  0  0  0  0
    6.0538  -15.4049   25.7303 N   0  0  0  0  0  0  0  0  0  0  0  0
    8.3341  -16.1813   25.5642 C   0  0  0  0  0  0  0  0  0  0  0  0
    8.4203  -16.7689   26.6702 O   0  0  0  0  0  0  0  0  0  0  0  0
    8.6021  -19.0860   21.7062 N   0  0  0  0  0  0  0  0  0  0  0  0
    8.4933  -19.0170   23.1500 C   0  0  0  0  0  0  0  0  0  0  0  0
    7.3086  -19.0153   23.5371 O   0  0  0  0  0  0  0  0  0  0  0  0
    9.6564  -18.9601   23.9642 C   0  0  0  0  0  0  0  0  0  0  0  0
   10.1267  -17.7777   24.7015 C   0  0  2  0  0  0  0  0  0  0  0  0
    9.1122  -16.6773   24.4979 N   0  0  0  0  0  0  0  0  0  0  0  0
   11.4427  -17.2183   24.4057 C   0  0  0  0  0  0  0  0  0  0  0  0
   12.4960  -17.9407   24.6758 O   0  0  0  0  0  0  0  0  0  0  0  0
   11.7735  -15.9679   23.8456 N   0  0  0  0  0  0  0  0  0  0  0  0
   13.1540  -15.4748   23.8031 C   0  0  0  0  0  0  0  0  0  0  0  0
   13.8457  -15.9198   22.5761 C   0  0  0  0  0  0  0  0  0  0  0  0
   13.3778  -16.9021   21.9502 O   0  0  0  0  0  0  0  0  0  0  0  0
   14.9807  -15.3153   22.0771 O   0  0  0  0  0  0  0  0  0  0  0  0
  2  1  1  6
  3  2  1  0
  4  5  1  0
  4  2  1  0
  5  6  1  1
  7  5  1  0
  8  7  2  0
 10  9  1  0
 10 12  1  0
 11 10  2  0
 13 12  1  6
 13 14  1  0
 14  7  1  0
 15 16  2  0
 15 13  1  0
 17 15  1  0
 18 19  1  0
 18 17  1  0
 19 21  1  0
 20 19  2  0
M  END
$$$$
