LNG.pdb
     RDKit          3D

 21 20  0  0  1  0  0  0  0  0999 V2000
    3.9042  -19.6948   20.7118 C   0  0  0  0  0  0  0  0  0  0  0  0
    4.2638  -18.6190   21.7081 C   0  0  2  0  0  0  0  0  0  0  0  0
    3.0543  -17.7860   22.1005 C   0  0  0  0  0  0  0  0  0  0  0  0
    5.3715  -17.7168   21.1816 C   0  0  0  0  0  0  0  0  0  0  0  0
    6.5631  -18.5944   20.8848 C   0  0  2  0  0  0  0  0  0  0  0  0
    6.9746  -19.1759   22.1528 N   0  0  0  0  0  0  0  0  0  0  0  0
    7.6717  -17.8500   20.2590 C   0  0  0  0  0  0  0  0  0  0  0  0
    7.9031  -18.0411   19.0400 O   0  0  0  0  0  0  0  0  0  0  0  0
    7.0622  -12.6467   19.0768 N   0  0  0  0  0  0  0  0  0  0  0  0
    7.9580  -13.7797   18.9534 C   0  0  0  0  0  0  0  0  0  0  0  0
    8.7143  -13.6815   17.9676 O   0  0  0  0  0  0  0  0  0  0  0  0
    7.9159  -14.8446   19.8932 C   0  0  0  0  0  0  0  0  0  0  0  0
    9.0507  -15.7041   20.2624 C   0  0  2  0  0  0  0  0  0  0  0  0
    8.4932  -16.9313   20.9443 N   0  0  0  0  0  0  0  0  0  0  0  0
   10.1106  -15.1742   21.1157 C   0  0  0  0  0  0  0  0  0  0  0  0
   10.8210  -14.1741   20.6694 O   0  0  0  0  0  0  0  0  0  0  0  0
   10.5050  -15.5850   22.4050 N   0  0  0  0  0  0  0  0  0  0  0  0
   11.8443  -16.1171   22.6766 C   0  0  0  0  0  0  0  0  0  0  0  0
   12.0406  -16.3669   24.1192 C   0  0  0  0  0  0  0  0  0  0  0  0
   11.0309  -16.3826   24.8649 O   0  0  0  0  0  0  0  0  0  0  0  0
   13.2745  -16.5846   24.6958 O   0  0  0  0  0  0  0  0  0  0  0  0
  2  1  1  6
  3  2  1  0
  4  5  1  0
  4  2  1  0
  5  6  1  1
  7  5  1  0
  8  7  2  0
 10  9  1  0
 10 12  1  0
 11 10  2  0
 13 12  1  1
 13 14  1  0
 14  7  1  0
 15 16  2  0
 15 13  1  0
 17 15  1  0
 18 19  1  0
 18 17  1  0
 19 21  1  0
 20 19  2  0
M  END
$$$$
