LNG.pdb
     RDKit          3D

 21 20  0  0  1  0  0  0  0  0999 V2000
    8.5295  -12.3353   18.7777 C   0  0  0  0  0  0  0  0  0  0  0  0
    7.7428  -13.4714   19.3856 C   0  0  2  0  0  0  0  0  0  0  0  0
    6.6818  -12.9699   20.3516 C   0  0  0  0  0  0  0  0  0  0  0  0
    8.6539  -14.4722   20.0831 C   0  0  0  0  0  0  0  0  0  0  0  0
    9.6501  -14.9621   19.0604 C   0  0  2  0  0  0  0  0  0  0  0  0
    8.8973  -15.7410   18.0898 N   0  0  0  0  0  0  0  0  0  0  0  0
   10.7293  -15.7667   19.6625 C   0  0  0  0  0  0  0  0  0  0  0  0
   10.5109  -16.9825   19.8863 O   0  0  0  0  0  0  0  0  0  0  0  0
   14.9802  -14.0113   18.6404 N   0  0  0  0  0  0  0  0  0  0  0  0
   14.7186  -15.3794   19.0417 C   0  0  0  0  0  0  0  0  0  0  0  0
   14.8685  -16.1861   18.1036 O   0  0  0  0  0  0  0  0  0  0  0  0
   14.3377  -15.6847   20.3762 C   0  0  0  0  0  0  0  0  0  0  0  0
   12.9860  -16.0643   20.8137 C   0  0  2  0  0  0  0  0  0  0  0  0
   11.9987  -15.2567   20.0047 N   0  0  0  0  0  0  0  0  0  0  0  0
   12.6160  -15.9248   22.2194 C   0  0  0  0  0  0  0  0  0  0  0  0
   13.1828  -14.9775   22.9162 O   0  0  0  0  0  0  0  0  0  0  0  0
   11.6998  -16.6804   22.9784 N   0  0  0  0  0  0  0  0  0  0  0  0
   12.0235  -18.0196   23.4813 C   0  0  0  0  0  0  0  0  0  0  0  0
   12.3318  -17.9908   24.9256 C   0  0  0  0  0  0  0  0  0  0  0  0
   11.6327  -17.2614   25.6706 O   0  0  0  0  0  0  0  0  0  0  0  0
   13.3477  -18.7224   25.5045 O   0  0  0  0  0  0  0  0  0  0  0  0
  2  1  1  1
  3  2  1  0
  4  5  1  0
  4  2  1  0
  5  6  1  6
  7  5  1  0
  8  7  2  0
 10  9  1  0
 10 12  1  0
 11 10  2  0
 13 12  1  1
 13 14  1  0
 14  7  1  0
 15 16  2  0
 15 13  1  0
 17 15  1  0
 18 19  1  0
 18 17  1  0
 19 21  1  0
 20 19  2  0
M  END
$$$$
