TKY.pdb
     RDKit          3D

 29 29  0  0  1  0  0  0  0  0999 V2000
    9.1460  -13.3544   18.8650 C   0  0  0  0  0  0  0  0  0  0  0  0
    8.8398  -14.2438   20.0577 C   0  0  1  0  0  0  0  0  0  0  0  0
    9.5103  -13.8361   21.1987 O   0  0  0  0  0  0  0  0  0  0  0  0
    7.3780  -14.2507   20.3238 C   0  0  2  0  0  0  0  0  0  0  0  0
    6.8278  -12.9373   20.5425 N   0  0  0  0  0  0  0  0  0  0  0  0
    7.0804  -15.0896   21.5045 C   0  0  0  0  0  0  0  0  0  0  0  0
    6.6546  -14.5600   22.5851 O   0  0  0  0  0  0  0  0  0  0  0  0
    7.2402  -16.4979   21.5075 N   0  0  0  0  0  0  0  0  0  0  0  0
    6.9027  -17.3385   22.6014 C   0  0  1  0  0  0  0  0  0  0  0  0
    6.7817  -18.7906   22.3691 C   0  0  0  0  0  0  0  0  0  0  0  0
    6.4383  -19.6534   23.5290 C   0  0  0  0  0  0  0  0  0  0  0  0
    6.2766  -21.1050   23.2752 C   0  0  0  0  0  0  0  0  0  0  0  0
    5.7706  -21.7242   24.5909 C   0  0  0  0  0  0  0  0  0  0  0  0
    5.6178  -23.1609   24.4354 N   0  0  0  0  0  0  0  0  0  0  0  0
    7.8465  -17.0649   23.7551 C   0  0  0  0  0  0  0  0  0  0  0  0
    9.0621  -16.8407   23.5112 O   0  0  0  0  0  0  0  0  0  0  0  0
    6.7473  -10.7062   25.4408 O   0  0  0  0  0  0  0  0  0  0  0  0
    6.9444  -12.0149   25.8753 C   0  0  0  0  0  0  0  0  0  0  0  0
    8.2436  -12.3775   26.2092 C   0  0  0  0  0  0  0  0  0  0  0  0
    8.5036  -13.6627   26.6452 C   0  0  0  0  0  0  0  0  0  0  0  0
    7.4826  -14.6016   26.7568 C   0  0  0  0  0  0  0  0  0  0  0  0
    7.7995  -15.9561   27.2299 C   0  0  0  0  0  0  0  0  0  0  0  0
    8.4063  -16.7674   26.1338 C   0  0  2  0  0  0  0  0  0  0  0  0
    7.4376  -17.0484   25.0905 N   0  0  0  0  0  0  0  0  0  0  0  0
    9.0158  -18.0517   26.5960 C   0  0  0  0  0  0  0  0  0  0  0  0
   10.0365  -18.0331   27.5394 O   0  0  0  0  0  0  0  0  0  0  0  0
    6.2140  -14.1910   26.4150 C   0  0  0  0  0  0  0  0  0  0  0  0
    5.9293  -12.9217   25.9789 C   0  0  0  0  0  0  0  0  0  0  0  0
    8.6679  -19.1823   26.1827 O   0  0  0  0  0  0  0  0  0  0  0  0
  2  3  1  0
  2  1  1  6
  4  2  1  0
  4  5  1  1
  6  7  2  0
  6  4  1  0
  8  6  1  0
  9  8  1  0
  9 10  1  6
 11 12  1  0
 11 10  1  0
 12 13  1  0
 14 13  1  0
 15 24  1  0
 15  9  1  0
 16 15  2  0
 18 17  1  0
 19 18  2  0
 20 19  1  0
 21 27  1  0
 21 20  2  0
 23 22  1  1
 22 21  1  0
 23 24  1  0
 23 25  1  0
 25 26  1  0
 27 28  2  0
 28 18  1  0
 29 25  2  0
M  END
$$$$
