TKY.pdb
     RDKit          3D

 29 29  0  0  1  0  0  0  0  0999 V2000
    9.1512  -13.9499   17.4389 C   0  0  0  0  0  0  0  0  0  0  0  0
    8.7772  -14.4759   18.8139 C   0  0  1  0  0  0  0  0  0  0  0  0
    9.7298  -14.1634   19.7692 O   0  0  0  0  0  0  0  0  0  0  0  0
    7.4639  -13.9195   19.2304 C   0  0  2  0  0  0  0  0  0  0  0  0
    7.4400  -12.4798   19.2806 N   0  0  0  0  0  0  0  0  0  0  0  0
    7.0885  -14.4444   20.5607 C   0  0  0  0  0  0  0  0  0  0  0  0
    7.2988  -13.7532   21.6131 O   0  0  0  0  0  0  0  0  0  0  0  0
    6.4825  -15.7124   20.7444 N   0  0  0  0  0  0  0  0  0  0  0  0
    6.2613  -16.3171   22.0103 C   0  0  1  0  0  0  0  0  0  0  0  0
    5.5641  -17.6164   22.0637 C   0  0  0  0  0  0  0  0  0  0  0  0
    4.2805  -17.7467   21.3267 C   0  0  0  0  0  0  0  0  0  0  0  0
    3.6311  -19.0793   21.3182 C   0  0  0  0  0  0  0  0  0  0  0  0
    2.3666  -18.9428   20.4504 C   0  0  0  0  0  0  0  0  0  0  0  0
    1.6264  -20.1934   20.4538 N   0  0  0  0  0  0  0  0  0  0  0  0
    7.5716  -16.3891   22.7684 C   0  0  0  0  0  0  0  0  0  0  0  0
    8.5068  -15.6074   22.4494 O   0  0  0  0  0  0  0  0  0  0  0  0
   10.9775  -14.1847   30.1469 O   0  0  0  0  0  0  0  0  0  0  0  0
   10.2613  -14.4744   28.9878 C   0  0  0  0  0  0  0  0  0  0  0  0
    9.7092  -15.7459   28.8913 C   0  0  0  0  0  0  0  0  0  0  0  0
    8.9891  -16.0943   27.7646 C   0  0  0  0  0  0  0  0  0  0  0  0
    8.8063  -15.1897   26.7231 C   0  0  0  0  0  0  0  0  0  0  0  0
    8.0291  -15.5971   25.5445 C   0  0  0  0  0  0  0  0  0  0  0  0
    8.5736  -16.8611   24.9669 C   0  0  2  0  0  0  0  0  0  0  0  0
    7.8023  -17.2864   23.8137 N   0  0  0  0  0  0  0  0  0  0  0  0
    8.6557  -17.9886   25.9449 C   0  0  0  0  0  0  0  0  0  0  0  0
    9.8973  -18.4471   26.3696 O   0  0  0  0  0  0  0  0  0  0  0  0
    9.3724  -13.9436   26.8693 C   0  0  0  0  0  0  0  0  0  0  0  0
   10.0923  -13.5729   27.9769 C   0  0  0  0  0  0  0  0  0  0  0  0
    7.6578  -18.5744   26.4260 O   0  0  0  0  0  0  0  0  0  0  0  0
  2  3  1  0
  2  1  1  6
  4  2  1  0
  4  5  1  1
  6  7  2  0
  6  4  1  0
  8  6  1  0
  9  8  1  0
  9 10  1  6
 11 12  1  0
 11 10  1  0
 12 13  1  0
 14 13  1  0
 15 24  1  0
 15  9  1  0
 16 15  2  0
 18 17  1  0
 19 18  2  0
 20 19  1  0
 21 27  1  0
 21 20  2  0
 23 22  1  1
 22 21  1  0
 23 24  1  0
 23 25  1  0
 25 26  1  0
 27 28  2  0
 28 18  1  0
 29 25  2  0
M  END
$$$$
