TKY.pdb
     RDKit          3D

 29 29  0  0  1  0  0  0  0  0999 V2000
   13.3172  -20.0186   19.0159 C   0  0  0  0  0  0  0  0  0  0  0  0
   12.3422  -19.2758   19.9130 C   0  0  1  0  0  0  0  0  0  0  0  0
   12.9601  -18.7563   21.0382 O   0  0  0  0  0  0  0  0  0  0  0  0
   11.6945  -18.1735   19.1561 C   0  0  2  0  0  0  0  0  0  0  0  0
   12.6256  -17.1910   18.6627 N   0  0  0  0  0  0  0  0  0  0  0  0
   10.6954  -17.4915   20.0065 C   0  0  0  0  0  0  0  0  0  0  0  0
   10.8449  -16.2644   20.3250 O   0  0  0  0  0  0  0  0  0  0  0  0
    9.5372  -18.1399   20.5033 N   0  0  0  0  0  0  0  0  0  0  0  0
    8.5571  -17.5129   21.3178 C   0  0  1  0  0  0  0  0  0  0  0  0
    7.2016  -18.0934   21.3705 C   0  0  0  0  0  0  0  0  0  0  0  0
    6.5862  -18.5380   20.0932 C   0  0  0  0  0  0  0  0  0  0  0  0
    5.2127  -19.0924   20.1544 C   0  0  0  0  0  0  0  0  0  0  0  0
    4.7929  -19.3793   18.7011 C   0  0  0  0  0  0  0  0  0  0  0  0
    3.4174  -19.8466   18.6661 N   0  0  0  0  0  0  0  0  0  0  0  0
    9.1087  -17.3312   22.7175 C   0  0  0  0  0  0  0  0  0  0  0  0
    9.8761  -18.2108   23.1917 O   0  0  0  0  0  0  0  0  0  0  0  0
   10.8963  -14.6608   30.8235 O   0  0  0  0  0  0  0  0  0  0  0  0
   10.5423  -14.6861   29.4765 C   0  0  0  0  0  0  0  0  0  0  0  0
    9.1917  -14.8319   29.1841 C   0  0  0  0  0  0  0  0  0  0  0  0
    8.7778  -14.8662   27.8662 C   0  0  0  0  0  0  0  0  0  0  0  0
    9.6938  -14.7555   26.8245 C   0  0  0  0  0  0  0  0  0  0  0  0
    9.2126  -14.7907   25.4366 C   0  0  0  0  0  0  0  0  0  0  0  0
    9.3168  -16.1713   24.8789 C   0  0  2  0  0  0  0  0  0  0  0  0
    8.8084  -16.2288   23.5210 N   0  0  0  0  0  0  0  0  0  0  0  0
    8.6307  -17.2120   25.7040 C   0  0  0  0  0  0  0  0  0  0  0  0
    7.2838  -17.4840   25.4945 O   0  0  0  0  0  0  0  0  0  0  0  0
   11.0188  -14.6116   27.1684 C   0  0  0  0  0  0  0  0  0  0  0  0
   11.4559  -14.5753   28.4684 C   0  0  0  0  0  0  0  0  0  0  0  0
    9.1944  -17.8790   26.6027 O   0  0  0  0  0  0  0  0  0  0  0  0
  2  3  1  0
  2  1  1  6
  4  2  1  0
  4  5  1  1
  6  7  2  0
  6  4  1  0
  8  6  1  0
  9  8  1  0
  9 10  1  1
 11 12  1  0
 11 10  1  0
 12 13  1  0
 14 13  1  0
 15 24  1  0
 15  9  1  0
 16 15  2  0
 18 17  1  0
 19 18  2  0
 20 19  1  0
 21 27  1  0
 21 20  2  0
 23 22  1  1
 22 21  1  0
 23 24  1  0
 23 25  1  0
 25 26  1  0
 27 28  2  0
 28 18  1  0
 29 25  2  0
M  END
$$$$
