TKY.pdb
     RDKit          3D

 29 29  0  0  1  0  0  0  0  0999 V2000
    4.3475  -19.3036   22.4760 C   0  0  0  0  0  0  0  0  0  0  0  0
    5.5106  -18.3267   22.4828 C   0  0  1  0  0  0  0  0  0  0  0  0
    6.5722  -18.7843   23.2453 O   0  0  0  0  0  0  0  0  0  0  0  0
    5.9751  -18.0805   21.0930 C   0  0  2  0  0  0  0  0  0  0  0  0
    6.4278  -19.2709   20.4194 N   0  0  0  0  0  0  0  0  0  0  0  0
    7.0738  -17.0910   21.0921 C   0  0  0  0  0  0  0  0  0  0  0  0
    8.2913  -17.4745   21.0816 O   0  0  0  0  0  0  0  0  0  0  0  0
    6.8488  -15.6917   21.0973 N   0  0  0  0  0  0  0  0  0  0  0  0
    7.8801  -14.7162   21.1414 C   0  0  1  0  0  0  0  0  0  0  0  0
    7.6088  -13.3720   20.5968 C   0  0  0  0  0  0  0  0  0  0  0  0
    7.2228  -13.2672   19.1657 C   0  0  0  0  0  0  0  0  0  0  0  0
    8.3037  -13.3816   18.1576 C   0  0  0  0  0  0  0  0  0  0  0  0
    7.6326  -13.2327   16.7798 C   0  0  0  0  0  0  0  0  0  0  0  0
    8.6261  -13.3680   15.7280 N   0  0  0  0  0  0  0  0  0  0  0  0
    8.4156  -14.6150   22.5555 C   0  0  0  0  0  0  0  0  0  0  0  0
    7.7596  -13.9659   23.4132 O   0  0  0  0  0  0  0  0  0  0  0  0
   10.8850  -15.2606   30.6157 O   0  0  0  0  0  0  0  0  0  0  0  0
   10.4085  -15.2606   29.3068 C   0  0  0  0  0  0  0  0  0  0  0  0
   10.4451  -16.4705   28.6244 C   0  0  0  0  0  0  0  0  0  0  0  0
    9.9882  -16.5344   27.3219 C   0  0  0  0  0  0  0  0  0  0  0  0
    9.4897  -15.4041   26.6813 C   0  0  0  0  0  0  0  0  0  0  0  0
    9.0081  -15.5151   25.2976 C   0  0  0  0  0  0  0  0  0  0  0  0
   10.0552  -15.0561   24.3380 C   0  0  2  0  0  0  0  0  0  0  0  0
    9.6120  -15.2086   22.9647 N   0  0  0  0  0  0  0  0  0  0  0  0
   11.3738  -15.7399   24.5066 C   0  0  0  0  0  0  0  0  0  0  0  0
   11.7613  -16.7270   23.6081 O   0  0  0  0  0  0  0  0  0  0  0  0
    9.4743  -14.2315   27.4019 C   0  0  0  0  0  0  0  0  0  0  0  0
    9.9225  -14.1410   28.6955 C   0  0  0  0  0  0  0  0  0  0  0  0
   12.1834  -15.4852   25.4286 O   0  0  0  0  0  0  0  0  0  0  0  0
  2  3  1  0
  2  1  1  6
  4  2  1  0
  4  5  1  1
  6  7  2  0
  6  4  1  0
  8  6  1  0
  9  8  1  0
  9 10  1  1
 11 12  1  0
 11 10  1  0
 12 13  1  0
 14 13  1  0
 15 24  1  0
 15  9  1  0
 16 15  2  0
 18 17  1  0
 19 18  2  0
 20 19  1  0
 21 27  1  0
 21 20  2  0
 23 22  1  1
 22 21  1  0
 23 24  1  0
 23 25  1  0
 25 26  1  0
 27 28  2  0
 28 18  1  0
 29 25  2  0
M  END
$$$$
