TKY.pdb
     RDKit          3D

 29 29  0  0  1  0  0  0  0  0999 V2000
   10.6152  -14.8772   19.5391 C   0  0  0  0  0  0  0  0  0  0  0  0
    9.8965  -13.5977   19.1474 C   0  0  1  0  0  0  0  0  0  0  0  0
   10.4486  -13.0130   18.0200 O   0  0  0  0  0  0  0  0  0  0  0  0
    8.4585  -13.8783   18.9001 C   0  0  2  0  0  0  0  0  0  0  0  0
    7.6950  -12.7053   18.5583 N   0  0  0  0  0  0  0  0  0  0  0  0
    7.8507  -14.5059   20.0931 C   0  0  0  0  0  0  0  0  0  0  0  0
    7.3427  -13.7856   21.0165 O   0  0  0  0  0  0  0  0  0  0  0  0
    7.7915  -15.9098   20.2777 N   0  0  0  0  0  0  0  0  0  0  0  0
    7.2026  -16.5440   21.4039 C   0  0  1  0  0  0  0  0  0  0  0  0
    6.8534  -17.9745   21.3102 C   0  0  0  0  0  0  0  0  0  0  0  0
    6.3183  -18.6401   22.5261 C   0  0  0  0  0  0  0  0  0  0  0  0
    5.9759  -20.0786   22.4217 C   0  0  0  0  0  0  0  0  0  0  0  0
    5.3844  -20.4863   23.7835 C   0  0  0  0  0  0  0  0  0  0  0  0
    4.9908  -21.8848   23.7537 N   0  0  0  0  0  0  0  0  0  0  0  0
    8.0577  -16.2881   22.6286 C   0  0  0  0  0  0  0  0  0  0  0  0
    9.3011  -16.4781   22.5572 O   0  0  0  0  0  0  0  0  0  0  0  0
   11.0248  -14.6667   30.6555 O   0  0  0  0  0  0  0  0  0  0  0  0
   10.2264  -14.6699   29.5141 C   0  0  0  0  0  0  0  0  0  0  0  0
    9.5214  -15.8363   29.2433 C   0  0  0  0  0  0  0  0  0  0  0  0
    8.7134  -15.9020   28.1242 C   0  0  0  0  0  0  0  0  0  0  0  0
    8.5932  -14.8159   27.2626 C   0  0  0  0  0  0  0  0  0  0  0  0
    7.7192  -14.9241   26.0864 C   0  0  0  0  0  0  0  0  0  0  0  0
    8.4303  -15.6035   24.9636 C   0  0  2  0  0  0  0  0  0  0  0  0
    7.5360  -15.8486   23.8475 N   0  0  0  0  0  0  0  0  0  0  0  0
    9.0920  -16.8862   25.3528 C   0  0  0  0  0  0  0  0  0  0  0  0
    8.3292  -18.0367   25.5156 O   0  0  0  0  0  0  0  0  0  0  0  0
    9.3114  -13.6846   27.5771 C   0  0  0  0  0  0  0  0  0  0  0  0
   10.1209  -13.5936   28.6811 C   0  0  0  0  0  0  0  0  0  0  0  0
   10.3230  -17.0081   25.5533 O   0  0  0  0  0  0  0  0  0  0  0  0
  2  3  1  0
  2  1  1  6
  4  2  1  0
  4  5  1  1
  6  7  2  0
  6  4  1  0
  8  6  1  0
  9  8  1  0
  9 10  1  6
 11 12  1  0
 11 10  1  0
 12 13  1  0
 14 13  1  0
 15 24  1  0
 15  9  1  0
 16 15  2  0
 18 17  1  0
 19 18  2  0
 20 19  1  0
 21 27  1  0
 21 20  2  0
 23 22  1  1
 22 21  1  0
 23 24  1  0
 23 25  1  0
 25 26  1  0
 27 28  2  0
 28 18  1  0
 29 25  2  0
M  END
$$$$
