TKY.pdb
     RDKit          3D

 29 29  0  0  1  0  0  0  0  0999 V2000
    9.2503  -13.4872   18.7385 C   0  0  0  0  0  0  0  0  0  0  0  0
    8.9056  -14.2515   20.0050 C   0  0  1  0  0  0  0  0  0  0  0  0
    9.3873  -13.6234   21.1413 O   0  0  0  0  0  0  0  0  0  0  0  0
    7.4324  -14.4082   20.1184 C   0  0  2  0  0  0  0  0  0  0  0  0
    6.7182  -13.1572   20.0942 N   0  0  0  0  0  0  0  0  0  0  0  0
    7.0918  -15.1218   21.3678 C   0  0  0  0  0  0  0  0  0  0  0  0
    6.5552  -14.4990   22.3443 O   0  0  0  0  0  0  0  0  0  0  0  0
    7.3293  -16.5069   21.5518 N   0  0  0  0  0  0  0  0  0  0  0  0
    7.0463  -17.2145   22.7503 C   0  0  1  0  0  0  0  0  0  0  0  0
    6.9283  -18.6842   22.6954 C   0  0  0  0  0  0  0  0  0  0  0  0
    6.6120  -19.4033   23.9566 C   0  0  0  0  0  0  0  0  0  0  0  0
    6.4556  -20.8756   23.8815 C   0  0  0  0  0  0  0  0  0  0  0  0
    6.0641  -21.3453   25.2946 C   0  0  0  0  0  0  0  0  0  0  0  0
    6.0317  -22.7973   25.3424 N   0  0  0  0  0  0  0  0  0  0  0  0
    8.0363  -16.8037   23.8217 C   0  0  0  0  0  0  0  0  0  0  0  0
    9.2600  -16.7349   23.5300 O   0  0  0  0  0  0  0  0  0  0  0  0
    6.3394  -10.2898   25.1461 O   0  0  0  0  0  0  0  0  0  0  0  0
    6.8141  -11.5208   25.5928 C   0  0  0  0  0  0  0  0  0  0  0  0
    6.3342  -11.9734   26.8158 C   0  0  0  0  0  0  0  0  0  0  0  0
    6.7691  -13.1867   27.3138 C   0  0  0  0  0  0  0  0  0  0  0  0
    7.6814  -13.9652   26.6080 C   0  0  0  0  0  0  0  0  0  0  0  0
    8.1147  -15.2522   27.1692 C   0  0  0  0  0  0  0  0  0  0  0  0
    8.6779  -16.1289   26.1005 C   0  0  2  0  0  0  0  0  0  0  0  0
    7.6617  -16.4942   25.1312 N   0  0  0  0  0  0  0  0  0  0  0  0
    9.3322  -17.3699   26.6165 C   0  0  0  0  0  0  0  0  0  0  0  0
   10.3841  -17.2732   27.5199 O   0  0  0  0  0  0  0  0  0  0  0  0
    8.1244  -13.4719   25.4017 C   0  0  0  0  0  0  0  0  0  0  0  0
    7.7090  -12.2705   24.8854 C   0  0  0  0  0  0  0  0  0  0  0  0
    8.9961  -18.5305   26.2843 O   0  0  0  0  0  0  0  0  0  0  0  0
  2  3  1  0
  2  1  1  6
  4  2  1  0
  4  5  1  1
  6  7  2  0
  6  4  1  0
  8  6  1  0
  9  8  1  0
  9 10  1  6
 11 12  1  0
 11 10  1  0
 12 13  1  0
 14 13  1  0
 15 24  1  0
 15  9  1  0
 16 15  2  0
 18 17  1  0
 19 18  2  0
 20 19  1  0
 21 27  1  0
 21 20  2  0
 23 22  1  1
 22 21  1  0
 23 24  1  0
 23 25  1  0
 25 26  1  0
 27 28  2  0
 28 18  1  0
 29 25  2  0
M  END
$$$$
