TKY.pdb
     RDKit          3D

 29 29  0  0  1  0  0  0  0  0999 V2000
    6.8628  -12.3006   24.7221 C   0  0  0  0  0  0  0  0  0  0  0  0
    6.4153  -13.4743   25.5762 C   0  0  1  0  0  0  0  0  0  0  0  0
    5.3600  -13.1415   26.4090 O   0  0  0  0  0  0  0  0  0  0  0  0
    6.0148  -14.6110   24.7073 C   0  0  2  0  0  0  0  0  0  0  0  0
    5.4730  -15.7288   25.4372 N   0  0  0  0  0  0  0  0  0  0  0  0
    7.1737  -15.0801   23.9178 C   0  0  0  0  0  0  0  0  0  0  0  0
    7.7861  -16.1527   24.2402 O   0  0  0  0  0  0  0  0  0  0  0  0
    7.6603  -14.3885   22.7804 N   0  0  0  0  0  0  0  0  0  0  0  0
    8.7841  -14.7990   22.0151 C   0  0  1  0  0  0  0  0  0  0  0  0
    9.0586  -14.1169   20.7360 C   0  0  0  0  0  0  0  0  0  0  0  0
    8.0701  -14.2753   19.6380 C   0  0  0  0  0  0  0  0  0  0  0  0
    8.3852  -13.6348   18.3388 C   0  0  0  0  0  0  0  0  0  0  0  0
    7.2038  -13.9454   17.4014 C   0  0  0  0  0  0  0  0  0  0  0  0
    7.4895  -13.4524   16.0646 N   0  0  0  0  0  0  0  0  0  0  0  0
   10.0192  -14.7923   22.8932 C   0  0  0  0  0  0  0  0  0  0  0  0
   10.5365  -13.6889   23.2131 O   0  0  0  0  0  0  0  0  0  0  0  0
   11.3186  -16.2517   31.0836 O   0  0  0  0  0  0  0  0  0  0  0  0
   10.9735  -16.0403   29.7507 C   0  0  0  0  0  0  0  0  0  0  0  0
   10.5727  -17.1529   29.0211 C   0  0  0  0  0  0  0  0  0  0  0  0
   10.2196  -17.0081   27.6930 C   0  0  0  0  0  0  0  0  0  0  0  0
   10.2578  -15.7628   27.0733 C   0  0  0  0  0  0  0  0  0  0  0  0
    9.8689  -15.6499   25.6608 C   0  0  0  0  0  0  0  0  0  0  0  0
   10.9997  -16.0465   24.7709 C   0  0  2  0  0  0  0  0  0  0  0  0
   10.6235  -15.9569   23.3723 N   0  0  0  0  0  0  0  0  0  0  0  0
   11.5383  -17.4133   25.0474 C   0  0  0  0  0  0  0  0  0  0  0  0
   12.5930  -17.5742   25.9382 O   0  0  0  0  0  0  0  0  0  0  0  0
   10.6604  -14.6934   27.8407 C   0  0  0  0  0  0  0  0  0  0  0  0
   11.0167  -14.8102   29.1605 C   0  0  0  0  0  0  0  0  0  0  0  0
   11.0993  -18.4608   24.5180 O   0  0  0  0  0  0  0  0  0  0  0  0
  2  3  1  0
  2  1  1  6
  4  2  1  0
  4  5  1  1
  6  7  2  0
  6  4  1  0
  8  6  1  0
  9  8  1  0
  9 10  1  6
 11 12  1  0
 11 10  1  0
 12 13  1  0
 14 13  1  0
 15 24  1  0
 15  9  1  0
 16 15  2  0
 18 17  1  0
 19 18  2  0
 20 19  1  0
 21 27  1  0
 21 20  2  0
 23 22  1  1
 22 21  1  0
 23 24  1  0
 23 25  1  0
 25 26  1  0
 27 28  2  0
 28 18  1  0
 29 25  2  0
M  END
$$$$
