SLA.pdb
     RDKit          3D

 20 19  0  0  1  0  0  0  0  0999 V2000
    6.4849  -17.1776   21.9592 O   0  0  0  0  0  0  0  0  0  0  0  0
    7.2323  -16.5239   20.9646 C   0  0  0  0  0  0  0  0  0  0  0  0
    7.3633  -15.0595   21.2526 C   0  0  2  0  0  0  0  0  0  0  0  0
    8.0947  -14.3828   20.2067 N   0  0  0  0  0  0  0  0  0  0  0  0
    8.0675  -14.9201   22.5724 C   0  0  0  0  0  0  0  0  0  0  0  0
    9.3188  -14.9809   22.6535 O   0  0  0  0  0  0  0  0  0  0  0  0
    8.0181  -11.6827   25.7554 C   0  0  0  0  0  0  0  0  0  0  0  0
    6.7589  -12.5434   25.7300 C   0  0  2  0  0  0  0  0  0  0  0  0
    5.7727  -12.0321   26.7401 C   0  0  0  0  0  0  0  0  0  0  0  0
    7.0920  -13.9689   26.0516 C   0  0  0  0  0  0  0  0  0  0  0  0
    8.0341  -14.5985   25.0763 C   0  0  2  0  0  0  0  0  0  0  0  0
    7.3552  -14.7151   23.7767 N   0  0  0  0  0  0  0  0  0  0  0  0
    8.5356  -15.9153   25.5082 C   0  0  0  0  0  0  0  0  0  0  0  0
    7.7903  -16.8824   25.7802 O   0  0  0  0  0  0  0  0  0  0  0  0
   11.9212  -17.5275   25.3303 C   0  0  0  0  0  0  0  0  0  0  0  0
   10.5010  -17.4483   25.8796 C   0  0  2  0  0  0  0  0  0  0  0  0
    9.9444  -16.1289   25.6324 N   0  0  0  0  0  0  0  0  0  0  0  0
   10.5427  -17.7592   27.3263 C   0  0  0  0  0  0  0  0  0  0  0  0
   10.0938  -16.8312   28.2482 O   0  0  0  0  0  0  0  0  0  0  0  0
   10.9786  -18.8558   27.7643 O   0  0  0  0  0  0  0  0  0  0  0  0
  2  1  1  0
  3  2  1  0
  3  4  1  6
  5  3  1  0
  5  6  2  0
  8  7  1  1
  8 10  1  0
  9  8  1  0
 11 10  1  1
 11 13  1  0
 11 12  1  0
 12  5  1  0
 13 17  1  0
 14 13  2  0
 16 15  1  1
 16 18  1  0
 17 16  1  0
 18 20  2  0
 18 19  1  0
M  END
$$$$
