SLA.pdb
     RDKit          3D

 20 19  0  0  1  0  0  0  0  0999 V2000
    7.8924  -17.8896   22.4936 O   0  0  0  0  0  0  0  0  0  0  0  0
    6.9503  -17.0124   21.9295 C   0  0  0  0  0  0  0  0  0  0  0  0
    7.5285  -15.6452   21.7270 C   0  0  2  0  0  0  0  0  0  0  0  0
    8.5650  -15.6581   20.7208 N   0  0  0  0  0  0  0  0  0  0  0  0
    8.0739  -15.1852   23.0491 C   0  0  0  0  0  0  0  0  0  0  0  0
    9.3081  -15.0464   23.2328 O   0  0  0  0  0  0  0  0  0  0  0  0
    8.0604  -11.5186   25.7965 C   0  0  0  0  0  0  0  0  0  0  0  0
    6.7066  -12.1897   25.5865 C   0  0  2  0  0  0  0  0  0  0  0  0
    5.6391  -11.4179   26.3069 C   0  0  0  0  0  0  0  0  0  0  0  0
    6.7310  -13.5939   26.1102 C   0  0  0  0  0  0  0  0  0  0  0  0
    7.7506  -14.4629   25.4466 C   0  0  2  0  0  0  0  0  0  0  0  0
    7.2249  -14.8895   24.1408 N   0  0  0  0  0  0  0  0  0  0  0  0
    8.1345  -15.6380   26.2489 C   0  0  0  0  0  0  0  0  0  0  0  0
    8.5722  -15.5622   27.4183 O   0  0  0  0  0  0  0  0  0  0  0  0
    7.6717  -19.3598   25.8357 C   0  0  0  0  0  0  0  0  0  0  0  0
    8.3589  -18.1407   26.4411 C   0  0  2  0  0  0  0  0  0  0  0  0
    8.0115  -16.9477   25.6875 N   0  0  0  0  0  0  0  0  0  0  0  0
    9.8198  -18.3800   26.4386 C   0  0  0  0  0  0  0  0  0  0  0  0
   10.3567  -19.3997   27.2031 O   0  0  0  0  0  0  0  0  0  0  0  0
   10.6128  -17.6804   25.7557 O   0  0  0  0  0  0  0  0  0  0  0  0
  2  1  1  0
  3  2  1  0
  3  4  1  6
  5  3  1  0
  5  6  2  0
  8  7  1  1
  8 10  1  0
  9  8  1  0
 11 10  1  1
 11 13  1  0
 11 12  1  0
 12  5  1  0
 13 17  1  0
 14 13  2  0
 16 15  1  6
 16 18  1  0
 17 16  1  0
 18 20  2  0
 18 19  1  0
M  END
$$$$
