SLA.pdb
     RDKit          3D

 20 19  0  0  1  0  0  0  0  0999 V2000
    8.0373  -17.3779   22.2437 O   0  0  0  0  0  0  0  0  0  0  0  0
    6.9284  -16.5235   22.1185 C   0  0  0  0  0  0  0  0  0  0  0  0
    7.3536  -15.1058   21.8865 C   0  0  2  0  0  0  0  0  0  0  0  0
    8.1736  -14.9914   20.7028 N   0  0  0  0  0  0  0  0  0  0  0  0
    8.1091  -14.6559   23.1047 C   0  0  0  0  0  0  0  0  0  0  0  0
    9.3424  -14.4252   23.0588 O   0  0  0  0  0  0  0  0  0  0  0  0
    7.4949  -11.1206   25.2944 C   0  0  0  0  0  0  0  0  0  0  0  0
    6.5303  -12.2100   25.7528 C   0  0  2  0  0  0  0  0  0  0  0  0
    5.5177  -11.6286   26.6966 C   0  0  0  0  0  0  0  0  0  0  0  0
    7.2738  -13.3083   26.4509 C   0  0  0  0  0  0  0  0  0  0  0  0
    8.2042  -14.0639   25.5572 C   0  0  2  0  0  0  0  0  0  0  0  0
    7.4676  -14.4731   24.3516 N   0  0  0  0  0  0  0  0  0  0  0  0
    8.8164  -15.2388   26.2027 C   0  0  0  0  0  0  0  0  0  0  0  0
    9.3946  -15.1944   27.3111 O   0  0  0  0  0  0  0  0  0  0  0  0
    9.0247  -18.9239   25.2970 C   0  0  0  0  0  0  0  0  0  0  0  0
    9.3710  -17.6960   26.1321 C   0  0  2  0  0  0  0  0  0  0  0  0
    8.7626  -16.5110   25.5514 N   0  0  0  0  0  0  0  0  0  0  0  0
   10.8451  -17.5759   26.1951 C   0  0  0  0  0  0  0  0  0  0  0  0
   11.5994  -18.5852   26.7652 O   0  0  0  0  0  0  0  0  0  0  0  0
   11.4562  -16.5728   25.7425 O   0  0  0  0  0  0  0  0  0  0  0  0
  2  1  1  0
  3  2  1  0
  3  4  1  6
  5  3  1  0
  5  6  2  0
  8  7  1  1
  8 10  1  0
  9  8  1  0
 11 10  1  1
 11 13  1  0
 11 12  1  0
 12  5  1  0
 13 17  1  0
 14 13  2  0
 16 15  1  6
 16 18  1  0
 17 16  1  0
 18 20  2  0
 18 19  1  0
M  END
$$$$
