SLA.pdb
     RDKit          3D

 20 19  0  0  1  0  0  0  0  0999 V2000
    8.7993  -18.1657   22.4967 O   0  0  0  0  0  0  0  0  0  0  0  0
    7.6425  -17.6512   21.8866 C   0  0  0  0  0  0  0  0  0  0  0  0
    7.8530  -16.2457   21.4125 C   0  0  2  0  0  0  0  0  0  0  0  0
    8.8105  -16.1947   20.3320 N   0  0  0  0  0  0  0  0  0  0  0  0
    8.3303  -15.4397   22.5871 C   0  0  0  0  0  0  0  0  0  0  0  0
    9.5287  -15.0792   22.6869 O   0  0  0  0  0  0  0  0  0  0  0  0
    5.7797  -12.0544   27.1024 C   0  0  0  0  0  0  0  0  0  0  0  0
    7.0546  -12.6113   26.4764 C   0  0  2  0  0  0  0  0  0  0  0  0
    7.9292  -11.4822   26.0134 C   0  0  0  0  0  0  0  0  0  0  0  0
    6.7244  -13.4850   25.3042 C   0  0  0  0  0  0  0  0  0  0  0  0
    7.9025  -14.2276   24.7601 C   0  0  2  0  0  0  0  0  0  0  0  0
    7.4546  -15.0530   23.6280 N   0  0  0  0  0  0  0  0  0  0  0  0
    8.5844  -15.0657   25.7624 C   0  0  0  0  0  0  0  0  0  0  0  0
    9.0438  -14.6202   26.8372 O   0  0  0  0  0  0  0  0  0  0  0  0
    8.9650  -18.7697   26.2965 C   0  0  0  0  0  0  0  0  0  0  0  0
    9.4427  -17.3307   26.4578 C   0  0  2  0  0  0  0  0  0  0  0  0
    8.7447  -16.4663   25.5212 N   0  0  0  0  0  0  0  0  0  0  0  0
   10.9067  -17.2985   26.2409 C   0  0  0  0  0  0  0  0  0  0  0  0
   11.4376  -16.5570   25.2011 O   0  0  0  0  0  0  0  0  0  0  0  0
   11.7079  -17.9306   26.9778 O   0  0  0  0  0  0  0  0  0  0  0  0
  2  1  1  0
  3  2  1  0
  3  4  1  6
  5  3  1  0
  5  6  2  0
  8  7  1  6
  8 10  1  0
  9  8  1  0
 11 10  1  1
 11 13  1  0
 11 12  1  0
 12  5  1  0
 13 17  1  0
 14 13  2  0
 16 15  1  6
 16 18  1  0
 17 16  1  0
 18 20  2  0
 18 19  1  0
M  END
$$$$
