SLA.pdb
     RDKit          3D

 20 19  0  0  1  0  0  0  0  0999 V2000
    8.0654  -18.7512   20.9912 O   0  0  0  0  0  0  0  0  0  0  0  0
    8.1207  -17.8953   22.1047 C   0  0  0  0  0  0  0  0  0  0  0  0
    8.3109  -16.4686   21.6890 C   0  0  2  0  0  0  0  0  0  0  0  0
    9.3594  -16.3451   20.7030 N   0  0  0  0  0  0  0  0  0  0  0  0
    8.6433  -15.6792   22.9233 C   0  0  0  0  0  0  0  0  0  0  0  0
    9.8318  -15.5203   23.2953 O   0  0  0  0  0  0  0  0  0  0  0  0
    5.6604  -12.0510   26.9952 C   0  0  0  0  0  0  0  0  0  0  0  0
    6.9736  -12.6964   26.5637 C   0  0  2  0  0  0  0  0  0  0  0  0
    8.0069  -11.6343   26.3216 C   0  0  0  0  0  0  0  0  0  0  0  0
    6.7806  -13.4855   25.3041 C   0  0  0  0  0  0  0  0  0  0  0  0
    7.9481  -14.3517   24.9553 C   0  0  2  0  0  0  0  0  0  0  0  0
    7.6367  -15.0826   23.7174 N   0  0  0  0  0  0  0  0  0  0  0  0
    8.3206  -15.2961   26.0236 C   0  0  0  0  0  0  0  0  0  0  0  0
    8.7896  -14.9398   27.1272 O   0  0  0  0  0  0  0  0  0  0  0  0
    7.7257  -18.9743   26.5965 C   0  0  0  0  0  0  0  0  0  0  0  0
    8.4821  -17.6736   26.8434 C   0  0  2  0  0  0  0  0  0  0  0  0
    8.1485  -16.7008   25.8168 N   0  0  0  0  0  0  0  0  0  0  0  0
    9.9318  -17.9732   26.8589 C   0  0  0  0  0  0  0  0  0  0  0  0
   10.7699  -17.3926   25.9245 O   0  0  0  0  0  0  0  0  0  0  0  0
   10.4469  -18.7507   27.7042 O   0  0  0  0  0  0  0  0  0  0  0  0
  2  1  1  0
  3  2  1  0
  3  4  1  6
  5  3  1  0
  5  6  2  0
  8  7  1  6
  8 10  1  0
  9  8  1  0
 11 10  1  1
 11 13  1  0
 11 12  1  0
 12  5  1  0
 13 17  1  0
 14 13  2  0
 16 15  1  6
 16 18  1  0
 17 16  1  0
 18 20  2  0
 18 19  1  0
M  END
$$$$
