SLA.pdb
     RDKit          3D

 20 19  0  0  1  0  0  0  0  0999 V2000
    9.7436  -19.4508   19.7948 O   0  0  0  0  0  0  0  0  0  0  0  0
    8.9091  -18.8954   18.8096 C   0  0  0  0  0  0  0  0  0  0  0  0
    9.6019  -17.7982   18.0609 C   0  0  2  0  0  0  0  0  0  0  0  0
   10.7325  -18.3037   17.3172 N   0  0  0  0  0  0  0  0  0  0  0  0
   10.0405  -16.7721   19.0669 C   0  0  0  0  0  0  0  0  0  0  0  0
   11.2533  -16.4867   19.2208 O   0  0  0  0  0  0  0  0  0  0  0  0
    8.8284  -12.5375   19.1473 C   0  0  0  0  0  0  0  0  0  0  0  0
    7.8176  -13.5055   19.7543 C   0  0  2  0  0  0  0  0  0  0  0  0
    6.5395  -12.7800   20.0614 C   0  0  0  0  0  0  0  0  0  0  0  0
    8.3569  -14.1010   21.0196 C   0  0  0  0  0  0  0  0  0  0  0  0
    9.5202  -15.0147   20.8033 C   0  0  2  0  0  0  0  0  0  0  0  0
    9.1107  -16.0853   19.8816 N   0  0  0  0  0  0  0  0  0  0  0  0
   10.0546  -15.5927   22.0491 C   0  0  0  0  0  0  0  0  0  0  0  0
   10.5081  -14.9047   22.9903 O   0  0  0  0  0  0  0  0  0  0  0  0
   10.1527  -19.1129   23.4600 C   0  0  0  0  0  0  0  0  0  0  0  0
   10.5142  -17.6315   23.4572 C   0  0  2  0  0  0  0  0  0  0  0  0
   10.0689  -17.0127   22.2201 N   0  0  0  0  0  0  0  0  0  0  0  0
   11.9793  -17.5090   23.6305 C   0  0  0  0  0  0  0  0  0  0  0  0
   12.7416  -16.8792   22.6637 O   0  0  0  0  0  0  0  0  0  0  0  0
   12.5752  -17.9631   24.6420 O   0  0  0  0  0  0  0  0  0  0  0  0
  2  1  1  0
  3  2  1  0
  3  4  1  1
  5  3  1  0
  5  6  2  0
  8  7  1  1
  8 10  1  0
  9  8  1  0
 11 10  1  1
 11 13  1  0
 11 12  1  0
 12  5  1  0
 13 17  1  0
 14 13  2  0
 16 15  1  6
 16 18  1  0
 17 16  1  0
 18 20  2  0
 18 19  1  0
M  END
$$$$
