SLA.pdb
     RDKit          3D

 20 19  0  0  1  0  0  0  0  0999 V2000
    6.3615  -17.4200   20.7779 O   0  0  0  0  0  0  0  0  0  0  0  0
    6.6615  -16.8341   22.0197 C   0  0  0  0  0  0  0  0  0  0  0  0
    7.0776  -15.4034   21.8632 C   0  0  2  0  0  0  0  0  0  0  0  0
    7.8876  -15.2192   20.6813 N   0  0  0  0  0  0  0  0  0  0  0  0
    7.8406  -15.0174   23.0985 C   0  0  0  0  0  0  0  0  0  0  0  0
    9.0886  -14.8818   23.0784 O   0  0  0  0  0  0  0  0  0  0  0  0
    7.8389  -11.3817   25.5722 C   0  0  0  0  0  0  0  0  0  0  0  0
    6.6031  -12.2444   25.8085 C   0  0  2  0  0  0  0  0  0  0  0  0
    5.6672  -11.5449   26.7513 C   0  0  0  0  0  0  0  0  0  0  0  0
    6.9920  -13.5664   26.3982 C   0  0  0  0  0  0  0  0  0  0  0  0
    7.9207  -14.3576   25.5342 C   0  0  2  0  0  0  0  0  0  0  0  0
    7.1899  -14.7906   24.3334 N   0  0  0  0  0  0  0  0  0  0  0  0
    8.5120  -15.5219   26.2173 C   0  0  0  0  0  0  0  0  0  0  0  0
    9.1513  -15.4418   27.2895 O   0  0  0  0  0  0  0  0  0  0  0  0
    8.5195  -19.2589   25.5464 C   0  0  0  0  0  0  0  0  0  0  0  0
    9.0446  -17.9850   26.1995 C   0  0  2  0  0  0  0  0  0  0  0  0
    8.3639  -16.8256   25.6480 N   0  0  0  0  0  0  0  0  0  0  0  0
   10.5063  -17.9152   25.9763 C   0  0  0  0  0  0  0  0  0  0  0  0
   11.3483  -18.8093   26.6122 O   0  0  0  0  0  0  0  0  0  0  0  0
   11.0286  -17.0586   25.2161 O   0  0  0  0  0  0  0  0  0  0  0  0
  2  1  1  0
  3  2  1  0
  3  4  1  6
  5  3  1  0
  5  6  2  0
  8  7  1  1
  8 10  1  0
  9  8  1  0
 11 10  1  1
 11 13  1  0
 11 12  1  0
 12  5  1  0
 13 17  1  0
 14 13  2  0
 16 15  1  6
 16 18  1  0
 17 16  1  0
 18 20  2  0
 18 19  1  0
M  END
$$$$
