SLA.pdb
     RDKit          3D

 20 19  0  0  1  0  0  0  0  0999 V2000
    7.2521  -17.0402   21.0087 O   0  0  0  0  0  0  0  0  0  0  0  0
    6.3438  -15.9753   21.1361 C   0  0  0  0  0  0  0  0  0  0  0  0
    7.0507  -14.6550   21.1754 C   0  0  2  0  0  0  0  0  0  0  0  0
    7.9120  -14.4871   20.0278 N   0  0  0  0  0  0  0  0  0  0  0  0
    7.8443  -14.6054   22.4501 C   0  0  0  0  0  0  0  0  0  0  0  0
    9.0956  -14.7074   22.4436 O   0  0  0  0  0  0  0  0  0  0  0  0
    8.0185  -11.4304   25.6400 C   0  0  0  0  0  0  0  0  0  0  0  0
    6.7709  -12.3069   25.6900 C   0  0  2  0  0  0  0  0  0  0  0  0
    5.8337  -11.7981   26.7469 C   0  0  0  0  0  0  0  0  0  0  0  0
    7.1392  -13.7250   26.0062 C   0  0  0  0  0  0  0  0  0  0  0  0
    7.9896  -14.3705   24.9597 C   0  0  2  0  0  0  0  0  0  0  0  0
    7.2198  -14.4424   23.7084 N   0  0  0  0  0  0  0  0  0  0  0  0
    8.4727  -15.7105   25.3376 C   0  0  0  0  0  0  0  0  0  0  0  0
    7.7139  -16.6771   25.5717 O   0  0  0  0  0  0  0  0  0  0  0  0
   11.8406  -17.3763   25.1906 C   0  0  0  0  0  0  0  0  0  0  0  0
   10.4123  -17.2745   25.7147 C   0  0  2  0  0  0  0  0  0  0  0  0
    9.8784  -15.9490   25.4509 N   0  0  0  0  0  0  0  0  0  0  0  0
   10.4248  -17.5779   27.1636 C   0  0  0  0  0  0  0  0  0  0  0  0
   10.8977  -18.7976   27.6126 O   0  0  0  0  0  0  0  0  0  0  0  0
   10.0147  -16.7562   28.0244 O   0  0  0  0  0  0  0  0  0  0  0  0
  2  1  1  0
  3  2  1  0
  3  4  1  6
  5  3  1  0
  5  6  2  0
  8  7  1  1
  8 10  1  0
  9  8  1  0
 11 10  1  1
 11 13  1  0
 11 12  1  0
 12  5  1  0
 13 17  1  0
 14 13  2  0
 16 15  1  1
 16 18  1  0
 17 16  1  0
 18 20  2  0
 18 19  1  0
M  END
$$$$
