SLA.pdb
     RDKit          3D

 20 19  0  0  1  0  0  0  0  0999 V2000
    7.2096  -17.1278   21.0687 O   0  0  0  0  0  0  0  0  0  0  0  0
    6.2442  -16.1152   21.2027 C   0  0  0  0  0  0  0  0  0  0  0  0
    6.8787  -14.7597   21.2689 C   0  0  2  0  0  0  0  0  0  0  0  0
    7.6584  -14.4873   20.0837 N   0  0  0  0  0  0  0  0  0  0  0  0
    7.7441  -14.7258   22.4966 C   0  0  0  0  0  0  0  0  0  0  0  0
    8.9912  -14.8480   22.4188 O   0  0  0  0  0  0  0  0  0  0  0  0
    7.9824  -11.5300   25.7253 C   0  0  0  0  0  0  0  0  0  0  0  0
    6.7799  -12.4637   25.8236 C   0  0  2  0  0  0  0  0  0  0  0  0
    5.8763  -12.0140   26.9352 C   0  0  0  0  0  0  0  0  0  0  0  0
    7.2276  -13.8678   26.0966 C   0  0  0  0  0  0  0  0  0  0  0  0
    8.0378  -14.4637   24.9904 C   0  0  2  0  0  0  0  0  0  0  0  0
    7.1949  -14.5555   23.7885 N   0  0  0  0  0  0  0  0  0  0  0  0
    8.6008  -15.7854   25.3191 C   0  0  0  0  0  0  0  0  0  0  0  0
    7.9010  -16.8003   25.5313 O   0  0  0  0  0  0  0  0  0  0  0  0
   12.0185  -17.3139   25.1067 C   0  0  0  0  0  0  0  0  0  0  0  0
   10.6264  -17.2291   25.7231 C   0  0  2  0  0  0  0  0  0  0  0  0
   10.0192  -15.9473   25.4073 N   0  0  0  0  0  0  0  0  0  0  0  0
   10.7512  -17.4270   27.1849 C   0  0  0  0  0  0  0  0  0  0  0  0
   11.3437  -18.5738   27.6813 O   0  0  0  0  0  0  0  0  0  0  0  0
   10.3323  -16.5782   28.0147 O   0  0  0  0  0  0  0  0  0  0  0  0
  2  1  1  0
  3  2  1  0
  3  4  1  6
  5  3  1  0
  5  6  2  0
  8  7  1  1
  8 10  1  0
  9  8  1  0
 11 10  1  1
 11 13  1  0
 11 12  1  0
 12  5  1  0
 13 17  1  0
 14 13  2  0
 16 15  1  6
 16 18  1  0
 17 16  1  0
 18 20  2  0
 18 19  1  0
M  END
$$$$
