SSR.pdb
     RDKit          3D

 24 23  0  0  1  0  0  0  0  0999 V2000
   23.8044  -13.1388  -20.9345 O   0  0  0  0  0  0  0  0  0  0  0  0
   24.9944  -12.6650  -20.3781 C   0  0  0  0  0  0  0  0  0  0  0  0
   25.2211  -13.4161  -19.0843 C   0  0  2  0  0  0  0  0  0  0  0  0
   24.6100  -14.7085  -19.1509 N   0  0  0  0  0  0  0  0  0  0  0  0
   24.7940  -12.6374  -17.9050 C   0  0  0  0  0  0  0  0  0  0  0  0
   23.6079  -12.7661  -17.5058 O   0  0  0  0  0  0  0  0  0  0  0  0
   26.1639   -9.5583  -14.3870 O   0  0  0  0  0  0  0  0  0  0  0  0
   26.5294  -10.2938  -15.5054 C   0  0  0  0  0  0  0  0  0  0  0  0
   25.2869  -10.9485  -16.1058 C   0  0  2  0  0  0  0  0  0  0  0  0
   25.6729  -11.7602  -17.2193 N   0  0  0  0  0  0  0  0  0  0  0  0
   24.2473   -9.9662  -16.4194 C   0  0  0  0  0  0  0  0  0  0  0  0
   24.3869   -9.3156  -17.5064 O   0  0  0  0  0  0  0  0  0  0  0  0
   15.8066  -10.6264  -16.6939 N   0  0  0  0  0  0  0  0  0  0  0  0
   16.7724  -10.6389  -17.7640 C   0  0  0  0  0  0  0  0  0  0  0  0
   16.4839  -11.2866  -18.8378 N   0  0  0  0  0  0  0  0  0  0  0  0
   17.9981   -9.9398  -17.5935 N   0  0  0  0  0  0  0  0  0  0  0  0
   18.2782   -9.2126  -16.4016 C   0  0  0  0  0  0  0  0  0  0  0  0
   19.6114   -8.4989  -16.4366 C   0  0  0  0  0  0  0  0  0  0  0  0
   20.7487   -9.4060  -16.0522 C   0  0  0  0  0  0  0  0  0  0  0  0
   22.0705   -8.7389  -15.9712 C   0  0  2  0  0  0  0  0  0  0  0  0
   23.1141   -9.6804  -15.6287 N   0  0  0  0  0  0  0  0  0  0  0  0
   22.0968   -7.5320  -15.1192 C   0  0  0  0  0  0  0  0  0  0  0  0
   22.6172   -7.5060  -13.9670 O   0  0  0  0  0  0  0  0  0  0  0  0
   21.5381   -6.3363  -15.5506 O   0  0  0  0  0  0  0  0  0  0  0  0
  2  3  1  0
  2  1  1  0
  3  4  1  6
  5  3  1  0
  6  5  2  0
  8  7  1  0
  9  8  1  6
  9 11  1  0
  9 10  1  0
 10  5  1  0
 11 21  1  0
 12 11  2  0
 14 15  2  0
 14 13  1  0
 16 14  1  0
 17 16  1  0
 18 17  1  0
 19 18  1  0
 20 19  1  1
 20 22  1  0
 21 20  1  0
 22 23  2  0
 22 24  1  0
M  END
$$$$
