SSR.pdb
     RDKit          3D

 24 23  0  0  1  0  0  0  0  0999 V2000
   22.0957  -14.3020  -19.4593 O   0  0  0  0  0  0  0  0  0  0  0  0
   22.5642  -14.2179  -18.1465 C   0  0  0  0  0  0  0  0  0  0  0  0
   23.6997  -15.2078  -18.0055 C   0  0  2  0  0  0  0  0  0  0  0  0
   24.0160  -15.7800  -19.2786 N   0  0  0  0  0  0  0  0  0  0  0  0
   23.4288  -16.2238  -16.9692 C   0  0  0  0  0  0  0  0  0  0  0  0
   23.1970  -15.8298  -15.7971 O   0  0  0  0  0  0  0  0  0  0  0  0
   22.6396  -20.2719  -17.8684 O   0  0  0  0  0  0  0  0  0  0  0  0
   22.2056  -19.6260  -16.7195 C   0  0  0  0  0  0  0  0  0  0  0  0
   23.2746  -18.6347  -16.2645 C   0  0  2  0  0  0  0  0  0  0  0  0
   23.4229  -17.6131  -17.2555 N   0  0  0  0  0  0  0  0  0  0  0  0
   24.5276  -19.3044  -15.9101 C   0  0  0  0  0  0  0  0  0  0  0  0
   25.3281  -19.5602  -16.8683 O   0  0  0  0  0  0  0  0  0  0  0  0
   25.8937  -21.0680   -7.8254 N   0  0  0  0  0  0  0  0  0  0  0  0
   24.9456  -21.0078   -8.9098 C   0  0  0  0  0  0  0  0  0  0  0  0
   23.6915  -21.0580   -8.6263 N   0  0  0  0  0  0  0  0  0  0  0  0
   25.4290  -20.8959  -10.2417 N   0  0  0  0  0  0  0  0  0  0  0  0
   26.6753  -20.2693  -10.5287 C   0  0  0  0  0  0  0  0  0  0  0  0
   26.9043  -20.0444  -12.0069 C   0  0  0  0  0  0  0  0  0  0  0  0
   26.0307  -20.9281  -12.8554 C   0  0  0  0  0  0  0  0  0  0  0  0
   26.0156  -20.5806  -14.2969 C   0  0  2  0  0  0  0  0  0  0  0  0
   24.9217  -19.6874  -14.6105 N   0  0  0  0  0  0  0  0  0  0  0  0
   26.0753  -21.7422  -15.2081 C   0  0  0  0  0  0  0  0  0  0  0  0
   27.1505  -22.1725  -15.7159 O   0  0  0  0  0  0  0  0  0  0  0  0
   24.9264  -22.4372  -15.5618 O   0  0  0  0  0  0  0  0  0  0  0  0
  2  3  1  0
  2  1  1  0
  3  4  1  6
  5  3  1  0
  6  5  2  0
  8  7  1  0
  9  8  1  6
  9 11  1  0
  9 10  1  0
 10  5  1  0
 11 21  1  0
 12 11  2  0
 14 15  2  0
 14 13  1  0
 16 14  1  0
 17 16  1  0
 18 17  1  0
 19 18  1  0
 20 19  1  1
 20 22  1  0
 21 20  1  0
 22 23  2  0
 22 24  1  0
M  END
$$$$
