SSR.pdb
     RDKit          3D

 24 23  0  0  1  0  0  0  0  0999 V2000
   26.7804  -15.4257  -20.0243 O   0  0  0  0  0  0  0  0  0  0  0  0
   25.8735  -14.7448  -19.2095 C   0  0  0  0  0  0  0  0  0  0  0  0
   26.3251  -13.3028  -19.1339 C   0  0  2  0  0  0  0  0  0  0  0  0
   27.7535  -13.2359  -19.0763 N   0  0  0  0  0  0  0  0  0  0  0  0
   25.6696  -12.5699  -18.0325 C   0  0  0  0  0  0  0  0  0  0  0  0
   24.4213  -12.6698  -17.9126 O   0  0  0  0  0  0  0  0  0  0  0  0
   27.6880   -9.6186  -15.9168 O   0  0  0  0  0  0  0  0  0  0  0  0
   26.9179  -10.4781  -15.1462 C   0  0  0  0  0  0  0  0  0  0  0  0
   25.8112  -11.0762  -16.0122 C   0  0  2  0  0  0  0  0  0  0  0  0
   26.3995  -11.7672  -17.1187 N   0  0  0  0  0  0  0  0  0  0  0  0
   24.8163  -10.0740  -16.3995 C   0  0  0  0  0  0  0  0  0  0  0  0
   25.0759   -9.3854  -17.4400 O   0  0  0  0  0  0  0  0  0  0  0  0
   16.6680   -9.9284  -16.2273 N   0  0  0  0  0  0  0  0  0  0  0  0
   16.7335   -8.7441  -17.0467 C   0  0  0  0  0  0  0  0  0  0  0  0
   15.6827   -8.0071  -17.1375 N   0  0  0  0  0  0  0  0  0  0  0  0
   17.9481   -8.4377  -17.7183 N   0  0  0  0  0  0  0  0  0  0  0  0
   19.0909   -9.2802  -17.6067 C   0  0  0  0  0  0  0  0  0  0  0  0
   20.3282   -8.5490  -17.1350 C   0  0  0  0  0  0  0  0  0  0  0  0
   21.3766   -9.4920  -16.6100 C   0  0  0  0  0  0  0  0  0  0  0  0
   22.6172   -8.8335  -16.1345 C   0  0  2  0  0  0  0  0  0  0  0  0
   23.6055   -9.8075  -15.7257 N   0  0  0  0  0  0  0  0  0  0  0  0
   22.4028   -7.7847  -15.1161 C   0  0  0  0  0  0  0  0  0  0  0  0
   22.5534   -7.9793  -13.8758 O   0  0  0  0  0  0  0  0  0  0  0  0
   22.0157   -6.5011  -15.4777 O   0  0  0  0  0  0  0  0  0  0  0  0
  2  3  1  0
  2  1  1  0
  3  4  1  1
  5  3  1  0
  6  5  2  0
  8  7  1  0
  9  8  1  6
  9 11  1  0
  9 10  1  0
 10  5  1  0
 11 21  1  0
 12 11  2  0
 14 15  2  0
 14 13  1  0
 16 14  1  0
 17 16  1  0
 18 17  1  0
 19 18  1  0
 20 19  1  1
 20 22  1  0
 21 20  1  0
 22 23  2  0
 22 24  1  0
M  END
$$$$
