SSR.pdb
     RDKit          3D

 24 23  0  0  1  0  0  0  0  0999 V2000
   20.5987  -10.3610  -17.4748 O   0  0  0  0  0  0  0  0  0  0  0  0
   20.5660   -9.1535  -16.7740 C   0  0  0  0  0  0  0  0  0  0  0  0
   21.4767   -9.3000  -15.5747 C   0  0  2  0  0  0  0  0  0  0  0  0
   21.5186  -10.6664  -15.1513 N   0  0  0  0  0  0  0  0  0  0  0  0
   21.1181   -8.3705  -14.4850 C   0  0  0  0  0  0  0  0  0  0  0  0
   20.5291   -8.8370  -13.4760 O   0  0  0  0  0  0  0  0  0  0  0  0
   21.5768   -3.8517  -12.7355 O   0  0  0  0  0  0  0  0  0  0  0  0
   21.8497   -4.7440  -13.7626 C   0  0  0  0  0  0  0  0  0  0  0  0
   21.1096   -6.0542  -13.5015 C   0  0  2  0  0  0  0  0  0  0  0  0
   21.4158   -6.9849  -14.5445 N   0  0  0  0  0  0  0  0  0  0  0  0
   19.6752   -5.8421  -13.2975 C   0  0  0  0  0  0  0  0  0  0  0  0
   18.9677   -5.6829  -14.3455 O   0  0  0  0  0  0  0  0  0  0  0  0
   14.1426   -9.1725   -7.3702 N   0  0  0  0  0  0  0  0  0  0  0  0
   13.2742   -8.3193   -8.1423 C   0  0  0  0  0  0  0  0  0  0  0  0
   12.0054   -8.4020   -7.9443 N   0  0  0  0  0  0  0  0  0  0  0  0
   13.8486   -7.4253   -9.0862 N   0  0  0  0  0  0  0  0  0  0  0  0
   15.2552   -7.3786   -9.3035 C   0  0  0  0  0  0  0  0  0  0  0  0
   15.6512   -6.4933  -10.4643 C   0  0  0  0  0  0  0  0  0  0  0  0
   17.1398   -6.4806  -10.6837 C   0  0  0  0  0  0  0  0  0  0  0  0
   17.5832   -5.7030  -11.8659 C   0  0  2  0  0  0  0  0  0  0  0  0
   19.0146   -5.7993  -12.0514 N   0  0  0  0  0  0  0  0  0  0  0  0
   17.1023   -4.3062  -11.8964 C   0  0  0  0  0  0  0  0  0  0  0  0
   17.8195   -3.3172  -11.5701 O   0  0  0  0  0  0  0  0  0  0  0  0
   15.8075   -4.0011  -12.2944 O   0  0  0  0  0  0  0  0  0  0  0  0
  2  3  1  0
  2  1  1  0
  3  4  1  1
  5  3  1  0
  6  5  2  0
  8  7  1  0
  9  8  1  6
  9 11  1  0
  9 10  1  0
 10  5  1  0
 11 21  1  0
 12 11  2  0
 14 15  2  0
 14 13  1  0
 16 14  1  0
 17 16  1  0
 18 17  1  0
 19 18  1  0
 20 19  1  1
 20 22  1  0
 21 20  1  0
 22 23  2  0
 22 24  1  0
M  END
$$$$
