TYY.pdb
     RDKit          3D

 32 33  0  0  1  0  0  0  0  0999 V2000
   12.7260  -17.6038   19.8366 C   0  0  0  0  0  0  0  0  0  0  0  0
   12.2013  -16.2391   19.4396 C   0  0  1  0  0  0  0  0  0  0  0  0
   11.2432  -16.4252   18.4442 O   0  0  0  0  0  0  0  0  0  0  0  0
   11.6119  -15.6090   20.6732 C   0  0  2  0  0  0  0  0  0  0  0  0
   10.8496  -14.4550   20.3074 N   0  0  0  0  0  0  0  0  0  0  0  0
   12.5959  -15.3449   21.7307 C   0  0  0  0  0  0  0  0  0  0  0  0
   13.3778  -14.3608   21.5630 O   0  0  0  0  0  0  0  0  0  0  0  0
    9.6074  -13.8737   28.3208 O   0  0  0  0  0  0  0  0  0  0  0  0
   10.5619  -14.5458   27.5390 C   0  0  0  0  0  0  0  0  0  0  0  0
   10.1924  -15.5723   26.7043 C   0  0  0  0  0  0  0  0  0  0  0  0
   11.1502  -16.2327   25.9323 C   0  0  0  0  0  0  0  0  0  0  0  0
   12.4761  -15.8668   25.9949 C   0  0  0  0  0  0  0  0  0  0  0  0
   13.4713  -16.5629   25.1795 C   0  0  0  0  0  0  0  0  0  0  0  0
   13.8109  -15.8722   23.8747 C   0  0  2  0  0  0  0  0  0  0  0  0
   12.7447  -16.0895   22.9116 N   0  0  0  0  0  0  0  0  0  0  0  0
   15.1071  -16.3674   23.3997 C   0  0  0  0  0  0  0  0  0  0  0  0
   15.1359  -17.4819   22.8175 O   0  0  0  0  0  0  0  0  0  0  0  0
   12.8103  -14.8340   26.8422 C   0  0  0  0  0  0  0  0  0  0  0  0
   11.8717  -14.1802   27.6047 C   0  0  0  0  0  0  0  0  0  0  0  0
   15.7569  -13.6449   17.3515 O   0  0  0  0  0  0  0  0  0  0  0  0
   16.3767  -14.0426   18.5313 C   0  0  0  0  0  0  0  0  0  0  0  0
   16.6450  -15.3497   18.7934 C   0  0  0  0  0  0  0  0  0  0  0  0
   17.2680  -15.7146   19.9870 C   0  0  0  0  0  0  0  0  0  0  0  0
   17.6257  -14.7688   20.9250 C   0  0  0  0  0  0  0  0  0  0  0  0
   18.2882  -15.0779   22.2046 C   0  0  0  0  0  0  0  0  0  0  0  0
   17.5988  -16.1478   23.0062 C   0  0  2  0  0  0  0  0  0  0  0  0
   16.3332  -15.6824   23.5480 N   0  0  0  0  0  0  0  0  0  0  0  0
   18.4666  -16.4985   24.1567 C   0  0  0  0  0  0  0  0  0  0  0  0
   18.0506  -16.3229   25.4868 O   0  0  0  0  0  0  0  0  0  0  0  0
   17.3448  -13.4437   20.6412 C   0  0  0  0  0  0  0  0  0  0  0  0
   16.7328  -13.1070   19.4642 C   0  0  0  0  0  0  0  0  0  0  0  0
   19.6327  -16.9764   24.0270 O   0  0  0  0  0  0  0  0  0  0  0  0
  2  3  1  0
  2  1  1  1
  4  5  1  6
  4  2  1  0
  6  4  1  0
  7  6  2  0
  9 10  2  0
  9  8  1  0
 11 10  1  0
 12 11  2  0
 13 12  1  0
 14 13  1  1
 14 16  1  0
 14 15  1  0
 15  6  1  0
 16 17  2  0
 18 12  1  0
 18 19  2  0
 19  9  1  0
 21 22  2  0
 21 20  1  0
 23 22  1  0
 24 23  2  0
 26 25  1  1
 25 24  1  0
 27 26  1  0
 27 16  1  0
 28 29  1  0
 28 26  1  0
 30 24  1  0
 30 31  2  0
 31 21  1  0
 32 28  2  0
M  END
$$$$
