TYY.pdb
     RDKit          3D

 32 33  0  0  1  0  0  0  0  0999 V2000
    8.9796  -19.6774   19.7879 C   0  0  0  0  0  0  0  0  0  0  0  0
    9.9098  -18.8900   18.8879 C   0  0  1  0  0  0  0  0  0  0  0  0
    9.9513  -19.5338   17.6521 O   0  0  0  0  0  0  0  0  0  0  0  0
    9.3512  -17.4966   18.7748 C   0  0  2  0  0  0  0  0  0  0  0  0
    9.9674  -16.8183   17.6762 N   0  0  0  0  0  0  0  0  0  0  0  0
    9.4003  -16.7357   20.0297 C   0  0  0  0  0  0  0  0  0  0  0  0
   10.5460  -16.4873   20.5131 O   0  0  0  0  0  0  0  0  0  0  0  0
    6.9632  -12.2111   27.3142 O   0  0  0  0  0  0  0  0  0  0  0  0
    6.9757  -12.9247   26.1039 C   0  0  0  0  0  0  0  0  0  0  0  0
    7.3717  -12.3222   24.9348 C   0  0  0  0  0  0  0  0  0  0  0  0
    7.3798  -13.0419   23.7383 C   0  0  0  0  0  0  0  0  0  0  0  0
    6.9924  -14.3629   23.7112 C   0  0  0  0  0  0  0  0  0  0  0  0
    7.0076  -15.1090   22.4531 C   0  0  0  0  0  0  0  0  0  0  0  0
    8.3703  -15.6323   22.0478 C   0  0  2  0  0  0  0  0  0  0  0  0
    8.2865  -16.2599   20.7397 N   0  0  0  0  0  0  0  0  0  0  0  0
    8.8515  -16.5528   23.0831 C   0  0  0  0  0  0  0  0  0  0  0  0
    8.3209  -17.6909   23.1542 O   0  0  0  0  0  0  0  0  0  0  0  0
    6.6016  -14.9344   24.9016 C   0  0  0  0  0  0  0  0  0  0  0  0
    6.5915  -14.2308   26.0825 C   0  0  0  0  0  0  0  0  0  0  0  0
   10.3226  -13.6960   30.1421 O   0  0  0  0  0  0  0  0  0  0  0  0
   10.6644  -14.3858   28.9838 C   0  0  0  0  0  0  0  0  0  0  0  0
   10.6652  -13.7823   27.7652 C   0  0  0  0  0  0  0  0  0  0  0  0
   11.0134  -14.5034   26.6229 C   0  0  0  0  0  0  0  0  0  0  0  0
   11.3631  -15.8355   26.6974 C   0  0  0  0  0  0  0  0  0  0  0  0
   11.7447  -16.6596   25.5368 C   0  0  0  0  0  0  0  0  0  0  0  0
   10.5762  -17.2540   24.7995 C   0  0  2  0  0  0  0  0  0  0  0  0
    9.8726  -16.2553   24.0123 N   0  0  0  0  0  0  0  0  0  0  0  0
    9.6158  -17.7820   25.7987 C   0  0  0  0  0  0  0  0  0  0  0  0
    9.9502  -18.8260   26.6770 O   0  0  0  0  0  0  0  0  0  0  0  0
   11.3566  -16.4330   27.9458 C   0  0  0  0  0  0  0  0  0  0  0  0
   11.0118  -15.7075   29.0539 C   0  0  0  0  0  0  0  0  0  0  0  0
    8.4375  -17.3364   25.9328 O   0  0  0  0  0  0  0  0  0  0  0  0
  2  3  1  0
  2  1  1  1
  4  5  1  6
  4  2  1  0
  6  4  1  0
  7  6  2  0
  9 10  2  0
  9  8  1  0
 11 10  1  0
 12 11  2  0
 13 12  1  0
 14 13  1  1
 14 16  1  0
 14 15  1  0
 15  6  1  0
 16 17  2  0
 18 12  1  0
 18 19  2  0
 19  9  1  0
 21 22  2  0
 21 20  1  0
 23 22  1  0
 24 23  2  0
 26 25  1  1
 25 24  1  0
 27 26  1  0
 27 16  1  0
 28 29  1  0
 28 26  1  0
 30 24  1  0
 30 31  2  0
 31 21  1  0
 32 28  2  0
M  END
$$$$
