TYY.pdb
     RDKit          3D

 32 33  0  0  1  0  0  0  0  0999 V2000
    7.5766  -20.6667   20.7199 C   0  0  0  0  0  0  0  0  0  0  0  0
    8.1643  -19.5418   21.5474 C   0  0  1  0  0  0  0  0  0  0  0  0
    9.1064  -20.0974   22.4117 O   0  0  0  0  0  0  0  0  0  0  0  0
    8.7908  -18.5621   20.5914 C   0  0  2  0  0  0  0  0  0  0  0  0
    9.7401  -19.2385   19.7618 N   0  0  0  0  0  0  0  0  0  0  0  0
    9.3370  -17.3653   21.2438 C   0  0  0  0  0  0  0  0  0  0  0  0
   10.5994  -17.2550   21.2903 O   0  0  0  0  0  0  0  0  0  0  0  0
    7.3002  -12.7621   16.7949 O   0  0  0  0  0  0  0  0  0  0  0  0
    7.5498  -13.0557   18.1460 C   0  0  0  0  0  0  0  0  0  0  0  0
    8.5809  -12.4481   18.8202 C   0  0  0  0  0  0  0  0  0  0  0  0
    8.8190  -12.7480   20.1629 C   0  0  0  0  0  0  0  0  0  0  0  0
    8.0266  -13.6547   20.8307 C   0  0  0  0  0  0  0  0  0  0  0  0
    8.2824  -13.9597   22.2383 C   0  0  0  0  0  0  0  0  0  0  0  0
    9.1624  -15.1708   22.4703 C   0  0  2  0  0  0  0  0  0  0  0  0
    8.5803  -16.3330   21.8205 N   0  0  0  0  0  0  0  0  0  0  0  0
    9.3349  -15.3615   23.9142 C   0  0  0  0  0  0  0  0  0  0  0  0
    9.9711  -14.4850   24.5537 O   0  0  0  0  0  0  0  0  0  0  0  0
    7.0025  -14.2445   20.1237 C   0  0  0  0  0  0  0  0  0  0  0  0
    6.7634  -13.9531   18.8017 C   0  0  0  0  0  0  0  0  0  0  0  0
    6.2618  -10.9399   27.0304 O   0  0  0  0  0  0  0  0  0  0  0  0
    6.5778  -12.2923   26.9560 C   0  0  0  0  0  0  0  0  0  0  0  0
    5.7504  -13.1887   26.3551 C   0  0  0  0  0  0  0  0  0  0  0  0
    6.0976  -14.5385   26.2978 C   0  0  0  0  0  0  0  0  0  0  0  0
    7.2785  -14.9966   26.8438 C   0  0  0  0  0  0  0  0  0  0  0  0
    7.7132  -16.4046   26.8190 C   0  0  0  0  0  0  0  0  0  0  0  0
    9.0026  -16.6325   26.0789 C   0  0  2  0  0  0  0  0  0  0  0  0
    8.8370  -16.4626   24.6451 N   0  0  0  0  0  0  0  0  0  0  0  0
    9.4290  -18.0344   26.3087 C   0  0  0  0  0  0  0  0  0  0  0  0
    9.5206  -18.9680   25.2632 O   0  0  0  0  0  0  0  0  0  0  0  0
    8.1080  -14.0702   27.4512 C   0  0  0  0  0  0  0  0  0  0  0  0
    7.7484  -12.7504   27.4966 C   0  0  0  0  0  0  0  0  0  0  0  0
    9.7382  -18.4881   27.4503 O   0  0  0  0  0  0  0  0  0  0  0  0
  2  3  1  0
  2  1  1  6
  4  5  1  1
  4  2  1  0
  6  4  1  0
  7  6  2  0
  9 10  2  0
  9  8  1  0
 11 10  1  0
 12 11  2  0
 13 12  1  0
 14 13  1  1
 14 16  1  0
 14 15  1  0
 15  6  1  0
 16 17  2  0
 18 12  1  0
 18 19  2  0
 19  9  1  0
 21 22  2  0
 21 20  1  0
 23 22  1  0
 24 23  2  0
 26 25  1  1
 25 24  1  0
 27 26  1  0
 27 16  1  0
 28 29  1  0
 28 26  1  0
 30 24  1  0
 30 31  2  0
 31 21  1  0
 32 28  2  0
M  END
$$$$
