TYY.pdb
     RDKit          3D

 32 33  0  0  1  0  0  0  0  0999 V2000
    9.0425  -16.1870   14.8213 C   0  0  0  0  0  0  0  0  0  0  0  0
    8.8867  -16.2899   16.3248 C   0  0  1  0  0  0  0  0  0  0  0  0
    7.6463  -15.7500   16.6615 O   0  0  0  0  0  0  0  0  0  0  0  0
    8.9793  -17.7483   16.6864 C   0  0  2  0  0  0  0  0  0  0  0  0
    8.0198  -18.4937   15.9310 N   0  0  0  0  0  0  0  0  0  0  0  0
    8.9097  -18.0056   18.1304 C   0  0  0  0  0  0  0  0  0  0  0  0
    7.7571  -18.1496   18.6392 O   0  0  0  0  0  0  0  0  0  0  0  0
    8.4957  -24.5950   19.5332 O   0  0  0  0  0  0  0  0  0  0  0  0
    9.0629  -23.3463   19.8386 C   0  0  0  0  0  0  0  0  0  0  0  0
    9.9386  -22.7394   18.9716 C   0  0  0  0  0  0  0  0  0  0  0  0
   10.4957  -21.4983   19.2863 C   0  0  0  0  0  0  0  0  0  0  0  0
   10.1773  -20.8649   20.4666 C   0  0  0  0  0  0  0  0  0  0  0  0
   10.7639  -19.5634   20.7854 C   0  0  0  0  0  0  0  0  0  0  0  0
    9.8979  -18.3757   20.4190 C   0  0  2  0  0  0  0  0  0  0  0  0
   10.0108  -18.1056   18.9956 N   0  0  0  0  0  0  0  0  0  0  0  0
   10.2943  -17.2283   21.2420 C   0  0  0  0  0  0  0  0  0  0  0  0
   11.4146  -16.7015   21.0201 O   0  0  0  0  0  0  0  0  0  0  0  0
    9.2963  -21.5025   21.3116 C   0  0  0  0  0  0  0  0  0  0  0  0
    8.7448  -22.7243   21.0071 C   0  0  0  0  0  0  0  0  0  0  0  0
    7.9606  -11.9606   18.0855 O   0  0  0  0  0  0  0  0  0  0  0  0
    8.1233  -12.5976   19.3110 C   0  0  0  0  0  0  0  0  0  0  0  0
    7.1683  -13.4194   19.8229 C   0  0  0  0  0  0  0  0  0  0  0  0
    7.3633  -14.0430   21.0553 C   0  0  0  0  0  0  0  0  0  0  0  0
    8.5190  -13.8452   21.7817 C   0  0  0  0  0  0  0  0  0  0  0  0
    8.7965  -14.4710   23.0868 C   0  0  0  0  0  0  0  0  0  0  0  0
    9.8919  -15.5011   23.0494 C   0  0  2  0  0  0  0  0  0  0  0  0
    9.5074  -16.6670   22.2717 N   0  0  0  0  0  0  0  0  0  0  0  0
   10.1442  -15.9620   24.4363 C   0  0  0  0  0  0  0  0  0  0  0  0
    9.8681  -17.2761   24.8485 O   0  0  0  0  0  0  0  0  0  0  0  0
    9.4797  -13.0058   21.2452 C   0  0  0  0  0  0  0  0  0  0  0  0
    9.2685  -12.4037   20.0345 C   0  0  0  0  0  0  0  0  0  0  0  0
   10.6213  -15.2142   25.3409 O   0  0  0  0  0  0  0  0  0  0  0  0
  2  3  1  0
  2  1  1  6
  4  5  1  6
  4  2  1  0
  6  4  1  0
  7  6  2  0
  9 10  2  0
  9  8  1  0
 11 10  1  0
 12 11  2  0
 13 12  1  0
 14 13  1  1
 14 16  1  0
 14 15  1  0
 15  6  1  0
 16 17  2  0
 18 12  1  0
 18 19  2  0
 19  9  1  0
 21 22  2  0
 21 20  1  0
 23 22  1  0
 24 23  2  0
 26 25  1  1
 25 24  1  0
 27 26  1  0
 27 16  1  0
 28 29  1  0
 28 26  1  0
 30 24  1  0
 30 31  2  0
 31 21  1  0
 32 28  2  0
M  END
$$$$
