TYY.pdb
     RDKit          3D

 32 33  0  0  1  0  0  0  0  0999 V2000
    8.1691  -19.0937   19.9875 C   0  0  0  0  0  0  0  0  0  0  0  0
    9.5260  -18.4362   19.8394 C   0  0  1  0  0  0  0  0  0  0  0  0
   10.1831  -19.0525   18.7756 O   0  0  0  0  0  0  0  0  0  0  0  0
    9.2889  -16.9726   19.5787 C   0  0  2  0  0  0  0  0  0  0  0  0
   10.1452  -16.5265   18.5230 N   0  0  0  0  0  0  0  0  0  0  0  0
    9.3669  -16.1367   20.7835 C   0  0  0  0  0  0  0  0  0  0  0  0
   10.5230  -15.8729   21.2327 O   0  0  0  0  0  0  0  0  0  0  0  0
    6.9849  -11.7046   28.1543 O   0  0  0  0  0  0  0  0  0  0  0  0
    7.0004  -12.3530   26.9079 C   0  0  0  0  0  0  0  0  0  0  0  0
    7.5674  -11.7544   25.8094 C   0  0  0  0  0  0  0  0  0  0  0  0
    7.5767  -12.4088   24.5760 C   0  0  0  0  0  0  0  0  0  0  0  0
    7.0196  -13.6608   24.4416 C   0  0  0  0  0  0  0  0  0  0  0  0
    7.0374  -14.3393   23.1458 C   0  0  0  0  0  0  0  0  0  0  0  0
    8.3774  -14.9348   22.7652 C   0  0  2  0  0  0  0  0  0  0  0  0
    8.2702  -15.6047   21.4801 N   0  0  0  0  0  0  0  0  0  0  0  0
    8.8159  -15.8373   23.8348 C   0  0  0  0  0  0  0  0  0  0  0  0
    8.1805  -16.9102   23.9996 O   0  0  0  0  0  0  0  0  0  0  0  0
    6.4601  -14.2304   25.5636 C   0  0  0  0  0  0  0  0  0  0  0  0
    6.4480  -13.5908   26.7803 C   0  0  0  0  0  0  0  0  0  0  0  0
   13.1947  -20.0796   21.2541 O   0  0  0  0  0  0  0  0  0  0  0  0
   12.8424  -19.3145   22.3608 C   0  0  0  0  0  0  0  0  0  0  0  0
   12.4453  -19.8861   23.5290 C   0  0  0  0  0  0  0  0  0  0  0  0
   12.0987  -19.0894   24.6203 C   0  0  0  0  0  0  0  0  0  0  0  0
   12.1490  -17.7131   24.5452 C   0  0  0  0  0  0  0  0  0  0  0  0
   11.8015  -16.8080   25.6551 C   0  0  0  0  0  0  0  0  0  0  0  0
   10.3331  -16.4964   25.7519 C   0  0  2  0  0  0  0  0  0  0  0  0
    9.9050  -15.5905   24.6993 N   0  0  0  0  0  0  0  0  0  0  0  0
   10.0870  -15.8141   27.0456 C   0  0  0  0  0  0  0  0  0  0  0  0
   10.3146  -16.4469   28.2788 O   0  0  0  0  0  0  0  0  0  0  0  0
   12.5554  -17.1490   23.3486 C   0  0  0  0  0  0  0  0  0  0  0  0
   12.8910  -17.9488   22.2899 C   0  0  0  0  0  0  0  0  0  0  0  0
    9.6586  -14.6251   27.1334 O   0  0  0  0  0  0  0  0  0  0  0  0
  2  3  1  0
  2  1  1  6
  4  5  1  6
  4  2  1  0
  6  4  1  0
  7  6  2  0
  9 10  2  0
  9  8  1  0
 11 10  1  0
 12 11  2  0
 13 12  1  0
 14 13  1  1
 14 16  1  0
 14 15  1  0
 15  6  1  0
 16 17  2  0
 18 12  1  0
 18 19  2  0
 19  9  1  0
 21 22  2  0
 21 20  1  0
 23 22  1  0
 24 23  2  0
 26 25  1  6
 25 24  1  0
 27 26  1  0
 27 16  1  0
 28 29  1  0
 28 26  1  0
 30 24  1  0
 30 31  2  0
 31 21  1  0
 32 28  2  0
M  END
$$$$
