AKN.pdb
     RDKit          3D

 23 22  0  0  1  0  0  0  0  0999 V2000
    8.9454  -14.1830   17.2475 C   0  0  0  0  0  0  0  0  0  0  0  0
    7.7835  -13.9994   18.1998 C   0  0  2  0  0  0  0  0  0  0  0  0
    7.3970  -12.6082   18.2581 N   0  0  0  0  0  0  0  0  0  0  0  0
    8.1379  -14.4670   19.5610 C   0  0  0  0  0  0  0  0  0  0  0  0
    8.8990  -13.8279   20.3248 O   0  0  0  0  0  0  0  0  0  0  0  0
    7.6062  -15.7073   20.0704 N   0  0  0  0  0  0  0  0  0  0  0  0
    7.9361  -16.1994   21.3908 C   0  0  1  0  0  0  0  0  0  0  0  0
    7.1414  -17.4730   21.6524 C   0  0  0  0  0  0  0  0  0  0  0  0
    7.4435  -17.9836   23.0135 C   0  0  0  0  0  0  0  0  0  0  0  0
    6.7210  -19.2494   23.3733 C   0  0  0  0  0  0  0  0  0  0  0  0
    7.0893  -19.7880   24.7226 C   0  0  0  0  0  0  0  0  0  0  0  0
    6.4793  -21.0968   24.8647 N   0  0  0  0  0  0  0  0  0  0  0  0
    9.3879  -16.4287   21.5038 C   0  0  0  0  0  0  0  0  0  0  0  0
   10.0487  -16.6643   20.4692 O   0  0  0  0  0  0  0  0  0  0  0  0
   14.4849  -14.6291   21.4864 N   0  0  0  0  0  0  0  0  0  0  0  0
   13.4242  -15.5953   21.3650 C   0  0  0  0  0  0  0  0  0  0  0  0
   13.5853  -16.6603   20.7556 O   0  0  0  0  0  0  0  0  0  0  0  0
   12.1343  -15.2409   22.0095 C   0  0  0  0  0  0  0  0  0  0  0  0
   11.5262  -16.3615   22.7987 C   0  0  2  0  0  0  0  0  0  0  0  0
   10.0800  -16.3948   22.7440 N   0  0  0  0  0  0  0  0  0  0  0  0
   12.0126  -16.3523   24.2067 C   0  0  0  0  0  0  0  0  0  0  0  0
   13.3108  -16.6310   24.5425 O   0  0  0  0  0  0  0  0  0  0  0  0
   11.1931  -16.0768   25.1187 O   0  0  0  0  0  0  0  0  0  0  0  0
  2  1  1  6
  2  4  1  0
  3  2  1  0
  4  5  2  0
  4  6  1  0
  6  7  1  0
  7  8  1  6
  7 13  1  0
  8  9  1  0
  9 10  1  0
 10 11  1  0
 11 12  1  0
 13 14  2  0
 16 15  1  0
 16 18  1  0
 17 16  2  0
 19 18  1  1
 20 13  1  0
 20 19  1  0
 21 19  1  0
 21 22  1  0
 23 21  2  0
M  END
$$$$
