AKN.pdb
     RDKit          3D

 23 22  0  0  1  0  0  0  0  0999 V2000
   -2.1786  -25.0885   29.5073 C   0  0  0  0  0  0  0  0  0  0  0  0
   -2.9952  -25.8215   28.4649 C   0  0  2  0  0  0  0  0  0  0  0  0
   -2.1362  -26.6349   27.6349 N   0  0  0  0  0  0  0  0  0  0  0  0
   -3.7403  -24.8662   27.6108 C   0  0  0  0  0  0  0  0  0  0  0  0
   -3.4828  -23.6400   27.5742 O   0  0  0  0  0  0  0  0  0  0  0  0
   -4.8175  -25.3243   26.7681 N   0  0  0  0  0  0  0  0  0  0  0  0
   -5.5747  -24.4196   25.9300 C   0  0  1  0  0  0  0  0  0  0  0  0
   -6.2659  -25.2257   24.8370 C   0  0  0  0  0  0  0  0  0  0  0  0
   -5.2821  -26.1160   24.1705 C   0  0  0  0  0  0  0  0  0  0  0  0
   -5.8686  -26.9993   23.1077 C   0  0  0  0  0  0  0  0  0  0  0  0
   -4.8721  -27.9268   22.4808 C   0  0  0  0  0  0  0  0  0  0  0  0
   -5.5750  -28.7583   21.5217 N   0  0  0  0  0  0  0  0  0  0  0  0
   -6.5418  -23.6582   26.7413 C   0  0  0  0  0  0  0  0  0  0  0  0
   -7.2239  -22.7647   26.1945 O   0  0  0  0  0  0  0  0  0  0  0  0
   -9.1952  -21.5797   30.5845 N   0  0  0  0  0  0  0  0  0  0  0  0
   -9.6671  -22.9164   30.3315 C   0  0  0  0  0  0  0  0  0  0  0  0
  -10.7304  -23.3292   30.8116 O   0  0  0  0  0  0  0  0  0  0  0  0
   -8.8086  -23.7645   29.4664 C   0  0  0  0  0  0  0  0  0  0  0  0
   -7.6101  -23.0491   28.9187 C   0  0  2  0  0  0  0  0  0  0  0  0
   -6.7385  -23.8927   28.1286 N   0  0  0  0  0  0  0  0  0  0  0  0
   -6.8555  -22.3587   30.0019 C   0  0  0  0  0  0  0  0  0  0  0  0
   -7.2673  -21.1733   30.5504 O   0  0  0  0  0  0  0  0  0  0  0  0
   -5.7988  -22.8913   30.4250 O   0  0  0  0  0  0  0  0  0  0  0  0
  2  1  1  1
  2  4  1  0
  3  2  1  0
  4  5  2  0
  4  6  1  0
  6  7  1  0
  7  8  1  6
  7 13  1  0
  8  9  1  0
  9 10  1  0
 10 11  1  0
 11 12  1  0
 13 14  2  0
 16 15  1  0
 16 18  1  0
 17 16  2  0
 19 18  1  1
 20 13  1  0
 20 19  1  0
 21 19  1  0
 21 22  1  0
 23 21  2  0
M  END
$$$$
