AKN.pdb
     RDKit          3D

 23 22  0  0  1  0  0  0  0  0999 V2000
   13.1851  -18.0368   15.7472 C   0  0  0  0  0  0  0  0  0  0  0  0
   12.7352  -16.5975   15.6188 C   0  0  2  0  0  0  0  0  0  0  0  0
   13.5110  -15.9172   14.6070 N   0  0  0  0  0  0  0  0  0  0  0  0
   12.8788  -15.8826   16.9094 C   0  0  0  0  0  0  0  0  0  0  0  0
   13.9415  -15.3196   17.2624 O   0  0  0  0  0  0  0  0  0  0  0  0
   11.7719  -15.8065   17.8310 N   0  0  0  0  0  0  0  0  0  0  0  0
   11.8215  -14.9901   19.0249 C   0  0  1  0  0  0  0  0  0  0  0  0
   10.3995  -14.7628   19.5233 C   0  0  0  0  0  0  0  0  0  0  0  0
    9.7068  -13.7901   18.6409 C   0  0  0  0  0  0  0  0  0  0  0  0
    8.2398  -13.6377   18.9205 C   0  0  0  0  0  0  0  0  0  0  0  0
    7.5629  -12.6294   18.0419 C   0  0  0  0  0  0  0  0  0  0  0  0
    6.1486  -12.6299   18.3662 N   0  0  0  0  0  0  0  0  0  0  0  0
   12.6633  -15.6328   20.0502 C   0  0  0  0  0  0  0  0  0  0  0  0
   12.5239  -16.8550   20.2727 O   0  0  0  0  0  0  0  0  0  0  0  0
   16.5048  -16.7842   23.0676 N   0  0  0  0  0  0  0  0  0  0  0  0
   16.5052  -15.3472   23.1595 C   0  0  0  0  0  0  0  0  0  0  0  0
   17.4377  -14.7329   23.6931 O   0  0  0  0  0  0  0  0  0  0  0  0
   15.3289  -14.6505   22.5802 C   0  0  0  0  0  0  0  0  0  0  0  0
   14.3738  -15.5650   21.8732 C   0  0  2  0  0  0  0  0  0  0  0  0
   13.6353  -14.9240   20.8058 N   0  0  0  0  0  0  0  0  0  0  0  0
   13.4564  -16.2332   22.8381 C   0  0  0  0  0  0  0  0  0  0  0  0
   12.4556  -15.5644   23.4914 O   0  0  0  0  0  0  0  0  0  0  0  0
   13.6126  -17.4608   23.0568 O   0  0  0  0  0  0  0  0  0  0  0  0
  2  1  1  1
  2  4  1  0
  3  2  1  0
  4  5  2  0
  4  6  1  0
  6  7  1  0
  7  8  1  1
  7 13  1  0
  8  9  1  0
  9 10  1  0
 10 11  1  0
 11 12  1  0
 13 14  2  0
 16 15  1  0
 16 18  1  0
 17 16  2  0
 19 18  1  1
 20 13  1  0
 20 19  1  0
 21 19  1  0
 21 22  1  0
 23 21  2  0
M  END
$$$$
