AKN.pdb
     RDKit          3D

 23 22  0  0  1  0  0  0  0  0999 V2000
   13.3741  -18.2572   17.9557 C   0  0  0  0  0  0  0  0  0  0  0  0
   13.2355  -18.8042   19.3601 C   0  0  2  0  0  0  0  0  0  0  0  0
   13.0448  -20.2362   19.3246 N   0  0  0  0  0  0  0  0  0  0  0  0
   12.0912  -18.1747   20.0611 C   0  0  0  0  0  0  0  0  0  0  0  0
   11.9858  -16.9356   20.2183 O   0  0  0  0  0  0  0  0  0  0  0  0
   11.0286  -18.9860   20.6026 N   0  0  0  0  0  0  0  0  0  0  0  0
    9.9671  -18.4226   21.4089 C   0  0  1  0  0  0  0  0  0  0  0  0
    8.6514  -19.0864   21.0211 C   0  0  0  0  0  0  0  0  0  0  0  0
    7.7055  -19.0341   22.1644 C   0  0  0  0  0  0  0  0  0  0  0  0
    6.5351  -19.9662   22.0415 C   0  0  0  0  0  0  0  0  0  0  0  0
    5.5978  -19.9100   23.2098 C   0  0  0  0  0  0  0  0  0  0  0  0
    4.5490  -20.8884   22.9905 N   0  0  0  0  0  0  0  0  0  0  0  0
   10.2650  -18.5970   22.8420 C   0  0  0  0  0  0  0  0  0  0  0  0
   10.1243  -19.7263   23.3593 O   0  0  0  0  0  0  0  0  0  0  0  0
    6.9631  -16.1388   25.3373 N   0  0  0  0  0  0  0  0  0  0  0  0
    8.3841  -16.2109   25.1160 C   0  0  0  0  0  0  0  0  0  0  0  0
    9.0135  -15.2596   24.6357 O   0  0  0  0  0  0  0  0  0  0  0  0
    9.0454  -17.4850   25.4955 C   0  0  0  0  0  0  0  0  0  0  0  0
   10.4911  -17.5545   25.1038 C   0  0  2  0  0  0  0  0  0  0  0  0
   10.7087  -17.5334   23.6728 N   0  0  0  0  0  0  0  0  0  0  0  0
   11.1625  -18.7254   25.7342 C   0  0  0  0  0  0  0  0  0  0  0  0
   11.8050  -19.6904   25.0052 O   0  0  0  0  0  0  0  0  0  0  0  0
   11.1343  -18.8256   26.9866 O   0  0  0  0  0  0  0  0  0  0  0  0
  2  1  1  6
  2  4  1  0
  3  2  1  0
  4  5  2  0
  4  6  1  0
  6  7  1  0
  7  8  1  6
  7 13  1  0
  8  9  1  0
  9 10  1  0
 10 11  1  0
 11 12  1  0
 13 14  2  0
 16 15  1  0
 16 18  1  0
 17 16  2  0
 19 18  1  6
 20 13  1  0
 20 19  1  0
 21 19  1  0
 21 22  1  0
 23 21  2  0
M  END
$$$$
