AKN.pdb
     RDKit          3D

 23 22  0  0  1  0  0  0  0  0999 V2000
    7.2264  -12.3205   19.4449 C   0  0  0  0  0  0  0  0  0  0  0  0
    8.3249  -13.2805   19.8476 C   0  0  2  0  0  0  0  0  0  0  0  0
    8.5173  -14.2816   18.8233 N   0  0  0  0  0  0  0  0  0  0  0  0
    7.9982  -13.9482   21.1301 C   0  0  0  0  0  0  0  0  0  0  0  0
    7.6749  -13.3177   22.1641 O   0  0  0  0  0  0  0  0  0  0  0  0
    8.0415  -15.3858   21.2386 N   0  0  0  0  0  0  0  0  0  0  0  0
    7.6436  -16.0770   22.4462 C   0  0  1  0  0  0  0  0  0  0  0  0
    7.7663  -17.5783   22.2153 C   0  0  0  0  0  0  0  0  0  0  0  0
    7.6027  -18.3001   23.5024 C   0  0  0  0  0  0  0  0  0  0  0  0
    6.6603  -19.4671   23.4413 C   0  0  0  0  0  0  0  0  0  0  0  0
    6.4441  -20.1340   24.7660 C   0  0  0  0  0  0  0  0  0  0  0  0
    5.3939  -21.1221   24.6044 N   0  0  0  0  0  0  0  0  0  0  0  0
    8.4651  -15.6310   23.5860 C   0  0  0  0  0  0  0  0  0  0  0  0
    9.6699  -15.3568   23.3967 O   0  0  0  0  0  0  0  0  0  0  0  0
    6.1405  -14.4026   26.6227 N   0  0  0  0  0  0  0  0  0  0  0  0
    6.9952  -13.2438   26.6201 C   0  0  0  0  0  0  0  0  0  0  0  0
    6.5666  -12.1226   26.9216 O   0  0  0  0  0  0  0  0  0  0  0  0
    8.4115  -13.4717   26.2369 C   0  0  0  0  0  0  0  0  0  0  0  0
    8.7391  -14.9094   25.9646 C   0  0  2  0  0  0  0  0  0  0  0  0
    7.9492  -15.4960   24.9027 N   0  0  0  0  0  0  0  0  0  0  0  0
    8.6585  -15.7235   27.2095 C   0  0  0  0  0  0  0  0  0  0  0  0
    9.4405  -15.4767   28.3065 O   0  0  0  0  0  0  0  0  0  0  0  0
    7.8373  -16.6740   27.2481 O   0  0  0  0  0  0  0  0  0  0  0  0
  2  1  1  6
  2  4  1  0
  3  2  1  0
  4  5  2  0
  4  6  1  0
  6  7  1  0
  7  8  1  6
  7 13  1  0
  8  9  1  0
  9 10  1  0
 10 11  1  0
 11 12  1  0
 13 14  2  0
 16 15  1  0
 16 18  1  0
 17 16  2  0
 19 18  1  1
 20 13  1  0
 20 19  1  0
 21 19  1  0
 21 22  1  0
 23 21  2  0
M  END
$$$$
