AKN.pdb
     RDKit          3D

 23 22  0  0  1  0  0  0  0  0999 V2000
    7.7722  -12.9570   18.4650 C   0  0  0  0  0  0  0  0  0  0  0  0
    8.0191  -14.2865   19.1449 C   0  0  2  0  0  0  0  0  0  0  0  0
    6.8067  -15.0727   19.1654 N   0  0  0  0  0  0  0  0  0  0  0  0
    8.4981  -14.0881   20.5336 C   0  0  0  0  0  0  0  0  0  0  0  0
    9.6144  -13.5867   20.8048 O   0  0  0  0  0  0  0  0  0  0  0  0
    7.6757  -14.4750   21.6537 N   0  0  0  0  0  0  0  0  0  0  0  0
    8.0864  -14.2472   23.0226 C   0  0  1  0  0  0  0  0  0  0  0  0
    6.8760  -13.7914   23.8284 C   0  0  0  0  0  0  0  0  0  0  0  0
    7.2958  -13.4317   25.2065 C   0  0  0  0  0  0  0  0  0  0  0  0
    6.2224  -12.7806   26.0295 C   0  0  0  0  0  0  0  0  0  0  0  0
    6.6683  -12.4081   27.4112 C   0  0  0  0  0  0  0  0  0  0  0  0
    5.6155  -11.6204   28.0249 N   0  0  0  0  0  0  0  0  0  0  0  0
    8.6892  -15.4685   23.5864 C   0  0  0  0  0  0  0  0  0  0  0  0
    8.1163  -16.5658   23.4119 O   0  0  0  0  0  0  0  0  0  0  0  0
   12.8028  -18.9451   23.5324 N   0  0  0  0  0  0  0  0  0  0  0  0
   12.7946  -17.9043   24.5275 C   0  0  0  0  0  0  0  0  0  0  0  0
   13.3787  -18.0393   25.6102 O   0  0  0  0  0  0  0  0  0  0  0  0
   12.0492  -16.6680   24.1804 C   0  0  0  0  0  0  0  0  0  0  0  0
   10.6152  -16.6851   24.6182 C   0  0  2  0  0  0  0  0  0  0  0  0
    9.9021  -15.4596   24.3261 N   0  0  0  0  0  0  0  0  0  0  0  0
   10.4977  -17.0472   26.0584 C   0  0  0  0  0  0  0  0  0  0  0  0
   10.6975  -16.1426   27.0671 O   0  0  0  0  0  0  0  0  0  0  0  0
   10.2030  -18.2328   26.3528 O   0  0  0  0  0  0  0  0  0  0  0  0
  2  1  1  1
  2  4  1  0
  3  2  1  0
  4  5  2  0
  4  6  1  0
  6  7  1  0
  7  8  1  1
  7 13  1  0
  8  9  1  0
  9 10  1  0
 10 11  1  0
 11 12  1  0
 13 14  2  0
 16 15  1  0
 16 18  1  0
 17 16  2  0
 19 18  1  1
 20 13  1  0
 20 19  1  0
 21 19  1  0
 21 22  1  0
 23 21  2  0
M  END
$$$$
