DIF.pdb
     RDKit          3D

 28 28  0  0  1  0  0  0  0  0999 V2000
   10.1394  -18.4415   18.7144 N   0  0  0  0  0  0  0  0  0  0  0  0
   11.3493  -17.8581   19.2948 C   0  0  1  0  0  0  0  0  0  0  0  0
   12.2184  -17.4649   18.1536 C   0  0  0  0  0  0  0  0  0  0  0  0
   12.8504  -18.5310   17.3947 C   0  0  0  0  0  0  0  0  0  0  0  0
   13.2935  -19.5226   18.0323 O   0  0  0  0  0  0  0  0  0  0  0  0
   10.9801  -16.7424   20.2095 C   0  0  0  0  0  0  0  0  0  0  0  0
   11.8281  -16.0772   20.8437 O   0  0  0  0  0  0  0  0  0  0  0  0
   13.0115  -18.5542   16.0235 O   0  0  0  0  0  0  0  0  0  0  0  0
    6.6537  -13.3192   19.2118 C   0  0  0  0  0  0  0  0  0  0  0  0
    7.9644  -13.8840   19.6380 C   0  0  0  0  0  0  0  0  0  0  0  0
    7.9958  -14.5968   20.9371 C   0  0  2  0  0  0  0  0  0  0  0  0
    7.4744  -13.6687   22.0136 C   0  0  0  0  0  0  0  0  0  0  0  0
    9.2603  -15.3018   21.2949 C   0  0  2  0  0  0  0  0  0  0  0  0
    9.5954  -16.3783   20.4032 N   0  0  0  0  0  0  0  0  0  0  0  0
    9.2183  -15.7272   22.7117 C   0  0  0  0  0  0  0  0  0  0  0  0
    8.5644  -16.7399   23.0995 O   0  0  0  0  0  0  0  0  0  0  0  0
    9.9192  -15.0104   23.7142 N   0  0  0  0  0  0  0  0  0  0  0  0
    9.7974  -15.3823   25.1366 C   0  0  1  0  0  0  0  0  0  0  0  0
   10.5849  -14.3562   25.9188 C   0  0  0  0  0  0  0  0  0  0  0  0
   10.4885  -14.5637   27.3865 C   0  0  0  0  0  0  0  0  0  0  0  0
    9.6084  -13.8668   28.1859 C   0  0  0  0  0  0  0  0  0  0  0  0
    9.5312  -14.0739   29.5575 C   0  0  0  0  0  0  0  0  0  0  0  0
   10.3476  -15.0005   30.1746 C   0  0  0  0  0  0  0  0  0  0  0  0
   11.2338  -15.7077   29.3964 C   0  0  0  0  0  0  0  0  0  0  0  0
   11.3017  -15.4944   28.0391 C   0  0  0  0  0  0  0  0  0  0  0  0
    8.3845  -15.3090   25.5788 C   0  0  0  0  0  0  0  0  0  0  0  0
    7.5049  -14.3403   25.1566 O   0  0  0  0  0  0  0  0  0  0  0  0
    7.9840  -16.1963   26.3904 O   0  0  0  0  0  0  0  0  0  0  0  0
  2  6  1  0
  2  1  1  6
  3  2  1  0
  4  3  1  0
  5  4  2  0
  6 14  1  0
  7  6  2  0
  8  4  1  0
 10  9  1  0
 10 11  1  0
 11 12  1  1
 13 11  1  0
 13 14  1  6
 15 13  1  0
 16 15  2  0
 17 15  1  0
 18 26  1  0
 18 17  1  0
 18 19  1  1
 20 19  1  0
 21 20  2  0
 22 21  1  0
 23 22  2  0
 23 24  1  0
 24 25  2  0
 25 20  1  0
 26 27  1  0
 28 26  2  0
M  END
$$$$
