DIF.pdb
     RDKit          3D

 28 28  0  0  1  0  0  0  0  0999 V2000
   10.3698  -19.0078   19.2500 N   0  0  0  0  0  0  0  0  0  0  0  0
   11.1267  -17.8523   19.7329 C   0  0  1  0  0  0  0  0  0  0  0  0
   11.4981  -17.0580   18.5314 C   0  0  0  0  0  0  0  0  0  0  0  0
   12.4835  -17.6296   17.6291 C   0  0  0  0  0  0  0  0  0  0  0  0
   12.7956  -18.8390   17.7904 O   0  0  0  0  0  0  0  0  0  0  0  0
   10.3226  -17.1121   20.7445 C   0  0  0  0  0  0  0  0  0  0  0  0
   10.7061  -16.0408   21.2631 O   0  0  0  0  0  0  0  0  0  0  0  0
   13.1158  -16.9587   16.6010 O   0  0  0  0  0  0  0  0  0  0  0  0
    4.9773  -18.0729   20.6126 C   0  0  0  0  0  0  0  0  0  0  0  0
    6.0874  -17.1079   20.8463 C   0  0  0  0  0  0  0  0  0  0  0  0
    6.8149  -17.2228   22.1326 C   0  0  2  0  0  0  0  0  0  0  0  0
    6.0087  -16.5301   23.2107 C   0  0  0  0  0  0  0  0  0  0  0  0
    8.2637  -16.8694   22.1276 C   0  0  2  0  0  0  0  0  0  0  0  0
    9.0387  -17.6162   21.1748 N   0  0  0  0  0  0  0  0  0  0  0  0
    8.8099  -16.9565   23.5003 C   0  0  0  0  0  0  0  0  0  0  0  0
    9.2592  -18.0357   23.9870 O   0  0  0  0  0  0  0  0  0  0  0  0
    8.8564  -15.8190   24.3452 N   0  0  0  0  0  0  0  0  0  0  0  0
    9.5433  -15.8718   25.6497 C   0  0  1  0  0  0  0  0  0  0  0  0
    9.9054  -14.4476   26.0035 C   0  0  0  0  0  0  0  0  0  0  0  0
    8.7143  -13.5650   26.0979 C   0  0  0  0  0  0  0  0  0  0  0  0
    8.1194  -13.2342   27.2961 C   0  0  0  0  0  0  0  0  0  0  0  0
    7.0057  -12.4067   27.3661 C   0  0  0  0  0  0  0  0  0  0  0  0
    6.4493  -11.8799   26.2178 C   0  0  0  0  0  0  0  0  0  0  0  0
    7.0265  -12.1965   25.0104 C   0  0  0  0  0  0  0  0  0  0  0  0
    8.1292  -13.0169   24.9530 C   0  0  0  0  0  0  0  0  0  0  0  0
    8.6339  -16.3873   26.7007 C   0  0  0  0  0  0  0  0  0  0  0  0
    7.3086  -16.6810   26.4824 O   0  0  0  0  0  0  0  0  0  0  0  0
    9.1230  -16.5600   27.8572 O   0  0  0  0  0  0  0  0  0  0  0  0
  2  6  1  0
  2  1  1  6
  3  2  1  0
  4  3  1  0
  5  4  2  0
  6 14  1  0
  7  6  2  0
  8  4  1  0
 10  9  1  0
 10 11  1  0
 11 12  1  1
 13 11  1  0
 13 14  1  6
 15 13  1  0
 16 15  2  0
 17 15  1  0
 18 26  1  0
 18 17  1  0
 18 19  1  1
 20 19  1  0
 21 20  2  0
 22 21  1  0
 23 22  2  0
 23 24  1  0
 24 25  2  0
 25 20  1  0
 26 27  1  0
 28 26  2  0
M  END
$$$$
