DIF.pdb
     RDKit          3D

 28 28  0  0  1  0  0  0  0  0999 V2000
   10.9264  -17.6865   18.6093 N   0  0  0  0  0  0  0  0  0  0  0  0
   10.2820  -18.1204   19.8495 C   0  0  1  0  0  0  0  0  0  0  0  0
   11.1061  -19.2362   20.3861 C   0  0  0  0  0  0  0  0  0  0  0  0
   11.2120  -20.4394   19.5780 C   0  0  0  0  0  0  0  0  0  0  0  0
   10.3862  -21.3656   19.7930 O   0  0  0  0  0  0  0  0  0  0  0  0
   10.1308  -16.9594   20.7698 C   0  0  0  0  0  0  0  0  0  0  0  0
   11.1037  -16.4035   21.3249 O   0  0  0  0  0  0  0  0  0  0  0  0
   12.1470  -20.6612   18.5864 O   0  0  0  0  0  0  0  0  0  0  0  0
    6.8770  -12.8029   19.5943 C   0  0  0  0  0  0  0  0  0  0  0  0
    7.9430  -13.6962   20.1270 C   0  0  0  0  0  0  0  0  0  0  0  0
    7.7268  -14.2646   21.4787 C   0  0  2  0  0  0  0  0  0  0  0  0
    7.5037  -13.1282   22.4539 C   0  0  0  0  0  0  0  0  0  0  0  0
    8.7002  -15.2926   21.9472 C   0  0  2  0  0  0  0  0  0  0  0  0
    8.8232  -16.4192   21.0629 N   0  0  0  0  0  0  0  0  0  0  0  0
    8.3851  -15.6908   23.3373 C   0  0  0  0  0  0  0  0  0  0  0  0
    7.3244  -16.3107   23.6441 O   0  0  0  0  0  0  0  0  0  0  0  0
    9.2695  -15.3926   24.4044 N   0  0  0  0  0  0  0  0  0  0  0  0
    9.0191  -15.9102   25.7631 C   0  0  1  0  0  0  0  0  0  0  0  0
    7.6360  -15.4424   26.1539 C   0  0  0  0  0  0  0  0  0  0  0  0
    7.5696  -13.9724   26.3573 C   0  0  0  0  0  0  0  0  0  0  0  0
    8.6601  -13.2173   26.7309 C   0  0  0  0  0  0  0  0  0  0  0  0
    8.5801  -11.8427   26.9164 C   0  0  0  0  0  0  0  0  0  0  0  0
    7.3851  -11.1775   26.7292 C   0  0  0  0  0  0  0  0  0  0  0  0
    6.2833  -11.9109   26.3561 C   0  0  0  0  0  0  0  0  0  0  0  0
    6.3741  -13.2716   26.1753 C   0  0  0  0  0  0  0  0  0  0  0  0
    9.0191  -17.3926   25.7677 C   0  0  0  0  0  0  0  0  0  0  0  0
    9.2525  -18.1565   24.6487 O   0  0  0  0  0  0  0  0  0  0  0  0
    8.7892  -17.9691   26.8728 O   0  0  0  0  0  0  0  0  0  0  0  0
  2  6  1  0
  2  1  1  6
  3  2  1  0
  4  3  1  0
  5  4  2  0
  6 14  1  0
  7  6  2  0
  8  4  1  0
 10  9  1  0
 10 11  1  0
 11 12  1  1
 13 11  1  0
 13 14  1  6
 15 13  1  0
 16 15  2  0
 17 15  1  0
 18 26  1  0
 18 17  1  0
 18 19  1  6
 20 19  1  0
 21 20  2  0
 22 21  1  0
 23 22  2  0
 23 24  1  0
 24 25  2  0
 25 20  1  0
 26 27  1  0
 28 26  2  0
M  END
$$$$
