DIF.pdb
     RDKit          3D

 28 28  0  0  1  0  0  0  0  0999 V2000
    9.9191  -18.2777   19.2681 N   0  0  0  0  0  0  0  0  0  0  0  0
   11.0856  -17.6927   19.9304 C   0  0  1  0  0  0  0  0  0  0  0  0
   12.0717  -17.3889   18.8591 C   0  0  0  0  0  0  0  0  0  0  0  0
   12.4884  -18.4858   18.0018 C   0  0  0  0  0  0  0  0  0  0  0  0
   12.9712  -19.5106   18.5522 O   0  0  0  0  0  0  0  0  0  0  0  0
   10.6654  -16.5167   20.7417 C   0  0  0  0  0  0  0  0  0  0  0  0
   11.4822  -15.7533   21.3020 O   0  0  0  0  0  0  0  0  0  0  0  0
   12.4030  -18.5053   16.6237 O   0  0  0  0  0  0  0  0  0  0  0  0
    7.0684  -12.9079   19.1169 C   0  0  0  0  0  0  0  0  0  0  0  0
    8.1579  -13.6628   19.7962 C   0  0  0  0  0  0  0  0  0  0  0  0
    7.8557  -14.2112   21.1396 C   0  0  2  0  0  0  0  0  0  0  0  0
    7.3982  -13.0795   22.0351 C   0  0  0  0  0  0  0  0  0  0  0  0
    8.8791  -15.1047   21.7546 C   0  0  2  0  0  0  0  0  0  0  0  0
    9.2651  -16.2065   20.9160 N   0  0  0  0  0  0  0  0  0  0  0  0
    8.4299  -15.5393   23.0961 C   0  0  0  0  0  0  0  0  0  0  0  0
    7.3503  -16.1751   23.2798 O   0  0  0  0  0  0  0  0  0  0  0  0
    9.1994  -15.2604   24.2537 N   0  0  0  0  0  0  0  0  0  0  0  0
    8.7951  -15.7776   25.5749 C   0  0  1  0  0  0  0  0  0  0  0  0
    7.3683  -15.3297   25.7944 C   0  0  0  0  0  0  0  0  0  0  0  0
    7.2834  -13.9575   26.3569 C   0  0  0  0  0  0  0  0  0  0  0  0
    8.3903  -13.1641   26.5680 C   0  0  0  0  0  0  0  0  0  0  0  0
    8.2926  -11.8823   27.0949 C   0  0  0  0  0  0  0  0  0  0  0  0
    7.0624  -11.3528   27.4296 C   0  0  0  0  0  0  0  0  0  0  0  0
    5.9439  -12.1268   27.2275 C   0  0  0  0  0  0  0  0  0  0  0  0
    6.0524  -13.3947   26.7052 C   0  0  0  0  0  0  0  0  0  0  0  0
    8.8164  -17.2597   25.5867 C   0  0  0  0  0  0  0  0  0  0  0  0
    8.8549  -18.0288   24.4477 O   0  0  0  0  0  0  0  0  0  0  0  0
    8.7975  -17.8310   26.7180 O   0  0  0  0  0  0  0  0  0  0  0  0
  2  6  1  0
  2  1  1  6
  3  2  1  0
  4  3  1  0
  5  4  2  0
  6 14  1  0
  7  6  2  0
  8  4  1  0
 10  9  1  0
 10 11  1  0
 11 12  1  1
 13 11  1  0
 13 14  1  6
 15 13  1  0
 16 15  2  0
 17 15  1  0
 18 26  1  0
 18 17  1  0
 18 19  1  6
 20 19  1  0
 21 20  2  0
 22 21  1  0
 23 22  2  0
 23 24  1  0
 24 25  2  0
 25 20  1  0
 26 27  1  0
 28 26  2  0
M  END
$$$$
