DIF.pdb
     RDKit          3D

 28 28  0  0  1  0  0  0  0  0999 V2000
    8.2111  -18.7949   20.1147 N   0  0  0  0  0  0  0  0  0  0  0  0
    9.5679  -18.3549   19.7875 C   0  0  1  0  0  0  0  0  0  0  0  0
    9.6454  -18.2913   18.3035 C   0  0  0  0  0  0  0  0  0  0  0  0
    9.7565  -19.5491   17.5842 C   0  0  0  0  0  0  0  0  0  0  0  0
   10.4974  -19.5799   16.5662 O   0  0  0  0  0  0  0  0  0  0  0  0
    9.8606  -17.0705   20.4820 C   0  0  0  0  0  0  0  0  0  0  0  0
   10.9951  -16.5444   20.4838 O   0  0  0  0  0  0  0  0  0  0  0  0
    9.1152  -20.7253   17.9191 O   0  0  0  0  0  0  0  0  0  0  0  0
    6.8068  -12.7395   19.6516 C   0  0  0  0  0  0  0  0  0  0  0  0
    7.9358  -13.6460   20.0008 C   0  0  0  0  0  0  0  0  0  0  0  0
    8.0575  -14.0470   21.4225 C   0  0  2  0  0  0  0  0  0  0  0  0
    8.1219  -12.7983   22.2761 C   0  0  0  0  0  0  0  0  0  0  0  0
    9.0906  -15.0703   21.7537 C   0  0  2  0  0  0  0  0  0  0  0  0
    8.8201  -16.3676   21.1967 N   0  0  0  0  0  0  0  0  0  0  0  0
    9.3095  -15.1124   23.2167 C   0  0  0  0  0  0  0  0  0  0  0  0
   10.0156  -14.2548   23.8244 O   0  0  0  0  0  0  0  0  0  0  0  0
    8.7295  -16.1292   24.0166 N   0  0  0  0  0  0  0  0  0  0  0  0
    8.9756  -16.1824   25.4702 C   0  0  1  0  0  0  0  0  0  0  0  0
    7.6372  -15.9742   26.1413 C   0  0  0  0  0  0  0  0  0  0  0  0
    7.2651  -14.5390   26.2342 C   0  0  0  0  0  0  0  0  0  0  0  0
    6.0261  -14.0606   25.8668 C   0  0  0  0  0  0  0  0  0  0  0  0
    5.6947  -12.7147   25.9606 C   0  0  0  0  0  0  0  0  0  0  0  0
    6.6117  -11.7973   26.4331 C   0  0  0  0  0  0  0  0  0  0  0  0
    7.8548  -12.2523   26.8057 C   0  0  0  0  0  0  0  0  0  0  0  0
    8.1720  -13.5873   26.7085 C   0  0  0  0  0  0  0  0  0  0  0  0
    9.4839  -17.5169   25.8675 C   0  0  0  0  0  0  0  0  0  0  0  0
    9.8641  -17.8350   27.1498 O   0  0  0  0  0  0  0  0  0  0  0  0
    9.5655  -18.3997   24.9616 O   0  0  0  0  0  0  0  0  0  0  0  0
  2  6  1  0
  2  1  1  6
  3  2  1  0
  4  3  1  0
  5  4  2  0
  6 14  1  0
  7  6  2  0
  8  4  1  0
 10  9  1  0
 10 11  1  0
 11 12  1  1
 13 11  1  0
 13 14  1  1
 15 13  1  0
 16 15  2  0
 17 15  1  0
 18 26  1  0
 18 17  1  0
 18 19  1  1
 20 19  1  0
 21 20  2  0
 22 21  1  0
 23 22  2  0
 23 24  1  0
 24 25  2  0
 25 20  1  0
 26 27  1  0
 28 26  2  0
M  END
$$$$
