DIF.pdb
     RDKit          3D

 28 28  0  0  1  0  0  0  0  0999 V2000
   10.8382  -15.4026   18.1393 N   0  0  0  0  0  0  0  0  0  0  0  0
   10.9743  -16.1843   19.3688 C   0  0  1  0  0  0  0  0  0  0  0  0
   12.4196  -16.1724   19.7196 C   0  0  0  0  0  0  0  0  0  0  0  0
   13.3258  -16.9038   18.8502 C   0  0  0  0  0  0  0  0  0  0  0  0
   14.5295  -17.0033   19.2072 O   0  0  0  0  0  0  0  0  0  0  0  0
   10.0742  -15.6307   20.4182 C   0  0  0  0  0  0  0  0  0  0  0  0
    9.9457  -14.4037   20.6224 O   0  0  0  0  0  0  0  0  0  0  0  0
   12.9826  -17.5045   17.6552 O   0  0  0  0  0  0  0  0  0  0  0  0
    5.2905  -18.3102   22.1440 C   0  0  0  0  0  0  0  0  0  0  0  0
    6.6967  -17.8656   21.9363 C   0  0  0  0  0  0  0  0  0  0  0  0
    6.9462  -16.4046   21.9510 C   0  0  2  0  0  0  0  0  0  0  0  0
    6.2924  -15.7875   20.7329 C   0  0  0  0  0  0  0  0  0  0  0  0
    8.3491  -15.9573   22.1869 C   0  0  2  0  0  0  0  0  0  0  0  0
    9.2975  -16.5116   21.2598 N   0  0  0  0  0  0  0  0  0  0  0  0
    8.7252  -16.1961   23.5982 C   0  0  0  0  0  0  0  0  0  0  0  0
    9.8192  -16.7418   23.9283 O   0  0  0  0  0  0  0  0  0  0  0  0
    7.8657  -15.8188   24.6606 N   0  0  0  0  0  0  0  0  0  0  0  0
    8.2898  -15.9635   26.0662 C   0  0  1  0  0  0  0  0  0  0  0  0
    7.2221  -15.3034   26.9082 C   0  0  0  0  0  0  0  0  0  0  0  0
    7.1500  -13.8363   26.6869 C   0  0  0  0  0  0  0  0  0  0  0  0
    8.1601  -13.1186   26.0840 C   0  0  0  0  0  0  0  0  0  0  0  0
    8.0759  -11.7463   25.8845 C   0  0  0  0  0  0  0  0  0  0  0  0
    6.9582  -11.0452   26.2908 C   0  0  0  0  0  0  0  0  0  0  0  0
    5.9374  -11.7410   26.8950 C   0  0  0  0  0  0  0  0  0  0  0  0
    6.0316  -13.0998   27.0874 C   0  0  0  0  0  0  0  0  0  0  0  0
    8.3556  -17.3939   26.4495 C   0  0  0  0  0  0  0  0  0  0  0  0
    7.9139  -18.4178   25.6452 O   0  0  0  0  0  0  0  0  0  0  0  0
    8.8489  -17.6681   27.5844 O   0  0  0  0  0  0  0  0  0  0  0  0
  2  6  1  0
  2  1  1  6
  3  2  1  0
  4  3  1  0
  5  4  2  0
  6 14  1  0
  7  6  2  0
  8  4  1  0
 10  9  1  0
 10 11  1  0
 11 12  1  6
 13 11  1  0
 13 14  1  6
 15 13  1  0
 16 15  2  0
 17 15  1  0
 18 26  1  0
 18 17  1  0
 18 19  1  1
 20 19  1  0
 21 20  2  0
 22 21  1  0
 23 22  2  0
 23 24  1  0
 24 25  2  0
 25 20  1  0
 26 27  1  0
 28 26  2  0
M  END
$$$$
