DIF.pdb
     RDKit          3D

 28 28  0  0  1  0  0  0  0  0999 V2000
   12.5501  -17.1082   19.3254 N   0  0  0  0  0  0  0  0  0  0  0  0
   11.1831  -17.4389   19.7294 C   0  0  1  0  0  0  0  0  0  0  0  0
   11.2147  -18.8433   20.2183 C   0  0  0  0  0  0  0  0  0  0  0  0
   11.0956  -19.9000   19.2278 C   0  0  0  0  0  0  0  0  0  0  0  0
   10.8689  -19.5642   18.0353 O   0  0  0  0  0  0  0  0  0  0  0  0
   10.6991  -16.4435   20.7257 C   0  0  0  0  0  0  0  0  0  0  0  0
   11.4594  -15.8736   21.5387 O   0  0  0  0  0  0  0  0  0  0  0  0
   11.2084  -21.2531   19.4794 O   0  0  0  0  0  0  0  0  0  0  0  0
    7.1123  -12.4421   19.7612 C   0  0  0  0  0  0  0  0  0  0  0  0
    8.1823  -13.3308   20.2937 C   0  0  0  0  0  0  0  0  0  0  0  0
    7.8068  -14.2418   21.4009 C   0  0  2  0  0  0  0  0  0  0  0  0
    7.2065  -13.4216   22.5229 C   0  0  0  0  0  0  0  0  0  0  0  0
    8.8312  -15.2307   21.8443 C   0  0  2  0  0  0  0  0  0  0  0  0
    9.2995  -16.0907   20.7920 N   0  0  0  0  0  0  0  0  0  0  0  0
    8.3326  -15.9837   23.0167 C   0  0  0  0  0  0  0  0  0  0  0  0
    7.6290  -17.0305   22.9045 O   0  0  0  0  0  0  0  0  0  0  0  0
    8.6248  -15.5618   24.3382 N   0  0  0  0  0  0  0  0  0  0  0  0
    8.3606  -16.4438   25.4910 C   0  0  1  0  0  0  0  0  0  0  0  0
    8.5180  -15.5920   26.7297 C   0  0  0  0  0  0  0  0  0  0  0  0
    7.7308  -14.3343   26.6586 C   0  0  0  0  0  0  0  0  0  0  0  0
    6.3647  -14.2941   26.8351 C   0  0  0  0  0  0  0  0  0  0  0  0
    5.6440  -13.1084   26.7656 C   0  0  0  0  0  0  0  0  0  0  0  0
    6.2841  -11.9116   26.5131 C   0  0  0  0  0  0  0  0  0  0  0  0
    7.6474  -11.9278   26.3336 C   0  0  0  0  0  0  0  0  0  0  0  0
    8.3509  -13.1078   26.4046 C   0  0  0  0  0  0  0  0  0  0  0  0
    6.9671  -16.9483   25.4567 C   0  0  0  0  0  0  0  0  0  0  0  0
    6.0149  -16.4926   24.5759 O   0  0  0  0  0  0  0  0  0  0  0  0
    6.6556  -17.8486   26.2927 O   0  0  0  0  0  0  0  0  0  0  0  0
  2  6  1  0
  2  1  1  1
  3  2  1  0
  4  3  1  0
  5  4  2  0
  6 14  1  0
  7  6  2  0
  8  4  1  0
 10  9  1  0
 10 11  1  0
 11 12  1  1
 13 11  1  0
 13 14  1  6
 15 13  1  0
 16 15  2  0
 17 15  1  0
 18 26  1  0
 18 17  1  0
 18 19  1  1
 20 19  1  0
 21 20  2  0
 22 21  1  0
 23 22  2  0
 23 24  1  0
 24 25  2  0
 25 20  1  0
 26 27  1  0
 28 26  2  0
M  END
$$$$
