ARW.pdb
     RDKit          3D

 31 32  0  0  1  0  0  0  0  0999 V2000
    7.3094  -20.2130   23.7309 C   0  0  0  0  0  0  0  0  0  0  0  0
    7.2079  -19.9285   22.2512 C   0  0  2  0  0  0  0  0  0  0  0  0
    7.6522  -21.1053   21.5443 N   0  0  0  0  0  0  0  0  0  0  0  0
    8.0838  -18.7754   21.9292 C   0  0  0  0  0  0  0  0  0  0  0  0
    9.3031  -18.8833   21.7122 O   0  0  0  0  0  0  0  0  0  0  0  0
    8.4396  -14.9390   17.4198 N   0  0  0  0  0  0  0  0  0  0  0  0
    8.0864  -13.5817   17.3051 C   0  0  0  0  0  0  0  0  0  0  0  0
    8.5734  -12.8581   16.3615 N   0  0  0  0  0  0  0  0  0  0  0  0
    7.1823  -13.0253   18.2500 N   0  0  0  0  0  0  0  0  0  0  0  0
    6.6985  -13.7567   19.3856 C   0  0  0  0  0  0  0  0  0  0  0  0
    7.8482  -14.3598   20.1552 C   0  0  0  0  0  0  0  0  0  0  0  0
    7.3070  -15.1615   21.2997 C   0  0  0  0  0  0  0  0  0  0  0  0
    8.2857  -16.2704   21.7127 C   0  0  2  0  0  0  0  0  0  0  0  0
    7.5213  -17.4731   21.8606 N   0  0  0  0  0  0  0  0  0  0  0  0
    9.0912  -15.8832   22.8669 C   0  0  0  0  0  0  0  0  0  0  0  0
    9.8861  -14.9080   22.7135 O   0  0  0  0  0  0  0  0  0  0  0  0
    8.2718  -11.8850   16.1835 N   0  0  0  0  0  0  0  0  0  0  0  0
    9.0769  -16.4888   24.1508 C   0  0  1  0  0  0  0  0  0  0  0  0
    9.9310  -16.0174   25.2393 C   0  0  0  0  0  0  0  0  0  0  0  0
    9.1328  -15.7853   26.4845 C   0  0  0  0  0  0  0  0  0  0  0  0
    7.9294  -14.9461   26.3143 C   0  0  0  0  0  0  0  0  0  0  0  0
    6.6341  -15.4491   26.0981 N   0  0  0  0  0  0  0  0  0  0  0  0
    5.7893  -14.4215   26.0267 C   0  0  0  0  0  0  0  0  0  0  0  0
    6.4368  -13.2621   26.1807 C   0  0  0  0  0  0  0  0  0  0  0  0
    6.0126  -11.9399   26.1765 C   0  0  0  0  0  0  0  0  0  0  0  0
    6.8921  -10.8962   26.3473 C   0  0  0  0  0  0  0  0  0  0  0  0
    8.2226  -11.2075   26.5244 C   0  0  0  0  0  0  0  0  0  0  0  0
    8.6343  -12.5305   26.5271 C   0  0  0  0  0  0  0  0  0  0  0  0
    7.7743  -13.5829   26.3601 C   0  0  0  0  0  0  0  0  0  0  0  0
   11.0750  -16.9184   25.3577 O   0  0  0  0  0  0  0  0  0  0  0  0
   12.0609  -16.7719   26.1180 O   0  0  0  0  0  0  0  0  0  0  0  0
  2  1  1  1
  3  2  1  0
  4  2  1  0
  4  5  2  0
  7  6  1  0
  8  7  2  0
  9  7  1  0
 10 11  1  0
 10  9  1  0
 11 12  1  0
 13 12  1  1
 13 14  1  0
 14  4  1  0
 15 13  1  0
 16 15  2  0
 17 15  1  0
 18 29  1  0
 18 17  1  0
 18 19  1  1
 20 19  1  0
 21 20  2  0
 22 21  1  0
 23 22  1  0
 23 28  2  0
 24 23  1  0
 25 24  2  0
 25 26  1  0
 26 27  2  0
 27 28  1  0
 28 20  1  0
 29 31  1  0
 30 29  2  0
M  END
$$$$
