ARW.pdb
     RDKit          3D

 31 32  0  0  1  0  0  0  0  0999 V2000
    8.7447  -12.2420   19.9355 C   0  0  0  0  0  0  0  0  0  0  0  0
    8.5259  -13.5873   19.2851 C   0  0  2  0  0  0  0  0  0  0  0  0
    7.2399  -13.5574   18.6314 N   0  0  0  0  0  0  0  0  0  0  0  0
    8.5415  -14.6312   20.3389 C   0  0  0  0  0  0  0  0  0  0  0  0
    7.6691  -14.7262   21.2194 O   0  0  0  0  0  0  0  0  0  0  0  0
    9.1087  -20.5948   17.7371 N   0  0  0  0  0  0  0  0  0  0  0  0
    9.9540  -19.9615   16.8071 C   0  0  0  0  0  0  0  0  0  0  0  0
    9.7773  -20.1282   15.5454 N   0  0  0  0  0  0  0  0  0  0  0  0
   11.0055  -19.1348   17.2871 N   0  0  0  0  0  0  0  0  0  0  0  0
   11.2614  -18.9370   18.6851 C   0  0  0  0  0  0  0  0  0  0  0  0
   10.2998  -17.9263   19.2608 C   0  0  0  0  0  0  0  0  0  0  0  0
   10.6222  -17.7098   20.7081 C   0  0  0  0  0  0  0  0  0  0  0  0
    9.7151  -16.6349   21.3243 C   0  0  2  0  0  0  0  0  0  0  0  0
    9.5979  -15.5802   20.3616 N   0  0  0  0  0  0  0  0  0  0  0  0
   10.1698  -16.2354   22.6527 C   0  0  0  0  0  0  0  0  0  0  0  0
   11.1808  -15.4733   22.7105 O   0  0  0  0  0  0  0  0  0  0  0  0
   10.3482  -19.6504   14.8276 N   0  0  0  0  0  0  0  0  0  0  0  0
    9.5942  -16.6141   23.8940 C   0  0  1  0  0  0  0  0  0  0  0  0
   10.1645  -16.1941   25.1726 C   0  0  0  0  0  0  0  0  0  0  0  0
    9.7122  -14.8131   25.5330 C   0  0  0  0  0  0  0  0  0  0  0  0
    8.2710  -14.6783   25.8257 C   0  0  0  0  0  0  0  0  0  0  0  0
    7.3311  -15.7149   25.6845 N   0  0  0  0  0  0  0  0  0  0  0  0
    6.1396  -15.2588   26.0679 C   0  0  0  0  0  0  0  0  0  0  0  0
    6.2216  -13.9822   26.4562 C   0  0  0  0  0  0  0  0  0  0  0  0
    5.2764  -13.0781   26.9222 C   0  0  0  0  0  0  0  0  0  0  0  0
    5.6112  -11.7857   27.2531 C   0  0  0  0  0  0  0  0  0  0  0  0
    6.9292  -11.4119   27.1055 C   0  0  0  0  0  0  0  0  0  0  0  0
    7.8638  -12.3227   26.6399 C   0  0  0  0  0  0  0  0  0  0  0  0
    7.5504  -13.6135   26.3068 C   0  0  0  0  0  0  0  0  0  0  0  0
    9.9135  -17.2403   26.1610 O   0  0  0  0  0  0  0  0  0  0  0  0
    9.2476  -18.2873   25.9823 O   0  0  0  0  0  0  0  0  0  0  0  0
  2  1  1  1
  3  2  1  0
  4  2  1  0
  4  5  2  0
  7  6  1  0
  8  7  2  0
  9  7  1  0
 10 11  1  0
 10  9  1  0
 11 12  1  0
 13 12  1  6
 13 14  1  0
 14  4  1  0
 15 13  1  0
 16 15  2  0
 17 15  1  0
 18 29  1  0
 18 17  1  0
 18 19  1  6
 20 19  1  0
 21 20  2  0
 22 21  1  0
 23 22  1  0
 23 28  2  0
 24 23  1  0
 25 24  2  0
 25 26  1  0
 26 27  2  0
 27 28  1  0
 28 20  1  0
 29 31  1  0
 30 29  2  0
M  END
$$$$
