ARW.pdb
     RDKit          3D

 31 32  0  0  1  0  0  0  0  0999 V2000
    7.0515  -12.6565   19.3702 C   0  0  0  0  0  0  0  0  0  0  0  0
    8.4439  -13.2374   19.4404 C   0  0  2  0  0  0  0  0  0  0  0  0
    8.7343  -13.8422   18.1630 N   0  0  0  0  0  0  0  0  0  0  0  0
    8.4764  -14.2621   20.5125 C   0  0  0  0  0  0  0  0  0  0  0  0
    8.2557  -14.0063   21.7089 O   0  0  0  0  0  0  0  0  0  0  0  0
   11.8972  -21.5945   18.3768 N   0  0  0  0  0  0  0  0  0  0  0  0
   11.9761  -21.4196   19.7709 C   0  0  0  0  0  0  0  0  0  0  0  0
   12.6759  -22.2216   20.4907 N   0  0  0  0  0  0  0  0  0  0  0  0
   11.2693  -20.3413   20.3686 N   0  0  0  0  0  0  0  0  0  0  0  0
    9.8392  -20.3196   20.4847 C   0  0  0  0  0  0  0  0  0  0  0  0
    9.3914  -19.1170   21.2791 C   0  0  0  0  0  0  0  0  0  0  0  0
    9.3053  -17.9303   20.3680 C   0  0  0  0  0  0  0  0  0  0  0  0
    8.8071  -16.6878   21.1203 C   0  0  2  0  0  0  0  0  0  0  0  0
    8.7729  -15.6099   20.1770 N   0  0  0  0  0  0  0  0  0  0  0  0
    9.5760  -16.4436   22.3369 C   0  0  0  0  0  0  0  0  0  0  0  0
   10.8039  -16.1633   22.1958 O   0  0  0  0  0  0  0  0  0  0  0  0
   12.7884  -22.1103   21.5128 N   0  0  0  0  0  0  0  0  0  0  0  0
    9.0887  -16.4880   23.6697 C   0  0  2  0  0  0  0  0  0  0  0  0
    9.9635  -16.2783   24.8217 C   0  0  0  0  0  0  0  0  0  0  0  0
    9.8061  -14.8935   25.3688 C   0  0  0  0  0  0  0  0  0  0  0  0
    8.4170  -14.4847   25.6589 C   0  0  0  0  0  0  0  0  0  0  0  0
    7.3067  -15.3459   25.6012 N   0  0  0  0  0  0  0  0  0  0  0  0
    6.2216  -14.6593   25.9561 C   0  0  0  0  0  0  0  0  0  0  0  0
    6.5347  -13.3926   26.2472 C   0  0  0  0  0  0  0  0  0  0  0  0
    5.7725  -12.3039   26.6496 C   0  0  0  0  0  0  0  0  0  0  0  0
    6.3359  -11.0706   26.8808 C   0  0  0  0  0  0  0  0  0  0  0  0
    7.6961  -10.9479   26.6980 C   0  0  0  0  0  0  0  0  0  0  0  0
    8.4467  -12.0413   26.2965 C   0  0  0  0  0  0  0  0  0  0  0  0
    7.9046  -13.2769   26.0629 C   0  0  0  0  0  0  0  0  0  0  0  0
    9.7649  -17.3771   25.7638 O   0  0  0  0  0  0  0  0  0  0  0  0
    8.8740  -18.2569   25.7024 O   0  0  0  0  0  0  0  0  0  0  0  0
  2  1  1  6
  3  2  1  0
  4  2  1  0
  4  5  2  0
  7  6  1  0
  8  7  2  0
  9  7  1  0
 10 11  1  0
 10  9  1  0
 11 12  1  0
 13 12  1  6
 13 14  1  0
 14  4  1  0
 15 13  1  0
 16 15  2  0
 17 15  1  0
 18 29  1  0
 18 17  1  0
 18 19  1  1
 20 19  1  0
 21 20  2  0
 22 21  1  0
 23 22  1  0
 23 28  2  0
 24 23  1  0
 25 24  2  0
 25 26  1  0
 26 27  2  0
 27 28  1  0
 28 20  1  0
 29 31  1  0
 30 29  2  0
M  END
$$$$
