ARW.pdb
     RDKit          3D

 31 32  0  0  1  0  0  0  0  0999 V2000
    7.0430  -12.7087   19.6737 C   0  0  0  0  0  0  0  0  0  0  0  0
    8.4106  -13.3487   19.6460 C   0  0  2  0  0  0  0  0  0  0  0  0
    8.5411  -14.0565   18.3954 N   0  0  0  0  0  0  0  0  0  0  0  0
    8.5144  -14.2945   20.7840 C   0  0  0  0  0  0  0  0  0  0  0  0
    8.2456  -13.9836   21.9573 O   0  0  0  0  0  0  0  0  0  0  0  0
    9.3487  -17.8363   16.2769 N   0  0  0  0  0  0  0  0  0  0  0  0
    8.8099  -19.0787   16.6595 C   0  0  0  0  0  0  0  0  0  0  0  0
    7.9303  -19.6621   15.9267 N   0  0  0  0  0  0  0  0  0  0  0  0
    9.2551  -19.6768   17.8693 N   0  0  0  0  0  0  0  0  0  0  0  0
   10.1601  -19.0239   18.7713 C   0  0  0  0  0  0  0  0  0  0  0  0
    9.5156  -17.7985   19.3722 C   0  0  0  0  0  0  0  0  0  0  0  0
    9.5231  -17.9214   20.8656 C   0  0  0  0  0  0  0  0  0  0  0  0
    8.9349  -16.6675   21.5288 C   0  0  2  0  0  0  0  0  0  0  0  0
    8.9408  -15.6276   20.5432 N   0  0  0  0  0  0  0  0  0  0  0  0
    9.6034  -16.3536   22.7880 C   0  0  0  0  0  0  0  0  0  0  0  0
   10.6871  -15.7001   22.7176 O   0  0  0  0  0  0  0  0  0  0  0  0
    7.4883  -20.5612   16.1833 N   0  0  0  0  0  0  0  0  0  0  0  0
    9.1636  -16.7064   24.0910 C   0  0  1  0  0  0  0  0  0  0  0  0
    9.8917  -16.2990   25.2911 C   0  0  0  0  0  0  0  0  0  0  0  0
    8.9491  -16.0190   26.4202 C   0  0  0  0  0  0  0  0  0  0  0  0
    7.7643  -15.2115   26.0664 C   0  0  0  0  0  0  0  0  0  0  0  0
    6.5593  -15.7426   25.5728 N   0  0  0  0  0  0  0  0  0  0  0  0
    5.6982  -14.7415   25.3967 C   0  0  0  0  0  0  0  0  0  0  0  0
    6.2502  -13.5735   25.7404 C   0  0  0  0  0  0  0  0  0  0  0  0
    5.7750  -12.2688   25.7290 C   0  0  0  0  0  0  0  0  0  0  0  0
    6.5563  -11.2094   26.1279 C   0  0  0  0  0  0  0  0  0  0  0  0
    7.8405  -11.4866   26.5435 C   0  0  0  0  0  0  0  0  0  0  0  0
    8.3039  -12.7924   26.5508 C   0  0  0  0  0  0  0  0  0  0  0  0
    7.5412  -13.8601   26.1590 C   0  0  0  0  0  0  0  0  0  0  0  0
   10.9466  -17.2759   25.5505 O   0  0  0  0  0  0  0  0  0  0  0  0
   11.1069  -18.3707   24.9612 O   0  0  0  0  0  0  0  0  0  0  0  0
  2  1  1  6
  3  2  1  0
  4  2  1  0
  4  5  2  0
  7  6  1  0
  8  7  2  0
  9  7  1  0
 10 11  1  0
 10  9  1  0
 11 12  1  0
 13 12  1  6
 13 14  1  0
 14  4  1  0
 15 13  1  0
 16 15  2  0
 17 15  1  0
 18 29  1  0
 18 17  1  0
 18 19  1  6
 20 19  1  0
 21 20  2  0
 22 21  1  0
 23 22  1  0
 23 28  2  0
 24 23  1  0
 25 24  2  0
 25 26  1  0
 26 27  2  0
 27 28  1  0
 28 20  1  0
 29 31  1  0
 30 29  2  0
M  END
$$$$
