ARW.pdb
     RDKit          3D

 31 32  0  0  1  0  0  0  0  0999 V2000
    5.1537  -18.5893   23.0199 C   0  0  0  0  0  0  0  0  0  0  0  0
    5.8027  -18.7323   21.6637 C   0  0  2  0  0  0  0  0  0  0  0  0
    5.7081  -20.1182   21.2734 N   0  0  0  0  0  0  0  0  0  0  0  0
    7.2251  -18.3262   21.7738 C   0  0  0  0  0  0  0  0  0  0  0  0
    8.1139  -19.0670   22.2286 O   0  0  0  0  0  0  0  0  0  0  0  0
    8.2481  -12.9135   15.8941 N   0  0  0  0  0  0  0  0  0  0  0  0
    7.9548  -13.4534   17.1601 C   0  0  0  0  0  0  0  0  0  0  0  0
    6.7417  -13.7159   17.4926 N   0  0  0  0  0  0  0  0  0  0  0  0
    9.0226  -13.7033   18.0640 N   0  0  0  0  0  0  0  0  0  0  0  0
    9.6772  -14.9766   18.1596 C   0  0  0  0  0  0  0  0  0  0  0  0
    8.9391  -15.8800   19.1171 C   0  0  0  0  0  0  0  0  0  0  0  0
    9.0937  -15.3508   20.5105 C   0  0  0  0  0  0  0  0  0  0  0  0
    8.9138  -16.4657   21.5510 C   0  0  2  0  0  0  0  0  0  0  0  0
    7.6130  -17.0294   21.3438 N   0  0  0  0  0  0  0  0  0  0  0  0
    9.1953  -15.9973   22.9046 C   0  0  0  0  0  0  0  0  0  0  0  0
    9.0835  -14.7530   23.1185 O   0  0  0  0  0  0  0  0  0  0  0  0
    6.4675  -14.0013   18.4480 N   0  0  0  0  0  0  0  0  0  0  0  0
    9.5839  -16.7949   24.0129 C   0  0  1  0  0  0  0  0  0  0  0  0
   10.1791  -16.2138   25.2148 C   0  0  0  0  0  0  0  0  0  0  0  0
    9.2011  -16.2094   26.3484 C   0  0  0  0  0  0  0  0  0  0  0  0
    7.9717  -15.4244   26.1170 C   0  0  0  0  0  0  0  0  0  0  0  0
    6.7220  -15.9821   25.7932 N   0  0  0  0  0  0  0  0  0  0  0  0
    5.8333  -14.9949   25.6918 C   0  0  0  0  0  0  0  0  0  0  0  0
    6.4086  -13.8112   25.9264 C   0  0  0  0  0  0  0  0  0  0  0  0
    5.9193  -12.5117   25.9310 C   0  0  0  0  0  0  0  0  0  0  0  0
    6.7303  -11.4328   26.1958 C   0  0  0  0  0  0  0  0  0  0  0  0
    8.0591  -11.6850   26.4589 C   0  0  0  0  0  0  0  0  0  0  0  0
    8.5363  -12.9858   26.4519 C   0  0  0  0  0  0  0  0  0  0  0  0
    7.7447  -14.0726   26.1921 C   0  0  0  0  0  0  0  0  0  0  0  0
   11.4612  -16.8687   25.4634 O   0  0  0  0  0  0  0  0  0  0  0  0
   11.9394  -17.8339   24.8221 O   0  0  0  0  0  0  0  0  0  0  0  0
  2  1  1  1
  3  2  1  0
  4  2  1  0
  4  5  2  0
  7  6  1  0
  8  7  2  0
  9  7  1  0
 10 11  1  0
 10  9  1  0
 11 12  1  0
 13 12  1  6
 13 14  1  0
 14  4  1  0
 15 13  1  0
 16 15  2  0
 17 15  1  0
 18 29  1  0
 18 17  1  0
 18 19  1  6
 20 19  1  0
 21 20  2  0
 22 21  1  0
 23 22  1  0
 23 28  2  0
 24 23  1  0
 25 24  2  0
 25 26  1  0
 26 27  2  0
 27 28  1  0
 28 20  1  0
 29 31  1  0
 30 29  2  0
M  END
$$$$
