ARW.pdb
     RDKit          3D

 31 32  0  0  1  0  0  0  0  0999 V2000
    7.8657  -12.2634   20.3328 C   0  0  0  0  0  0  0  0  0  0  0  0
    8.1865  -13.4825   19.5011 C   0  0  2  0  0  0  0  0  0  0  0  0
    7.1372  -13.6378   18.5230 N   0  0  0  0  0  0  0  0  0  0  0  0
    8.2348  -14.6660   20.3941 C   0  0  0  0  0  0  0  0  0  0  0  0
    7.2236  -15.2974   20.7468 O   0  0  0  0  0  0  0  0  0  0  0  0
   11.2028  -19.1460   16.6265 N   0  0  0  0  0  0  0  0  0  0  0  0
   12.2468  -19.0627   17.5665 C   0  0  0  0  0  0  0  0  0  0  0  0
   13.4619  -18.9044   17.1799 N   0  0  0  0  0  0  0  0  0  0  0  0
   11.9342  -19.1565   18.9497 N   0  0  0  0  0  0  0  0  0  0  0  0
   10.5971  -19.0283   19.4541 C   0  0  0  0  0  0  0  0  0  0  0  0
   10.2531  -17.5758   19.6771 C   0  0  0  0  0  0  0  0  0  0  0  0
   10.7012  -17.1692   21.0480 C   0  0  0  0  0  0  0  0  0  0  0  0
    9.6629  -16.2630   21.7255 C   0  0  2  0  0  0  0  0  0  0  0  0
    9.4896  -15.1175   20.8825 N   0  0  0  0  0  0  0  0  0  0  0  0
   10.0099  -15.9827   23.1154 C   0  0  0  0  0  0  0  0  0  0  0  0
   10.9463  -15.1533   23.3194 O   0  0  0  0  0  0  0  0  0  0  0  0
   14.2680  -18.9308   17.8272 N   0  0  0  0  0  0  0  0  0  0  0  0
    9.4043  -16.5459   24.2694 C   0  0  1  0  0  0  0  0  0  0  0  0
    9.9068  -16.2800   25.6160 C   0  0  0  0  0  0  0  0  0  0  0  0
    8.7874  -16.2538   26.6099 C   0  0  0  0  0  0  0  0  0  0  0  0
    7.6095  -15.4570   26.2115 C   0  0  0  0  0  0  0  0  0  0  0  0
    6.4963  -15.9733   25.5244 N   0  0  0  0  0  0  0  0  0  0  0  0
    5.6098  -14.9925   25.3607 C   0  0  0  0  0  0  0  0  0  0  0  0
    6.0589  -13.8518   25.8939 C   0  0  0  0  0  0  0  0  0  0  0  0
    5.5212  -12.5738   25.9715 C   0  0  0  0  0  0  0  0  0  0  0  0
    6.1973  -11.5385   26.5740 C   0  0  0  0  0  0  0  0  0  0  0  0
    7.4394  -11.8124   27.1038 C   0  0  0  0  0  0  0  0  0  0  0  0
    7.9659  -13.0914   27.0207 C   0  0  0  0  0  0  0  0  0  0  0  0
    7.3079  -14.1351   26.4264 C   0  0  0  0  0  0  0  0  0  0  0  0
   11.0038  -17.2037   25.8949 O   0  0  0  0  0  0  0  0  0  0  0  0
   11.3580  -18.1733   25.1836 O   0  0  0  0  0  0  0  0  0  0  0  0
  2  1  1  1
  3  2  1  0
  4  2  1  0
  4  5  2  0
  7  6  1  0
  8  7  2  0
  9  7  1  0
 10 11  1  0
 10  9  1  0
 11 12  1  0
 13 12  1  6
 13 14  1  0
 14  4  1  0
 15 13  1  0
 16 15  2  0
 17 15  1  0
 18 29  1  0
 18 17  1  0
 18 19  1  1
 20 19  1  0
 21 20  2  0
 22 21  1  0
 23 22  1  0
 23 28  2  0
 24 23  1  0
 25 24  2  0
 25 26  1  0
 26 27  2  0
 27 28  1  0
 28 20  1  0
 29 31  1  0
 30 29  2  0
M  END
$$$$
