ARW.pdb
     RDKit          3D

 31 32  0  0  1  0  0  0  0  0999 V2000
    6.0444  -19.8438   26.0362 C   0  0  0  0  0  0  0  0  0  0  0  0
    5.8310  -20.1145   24.5658 C   0  0  2  0  0  0  0  0  0  0  0  0
    5.9330  -21.5390   24.3602 N   0  0  0  0  0  0  0  0  0  0  0  0
    6.8845  -19.4084   23.7963 C   0  0  0  0  0  0  0  0  0  0  0  0
    8.0818  -19.7425   23.8118 O   0  0  0  0  0  0  0  0  0  0  0  0
    7.1420  -12.3912   18.7895 N   0  0  0  0  0  0  0  0  0  0  0  0
    7.9432  -13.2946   18.0667 C   0  0  0  0  0  0  0  0  0  0  0  0
    8.7894  -12.8669   17.1995 N   0  0  0  0  0  0  0  0  0  0  0  0
    7.8006  -14.6870   18.3125 N   0  0  0  0  0  0  0  0  0  0  0  0
    6.9103  -15.2129   19.3072 C   0  0  0  0  0  0  0  0  0  0  0  0
    7.6869  -15.9187   20.3919 C   0  0  0  0  0  0  0  0  0  0  0  0
    6.7275  -16.6009   21.3190 C   0  0  0  0  0  0  0  0  0  0  0  0
    7.4717  -17.3844   22.4101 C   0  0  2  0  0  0  0  0  0  0  0  0
    6.5289  -18.2910   22.9949 N   0  0  0  0  0  0  0  0  0  0  0  0
    8.1626  -16.4976   23.3414 C   0  0  0  0  0  0  0  0  0  0  0  0
    7.6474  -15.3568   23.5404 O   0  0  0  0  0  0  0  0  0  0  0  0
    9.3804  -13.4959   16.6297 N   0  0  0  0  0  0  0  0  0  0  0  0
    9.3587  -16.7815   24.0515 C   0  0  1  0  0  0  0  0  0  0  0  0
   10.1317  -15.7345   24.7170 C   0  0  0  0  0  0  0  0  0  0  0  0
    9.6600  -15.5326   26.1235 C   0  0  0  0  0  0  0  0  0  0  0  0
    8.2903  -14.9971   26.2582 C   0  0  0  0  0  0  0  0  0  0  0  0
    7.1277  -15.7878   26.2906 N   0  0  0  0  0  0  0  0  0  0  0  0
    6.0770  -14.9858   26.4571 C   0  0  0  0  0  0  0  0  0  0  0  0
    6.4621  -13.7082   26.5375 C   0  0  0  0  0  0  0  0  0  0  0  0
    5.7585  -12.5218   26.6980 C   0  0  0  0  0  0  0  0  0  0  0  0
    6.3936  -11.3025   26.7395 C   0  0  0  0  0  0  0  0  0  0  0  0
    7.7658  -11.2951   26.6151 C   0  0  0  0  0  0  0  0  0  0  0  0
    8.4575  -12.4851   26.4556 C   0  0  0  0  0  0  0  0  0  0  0  0
    7.8436  -13.7084   26.4133 C   0  0  0  0  0  0  0  0  0  0  0  0
   11.5533  -16.0220   24.5417 O   0  0  0  0  0  0  0  0  0  0  0  0
   12.0439  -17.0175   23.9588 O   0  0  0  0  0  0  0  0  0  0  0  0
  2  1  1  1
  3  2  1  0
  4  2  1  0
  4  5  2  0
  7  6  1  0
  8  7  2  0
  9  7  1  0
 10 11  1  0
 10  9  1  0
 11 12  1  0
 13 12  1  6
 13 14  1  0
 14  4  1  0
 15 13  1  0
 16 15  2  0
 17 15  1  0
 18 29  1  0
 18 17  1  0
 18 19  1  1
 20 19  1  0
 21 20  2  0
 22 21  1  0
 23 22  1  0
 23 28  2  0
 24 23  1  0
 25 24  2  0
 25 26  1  0
 26 27  2  0
 27 28  1  0
 28 20  1  0
 29 31  1  0
 30 29  2  0
M  END
$$$$
