ARW.pdb
     RDKit          3D

 31 32  0  0  1  0  0  0  0  0999 V2000
    8.0398  -11.9714   20.1593 C   0  0  0  0  0  0  0  0  0  0  0  0
    8.1848  -13.2782   19.4163 C   0  0  2  0  0  0  0  0  0  0  0  0
    7.1111  -13.3610   18.4559 N   0  0  0  0  0  0  0  0  0  0  0  0
    8.0876  -14.3913   20.3919 C   0  0  0  0  0  0  0  0  0  0  0  0
    7.0603  -14.6375   21.0474 O   0  0  0  0  0  0  0  0  0  0  0  0
   13.0527  -19.0619   21.0235 N   0  0  0  0  0  0  0  0  0  0  0  0
   12.6522  -20.2434   21.6746 C   0  0  0  0  0  0  0  0  0  0  0  0
   13.4965  -20.9310   22.3568 N   0  0  0  0  0  0  0  0  0  0  0  0
   11.2988  -20.6628   21.5648 N   0  0  0  0  0  0  0  0  0  0  0  0
   10.3188  -19.9343   20.8112 C   0  0  0  0  0  0  0  0  0  0  0  0
    9.7922  -18.7702   21.6146 C   0  0  0  0  0  0  0  0  0  0  0  0
    9.8182  -17.5354   20.7661 C   0  0  0  0  0  0  0  0  0  0  0  0
    9.2397  -16.3302   21.5216 C   0  0  2  0  0  0  0  0  0  0  0  0
    9.2136  -15.2305   20.6035 N   0  0  0  0  0  0  0  0  0  0  0  0
    9.9387  -16.0907   22.7806 C   0  0  0  0  0  0  0  0  0  0  0  0
   11.0915  -15.5689   22.7092 O   0  0  0  0  0  0  0  0  0  0  0  0
   13.2642  -21.8408   22.7903 N   0  0  0  0  0  0  0  0  0  0  0  0
    9.4589  -16.3833   24.0843 C   0  0  2  0  0  0  0  0  0  0  0  0
   10.2988  -16.2322   25.2710 C   0  0  0  0  0  0  0  0  0  0  0  0
    9.8689  -15.0513   26.0847 C   0  0  0  0  0  0  0  0  0  0  0  0
    8.4261  -14.7406   26.0310 C   0  0  0  0  0  0  0  0  0  0  0  0
    7.4118  -15.7015   25.8707 N   0  0  0  0  0  0  0  0  0  0  0  0
    6.2337  -15.0803   25.9026 C   0  0  0  0  0  0  0  0  0  0  0  0
    6.3947  -13.7642   26.0734 C   0  0  0  0  0  0  0  0  0  0  0  0
    5.4952  -12.7100   26.1607 C   0  0  0  0  0  0  0  0  0  0  0  0
    5.9152  -11.4109   26.3282 C   0  0  0  0  0  0  0  0  0  0  0  0
    7.2723  -11.1860   26.4071 C   0  0  0  0  0  0  0  0  0  0  0  0
    8.1606  -12.2458   26.3189 C   0  0  0  0  0  0  0  0  0  0  0  0
    7.7620  -13.5454   26.1536 C   0  0  0  0  0  0  0  0  0  0  0  0
   10.3580  -17.5156   25.9665 O   0  0  0  0  0  0  0  0  0  0  0  0
   11.0832  -17.7952   26.9501 O   0  0  0  0  0  0  0  0  0  0  0  0
  2  1  1  1
  3  2  1  0
  4  2  1  0
  4  5  2  0
  7  6  1  0
  8  7  2  0
  9  7  1  0
 10 11  1  0
 10  9  1  0
 11 12  1  0
 13 12  1  6
 13 14  1  0
 14  4  1  0
 15 13  1  0
 16 15  2  0
 17 15  1  0
 18 29  1  0
 18 17  1  0
 18 19  1  1
 20 19  1  0
 21 20  2  0
 22 21  1  0
 23 22  1  0
 23 28  2  0
 24 23  1  0
 25 24  2  0
 25 26  1  0
 26 27  2  0
 27 28  1  0
 28 20  1  0
 29 31  1  0
 30 29  2  0
M  END
$$$$
