GTP.pdb
     RDKit          3D

 19 19  0  0  1  0  0  0  0  0999 V2000
   27.5436  -25.7662  -16.8923 N   0  0  0  0  0  0  0  0  0  0  0  0
   26.6521  -24.6515  -16.9862 C   0  0  0  0  0  0  0  0  0  0  0  0
   26.7652  -23.7748  -15.7953 C   0  0  0  0  0  0  0  0  0  0  0  0
   26.9533  -24.2899  -14.6848 O   0  0  0  0  0  0  0  0  0  0  0  0
   28.1378  -19.8334  -15.9106 C   0  0  0  0  0  0  0  0  0  0  0  0
   26.7631  -20.0624  -15.2953 C   0  0  1  0  0  0  0  0  0  0  0  0
   25.7827  -19.9513  -16.2793 O   0  0  0  0  0  0  0  0  0  0  0  0
   26.6652  -21.4899  -14.7420 C   0  0  2  0  0  0  0  0  0  0  0  0
   26.6629  -22.3666  -15.9016 N   0  0  0  0  0  0  0  0  0  0  0  0
   25.3838  -21.5928  -14.0156 C   0  0  0  0  0  0  0  0  0  0  0  0
   24.4519  -22.2511  -14.5515 O   0  0  0  0  0  0  0  0  0  0  0  0
   25.1513  -20.9927  -12.7547 N   0  0  0  0  0  0  0  0  0  0  0  0
   25.9905  -20.0800  -12.0019 C   0  0  0  0  0  0  0  0  0  0  0  0
   25.7045  -20.4178  -10.5338 C   0  0  0  0  0  0  0  0  0  0  0  0
   24.5487  -21.3692  -10.5458 C   0  0  0  0  0  0  0  0  0  0  0  0
   23.9755  -21.1736  -11.9189 C   0  0  1  0  0  0  0  0  0  0  0  0
   23.1213  -19.9701  -11.9039 C   0  0  0  0  0  0  0  0  0  0  0  0
   23.5621  -18.8655  -12.6189 O   0  0  0  0  0  0  0  0  0  0  0  0
   22.0356  -19.8663  -11.3003 O   0  0  0  0  0  0  0  0  0  0  0  0
  1  2  1  0
  2  3  1  0
  3  4  2  0
  3  9  1  0
  6  5  1  6
  6  7  1  0
  8  6  1  0
  8  9  1  6
 10 11  2  0
 10  8  1  0
 12 10  1  0
 13 12  1  0
 14 15  1  0
 14 13  1  0
 15 16  1  0
 16 12  1  0
 16 17  1  1
 18 17  1  0
 19 17  2  0
M  END
$$$$
