GTP.pdb
     RDKit          3D

 19 19  0  0  1  0  0  0  0  0999 V2000
   46.2576  -11.2330   -6.4341 N   0  0  0  0  0  0  0  0  0  0  0  0
   44.9420  -11.7404   -6.6750 C   0  0  0  0  0  0  0  0  0  0  0  0
   44.2712  -10.9908   -7.7648 C   0  0  0  0  0  0  0  0  0  0  0  0
   44.7787   -9.9363   -8.1705 O   0  0  0  0  0  0  0  0  0  0  0  0
   40.6427  -10.9579  -11.1580 C   0  0  0  0  0  0  0  0  0  0  0  0
   41.4107  -11.6683  -10.0505 C   0  0  1  0  0  0  0  0  0  0  0  0
   42.2586  -12.6251  -10.6049 O   0  0  0  0  0  0  0  0  0  0  0  0
   42.3076  -10.6694   -9.3078 C   0  0  2  0  0  0  0  0  0  0  0  0
   43.0673  -11.4541   -8.3484 N   0  0  0  0  0  0  0  0  0  0  0  0
   41.4206   -9.7183   -8.6085 C   0  0  0  0  0  0  0  0  0  0  0  0
   40.8863  -10.0923   -7.5297 O   0  0  0  0  0  0  0  0  0  0  0  0
   41.1426   -8.4150   -9.0861 N   0  0  0  0  0  0  0  0  0  0  0  0
   41.5768   -7.7729  -10.3122 C   0  0  0  0  0  0  0  0  0  0  0  0
   41.7155   -6.2916   -9.9413 C   0  0  0  0  0  0  0  0  0  0  0  0
   41.1402   -6.1537   -8.5661 C   0  0  0  0  0  0  0  0  0  0  0  0
   40.3310   -7.4091   -8.4204 C   0  0  1  0  0  0  0  0  0  0  0  0
   39.0342   -7.2128   -9.0973 C   0  0  0  0  0  0  0  0  0  0  0  0
   38.0981   -6.4087   -8.4626 O   0  0  0  0  0  0  0  0  0  0  0  0
   38.7126   -7.7115  -10.1935 O   0  0  0  0  0  0  0  0  0  0  0  0
  1  2  1  0
  2  3  1  0
  3  4  2  0
  3  9  1  0
  6  5  1  6
  6  7  1  0
  8  6  1  0
  8  9  1  1
 10 11  2  0
 10  8  1  0
 12 10  1  0
 13 12  1  0
 14 15  1  0
 14 13  1  0
 15 16  1  0
 16 12  1  0
 16 17  1  6
 18 17  1  0
 19 17  2  0
M  END
$$$$
