GTP.pdb
     RDKit          3D

 19 19  0  0  1  0  0  0  0  0999 V2000
   20.8506  -22.0617  -11.2275 N   0  0  0  0  0  0  0  0  0  0  0  0
   21.1739  -21.5816  -12.5356 C   0  0  0  0  0  0  0  0  0  0  0  0
   22.3904  -20.7336  -12.5083 C   0  0  0  0  0  0  0  0  0  0  0  0
   22.4623  -19.8111  -11.6849 O   0  0  0  0  0  0  0  0  0  0  0  0
   25.8295  -21.5162  -11.7188 C   0  0  0  0  0  0  0  0  0  0  0  0
   25.8385  -21.0492  -13.1688 C   0  0  1  0  0  0  0  0  0  0  0  0
   25.6728  -22.1427  -14.0165 O   0  0  0  0  0  0  0  0  0  0  0  0
   24.6508  -20.1132  -13.4277 C   0  0  2  0  0  0  0  0  0  0  0  0
   23.4669  -20.9563  -13.4007 N   0  0  0  0  0  0  0  0  0  0  0  0
   24.8367  -19.5287  -14.7709 C   0  0  0  0  0  0  0  0  0  0  0  0
   24.0518  -19.8928  -15.6876 O   0  0  0  0  0  0  0  0  0  0  0  0
   25.8462  -18.5851  -15.0783 N   0  0  0  0  0  0  0  0  0  0  0  0
   26.9636  -18.1373  -14.2690 C   0  0  0  0  0  0  0  0  0  0  0  0
   27.1701  -16.6735  -14.6762 C   0  0  0  0  0  0  0  0  0  0  0  0
   26.2808  -16.4434  -15.8582 C   0  0  0  0  0  0  0  0  0  0  0  0
   25.9782  -17.8391  -16.3193 C   0  0  1  0  0  0  0  0  0  0  0  0
   27.1118  -18.3209  -17.1324 C   0  0  0  0  0  0  0  0  0  0  0  0
   27.3588  -17.6695  -18.3326 O   0  0  0  0  0  0  0  0  0  0  0  0
   27.8651  -19.2659  -16.8273 O   0  0  0  0  0  0  0  0  0  0  0  0
  1  2  1  0
  2  3  1  0
  3  4  2  0
  3  9  1  0
  6  5  1  1
  6  7  1  0
  8  6  1  0
  8  9  1  6
 10 11  2  0
 10  8  1  0
 12 10  1  0
 13 12  1  0
 14 15  1  0
 14 13  1  0
 15 16  1  0
 16 12  1  0
 16 17  1  6
 18 17  1  0
 19 17  2  0
M  END
$$$$
