GTP.pdb
     RDKit          3D

 19 19  0  0  1  0  0  0  0  0999 V2000
   16.8767  -15.3066  -15.2504 N   0  0  0  0  0  0  0  0  0  0  0  0
   16.5582  -13.9498  -14.9284 C   0  0  0  0  0  0  0  0  0  0  0  0
   17.4164  -13.0053  -15.6839 C   0  0  0  0  0  0  0  0  0  0  0  0
   18.3781  -13.4487  -16.3265 O   0  0  0  0  0  0  0  0  0  0  0  0
   17.9928   -8.5574  -17.6856 C   0  0  0  0  0  0  0  0  0  0  0  0
   17.1475   -9.6320  -17.0136 C   0  0  1  0  0  0  0  0  0  0  0  0
   16.4307  -10.3381  -17.9776 O   0  0  0  0  0  0  0  0  0  0  0  0
   18.0535  -10.6513  -16.3107 C   0  0  2  0  0  0  0  0  0  0  0  0
   17.1601  -11.6128  -15.6857 N   0  0  0  0  0  0  0  0  0  0  0  0
   18.8235   -9.9205  -15.2845 C   0  0  0  0  0  0  0  0  0  0  0  0
   18.2491   -9.6505  -14.1954 O   0  0  0  0  0  0  0  0  0  0  0  0
   20.1670   -9.5109  -15.4616 N   0  0  0  0  0  0  0  0  0  0  0  0
   21.0113   -9.6101  -16.6370 C   0  0  0  0  0  0  0  0  0  0  0  0
   22.4242   -9.8162  -16.0783 C   0  0  0  0  0  0  0  0  0  0  0  0
   22.3192   -9.6067  -14.5997 C   0  0  0  0  0  0  0  0  0  0  0  0
   21.0135   -8.8798  -14.4621 C   0  0  1  0  0  0  0  0  0  0  0  0
   21.2387   -7.4509  -14.7554 C   0  0  0  0  0  0  0  0  0  0  0  0
   21.9031   -6.6995  -13.7963 O   0  0  0  0  0  0  0  0  0  0  0  0
   20.8799   -6.8651  -15.7954 O   0  0  0  0  0  0  0  0  0  0  0  0
  1  2  1  0
  2  3  1  0
  3  4  2  0
  3  9  1  0
  6  5  1  6
  6  7  1  0
  8  6  1  0
  8  9  1  1
 10 11  2  0
 10  8  1  0
 12 10  1  0
 13 12  1  0
 14 15  1  0
 14 13  1  0
 15 16  1  0
 16 12  1  0
 16 17  1  6
 18 17  1  0
 19 17  2  0
M  END
$$$$
