GTP.pdb
     RDKit          3D

 19 19  0  0  1  0  0  0  0  0999 V2000
   20.5002  -18.1590  -16.1769 N   0  0  0  0  0  0  0  0  0  0  0  0
   20.8944  -19.3610  -15.5092 C   0  0  0  0  0  0  0  0  0  0  0  0
   22.2054  -19.1934  -14.8361 C   0  0  0  0  0  0  0  0  0  0  0  0
   22.7869  -18.1027  -14.9150 O   0  0  0  0  0  0  0  0  0  0  0  0
   25.6999  -21.2809  -11.9776 C   0  0  0  0  0  0  0  0  0  0  0  0
   24.3332  -21.3511  -12.6471 C   0  0  1  0  0  0  0  0  0  0  0  0
   23.3330  -21.1589  -11.6961 O   0  0  0  0  0  0  0  0  0  0  0  0
   24.1882  -20.2149  -13.6678 C   0  0  2  0  0  0  0  0  0  0  0  0
   22.8032  -20.2505  -14.1083 N   0  0  0  0  0  0  0  0  0  0  0  0
   25.0950  -20.5169  -14.7933 C   0  0  0  0  0  0  0  0  0  0  0  0
   24.6749  -21.2839  -15.7012 O   0  0  0  0  0  0  0  0  0  0  0  0
   26.4046  -19.9907  -14.9029 N   0  0  0  0  0  0  0  0  0  0  0  0
   27.1988  -19.2872  -13.9138 C   0  0  0  0  0  0  0  0  0  0  0  0
   28.0442  -18.3024  -14.7302 C   0  0  0  0  0  0  0  0  0  0  0  0
   27.8260  -18.6619  -16.1669 C   0  0  0  0  0  0  0  0  0  0  0  0
   27.2602  -20.0489  -16.0770 C   0  0  1  0  0  0  0  0  0  0  0  0
   28.3747  -20.9998  -15.8984 C   0  0  0  0  0  0  0  0  0  0  0  0
   29.2151  -21.2091  -16.9827 O   0  0  0  0  0  0  0  0  0  0  0  0
   28.6216  -21.6299  -14.8517 O   0  0  0  0  0  0  0  0  0  0  0  0
  1  2  1  0
  2  3  1  0
  3  4  2  0
  3  9  1  0
  6  5  1  1
  6  7  1  0
  8  6  1  0
  8  9  1  6
 10 11  2  0
 10  8  1  0
 12 10  1  0
 13 12  1  0
 14 15  1  0
 14 13  1  0
 15 16  1  0
 16 12  1  0
 16 17  1  1
 18 17  1  0
 19 17  2  0
M  END
$$$$
