GTP.pdb
     RDKit          3D

 19 19  0  0  1  0  0  0  0  0999 V2000
   14.3233   -8.2094   -7.7005 N   0  0  0  0  0  0  0  0  0  0  0  0
   15.3301   -7.2406   -8.0070 C   0  0  0  0  0  0  0  0  0  0  0  0
   16.0713   -7.6107   -9.2372 C   0  0  0  0  0  0  0  0  0  0  0  0
   16.1163   -8.8008   -9.5772 O   0  0  0  0  0  0  0  0  0  0  0  0
   16.9353   -6.9489  -13.7541 C   0  0  0  0  0  0  0  0  0  0  0  0
   16.3465   -6.6466  -12.3819 C   0  0  1  0  0  0  0  0  0  0  0  0
   15.2556   -7.4804  -12.1439 O   0  0  0  0  0  0  0  0  0  0  0  0
   17.3769   -6.9541  -11.2876 C   0  0  2  0  0  0  0  0  0  0  0  0
   16.7258   -6.6352  -10.0275 N   0  0  0  0  0  0  0  0  0  0  0  0
   18.5332   -6.0633  -11.5102 C   0  0  0  0  0  0  0  0  0  0  0  0
   18.4610   -4.8817  -11.0768 O   0  0  0  0  0  0  0  0  0  0  0  0
   19.7120   -6.4679  -12.1816 N   0  0  0  0  0  0  0  0  0  0  0  0
   19.9812   -7.6934  -12.9094 C   0  0  0  0  0  0  0  0  0  0  0  0
   21.4753   -7.9536  -12.6836 C   0  0  0  0  0  0  0  0  0  0  0  0
   22.0110   -6.7297  -12.0081 C   0  0  0  0  0  0  0  0  0  0  0  0
   20.9472   -5.7081  -12.2858 C   0  0  1  0  0  0  0  0  0  0  0  0
   21.1519   -5.1755  -13.6470 C   0  0  0  0  0  0  0  0  0  0  0  0
   20.2861   -5.6117  -14.6399 O   0  0  0  0  0  0  0  0  0  0  0  0
   22.0401   -4.3653  -13.9761 O   0  0  0  0  0  0  0  0  0  0  0  0
  1  2  1  0
  2  3  1  0
  3  4  2  0
  3  9  1  0
  6  5  1  6
  6  7  1  0
  8  6  1  0
  8  9  1  1
 10 11  2  0
 10  8  1  0
 12 10  1  0
 13 12  1  0
 14 15  1  0
 14 13  1  0
 15 16  1  0
 16 12  1  0
 16 17  1  6
 18 17  1  0
 19 17  2  0
M  END
$$$$
