GTP.pdb
     RDKit          3D

 19 19  0  0  1  0  0  0  0  0999 V2000
   15.1612  -12.6465  -15.5653 N   0  0  0  0  0  0  0  0  0  0  0  0
   15.6539  -11.3041  -15.5305 C   0  0  0  0  0  0  0  0  0  0  0  0
   17.1359  -11.2771  -15.5807 C   0  0  0  0  0  0  0  0  0  0  0  0
   17.7717  -12.2189  -15.0880 O   0  0  0  0  0  0  0  0  0  0  0  0
   19.4902  -10.9228  -18.5317 C   0  0  0  0  0  0  0  0  0  0  0  0
   19.6900   -9.7322  -17.6025 C   0  0  1  0  0  0  0  0  0  0  0  0
   18.8518   -8.6882  -17.9886 O   0  0  0  0  0  0  0  0  0  0  0  0
   19.2866  -10.1083  -16.1709 C   0  0  2  0  0  0  0  0  0  0  0  0
   17.8358  -10.2009  -16.1780 N   0  0  0  0  0  0  0  0  0  0  0  0
   19.7286   -9.0110  -15.2873 C   0  0  0  0  0  0  0  0  0  0  0  0
   18.8757   -8.1485  -14.9441 O   0  0  0  0  0  0  0  0  0  0  0  0
   21.0545   -8.8804  -14.8088 N   0  0  0  0  0  0  0  0  0  0  0  0
   22.2366   -9.6467  -15.1548 C   0  0  0  0  0  0  0  0  0  0  0  0
   23.0676   -9.6729  -13.8664 C   0  0  0  0  0  0  0  0  0  0  0  0
   22.3939   -8.7285  -12.9202 C   0  0  0  0  0  0  0  0  0  0  0  0
   21.5259   -7.9119  -13.8323 C   0  0  1  0  0  0  0  0  0  0  0  0
   22.3561   -6.8626  -14.4552 C   0  0  0  0  0  0  0  0  0  0  0  0
   22.5661   -6.9440  -15.8246 O   0  0  0  0  0  0  0  0  0  0  0  0
   22.8838   -5.9094  -13.8499 O   0  0  0  0  0  0  0  0  0  0  0  0
  1  2  1  0
  2  3  1  0
  3  4  2  0
  3  9  1  0
  6  5  1  6
  6  7  1  0
  8  6  1  0
  8  9  1  6
 10 11  2  0
 10  8  1  0
 12 10  1  0
 13 12  1  0
 14 15  1  0
 14 13  1  0
 15 16  1  0
 16 12  1  0
 16 17  1  6
 18 17  1  0
 19 17  2  0
M  END
$$$$
