GTP.pdb
     RDKit          3D

 19 19  0  0  1  0  0  0  0  0999 V2000
   21.0887  -16.7491  -15.8854 N   0  0  0  0  0  0  0  0  0  0  0  0
   21.3683  -15.5058  -16.5351 C   0  0  0  0  0  0  0  0  0  0  0  0
   22.4921  -14.7983  -15.8747 C   0  0  0  0  0  0  0  0  0  0  0  0
   22.4418  -14.5975  -14.6535 O   0  0  0  0  0  0  0  0  0  0  0  0
   26.0847  -15.6365  -15.4112 C   0  0  0  0  0  0  0  0  0  0  0  0
   25.9831  -14.4198  -16.3224 C   0  0  1  0  0  0  0  0  0  0  0  0
   25.8592  -14.8331  -17.6473 O   0  0  0  0  0  0  0  0  0  0  0  0
   24.7147  -13.6212  -15.9946 C   0  0  2  0  0  0  0  0  0  0  0  0
   23.6166  -14.3495  -16.6087 N   0  0  0  0  0  0  0  0  0  0  0  0
   24.8612  -12.2896  -16.6156 C   0  0  0  0  0  0  0  0  0  0  0  0
   24.2008  -12.0498  -17.6622 O   0  0  0  0  0  0  0  0  0  0  0  0
   25.7010  -11.2749  -16.0969 N   0  0  0  0  0  0  0  0  0  0  0  0
   26.6229  -11.3268  -14.9782 C   0  0  0  0  0  0  0  0  0  0  0  0
   26.5908   -9.9118  -14.3885 C   0  0  0  0  0  0  0  0  0  0  0  0
   25.8028   -9.0798  -15.3518 C   0  0  0  0  0  0  0  0  0  0  0  0
   25.8190   -9.9153  -16.5984 C   0  0  1  0  0  0  0  0  0  0  0  0
   27.1020   -9.6954  -17.2940 C   0  0  0  0  0  0  0  0  0  0  0  0
   27.3180   -8.4442  -17.8542 O   0  0  0  0  0  0  0  0  0  0  0  0
   28.0069  -10.5434  -17.4188 O   0  0  0  0  0  0  0  0  0  0  0  0
  1  2  1  0
  2  3  1  0
  3  4  2  0
  3  9  1  0
  6  5  1  1
  6  7  1  0
  8  6  1  0
  8  9  1  6
 10 11  2  0
 10  8  1  0
 12 10  1  0
 13 12  1  0
 14 15  1  0
 14 13  1  0
 15 16  1  0
 16 12  1  0
 16 17  1  1
 18 17  1  0
 19 17  2  0
M  END
$$$$
