LFQ.pdb
     RDKit          3D

 29 29  0  0  1  0  0  0  0  0999 V2000
    8.2206  -14.7249   17.2414 C   0  0  0  0  0  0  0  0  0  0  0  0
    8.2114  -13.9011   18.5058 C   0  0  2  0  0  0  0  0  0  0  0  0
    8.1708  -12.4432   18.0792 C   0  0  0  0  0  0  0  0  0  0  0  0
    9.4314  -14.0960   19.3402 C   0  0  0  0  0  0  0  0  0  0  0  0
    9.3254  -15.2714   20.2835 C   0  0  2  0  0  0  0  0  0  0  0  0
    8.1770  -16.0837   20.0385 N   0  0  0  0  0  0  0  0  0  0  0  0
    9.4468  -14.8181   21.6933 C   0  0  0  0  0  0  0  0  0  0  0  0
   10.4938  -14.1987   22.0022 O   0  0  0  0  0  0  0  0  0  0  0  0
    8.4501  -15.0555   22.6682 N   0  0  0  0  0  0  0  0  0  0  0  0
    8.4861  -14.4278   23.9677 C   0  0  1  0  0  0  0  0  0  0  0  0
    7.0982  -13.9622   24.3484 C   0  0  0  0  0  0  0  0  0  0  0  0
    7.0879  -13.2435   25.6442 C   0  0  0  0  0  0  0  0  0  0  0  0
    6.3277  -13.7177   26.6914 C   0  0  0  0  0  0  0  0  0  0  0  0
    6.2838  -13.0850   27.9190 C   0  0  0  0  0  0  0  0  0  0  0  0
    7.0190  -11.9387   28.1222 C   0  0  0  0  0  0  0  0  0  0  0  0
    7.7855  -11.4492   27.0862 C   0  0  0  0  0  0  0  0  0  0  0  0
    7.8186  -12.0961   25.8605 C   0  0  0  0  0  0  0  0  0  0  0  0
    8.8780  -15.4449   25.0102 C   0  0  0  0  0  0  0  0  0  0  0  0
    8.8035  -15.0588   26.1921 O   0  0  0  0  0  0  0  0  0  0  0  0
   11.5508  -21.1690   23.5027 N   0  0  0  0  0  0  0  0  0  0  0  0
   11.3800  -19.9723   22.7737 C   0  0  0  0  0  0  0  0  0  0  0  0
   11.8217  -19.9200   21.5989 O   0  0  0  0  0  0  0  0  0  0  0  0
   10.6916  -18.7747   23.3615 C   0  0  0  0  0  0  0  0  0  0  0  0
   10.3372  -18.9970   24.7898 C   0  0  0  0  0  0  0  0  0  0  0  0
    9.6691  -17.8278   25.4747 C   0  0  2  0  0  0  0  0  0  0  0  0
    9.2947  -16.7285   24.6720 N   0  0  0  0  0  0  0  0  0  0  0  0
   10.2864  -17.5707   26.7557 C   0  0  0  0  0  0  0  0  0  0  0  0
   10.6377  -16.4374   27.1753 O   0  0  0  0  0  0  0  0  0  0  0  0
   10.5306  -18.6344   27.6282 O   0  0  0  0  0  0  0  0  0  0  0  0
  2  4  1  0
  2  3  1  6
  2  1  1  0
  5  6  1  1
  5  4  1  0
  7  5  1  0
  8  7  2  0
  9  7  1  0
 10  9  1  0
 11 12  1  0
 10 11  1  1
 12 17  2  0
 13 12  1  0
 13 14  2  0
 14 15  1  0
 15 16  2  0
 17 16  1  0
 18 10  1  0
 18 26  1  0
 19 18  2  0
 21 22  2  0
 21 20  1  0
 23 21  1  0
 24 23  1  0
 25 24  1  6
 25 26  1  0
 27 29  1  0
 27 25  1  0
 28 27  2  0
M  END
$$$$
