LFQ.pdb
     RDKit          3D

 29 29  0  0  1  0  0  0  0  0999 V2000
    9.0286  -19.8383   19.0514 C   0  0  0  0  0  0  0  0  0  0  0  0
   10.2808  -18.9986   19.1179 C   0  0  2  0  0  0  0  0  0  0  0  0
   11.4509  -19.9631   19.2171 C   0  0  0  0  0  0  0  0  0  0  0  0
   10.3249  -18.1073   20.3122 C   0  0  0  0  0  0  0  0  0  0  0  0
    9.1181  -17.2055   20.4263 C   0  0  2  0  0  0  0  0  0  0  0  0
    8.8187  -16.5152   19.2129 N   0  0  0  0  0  0  0  0  0  0  0  0
    9.2478  -16.3116   21.6060 C   0  0  0  0  0  0  0  0  0  0  0  0
   10.3952  -15.8714   21.8612 O   0  0  0  0  0  0  0  0  0  0  0  0
    8.1524  -15.9521   22.4252 N   0  0  0  0  0  0  0  0  0  0  0  0
    8.3002  -15.0637   23.5536 C   0  0  1  0  0  0  0  0  0  0  0  0
    6.9594  -14.4583   23.9057 C   0  0  0  0  0  0  0  0  0  0  0  0
    7.0369  -13.5943   25.1070 C   0  0  0  0  0  0  0  0  0  0  0  0
    7.3907  -12.2681   24.9827 C   0  0  0  0  0  0  0  0  0  0  0  0
    7.4772  -11.4210   26.0708 C   0  0  0  0  0  0  0  0  0  0  0  0
    7.2039  -11.9007   27.3322 C   0  0  0  0  0  0  0  0  0  0  0  0
    6.8483  -13.2248   27.4762 C   0  0  0  0  0  0  0  0  0  0  0  0
    6.7661  -14.0616   26.3740 C   0  0  0  0  0  0  0  0  0  0  0  0
    8.7251  -15.8531   24.7666 C   0  0  0  0  0  0  0  0  0  0  0  0
    8.0551  -16.8761   25.0035 O   0  0  0  0  0  0  0  0  0  0  0  0
   14.0898  -17.6821   24.3895 N   0  0  0  0  0  0  0  0  0  0  0  0
   14.0984  -16.3394   24.8253 C   0  0  0  0  0  0  0  0  0  0  0  0
   15.0705  -15.6124   24.5018 O   0  0  0  0  0  0  0  0  0  0  0  0
   12.9873  -15.7661   25.6562 C   0  0  0  0  0  0  0  0  0  0  0  0
   11.9056  -16.7632   25.8813 C   0  0  0  0  0  0  0  0  0  0  0  0
   10.6205  -16.2004   26.4418 C   0  0  2  0  0  0  0  0  0  0  0  0
    9.7945  -15.4628   25.5663 N   0  0  0  0  0  0  0  0  0  0  0  0
   10.8280  -15.7014   27.7820 C   0  0  0  0  0  0  0  0  0  0  0  0
   10.4772  -14.5649   28.1935 O   0  0  0  0  0  0  0  0  0  0  0  0
   11.4636  -16.5106   28.7273 O   0  0  0  0  0  0  0  0  0  0  0  0
  2  4  1  0
  2  3  1  1
  2  1  1  0
  5  6  1  6
  5  4  1  0
  7  5  1  0
  8  7  2  0
  9  7  1  0
 10  9  1  0
 11 12  1  0
 10 11  1  1
 12 17  2  0
 13 12  1  0
 13 14  2  0
 14 15  1  0
 15 16  2  0
 17 16  1  0
 18 10  1  0
 18 26  1  0
 19 18  2  0
 21 22  2  0
 21 20  1  0
 23 21  1  0
 24 23  1  0
 25 24  1  6
 25 26  1  0
 27 29  1  0
 27 25  1  0
 28 27  2  0
M  END
$$$$
