LFQ.pdb
     RDKit          3D

 29 29  0  0  1  0  0  0  0  0999 V2000
    7.3264  -14.1993   18.3317 C   0  0  0  0  0  0  0  0  0  0  0  0
    8.2081  -13.8524   19.5064 C   0  0  2  0  0  0  0  0  0  0  0  0
    8.7172  -12.4402   19.2708 C   0  0  0  0  0  0  0  0  0  0  0  0
    9.3939  -14.7472   19.6323 C   0  0  0  0  0  0  0  0  0  0  0  0
    9.2205  -15.8204   20.6815 C   0  0  2  0  0  0  0  0  0  0  0  0
    8.0746  -16.6421   20.4574 N   0  0  0  0  0  0  0  0  0  0  0  0
    9.2743  -15.2285   22.0433 C   0  0  0  0  0  0  0  0  0  0  0  0
   10.3364  -14.6429   22.3662 O   0  0  0  0  0  0  0  0  0  0  0  0
    8.1989  -15.3021   22.9590 N   0  0  0  0  0  0  0  0  0  0  0  0
    8.2080  -14.5802   24.2092 C   0  0  1  0  0  0  0  0  0  0  0  0
    6.8997  -13.8408   24.3813 C   0  0  0  0  0  0  0  0  0  0  0  0
    6.9166  -12.9469   25.5630 C   0  0  0  0  0  0  0  0  0  0  0  0
    5.9760  -13.0999   26.5587 C   0  0  0  0  0  0  0  0  0  0  0  0
    5.9486  -12.2930   27.6800 C   0  0  0  0  0  0  0  0  0  0  0  0
    6.8863  -11.2953   27.8255 C   0  0  0  0  0  0  0  0  0  0  0  0
    7.8351  -11.1272   26.8397 C   0  0  0  0  0  0  0  0  0  0  0  0
    7.8488  -11.9453   25.7207 C   0  0  0  0  0  0  0  0  0  0  0  0
    8.2815  -15.5566   25.3565 C   0  0  0  0  0  0  0  0  0  0  0  0
    8.8662  -15.1441   26.3761 O   0  0  0  0  0  0  0  0  0  0  0  0
    5.3030  -21.3184   25.1795 N   0  0  0  0  0  0  0  0  0  0  0  0
    6.6268  -21.2658   24.6922 C   0  0  0  0  0  0  0  0  0  0  0  0
    7.0468  -22.2251   23.9984 O   0  0  0  0  0  0  0  0  0  0  0  0
    7.5343  -20.1050   24.9797 C   0  0  0  0  0  0  0  0  0  0  0  0
    6.8767  -19.1062   25.8659 C   0  0  0  0  0  0  0  0  0  0  0  0
    7.7172  -17.8977   26.2053 C   0  0  2  0  0  0  0  0  0  0  0  0
    7.7321  -16.8323   25.2791 N   0  0  0  0  0  0  0  0  0  0  0  0
    8.9634  -18.3021   26.8148 C   0  0  0  0  0  0  0  0  0  0  0  0
    9.0683  -18.9205   27.9059 O   0  0  0  0  0  0  0  0  0  0  0  0
   10.1704  -18.0036   26.1773 O   0  0  0  0  0  0  0  0  0  0  0  0
  2  4  1  0
  2  3  1  6
  2  1  1  0
  5  6  1  6
  5  4  1  0
  7  5  1  0
  8  7  2  0
  9  7  1  0
 10  9  1  0
 11 12  1  0
 10 11  1  1
 12 17  2  0
 13 12  1  0
 13 14  2  0
 14 15  1  0
 15 16  2  0
 17 16  1  0
 18 10  1  0
 18 26  1  0
 19 18  2  0
 21 22  2  0
 21 20  1  0
 23 21  1  0
 24 23  1  0
 25 24  1  6
 25 26  1  0
 27 29  1  0
 27 25  1  0
 28 27  2  0
M  END
$$$$
