LFQ.pdb
     RDKit          3D

 29 29  0  0  1  0  0  0  0  0999 V2000
    7.3432  -14.5606   17.1054 C   0  0  0  0  0  0  0  0  0  0  0  0
    7.9968  -14.0019   18.3456 C   0  0  2  0  0  0  0  0  0  0  0  0
    8.2400  -12.5246   18.0857 C   0  0  0  0  0  0  0  0  0  0  0  0
    9.3136  -14.6323   18.6477 C   0  0  0  0  0  0  0  0  0  0  0  0
    9.2268  -15.7190   19.6939 C   0  0  2  0  0  0  0  0  0  0  0  0
    8.0757  -16.5502   19.5430 N   0  0  0  0  0  0  0  0  0  0  0  0
    9.3727  -15.1418   21.0552 C   0  0  0  0  0  0  0  0  0  0  0  0
   10.4510  -14.5515   21.3089 O   0  0  0  0  0  0  0  0  0  0  0  0
    8.3655  -15.2338   22.0438 N   0  0  0  0  0  0  0  0  0  0  0  0
    8.4435  -14.5020   23.2858 C   0  0  1  0  0  0  0  0  0  0  0  0
    7.1796  -14.7209   24.0875 C   0  0  0  0  0  0  0  0  0  0  0  0
    7.0361  -13.7321   25.1818 C   0  0  0  0  0  0  0  0  0  0  0  0
    6.2755  -14.0341   26.2907 C   0  0  0  0  0  0  0  0  0  0  0  0
    6.1103  -13.1476   27.3376 C   0  0  0  0  0  0  0  0  0  0  0  0
    6.7195  -11.9137   27.2891 C   0  0  0  0  0  0  0  0  0  0  0  0
    7.4843  -11.5938   26.1878 C   0  0  0  0  0  0  0  0  0  0  0  0
    7.6400  -12.4947   25.1457 C   0  0  0  0  0  0  0  0  0  0  0  0
    9.5652  -15.0547   24.1290 C   0  0  0  0  0  0  0  0  0  0  0  0
   10.5237  -14.2826   24.3206 O   0  0  0  0  0  0  0  0  0  0  0  0
    9.8146  -14.8407   29.5434 N   0  0  0  0  0  0  0  0  0  0  0  0
   10.5584  -16.0400   29.5087 C   0  0  0  0  0  0  0  0  0  0  0  0
   11.0470  -16.4714   30.5826 O   0  0  0  0  0  0  0  0  0  0  0  0
   10.7770  -16.8033   28.2347 C   0  0  0  0  0  0  0  0  0  0  0  0
   10.0821  -16.1583   27.0874 C   0  0  0  0  0  0  0  0  0  0  0  0
   10.1751  -16.9062   25.7781 C   0  0  2  0  0  0  0  0  0  0  0  0
    9.5297  -16.3414   24.6567 N   0  0  0  0  0  0  0  0  0  0  0  0
   10.0600  -18.3298   25.9983 C   0  0  0  0  0  0  0  0  0  0  0  0
    9.1972  -19.0767   25.4678 O   0  0  0  0  0  0  0  0  0  0  0  0
   10.9560  -18.9678   26.8600 O   0  0  0  0  0  0  0  0  0  0  0  0
  2  4  1  0
  2  3  1  6
  2  1  1  0
  5  6  1  1
  5  4  1  0
  7  5  1  0
  8  7  2  0
  9  7  1  0
 10  9  1  0
 11 12  1  0
 10 11  1  1
 12 17  2  0
 13 12  1  0
 13 14  2  0
 14 15  1  0
 15 16  2  0
 17 16  1  0
 18 10  1  0
 18 26  1  0
 19 18  2  0
 21 22  2  0
 21 20  1  0
 23 21  1  0
 24 23  1  0
 25 24  1  1
 25 26  1  0
 27 29  1  0
 27 25  1  0
 28 27  2  0
M  END
$$$$
