LFQ.pdb
     RDKit          3D

 29 29  0  0  1  0  0  0  0  0999 V2000
    7.7734  -14.3891   18.2922 C   0  0  0  0  0  0  0  0  0  0  0  0
    7.7737  -13.5307   19.5335 C   0  0  2  0  0  0  0  0  0  0  0  0
    7.9723  -12.0958   19.0745 C   0  0  0  0  0  0  0  0  0  0  0  0
    8.8809  -13.8635   20.4748 C   0  0  0  0  0  0  0  0  0  0  0  0
    8.7417  -15.2336   21.0963 C   0  0  2  0  0  0  0  0  0  0  0  0
    7.4484  -15.8068   20.9031 N   0  0  0  0  0  0  0  0  0  0  0  0
    9.1769  -15.2058   22.5167 C   0  0  0  0  0  0  0  0  0  0  0  0
   10.3384  -14.7893   22.7465 O   0  0  0  0  0  0  0  0  0  0  0  0
    8.3485  -15.6212   23.5852 N   0  0  0  0  0  0  0  0  0  0  0  0
    8.8069  -15.6185   24.9542 C   0  0  1  0  0  0  0  0  0  0  0  0
    7.6279  -15.4507   25.8869 C   0  0  0  0  0  0  0  0  0  0  0  0
    7.2928  -14.0246   26.1095 C   0  0  0  0  0  0  0  0  0  0  0  0
    8.1913  -13.1945   26.7442 C   0  0  0  0  0  0  0  0  0  0  0  0
    7.9271  -11.8581   26.9757 C   0  0  0  0  0  0  0  0  0  0  0  0
    6.7288  -11.3186   26.5649 C   0  0  0  0  0  0  0  0  0  0  0  0
    5.8174  -12.1337   25.9282 C   0  0  0  0  0  0  0  0  0  0  0  0
    6.0979  -13.4726   25.7036 C   0  0  0  0  0  0  0  0  0  0  0  0
    9.4073  -16.9610   25.2892 C   0  0  0  0  0  0  0  0  0  0  0  0
    8.6765  -17.9458   25.0710 O   0  0  0  0  0  0  0  0  0  0  0  0
   15.4692  -17.8282   24.1182 N   0  0  0  0  0  0  0  0  0  0  0  0
   15.1071  -19.0719   24.6792 C   0  0  0  0  0  0  0  0  0  0  0  0
   15.9379  -20.0131   24.6326 O   0  0  0  0  0  0  0  0  0  0  0  0
   13.7692  -19.2945   25.3227 C   0  0  0  0  0  0  0  0  0  0  0  0
   12.9136  -18.0799   25.2340 C   0  0  0  0  0  0  0  0  0  0  0  0
   11.5573  -18.2012   25.8884 C   0  0  2  0  0  0  0  0  0  0  0  0
   10.6920  -17.0887   25.8075 N   0  0  0  0  0  0  0  0  0  0  0  0
   11.6624  -18.9060   27.1455 C   0  0  0  0  0  0  0  0  0  0  0  0
   11.1572  -18.5248   28.2333 O   0  0  0  0  0  0  0  0  0  0  0  0
   12.3711  -20.1088   27.2034 O   0  0  0  0  0  0  0  0  0  0  0  0
  2  4  1  0
  2  3  1  6
  2  1  1  0
  5  6  1  1
  5  4  1  0
  7  5  1  0
  8  7  2  0
  9  7  1  0
 10  9  1  0
 11 12  1  0
 10 11  1  1
 12 17  2  0
 13 12  1  0
 13 14  2  0
 14 15  1  0
 15 16  2  0
 17 16  1  0
 18 10  1  0
 18 26  1  0
 19 18  2  0
 21 22  2  0
 21 20  1  0
 23 21  1  0
 24 23  1  0
 25 24  1  1
 25 26  1  0
 27 29  1  0
 27 25  1  0
 28 27  2  0
M  END
$$$$
