VGT.pdb
     RDKit          3D

 19 18  0  0  1  0  0  0  0  0999 V2000
   22.1127  -13.2070  -17.7514 C   0  0  0  0  0  0  0  0  0  0  0  0
   23.3714  -12.4391  -18.0935 C   0  0  2  0  0  0  0  0  0  0  0  0
   24.1822  -13.2629  -19.0361 C   0  0  0  0  0  0  0  0  0  0  0  0
   24.1044  -11.9665  -16.8795 C   0  0  2  0  0  0  0  0  0  0  0  0
   24.7299  -13.0912  -16.2186 N   0  0  0  0  0  0  0  0  0  0  0  0
   23.2688  -11.2280  -15.9184 C   0  0  0  0  0  0  0  0  0  0  0  0
   22.6067  -11.8138  -14.9997 O   0  0  0  0  0  0  0  0  0  0  0  0
   23.1535   -9.8260  -15.9604 N   0  0  0  0  0  0  0  0  0  0  0  0
   22.3041   -9.1012  -15.0026 C   0  0  0  0  0  0  0  0  0  0  0  0
   22.4539   -7.6424  -15.1655 C   0  0  0  0  0  0  0  0  0  0  0  0
   23.2673   -7.2159  -16.0231 O   0  0  0  0  0  0  0  0  0  0  0  0
   19.6804   -5.4605  -16.0678 C   0  0  0  0  0  0  0  0  0  0  0  0
   20.3145   -4.8250  -14.8741 C   0  0  1  0  0  0  0  0  0  0  0  0
   19.5527   -5.1323  -13.7241 O   0  0  0  0  0  0  0  0  0  0  0  0
   21.7311   -5.2902  -14.6262 C   0  0  2  0  0  0  0  0  0  0  0  0
   21.7331   -6.7041  -14.4102 N   0  0  0  0  0  0  0  0  0  0  0  0
   22.4160   -4.5222  -13.5918 C   0  0  0  0  0  0  0  0  0  0  0  0
   22.7090   -5.0286  -12.4846 O   0  0  0  0  0  0  0  0  0  0  0  0
   22.7578   -3.2024  -13.8209 O   0  0  0  0  0  0  0  0  0  0  0  0
  2  1  1  1
  2  4  1  0
  3  2  1  0
  4  5  1  1
  6  4  1  0
  6  7  2  0
  8  6  1  0
  9  8  1  0
  9 10  1  0
 10 11  2  0
 10 16  1  0
 13 12  1  6
 13 15  1  0
 14 13  1  0
 15 17  1  0
 15 16  1  1
 17 18  2  0
 17 19  1  0
M  END
$$$$
