VGT.pdb
     RDKit          3D

 19 18  0  0  1  0  0  0  0  0999 V2000
   18.7626  -11.0812  -19.5087 C   0  0  0  0  0  0  0  0  0  0  0  0
   19.2300  -10.2809  -18.3121 C   0  0  2  0  0  0  0  0  0  0  0  0
   20.1367   -9.1999  -18.7956 C   0  0  0  0  0  0  0  0  0  0  0  0
   19.7980  -11.1425  -17.2306 C   0  0  2  0  0  0  0  0  0  0  0  0
   18.8490  -12.1775  -16.8823 N   0  0  0  0  0  0  0  0  0  0  0  0
   20.1970  -10.4071  -16.0193 C   0  0  0  0  0  0  0  0  0  0  0  0
   19.3512  -10.0173  -15.1486 O   0  0  0  0  0  0  0  0  0  0  0  0
   21.5426  -10.0914  -15.7533 N   0  0  0  0  0  0  0  0  0  0  0  0
   21.9156   -9.2414  -14.6120 C   0  0  0  0  0  0  0  0  0  0  0  0
   22.0216   -7.8278  -15.0214 C   0  0  0  0  0  0  0  0  0  0  0  0
   22.5092   -7.5659  -16.1495 O   0  0  0  0  0  0  0  0  0  0  0  0
   19.4467   -5.7104  -15.8779 C   0  0  0  0  0  0  0  0  0  0  0  0
   20.1566   -4.9407  -14.8127 C   0  0  1  0  0  0  0  0  0  0  0  0
   19.4722   -5.1033  -13.5871 O   0  0  0  0  0  0  0  0  0  0  0  0
   21.5871   -5.3818  -14.6036 C   0  0  2  0  0  0  0  0  0  0  0  0
   21.6050   -6.7578  -14.2138 N   0  0  0  0  0  0  0  0  0  0  0  0
   22.3390   -4.4961  -13.7209 C   0  0  0  0  0  0  0  0  0  0  0  0
   22.7519   -4.8805  -12.6028 O   0  0  0  0  0  0  0  0  0  0  0  0
   22.6118   -3.1982  -14.1106 O   0  0  0  0  0  0  0  0  0  0  0  0
  2  1  1  6
  2  4  1  0
  3  2  1  0
  4  5  1  1
  6  4  1  0
  6  7  2  0
  8  6  1  0
  9  8  1  0
  9 10  1  0
 10 11  2  0
 10 16  1  0
 13 12  1  6
 13 15  1  0
 14 13  1  0
 15 17  1  0
 15 16  1  1
 17 18  2  0
 17 19  1  0
M  END
$$$$
