HTV.pdb
     RDKit          3D

 25 25  0  0  1  0  0  0  0  0999 V2000
    8.7017  -16.6213   19.6906 N   0  0  0  0  0  0  0  0  0  0  0  0
    8.3826  -15.4328   20.4394 C   0  0  1  0  0  0  0  0  0  0  0  0
    7.2357  -14.7089   19.7557 C   0  0  0  0  0  0  0  0  0  0  0  0
    7.6945  -14.0875   18.4878 C   0  0  0  0  0  0  0  0  0  0  0  0
    8.9620  -14.1526   17.9409 C   0  0  0  0  0  0  0  0  0  0  0  0
    8.9936  -13.4690   16.7907 N   0  0  0  0  0  0  0  0  0  0  0  0
    7.7557  -12.9734   16.6083 C   0  0  0  0  0  0  0  0  0  0  0  0
    6.9763  -13.3438   17.6254 N   0  0  0  0  0  0  0  0  0  0  0  0
    8.0132  -15.8160   21.8332 C   0  0  0  0  0  0  0  0  0  0  0  0
    6.8702  -16.2484   22.1029 O   0  0  0  0  0  0  0  0  0  0  0  0
    7.3743  -18.0351   23.0739 C   0  0  0  0  0  0  0  0  0  0  0  0
    8.4237  -17.7254   24.1376 C   0  0  1  0  0  0  0  0  0  0  0  0
    9.5347  -18.4966   23.8653 O   0  0  0  0  0  0  0  0  0  0  0  0
    8.7083  -16.2556   24.1673 C   0  0  2  0  0  0  0  0  0  0  0  0
    8.9749  -15.6875   22.8696 N   0  0  0  0  0  0  0  0  0  0  0  0
    9.6816  -15.8475   25.2137 C   0  0  0  0  0  0  0  0  0  0  0  0
   10.9119  -15.7245   25.0023 O   0  0  0  0  0  0  0  0  0  0  0  0
    9.4565  -12.7270   27.2727 C   0  0  0  0  0  0  0  0  0  0  0  0
    9.6496  -13.8620   28.2243 C   0  0  1  0  0  0  0  0  0  0  0  0
    8.3681  -14.2110   28.9189 C   0  0  0  0  0  0  0  0  0  0  0  0
   10.2015  -15.1082   27.5560 C   0  0  2  0  0  0  0  0  0  0  0  0
    9.2549  -15.5690   26.5401 N   0  0  0  0  0  0  0  0  0  0  0  0
   10.4289  -16.2106   28.5048 C   0  0  0  0  0  0  0  0  0  0  0  0
    9.7429  -17.2659   28.4925 O   0  0  0  0  0  0  0  0  0  0  0  0
   11.4279  -16.1448   29.4795 O   0  0  0  0  0  0  0  0  0  0  0  0
  2  1  1  6
  3  2  1  0
  3  4  1  0
  4  5  2  0
  5  6  1  0
  7  6  1  0
  8  4  1  0
  8  7  2  0
  9 10  2  0
  9  2  1  0
 12 11  1  6
 12 14  1  0
 13 12  1  0
 14 16  1  0
 14 15  1  6
 15  9  1  0
 16 22  1  0
 17 16  2  0
 19 20  1  6
 19 18  1  0
 21 19  1  0
 21 22  1  6
 23 25  1  0
 23 21  1  0
 24 23  2  0
M  END
$$$$
