HTV.pdb
     RDKit          3D

 25 25  0  0  1  0  0  0  0  0999 V2000
   11.4964  -17.4422   19.6210 N   0  0  0  0  0  0  0  0  0  0  0  0
   10.0921  -17.3724   19.9342 C   0  0  1  0  0  0  0  0  0  0  0  0
    9.6563  -18.6889   20.5541 C   0  0  0  0  0  0  0  0  0  0  0  0
    9.2030  -19.6342   19.5028 C   0  0  0  0  0  0  0  0  0  0  0  0
    9.1019  -19.3844   18.1474 C   0  0  0  0  0  0  0  0  0  0  0  0
    8.6567  -20.4785   17.5181 N   0  0  0  0  0  0  0  0  0  0  0  0
    8.4763  -21.4162   18.4665 C   0  0  0  0  0  0  0  0  0  0  0  0
    8.8037  -20.9107   19.6567 N   0  0  0  0  0  0  0  0  0  0  0  0
    9.8552  -16.2386   20.8746 C   0  0  0  0  0  0  0  0  0  0  0  0
   10.7959  -15.7333   21.5273 O   0  0  0  0  0  0  0  0  0  0  0  0
    7.8609  -12.9480   20.2514 C   0  0  0  0  0  0  0  0  0  0  0  0
    7.3193  -13.6390   21.4995 C   0  0  1  0  0  0  0  0  0  0  0  0
    6.0793  -14.1558   21.1859 O   0  0  0  0  0  0  0  0  0  0  0  0
    8.2930  -14.6698   21.9805 C   0  0  2  0  0  0  0  0  0  0  0  0
    8.5407  -15.7254   21.0305 N   0  0  0  0  0  0  0  0  0  0  0  0
    8.0316  -15.1530   23.3615 C   0  0  0  0  0  0  0  0  0  0  0  0
    7.8469  -16.3603   23.6473 O   0  0  0  0  0  0  0  0  0  0  0  0
    9.2671  -13.2044   26.8821 C   0  0  0  0  0  0  0  0  0  0  0  0
    7.8255  -13.5838   26.7878 C   0  0  1  0  0  0  0  0  0  0  0  0
    6.9764  -12.4020   26.4283 C   0  0  0  0  0  0  0  0  0  0  0  0
    7.5695  -14.6955   25.7864 C   0  0  2  0  0  0  0  0  0  0  0  0
    7.9770  -14.2471   24.4548 N   0  0  0  0  0  0  0  0  0  0  0  0
    6.1530  -15.0913   25.7237 C   0  0  0  0  0  0  0  0  0  0  0  0
    5.3909  -14.7311   24.7890 O   0  0  0  0  0  0  0  0  0  0  0  0
    5.5722  -15.8958   26.7076 O   0  0  0  0  0  0  0  0  0  0  0  0
  2  1  1  1
  3  2  1  0
  3  4  1  0
  4  5  2  0
  5  6  1  0
  7  6  1  0
  8  4  1  0
  8  7  2  0
  9 10  2  0
  9  2  1  0
 12 11  1  6
 12 14  1  0
 13 12  1  0
 14 16  1  0
 14 15  1  6
 15  9  1  0
 16 22  1  0
 17 16  2  0
 19 20  1  6
 19 18  1  0
 21 19  1  0
 21 22  1  6
 23 25  1  0
 23 21  1  0
 24 23  2  0
M  END
$$$$
