HTV.pdb
     RDKit          3D

 25 25  0  0  1  0  0  0  0  0999 V2000
   10.3510  -15.8055   18.5557 N   0  0  0  0  0  0  0  0  0  0  0  0
   10.7818  -15.3965   19.8681 C   0  0  1  0  0  0  0  0  0  0  0  0
   11.6327  -14.1445   19.7429 C   0  0  0  0  0  0  0  0  0  0  0  0
   13.0480  -14.5021   19.4721 C   0  0  0  0  0  0  0  0  0  0  0  0
   13.8456  -15.3562   20.2098 C   0  0  0  0  0  0  0  0  0  0  0  0
   15.0622  -15.4289   19.6568 N   0  0  0  0  0  0  0  0  0  0  0  0
   15.0377  -14.6272   18.5761 C   0  0  0  0  0  0  0  0  0  0  0  0
   13.8304  -14.0712   18.4647 N   0  0  0  0  0  0  0  0  0  0  0  0
    9.5838  -15.1414   20.7199 C   0  0  0  0  0  0  0  0  0  0  0  0
    8.6340  -14.4398   20.3055 O   0  0  0  0  0  0  0  0  0  0  0  0
    6.8425  -16.7202   21.5504 C   0  0  0  0  0  0  0  0  0  0  0  0
    7.3558  -16.4143   22.9545 C   0  0  1  0  0  0  0  0  0  0  0  0
    7.7782  -17.6029   23.5130 O   0  0  0  0  0  0  0  0  0  0  0  0
    8.4251  -15.3677   22.8949 C   0  0  2  0  0  0  0  0  0  0  0  0
    9.5216  -15.7043   22.0218 N   0  0  0  0  0  0  0  0  0  0  0  0
    8.8501  -14.8588   24.2250 C   0  0  0  0  0  0  0  0  0  0  0  0
   10.0134  -14.9904   24.6753 O   0  0  0  0  0  0  0  0  0  0  0  0
    7.3419  -11.3937   25.9615 C   0  0  0  0  0  0  0  0  0  0  0  0
    7.3627  -12.6054   26.8347 C   0  0  1  0  0  0  0  0  0  0  0  0
    6.0045  -13.2333   26.9227 C   0  0  0  0  0  0  0  0  0  0  0  0
    8.3591  -13.6526   26.3715 C   0  0  2  0  0  0  0  0  0  0  0  0
    7.9353  -14.1798   25.0742 N   0  0  0  0  0  0  0  0  0  0  0  0
    8.4770  -14.7813   27.3091 C   0  0  0  0  0  0  0  0  0  0  0  0
    8.9787  -14.6576   28.4568 O   0  0  0  0  0  0  0  0  0  0  0  0
    8.0344  -16.0633   26.9727 O   0  0  0  0  0  0  0  0  0  0  0  0
  2  1  1  6
  3  2  1  0
  3  4  1  0
  4  5  2  0
  5  6  1  0
  7  6  1  0
  8  4  1  0
  8  7  2  0
  9 10  2  0
  9  2  1  0
 12 11  1  6
 12 14  1  0
 13 12  1  0
 14 16  1  0
 14 15  1  1
 15  9  1  0
 16 22  1  0
 17 16  2  0
 19 20  1  6
 19 18  1  0
 21 19  1  0
 21 22  1  6
 23 25  1  0
 23 21  1  0
 24 23  2  0
M  END
$$$$
