HTV.pdb
     RDKit          3D

 25 25  0  0  1  0  0  0  0  0999 V2000
    7.7761  -16.9549   18.8601 N   0  0  0  0  0  0  0  0  0  0  0  0
    8.0217  -15.7564   19.6206 C   0  0  1  0  0  0  0  0  0  0  0  0
    7.1867  -14.6250   19.0463 C   0  0  0  0  0  0  0  0  0  0  0  0
    7.7193  -14.2032   17.7262 C   0  0  0  0  0  0  0  0  0  0  0  0
    8.8501  -14.6840   17.0937 C   0  0  0  0  0  0  0  0  0  0  0  0
    9.0094  -14.0631   15.9189 N   0  0  0  0  0  0  0  0  0  0  0  0
    7.9875  -13.1945   15.8058 C   0  0  0  0  0  0  0  0  0  0  0  0
    7.2137  -13.2780   16.8890 N   0  0  0  0  0  0  0  0  0  0  0  0
    7.6715  -16.0023   21.0499 C   0  0  0  0  0  0  0  0  0  0  0  0
    6.4871  -16.2059   21.3990 O   0  0  0  0  0  0  0  0  0  0  0  0
    7.9027  -18.6453   22.9808 C   0  0  0  0  0  0  0  0  0  0  0  0
    8.6531  -17.6499   23.8610 C   0  0  1  0  0  0  0  0  0  0  0  0
    9.9913  -17.9827   23.8207 O   0  0  0  0  0  0  0  0  0  0  0  0
    8.3708  -16.2500   23.4108 C   0  0  2  0  0  0  0  0  0  0  0  0
    8.6997  -16.0050   22.0288 N   0  0  0  0  0  0  0  0  0  0  0  0
    8.8661  -15.2023   24.3414 C   0  0  0  0  0  0  0  0  0  0  0  0
    9.9637  -14.6128   24.1965 O   0  0  0  0  0  0  0  0  0  0  0  0
    6.9839  -12.0857   25.3747 C   0  0  0  0  0  0  0  0  0  0  0  0
    7.4471  -12.7673   26.6204 C   0  0  1  0  0  0  0  0  0  0  0  0
    6.3173  -13.4798   27.3006 C   0  0  0  0  0  0  0  0  0  0  0  0
    8.5724  -13.7553   26.3720 C   0  0  2  0  0  0  0  0  0  0  0  0
    8.0999  -14.8064   25.4707 N   0  0  0  0  0  0  0  0  0  0  0  0
    9.0543  -14.3932   27.6080 C   0  0  0  0  0  0  0  0  0  0  0  0
    8.8976  -15.6201   27.8414 O   0  0  0  0  0  0  0  0  0  0  0  0
    9.7178  -13.6646   28.5986 O   0  0  0  0  0  0  0  0  0  0  0  0
  2  1  1  6
  3  2  1  0
  3  4  1  0
  4  5  2  0
  5  6  1  0
  7  6  1  0
  8  4  1  0
  8  7  2  0
  9 10  2  0
  9  2  1  0
 12 11  1  6
 12 14  1  0
 13 12  1  0
 14 16  1  0
 14 15  1  6
 15  9  1  0
 16 22  1  0
 17 16  2  0
 19 20  1  6
 19 18  1  0
 21 19  1  0
 21 22  1  6
 23 25  1  0
 23 21  1  0
 24 23  2  0
M  END
$$$$
