HTV.pdb
     RDKit          3D

 25 25  0  0  1  0  0  0  0  0999 V2000
    7.9785  -16.7426   19.7319 N   0  0  0  0  0  0  0  0  0  0  0  0
    7.9756  -15.5078   20.4738 C   0  0  1  0  0  0  0  0  0  0  0  0
    6.9779  -14.5523   19.8424 C   0  0  0  0  0  0  0  0  0  0  0  0
    7.4402  -14.1324   18.4955 C   0  0  0  0  0  0  0  0  0  0  0  0
    8.2911  -13.0850   18.1975 C   0  0  0  0  0  0  0  0  0  0  0  0
    8.4761  -13.0155   16.8739 N   0  0  0  0  0  0  0  0  0  0  0  0
    7.7484  -14.0112   16.3350 C   0  0  0  0  0  0  0  0  0  0  0  0
    7.1270  -14.6812   17.3067 N   0  0  0  0  0  0  0  0  0  0  0  0
    7.6151  -15.7899   21.8939 C   0  0  0  0  0  0  0  0  0  0  0  0
    6.4257  -15.9809   22.2328 O   0  0  0  0  0  0  0  0  0  0  0  0
    6.8939  -18.0548   23.4700 C   0  0  0  0  0  0  0  0  0  0  0  0
    7.9761  -17.6147   24.4517 C   0  0  1  0  0  0  0  0  0  0  0  0
    9.0562  -18.4570   24.2880 O   0  0  0  0  0  0  0  0  0  0  0  0
    8.3065  -16.1697   24.2395 C   0  0  2  0  0  0  0  0  0  0  0  0
    8.6393  -15.8424   22.8757 N   0  0  0  0  0  0  0  0  0  0  0  0
    9.2531  -15.6110   25.2399 C   0  0  0  0  0  0  0  0  0  0  0  0
   10.4884  -15.5162   25.0441 O   0  0  0  0  0  0  0  0  0  0  0  0
    8.9108  -12.2042   26.7280 C   0  0  0  0  0  0  0  0  0  0  0  0
    9.0951  -13.1557   27.8645 C   0  0  1  0  0  0  0  0  0  0  0  0
    7.7973  -13.4197   28.5663 C   0  0  0  0  0  0  0  0  0  0  0  0
    9.7005  -14.4802   27.4364 C   0  0  2  0  0  0  0  0  0  0  0  0
    8.7928  -15.1441   26.5006 N   0  0  0  0  0  0  0  0  0  0  0  0
    9.9387  -15.3905   28.5684 C   0  0  0  0  0  0  0  0  0  0  0  0
    9.2690  -16.4417   28.7435 O   0  0  0  0  0  0  0  0  0  0  0  0
   10.9306  -15.1347   29.5188 O   0  0  0  0  0  0  0  0  0  0  0  0
  2  1  1  6
  3  2  1  0
  3  4  1  0
  4  5  2  0
  5  6  1  0
  7  6  1  0
  8  4  1  0
  8  7  2  0
  9 10  2  0
  9  2  1  0
 12 11  1  6
 12 14  1  0
 13 12  1  0
 14 16  1  0
 14 15  1  6
 15  9  1  0
 16 22  1  0
 17 16  2  0
 19 20  1  6
 19 18  1  0
 21 19  1  0
 21 22  1  6
 23 25  1  0
 23 21  1  0
 24 23  2  0
M  END
$$$$
