HTV.pdb
     RDKit          3D

 25 25  0  0  1  0  0  0  0  0999 V2000
   11.5968  -17.6082   19.5141 N   0  0  0  0  0  0  0  0  0  0  0  0
   10.4059  -17.8197   20.2966 C   0  0  1  0  0  0  0  0  0  0  0  0
   10.6475  -18.9618   21.2683 C   0  0  0  0  0  0  0  0  0  0  0  0
   10.2662  -20.2581   20.6530 C   0  0  0  0  0  0  0  0  0  0  0  0
    9.6647  -20.4500   19.4237 C   0  0  0  0  0  0  0  0  0  0  0  0
    9.4759  -21.7579   19.2121 N   0  0  0  0  0  0  0  0  0  0  0  0
    9.9537  -22.3921   20.2988 C   0  0  0  0  0  0  0  0  0  0  0  0
   10.4277  -21.4935   21.1630 N   0  0  0  0  0  0  0  0  0  0  0  0
   10.0697  -16.5630   21.0272 C   0  0  0  0  0  0  0  0  0  0  0  0
   10.9519  -15.7181   21.2990 O   0  0  0  0  0  0  0  0  0  0  0  0
    7.5839  -13.9683   19.9765 C   0  0  0  0  0  0  0  0  0  0  0  0
    7.2216  -14.3738   21.4023 C   0  0  1  0  0  0  0  0  0  0  0  0
    6.0773  -15.1418   21.3403 O   0  0  0  0  0  0  0  0  0  0  0  0
    8.3774  -15.0734   22.0479 C   0  0  2  0  0  0  0  0  0  0  0  0
    8.7266  -16.3230   21.4197 N   0  0  0  0  0  0  0  0  0  0  0  0
    8.2894  -15.1494   23.5296 C   0  0  0  0  0  0  0  0  0  0  0  0
    8.3929  -16.2209   24.1735 O   0  0  0  0  0  0  0  0  0  0  0  0
    6.6393  -11.8360   25.6762 C   0  0  0  0  0  0  0  0  0  0  0  0
    7.6941  -12.6734   26.3222 C   0  0  1  0  0  0  0  0  0  0  0  0
    7.4741  -12.7765   27.8012 C   0  0  0  0  0  0  0  0  0  0  0  0
    7.7796  -14.0723   25.7394 C   0  0  2  0  0  0  0  0  0  0  0  0
    8.0783  -13.9810   24.3101 N   0  0  0  0  0  0  0  0  0  0  0  0
    6.5299  -14.8338   25.8992 C   0  0  0  0  0  0  0  0  0  0  0  0
    5.6650  -14.9131   24.9882 O   0  0  0  0  0  0  0  0  0  0  0  0
    6.2333  -15.5163   27.0819 O   0  0  0  0  0  0  0  0  0  0  0  0
  2  1  1  1
  3  2  1  0
  3  4  1  0
  4  5  2  0
  5  6  1  0
  7  6  1  0
  8  4  1  0
  8  7  2  0
  9 10  2  0
  9  2  1  0
 12 11  1  6
 12 14  1  0
 13 12  1  0
 14 16  1  0
 14 15  1  6
 15  9  1  0
 16 22  1  0
 17 16  2  0
 19 20  1  1
 19 18  1  0
 21 19  1  0
 21 22  1  6
 23 25  1  0
 23 21  1  0
 24 23  2  0
M  END
$$$$
