LAA.pdb
     RDKit          3D

 19 18  0  0  1  0  0  0  0  0999 V2000
    6.4503  -12.1817   24.2400 C   0  0  0  0  0  0  0  0  0  0  0  0
    5.9266  -12.8695   25.5025 C   0  0  2  0  0  0  0  0  0  0  0  0
    5.8880  -11.8961   26.6620 C   0  0  0  0  0  0  0  0  0  0  0  0
    6.8759  -13.9637   25.8498 C   0  0  0  0  0  0  0  0  0  0  0  0
    6.9409  -15.0394   24.7789 C   0  0  2  0  0  0  0  0  0  0  0  0
    5.7417  -15.8163   24.7939 N   0  0  0  0  0  0  0  0  0  0  0  0
    8.1614  -15.8589   24.9956 C   0  0  0  0  0  0  0  0  0  0  0  0
    8.1536  -16.8103   25.8183 O   0  0  0  0  0  0  0  0  0  0  0  0
   11.4889  -16.1714   23.3096 C   0  0  0  0  0  0  0  0  0  0  0  0
   10.5478  -16.4868   24.4499 C   0  0  2  0  0  0  0  0  0  0  0  0
    9.3814  -15.6207   24.3013 N   0  0  0  0  0  0  0  0  0  0  0  0
   11.1827  -16.3150   25.7777 C   0  0  0  0  0  0  0  0  0  0  0  0
   12.2631  -16.9114   26.0266 O   0  0  0  0  0  0  0  0  0  0  0  0
   10.5657  -14.1471   28.7417 C   0  0  0  0  0  0  0  0  0  0  0  0
   11.1845  -15.4082   28.1329 C   0  0  2  0  0  0  0  0  0  0  0  0
   10.6275  -15.5062   26.7863 N   0  0  0  0  0  0  0  0  0  0  0  0
   10.8669  -16.5965   28.9464 C   0  0  0  0  0  0  0  0  0  0  0  0
   11.4945  -16.7222   30.1808 O   0  0  0  0  0  0  0  0  0  0  0  0
   10.0622  -17.4264   28.5022 O   0  0  0  0  0  0  0  0  0  0  0  0
  2  4  1  0
  2  1  1  6
  3  2  1  0
  4  5  1  0
  5  7  1  0
  5  6  1  1
  7  8  2  0
 10  9  1  6
 10 12  1  0
 11 10  1  0
 11  7  1  0
 12 13  2  0
 12 16  1  0
 15 14  1  1
 15 17  1  0
 16 15  1  0
 17 19  2  0
 17 18  1  0
M  END
$$$$
