LAA.pdb
     RDKit          3D

 19 18  0  0  1  0  0  0  0  0999 V2000
    7.3236  -12.4408   25.0085 C   0  0  0  0  0  0  0  0  0  0  0  0
    6.1241  -13.1170   25.6758 C   0  0  2  0  0  0  0  0  0  0  0  0
    5.8058  -12.4518   26.9986 C   0  0  0  0  0  0  0  0  0  0  0  0
    6.4961  -14.5333   25.9491 C   0  0  0  0  0  0  0  0  0  0  0  0
    6.7436  -15.3259   24.6768 C   0  0  2  0  0  0  0  0  0  0  0  0
    5.6331  -16.1856   24.4135 N   0  0  0  0  0  0  0  0  0  0  0  0
    8.0253  -16.0652   24.8138 C   0  0  0  0  0  0  0  0  0  0  0  0
    8.1068  -17.0664   25.5708 O   0  0  0  0  0  0  0  0  0  0  0  0
   11.3860  -15.9580   23.1587 C   0  0  0  0  0  0  0  0  0  0  0  0
   10.4707  -16.4068   24.2750 C   0  0  2  0  0  0  0  0  0  0  0  0
    9.2073  -15.6923   24.1131 N   0  0  0  0  0  0  0  0  0  0  0  0
   11.0533  -16.1768   25.6179 C   0  0  0  0  0  0  0  0  0  0  0  0
   12.1299  -16.7501   25.9295 O   0  0  0  0  0  0  0  0  0  0  0  0
   10.4832  -13.6848   28.2889 C   0  0  0  0  0  0  0  0  0  0  0  0
   11.0494  -15.0452   27.8736 C   0  0  2  0  0  0  0  0  0  0  0  0
   10.4520  -15.3369   26.5731 N   0  0  0  0  0  0  0  0  0  0  0  0
   10.7222  -16.0794   28.8727 C   0  0  0  0  0  0  0  0  0  0  0  0
   11.3120  -15.9764   30.1276 O   0  0  0  0  0  0  0  0  0  0  0  0
    9.9432  -16.9889   28.5572 O   0  0  0  0  0  0  0  0  0  0  0  0
  2  4  1  0
  2  1  1  1
  3  2  1  0
  4  5  1  0
  5  7  1  0
  5  6  1  1
  7  8  2  0
 10  9  1  6
 10 12  1  0
 11 10  1  0
 11  7  1  0
 12 13  2  0
 12 16  1  0
 15 14  1  1
 15 17  1  0
 16 15  1  0
 17 19  2  0
 17 18  1  0
M  END
$$$$
