LAA.pdb
     RDKit          3D

 19 18  0  0  1  0  0  0  0  0999 V2000
    9.6144  -12.8260   19.4029 C   0  0  0  0  0  0  0  0  0  0  0  0
    8.2470  -13.5097   19.4669 C   0  0  2  0  0  0  0  0  0  0  0  0
    7.1474  -12.5370   19.0951 C   0  0  0  0  0  0  0  0  0  0  0  0
    8.0226  -13.9442   20.8740 C   0  0  0  0  0  0  0  0  0  0  0  0
    9.0748  -14.9298   21.3535 C   0  0  2  0  0  0  0  0  0  0  0  0
    9.1224  -16.0576   20.4775 N   0  0  0  0  0  0  0  0  0  0  0  0
    8.7754  -15.3045   22.7600 C   0  0  0  0  0  0  0  0  0  0  0  0
    8.1185  -14.5290   23.5011 O   0  0  0  0  0  0  0  0  0  0  0  0
    9.2070  -18.3501   24.8950 C   0  0  0  0  0  0  0  0  0  0  0  0
    8.9617  -16.8667   24.7378 C   0  0  2  0  0  0  0  0  0  0  0  0
    9.2045  -16.5335   23.3368 N   0  0  0  0  0  0  0  0  0  0  0  0
    9.8055  -16.0500   25.6414 C   0  0  0  0  0  0  0  0  0  0  0  0
   11.0041  -15.8243   25.3296 O   0  0  0  0  0  0  0  0  0  0  0  0
    9.2026  -13.5644   28.2191 C   0  0  0  0  0  0  0  0  0  0  0  0
   10.1347  -14.6776   27.7336 C   0  0  2  0  0  0  0  0  0  0  0  0
    9.3237  -15.5080   26.8471 N   0  0  0  0  0  0  0  0  0  0  0  0
   10.6709  -15.4491   28.8704 C   0  0  0  0  0  0  0  0  0  0  0  0
   11.5987  -14.8242   29.6962 O   0  0  0  0  0  0  0  0  0  0  0  0
   10.2774  -16.6106   29.0421 O   0  0  0  0  0  0  0  0  0  0  0  0
  2  4  1  0
  2  1  1  1
  3  2  1  0
  4  5  1  0
  5  7  1  0
  5  6  1  6
  7  8  2  0
 10  9  1  6
 10 12  1  0
 11 10  1  0
 11  7  1  0
 12 13  2  0
 12 16  1  0
 15 14  1  1
 15 17  1  0
 16 15  1  0
 17 19  2  0
 17 18  1  0
M  END
$$$$
