LAA.pdb
     RDKit          3D

 19 18  0  0  1  0  0  0  0  0999 V2000
    6.5155  -12.3786   24.4521 C   0  0  0  0  0  0  0  0  0  0  0  0
    5.7762  -13.1603   25.5400 C   0  0  2  0  0  0  0  0  0  0  0  0
    5.5616  -12.2953   26.7645 C   0  0  0  0  0  0  0  0  0  0  0  0
    6.6346  -14.3124   25.9335 C   0  0  0  0  0  0  0  0  0  0  0  0
    6.7983  -15.3254   24.8130 C   0  0  2  0  0  0  0  0  0  0  0  0
    5.6495  -16.1727   24.7493 N   0  0  0  0  0  0  0  0  0  0  0  0
    8.0601  -16.0801   25.0292 C   0  0  0  0  0  0  0  0  0  0  0  0
    8.0941  -17.0508   25.8284 O   0  0  0  0  0  0  0  0  0  0  0  0
   11.4303  -16.1607   23.4029 C   0  0  0  0  0  0  0  0  0  0  0  0
   10.4919  -16.5463   24.5236 C   0  0  2  0  0  0  0  0  0  0  0  0
    9.2746  -15.7561   24.3606 N   0  0  0  0  0  0  0  0  0  0  0  0
   11.0909  -16.3456   25.8639 C   0  0  0  0  0  0  0  0  0  0  0  0
   12.1805  -16.9108   26.1434 O   0  0  0  0  0  0  0  0  0  0  0  0
   10.3310  -14.1062   28.7451 C   0  0  0  0  0  0  0  0  0  0  0  0
   11.0918  -15.2992   28.1605 C   0  0  2  0  0  0  0  0  0  0  0  0
   10.4914  -15.5425   26.8515 N   0  0  0  0  0  0  0  0  0  0  0  0
   10.9832  -16.4766   29.0419 C   0  0  0  0  0  0  0  0  0  0  0  0
   11.6992  -16.4608   30.2337 O   0  0  0  0  0  0  0  0  0  0  0  0
   10.2662  -17.4225   28.6888 O   0  0  0  0  0  0  0  0  0  0  0  0
  2  4  1  0
  2  1  1  6
  3  2  1  0
  4  5  1  0
  5  7  1  0
  5  6  1  1
  7  8  2  0
 10  9  1  6
 10 12  1  0
 11 10  1  0
 11  7  1  0
 12 13  2  0
 12 16  1  0
 15 14  1  1
 15 17  1  0
 16 15  1  0
 17 19  2  0
 17 18  1  0
M  END
$$$$
