LAA.pdb
     RDKit          3D

 19 18  0  0  1  0  0  0  0  0999 V2000
    9.0974  -12.3468   19.7655 C   0  0  0  0  0  0  0  0  0  0  0  0
    8.1430  -13.5405   19.8395 C   0  0  2  0  0  0  0  0  0  0  0  0
    6.7406  -13.1262   19.4457 C   0  0  0  0  0  0  0  0  0  0  0  0
    8.1068  -14.0053   21.2543 C   0  0  0  0  0  0  0  0  0  0  0  0
    9.0879  -15.1343   21.5211 C   0  0  2  0  0  0  0  0  0  0  0  0
    9.4566  -15.7614   20.2913 N   0  0  0  0  0  0  0  0  0  0  0  0
    8.4777  -16.0809   22.4907 C   0  0  0  0  0  0  0  0  0  0  0  0
    7.7108  -16.9953   22.0934 O   0  0  0  0  0  0  0  0  0  0  0  0
   10.8550  -17.0044   23.4684 C   0  0  0  0  0  0  0  0  0  0  0  0
    9.8183  -16.7270   24.5332 C   0  0  2  0  0  0  0  0  0  0  0  0
    8.7198  -16.0096   23.8919 N   0  0  0  0  0  0  0  0  0  0  0  0
   10.3670  -15.9633   25.6783 C   0  0  0  0  0  0  0  0  0  0  0  0
   11.5605  -16.1529   26.0310 O   0  0  0  0  0  0  0  0  0  0  0  0
    9.1658  -13.1016   27.7347 C   0  0  0  0  0  0  0  0  0  0  0  0
   10.1288  -14.2756   27.5395 C   0  0  2  0  0  0  0  0  0  0  0  0
    9.6068  -15.0242   26.3992 N   0  0  0  0  0  0  0  0  0  0  0  0
   10.2001  -15.1066   28.7557 C   0  0  0  0  0  0  0  0  0  0  0  0
    9.6726  -16.3916   28.6931 O   0  0  0  0  0  0  0  0  0  0  0  0
   10.7214  -14.6317   29.7736 O   0  0  0  0  0  0  0  0  0  0  0  0
  2  4  1  0
  2  1  1  1
  3  2  1  0
  4  5  1  0
  5  7  1  0
  5  6  1  6
  7  8  2  0
 10  9  1  6
 10 12  1  0
 11 10  1  0
 11  7  1  0
 12 13  2  0
 12 16  1  0
 15 14  1  1
 15 17  1  0
 16 15  1  0
 17 19  2  0
 17 18  1  0
M  END
$$$$
