LAA.pdb
     RDKit          3D

 19 18  0  0  1  0  0  0  0  0999 V2000
    5.8041  -12.3582   25.2134 C   0  0  0  0  0  0  0  0  0  0  0  0
    6.3553  -12.9574   26.5089 C   0  0  2  0  0  0  0  0  0  0  0  0
    7.0305  -11.8899   27.3443 C   0  0  0  0  0  0  0  0  0  0  0  0
    7.3815  -13.9718   26.1388 C   0  0  0  0  0  0  0  0  0  0  0  0
    6.8234  -15.0636   25.2418 C   0  0  2  0  0  0  0  0  0  0  0  0
    5.9443  -15.9070   25.9885 N   0  0  0  0  0  0  0  0  0  0  0  0
    7.9553  -15.8078   24.6308 C   0  0  0  0  0  0  0  0  0  0  0  0
    8.5486  -16.7097   25.2763 O   0  0  0  0  0  0  0  0  0  0  0  0
    9.4290  -16.0251   21.1922 C   0  0  0  0  0  0  0  0  0  0  0  0
    9.4297  -16.3838   22.6608 C   0  0  2  0  0  0  0  0  0  0  0  0
    8.4230  -15.5494   23.3111 N   0  0  0  0  0  0  0  0  0  0  0  0
   10.7608  -16.2133   23.2891 C   0  0  0  0  0  0  0  0  0  0  0  0
   11.1257  -15.0667   23.6593 O   0  0  0  0  0  0  0  0  0  0  0  0
   13.4671  -18.5332   24.3929 C   0  0  0  0  0  0  0  0  0  0  0  0
   12.9941  -17.1220   24.0345 C   0  0  2  0  0  0  0  0  0  0  0  0
   11.6472  -17.2865   23.4941 N   0  0  0  0  0  0  0  0  0  0  0  0
   13.9040  -16.4929   23.0593 C   0  0  0  0  0  0  0  0  0  0  0  0
   15.0621  -15.8968   23.5460 O   0  0  0  0  0  0  0  0  0  0  0  0
   13.6034  -16.5205   21.8583 O   0  0  0  0  0  0  0  0  0  0  0  0
  2  4  1  0
  2  1  1  6
  3  2  1  0
  4  5  1  0
  5  7  1  0
  5  6  1  1
  7  8  2  0
 10  9  1  6
 10 12  1  0
 11 10  1  0
 11  7  1  0
 12 13  2  0
 12 16  1  0
 15 14  1  6
 15 17  1  0
 16 15  1  0
 17 19  2  0
 17 18  1  0
M  END
$$$$
