LAA.pdb
     RDKit          3D

 19 18  0  0  1  0  0  0  0  0999 V2000
    7.6385  -13.4381   18.6649 C   0  0  0  0  0  0  0  0  0  0  0  0
    7.3348  -13.5442   20.1608 C   0  0  2  0  0  0  0  0  0  0  0  0
    7.7662  -12.2845   20.8824 C   0  0  0  0  0  0  0  0  0  0  0  0
    8.1274  -14.6821   20.7050 C   0  0  0  0  0  0  0  0  0  0  0  0
    7.7460  -16.0109   20.0747 C   0  0  2  0  0  0  0  0  0  0  0  0
    6.3843  -16.3213   20.3766 N   0  0  0  0  0  0  0  0  0  0  0  0
    8.6932  -17.0546   20.5455 C   0  0  0  0  0  0  0  0  0  0  0  0
    8.3677  -17.8408   21.4719 O   0  0  0  0  0  0  0  0  0  0  0  0
   12.0057  -18.3759   19.4022 C   0  0  0  0  0  0  0  0  0  0  0  0
   10.9049  -18.2721   20.4332 C   0  0  2  0  0  0  0  0  0  0  0  0
    9.9930  -17.2215   19.9890 N   0  0  0  0  0  0  0  0  0  0  0  0
   11.4222  -17.9986   21.7945 C   0  0  0  0  0  0  0  0  0  0  0  0
   12.3483  -18.7146   22.2577 O   0  0  0  0  0  0  0  0  0  0  0  0
   10.6510  -15.4392   24.4150 C   0  0  0  0  0  0  0  0  0  0  0  0
   11.5158  -16.5850   23.8830 C   0  0  2  0  0  0  0  0  0  0  0  0
   10.9204  -16.9631   22.6041 N   0  0  0  0  0  0  0  0  0  0  0  0
   11.5387  -17.7128   24.8329 C   0  0  0  0  0  0  0  0  0  0  0  0
   10.8111  -18.8510   24.5035 O   0  0  0  0  0  0  0  0  0  0  0  0
   12.1982  -17.6023   25.8751 O   0  0  0  0  0  0  0  0  0  0  0  0
  2  4  1  0
  2  1  1  6
  3  2  1  0
  4  5  1  0
  5  7  1  0
  5  6  1  1
  7  8  2  0
 10  9  1  6
 10 12  1  0
 11 10  1  0
 11  7  1  0
 12 13  2  0
 12 16  1  0
 15 14  1  1
 15 17  1  0
 16 15  1  0
 17 19  2  0
 17 18  1  0
M  END
$$$$
