VYK.pdb
     RDKit          3D

 29 29  0  0  1  0  0  0  0  0999 V2000
   21.0078   -9.6467  -20.4933 C   0  0  0  0  0  0  0  0  0  0  0  0
   20.6048   -8.4850  -19.6531 C   0  0  2  0  0  0  0  0  0  0  0  0
   20.9114   -7.2022  -20.3621 C   0  0  0  0  0  0  0  0  0  0  0  0
   21.1983   -8.4836  -18.2745 C   0  0  2  0  0  0  0  0  0  0  0  0
   20.9074   -9.7701  -17.6693 N   0  0  0  0  0  0  0  0  0  0  0  0
   20.7394   -7.3574  -17.4399 C   0  0  0  0  0  0  0  0  0  0  0  0
   19.5039   -7.2646  -17.2231 O   0  0  0  0  0  0  0  0  0  0  0  0
   19.0316   -9.4215  -11.4472 O   0  0  0  0  0  0  0  0  0  0  0  0
   19.6680   -8.4545  -12.2138 C   0  0  0  0  0  0  0  0  0  0  0  0
   19.0831   -7.2481  -12.4832 C   0  0  0  0  0  0  0  0  0  0  0  0
   19.7740   -6.3136  -13.2618 C   0  0  0  0  0  0  0  0  0  0  0  0
   21.0320   -6.5624  -13.7728 C   0  0  0  0  0  0  0  0  0  0  0  0
   21.6879   -5.5359  -14.5740 C   0  0  0  0  0  0  0  0  0  0  0  0
   21.1410   -5.3450  -15.9610 C   0  0  2  0  0  0  0  0  0  0  0  0
   21.6053   -6.3814  -16.8728 N   0  0  0  0  0  0  0  0  0  0  0  0
   21.4835   -4.0344  -16.5667 C   0  0  0  0  0  0  0  0  0  0  0  0
   22.6677   -3.7602  -16.8779 O   0  0  0  0  0  0  0  0  0  0  0  0
   21.5785   -7.7934  -13.4728 C   0  0  0  0  0  0  0  0  0  0  0  0
   20.9171   -8.7180  -12.7136 C   0  0  0  0  0  0  0  0  0  0  0  0
   20.5005   -3.0342  -16.8231 N   0  0  0  0  0  0  0  0  0  0  0  0
   20.8065   -1.7594  -17.4540 C   0  0  1  0  0  0  0  0  0  0  0  0
   19.5792   -1.0797  -17.9445 C   0  0  0  0  0  0  0  0  0  0  0  0
   19.8625    0.2044  -18.6355 C   0  0  0  0  0  0  0  0  0  0  0  0
   18.5852    0.9279  -19.0531 C   0  0  0  0  0  0  0  0  0  0  0  0
   18.9946    2.2455  -19.6748 C   0  0  0  0  0  0  0  0  0  0  0  0
   17.8727    3.0846  -19.9812 N   0  0  0  0  0  0  0  0  0  0  0  0
   21.5638   -0.8742  -16.5465 C   0  0  0  0  0  0  0  0  0  0  0  0
   21.2085   -0.8488  -15.3187 O   0  0  0  0  0  0  0  0  0  0  0  0
   22.6171   -0.0717  -16.8858 O   0  0  0  0  0  0  0  0  0  0  0  0
  2  3  1  6
  2  1  1  0
  4  2  1  0
  4  5  1  1
  6 15  1  0
  6  4  1  0
  7  6  2  0
  8  9  1  0
  9 19  2  0
  9 10  1  0
 10 11  2  0
 11 12  1  0
 12 13  1  0
 14 13  1  1
 14 16  1  0
 14 15  1  0
 16 20  1  0
 17 16  2  0
 18 12  2  0
 19 18  1  0
 20 21  1  0
 21 27  1  0
 21 22  1  1
 23 22  1  0
 24 25  1  0
 24 23  1  0
 26 25  1  0
 27 28  2  0
 27 29  1  0
M  END
$$$$
