VYK.pdb
     RDKit          3D

 29 29  0  0  1  0  0  0  0  0999 V2000
   24.7685  -10.4137  -21.6735 C   0  0  0  0  0  0  0  0  0  0  0  0
   23.7426  -10.1282  -20.6325 C   0  0  2  0  0  0  0  0  0  0  0  0
   23.6171   -8.6511  -20.4206 C   0  0  0  0  0  0  0  0  0  0  0  0
   23.9731  -10.8331  -19.3276 C   0  0  2  0  0  0  0  0  0  0  0  0
   24.0484  -12.2559  -19.6037 N   0  0  0  0  0  0  0  0  0  0  0  0
   22.9605  -10.5160  -18.3031 C   0  0  0  0  0  0  0  0  0  0  0  0
   21.8186  -11.0250  -18.4422 O   0  0  0  0  0  0  0  0  0  0  0  0
   22.1946  -15.6257  -14.4959 O   0  0  0  0  0  0  0  0  0  0  0  0
   22.2709  -14.2423  -14.5837 C   0  0  0  0  0  0  0  0  0  0  0  0
   21.1912  -13.4817  -14.9388 C   0  0  0  0  0  0  0  0  0  0  0  0
   21.3297  -12.0916  -15.0102 C   0  0  0  0  0  0  0  0  0  0  0  0
   22.5215  -11.4520  -14.7345 C   0  0  0  0  0  0  0  0  0  0  0  0
   22.5849   -9.9984  -14.8291 C   0  0  0  0  0  0  0  0  0  0  0  0
   22.1946   -9.4154  -16.1584 C   0  0  2  0  0  0  0  0  0  0  0  0
   23.1995   -9.6767  -17.1795 N   0  0  0  0  0  0  0  0  0  0  0  0
   21.9636   -7.9499  -16.1270 C   0  0  0  0  0  0  0  0  0  0  0  0
   22.9095   -7.1550  -15.9081 O   0  0  0  0  0  0  0  0  0  0  0  0
   23.5803  -12.2632  -14.3812 C   0  0  0  0  0  0  0  0  0  0  0  0
   23.4623  -13.6231  -14.3066 C   0  0  0  0  0  0  0  0  0  0  0  0
   20.6757   -7.3776  -16.3412 N   0  0  0  0  0  0  0  0  0  0  0  0
   20.4064   -5.9530  -16.2186 C   0  0  1  0  0  0  0  0  0  0  0  0
   19.1851   -5.5576  -16.9676 C   0  0  0  0  0  0  0  0  0  0  0  0
   18.9583   -4.0895  -16.9763 C   0  0  0  0  0  0  0  0  0  0  0  0
   17.7680   -3.6957  -17.8465 C   0  0  0  0  0  0  0  0  0  0  0  0
   17.7711   -2.1867  -17.9607 C   0  0  0  0  0  0  0  0  0  0  0  0
   16.7519   -1.6967  -18.8428 N   0  0  0  0  0  0  0  0  0  0  0  0
   20.3052   -5.5410  -14.8041 C   0  0  0  0  0  0  0  0  0  0  0  0
   20.2965   -4.2868  -14.5567 O   0  0  0  0  0  0  0  0  0  0  0  0
   20.2178   -6.3697  -13.7205 O   0  0  0  0  0  0  0  0  0  0  0  0
  2  3  1  1
  2  1  1  0
  4  2  1  0
  4  5  1  6
  6 15  1  0
  6  4  1  0
  7  6  2  0
  8  9  1  0
  9 19  2  0
  9 10  1  0
 10 11  2  0
 11 12  1  0
 12 13  1  0
 14 13  1  1
 14 16  1  0
 14 15  1  0
 16 20  1  0
 17 16  2  0
 18 12  2  0
 19 18  1  0
 20 21  1  0
 21 27  1  0
 21 22  1  6
 23 22  1  0
 24 25  1  0
 24 23  1  0
 26 25  1  0
 27 28  2  0
 27 29  1  0
M  END
$$$$
