VYK.pdb
     RDKit          3D

 29 29  0  0  1  0  0  0  0  0999 V2000
   21.0159  -12.9575  -18.3591 C   0  0  0  0  0  0  0  0  0  0  0  0
   20.2591  -12.0141  -17.4901 C   0  0  2  0  0  0  0  0  0  0  0  0
   18.8166  -11.9848  -17.8908 C   0  0  0  0  0  0  0  0  0  0  0  0
   20.8253  -10.6247  -17.4459 C   0  0  2  0  0  0  0  0  0  0  0  0
   22.2692  -10.7409  -17.3591 N   0  0  0  0  0  0  0  0  0  0  0  0
   20.2653   -9.7978  -16.3604 C   0  0  0  0  0  0  0  0  0  0  0  0
   19.0135   -9.6870  -16.3053 O   0  0  0  0  0  0  0  0  0  0  0  0
   19.3769   -4.6151   -9.1743 O   0  0  0  0  0  0  0  0  0  0  0  0
   19.8673   -5.4505  -10.1688 C   0  0  0  0  0  0  0  0  0  0  0  0
   20.6754   -4.9840  -11.1686 C   0  0  0  0  0  0  0  0  0  0  0  0
   21.1386   -5.8744  -12.1430 C   0  0  0  0  0  0  0  0  0  0  0  0
   20.8101   -7.2152  -12.1356 C   0  0  0  0  0  0  0  0  0  0  0  0
   21.3350   -8.0798  -13.1857 C   0  0  0  0  0  0  0  0  0  0  0  0
   20.4897   -8.1860  -14.4240 C   0  0  2  0  0  0  0  0  0  0  0  0
   21.0519   -9.1262  -15.3836 N   0  0  0  0  0  0  0  0  0  0  0  0
   20.2929   -6.8955  -15.1295 C   0  0  0  0  0  0  0  0  0  0  0  0
   21.1554   -6.4640  -15.9323 O   0  0  0  0  0  0  0  0  0  0  0  0
   19.9928   -7.6361  -11.1067 C   0  0  0  0  0  0  0  0  0  0  0  0
   19.5313   -6.7795  -10.1465 C   0  0  0  0  0  0  0  0  0  0  0  0
   19.1318   -6.0913  -14.9356 N   0  0  0  0  0  0  0  0  0  0  0  0
   18.8891   -4.8540  -15.6616 C   0  0  1  0  0  0  0  0  0  0  0  0
   17.8173   -5.0143  -16.6787 C   0  0  0  0  0  0  0  0  0  0  0  0
   17.5390   -3.7644  -17.4319 C   0  0  0  0  0  0  0  0  0  0  0  0
   16.4692   -3.9628  -18.5021 C   0  0  0  0  0  0  0  0  0  0  0  0
   16.2764   -2.6342  -19.2004 C   0  0  0  0  0  0  0  0  0  0  0  0
   15.3209   -2.7039  -20.2676 N   0  0  0  0  0  0  0  0  0  0  0  0
   18.5732   -3.7409  -14.7440 C   0  0  0  0  0  0  0  0  0  0  0  0
   17.7800   -3.9877  -13.7723 O   0  0  0  0  0  0  0  0  0  0  0  0
   19.0466   -2.4611  -14.8256 O   0  0  0  0  0  0  0  0  0  0  0  0
  2  3  1  6
  2  1  1  0
  4  2  1  0
  4  5  1  1
  6 15  1  0
  6  4  1  0
  7  6  2  0
  8  9  1  0
  9 19  2  0
  9 10  1  0
 10 11  2  0
 11 12  1  0
 12 13  1  0
 14 13  1  1
 14 16  1  0
 14 15  1  0
 16 20  1  0
 17 16  2  0
 18 12  2  0
 19 18  1  0
 20 21  1  0
 21 27  1  0
 21 22  1  6
 23 22  1  0
 24 25  1  0
 24 23  1  0
 26 25  1  0
 27 28  2  0
 27 29  1  0
M  END
$$$$
