VYK.pdb
     RDKit          3D

 29 29  0  0  1  0  0  0  0  0999 V2000
   24.0515  -24.4644  -15.4645 C   0  0  0  0  0  0  0  0  0  0  0  0
   24.2667  -23.5541  -16.6234 C   0  0  2  0  0  0  0  0  0  0  0  0
   25.4116  -24.0397  -17.4574 C   0  0  0  0  0  0  0  0  0  0  0  0
   24.4564  -22.1127  -16.2503 C   0  0  2  0  0  0  0  0  0  0  0  0
   25.7584  -21.9890  -15.6212 N   0  0  0  0  0  0  0  0  0  0  0  0
   23.3737  -21.5793  -15.4025 C   0  0  0  0  0  0  0  0  0  0  0  0
   23.4562  -21.7825  -14.1639 O   0  0  0  0  0  0  0  0  0  0  0  0
   24.0494  -16.4297  -19.2703 O   0  0  0  0  0  0  0  0  0  0  0  0
   23.2691  -17.0427  -18.2994 C   0  0  0  0  0  0  0  0  0  0  0  0
   23.6517  -17.0840  -16.9871 C   0  0  0  0  0  0  0  0  0  0  0  0
   22.8229  -17.7163  -16.0543 C   0  0  0  0  0  0  0  0  0  0  0  0
   21.6253  -18.3046  -16.4082 C   0  0  0  0  0  0  0  0  0  0  0  0
   20.8162  -18.9425  -15.3764 C   0  0  0  0  0  0  0  0  0  0  0  0
   21.1865  -20.3607  -15.0435 C   0  0  2  0  0  0  0  0  0  0  0  0
   22.2544  -20.8563  -15.9007 N   0  0  0  0  0  0  0  0  0  0  0  0
   20.0558  -21.3163  -15.1446 C   0  0  0  0  0  0  0  0  0  0  0  0
   20.2144  -22.4463  -15.6666 O   0  0  0  0  0  0  0  0  0  0  0  0
   21.2845  -18.2362  -17.7434 C   0  0  0  0  0  0  0  0  0  0  0  0
   22.0826  -17.6223  -18.6680 C   0  0  0  0  0  0  0  0  0  0  0  0
   18.7511  -21.0057  -14.6612 N   0  0  0  0  0  0  0  0  0  0  0  0
   18.0061  -21.8752  -13.7635 C   0  0  1  0  0  0  0  0  0  0  0  0
   18.8281  -22.2991  -12.6002 C   0  0  0  0  0  0  0  0  0  0  0  0
   19.1348  -23.7526  -12.6038 C   0  0  0  0  0  0  0  0  0  0  0  0
   18.6550  -24.4457  -11.3316 C   0  0  0  0  0  0  0  0  0  0  0  0
   18.9308  -25.9251  -11.4912 C   0  0  0  0  0  0  0  0  0  0  0  0
   18.2944  -26.7186  -10.4802 N   0  0  0  0  0  0  0  0  0  0  0  0
   16.7526  -21.2394  -13.3106 C   0  0  0  0  0  0  0  0  0  0  0  0
   16.8335  -20.0572  -12.8309 O   0  0  0  0  0  0  0  0  0  0  0  0
   15.5014  -21.7885  -13.3525 O   0  0  0  0  0  0  0  0  0  0  0  0
  2  3  1  1
  2  1  1  0
  4  2  1  0
  4  5  1  1
  6 15  1  0
  6  4  1  0
  7  6  2  0
  8  9  1  0
  9 19  2  0
  9 10  1  0
 10 11  2  0
 11 12  1  0
 12 13  1  0
 14 13  1  6
 14 16  1  0
 14 15  1  0
 16 20  1  0
 17 16  2  0
 18 12  2  0
 19 18  1  0
 20 21  1  0
 21 27  1  0
 21 22  1  1
 23 22  1  0
 24 25  1  0
 24 23  1  0
 26 25  1  0
 27 28  2  0
 27 29  1  0
M  END
$$$$
