VYK.pdb
     RDKit          3D

 29 29  0  0  1  0  0  0  0  0999 V2000
   35.1633  -25.4445  -15.5331 C   0  0  0  0  0  0  0  0  0  0  0  0
   34.0146  -25.8452  -16.3921 C   0  0  2  0  0  0  0  0  0  0  0  0
   34.4486  -25.9489  -17.8215 C   0  0  0  0  0  0  0  0  0  0  0  0
   32.8101  -24.9586  -16.2667 C   0  0  2  0  0  0  0  0  0  0  0  0
   32.6443  -24.6381  -14.8611 N   0  0  0  0  0  0  0  0  0  0  0  0
   31.5893  -25.5418  -16.8542 C   0  0  0  0  0  0  0  0  0  0  0  0
   31.6090  -25.8060  -18.0839 O   0  0  0  0  0  0  0  0  0  0  0  0
   23.2101  -28.4762  -17.7966 O   0  0  0  0  0  0  0  0  0  0  0  0
   24.4416  -28.0818  -17.2914 C   0  0  0  0  0  0  0  0  0  0  0  0
   25.5207  -28.9219  -17.2847 C   0  0  0  0  0  0  0  0  0  0  0  0
   26.7361  -28.4674  -16.7621 C   0  0  0  0  0  0  0  0  0  0  0  0
   26.8909  -27.1952  -16.2492 C   0  0  0  0  0  0  0  0  0  0  0  0
   28.1912  -26.7954  -15.7244 C   0  0  0  0  0  0  0  0  0  0  0  0
   29.1754  -26.2890  -16.7414 C   0  0  2  0  0  0  0  0  0  0  0  0
   30.4045  -25.8192  -16.1172 N   0  0  0  0  0  0  0  0  0  0  0  0
   28.6542  -25.1839  -17.5834 C   0  0  0  0  0  0  0  0  0  0  0  0
   28.6688  -23.9993  -17.1700 O   0  0  0  0  0  0  0  0  0  0  0  0
   25.7733  -26.3866  -16.2788 C   0  0  0  0  0  0  0  0  0  0  0  0
   24.5781  -26.8148  -16.7857 C   0  0  0  0  0  0  0  0  0  0  0  0
   28.1186  -25.4067  -18.8857 N   0  0  0  0  0  0  0  0  0  0  0  0
   27.5604  -24.3457  -19.7100 C   0  0  1  0  0  0  0  0  0  0  0  0
   28.2619  -24.2367  -21.0157 C   0  0  0  0  0  0  0  0  0  0  0  0
   27.7103  -23.1653  -21.8843 C   0  0  0  0  0  0  0  0  0  0  0  0
   28.4810  -23.0323  -23.1949 C   0  0  0  0  0  0  0  0  0  0  0  0
   27.8836  -21.8679  -23.9546 C   0  0  0  0  0  0  0  0  0  0  0  0
   28.5239  -21.6451  -25.2184 N   0  0  0  0  0  0  0  0  0  0  0  0
   26.1086  -24.5247  -19.9128 C   0  0  0  0  0  0  0  0  0  0  0  0
   25.6610  -25.7220  -19.9292 O   0  0  0  0  0  0  0  0  0  0  0  0
   25.1838  -23.5329  -20.0855 O   0  0  0  0  0  0  0  0  0  0  0  0
  2  3  1  6
  2  1  1  0
  4  2  1  0
  4  5  1  1
  6 15  1  0
  6  4  1  0
  7  6  2  0
  8  9  1  0
  9 19  2  0
  9 10  1  0
 10 11  2  0
 11 12  1  0
 12 13  1  0
 14 13  1  1
 14 16  1  0
 14 15  1  0
 16 20  1  0
 17 16  2  0
 18 12  2  0
 19 18  1  0
 20 21  1  0
 21 27  1  0
 21 22  1  6
 23 22  1  0
 24 25  1  0
 24 23  1  0
 26 25  1  0
 27 28  2  0
 27 29  1  0
M  END
$$$$
