VYK.pdb
     RDKit          3D

 29 29  0  0  1  0  0  0  0  0999 V2000
   18.4248   -9.3508  -14.7313 C   0  0  0  0  0  0  0  0  0  0  0  0
   17.4621   -8.5556  -13.9197 C   0  0  2  0  0  0  0  0  0  0  0  0
   17.9316   -7.1386  -13.8011 C   0  0  0  0  0  0  0  0  0  0  0  0
   17.1711   -9.1327  -12.5651 C   0  0  2  0  0  0  0  0  0  0  0  0
   16.7714  -10.5151  -12.7527 N   0  0  0  0  0  0  0  0  0  0  0  0
   16.1722   -8.3614  -11.8016 C   0  0  0  0  0  0  0  0  0  0  0  0
   14.9854   -8.3812  -12.2178 O   0  0  0  0  0  0  0  0  0  0  0  0
   10.7607  -11.1938   -8.8445 O   0  0  0  0  0  0  0  0  0  0  0  0
   11.8199  -10.2987   -8.7772 C   0  0  0  0  0  0  0  0  0  0  0  0
   11.6301   -8.9789   -8.4732 C   0  0  0  0  0  0  0  0  0  0  0  0
   12.7368   -8.1250   -8.4203 C   0  0  0  0  0  0  0  0  0  0  0  0
   14.0224   -8.5647   -8.6643 C   0  0  0  0  0  0  0  0  0  0  0  0
   15.1242   -7.6127   -8.5876 C   0  0  0  0  0  0  0  0  0  0  0  0
   15.4562   -6.8974   -9.8671 C   0  0  2  0  0  0  0  0  0  0  0  0
   16.4718   -7.6051  -10.6345 N   0  0  0  0  0  0  0  0  0  0  0  0
   15.9361   -5.5070   -9.6710 C   0  0  0  0  0  0  0  0  0  0  0  0
   17.0771   -5.2816   -9.2000 O   0  0  0  0  0  0  0  0  0  0  0  0
   14.1609   -9.9038   -8.9665 C   0  0  0  0  0  0  0  0  0  0  0  0
   13.0903  -10.7520   -9.0225 C   0  0  0  0  0  0  0  0  0  0  0  0
   15.1389   -4.3727  -10.0027 N   0  0  0  0  0  0  0  0  0  0  0  0
   15.5653   -3.0021   -9.7651 C   0  0  1  0  0  0  0  0  0  0  0  0
   14.9636   -2.0610  -10.7455 C   0  0  0  0  0  0  0  0  0  0  0  0
   15.3468   -0.6462  -10.5040 C   0  0  0  0  0  0  0  0  0  0  0  0
   14.7176    0.3026  -11.5204 C   0  0  0  0  0  0  0  0  0  0  0  0
   15.2435    1.6913  -11.2285 C   0  0  0  0  0  0  0  0  0  0  0  0
   14.5832    2.7057  -11.9977 N   0  0  0  0  0  0  0  0  0  0  0  0
   15.2678   -2.5743   -8.3834 C   0  0  0  0  0  0  0  0  0  0  0  0
   14.3476   -3.2045   -7.7586 O   0  0  0  0  0  0  0  0  0  0  0  0
   15.8810   -1.5649   -7.6952 O   0  0  0  0  0  0  0  0  0  0  0  0
  2  3  1  1
  2  1  1  0
  4  2  1  0
  4  5  1  6
  6 15  1  0
  6  4  1  0
  7  6  2  0
  8  9  1  0
  9 19  2  0
  9 10  1  0
 10 11  2  0
 11 12  1  0
 12 13  1  0
 14 13  1  1
 14 16  1  0
 14 15  1  0
 16 20  1  0
 17 16  2  0
 18 12  2  0
 19 18  1  0
 20 21  1  0
 21 27  1  0
 21 22  1  6
 23 22  1  0
 24 25  1  0
 24 23  1  0
 26 25  1  0
 27 28  2  0
 27 29  1  0
M  END
$$$$
