VYK.pdb
     RDKit          3D

 29 29  0  0  1  0  0  0  0  0999 V2000
   29.3471  -19.2549  -14.8762 C   0  0  0  0  0  0  0  0  0  0  0  0
   28.3577  -20.1851  -14.2647 C   0  0  2  0  0  0  0  0  0  0  0  0
   28.6501  -21.5950  -14.6756 C   0  0  0  0  0  0  0  0  0  0  0  0
   26.9253  -19.8368  -14.5470 C   0  0  2  0  0  0  0  0  0  0  0  0
   26.8046  -18.3918  -14.4897 N   0  0  0  0  0  0  0  0  0  0  0  0
   25.9699  -20.5130  -13.6494 C   0  0  0  0  0  0  0  0  0  0  0  0
   25.8581  -21.7611  -13.7589 O   0  0  0  0  0  0  0  0  0  0  0  0
   28.0901  -20.5922   -6.7815 O   0  0  0  0  0  0  0  0  0  0  0  0
   27.0702  -20.4260   -7.7087 C   0  0  0  0  0  0  0  0  0  0  0  0
   26.3320  -21.4827   -8.1656 C   0  0  0  0  0  0  0  0  0  0  0  0
   25.3170  -21.2526   -9.1002 C   0  0  0  0  0  0  0  0  0  0  0  0
   25.0284  -19.9920   -9.5832 C   0  0  0  0  0  0  0  0  0  0  0  0
   23.9529  -19.8338  -10.5549 C   0  0  0  0  0  0  0  0  0  0  0  0
   24.1652  -20.5163  -11.8772 C   0  0  2  0  0  0  0  0  0  0  0  0
   25.1768  -19.8410  -12.6782 N   0  0  0  0  0  0  0  0  0  0  0  0
   22.9377  -20.6175  -12.7048 C   0  0  0  0  0  0  0  0  0  0  0  0
   22.6558  -19.7311  -13.5470 O   0  0  0  0  0  0  0  0  0  0  0  0
   25.8011  -18.9600   -9.0915 C   0  0  0  0  0  0  0  0  0  0  0  0
   26.7968  -19.1673   -8.1781 C   0  0  0  0  0  0  0  0  0  0  0  0
   22.0293  -21.7101  -12.5888 N   0  0  0  0  0  0  0  0  0  0  0  0
   20.8310  -21.8400  -13.4036 C   0  0  1  0  0  0  0  0  0  0  0  0
   20.8661  -23.0669  -14.2417 C   0  0  0  0  0  0  0  0  0  0  0  0
   19.6459  -23.2394  -15.0713 C   0  0  0  0  0  0  0  0  0  0  0  0
   19.7089  -24.4966  -15.9343 C   0  0  0  0  0  0  0  0  0  0  0  0
   18.5306  -24.4534  -16.8829 C   0  0  0  0  0  0  0  0  0  0  0  0
   18.4205  -25.6390  -17.6822 N   0  0  0  0  0  0  0  0  0  0  0  0
   19.6080  -21.8099  -12.5765 C   0  0  0  0  0  0  0  0  0  0  0  0
   19.6333  -22.4446  -11.4671 O   0  0  0  0  0  0  0  0  0  0  0  0
   18.4398  -21.1663  -12.8762 O   0  0  0  0  0  0  0  0  0  0  0  0
  2  3  1  6
  2  1  1  0
  4  2  1  0
  4  5  1  1
  6 15  1  0
  6  4  1  0
  7  6  2  0
  8  9  1  0
  9 19  2  0
  9 10  1  0
 10 11  2  0
 11 12  1  0
 12 13  1  0
 14 13  1  1
 14 16  1  0
 14 15  1  0
 16 20  1  0
 17 16  2  0
 18 12  2  0
 19 18  1  0
 20 21  1  0
 21 27  1  0
 21 22  1  1
 23 22  1  0
 24 25  1  0
 24 23  1  0
 26 25  1  0
 27 28  2  0
 27 29  1  0
M  END
$$$$
