VYK.pdb
     RDKit          3D

 29 29  0  0  1  0  0  0  0  0999 V2000
   23.7855  -18.9569  -20.9676 C   0  0  0  0  0  0  0  0  0  0  0  0
   23.4386  -19.5745  -19.6575 C   0  0  2  0  0  0  0  0  0  0  0  0
   22.3074  -18.8307  -19.0179 C   0  0  0  0  0  0  0  0  0  0  0  0
   24.5943  -19.7004  -18.7081 C   0  0  2  0  0  0  0  0  0  0  0  0
   25.6286  -20.4704  -19.3741 N   0  0  0  0  0  0  0  0  0  0  0  0
   24.2208  -20.2782  -17.4034 C   0  0  0  0  0  0  0  0  0  0  0  0
   23.8607  -21.4833  -17.3868 O   0  0  0  0  0  0  0  0  0  0  0  0
   23.3429  -21.6062   -8.6418 O   0  0  0  0  0  0  0  0  0  0  0  0
   23.6588  -21.0998   -9.8953 C   0  0  0  0  0  0  0  0  0  0  0  0
   24.8418  -21.3949  -10.5148 C   0  0  0  0  0  0  0  0  0  0  0  0
   25.1038  -20.8545  -11.7782 C   0  0  0  0  0  0  0  0  0  0  0  0
   24.2091  -20.0293  -12.4295 C   0  0  0  0  0  0  0  0  0  0  0  0
   24.5547  -19.5074  -13.7464 C   0  0  0  0  0  0  0  0  0  0  0  0
   23.8415  -20.1442  -14.9062 C   0  0  2  0  0  0  0  0  0  0  0  0
   24.2446  -19.5578  -16.1769 N   0  0  0  0  0  0  0  0  0  0  0  0
   22.3626  -20.0543  -14.8246 C   0  0  0  0  0  0  0  0  0  0  0  0
   21.7737  -18.9631  -15.0168 O   0  0  0  0  0  0  0  0  0  0  0  0
   23.0309  -19.7620  -11.7630 C   0  0  0  0  0  0  0  0  0  0  0  0
   22.7590  -20.2817  -10.5281 C   0  0  0  0  0  0  0  0  0  0  0  0
   21.5464  -21.1851  -14.5289 N   0  0  0  0  0  0  0  0  0  0  0  0
   20.1094  -21.0975  -14.3188 C   0  0  1  0  0  0  0  0  0  0  0  0
   19.3618  -21.9743  -15.2577 C   0  0  0  0  0  0  0  0  0  0  0  0
   17.8914  -21.7720  -15.1960 C   0  0  0  0  0  0  0  0  0  0  0  0
   17.1404  -22.7160  -16.1309 C   0  0  0  0  0  0  0  0  0  0  0  0
   15.7012  -22.2510  -16.1824 C   0  0  0  0  0  0  0  0  0  0  0  0
   14.9158  -22.9868  -17.1302 N   0  0  0  0  0  0  0  0  0  0  0  0
   19.7470  -21.4042  -12.9205 C   0  0  0  0  0  0  0  0  0  0  0  0
   18.7003  -20.8424  -12.4482 O   0  0  0  0  0  0  0  0  0  0  0  0
   20.4205  -22.2358  -12.0700 O   0  0  0  0  0  0  0  0  0  0  0  0
  2  3  1  1
  2  1  1  0
  4  2  1  0
  4  5  1  6
  6 15  1  0
  6  4  1  0
  7  6  2  0
  8  9  1  0
  9 19  2  0
  9 10  1  0
 10 11  2  0
 11 12  1  0
 12 13  1  0
 14 13  1  1
 14 16  1  0
 14 15  1  0
 16 20  1  0
 17 16  2  0
 18 12  2  0
 19 18  1  0
 20 21  1  0
 21 27  1  0
 21 22  1  6
 23 22  1  0
 24 25  1  0
 24 23  1  0
 26 25  1  0
 27 28  2  0
 27 29  1  0
M  END
$$$$
