VYK.pdb
     RDKit          3D

 29 29  0  0  1  0  0  0  0  0999 V2000
   26.6238  -23.0813  -18.4878 C   0  0  0  0  0  0  0  0  0  0  0  0
   27.5952  -22.0486  -18.0320 C   0  0  2  0  0  0  0  0  0  0  0  0
   28.6347  -21.8153  -19.0843 C   0  0  0  0  0  0  0  0  0  0  0  0
   28.2380  -22.3459  -16.7086 C   0  0  2  0  0  0  0  0  0  0  0  0
   29.0053  -23.5687  -16.8573 N   0  0  0  0  0  0  0  0  0  0  0  0
   27.2754  -22.4229  -15.5936 C   0  0  0  0  0  0  0  0  0  0  0  0
   26.8565  -23.5638  -15.2694 O   0  0  0  0  0  0  0  0  0  0  0  0
   22.5730  -20.3862   -8.3178 O   0  0  0  0  0  0  0  0  0  0  0  0
   23.4194  -20.3586   -9.4180 C   0  0  0  0  0  0  0  0  0  0  0  0
   23.0086  -19.8808  -10.6318 C   0  0  0  0  0  0  0  0  0  0  0  0
   23.9073  -19.8784  -11.7038 C   0  0  0  0  0  0  0  0  0  0  0  0
   25.2019  -20.3426  -11.5845 C   0  0  0  0  0  0  0  0  0  0  0  0
   26.0791  -20.3047  -12.7486 C   0  0  0  0  0  0  0  0  0  0  0  0
   25.8692  -21.3993  -13.7571 C   0  0  2  0  0  0  0  0  0  0  0  0
   26.7996  -21.2926  -14.8724 N   0  0  0  0  0  0  0  0  0  0  0  0
   24.4985  -21.4390  -14.3241 C   0  0  0  0  0  0  0  0  0  0  0  0
   24.1476  -20.6269  -15.2140 O   0  0  0  0  0  0  0  0  0  0  0  0
   25.5675  -20.8139  -10.3403 C   0  0  0  0  0  0  0  0  0  0  0  0
   24.7020  -20.8235   -9.2822 C   0  0  0  0  0  0  0  0  0  0  0  0
   23.5243  -22.3871  -13.8947 N   0  0  0  0  0  0  0  0  0  0  0  0
   22.1625  -22.4176  -14.4062 C   0  0  1  0  0  0  0  0  0  0  0  0
   21.7116  -23.8055  -14.6875 C   0  0  0  0  0  0  0  0  0  0  0  0
   22.6666  -24.5670  -15.5328 C   0  0  0  0  0  0  0  0  0  0  0  0
   22.1669  -25.9758  -15.8407 C   0  0  0  0  0  0  0  0  0  0  0  0
   23.1757  -26.6213  -16.7658 C   0  0  0  0  0  0  0  0  0  0  0  0
   22.8877  -28.0030  -17.0203 N   0  0  0  0  0  0  0  0  0  0  0  0
   21.2241  -21.7418  -13.4878 C   0  0  0  0  0  0  0  0  0  0  0  0
   20.0230  -21.5756  -13.8927 O   0  0  0  0  0  0  0  0  0  0  0  0
   21.5087  -21.2716  -12.2362 O   0  0  0  0  0  0  0  0  0  0  0  0
  2  3  1  6
  2  1  1  0
  4  2  1  0
  4  5  1  6
  6 15  1  0
  6  4  1  0
  7  6  2  0
  8  9  1  0
  9 19  2  0
  9 10  1  0
 10 11  2  0
 11 12  1  0
 12 13  1  0
 14 13  1  1
 14 16  1  0
 14 15  1  0
 16 20  1  0
 17 16  2  0
 18 12  2  0
 19 18  1  0
 20 21  1  0
 21 27  1  0
 21 22  1  1
 23 22  1  0
 24 25  1  0
 24 23  1  0
 26 25  1  0
 27 28  2  0
 27 29  1  0
M  END
$$$$
