VYK.pdb
     RDKit          3D

 29 29  0  0  1  0  0  0  0  0999 V2000
   28.5485  -31.4782  -17.3913 C   0  0  0  0  0  0  0  0  0  0  0  0
   28.5101  -32.4942  -16.3031 C   0  0  2  0  0  0  0  0  0  0  0  0
   27.8224  -33.7364  -16.7786 C   0  0  0  0  0  0  0  0  0  0  0  0
   27.8971  -32.0059  -15.0230 C   0  0  2  0  0  0  0  0  0  0  0  0
   28.7371  -30.9382  -14.5124 N   0  0  0  0  0  0  0  0  0  0  0  0
   27.6868  -33.0749  -14.0287 C   0  0  0  0  0  0  0  0  0  0  0  0
   28.6189  -33.2980  -13.2141 O   0  0  0  0  0  0  0  0  0  0  0  0
   25.6128  -31.9925   -7.1735 O   0  0  0  0  0  0  0  0  0  0  0  0
   25.4646  -32.6190   -8.4036 C   0  0  0  0  0  0  0  0  0  0  0  0
   25.2897  -31.9077   -9.5585 C   0  0  0  0  0  0  0  0  0  0  0  0
   25.1459  -32.5954  -10.7681 C   0  0  0  0  0  0  0  0  0  0  0  0
   25.1739  -33.9735  -10.8432 C   0  0  0  0  0  0  0  0  0  0  0  0
   25.0190  -34.6163  -12.1427 C   0  0  0  0  0  0  0  0  0  0  0  0
   26.2921  -34.8602  -12.9037 C   0  0  2  0  0  0  0  0  0  0  0  0
   26.5030  -33.8589  -13.9400 N   0  0  0  0  0  0  0  0  0  0  0  0
   26.3578  -36.1926  -13.5534 C   0  0  0  0  0  0  0  0  0  0  0  0
   25.8091  -36.3937  -14.6638 O   0  0  0  0  0  0  0  0  0  0  0  0
   25.3527  -34.6447   -9.6511 C   0  0  0  0  0  0  0  0  0  0  0  0
   25.4948  -33.9884   -8.4603 C   0  0  0  0  0  0  0  0  0  0  0  0
   27.0373  -37.2963  -12.9597 N   0  0  0  0  0  0  0  0  0  0  0  0
   27.0504  -38.6301  -13.5408 C   0  0  1  0  0  0  0  0  0  0  0  0
   25.7273  -38.9944  -14.1115 C   0  0  0  0  0  0  0  0  0  0  0  0
   24.7451  -39.4153  -13.0796 C   0  0  0  0  0  0  0  0  0  0  0  0
   23.3834  -39.7492  -13.6825 C   0  0  0  0  0  0  0  0  0  0  0  0
   22.5086  -40.2702  -12.5630 C   0  0  0  0  0  0  0  0  0  0  0  0
   21.1911  -40.6207  -13.0080 N   0  0  0  0  0  0  0  0  0  0  0  0
   28.1114  -38.7668  -14.5588 C   0  0  0  0  0  0  0  0  0  0  0  0
   28.9770  -37.8292  -14.6346 O   0  0  0  0  0  0  0  0  0  0  0  0
   28.2666  -39.8029  -15.4369 O   0  0  0  0  0  0  0  0  0  0  0  0
  2  3  1  6
  2  1  1  0
  4  2  1  0
  4  5  1  1
  6 15  1  0
  6  4  1  0
  7  6  2  0
  8  9  1  0
  9 19  2  0
  9 10  1  0
 10 11  2  0
 11 12  1  0
 12 13  1  0
 14 13  1  6
 14 16  1  0
 14 15  1  0
 16 20  1  0
 17 16  2  0
 18 12  2  0
 19 18  1  0
 20 21  1  0
 21 27  1  0
 21 22  1  6
 23 22  1  0
 24 25  1  0
 24 23  1  0
 26 25  1  0
 27 28  2  0
 27 29  1  0
M  END
$$$$
