VYK.pdb
     RDKit          3D

 29 29  0  0  1  0  0  0  0  0999 V2000
   29.0877  -19.7350  -14.8605 C   0  0  0  0  0  0  0  0  0  0  0  0
   28.1036  -18.8078  -15.4849 C   0  0  2  0  0  0  0  0  0  0  0  0
   28.7666  -17.5139  -15.8433 C   0  0  0  0  0  0  0  0  0  0  0  0
   26.8747  -18.5627  -14.6587 C   0  0  2  0  0  0  0  0  0  0  0  0
   27.2843  -17.8524  -13.4613 N   0  0  0  0  0  0  0  0  0  0  0  0
   26.1222  -19.7928  -14.3483 C   0  0  0  0  0  0  0  0  0  0  0  0
   25.6040  -20.4121  -15.3127 O   0  0  0  0  0  0  0  0  0  0  0  0
   27.6493  -18.9241   -7.3880 O   0  0  0  0  0  0  0  0  0  0  0  0
   27.1550  -19.7271   -8.4071 C   0  0  0  0  0  0  0  0  0  0  0  0
   27.9725  -20.2627   -9.3638 C   0  0  0  0  0  0  0  0  0  0  0  0
   27.4159  -21.0643  -10.3659 C   0  0  0  0  0  0  0  0  0  0  0  0
   26.0643  -21.3384  -10.4282 C   0  0  0  0  0  0  0  0  0  0  0  0
   25.5612  -22.1852  -11.5033 C   0  0  0  0  0  0  0  0  0  0  0  0
   25.1094  -21.4639  -12.7423 C   0  0  2  0  0  0  0  0  0  0  0  0
   25.9513  -20.3123  -13.0350 N   0  0  0  0  0  0  0  0  0  0  0  0
   23.7065  -20.9844  -12.6803 C   0  0  0  0  0  0  0  0  0  0  0  0
   23.4141  -19.9314  -12.0636 O   0  0  0  0  0  0  0  0  0  0  0  0
   25.2826  -20.7749   -9.4408 C   0  0  0  0  0  0  0  0  0  0  0  0
   25.8102  -19.9892   -8.4543 C   0  0  0  0  0  0  0  0  0  0  0  0
   22.6346  -21.6834  -13.3087 N   0  0  0  0  0  0  0  0  0  0  0  0
   21.2516  -21.2345  -13.2568 C   0  0  1  0  0  0  0  0  0  0  0  0
   20.6946  -21.0110  -14.6165 C   0  0  0  0  0  0  0  0  0  0  0  0
   19.2801  -20.5576  -14.5979 C   0  0  0  0  0  0  0  0  0  0  0  0
   18.7291  -20.3312  -16.0030 C   0  0  0  0  0  0  0  0  0  0  0  0
   17.3324  -19.7677  -15.8557 C   0  0  0  0  0  0  0  0  0  0  0  0
   16.6795  -19.5709  -17.1173 N   0  0  0  0  0  0  0  0  0  0  0  0
   20.4052  -22.1755  -12.4961 C   0  0  0  0  0  0  0  0  0  0  0  0
   20.6659  -23.4220  -12.6076 O   0  0  0  0  0  0  0  0  0  0  0  0
   19.3617  -21.8489  -11.6756 O   0  0  0  0  0  0  0  0  0  0  0  0
  2  3  1  1
  2  1  1  0
  4  2  1  0
  4  5  1  1
  6 15  1  0
  6  4  1  0
  7  6  2  0
  8  9  1  0
  9 19  2  0
  9 10  1  0
 10 11  2  0
 11 12  1  0
 12 13  1  0
 14 13  1  1
 14 16  1  0
 14 15  1  0
 16 20  1  0
 17 16  2  0
 18 12  2  0
 19 18  1  0
 20 21  1  0
 21 27  1  0
 21 22  1  6
 23 22  1  0
 24 25  1  0
 24 23  1  0
 26 25  1  0
 27 28  2  0
 27 29  1  0
M  END
$$$$
