FDQ.pdb
     RDKit          3D

 29 29  0  0  1  0  0  0  0  0999 V2000
   20.1517  -11.7395  -14.7512 N   0  0  0  0  0  0  0  0  0  0  0  0
   20.5862  -10.3780  -14.6834 C   0  0  1  0  0  0  0  0  0  0  0  0
   21.6621  -10.1212  -15.6950 C   0  0  0  0  0  0  0  0  0  0  0  0
   22.8527  -10.9650  -15.4644 C   0  0  0  0  0  0  0  0  0  0  0  0
   23.7307  -10.6716  -14.4552 C   0  0  0  0  0  0  0  0  0  0  0  0
   24.8748  -11.4132  -14.1940 C   0  0  0  0  0  0  0  0  0  0  0  0
   25.1424  -12.5030  -14.9931 C   0  0  0  0  0  0  0  0  0  0  0  0
   24.2734  -12.8277  -16.0234 C   0  0  0  0  0  0  0  0  0  0  0  0
   23.1393  -12.0708  -16.2608 C   0  0  0  0  0  0  0  0  0  0  0  0
   19.4625   -9.4131  -14.7650 C   0  0  0  0  0  0  0  0  0  0  0  0
   18.4520   -9.7195  -15.4816 O   0  0  0  0  0  0  0  0  0  0  0  0
   19.4101   -8.1680  -14.1126 N   0  0  0  0  0  0  0  0  0  0  0  0
   18.3011   -7.2985  -14.2762 C   0  0  1  0  0  0  0  0  0  0  0  0
   17.3484   -7.4412  -13.1136 C   0  0  0  0  0  0  0  0  0  0  0  0
   16.1969   -6.5347  -13.3845 C   0  0  0  0  0  0  0  0  0  0  0  0
   15.6505   -6.4794  -14.5273 O   0  0  0  0  0  0  0  0  0  0  0  0
   18.6592   -5.8997  -14.5427 C   0  0  0  0  0  0  0  0  0  0  0  0
   19.4044   -5.2918  -13.7549 O   0  0  0  0  0  0  0  0  0  0  0  0
   15.7095   -5.7337  -12.3768 O   0  0  0  0  0  0  0  0  0  0  0  0
   17.5812   -2.9357  -19.9489 N   0  0  0  0  0  0  0  0  0  0  0  0
   18.6173   -3.8842  -19.7319 C   0  0  0  0  0  0  0  0  0  0  0  0
   19.1483   -4.4275  -20.7514 O   0  0  0  0  0  0  0  0  0  0  0  0
   19.0188   -4.1881  -18.3458 C   0  0  0  0  0  0  0  0  0  0  0  0
   18.1822   -3.4415  -17.3298 C   0  0  0  0  0  0  0  0  0  0  0  0
   18.5667   -3.8572  -15.9140 C   0  0  2  0  0  0  0  0  0  0  0  0
   18.1620   -5.2468  -15.6896 N   0  0  0  0  0  0  0  0  0  0  0  0
   17.7682   -3.0125  -14.9958 C   0  0  0  0  0  0  0  0  0  0  0  0
   18.0498   -1.6556  -14.8720 O   0  0  0  0  0  0  0  0  0  0  0  0
   16.8297   -3.4949  -14.3130 O   0  0  0  0  0  0  0  0  0  0  0  0
  2  1  1  6
  2  3  1  0
  2 10  1  0
  3  4  1  0
  4  5  2  0
  5  6  1  0
  7  6  2  0
  8  7  1  0
  9  8  2  0
  9  4  1  0
 10 11  2  0
 12 10  1  0
 12 13  1  0
 13 14  1  1
 14 15  1  0
 15 19  1  0
 16 15  2  0
 17 13  1  0
 17 18  2  0
 21 20  1  0
 21 22  2  0
 23 21  1  0
 24 23  1  0
 25 24  1  6
 25 26  1  0
 26 17  1  0
 27 28  1  0
 27 25  1  0
 29 27  2  0
M  END
$$$$
