FDQ.pdb
     RDKit          3D

 29 29  0  0  1  0  0  0  0  0999 V2000
   28.2782  -19.1623  -12.5944 N   0  0  0  0  0  0  0  0  0  0  0  0
   27.6350  -20.3755  -12.9959 C   0  0  1  0  0  0  0  0  0  0  0  0
   27.5047  -21.3092  -11.8304 C   0  0  0  0  0  0  0  0  0  0  0  0
   28.7990  -21.5376  -11.1558 C   0  0  0  0  0  0  0  0  0  0  0  0
   28.9885  -21.1429   -9.8582 C   0  0  0  0  0  0  0  0  0  0  0  0
   30.1824  -21.3137   -9.1709 C   0  0  0  0  0  0  0  0  0  0  0  0
   31.2342  -21.9122   -9.8292 C   0  0  0  0  0  0  0  0  0  0  0  0
   31.0754  -22.3241  -11.1434 C   0  0  0  0  0  0  0  0  0  0  0  0
   29.8730  -22.1418  -11.8043 C   0  0  0  0  0  0  0  0  0  0  0  0
   26.3526  -20.1376  -13.7026 C   0  0  0  0  0  0  0  0  0  0  0  0
   25.6042  -19.1875  -13.2957 O   0  0  0  0  0  0  0  0  0  0  0  0
   25.8785  -20.8790  -14.7999 N   0  0  0  0  0  0  0  0  0  0  0  0
   24.6436  -20.5625  -15.4225 C   0  0  1  0  0  0  0  0  0  0  0  0
   24.7693  -20.6783  -16.9227 C   0  0  0  0  0  0  0  0  0  0  0  0
   24.8731  -19.2905  -17.4562 C   0  0  0  0  0  0  0  0  0  0  0  0
   23.9129  -18.4685  -17.3582 O   0  0  0  0  0  0  0  0  0  0  0  0
   23.4896  -21.3014  -14.8951 C   0  0  0  0  0  0  0  0  0  0  0  0
   23.6357  -22.4670  -14.4884 O   0  0  0  0  0  0  0  0  0  0  0  0
   26.0344  -18.8837  -18.0731 O   0  0  0  0  0  0  0  0  0  0  0  0
   21.6795  -20.0504   -9.4434 N   0  0  0  0  0  0  0  0  0  0  0  0
   21.0968  -19.8442  -10.7233 C   0  0  0  0  0  0  0  0  0  0  0  0
   20.5487  -18.7201  -10.9524 O   0  0  0  0  0  0  0  0  0  0  0  0
   21.1562  -20.9372  -11.7116 C   0  0  0  0  0  0  0  0  0  0  0  0
   20.5777  -20.5321  -13.0498 C   0  0  0  0  0  0  0  0  0  0  0  0
   21.1419  -21.4094  -14.1620 C   0  0  2  0  0  0  0  0  0  0  0  0
   22.2191  -20.6913  -14.8471 N   0  0  0  0  0  0  0  0  0  0  0  0
   20.0482  -21.6017  -15.1423 C   0  0  0  0  0  0  0  0  0  0  0  0
   18.9529  -22.3969  -14.8201 O   0  0  0  0  0  0  0  0  0  0  0  0
   20.0830  -21.0598  -16.2758 O   0  0  0  0  0  0  0  0  0  0  0  0
  2  1  1  1
  2  3  1  0
  2 10  1  0
  3  4  1  0
  4  5  2  0
  5  6  1  0
  7  6  2  0
  8  7  1  0
  9  8  2  0
  9  4  1  0
 10 11  2  0
 12 10  1  0
 12 13  1  0
 13 14  1  6
 14 15  1  0
 15 19  1  0
 16 15  2  0
 17 13  1  0
 17 18  2  0
 21 20  1  0
 21 22  2  0
 23 21  1  0
 24 23  1  0
 25 24  1  1
 25 26  1  0
 26 17  1  0
 27 28  1  0
 27 25  1  0
 29 27  2  0
M  END
$$$$
