FDQ.pdb
     RDKit          3D

 29 29  0  0  1  0  0  0  0  0999 V2000
   30.0219  -31.5754  -16.3164 N   0  0  0  0  0  0  0  0  0  0  0  0
   28.8973  -30.9365  -16.9281 C   0  0  1  0  0  0  0  0  0  0  0  0
   27.6292  -31.6475  -16.5631 C   0  0  0  0  0  0  0  0  0  0  0  0
   27.5116  -32.9548  -17.2412 C   0  0  0  0  0  0  0  0  0  0  0  0
   27.8238  -34.1135  -16.5812 C   0  0  0  0  0  0  0  0  0  0  0  0
   27.7498  -35.3716  -17.1632 C   0  0  0  0  0  0  0  0  0  0  0  0
   27.3407  -35.4602  -18.4757 C   0  0  0  0  0  0  0  0  0  0  0  0
   27.0167  -34.3062  -19.1724 C   0  0  0  0  0  0  0  0  0  0  0  0
   27.0990  -33.0644  -18.5667 C   0  0  0  0  0  0  0  0  0  0  0  0
   28.8502  -29.4785  -16.6590 C   0  0  0  0  0  0  0  0  0  0  0  0
   29.4294  -29.0371  -15.6112 O   0  0  0  0  0  0  0  0  0  0  0  0
   28.2122  -28.5218  -17.4691 N   0  0  0  0  0  0  0  0  0  0  0  0
   28.2595  -27.1400  -17.1508 C   0  0  1  0  0  0  0  0  0  0  0  0
   29.2684  -26.4358  -18.0260 C   0  0  0  0  0  0  0  0  0  0  0  0
   29.3823  -25.0397  -17.5170 C   0  0  0  0  0  0  0  0  0  0  0  0
   29.3465  -24.7807  -16.2764 O   0  0  0  0  0  0  0  0  0  0  0  0
   26.9522  -26.4715  -17.1480 C   0  0  0  0  0  0  0  0  0  0  0  0
   26.1671  -26.6457  -18.0961 O   0  0  0  0  0  0  0  0  0  0  0  0
   29.5283  -24.0004  -18.4076 O   0  0  0  0  0  0  0  0  0  0  0  0
   23.1135  -22.4290  -14.4617 N   0  0  0  0  0  0  0  0  0  0  0  0
   22.6041  -23.7359  -14.2320 C   0  0  0  0  0  0  0  0  0  0  0  0
   21.3649  -23.8534  -13.9729 O   0  0  0  0  0  0  0  0  0  0  0  0
   23.5325  -24.8794  -14.3039 C   0  0  0  0  0  0  0  0  0  0  0  0
   24.9242  -24.4623  -14.7267 C   0  0  0  0  0  0  0  0  0  0  0  0
   25.2542  -25.0263  -16.1044 C   0  0  2  0  0  0  0  0  0  0  0  0
   26.5857  -25.6358  -16.0729 N   0  0  0  0  0  0  0  0  0  0  0  0
   25.3212  -23.8700  -17.0277 C   0  0  0  0  0  0  0  0  0  0  0  0
   26.5537  -23.3346  -17.3887 O   0  0  0  0  0  0  0  0  0  0  0  0
   24.2796  -23.3493  -17.5005 O   0  0  0  0  0  0  0  0  0  0  0  0
  2  1  1  1
  2  3  1  0
  2 10  1  0
  3  4  1  0
  4  5  2  0
  5  6  1  0
  7  6  2  0
  8  7  1  0
  9  8  2  0
  9  4  1  0
 10 11  2  0
 12 10  1  0
 12 13  1  0
 13 14  1  6
 14 15  1  0
 15 19  1  0
 16 15  2  0
 17 13  1  0
 17 18  2  0
 21 20  1  0
 21 22  2  0
 23 21  1  0
 24 23  1  0
 25 24  1  1
 25 26  1  0
 26 17  1  0
 27 28  1  0
 27 25  1  0
 29 27  2  0
M  END
$$$$
