FDQ.pdb
     RDKit          3D

 29 29  0  0  1  0  0  0  0  0999 V2000
   27.0613  -21.5027   -8.0212 N   0  0  0  0  0  0  0  0  0  0  0  0
   26.5385  -20.2014   -8.3048 C   0  0  1  0  0  0  0  0  0  0  0  0
   27.5313  -19.1445   -7.9250 C   0  0  0  0  0  0  0  0  0  0  0  0
   27.9380  -19.2492   -6.5086 C   0  0  0  0  0  0  0  0  0  0  0  0
   29.2629  -19.2607   -6.1623 C   0  0  0  0  0  0  0  0  0  0  0  0
   29.7129  -19.3717   -4.8537 C   0  0  0  0  0  0  0  0  0  0  0  0
   28.7766  -19.4762   -3.8486 C   0  0  0  0  0  0  0  0  0  0  0  0
   27.4268  -19.4672   -4.1651 C   0  0  0  0  0  0  0  0  0  0  0  0
   27.0063  -19.3547   -5.4790 C   0  0  0  0  0  0  0  0  0  0  0  0
   26.0490  -20.0719   -9.6991 C   0  0  0  0  0  0  0  0  0  0  0  0
   26.0838  -18.9207  -10.2487 O   0  0  0  0  0  0  0  0  0  0  0  0
   25.5397  -21.1225  -10.4836 N   0  0  0  0  0  0  0  0  0  0  0  0
   25.1797  -20.9188  -11.8407 C   0  0  1  0  0  0  0  0  0  0  0  0
   25.9284  -21.8816  -12.7308 C   0  0  0  0  0  0  0  0  0  0  0  0
   25.6885  -21.4469  -14.1360 C   0  0  0  0  0  0  0  0  0  0  0  0
   25.7524  -22.2640  -15.1033 O   0  0  0  0  0  0  0  0  0  0  0  0
   23.7334  -20.9260  -12.0938 C   0  0  0  0  0  0  0  0  0  0  0  0
   23.0821  -21.9716  -11.9268 O   0  0  0  0  0  0  0  0  0  0  0  0
   25.3920  -20.1289  -14.3995 O   0  0  0  0  0  0  0  0  0  0  0  0
   20.5700  -17.3349  -16.1131 N   0  0  0  0  0  0  0  0  0  0  0  0
   19.5228  -18.0289  -15.4484 C   0  0  0  0  0  0  0  0  0  0  0  0
   18.3369  -17.8670  -15.8774 O   0  0  0  0  0  0  0  0  0  0  0  0
   19.8629  -18.8932  -14.3029 C   0  0  0  0  0  0  0  0  0  0  0  0
   21.3480  -18.9022  -14.0126 C   0  0  0  0  0  0  0  0  0  0  0  0
   21.6581  -19.8386  -12.8499 C   0  0  2  0  0  0  0  0  0  0  0  0
   23.0830  -19.7505  -12.5228 N   0  0  0  0  0  0  0  0  0  0  0  0
   21.4026  -21.2139  -13.3373 C   0  0  0  0  0  0  0  0  0  0  0  0
   20.3541  -21.9594  -12.8076 O   0  0  0  0  0  0  0  0  0  0  0  0
   22.1189  -21.7355  -14.2288 O   0  0  0  0  0  0  0  0  0  0  0  0
  2  1  1  6
  2  3  1  0
  2 10  1  0
  3  4  1  0
  4  5  2  0
  5  6  1  0
  7  6  2  0
  8  7  1  0
  9  8  2  0
  9  4  1  0
 10 11  2  0
 12 10  1  0
 12 13  1  0
 13 14  1  6
 14 15  1  0
 15 19  1  0
 16 15  2  0
 17 13  1  0
 17 18  2  0
 21 20  1  0
 21 22  2  0
 23 21  1  0
 24 23  1  0
 25 24  1  6
 25 26  1  0
 26 17  1  0
 27 28  1  0
 27 25  1  0
 29 27  2  0
M  END
$$$$
