FDQ.pdb
     RDKit          3D

 29 29  0  0  1  0  0  0  0  0999 V2000
   19.0200  -10.4429  -17.6655 N   0  0  0  0  0  0  0  0  0  0  0  0
   20.2630   -9.7407  -17.7604 C   0  0  1  0  0  0  0  0  0  0  0  0
   20.5740   -9.4185  -19.1909 C   0  0  0  0  0  0  0  0  0  0  0  0
   20.6878  -10.6352  -20.0211 C   0  0  0  0  0  0  0  0  0  0  0  0
   19.7021  -10.9663  -20.9123 C   0  0  0  0  0  0  0  0  0  0  0  0
   19.7393  -12.1013  -21.7107 C   0  0  0  0  0  0  0  0  0  0  0  0
   20.8261  -12.9407  -21.6009 C   0  0  0  0  0  0  0  0  0  0  0  0
   21.8419  -12.6343  -20.7085 C   0  0  0  0  0  0  0  0  0  0  0  0
   21.7790  -11.4951  -19.9249 C   0  0  0  0  0  0  0  0  0  0  0  0
   20.3228   -8.5581  -16.8668 C   0  0  0  0  0  0  0  0  0  0  0  0
   19.2266   -8.0768  -16.4251 O   0  0  0  0  0  0  0  0  0  0  0  0
   21.5002   -7.9074  -16.4560 N   0  0  0  0  0  0  0  0  0  0  0  0
   21.4560   -6.7875  -15.5861 C   0  0  1  0  0  0  0  0  0  0  0  0
   21.9139   -7.1815  -14.2023 C   0  0  0  0  0  0  0  0  0  0  0  0
   21.7565   -5.9789  -13.3362 C   0  0  0  0  0  0  0  0  0  0  0  0
   20.6177   -5.6004  -12.9270 O   0  0  0  0  0  0  0  0  0  0  0  0
   22.1507   -5.5969  -16.0917 C   0  0  0  0  0  0  0  0  0  0  0  0
   23.1615   -5.7271  -16.8036 O   0  0  0  0  0  0  0  0  0  0  0  0
   22.8679   -5.2550  -12.9682 O   0  0  0  0  0  0  0  0  0  0  0  0
   22.8492   -4.1277  -20.6406 N   0  0  0  0  0  0  0  0  0  0  0  0
   23.1552   -2.8058  -20.2174 C   0  0  0  0  0  0  0  0  0  0  0  0
   23.6796   -2.0170  -21.0655 O   0  0  0  0  0  0  0  0  0  0  0  0
   22.8525   -2.4207  -18.8264 C   0  0  0  0  0  0  0  0  0  0  0  0
   22.3983   -3.5981  -17.9915 C   0  0  0  0  0  0  0  0  0  0  0  0
   22.1987   -3.1766  -16.5397 C   0  0  2  0  0  0  0  0  0  0  0  0
   21.6726   -4.3088  -15.7738 N   0  0  0  0  0  0  0  0  0  0  0  0
   21.1541   -2.1263  -16.5462 C   0  0  0  0  0  0  0  0  0  0  0  0
   19.9031   -2.3817  -15.9935 O   0  0  0  0  0  0  0  0  0  0  0  0
   21.3688   -0.9934  -17.0463 O   0  0  0  0  0  0  0  0  0  0  0  0
  2  1  1  6
  2  3  1  0
  2 10  1  0
  3  4  1  0
  4  5  2  0
  5  6  1  0
  7  6  2  0
  8  7  1  0
  9  8  2  0
  9  4  1  0
 10 11  2  0
 12 10  1  0
 12 13  1  0
 13 14  1  1
 14 15  1  0
 15 19  1  0
 16 15  2  0
 17 13  1  0
 17 18  2  0
 21 20  1  0
 21 22  2  0
 23 21  1  0
 24 23  1  0
 25 24  1  6
 25 26  1  0
 26 17  1  0
 27 28  1  0
 27 25  1  0
 29 27  2  0
M  END
$$$$
