FDQ.pdb
     RDKit          3D

 29 29  0  0  1  0  0  0  0  0999 V2000
   22.5344  -20.0833  -14.9153 N   0  0  0  0  0  0  0  0  0  0  0  0
   21.9470  -19.2969  -15.9562 C   0  0  1  0  0  0  0  0  0  0  0  0
   20.4698  -19.1622  -15.7400 C   0  0  0  0  0  0  0  0  0  0  0  0
   19.7770  -20.4646  -15.8188 C   0  0  0  0  0  0  0  0  0  0  0  0
   19.2218  -21.0281  -14.7009 C   0  0  0  0  0  0  0  0  0  0  0  0
   18.5708  -22.2543  -14.7025 C   0  0  0  0  0  0  0  0  0  0  0  0
   18.4782  -22.9421  -15.8925 C   0  0  0  0  0  0  0  0  0  0  0  0
   19.0292  -22.3992  -17.0431 C   0  0  0  0  0  0  0  0  0  0  0  0
   19.6723  -21.1740  -17.0126 C   0  0  0  0  0  0  0  0  0  0  0  0
   22.6325  -17.9953  -16.1474 C   0  0  0  0  0  0  0  0  0  0  0  0
   22.9587  -17.3248  -15.1119 O   0  0  0  0  0  0  0  0  0  0  0  0
   22.9603  -17.4232  -17.3899 N   0  0  0  0  0  0  0  0  0  0  0  0
   23.6183  -16.1689  -17.4709 C   0  0  1  0  0  0  0  0  0  0  0  0
   24.8197  -16.2661  -18.3803 C   0  0  0  0  0  0  0  0  0  0  0  0
   25.4913  -14.9359  -18.3530 C   0  0  0  0  0  0  0  0  0  0  0  0
   25.1227  -13.9908  -19.1135 O   0  0  0  0  0  0  0  0  0  0  0  0
   22.7410  -15.0429  -17.8149 C   0  0  0  0  0  0  0  0  0  0  0  0
   21.9354  -15.1523  -18.7554 O   0  0  0  0  0  0  0  0  0  0  0  0
   26.5385  -14.7199  -17.4862 O   0  0  0  0  0  0  0  0  0  0  0  0
   17.9553  -10.3409  -15.5009 N   0  0  0  0  0  0  0  0  0  0  0  0
   18.7574  -11.5136  -15.5413 C   0  0  0  0  0  0  0  0  0  0  0  0
   18.5544  -12.4030  -14.6557 O   0  0  0  0  0  0  0  0  0  0  0  0
   19.7772  -11.6367  -16.5995 C   0  0  0  0  0  0  0  0  0  0  0  0
   20.8162  -12.6877  -16.2749 C   0  0  0  0  0  0  0  0  0  0  0  0
   21.8408  -12.7895  -17.3996 C   0  0  2  0  0  0  0  0  0  0  0  0
   22.8089  -13.8411  -17.0802 N   0  0  0  0  0  0  0  0  0  0  0  0
   22.5767  -11.5041  -17.4163 C   0  0  0  0  0  0  0  0  0  0  0  0
   22.1434  -10.4614  -18.2292 O   0  0  0  0  0  0  0  0  0  0  0  0
   23.5989  -11.3264  -16.7068 O   0  0  0  0  0  0  0  0  0  0  0  0
  2  1  1  1
  2  3  1  0
  2 10  1  0
  3  4  1  0
  4  5  2  0
  5  6  1  0
  7  6  2  0
  8  7  1  0
  9  8  2  0
  9  4  1  0
 10 11  2  0
 12 10  1  0
 12 13  1  0
 13 14  1  6
 14 15  1  0
 15 19  1  0
 16 15  2  0
 17 13  1  0
 17 18  2  0
 21 20  1  0
 21 22  2  0
 23 21  1  0
 24 23  1  0
 25 24  1  1
 25 26  1  0
 26 17  1  0
 27 28  1  0
 27 25  1  0
 29 27  2  0
M  END
$$$$
