FDQ.pdb
     RDKit          3D

 29 29  0  0  1  0  0  0  0  0999 V2000
   32.3256  -38.3077   -7.5856 N   0  0  0  0  0  0  0  0  0  0  0  0
   32.4248  -37.2415   -6.6367 C   0  0  1  0  0  0  0  0  0  0  0  0
   31.7284  -36.0175   -7.1504 C   0  0  0  0  0  0  0  0  0  0  0  0
   31.6375  -34.9593   -6.1235 C   0  0  0  0  0  0  0  0  0  0  0  0
   30.4192  -34.5442   -5.6557 C   0  0  0  0  0  0  0  0  0  0  0  0
   30.2625  -33.5459   -4.7038 C   0  0  0  0  0  0  0  0  0  0  0  0
   31.3933  -32.9392   -4.2026 C   0  0  0  0  0  0  0  0  0  0  0  0
   32.6423  -33.3365   -4.6547 C   0  0  0  0  0  0  0  0  0  0  0  0
   32.7690  -34.3353   -5.6043 C   0  0  0  0  0  0  0  0  0  0  0  0
   31.9831  -37.6404   -5.2780 C   0  0  0  0  0  0  0  0  0  0  0  0
   30.8925  -38.2930   -5.1630 O   0  0  0  0  0  0  0  0  0  0  0  0
   32.6701  -37.3582   -4.0834 N   0  0  0  0  0  0  0  0  0  0  0  0
   32.1306  -37.7200   -2.8221 C   0  0  1  0  0  0  0  0  0  0  0  0
   33.2280  -37.8043   -1.7885 C   0  0  0  0  0  0  0  0  0  0  0  0
   32.6784  -38.5733   -0.6362 C   0  0  0  0  0  0  0  0  0  0  0  0
   31.8635  -39.5298   -0.8051 O   0  0  0  0  0  0  0  0  0  0  0  0
   31.0041  -36.8879   -2.3813 C   0  0  0  0  0  0  0  0  0  0  0  0
   30.7754  -35.8061   -2.9495 O   0  0  0  0  0  0  0  0  0  0  0  0
   33.0574  -38.2432    0.6452 O   0  0  0  0  0  0  0  0  0  0  0  0
   24.8435  -35.7521   -3.2369 N   0  0  0  0  0  0  0  0  0  0  0  0
   25.4071  -36.6203   -2.2628 C   0  0  0  0  0  0  0  0  0  0  0  0
   24.8601  -37.7551   -2.0910 O   0  0  0  0  0  0  0  0  0  0  0  0
   26.5875  -36.1629   -1.5062 C   0  0  0  0  0  0  0  0  0  0  0  0
   27.8381  -36.9301   -1.8761 C   0  0  0  0  0  0  0  0  0  0  0  0
   29.0065  -36.5015   -0.9951 C   0  0  2  0  0  0  0  0  0  0  0  0
   30.1814  -37.3142   -1.3181 N   0  0  0  0  0  0  0  0  0  0  0  0
   28.6212  -36.8195    0.3993 C   0  0  0  0  0  0  0  0  0  0  0  0
   29.3109  -37.7975    1.1091 O   0  0  0  0  0  0  0  0  0  0  0  0
   27.6725  -36.2226    0.9681 O   0  0  0  0  0  0  0  0  0  0  0  0
  2  1  1  6
  2  3  1  0
  2 10  1  0
  3  4  1  0
  4  5  2  0
  5  6  1  0
  7  6  2  0
  8  7  1  0
  9  8  2  0
  9  4  1  0
 10 11  2  0
 12 10  1  0
 12 13  1  0
 13 14  1  1
 14 15  1  0
 15 19  1  0
 16 15  2  0
 17 13  1  0
 17 18  2  0
 21 20  1  0
 21 22  2  0
 23 21  1  0
 24 23  1  0
 25 24  1  6
 25 26  1  0
 26 17  1  0
 27 28  1  0
 27 25  1  0
 29 27  2  0
M  END
$$$$
