YKH.pdb
     RDKit          3D

 32 33  0  0  1  0  0  0  0  0999 V2000
   10.2210  -14.3030   30.9789 O   0  0  0  0  0  0  0  0  0  0  0  0
   10.1530  -14.6628   29.6389 C   0  0  0  0  0  0  0  0  0  0  0  0
    9.6865  -13.7983   28.6689 C   0  0  0  0  0  0  0  0  0  0  0  0
    9.6358  -14.2011   27.3376 C   0  0  0  0  0  0  0  0  0  0  0  0
   10.0412  -15.4498   26.9525 C   0  0  0  0  0  0  0  0  0  0  0  0
    9.9768  -15.8537   25.5239 C   0  0  0  0  0  0  0  0  0  0  0  0
    8.5184  -16.0568   25.1692 C   0  0  2  0  0  0  0  0  0  0  0  0
    8.0396  -17.1760   25.9444 N   0  0  0  0  0  0  0  0  0  0  0  0
    8.3243  -16.3630   23.7351 C   0  0  0  0  0  0  0  0  0  0  0  0
    8.5585  -17.5044   23.2981 O   0  0  0  0  0  0  0  0  0  0  0  0
   10.5056  -16.3075   27.9252 C   0  0  0  0  0  0  0  0  0  0  0  0
   10.5615  -15.9191   29.2561 C   0  0  0  0  0  0  0  0  0  0  0  0
    7.8634  -15.3738   22.7908 N   0  0  0  0  0  0  0  0  0  0  0  0
    8.1091  -15.4428   21.4034 C   0  0  1  0  0  0  0  0  0  0  0  0
    7.8130  -14.2033   20.6541 C   0  0  0  0  0  0  0  0  0  0  0  0
    7.9595  -14.2364   19.1945 C   0  0  0  0  0  0  0  0  0  0  0  0
    7.5903  -13.0105   18.4357 C   0  0  0  0  0  0  0  0  0  0  0  0
    7.5752  -13.3033   16.9214 C   0  0  0  0  0  0  0  0  0  0  0  0
    8.9133  -13.6062   16.4670 N   0  0  0  0  0  0  0  0  0  0  0  0
    9.4781  -15.9230   21.0701 C   0  0  0  0  0  0  0  0  0  0  0  0
   10.4711  -15.3486   21.6021 O   0  0  0  0  0  0  0  0  0  0  0  0
    9.7701  -16.9815   20.1970 N   0  0  0  0  0  0  0  0  0  0  0  0
   11.1181  -17.3894   19.7948 C   0  0  1  0  0  0  0  0  0  0  0  0
   11.3530  -18.8287   20.0050 C   0  0  0  0  0  0  0  0  0  0  0  0
   11.6775  -19.1174   21.4121 C   0  0  0  0  0  0  0  0  0  0  0  0
   12.3208  -18.2316   22.3100 C   0  0  0  0  0  0  0  0  0  0  0  0
   12.4611  -18.8066   23.5012 N   0  0  0  0  0  0  0  0  0  0  0  0
   11.9314  -20.0396   23.4145 C   0  0  0  0  0  0  0  0  0  0  0  0
   11.4774  -20.1986   22.1769 N   0  0  0  0  0  0  0  0  0  0  0  0
   11.1856  -17.0742   18.3466 C   0  0  0  0  0  0  0  0  0  0  0  0
   10.1558  -16.6151   17.7813 O   0  0  0  0  0  0  0  0  0  0  0  0
   12.3193  -17.2637   17.6134 O   0  0  0  0  0  0  0  0  0  0  0  0
  1  2  1  0
  2  3  2  0
  3  4  1  0
  5  6  1  0
  5  4  2  0
  6  7  1  0
  7  8  1  1
  9  7  1  0
 10  9  2  0
 11  5  1  0
 12 11  2  0
 12  2  1  0
 13  9  1  0
 14 20  1  0
 14 13  1  0
 14 15  1  1
 16 15  1  0
 17 16  1  0
 18 17  1  0
 19 18  1  0
 20 22  1  0
 21 20  2  0
 22 23  1  0
 23 30  1  0
 23 24  1  6
 25 24  1  0
 26 25  2  0
 27 26  1  0
 28 27  1  0
 28 29  2  0
 29 25  1  0
 30 31  2  0
 30 32  1  0
M  END
$$$$
