YKH.pdb
     RDKit          3D

 32 33  0  0  1  0  0  0  0  0999 V2000
    6.4513  -13.2264   16.1066 O   0  0  0  0  0  0  0  0  0  0  0  0
    7.2231  -13.4718   17.2353 C   0  0  0  0  0  0  0  0  0  0  0  0
    7.2102  -12.6320   18.3308 C   0  0  0  0  0  0  0  0  0  0  0  0
    8.0000  -12.9168   19.4409 C   0  0  0  0  0  0  0  0  0  0  0  0
    8.8036  -14.0234   19.4816 C   0  0  0  0  0  0  0  0  0  0  0  0
    9.6365  -14.3038   20.6799 C   0  0  0  0  0  0  0  0  0  0  0  0
    9.2068  -15.6461   21.2342 C   0  0  2  0  0  0  0  0  0  0  0  0
    7.8954  -15.4727   21.8112 N   0  0  0  0  0  0  0  0  0  0  0  0
   10.1206  -16.1399   22.2874 C   0  0  0  0  0  0  0  0  0  0  0  0
   10.3556  -15.4452   23.2928 O   0  0  0  0  0  0  0  0  0  0  0  0
    8.8118  -14.8573   18.3852 C   0  0  0  0  0  0  0  0  0  0  0  0
    8.0295  -14.5854   17.2719 C   0  0  0  0  0  0  0  0  0  0  0  0
   10.7717  -17.4250   22.2032 N   0  0  0  0  0  0  0  0  0  0  0  0
   11.8377  -17.8179   23.0395 C   0  0  1  0  0  0  0  0  0  0  0  0
   11.8404  -19.2469   23.4186 C   0  0  0  0  0  0  0  0  0  0  0  0
   10.6443  -19.7798   24.0807 C   0  0  0  0  0  0  0  0  0  0  0  0
   10.6680  -21.2059   24.5054 C   0  0  0  0  0  0  0  0  0  0  0  0
    9.3761  -21.5572   25.2714 C   0  0  0  0  0  0  0  0  0  0  0  0
    9.4386  -22.9237   25.7378 N   0  0  0  0  0  0  0  0  0  0  0  0
   13.1747  -17.4299   22.5124 C   0  0  0  0  0  0  0  0  0  0  0  0
   13.5208  -17.8416   21.3680 O   0  0  0  0  0  0  0  0  0  0  0  0
   14.1061  -16.6290   23.1898 N   0  0  0  0  0  0  0  0  0  0  0  0
   15.4709  -16.3595   22.7313 C   0  0  1  0  0  0  0  0  0  0  0  0
   15.6613  -14.9522   22.3387 C   0  0  0  0  0  0  0  0  0  0  0  0
   15.3254  -14.7428   20.9203 C   0  0  0  0  0  0  0  0  0  0  0  0
   14.2202  -15.3099   20.2407 C   0  0  0  0  0  0  0  0  0  0  0  0
   14.2112  -14.9166   18.9701 N   0  0  0  0  0  0  0  0  0  0  0  0
   15.2733  -14.1108   18.7937 C   0  0  0  0  0  0  0  0  0  0  0  0
   15.9124  -14.0244   19.9543 N   0  0  0  0  0  0  0  0  0  0  0  0
   16.3258  -16.6760   23.9018 C   0  0  0  0  0  0  0  0  0  0  0  0
   15.7711  -17.0672   24.9650 O   0  0  0  0  0  0  0  0  0  0  0  0
   17.6836  -16.5584   23.8633 O   0  0  0  0  0  0  0  0  0  0  0  0
  1  2  1  0
  2  3  2  0
  3  4  1  0
  5  6  1  0
  5  4  2  0
  6  7  1  0
  7  8  1  1
  9  7  1  0
 10  9  2  0
 11  5  1  0
 12 11  2  0
 12  2  1  0
 13  9  1  0
 14 20  1  0
 14 13  1  0
 14 15  1  6
 16 15  1  0
 17 16  1  0
 18 17  1  0
 19 18  1  0
 20 22  1  0
 21 20  2  0
 22 23  1  0
 23 30  1  0
 23 24  1  1
 25 24  1  0
 26 25  2  0
 27 26  1  0
 28 27  1  0
 28 29  2  0
 29 25  1  0
 30 31  2  0
 30 32  1  0
M  END
$$$$
