YKH.pdb
     RDKit          3D

 32 33  0  0  1  0  0  0  0  0999 V2000
    9.1930  -12.7289   17.4525 O   0  0  0  0  0  0  0  0  0  0  0  0
    8.7089  -13.2443   18.6482 C   0  0  0  0  0  0  0  0  0  0  0  0
    9.5247  -13.8967   19.5508 C   0  0  0  0  0  0  0  0  0  0  0  0
    8.9968  -14.3975   20.7372 C   0  0  0  0  0  0  0  0  0  0  0  0
    7.6703  -14.2612   21.0431 C   0  0  0  0  0  0  0  0  0  0  0  0
    7.1329  -14.8053   22.3173 C   0  0  0  0  0  0  0  0  0  0  0  0
    7.0230  -16.3081   22.1651 C   0  0  2  0  0  0  0  0  0  0  0  0
    5.9069  -16.5706   21.2887 N   0  0  0  0  0  0  0  0  0  0  0  0
    6.7762  -16.9889   23.4550 C   0  0  0  0  0  0  0  0  0  0  0  0
    5.6538  -16.9355   23.9899 O   0  0  0  0  0  0  0  0  0  0  0  0
    6.8616  -13.6093   20.1384 C   0  0  0  0  0  0  0  0  0  0  0  0
    7.3747  -13.1051   18.9518 C   0  0  0  0  0  0  0  0  0  0  0  0
    7.8033  -17.7333   24.1431 N   0  0  0  0  0  0  0  0  0  0  0  0
    7.6594  -18.2371   25.4529 C   0  0  1  0  0  0  0  0  0  0  0  0
    8.1209  -19.6290   25.6410 C   0  0  0  0  0  0  0  0  0  0  0  0
    7.8934  -20.2527   26.9495 C   0  0  0  0  0  0  0  0  0  0  0  0
    8.4944  -21.5929   27.1892 C   0  0  0  0  0  0  0  0  0  0  0  0
    8.0946  -22.1164   28.5840 C   0  0  0  0  0  0  0  0  0  0  0  0
    8.7670  -23.3679   28.8495 N   0  0  0  0  0  0  0  0  0  0  0  0
    8.2611  -17.3578   26.4924 C   0  0  0  0  0  0  0  0  0  0  0  0
    8.0634  -17.6324   27.7109 O   0  0  0  0  0  0  0  0  0  0  0  0
    9.0463  -16.2247   26.2330 N   0  0  0  0  0  0  0  0  0  0  0  0
    9.6944  -15.4012   27.2563 C   0  0  1  0  0  0  0  0  0  0  0  0
    8.7197  -14.6910   28.1027 C   0  0  0  0  0  0  0  0  0  0  0  0
    7.8933  -13.7678   27.3069 C   0  0  0  0  0  0  0  0  0  0  0  0
    8.0011  -13.5570   25.9109 C   0  0  0  0  0  0  0  0  0  0  0  0
    7.1055  -12.6583   25.5115 N   0  0  0  0  0  0  0  0  0  0  0  0
    6.4142  -12.2728   26.5986 C   0  0  0  0  0  0  0  0  0  0  0  0
    6.8958  -12.9390   27.6413 N   0  0  0  0  0  0  0  0  0  0  0  0
   10.4654  -16.3668   28.0774 C   0  0  0  0  0  0  0  0  0  0  0  0
   11.0935  -15.9360   29.0829 O   0  0  0  0  0  0  0  0  0  0  0  0
   10.5148  -17.6966   27.7808 O   0  0  0  0  0  0  0  0  0  0  0  0
  1  2  1  0
  2  3  2  0
  3  4  1  0
  5  6  1  0
  5  4  2  0
  6  7  1  0
  7  8  1  6
  9  7  1  0
 10  9  2  0
 11  5  1  0
 12 11  2  0
 12  2  1  0
 13  9  1  0
 14 20  1  0
 14 13  1  0
 14 15  1  6
 16 15  1  0
 17 16  1  0
 18 17  1  0
 19 18  1  0
 20 22  1  0
 21 20  2  0
 22 23  1  0
 23 30  1  0
 23 24  1  1
 25 24  1  0
 26 25  2  0
 27 26  1  0
 28 27  1  0
 28 29  2  0
 29 25  1  0
 30 31  2  0
 30 32  1  0
M  END
$$$$
