YKH.pdb
     RDKit          3D

 32 33  0  0  1  0  0  0  0  0999 V2000
    6.0871  -10.3848   26.8223 O   0  0  0  0  0  0  0  0  0  0  0  0
    6.4672  -11.7013   26.5939 C   0  0  0  0  0  0  0  0  0  0  0  0
    7.5660  -12.0257   25.8237 C   0  0  0  0  0  0  0  0  0  0  0  0
    7.9105  -13.3589   25.6212 C   0  0  0  0  0  0  0  0  0  0  0  0
    7.1811  -14.3772   26.1716 C   0  0  0  0  0  0  0  0  0  0  0  0
    7.5715  -15.7922   25.9395 C   0  0  0  0  0  0  0  0  0  0  0  0
    6.6883  -16.3375   24.8367 C   0  0  2  0  0  0  0  0  0  0  0  0
    6.2265  -17.6378   25.2595 N   0  0  0  0  0  0  0  0  0  0  0  0
    7.4143  -16.4913   23.5571 C   0  0  0  0  0  0  0  0  0  0  0  0
    8.0884  -17.5136   23.3351 O   0  0  0  0  0  0  0  0  0  0  0  0
    6.0860  -14.0469   26.9391 C   0  0  0  0  0  0  0  0  0  0  0  0
    5.7312  -12.7220   27.1491 C   0  0  0  0  0  0  0  0  0  0  0  0
    7.3778  -15.4846   22.5238 N   0  0  0  0  0  0  0  0  0  0  0  0
    8.0981  -15.5786   21.3145 C   0  0  1  0  0  0  0  0  0  0  0  0
    7.8208  -14.5047   20.3370 C   0  0  0  0  0  0  0  0  0  0  0  0
    8.4512  -14.6046   19.0158 C   0  0  0  0  0  0  0  0  0  0  0  0
    8.0558  -13.6066   17.9851 C   0  0  0  0  0  0  0  0  0  0  0  0
    8.7091  -13.9496   16.6305 C   0  0  0  0  0  0  0  0  0  0  0  0
    8.3919  -12.9268   15.6600 N   0  0  0  0  0  0  0  0  0  0  0  0
    9.5668  -15.7185   21.5123 C   0  0  0  0  0  0  0  0  0  0  0  0
   10.1431  -14.9644   22.3479 O   0  0  0  0  0  0  0  0  0  0  0  0
   10.3869  -16.6348   20.8372 N   0  0  0  0  0  0  0  0  0  0  0  0
   11.7951  -16.8887   21.1496 C   0  0  1  0  0  0  0  0  0  0  0  0
   12.0197  -18.2572   21.6470 C   0  0  0  0  0  0  0  0  0  0  0  0
   11.7581  -18.3500   23.0932 C   0  0  0  0  0  0  0  0  0  0  0  0
   11.4474  -17.2647   23.9477 C   0  0  0  0  0  0  0  0  0  0  0  0
   11.2707  -17.6967   25.1933 N   0  0  0  0  0  0  0  0  0  0  0  0
   11.4551  -19.0287   25.1842 C   0  0  0  0  0  0  0  0  0  0  0  0
   11.7405  -19.3889   23.9384 N   0  0  0  0  0  0  0  0  0  0  0  0
   12.5025  -16.6991   19.8593 C   0  0  0  0  0  0  0  0  0  0  0  0
   13.7624  -16.7598   19.8483 O   0  0  0  0  0  0  0  0  0  0  0  0
   11.8369  -16.4637   18.6930 O   0  0  0  0  0  0  0  0  0  0  0  0
  1  2  1  0
  2  3  2  0
  3  4  1  0
  5  6  1  0
  5  4  2  0
  6  7  1  0
  7  8  1  1
  9  7  1  0
 10  9  2  0
 11  5  1  0
 12 11  2  0
 12  2  1  0
 13  9  1  0
 14 20  1  0
 14 13  1  0
 14 15  1  6
 16 15  1  0
 17 16  1  0
 18 17  1  0
 19 18  1  0
 20 22  1  0
 21 20  2  0
 22 23  1  0
 23 30  1  0
 23 24  1  6
 25 24  1  0
 26 25  2  0
 27 26  1  0
 28 27  1  0
 28 29  2  0
 29 25  1  0
 30 31  2  0
 30 32  1  0
M  END
$$$$
