YKH.pdb
     RDKit          3D

 32 33  0  0  1  0  0  0  0  0999 V2000
    9.0588  -12.8273   17.1575 O   0  0  0  0  0  0  0  0  0  0  0  0
    8.6395  -13.2804   18.4020 C   0  0  0  0  0  0  0  0  0  0  0  0
    7.4462  -12.8771   18.9668 C   0  0  0  0  0  0  0  0  0  0  0  0
    7.0655  -13.3566   20.2167 C   0  0  0  0  0  0  0  0  0  0  0  0
    7.8510  -14.2315   20.9163 C   0  0  0  0  0  0  0  0  0  0  0  0
    7.4201  -14.7281   22.2490 C   0  0  0  0  0  0  0  0  0  0  0  0
    6.9504  -16.1576   22.0767 C   0  0  2  0  0  0  0  0  0  0  0  0
    5.7471  -16.1214   21.2809 N   0  0  0  0  0  0  0  0  0  0  0  0
    6.6388  -16.8082   23.3681 C   0  0  0  0  0  0  0  0  0  0  0  0
    5.5606  -16.5771   23.9450 O   0  0  0  0  0  0  0  0  0  0  0  0
    9.0405  -14.6300   20.3472 C   0  0  0  0  0  0  0  0  0  0  0  0
    9.4323  -14.1597   19.1019 C   0  0  0  0  0  0  0  0  0  0  0  0
    7.5506  -17.7242   24.0100 N   0  0  0  0  0  0  0  0  0  0  0  0
    7.3195  -18.2977   25.2780 C   0  0  1  0  0  0  0  0  0  0  0  0
    7.3889  -19.7740   25.3181 C   0  0  0  0  0  0  0  0  0  0  0  0
    6.5427  -20.5230   24.3822 C   0  0  0  0  0  0  0  0  0  0  0  0
    6.5998  -22.0090   24.4377 C   0  0  0  0  0  0  0  0  0  0  0  0
    5.6195  -22.6202   23.4156 C   0  0  0  0  0  0  0  0  0  0  0  0
    5.7210  -24.0617   23.4400 N   0  0  0  0  0  0  0  0  0  0  0  0
    8.1739  -17.7198   26.3512 C   0  0  0  0  0  0  0  0  0  0  0  0
    7.9641  -18.0662   27.5492 O   0  0  0  0  0  0  0  0  0  0  0  0
    9.2157  -16.8032   26.1455 N   0  0  0  0  0  0  0  0  0  0  0  0
    9.9688  -16.1366   27.2103 C   0  0  1  0  0  0  0  0  0  0  0  0
    9.0947  -15.3820   28.1253 C   0  0  0  0  0  0  0  0  0  0  0  0
    8.2674  -14.4085   27.3930 C   0  0  0  0  0  0  0  0  0  0  0  0
    8.2626  -14.2186   25.9899 C   0  0  0  0  0  0  0  0  0  0  0  0
    7.4009  -13.2609   25.6588 N   0  0  0  0  0  0  0  0  0  0  0  0
    6.8407  -12.8164   26.7976 C   0  0  0  0  0  0  0  0  0  0  0  0
    7.3663  -13.5064   27.8030 N   0  0  0  0  0  0  0  0  0  0  0  0
   10.6325  -17.2418   27.9446 C   0  0  0  0  0  0  0  0  0  0  0  0
   11.3164  -16.9609   28.9666 O   0  0  0  0  0  0  0  0  0  0  0  0
   10.5260  -18.5429   27.5514 O   0  0  0  0  0  0  0  0  0  0  0  0
  1  2  1  0
  2  3  2  0
  3  4  1  0
  5  6  1  0
  5  4  2  0
  6  7  1  0
  7  8  1  6
  9  7  1  0
 10  9  2  0
 11  5  1  0
 12 11  2  0
 12  2  1  0
 13  9  1  0
 14 20  1  0
 14 13  1  0
 14 15  1  6
 16 15  1  0
 17 16  1  0
 18 17  1  0
 19 18  1  0
 20 22  1  0
 21 20  2  0
 22 23  1  0
 23 30  1  0
 23 24  1  1
 25 24  1  0
 26 25  2  0
 27 26  1  0
 28 27  1  0
 28 29  2  0
 29 25  1  0
 30 31  2  0
 30 32  1  0
M  END
$$$$
