YKH.pdb
     RDKit          3D

 32 33  0  0  1  0  0  0  0  0999 V2000
   10.6484  -14.8063   30.1179 O   0  0  0  0  0  0  0  0  0  0  0  0
    9.8968  -14.8853   28.9523 C   0  0  0  0  0  0  0  0  0  0  0  0
    9.4414  -16.0886   28.4519 C   0  0  0  0  0  0  0  0  0  0  0  0
    8.6911  -16.1209   27.2801 C   0  0  0  0  0  0  0  0  0  0  0  0
    8.3848  -14.9765   26.5957 C   0  0  0  0  0  0  0  0  0  0  0  0
    7.5815  -15.0397   25.3470 C   0  0  0  0  0  0  0  0  0  0  0  0
    8.5091  -15.4562   24.2246 C   0  0  2  0  0  0  0  0  0  0  0  0
    9.7325  -14.7062   24.3777 N   0  0  0  0  0  0  0  0  0  0  0  0
    7.9445  -15.1643   22.8889 C   0  0  0  0  0  0  0  0  0  0  0  0
    6.8714  -15.6838   22.5322 O   0  0  0  0  0  0  0  0  0  0  0  0
    8.8421  -13.7792   27.1002 C   0  0  0  0  0  0  0  0  0  0  0  0
    9.5911  -13.7324   28.2674 C   0  0  0  0  0  0  0  0  0  0  0  0
    8.5963  -14.2809   21.9523 N   0  0  0  0  0  0  0  0  0  0  0  0
    8.6214  -14.4992   20.5589 C   0  0  1  0  0  0  0  0  0  0  0  0
    8.7359  -13.2758   19.7367 C   0  0  0  0  0  0  0  0  0  0  0  0
    8.8186  -13.4369   18.2807 C   0  0  0  0  0  0  0  0  0  0  0  0
    7.5526  -13.3481   17.5034 C   0  0  0  0  0  0  0  0  0  0  0  0
    7.8360  -13.5275   15.9978 C   0  0  0  0  0  0  0  0  0  0  0  0
    6.6084  -13.3893   15.2477 N   0  0  0  0  0  0  0  0  0  0  0  0
    9.6459  -15.4928   20.1359 C   0  0  0  0  0  0  0  0  0  0  0  0
    9.5299  -16.0423   19.0029 O   0  0  0  0  0  0  0  0  0  0  0  0
   10.7547  -15.8824   20.9019 N   0  0  0  0  0  0  0  0  0  0  0  0
   11.7901  -16.8204   20.4621 C   0  0  1  0  0  0  0  0  0  0  0  0
   13.1384  -16.4040   20.8857 C   0  0  0  0  0  0  0  0  0  0  0  0
   13.6658  -15.3375   20.0179 C   0  0  0  0  0  0  0  0  0  0  0  0
   13.1804  -15.0048   18.7301 C   0  0  0  0  0  0  0  0  0  0  0  0
   13.8810  -13.9947   18.2219 N   0  0  0  0  0  0  0  0  0  0  0  0
   14.8093  -13.6540   19.1332 C   0  0  0  0  0  0  0  0  0  0  0  0
   14.6625  -14.4577   20.1799 N   0  0  0  0  0  0  0  0  0  0  0  0
   11.4310  -18.1037   21.1144 C   0  0  0  0  0  0  0  0  0  0  0  0
   10.3812  -18.1519   21.8120 O   0  0  0  0  0  0  0  0  0  0  0  0
   12.1955  -19.2249   20.9830 O   0  0  0  0  0  0  0  0  0  0  0  0
  1  2  1  0
  2  3  2  0
  3  4  1  0
  5  6  1  0
  5  4  2  0
  6  7  1  0
  7  8  1  1
  9  7  1  0
 10  9  2  0
 11  5  1  0
 12 11  2  0
 12  2  1  0
 13  9  1  0
 14 20  1  0
 14 13  1  0
 14 15  1  6
 16 15  1  0
 17 16  1  0
 18 17  1  0
 19 18  1  0
 20 22  1  0
 21 20  2  0
 22 23  1  0
 23 30  1  0
 23 24  1  1
 25 24  1  0
 26 25  2  0
 27 26  1  0
 28 27  1  0
 28 29  2  0
 29 25  1  0
 30 31  2  0
 30 32  1  0
M  END
$$$$
