YKH.pdb
     RDKit          3D

 32 33  0  0  1  0  0  0  0  0999 V2000
   18.3139  -19.8561   17.5187 O   0  0  0  0  0  0  0  0  0  0  0  0
   17.5376  -19.4186   18.5844 C   0  0  0  0  0  0  0  0  0  0  0  0
   17.5490  -18.1060   19.0116 C   0  0  0  0  0  0  0  0  0  0  0  0
   16.7547  -17.7115   20.0842 C   0  0  0  0  0  0  0  0  0  0  0  0
   15.9477  -18.6000   20.7409 C   0  0  0  0  0  0  0  0  0  0  0  0
   15.1093  -18.1518   21.8830 C   0  0  0  0  0  0  0  0  0  0  0  0
   13.6861  -18.0164   21.3830 C   0  0  2  0  0  0  0  0  0  0  0  0
   13.6531  -16.8902   20.4811 N   0  0  0  0  0  0  0  0  0  0  0  0
   12.7247  -17.7672   22.4792 C   0  0  0  0  0  0  0  0  0  0  0  0
   12.5305  -16.6104   22.8949 O   0  0  0  0  0  0  0  0  0  0  0  0
   15.9408  -19.9083   20.3098 C   0  0  0  0  0  0  0  0  0  0  0  0
   16.7278  -20.3152   19.2418 C   0  0  0  0  0  0  0  0  0  0  0  0
   11.9795  -18.8310   23.1082 N   0  0  0  0  0  0  0  0  0  0  0  0
   11.0977  -18.6337   24.1914 C   0  0  1  0  0  0  0  0  0  0  0  0
    9.8510  -19.4263   24.1346 C   0  0  0  0  0  0  0  0  0  0  0  0
    9.0442  -19.3431   22.9119 C   0  0  0  0  0  0  0  0  0  0  0  0
    8.4289  -20.5993   22.4041 C   0  0  0  0  0  0  0  0  0  0  0  0
    7.6289  -20.3198   21.1152 C   0  0  0  0  0  0  0  0  0  0  0  0
    7.0398  -21.5462   20.6279 N   0  0  0  0  0  0  0  0  0  0  0  0
   11.7478  -18.8043   25.5197 C   0  0  0  0  0  0  0  0  0  0  0  0
   11.7125  -19.9406   26.0733 O   0  0  0  0  0  0  0  0  0  0  0  0
   12.4115  -17.7913   26.2277 N   0  0  0  0  0  0  0  0  0  0  0  0
   11.7553  -16.7883   27.0695 C   0  0  1  0  0  0  0  0  0  0  0  0
   10.5044  -16.2889   26.4724 C   0  0  0  0  0  0  0  0  0  0  0  0
    9.8241  -15.3412   27.3711 C   0  0  0  0  0  0  0  0  0  0  0  0
   10.3054  -14.9054   28.6293 C   0  0  0  0  0  0  0  0  0  0  0  0
    9.4466  -14.0512   29.1790 N   0  0  0  0  0  0  0  0  0  0  0  0
    8.4183  -13.9125   28.3235 C   0  0  0  0  0  0  0  0  0  0  0  0
    8.6635  -14.6806   27.2686 N   0  0  0  0  0  0  0  0  0  0  0  0
   11.4591  -17.5018   28.3362 C   0  0  0  0  0  0  0  0  0  0  0  0
   11.3847  -18.7608   28.3153 O   0  0  0  0  0  0  0  0  0  0  0  0
   11.2671  -16.8427   29.5141 O   0  0  0  0  0  0  0  0  0  0  0  0
  1  2  1  0
  2  3  2  0
  3  4  1  0
  5  6  1  0
  5  4  2  0
  6  7  1  0
  7  8  1  6
  9  7  1  0
 10  9  2  0
 11  5  1  0
 12 11  2  0
 12  2  1  0
 13  9  1  0
 14 20  1  0
 14 13  1  0
 14 15  1  6
 16 15  1  0
 17 16  1  0
 18 17  1  0
 19 18  1  0
 20 22  1  0
 21 20  2  0
 22 23  1  0
 23 30  1  0
 23 24  1  6
 25 24  1  0
 26 25  2  0
 27 26  1  0
 28 27  1  0
 28 29  2  0
 29 25  1  0
 30 31  2  0
 30 32  1  0
M  END
$$$$
