YKH.pdb
     RDKit          3D

 32 33  0  0  1  0  0  0  0  0999 V2000
    8.0632  -11.5625   17.2076 O   0  0  0  0  0  0  0  0  0  0  0  0
    7.9788  -12.3687   18.3358 C   0  0  0  0  0  0  0  0  0  0  0  0
    9.0917  -12.7184   19.0739 C   0  0  0  0  0  0  0  0  0  0  0  0
    8.9605  -13.5287   20.1979 C   0  0  0  0  0  0  0  0  0  0  0  0
    7.7407  -13.9983   20.6020 C   0  0  0  0  0  0  0  0  0  0  0  0
    7.6291  -14.8617   21.8064 C   0  0  0  0  0  0  0  0  0  0  0  0
    8.0608  -16.2587   21.4119 C   0  0  2  0  0  0  0  0  0  0  0  0
    7.0237  -16.8075   20.5717 N   0  0  0  0  0  0  0  0  0  0  0  0
    8.2347  -17.1467   22.5821 C   0  0  0  0  0  0  0  0  0  0  0  0
    7.3929  -18.0281   22.8337 O   0  0  0  0  0  0  0  0  0  0  0  0
    6.6341  -13.6458   19.8613 C   0  0  0  0  0  0  0  0  0  0  0  0
    6.7505  -12.8387   18.7386 C   0  0  0  0  0  0  0  0  0  0  0  0
    9.3656  -17.0375   23.4718 N   0  0  0  0  0  0  0  0  0  0  0  0
    9.7267  -18.0332   24.4035 C   0  0  1  0  0  0  0  0  0  0  0  0
   10.1586  -19.3167   23.8104 C   0  0  0  0  0  0  0  0  0  0  0  0
    9.1738  -20.0734   23.0290 C   0  0  0  0  0  0  0  0  0  0  0  0
    9.6150  -21.3581   22.4210 C   0  0  0  0  0  0  0  0  0  0  0  0
    8.4579  -21.9993   21.6277 C   0  0  0  0  0  0  0  0  0  0  0  0
    8.8832  -23.2664   21.0778 N   0  0  0  0  0  0  0  0  0  0  0  0
   10.7306  -17.5714   25.4009 C   0  0  0  0  0  0  0  0  0  0  0  0
   11.6275  -16.7601   25.0312 O   0  0  0  0  0  0  0  0  0  0  0  0
   10.7701  -17.9665   26.7463 N   0  0  0  0  0  0  0  0  0  0  0  0
   10.0815  -17.2809   27.8423 C   0  0  1  0  0  0  0  0  0  0  0  0
    8.6384  -17.1283   27.5875 C   0  0  0  0  0  0  0  0  0  0  0  0
    8.3296  -15.7950   27.0438 C   0  0  0  0  0  0  0  0  0  0  0  0
    9.2667  -14.7581   26.8173 C   0  0  0  0  0  0  0  0  0  0  0  0
    8.6550  -13.6866   26.3202 N   0  0  0  0  0  0  0  0  0  0  0  0
    7.3484  -13.9862   26.2132 C   0  0  0  0  0  0  0  0  0  0  0  0
    7.1823  -15.2309   26.6448 N   0  0  0  0  0  0  0  0  0  0  0  0
   10.2951  -18.1561   29.0212 C   0  0  0  0  0  0  0  0  0  0  0  0
    9.8529  -17.7780   30.1403 O   0  0  0  0  0  0  0  0  0  0  0  0
   10.9497  -19.3487   28.9321 O   0  0  0  0  0  0  0  0  0  0  0  0
  1  2  1  0
  2  3  2  0
  3  4  1  0
  5  6  1  0
  5  4  2  0
  6  7  1  0
  7  8  1  6
  9  7  1  0
 10  9  2  0
 11  5  1  0
 12 11  2  0
 12  2  1  0
 13  9  1  0
 14 20  1  0
 14 13  1  0
 14 15  1  6
 16 15  1  0
 17 16  1  0
 18 17  1  0
 19 18  1  0
 20 22  1  0
 21 20  2  0
 22 23  1  0
 23 30  1  0
 23 24  1  6
 25 24  1  0
 26 25  2  0
 27 26  1  0
 28 27  1  0
 28 29  2  0
 29 25  1  0
 30 31  2  0
 30 32  1  0
M  END
$$$$
