YKH.pdb
     RDKit          3D

 32 33  0  0  1  0  0  0  0  0999 V2000
    7.8409  -12.1037   16.9395 O   0  0  0  0  0  0  0  0  0  0  0  0
    7.8419  -12.7127   18.1881 C   0  0  0  0  0  0  0  0  0  0  0  0
    6.7430  -12.6788   19.0229 C   0  0  0  0  0  0  0  0  0  0  0  0
    6.7883  -13.3030   20.2661 C   0  0  0  0  0  0  0  0  0  0  0  0
    7.9083  -13.9613   20.6950 C   0  0  0  0  0  0  0  0  0  0  0  0
    7.9294  -14.6196   22.0272 C   0  0  0  0  0  0  0  0  0  0  0  0
    8.0022  -16.1151   21.7995 C   0  0  2  0  0  0  0  0  0  0  0  0
    6.7040  -16.5429   21.3367 N   0  0  0  0  0  0  0  0  0  0  0  0
    8.3271  -16.8585   23.0365 C   0  0  0  0  0  0  0  0  0  0  0  0
    7.5094  -16.9092   23.9732 O   0  0  0  0  0  0  0  0  0  0  0  0
    9.0014  -13.9915   19.8574 C   0  0  0  0  0  0  0  0  0  0  0  0
    8.9700  -13.3734   18.6154 C   0  0  0  0  0  0  0  0  0  0  0  0
    9.5823  -17.5477   23.2149 N   0  0  0  0  0  0  0  0  0  0  0  0
    9.9891  -18.1288   24.4343 C   0  0  1  0  0  0  0  0  0  0  0  0
   10.9877  -19.2116   24.3080 C   0  0  0  0  0  0  0  0  0  0  0  0
   10.4915  -20.5861   24.1766 C   0  0  0  0  0  0  0  0  0  0  0  0
   11.4813  -21.6494   23.8532 C   0  0  0  0  0  0  0  0  0  0  0  0
   10.8101  -23.0373   23.9017 C   0  0  0  0  0  0  0  0  0  0  0  0
   11.7431  -24.0491   23.4606 N   0  0  0  0  0  0  0  0  0  0  0  0
   10.4465  -17.1308   25.4395 C   0  0  0  0  0  0  0  0  0  0  0  0
   10.6888  -15.9497   25.0581 O   0  0  0  0  0  0  0  0  0  0  0  0
   10.6371  -17.3916   26.8046 N   0  0  0  0  0  0  0  0  0  0  0  0
   10.1316  -16.5565   27.8966 C   0  0  1  0  0  0  0  0  0  0  0  0
    8.6687  -16.3896   27.8419 C   0  0  0  0  0  0  0  0  0  0  0  0
    8.3007  -15.0845   27.2678 C   0  0  0  0  0  0  0  0  0  0  0  0
    9.2077  -14.0814   26.8480 C   0  0  0  0  0  0  0  0  0  0  0  0
    8.5435  -13.0288   26.3788 N   0  0  0  0  0  0  0  0  0  0  0  0
    7.2317  -13.3078   26.4770 C   0  0  0  0  0  0  0  0  0  0  0  0
    7.1147  -14.5217   27.0024 N   0  0  0  0  0  0  0  0  0  0  0  0
   10.5092  -17.2888   29.1304 C   0  0  0  0  0  0  0  0  0  0  0  0
   10.9007  -18.4834   29.0262 O   0  0  0  0  0  0  0  0  0  0  0  0
   10.4472  -16.7136   30.3650 O   0  0  0  0  0  0  0  0  0  0  0  0
  1  2  1  0
  2  3  2  0
  3  4  1  0
  5  6  1  0
  5  4  2  0
  6  7  1  0
  7  8  1  1
  9  7  1  0
 10  9  2  0
 11  5  1  0
 12 11  2  0
 12  2  1  0
 13  9  1  0
 14 20  1  0
 14 13  1  0
 14 15  1  6
 16 15  1  0
 17 16  1  0
 18 17  1  0
 19 18  1  0
 20 22  1  0
 21 20  2  0
 22 23  1  0
 23 30  1  0
 23 24  1  6
 25 24  1  0
 26 25  2  0
 27 26  1  0
 28 27  1  0
 28 29  2  0
 29 25  1  0
 30 31  2  0
 30 32  1  0
M  END
$$$$
