YKH.pdb
     RDKit          3D

 32 33  0  0  1  0  0  0  0  0999 V2000
    7.6355  -11.8076   17.4813 O   0  0  0  0  0  0  0  0  0  0  0  0
    7.8682  -12.6840   18.5337 C   0  0  0  0  0  0  0  0  0  0  0  0
    8.7218  -13.7626   18.4165 C   0  0  0  0  0  0  0  0  0  0  0  0
    8.9254  -14.6154   19.4975 C   0  0  0  0  0  0  0  0  0  0  0  0
    8.2946  -14.4149   20.6949 C   0  0  0  0  0  0  0  0  0  0  0  0
    8.5304  -15.3408   21.8330 C   0  0  0  0  0  0  0  0  0  0  0  0
    7.8116  -16.6381   21.5265 C   0  0  2  0  0  0  0  0  0  0  0  0
    6.5176  -16.5727   22.1621 N   0  0  0  0  0  0  0  0  0  0  0  0
    8.5318  -17.8192   22.0503 C   0  0  0  0  0  0  0  0  0  0  0  0
    8.1848  -18.3422   23.1249 O   0  0  0  0  0  0  0  0  0  0  0  0
    7.4442  -13.3369   20.8053 C   0  0  0  0  0  0  0  0  0  0  0  0
    7.2320  -12.4788   19.7358 C   0  0  0  0  0  0  0  0  0  0  0  0
    9.6495  -18.4115   21.3558 N   0  0  0  0  0  0  0  0  0  0  0  0
   10.0792  -19.7402   21.5556 C   0  0  1  0  0  0  0  0  0  0  0  0
   10.1695  -20.5589   20.3279 C   0  0  0  0  0  0  0  0  0  0  0  0
   10.5201  -21.9759   20.4765 C   0  0  0  0  0  0  0  0  0  0  0  0
   10.7035  -22.7755   19.2348 C   0  0  0  0  0  0  0  0  0  0  0  0
   11.0633  -24.2337   19.5861 C   0  0  0  0  0  0  0  0  0  0  0  0
   11.4088  -24.9571   18.3836 N   0  0  0  0  0  0  0  0  0  0  0  0
   11.3485  -19.8399   22.3269 C   0  0  0  0  0  0  0  0  0  0  0  0
   11.8612  -20.9812   22.5107 O   0  0  0  0  0  0  0  0  0  0  0  0
   12.0419  -18.7536   22.8808 N   0  0  0  0  0  0  0  0  0  0  0  0
   13.2675  -18.8583   23.6761 C   0  0  1  0  0  0  0  0  0  0  0  0
   13.3057  -20.0892   24.4851 C   0  0  0  0  0  0  0  0  0  0  0  0
   14.5588  -20.1858   25.2524 C   0  0  0  0  0  0  0  0  0  0  0  0
   15.6124  -19.2400   25.2361 C   0  0  0  0  0  0  0  0  0  0  0  0
   16.5951  -19.6332   26.0417 N   0  0  0  0  0  0  0  0  0  0  0  0
   16.2214  -20.8049   26.5855 C   0  0  0  0  0  0  0  0  0  0  0  0
   15.0210  -21.1086   26.1060 N   0  0  0  0  0  0  0  0  0  0  0  0
   14.3609  -18.8803   22.6735 C   0  0  0  0  0  0  0  0  0  0  0  0
   14.3744  -19.8060   21.8169 O   0  0  0  0  0  0  0  0  0  0  0  0
   15.3443  -17.9363   22.6496 O   0  0  0  0  0  0  0  0  0  0  0  0
  1  2  1  0
  2  3  2  0
  3  4  1  0
  5  6  1  0
  5  4  2  0
  6  7  1  0
  7  8  1  1
  9  7  1  0
 10  9  2  0
 11  5  1  0
 12 11  2  0
 12  2  1  0
 13  9  1  0
 14 20  1  0
 14 13  1  0
 14 15  1  6
 16 15  1  0
 17 16  1  0
 18 17  1  0
 19 18  1  0
 20 22  1  0
 21 20  2  0
 22 23  1  0
 23 30  1  0
 23 24  1  6
 25 24  1  0
 26 25  2  0
 27 26  1  0
 28 27  1  0
 28 29  2  0
 29 25  1  0
 30 31  2  0
 30 32  1  0
M  END
$$$$
