VYL.pdb
     RDKit          3D

 28 28  0  0  1  0  0  0  0  0999 V2000
    7.9100  -13.5825   18.5422 C   0  0  0  0  0  0  0  0  0  0  0  0
    7.2627  -14.1518   19.7805 C   0  0  2  0  0  0  0  0  0  0  0  0
    6.7319  -12.9907   20.5965 C   0  0  0  0  0  0  0  0  0  0  0  0
    8.2641  -14.8802   20.6522 C   0  0  2  0  0  0  0  0  0  0  0  0
    8.8037  -16.0075   19.9157 N   0  0  0  0  0  0  0  0  0  0  0  0
    7.6382  -15.3417   21.9275 C   0  0  0  0  0  0  0  0  0  0  0  0
    7.0149  -14.5312   22.6723 O   0  0  0  0  0  0  0  0  0  0  0  0
    8.1210  -19.4229   29.5637 O   0  0  0  0  0  0  0  0  0  0  0  0
    8.0750  -19.1906   28.1903 C   0  0  0  0  0  0  0  0  0  0  0  0
    9.2085  -19.1144   27.4100 C   0  0  0  0  0  0  0  0  0  0  0  0
    9.1066  -18.8814   26.0487 C   0  0  0  0  0  0  0  0  0  0  0  0
    7.8810  -18.7178   25.4245 C   0  0  0  0  0  0  0  0  0  0  0  0
    7.8387  -18.4731   23.9760 C   0  0  0  0  0  0  0  0  0  0  0  0
    7.1907  -17.1379   23.6329 C   0  0  2  0  0  0  0  0  0  0  0  0
    7.7051  -16.6847   22.3671 N   0  0  0  0  0  0  0  0  0  0  0  0
    7.5527  -16.2206   24.7456 C   0  0  0  0  0  0  0  0  0  0  0  0
    6.6187  -15.7787   25.4593 O   0  0  0  0  0  0  0  0  0  0  0  0
    6.7552  -18.7944   26.2056 C   0  0  0  0  0  0  0  0  0  0  0  0
    6.8455  -19.0271   27.5686 C   0  0  0  0  0  0  0  0  0  0  0  0
    7.6023  -12.1474   25.1958 C   0  0  0  0  0  0  0  0  0  0  0  0
    7.1248  -13.2338   26.0790 C   0  0  2  0  0  0  0  0  0  0  0  0
    6.2767  -12.6197   27.2241 C   0  0  0  0  0  0  0  0  0  0  0  0
    8.0870  -14.2133   26.6226 C   0  0  0  0  0  0  0  0  0  0  0  0
    9.2239  -14.6024   25.7853 C   0  0  2  0  0  0  0  0  0  0  0  0
    8.8741  -15.8324   25.0294 N   0  0  0  0  0  0  0  0  0  0  0  0
   10.4603  -14.9069   26.4776 C   0  0  0  0  0  0  0  0  0  0  0  0
   11.1412  -16.1237   26.4912 O   0  0  0  0  0  0  0  0  0  0  0  0
   11.0170  -13.9711   27.1785 O   0  0  0  0  0  0  0  0  0  0  0  0
  2  1  1  6
  3  2  1  0
  4  2  1  0
  4  5  1  6
  6  4  1  0
  6  7  2  0
  8  9  1  0
  9 10  2  0
 10 11  1  0
 12 13  1  0
 12 11  2  0
 14 13  1  1
 14 15  1  0
 15  6  1  0
 16 14  1  0
 17 16  2  0
 18 12  1  0
 19 18  2  0
 19  9  1  0
 21 20  1  1
 21 23  1  0
 22 21  1  0
 24 23  1  1
 24 26  1  0
 24 25  1  0
 25 16  1  0
 26 27  1  0
 28 26  2  0
M  END
$$$$
