VYL.pdb
     RDKit          3D

 28 28  0  0  1  0  0  0  0  0999 V2000
    9.3233  -22.2758   25.3072 C   0  0  0  0  0  0  0  0  0  0  0  0
    9.5958  -20.9043   24.7408 C   0  0  2  0  0  0  0  0  0  0  0  0
    9.4403  -19.9029   25.8672 C   0  0  0  0  0  0  0  0  0  0  0  0
    8.5878  -20.5273   23.6753 C   0  0  2  0  0  0  0  0  0  0  0  0
    8.5336  -21.5802   22.6788 N   0  0  0  0  0  0  0  0  0  0  0  0
    8.9358  -19.2225   23.0371 C   0  0  0  0  0  0  0  0  0  0  0  0
   10.0683  -19.0459   22.5019 O   0  0  0  0  0  0  0  0  0  0  0  0
    8.2642  -11.3494   19.2027 O   0  0  0  0  0  0  0  0  0  0  0  0
    7.9907  -12.5199   19.9080 C   0  0  0  0  0  0  0  0  0  0  0  0
    8.0810  -13.7711   19.3373 C   0  0  0  0  0  0  0  0  0  0  0  0
    7.7980  -14.9028   20.0835 C   0  0  0  0  0  0  0  0  0  0  0  0
    7.4184  -14.8258   21.4134 C   0  0  0  0  0  0  0  0  0  0  0  0
    7.1314  -16.0634   22.1521 C   0  0  0  0  0  0  0  0  0  0  0  0
    8.3990  -16.8145   22.5384 C   0  0  2  0  0  0  0  0  0  0  0  0
    8.0370  -18.1308   22.9950 N   0  0  0  0  0  0  0  0  0  0  0  0
    9.0322  -16.0037   23.6119 C   0  0  0  0  0  0  0  0  0  0  0  0
   10.1622  -15.5098   23.3748 O   0  0  0  0  0  0  0  0  0  0  0  0
    7.3299  -13.5778   21.9773 C   0  0  0  0  0  0  0  0  0  0  0  0
    7.6107  -12.4388   21.2399 C   0  0  0  0  0  0  0  0  0  0  0  0
    7.7010  -12.1014   25.1445 C   0  0  0  0  0  0  0  0  0  0  0  0
    7.1007  -13.2737   25.8180 C   0  0  2  0  0  0  0  0  0  0  0  0
    5.8889  -12.8049   26.6665 C   0  0  0  0  0  0  0  0  0  0  0  0
    7.9558  -14.1845   26.6054 C   0  0  0  0  0  0  0  0  0  0  0  0
    9.0265  -14.9011   25.9090 C   0  0  2  0  0  0  0  0  0  0  0  0
    8.4307  -15.7692   24.8611 N   0  0  0  0  0  0  0  0  0  0  0  0
    9.8506  -15.7755   26.7195 C   0  0  0  0  0  0  0  0  0  0  0  0
    9.4526  -16.9399   27.3754 O   0  0  0  0  0  0  0  0  0  0  0  0
   11.0976  -15.4663   26.8816 O   0  0  0  0  0  0  0  0  0  0  0  0
  2  1  1  1
  3  2  1  0
  4  2  1  0
  4  5  1  6
  6  4  1  0
  6  7  2  0
  8  9  1  0
  9 10  2  0
 10 11  1  0
 12 13  1  0
 12 11  2  0
 14 13  1  1
 14 15  1  0
 15  6  1  0
 16 14  1  0
 17 16  2  0
 18 12  1  0
 19 18  2  0
 19  9  1  0
 21 20  1  1
 21 23  1  0
 22 21  1  0
 24 23  1  1
 24 26  1  0
 24 25  1  0
 25 16  1  0
 26 27  1  0
 28 26  2  0
M  END
$$$$
