VYL.pdb
     RDKit          3D

 28 28  0  0  1  0  0  0  0  0999 V2000
    5.3273  -21.1061   25.1042 C   0  0  0  0  0  0  0  0  0  0  0  0
    6.2521  -20.0332   24.5846 C   0  0  2  0  0  0  0  0  0  0  0  0
    6.0094  -18.7816   25.4033 C   0  0  0  0  0  0  0  0  0  0  0  0
    5.9488  -19.6814   23.1433 C   0  0  2  0  0  0  0  0  0  0  0  0
    6.0235  -20.8836   22.3349 N   0  0  0  0  0  0  0  0  0  0  0  0
    6.8939  -18.6462   22.6273 C   0  0  0  0  0  0  0  0  0  0  0  0
    8.0987  -18.9385   22.3758 O   0  0  0  0  0  0  0  0  0  0  0  0
   10.2898  -11.7454   18.4604 O   0  0  0  0  0  0  0  0  0  0  0  0
    9.3991  -12.6026   19.1039 C   0  0  0  0  0  0  0  0  0  0  0  0
    8.1864  -12.1781   19.6025 C   0  0  0  0  0  0  0  0  0  0  0  0
    7.3377  -13.0720   20.2338 C   0  0  0  0  0  0  0  0  0  0  0  0
    7.6671  -14.4086   20.3880 C   0  0  0  0  0  0  0  0  0  0  0  0
    6.7237  -15.3078   21.0674 C   0  0  0  0  0  0  0  0  0  0  0  0
    7.4219  -16.2586   22.0311 C   0  0  2  0  0  0  0  0  0  0  0  0
    6.5042  -17.3063   22.3949 N   0  0  0  0  0  0  0  0  0  0  0  0
    7.8138  -15.4265   23.1994 C   0  0  0  0  0  0  0  0  0  0  0  0
    7.5563  -14.1985   23.1484 O   0  0  0  0  0  0  0  0  0  0  0  0
    8.8756  -14.8265   19.8900 C   0  0  0  0  0  0  0  0  0  0  0  0
    9.7324  -13.9407   19.2565 C   0  0  0  0  0  0  0  0  0  0  0  0
    8.4942  -12.0152   25.1880 C   0  0  0  0  0  0  0  0  0  0  0  0
    7.4939  -13.0775   25.4309 C   0  0  2  0  0  0  0  0  0  0  0  0
    6.2880  -12.4721   26.1973 C   0  0  0  0  0  0  0  0  0  0  0  0
    7.9114  -14.3491   26.0550 C   0  0  0  0  0  0  0  0  0  0  0  0
    9.0023  -15.0999   25.4294 C   0  0  2  0  0  0  0  0  0  0  0  0
    8.4499  -15.9462   24.3407 N   0  0  0  0  0  0  0  0  0  0  0  0
    9.7405  -16.0024   26.2903 C   0  0  0  0  0  0  0  0  0  0  0  0
    9.8884  -17.3806   26.1379 O   0  0  0  0  0  0  0  0  0  0  0  0
   10.3332  -15.5096   27.3309 O   0  0  0  0  0  0  0  0  0  0  0  0
  2  1  1  1
  3  2  1  0
  4  2  1  0
  4  5  1  6
  6  4  1  0
  6  7  2  0
  8  9  1  0
  9 10  2  0
 10 11  1  0
 12 13  1  0
 12 11  2  0
 14 13  1  6
 14 15  1  0
 15  6  1  0
 16 14  1  0
 17 16  2  0
 18 12  1  0
 19 18  2  0
 19  9  1  0
 21 20  1  1
 21 23  1  0
 22 21  1  0
 24 23  1  1
 24 26  1  0
 24 25  1  0
 25 16  1  0
 26 27  1  0
 28 26  2  0
M  END
$$$$
