VYL.pdb
     RDKit          3D

 28 28  0  0  1  0  0  0  0  0999 V2000
    8.9874  -12.9744   19.2681 C   0  0  0  0  0  0  0  0  0  0  0  0
    8.4353  -14.2387   18.6575 C   0  0  2  0  0  0  0  0  0  0  0  0
    7.2640  -13.8506   17.7781 C   0  0  0  0  0  0  0  0  0  0  0  0
    7.8988  -15.1831   19.7127 C   0  0  2  0  0  0  0  0  0  0  0  0
    6.9280  -14.4803   20.5301 N   0  0  0  0  0  0  0  0  0  0  0  0
    8.9994  -15.7282   20.5627 C   0  0  0  0  0  0  0  0  0  0  0  0
    9.6731  -16.7298   20.1844 O   0  0  0  0  0  0  0  0  0  0  0  0
   14.9709  -15.5217   18.2031 O   0  0  0  0  0  0  0  0  0  0  0  0
   14.1366  -15.3435   19.3051 C   0  0  0  0  0  0  0  0  0  0  0  0
   13.9408  -16.3214   20.2563 C   0  0  0  0  0  0  0  0  0  0  0  0
   13.1004  -16.0924   21.3328 C   0  0  0  0  0  0  0  0  0  0  0  0
   12.4321  -14.8902   21.4960 C   0  0  0  0  0  0  0  0  0  0  0  0
   11.5538  -14.7080   22.6602 C   0  0  0  0  0  0  0  0  0  0  0  0
   10.3857  -15.6858   22.6630 C   0  0  2  0  0  0  0  0  0  0  0  0
    9.3449  -15.1671   21.8145 N   0  0  0  0  0  0  0  0  0  0  0  0
    9.9533  -15.7873   24.0819 C   0  0  0  0  0  0  0  0  0  0  0  0
   10.8302  -16.0663   24.9363 O   0  0  0  0  0  0  0  0  0  0  0  0
   12.6302  -13.9194   20.5464 C   0  0  0  0  0  0  0  0  0  0  0  0
   13.4689  -14.1379   19.4653 C   0  0  0  0  0  0  0  0  0  0  0  0
    7.9732  -12.6439   26.6616 C   0  0  0  0  0  0  0  0  0  0  0  0
    7.0816  -13.5013   25.8502 C   0  0  2  0  0  0  0  0  0  0  0  0
    5.6656  -12.8677   25.8132 C   0  0  0  0  0  0  0  0  0  0  0  0
    6.9890  -14.9460   26.1416 C   0  0  0  0  0  0  0  0  0  0  0  0
    8.1725  -15.7756   25.9043 C   0  0  2  0  0  0  0  0  0  0  0  0
    8.6264  -15.5877   24.5023 N   0  0  0  0  0  0  0  0  0  0  0  0
    8.0021  -17.2051   26.0721 C   0  0  0  0  0  0  0  0  0  0  0  0
    8.1767  -18.1942   25.1048 O   0  0  0  0  0  0  0  0  0  0  0  0
    7.6388  -17.6470   27.2339 O   0  0  0  0  0  0  0  0  0  0  0  0
  2  1  1  1
  3  2  1  0
  4  2  1  0
  4  5  1  1
  6  4  1  0
  6  7  2  0
  8  9  1  0
  9 10  2  0
 10 11  1  0
 12 13  1  0
 12 11  2  0
 14 13  1  1
 14 15  1  0
 15  6  1  0
 16 14  1  0
 17 16  2  0
 18 12  1  0
 19 18  2  0
 19  9  1  0
 21 20  1  1
 21 23  1  0
 22 21  1  0
 24 23  1  6
 24 26  1  0
 24 25  1  0
 25 16  1  0
 26 27  1  0
 28 26  2  0
M  END
$$$$
