VYL.pdb
     RDKit          3D

 28 28  0  0  1  0  0  0  0  0999 V2000
    8.3587  -13.3967   17.5121 C   0  0  0  0  0  0  0  0  0  0  0  0
    7.7911  -13.9031   18.8150 C   0  0  2  0  0  0  0  0  0  0  0  0
    8.4308  -13.1076   19.9347 C   0  0  0  0  0  0  0  0  0  0  0  0
    8.1425  -15.3569   19.0523 C   0  0  2  0  0  0  0  0  0  0  0  0
    7.5814  -16.1618   17.9838 N   0  0  0  0  0  0  0  0  0  0  0  0
    7.6402  -15.8267   20.3782 C   0  0  0  0  0  0  0  0  0  0  0  0
    6.4028  -15.8185   20.6410 O   0  0  0  0  0  0  0  0  0  0  0  0
    6.1892  -22.3806   20.5903 O   0  0  0  0  0  0  0  0  0  0  0  0
    6.7879  -21.2985   21.2327 C   0  0  0  0  0  0  0  0  0  0  0  0
    6.4224  -20.8882   22.4967 C   0  0  0  0  0  0  0  0  0  0  0  0
    7.0500  -19.8056   23.0899 C   0  0  0  0  0  0  0  0  0  0  0  0
    8.0552  -19.1012   22.4480 C   0  0  0  0  0  0  0  0  0  0  0  0
    8.6829  -17.9610   23.1305 C   0  0  0  0  0  0  0  0  0  0  0  0
    8.0617  -16.6304   22.7259 C   0  0  2  0  0  0  0  0  0  0  0  0
    8.5019  -16.2985   21.3961 N   0  0  0  0  0  0  0  0  0  0  0  0
    8.5345  -15.6457   23.7346 C   0  0  0  0  0  0  0  0  0  0  0  0
    9.7576  -15.3613   23.7377 O   0  0  0  0  0  0  0  0  0  0  0  0
    8.4157  -19.5135   21.1896 C   0  0  0  0  0  0  0  0  0  0  0  0
    7.7944  -20.5953   20.5867 C   0  0  0  0  0  0  0  0  0  0  0  0
    7.5938  -12.1856   28.1311 C   0  0  0  0  0  0  0  0  0  0  0  0
    7.2309  -11.8853   26.7288 C   0  0  2  0  0  0  0  0  0  0  0  0
    6.0011  -10.9391   26.7153 C   0  0  0  0  0  0  0  0  0  0  0  0
    7.0376  -12.9905   25.7686 C   0  0  0  0  0  0  0  0  0  0  0  0
    8.1272  -13.9538   25.5959 C   0  0  2  0  0  0  0  0  0  0  0  0
    7.6854  -15.0286   24.6704 N   0  0  0  0  0  0  0  0  0  0  0  0
    8.5846  -14.6314   26.7926 C   0  0  0  0  0  0  0  0  0  0  0  0
    7.9463  -15.6703   27.4693 O   0  0  0  0  0  0  0  0  0  0  0  0
    9.7016  -14.2491   27.3247 O   0  0  0  0  0  0  0  0  0  0  0  0
  2  1  1  6
  3  2  1  0
  4  2  1  0
  4  5  1  6
  6  4  1  0
  6  7  2  0
  8  9  1  0
  9 10  2  0
 10 11  1  0
 12 13  1  0
 12 11  2  0
 14 13  1  1
 14 15  1  0
 15  6  1  0
 16 14  1  0
 17 16  2  0
 18 12  1  0
 19 18  2  0
 19  9  1  0
 21 20  1  1
 21 23  1  0
 22 21  1  0
 24 23  1  1
 24 26  1  0
 24 25  1  0
 25 16  1  0
 26 27  1  0
 28 26  2  0
M  END
$$$$
