VYL.pdb
     RDKit          3D

 28 28  0  0  1  0  0  0  0  0999 V2000
    7.7049  -12.1484   18.4882 C   0  0  0  0  0  0  0  0  0  0  0  0
    7.7886  -13.2218   19.5451 C   0  0  2  0  0  0  0  0  0  0  0  0
    8.1251  -12.5471   20.8594 C   0  0  0  0  0  0  0  0  0  0  0  0
    8.9034  -14.2057   19.2580 C   0  0  2  0  0  0  0  0  0  0  0  0
    8.6433  -14.8619   17.9907 N   0  0  0  0  0  0  0  0  0  0  0  0
    9.0308  -15.2151   20.3516 C   0  0  0  0  0  0  0  0  0  0  0  0
    8.3051  -16.2512   20.3632 O   0  0  0  0  0  0  0  0  0  0  0  0
   14.4817  -14.8841   17.9876 O   0  0  0  0  0  0  0  0  0  0  0  0
   13.7470  -15.3000   19.0964 C   0  0  0  0  0  0  0  0  0  0  0  0
   13.8111  -14.6589   20.3147 C   0  0  0  0  0  0  0  0  0  0  0  0
   13.0596  -15.1137   21.3853 C   0  0  0  0  0  0  0  0  0  0  0  0
   12.2255  -16.2144   21.2781 C   0  0  0  0  0  0  0  0  0  0  0  0
   11.4532  -16.6483   22.4508 C   0  0  0  0  0  0  0  0  0  0  0  0
   10.0699  -16.0124   22.5009 C   0  0  2  0  0  0  0  0  0  0  0  0
    9.9517  -15.0735   21.4161 N   0  0  0  0  0  0  0  0  0  0  0  0
    9.9835  -15.3483   23.8284 C   0  0  0  0  0  0  0  0  0  0  0  0
   11.0430  -14.8774   24.3107 O   0  0  0  0  0  0  0  0  0  0  0  0
   12.1650  -16.8495   20.0630 C   0  0  0  0  0  0  0  0  0  0  0  0
   12.9126  -16.4029   18.9853 C   0  0  0  0  0  0  0  0  0  0  0  0
    5.7186  -12.6275   26.3417 C   0  0  0  0  0  0  0  0  0  0  0  0
    7.1126  -13.1106   26.2336 C   0  0  2  0  0  0  0  0  0  0  0  0
    7.7284  -12.5884   24.9085 C   0  0  0  0  0  0  0  0  0  0  0  0
    7.4058  -14.5480   26.4034 C   0  0  0  0  0  0  0  0  0  0  0  0
    8.7366  -15.0305   26.0276 C   0  0  2  0  0  0  0  0  0  0  0  0
    8.7864  -15.2264   24.5559 N   0  0  0  0  0  0  0  0  0  0  0  0
    9.1512  -16.2936   26.6048 C   0  0  0  0  0  0  0  0  0  0  0  0
    9.7801  -16.4931   27.8333 O   0  0  0  0  0  0  0  0  0  0  0  0
    8.9380  -17.3766   25.9275 O   0  0  0  0  0  0  0  0  0  0  0  0
  2  1  1  6
  3  2  1  0
  4  2  1  0
  4  5  1  6
  6  4  1  0
  6  7  2  0
  8  9  1  0
  9 10  2  0
 10 11  1  0
 12 13  1  0
 12 11  2  0
 14 13  1  1
 14 15  1  0
 15  6  1  0
 16 14  1  0
 17 16  2  0
 18 12  1  0
 19 18  2  0
 19  9  1  0
 21 20  1  6
 21 23  1  0
 22 21  1  0
 24 23  1  1
 24 26  1  0
 24 25  1  0
 25 16  1  0
 26 27  1  0
 28 26  2  0
M  END
$$$$
