VYL.pdb
     RDKit          3D

 28 28  0  0  1  0  0  0  0  0999 V2000
    6.7862  -13.5825   20.9273 C   0  0  0  0  0  0  0  0  0  0  0  0
    7.9836  -12.8259   20.4079 C   0  0  2  0  0  0  0  0  0  0  0  0
    7.4715  -11.7022   19.5299 C   0  0  0  0  0  0  0  0  0  0  0  0
    8.8635  -13.6981   19.5371 C   0  0  2  0  0  0  0  0  0  0  0  0
    8.0765  -14.2149   18.4334 N   0  0  0  0  0  0  0  0  0  0  0  0
    9.4615  -14.8196   20.3216 C   0  0  0  0  0  0  0  0  0  0  0  0
    8.9961  -15.9924   20.2310 O   0  0  0  0  0  0  0  0  0  0  0  0
   14.8610  -15.9381   16.8961 O   0  0  0  0  0  0  0  0  0  0  0  0
   14.3046  -15.8275   18.1690 C   0  0  0  0  0  0  0  0  0  0  0  0
   14.0686  -14.6124   18.7750 C   0  0  0  0  0  0  0  0  0  0  0  0
   13.5131  -14.5586   20.0425 C   0  0  0  0  0  0  0  0  0  0  0  0
   13.1769  -15.7054   20.7428 C   0  0  0  0  0  0  0  0  0  0  0  0
   12.5904  -15.5825   22.0847 C   0  0  0  0  0  0  0  0  0  0  0  0
   11.0697  -15.6677   22.0621 C   0  0  2  0  0  0  0  0  0  0  0  0
   10.5606  -14.6387   21.1936 N   0  0  0  0  0  0  0  0  0  0  0  0
   10.6379  -15.4754   23.4718 C   0  0  0  0  0  0  0  0  0  0  0  0
   11.2809  -14.6509   24.1673 O   0  0  0  0  0  0  0  0  0  0  0  0
   13.4138  -16.9130   20.1352 C   0  0  0  0  0  0  0  0  0  0  0  0
   13.9691  -16.9784   18.8674 C   0  0  0  0  0  0  0  0  0  0  0  0
    7.9585  -13.0273   25.7603 C   0  0  0  0  0  0  0  0  0  0  0  0
    7.3704  -14.1718   25.0307 C   0  0  2  0  0  0  0  0  0  0  0  0
    5.8322  -13.9846   24.9499 C   0  0  0  0  0  0  0  0  0  0  0  0
    7.6976  -15.5513   25.4442 C   0  0  0  0  0  0  0  0  0  0  0  0
    9.1055  -15.9549   25.4502 C   0  0  2  0  0  0  0  0  0  0  0  0
    9.5582  -16.1652   24.0511 N   0  0  0  0  0  0  0  0  0  0  0  0
    9.4213  -17.1828   26.1525 C   0  0  0  0  0  0  0  0  0  0  0  0
    9.9245  -18.3620   25.6041 O   0  0  0  0  0  0  0  0  0  0  0  0
    9.2170  -17.2281   27.4304 O   0  0  0  0  0  0  0  0  0  0  0  0
  2  1  1  6
  3  2  1  0
  4  2  1  0
  4  5  1  6
  6  4  1  0
  6  7  2  0
  8  9  1  0
  9 10  2  0
 10 11  1  0
 12 13  1  0
 12 11  2  0
 14 13  1  1
 14 15  1  0
 15  6  1  0
 16 14  1  0
 17 16  2  0
 18 12  1  0
 19 18  2  0
 19  9  1  0
 21 20  1  1
 21 23  1  0
 22 21  1  0
 24 23  1  6
 24 26  1  0
 24 25  1  0
 25 16  1  0
 26 27  1  0
 28 26  2  0
M  END
$$$$
