YIT.pdb
     RDKit          3D

 28 28  0  0  1  0  0  0  0  0999 V2000
   33.0127   -8.3998  -18.9301 O   0  0  0  0  0  0  0  0  0  0  0  0
   31.6554   -8.5126  -18.7213 C   0  0  0  0  0  0  0  0  0  0  0  0
   30.7681   -8.3224  -19.7571 C   0  0  0  0  0  0  0  0  0  0  0  0
   29.4166   -8.4341  -19.5519 C   0  0  0  0  0  0  0  0  0  0  0  0
   28.9277   -8.7382  -18.3064 C   0  0  0  0  0  0  0  0  0  0  0  0
   27.4416   -8.8453  -18.1601 C   0  0  0  0  0  0  0  0  0  0  0  0
   27.0552  -10.2755  -17.8606 C   0  0  2  0  0  0  0  0  0  0  0  0
   27.5193  -11.1485  -18.8953 N   0  0  0  0  0  0  0  0  0  0  0  0
   25.5872  -10.3336  -17.6729 C   0  0  0  0  0  0  0  0  0  0  0  0
   24.8089  -10.7141  -18.5800 O   0  0  0  0  0  0  0  0  0  0  0  0
   29.8011   -8.9305  -17.2650 C   0  0  0  0  0  0  0  0  0  0  0  0
   31.1520   -8.8158  -17.4833 C   0  0  0  0  0  0  0  0  0  0  0  0
   23.5137  -13.4094  -14.2479 C   0  0  0  0  0  0  0  0  0  0  0  0
   23.8528  -12.4061  -15.2835 C   0  0  0  0  0  0  0  0  0  0  0  0
   23.2765  -11.0447  -15.1509 C   0  0  2  0  0  0  0  0  0  0  0  0
   21.8416  -11.0203  -14.6427 C   0  0  0  0  0  0  0  0  0  0  0  0
   23.5857  -10.0777  -16.2134 C   0  0  2  0  0  0  0  0  0  0  0  0
   25.0270   -9.9502  -16.4337 N   0  0  0  0  0  0  0  0  0  0  0  0
   23.1014   -8.7214  -15.9210 C   0  0  0  0  0  0  0  0  0  0  0  0
   23.5014   -8.0543  -14.9363 O   0  0  0  0  0  0  0  0  0  0  0  0
   20.7110   -4.6234  -17.2884 C   0  0  0  0  0  0  0  0  0  0  0  0
   21.2036   -6.0000  -17.6680 C   0  0  1  0  0  0  0  0  0  0  0  0
   22.2503   -5.8675  -18.5768 O   0  0  0  0  0  0  0  0  0  0  0  0
   21.6743   -6.7542  -16.4167 C   0  0  2  0  0  0  0  0  0  0  0  0
   22.1369   -8.0594  -16.7374 N   0  0  0  0  0  0  0  0  0  0  0  0
   20.5610   -6.7863  -15.4328 C   0  0  0  0  0  0  0  0  0  0  0  0
   20.5601   -5.8393  -14.4254 O   0  0  0  0  0  0  0  0  0  0  0  0
   19.6630   -7.6642  -15.5448 O   0  0  0  0  0  0  0  0  0  0  0  0
  2  1  1  0
  3  2  2  0
  4  3  1  0
  5 11  1  0
  5  4  2  0
  6  5  1  0
  7  6  1  0
  7  8  1  6
  9 10  2  0
  9  7  1  0
 11 12  2  0
 12  2  1  0
 14 13  1  0
 15 14  1  0
 15 16  1  6
 17 18  1  1
 17 15  1  0
 18  9  1  0
 19 17  1  0
 20 19  2  0
 22 23  1  0
 22 24  1  0
 22 21  1  1
 24 25  1  6
 25 19  1  0
 26 24  1  0
 26 27  1  0
 28 26  2  0
M  END
$$$$
