YIT.pdb
     RDKit          3D

 28 28  0  0  1  0  0  0  0  0999 V2000
   29.8907  -19.6768   -3.3525 O   0  0  0  0  0  0  0  0  0  0  0  0
   29.0320  -19.9251   -4.4012 C   0  0  0  0  0  0  0  0  0  0  0  0
   29.5006  -20.4627   -5.5792 C   0  0  0  0  0  0  0  0  0  0  0  0
   28.6480  -20.7108   -6.6246 C   0  0  0  0  0  0  0  0  0  0  0  0
   27.3107  -20.4255   -6.5108 C   0  0  0  0  0  0  0  0  0  0  0  0
   26.4422  -20.7254   -7.6928 C   0  0  0  0  0  0  0  0  0  0  0  0
   26.7177  -19.7333   -8.7993 C   0  0  2  0  0  0  0  0  0  0  0  0
   26.6923  -18.3953   -8.2923 N   0  0  0  0  0  0  0  0  0  0  0  0
   25.7342  -19.9575   -9.8837 C   0  0  0  0  0  0  0  0  0  0  0  0
   24.6003  -19.4210   -9.8832 O   0  0  0  0  0  0  0  0  0  0  0  0
   26.8303  -19.8893   -5.3420 C   0  0  0  0  0  0  0  0  0  0  0  0
   27.6941  -19.6456   -4.3026 C   0  0  0  0  0  0  0  0  0  0  0  0
   29.0219  -19.8910  -14.0509 C   0  0  0  0  0  0  0  0  0  0  0  0
   27.9114  -19.7721  -13.0778 C   0  0  0  0  0  0  0  0  0  0  0  0
   26.6950  -20.5919  -13.3041 C   0  0  2  0  0  0  0  0  0  0  0  0
   26.2481  -20.6590  -14.7579 C   0  0  0  0  0  0  0  0  0  0  0  0
   25.6129  -20.4756  -12.3166 C   0  0  2  0  0  0  0  0  0  0  0  0
   26.0691  -20.8032  -10.9649 N   0  0  0  0  0  0  0  0  0  0  0  0
   24.4816  -21.3733  -12.5885 C   0  0  0  0  0  0  0  0  0  0  0  0
   24.5502  -22.6174  -12.4407 O   0  0  0  0  0  0  0  0  0  0  0  0
   21.0417  -21.3283  -11.0008 C   0  0  0  0  0  0  0  0  0  0  0  0
   20.8594  -21.2521  -12.4984 C   0  0  1  0  0  0  0  0  0  0  0  0
   20.6197  -19.9275  -12.8547 O   0  0  0  0  0  0  0  0  0  0  0  0
   22.1144  -21.7781  -13.2087 C   0  0  2  0  0  0  0  0  0  0  0  0
   23.2163  -20.8957  -13.0426 N   0  0  0  0  0  0  0  0  0  0  0  0
   21.7926  -21.9999  -14.6426 C   0  0  0  0  0  0  0  0  0  0  0  0
   20.8953  -23.0038  -14.9566 O   0  0  0  0  0  0  0  0  0  0  0  0
   22.3402  -21.2758  -15.5176 O   0  0  0  0  0  0  0  0  0  0  0  0
  2  1  1  0
  3  2  2  0
  4  3  1  0
  5 11  1  0
  5  4  2  0
  6  5  1  0
  7  6  1  0
  7  8  1  1
  9 10  2  0
  9  7  1  0
 11 12  2  0
 12  2  1  0
 14 13  1  0
 15 14  1  0
 15 16  1  6
 17 18  1  1
 17 15  1  0
 18  9  1  0
 19 17  1  0
 20 19  2  0
 22 23  1  0
 22 24  1  0
 22 21  1  1
 24 25  1  6
 25 19  1  0
 26 24  1  0
 26 27  1  0
 28 26  2  0
M  END
$$$$
