YIT.pdb
     RDKit          3D

 28 28  0  0  1  0  0  0  0  0999 V2000
   29.8879   -0.2801  -13.2696 O   0  0  0  0  0  0  0  0  0  0  0  0
   30.6224   -1.2199  -13.9595 C   0  0  0  0  0  0  0  0  0  0  0  0
   30.3002   -2.5565  -13.8830 C   0  0  0  0  0  0  0  0  0  0  0  0
   31.0297   -3.4939  -14.5687 C   0  0  0  0  0  0  0  0  0  0  0  0
   32.0954   -3.1114  -15.3438 C   0  0  0  0  0  0  0  0  0  0  0  0
   32.8424   -4.1907  -16.0639 C   0  0  0  0  0  0  0  0  0  0  0  0
   33.8758   -4.8023  -15.1460 C   0  0  2  0  0  0  0  0  0  0  0  0
   34.8532   -3.8271  -14.7693 N   0  0  0  0  0  0  0  0  0  0  0  0
   34.4670   -5.9781  -15.8253 C   0  0  0  0  0  0  0  0  0  0  0  0
   35.4628   -5.8857  -16.5825 O   0  0  0  0  0  0  0  0  0  0  0  0
   32.4275   -1.7823  -15.4290 C   0  0  0  0  0  0  0  0  0  0  0  0
   31.6893   -0.8533  -14.7376 C   0  0  0  0  0  0  0  0  0  0  0  0
   36.4724  -10.0109  -13.3508 C   0  0  0  0  0  0  0  0  0  0  0  0
   35.9843   -9.0080  -14.3256 C   0  0  0  0  0  0  0  0  0  0  0  0
   34.9433   -9.4283  -15.2966 C   0  0  2  0  0  0  0  0  0  0  0  0
   35.1307  -10.8369  -15.8430 C   0  0  0  0  0  0  0  0  0  0  0  0
   34.4927   -8.4276  -16.2739 C   0  0  2  0  0  0  0  0  0  0  0  0
   33.9011   -7.2571  -15.6242 N   0  0  0  0  0  0  0  0  0  0  0  0
   33.4677   -8.9381  -17.1949 C   0  0  0  0  0  0  0  0  0  0  0  0
   32.2718   -9.1071  -16.8550 O   0  0  0  0  0  0  0  0  0  0  0  0
   31.9647   -9.9929  -21.7779 C   0  0  0  0  0  0  0  0  0  0  0  0
   33.0645   -9.4654  -20.8869 C   0  0  1  0  0  0  0  0  0  0  0  0
   33.1835   -8.0923  -21.0856 O   0  0  0  0  0  0  0  0  0  0  0  0
   32.7412   -9.7668  -19.4170 C   0  0  2  0  0  0  0  0  0  0  0  0
   33.7567   -9.2811  -18.5492 N   0  0  0  0  0  0  0  0  0  0  0  0
   32.5350  -11.2307  -19.2651 C   0  0  0  0  0  0  0  0  0  0  0  0
   31.2353  -11.6984  -19.2048 O   0  0  0  0  0  0  0  0  0  0  0  0
   33.5379  -11.9918  -19.1965 O   0  0  0  0  0  0  0  0  0  0  0  0
  2  1  1  0
  3  2  2  0
  4  3  1  0
  5 11  1  0
  5  4  2  0
  6  5  1  0
  7  6  1  0
  7  8  1  6
  9 10  2  0
  9  7  1  0
 11 12  2  0
 12  2  1  0
 14 13  1  0
 15 14  1  0
 15 16  1  6
 17 18  1  1
 17 15  1  0
 18  9  1  0
 19 17  1  0
 20 19  2  0
 22 23  1  0
 22 24  1  0
 22 21  1  6
 24 25  1  1
 25 19  1  0
 26 24  1  0
 26 27  1  0
 28 26  2  0
M  END
$$$$
