YIT.pdb
     RDKit          3D

 28 28  0  0  1  0  0  0  0  0999 V2000
   18.1549  -16.2020  -17.5023 O   0  0  0  0  0  0  0  0  0  0  0  0
   19.0655  -16.9849  -16.8268 C   0  0  0  0  0  0  0  0  0  0  0  0
   20.3391  -16.5238  -16.5783 C   0  0  0  0  0  0  0  0  0  0  0  0
   21.2474  -17.3012  -15.9062 C   0  0  0  0  0  0  0  0  0  0  0  0
   20.8985  -18.5546  -15.4703 C   0  0  0  0  0  0  0  0  0  0  0  0
   21.9424  -19.3431  -14.7424 C   0  0  0  0  0  0  0  0  0  0  0  0
   22.9459  -19.9002  -15.7259 C   0  0  2  0  0  0  0  0  0  0  0  0
   22.3119  -20.8123  -16.6283 N   0  0  0  0  0  0  0  0  0  0  0  0
   24.0533  -20.5207  -14.9628 C   0  0  0  0  0  0  0  0  0  0  0  0
   23.9624  -21.6658  -14.4588 O   0  0  0  0  0  0  0  0  0  0  0  0
   19.6323  -19.0266  -15.7113 C   0  0  0  0  0  0  0  0  0  0  0  0
   18.7319  -18.2386  -16.3853 C   0  0  0  0  0  0  0  0  0  0  0  0
   29.1657  -20.3188  -16.6616 C   0  0  0  0  0  0  0  0  0  0  0  0
   27.8434  -20.5499  -16.0353 C   0  0  0  0  0  0  0  0  0  0  0  0
   27.6634  -20.1488  -14.6177 C   0  0  2  0  0  0  0  0  0  0  0  0
   28.8641  -20.4408  -13.7284 C   0  0  0  0  0  0  0  0  0  0  0  0
   26.3506  -20.4042  -14.0085 C   0  0  2  0  0  0  0  0  0  0  0  0
   25.2623  -19.8109  -14.7870 N   0  0  0  0  0  0  0  0  0  0  0  0
   26.2238  -19.8516  -12.6528 C   0  0  0  0  0  0  0  0  0  0  0  0
   25.8430  -18.6769  -12.4304 O   0  0  0  0  0  0  0  0  0  0  0  0
   24.0013  -21.6673  -10.4375 C   0  0  0  0  0  0  0  0  0  0  0  0
   24.4935  -20.2646  -10.1693 C   0  0  1  0  0  0  0  0  0  0  0  0
   24.0310  -19.8576   -8.9206 O   0  0  0  0  0  0  0  0  0  0  0  0
   26.0275  -20.2285  -10.2091 C   0  0  2  0  0  0  0  0  0  0  0  0
   26.5255  -20.6119  -11.4840 N   0  0  0  0  0  0  0  0  0  0  0  0
   26.5529  -21.0975   -9.1240 C   0  0  0  0  0  0  0  0  0  0  0  0
   26.3459  -20.6973   -7.8169 O   0  0  0  0  0  0  0  0  0  0  0  0
   27.1632  -22.1593   -9.4240 O   0  0  0  0  0  0  0  0  0  0  0  0
  2  1  1  0
  3  2  2  0
  4  3  1  0
  5 11  1  0
  5  4  2  0
  6  5  1  0
  7  6  1  0
  7  8  1  6
  9 10  2  0
  9  7  1  0
 11 12  2  0
 12  2  1  0
 14 13  1  0
 15 14  1  0
 15 16  1  1
 17 18  1  6
 17 15  1  0
 18  9  1  0
 19 17  1  0
 20 19  2  0
 22 23  1  0
 22 24  1  0
 22 21  1  1
 24 25  1  6
 25 19  1  0
 26 24  1  0
 26 27  1  0
 28 26  2  0
M  END
$$$$
