GAV.pdb
     RDKit          3D

 17 16  0  0  1  0  0  0  0  0999 V2000
    8.4590  -14.4963   13.6547 N   0  0  0  0  0  0  0  0  0  0  0  0
    9.1853  -15.4106   14.5063 C   0  0  0  0  0  0  0  0  0  0  0  0
    8.4934  -15.5726   15.8230 C   0  0  0  0  0  0  0  0  0  0  0  0
    7.7493  -14.6753   16.2634 O   0  0  0  0  0  0  0  0  0  0  0  0
    8.2300  -18.3798   18.2780 C   0  0  0  0  0  0  0  0  0  0  0  0
    8.1128  -16.9330   17.9147 C   0  0  2  0  0  0  0  0  0  0  0  0
    8.6673  -16.7393   16.5914 N   0  0  0  0  0  0  0  0  0  0  0  0
    8.8841  -16.1406   18.9315 C   0  0  0  0  0  0  0  0  0  0  0  0
   10.1340  -16.0071   18.8642 O   0  0  0  0  0  0  0  0  0  0  0  0
    8.0792  -12.6051   20.0163 C   0  0  0  0  0  0  0  0  0  0  0  0
    8.2554  -13.4233   21.2669 C   0  0  1  0  0  0  0  0  0  0  0  0
    6.9216  -13.6793   21.9141 C   0  0  0  0  0  0  0  0  0  0  0  0
    8.9485  -14.7356   21.0074 C   0  0  2  0  0  0  0  0  0  0  0  0
    8.2345  -15.5035   20.0196 N   0  0  0  0  0  0  0  0  0  0  0  0
    9.1861  -15.5041   22.2556 C   0  0  0  0  0  0  0  0  0  0  0  0
   10.1821  -15.1447   23.1618 O   0  0  0  0  0  0  0  0  0  0  0  0
    8.5028  -16.5152   22.5577 O   0  0  0  0  0  0  0  0  0  0  0  0
  1  2  1  0
  2  3  1  0
  3  4  2  0
  6  5  1  1
  7  6  1  0
  7  3  1  0
  8  6  1  0
  8  9  2  0
 11 10  1  6
 11 13  1  0
 12 11  1  0
 13 14  1  6
 13 15  1  0
 14  8  1  0
 15 16  1  0
 17 15  2  0
M  END
$$$$
