GAV.pdb
     RDKit          3D

 17 16  0  0  1  0  0  0  0  0999 V2000
    9.8877  -16.2394   18.2550 N   0  0  0  0  0  0  0  0  0  0  0  0
    8.8643  -16.2808   19.2747 C   0  0  0  0  0  0  0  0  0  0  0  0
    9.4244  -15.8867   20.6049 C   0  0  0  0  0  0  0  0  0  0  0  0
   10.6474  -15.6951   20.7469 O   0  0  0  0  0  0  0  0  0  0  0  0
    7.8526  -14.9942   23.8812 C   0  0  0  0  0  0  0  0  0  0  0  0
    9.0431  -15.3169   23.0340 C   0  0  2  0  0  0  0  0  0  0  0  0
    8.5841  -15.7242   21.7228 N   0  0  0  0  0  0  0  0  0  0  0  0
    9.7921  -16.4348   23.7019 C   0  0  0  0  0  0  0  0  0  0  0  0
    9.4398  -17.6374   23.5835 O   0  0  0  0  0  0  0  0  0  0  0  0
   14.0352  -17.9821   25.6795 C   0  0  0  0  0  0  0  0  0  0  0  0
   13.1823  -16.9013   25.0722 C   0  0  1  0  0  0  0  0  0  0  0  0
   13.6125  -16.6323   23.6559 C   0  0  0  0  0  0  0  0  0  0  0  0
   11.7144  -17.2400   25.0961 C   0  0  2  0  0  0  0  0  0  0  0  0
   10.9369  -16.1835   24.5007 N   0  0  0  0  0  0  0  0  0  0  0  0
   11.2391  -17.5911   26.4583 C   0  0  0  0  0  0  0  0  0  0  0  0
   11.4947  -18.8373   27.0277 O   0  0  0  0  0  0  0  0  0  0  0  0
   10.5837  -16.7845   27.1656 O   0  0  0  0  0  0  0  0  0  0  0  0
  1  2  1  0
  2  3  1  0
  3  4  2  0
  6  5  1  1
  7  6  1  0
  7  3  1  0
  8  6  1  0
  8  9  2  0
 11 10  1  6
 11 13  1  0
 12 11  1  0
 13 14  1  1
 13 15  1  0
 14  8  1  0
 15 16  1  0
 17 15  2  0
M  END
$$$$
