GAV.pdb
     RDKit          3D

 17 16  0  0  1  0  0  0  0  0999 V2000
    6.4107  -17.9481   19.5512 N   0  0  0  0  0  0  0  0  0  0  0  0
    7.2330  -18.2890   20.6899 C   0  0  0  0  0  0  0  0  0  0  0  0
    6.6579  -17.7207   21.9488 C   0  0  0  0  0  0  0  0  0  0  0  0
    5.7756  -16.8420   21.9032 O   0  0  0  0  0  0  0  0  0  0  0  0
    6.8926  -18.5990   25.5537 C   0  0  0  0  0  0  0  0  0  0  0  0
    6.6774  -17.5906   24.4694 C   0  0  2  0  0  0  0  0  0  0  0  0
    7.1000  -18.1650   23.2095 N   0  0  0  0  0  0  0  0  0  0  0  0
    7.5013  -16.3787   24.7998 C   0  0  0  0  0  0  0  0  0  0  0  0
    8.7048  -16.2742   24.4463 O   0  0  0  0  0  0  0  0  0  0  0  0
    5.7597  -13.0782   27.0203 C   0  0  0  0  0  0  0  0  0  0  0  0
    6.7776  -12.9048   25.9256 C   0  0  1  0  0  0  0  0  0  0  0  0
    7.5872  -11.6586   26.1596 C   0  0  0  0  0  0  0  0  0  0  0  0
    7.7014  -14.0886   25.8012 C   0  0  2  0  0  0  0  0  0  0  0  0
    6.9564  -15.2912   25.5294 N   0  0  0  0  0  0  0  0  0  0  0  0
    8.5948  -14.2325   26.9785 C   0  0  0  0  0  0  0  0  0  0  0  0
    9.6592  -13.3616   27.2045 O   0  0  0  0  0  0  0  0  0  0  0  0
    8.4371  -15.1447   27.8290 O   0  0  0  0  0  0  0  0  0  0  0  0
  1  2  1  0
  2  3  1  0
  3  4  2  0
  6  5  1  1
  7  6  1  0
  7  3  1  0
  8  6  1  0
  8  9  2  0
 11 10  1  1
 11 13  1  0
 12 11  1  0
 13 14  1  1
 13 15  1  0
 14  8  1  0
 15 16  1  0
 17 15  2  0
M  END
$$$$
