GAV.pdb
     RDKit          3D

 17 16  0  0  1  0  0  0  0  0999 V2000
    5.7688  -19.2087   23.1143 N   0  0  0  0  0  0  0  0  0  0  0  0
    5.4444  -17.8093   22.9548 C   0  0  0  0  0  0  0  0  0  0  0  0
    6.6747  -17.0093   22.6636 C   0  0  0  0  0  0  0  0  0  0  0  0
    7.8063  -17.4829   22.8829 O   0  0  0  0  0  0  0  0  0  0  0  0
    7.2994  -13.7772   20.9175 C   0  0  0  0  0  0  0  0  0  0  0  0
    7.7198  -14.8543   21.8672 C   0  0  2  0  0  0  0  0  0  0  0  0
    6.5814  -15.7071   22.1368 N   0  0  0  0  0  0  0  0  0  0  0  0
    8.1947  -14.1930   23.1297 C   0  0  0  0  0  0  0  0  0  0  0  0
    9.2368  -13.4876   23.1615 O   0  0  0  0  0  0  0  0  0  0  0  0
    7.1716  -12.1911   27.4345 C   0  0  0  0  0  0  0  0  0  0  0  0
    6.7525  -12.9789   26.2228 C   0  0  1  0  0  0  0  0  0  0  0  0
    6.0893  -12.0762   25.2184 C   0  0  0  0  0  0  0  0  0  0  0  0
    7.9063  -13.6952   25.5704 C   0  0  2  0  0  0  0  0  0  0  0  0
    7.4857  -14.3349   24.3500 N   0  0  0  0  0  0  0  0  0  0  0  0
    8.5813  -14.6381   26.4978 C   0  0  0  0  0  0  0  0  0  0  0  0
    9.3982  -14.1911   27.5347 O   0  0  0  0  0  0  0  0  0  0  0  0
    8.4507  -15.8843   26.3953 O   0  0  0  0  0  0  0  0  0  0  0  0
  1  2  1  0
  2  3  1  0
  3  4  2  0
  6  5  1  6
  7  6  1  0
  7  3  1  0
  8  6  1  0
  8  9  2  0
 11 10  1  1
 11 13  1  0
 12 11  1  0
 13 14  1  6
 13 15  1  0
 14  8  1  0
 15 16  1  0
 17 15  2  0
M  END
$$$$
