GAV.pdb
     RDKit          3D

 17 16  0  0  1  0  0  0  0  0999 V2000
    6.1781  -19.5258   23.8996 N   0  0  0  0  0  0  0  0  0  0  0  0
    5.7017  -18.1656   23.7914 C   0  0  0  0  0  0  0  0  0  0  0  0
    6.7928  -17.2572   23.3191 C   0  0  0  0  0  0  0  0  0  0  0  0
    7.9853  -17.6140   23.3777 O   0  0  0  0  0  0  0  0  0  0  0  0
    6.8066  -13.9934   21.5057 C   0  0  0  0  0  0  0  0  0  0  0  0
    7.4922  -15.0508   22.3125 C   0  0  2  0  0  0  0  0  0  0  0  0
    6.4969  -15.9827   22.7994 N   0  0  0  0  0  0  0  0  0  0  0  0
    8.1876  -14.3742   23.4594 C   0  0  0  0  0  0  0  0  0  0  0  0
    9.2692  -13.7484   23.3076 O   0  0  0  0  0  0  0  0  0  0  0  0
    7.2552  -11.6260   25.7264 C   0  0  0  0  0  0  0  0  0  0  0  0
    7.5208  -12.8216   26.6008 C   0  0  1  0  0  0  0  0  0  0  0  0
    6.2236  -13.4309   27.0582 C   0  0  0  0  0  0  0  0  0  0  0  0
    8.3532  -13.8706   25.9102 C   0  0  2  0  0  0  0  0  0  0  0  0
    7.6532  -14.4104   24.7728 N   0  0  0  0  0  0  0  0  0  0  0  0
    8.8135  -14.9295   26.8438 C   0  0  0  0  0  0  0  0  0  0  0  0
    9.6308  -14.6425   27.9356 O   0  0  0  0  0  0  0  0  0  0  0  0
    8.4905  -16.1356   26.6974 O   0  0  0  0  0  0  0  0  0  0  0  0
  1  2  1  0
  2  3  1  0
  3  4  2  0
  6  5  1  6
  7  6  1  0
  7  3  1  0
  8  6  1  0
  8  9  2  0
 11 10  1  6
 11 13  1  0
 12 11  1  0
 13 14  1  6
 13 15  1  0
 14  8  1  0
 15 16  1  0
 17 15  2  0
M  END
$$$$
