GAV.pdb
     RDKit          3D

 17 16  0  0  1  0  0  0  0  0999 V2000
    5.0995  -18.3549   21.8336 N   0  0  0  0  0  0  0  0  0  0  0  0
    5.0596  -16.9513   22.1760 C   0  0  0  0  0  0  0  0  0  0  0  0
    6.4056  -16.3230   21.9969 C   0  0  0  0  0  0  0  0  0  0  0  0
    7.4339  -17.0258   21.9587 O   0  0  0  0  0  0  0  0  0  0  0  0
    7.5554  -12.9051   21.0901 C   0  0  0  0  0  0  0  0  0  0  0  0
    7.8056  -14.2420   21.7140 C   0  0  2  0  0  0  0  0  0  0  0  0
    6.5397  -14.9275   21.8679 N   0  0  0  0  0  0  0  0  0  0  0  0
    8.4469  -14.0109   23.0526 C   0  0  0  0  0  0  0  0  0  0  0  0
    9.6454  -13.6422   23.1629 O   0  0  0  0  0  0  0  0  0  0  0  0
    7.4017  -11.6404   25.6966 C   0  0  0  0  0  0  0  0  0  0  0  0
    7.4843  -12.9932   26.3504 C   0  0  1  0  0  0  0  0  0  0  0  0
    6.1049  -13.5560   26.5593 C   0  0  0  0  0  0  0  0  0  0  0  0
    8.3113  -13.9706   25.5561 C   0  0  2  0  0  0  0  0  0  0  0  0
    7.7262  -14.1990   24.2597 N   0  0  0  0  0  0  0  0  0  0  0  0
    8.5543  -15.2350   26.2959 C   0  0  0  0  0  0  0  0  0  0  0  0
    9.3690  -15.2807   27.4257 O   0  0  0  0  0  0  0  0  0  0  0  0
    8.0390  -16.3256   25.9418 O   0  0  0  0  0  0  0  0  0  0  0  0
  1  2  1  0
  2  3  1  0
  3  4  2  0
  6  5  1  1
  7  6  1  0
  7  3  1  0
  8  6  1  0
  8  9  2  0
 11 10  1  6
 11 13  1  0
 12 11  1  0
 13 14  1  6
 13 15  1  0
 14  8  1  0
 15 16  1  0
 17 15  2  0
M  END
$$$$
