GAV.pdb
     RDKit          3D

 17 16  0  0  1  0  0  0  0  0999 V2000
    6.3832  -17.4641   19.6747 N   0  0  0  0  0  0  0  0  0  0  0  0
    7.4490  -17.3557   20.6447 C   0  0  0  0  0  0  0  0  0  0  0  0
    6.9167  -16.9110   21.9704 C   0  0  0  0  0  0  0  0  0  0  0  0
    6.1004  -15.9723   22.0439 O   0  0  0  0  0  0  0  0  0  0  0  0
    7.2523  -18.1914   25.4630 C   0  0  0  0  0  0  0  0  0  0  0  0
    6.9515  -17.0976   24.4873 C   0  0  2  0  0  0  0  0  0  0  0  0
    7.3252  -17.5417   23.1610 N   0  0  0  0  0  0  0  0  0  0  0  0
    7.7550  -15.8928   24.8865 C   0  0  0  0  0  0  0  0  0  0  0  0
    8.9355  -15.7164   24.4868 O   0  0  0  0  0  0  0  0  0  0  0  0
    6.6498  -12.1674   24.8145 C   0  0  0  0  0  0  0  0  0  0  0  0
    7.1600  -12.5111   26.1878 C   0  0  1  0  0  0  0  0  0  0  0  0
    6.0117  -12.6572   27.1487 C   0  0  0  0  0  0  0  0  0  0  0  0
    7.9887  -13.7693   26.1995 C   0  0  2  0  0  0  0  0  0  0  0  0
    7.2161  -14.8938   25.7371 N   0  0  0  0  0  0  0  0  0  0  0  0
    8.6137  -14.0203   27.5229 C   0  0  0  0  0  0  0  0  0  0  0  0
    8.3381  -15.1708   28.2597 O   0  0  0  0  0  0  0  0  0  0  0  0
    9.4210  -13.2101   28.0447 O   0  0  0  0  0  0  0  0  0  0  0  0
  1  2  1  0
  2  3  1  0
  3  4  2  0
  6  5  1  1
  7  6  1  0
  7  3  1  0
  8  6  1  0
  8  9  2  0
 11 10  1  6
 11 13  1  0
 12 11  1  0
 13 14  1  1
 13 15  1  0
 14  8  1  0
 15 16  1  0
 17 15  2  0
M  END
$$$$
