GAV.pdb
     RDKit          3D

 17 16  0  0  1  0  0  0  0  0999 V2000
    5.4161  -18.3769   21.5563 N   0  0  0  0  0  0  0  0  0  0  0  0
    5.2610  -16.9728   21.8621 C   0  0  0  0  0  0  0  0  0  0  0  0
    6.5721  -16.2594   21.7590 C   0  0  0  0  0  0  0  0  0  0  0  0
    7.6441  -16.8938   21.7933 O   0  0  0  0  0  0  0  0  0  0  0  0
    7.5449  -12.7633   20.9254 C   0  0  0  0  0  0  0  0  0  0  0  0
    7.8494  -14.0936   21.5389 C   0  0  2  0  0  0  0  0  0  0  0  0
    6.6235  -14.8593   21.6214 N   0  0  0  0  0  0  0  0  0  0  0  0
    8.4120  -13.8486   22.9100 C   0  0  0  0  0  0  0  0  0  0  0  0
    9.5760  -13.4018   23.0830 O   0  0  0  0  0  0  0  0  0  0  0  0
    6.9471  -11.6431   25.5810 C   0  0  0  0  0  0  0  0  0  0  0  0
    7.1563  -13.0074   26.1806 C   0  0  1  0  0  0  0  0  0  0  0  0
    5.8471  -13.7429   26.2712 C   0  0  0  0  0  0  0  0  0  0  0  0
    8.1459  -13.8359   25.4034 C   0  0  2  0  0  0  0  0  0  0  0  0
    7.6519  -14.1113   24.0785 N   0  0  0  0  0  0  0  0  0  0  0  0
    8.5379  -15.0717   26.1273 C   0  0  0  0  0  0  0  0  0  0  0  0
    9.1904  -15.0271   27.3580 O   0  0  0  0  0  0  0  0  0  0  0  0
    8.3019  -16.2180   25.6683 O   0  0  0  0  0  0  0  0  0  0  0  0
  1  2  1  0
  2  3  1  0
  3  4  2  0
  6  5  1  1
  7  6  1  0
  7  3  1  0
  8  6  1  0
  8  9  2  0
 11 10  1  6
 11 13  1  0
 12 11  1  0
 13 14  1  6
 13 15  1  0
 14  8  1  0
 15 16  1  0
 17 15  2  0
M  END
$$$$
