AYP.pdb
     RDKit          3D

 25 26  0  0  1  0  0  0  0  0999 V2000
   20.5222  -20.2263  -15.9685 C   0  0  0  0  0  0  0  0  0  0  0  0
   20.4941  -20.4419  -14.4749 C   0  0  2  0  0  0  0  0  0  0  0  0
   19.3840  -19.7220  -13.9183 N   0  0  0  0  0  0  0  0  0  0  0  0
   21.7868  -20.0746  -13.8412 C   0  0  0  0  0  0  0  0  0  0  0  0
   21.9808  -18.8912  -13.5152 O   0  0  0  0  0  0  0  0  0  0  0  0
   27.5325  -19.6292   -7.7873 O   0  0  0  0  0  0  0  0  0  0  0  0
   26.8509  -20.1992   -8.8534 C   0  0  0  0  0  0  0  0  0  0  0  0
   25.5065  -19.9756   -8.9443 C   0  0  0  0  0  0  0  0  0  0  0  0
   24.7780  -20.5091   -9.9703 C   0  0  0  0  0  0  0  0  0  0  0  0
   25.3553  -21.2984  -10.9658 C   0  0  0  0  0  0  0  0  0  0  0  0
   24.4839  -21.8107  -12.0165 C   0  0  0  0  0  0  0  0  0  0  0  0
   24.0682  -20.8082  -13.0647 C   0  0  2  0  0  0  0  0  0  0  0  0
   22.7749  -21.0370  -13.6112 N   0  0  0  0  0  0  0  0  0  0  0  0
   25.0665  -20.8149  -14.1530 C   0  0  0  0  0  0  0  0  0  0  0  0
   24.9053  -21.5996  -15.1646 O   0  0  0  0  0  0  0  0  0  0  0  0
   26.7046  -21.5017  -10.8428 C   0  0  0  0  0  0  0  0  0  0  0  0
   27.4634  -20.9665   -9.8044 C   0  0  0  0  0  0  0  0  0  0  0  0
   26.2279  -19.9996  -14.1791 N   0  0  0  0  0  0  0  0  0  0  0  0
   26.7315  -19.0497  -13.1963 C   0  0  0  0  0  0  0  0  0  0  0  0
   27.3291  -17.9470  -14.0876 C   0  0  0  0  0  0  0  0  0  0  0  0
   28.0521  -18.7838  -15.1172 C   0  0  0  0  0  0  0  0  0  0  0  0
   27.1675  -19.9702  -15.3008 C   0  0  1  0  0  0  0  0  0  0  0  0
   28.0364  -21.1815  -15.2557 C   0  0  0  0  0  0  0  0  0  0  0  0
   28.0613  -21.8574  -14.1975 O   0  0  0  0  0  0  0  0  0  0  0  0
   28.8226  -21.6097  -16.3155 O   0  0  0  0  0  0  0  0  0  0  0  0
  2  1  1  6
  2  3  1  0
  4 13  1  0
  4  2  1  0
  5  4  2  0
  6  7  1  0
  7 17  2  0
  8  9  2  0
  8  7  1  0
  9 10  1  0
 10 16  2  0
 10 11  1  0
 12 11  1  1
 12 13  1  0
 14 12  1  0
 15 14  2  0
 17 16  1  0
 18 14  1  0
 18 22  1  0
 19 20  1  0
 19 18  1  0
 20 21  1  0
 22 21  1  0
 23 25  1  0
 22 23  1  1
 24 23  2  0
M  END
$$$$
