AYP.pdb
     RDKit          3D

 25 26  0  0  1  0  0  0  0  0999 V2000
   27.8448  -19.3537  -19.5489 C   0  0  0  0  0  0  0  0  0  0  0  0
   28.9531  -19.7163  -18.5906 C   0  0  2  0  0  0  0  0  0  0  0  0
   29.9335  -20.5027  -19.2839 N   0  0  0  0  0  0  0  0  0  0  0  0
   28.4311  -20.3968  -17.3773 C   0  0  0  0  0  0  0  0  0  0  0  0
   28.3966  -21.6388  -17.3535 O   0  0  0  0  0  0  0  0  0  0  0  0
   25.2996  -21.0820   -9.0413 O   0  0  0  0  0  0  0  0  0  0  0  0
   25.9590  -20.7184  -10.2071 C   0  0  0  0  0  0  0  0  0  0  0  0
   25.4023  -19.7357  -10.9754 C   0  0  0  0  0  0  0  0  0  0  0  0
   26.0022  -19.3324  -12.1352 C   0  0  0  0  0  0  0  0  0  0  0  0
   27.1964  -19.8908  -12.5928 C   0  0  0  0  0  0  0  0  0  0  0  0
   27.7507  -19.3795  -13.8406 C   0  0  0  0  0  0  0  0  0  0  0  0
   27.4314  -20.1868  -15.0746 C   0  0  2  0  0  0  0  0  0  0  0  0
   27.9838  -19.6610  -16.2755 N   0  0  0  0  0  0  0  0  0  0  0  0
   25.9643  -20.2846  -15.2137 C   0  0  0  0  0  0  0  0  0  0  0  0
   25.3097  -19.3268  -15.7787 O   0  0  0  0  0  0  0  0  0  0  0  0
   27.7259  -20.8730  -11.7977 C   0  0  0  0  0  0  0  0  0  0  0  0
   27.1289  -21.2972  -10.6128 C   0  0  0  0  0  0  0  0  0  0  0  0
   25.1890  -21.3845  -14.7629 N   0  0  0  0  0  0  0  0  0  0  0  0
   25.5918  -22.5878  -14.0476 C   0  0  0  0  0  0  0  0  0  0  0  0
   24.6642  -23.6534  -14.6572 C   0  0  0  0  0  0  0  0  0  0  0  0
   23.3528  -22.9031  -14.6735 C   0  0  0  0  0  0  0  0  0  0  0  0
   23.7466  -21.4985  -14.9831 C   0  0  1  0  0  0  0  0  0  0  0  0
   23.0239  -20.6144  -14.0239 C   0  0  0  0  0  0  0  0  0  0  0  0
   23.6558  -20.1660  -13.0354 O   0  0  0  0  0  0  0  0  0  0  0  0
   21.6905  -20.2550  -14.1566 O   0  0  0  0  0  0  0  0  0  0  0  0
  2  1  1  6
  2  3  1  0
  4 13  1  0
  4  2  1  0
  5  4  2  0
  6  7  1  0
  7 17  2  0
  8  9  2  0
  8  7  1  0
  9 10  1  0
 10 16  2  0
 10 11  1  0
 12 11  1  1
 12 13  1  0
 14 12  1  0
 15 14  2  0
 17 16  1  0
 18 14  1  0
 18 22  1  0
 19 20  1  0
 19 18  1  0
 20 21  1  0
 22 21  1  0
 23 25  1  0
 22 23  1  1
 24 23  2  0
M  END
$$$$
