AYP.pdb
     RDKit          3D

 25 26  0  0  1  0  0  0  0  0999 V2000
   21.5112  -18.5133  -17.9242 C   0  0  0  0  0  0  0  0  0  0  0  0
   21.4885  -17.7168  -16.6423 C   0  0  2  0  0  0  0  0  0  0  0  0
   21.3301  -16.3255  -16.9579 N   0  0  0  0  0  0  0  0  0  0  0  0
   22.6910  -17.9789  -15.8100 C   0  0  0  0  0  0  0  0  0  0  0  0
   23.6920  -17.2572  -15.9570 O   0  0  0  0  0  0  0  0  0  0  0  0
   27.2832  -20.9017   -8.7915 O   0  0  0  0  0  0  0  0  0  0  0  0
   26.3006  -20.6361   -9.7349 C   0  0  0  0  0  0  0  0  0  0  0  0
   26.0519  -21.5875  -10.6828 C   0  0  0  0  0  0  0  0  0  0  0  0
   25.0972  -21.3866  -11.6398 C   0  0  0  0  0  0  0  0  0  0  0  0
   24.3352  -20.2191  -11.7023 C   0  0  0  0  0  0  0  0  0  0  0  0
   23.3398  -20.1141  -12.7624 C   0  0  0  0  0  0  0  0  0  0  0  0
   23.7685  -19.3400  -13.9844 C   0  0  2  0  0  0  0  0  0  0  0  0
   22.7062  -19.0177  -14.8740 N   0  0  0  0  0  0  0  0  0  0  0  0
   24.7920  -20.1208  -14.7084 C   0  0  0  0  0  0  0  0  0  0  0  0
   24.4278  -21.0299  -15.5485 O   0  0  0  0  0  0  0  0  0  0  0  0
   24.6115  -19.2873  -10.7366 C   0  0  0  0  0  0  0  0  0  0  0  0
   25.5806  -19.4743   -9.7536 C   0  0  0  0  0  0  0  0  0  0  0  0
   26.1916  -19.9458  -14.5515 N   0  0  0  0  0  0  0  0  0  0  0  0
   26.9353  -19.0991  -13.6285 C   0  0  0  0  0  0  0  0  0  0  0  0
   28.1307  -18.6534  -14.4885 C   0  0  0  0  0  0  0  0  0  0  0  0
   28.4999  -19.9610  -15.1494 C   0  0  0  0  0  0  0  0  0  0  0  0
   27.1874  -20.6319  -15.3758 C   0  0  1  0  0  0  0  0  0  0  0  0
   27.3271  -22.0442  -14.9175 C   0  0  0  0  0  0  0  0  0  0  0  0
   26.8055  -22.3691  -13.8222 O   0  0  0  0  0  0  0  0  0  0  0  0
   28.0010  -23.0257  -15.6296 O   0  0  0  0  0  0  0  0  0  0  0  0
  2  1  1  6
  2  3  1  0
  4 13  1  0
  4  2  1  0
  5  4  2  0
  6  7  1  0
  7 17  2  0
  8  9  2  0
  8  7  1  0
  9 10  1  0
 10 16  2  0
 10 11  1  0
 12 11  1  1
 12 13  1  0
 14 12  1  0
 15 14  2  0
 17 16  1  0
 18 14  1  0
 18 22  1  0
 19 20  1  0
 19 18  1  0
 20 21  1  0
 22 21  1  0
 23 25  1  0
 22 23  1  1
 24 23  2  0
M  END
$$$$
