AYP.pdb
     RDKit          3D

 25 26  0  0  1  0  0  0  0  0999 V2000
   18.6740  -12.2943  -17.6222 C   0  0  0  0  0  0  0  0  0  0  0  0
   18.5398  -12.0720  -16.1354 C   0  0  2  0  0  0  0  0  0  0  0  0
   17.5327  -12.9547  -15.6185 N   0  0  0  0  0  0  0  0  0  0  0  0
   18.2677  -10.6470  -15.8141 C   0  0  0  0  0  0  0  0  0  0  0  0
   17.2660  -10.1011  -16.3069 O   0  0  0  0  0  0  0  0  0  0  0  0
   13.3119  -10.2313  -11.6610 O   0  0  0  0  0  0  0  0  0  0  0  0
   14.5550   -9.7561  -12.0549 C   0  0  0  0  0  0  0  0  0  0  0  0
   15.6607  -10.2840  -11.4514 C   0  0  0  0  0  0  0  0  0  0  0  0
   16.9134   -9.8584  -11.7945 C   0  0  0  0  0  0  0  0  0  0  0  0
   17.1307   -8.8781  -12.7636 C   0  0  0  0  0  0  0  0  0  0  0  0
   18.5098   -8.5049  -13.0545 C   0  0  0  0  0  0  0  0  0  0  0  0
   18.9173   -8.5956  -14.5043 C   0  0  2  0  0  0  0  0  0  0  0  0
   19.1186   -9.9238  -14.9724 N   0  0  0  0  0  0  0  0  0  0  0  0
   20.1559   -7.8155  -14.7008 C   0  0  0  0  0  0  0  0  0  0  0  0
   21.3026   -8.3972  -14.5924 O   0  0  0  0  0  0  0  0  0  0  0  0
   15.9996   -8.3712  -13.3476 C   0  0  0  0  0  0  0  0  0  0  0  0
   14.7152   -8.7923  -13.0109 C   0  0  0  0  0  0  0  0  0  0  0  0
   20.1893   -6.4312  -15.0116 N   0  0  0  0  0  0  0  0  0  0  0  0
   19.1034   -5.5113  -15.3223 C   0  0  0  0  0  0  0  0  0  0  0  0
   19.7456   -4.5966  -16.3798 C   0  0  0  0  0  0  0  0  0  0  0  0
   21.0991   -4.3555  -15.7529 C   0  0  0  0  0  0  0  0  0  0  0  0
   21.4260   -5.6529  -15.0943 C   0  0  1  0  0  0  0  0  0  0  0  0
   21.9124   -5.3413  -13.7194 C   0  0  0  0  0  0  0  0  0  0  0  0
   23.0194   -4.7609  -13.5967 O   0  0  0  0  0  0  0  0  0  0  0  0
   21.2144   -5.6546  -12.5621 O   0  0  0  0  0  0  0  0  0  0  0  0
  2  1  1  6
  2  3  1  0
  4 13  1  0
  4  2  1  0
  5  4  2  0
  6  7  1  0
  7 17  2  0
  8  9  2  0
  8  7  1  0
  9 10  1  0
 10 16  2  0
 10 11  1  0
 12 11  1  1
 12 13  1  0
 14 12  1  0
 15 14  2  0
 17 16  1  0
 18 14  1  0
 18 22  1  0
 19 20  1  0
 19 18  1  0
 20 21  1  0
 22 21  1  0
 23 25  1  0
 22 23  1  1
 24 23  2  0
M  END
$$$$
