AYP.pdb
     RDKit          3D

 25 26  0  0  1  0  0  0  0  0999 V2000
   20.2249  -20.3560  -11.4350 C   0  0  0  0  0  0  0  0  0  0  0  0
   21.0741  -20.5395  -12.6693 C   0  0  2  0  0  0  0  0  0  0  0  0
   20.9629  -21.8988  -13.1167 N   0  0  0  0  0  0  0  0  0  0  0  0
   22.4830  -20.1306  -12.4340 C   0  0  0  0  0  0  0  0  0  0  0  0
   22.7141  -18.9799  -12.0256 O   0  0  0  0  0  0  0  0  0  0  0  0
   27.3882  -19.3853   -6.6968 O   0  0  0  0  0  0  0  0  0  0  0  0
   26.8889  -19.9297   -7.8717 C   0  0  0  0  0  0  0  0  0  0  0  0
   27.7842  -20.3046   -8.8326 C   0  0  0  0  0  0  0  0  0  0  0  0
   27.3564  -20.8468  -10.0119 C   0  0  0  0  0  0  0  0  0  0  0  0
   26.0048  -21.0453  -10.2969 C   0  0  0  0  0  0  0  0  0  0  0  0
   25.6622  -21.6374  -11.5844 C   0  0  0  0  0  0  0  0  0  0  0  0
   24.9266  -20.7331  -12.5424 C   0  0  2  0  0  0  0  0  0  0  0  0
   23.5384  -21.0184  -12.6654 N   0  0  0  0  0  0  0  0  0  0  0  0
   25.5642  -20.8271  -13.8712 C   0  0  0  0  0  0  0  0  0  0  0  0
   25.0927  -21.6448  -14.7510 O   0  0  0  0  0  0  0  0  0  0  0  0
   25.1357  -20.6579   -9.3111 C   0  0  0  0  0  0  0  0  0  0  0  0
   25.5530  -20.1035   -8.1032 C   0  0  0  0  0  0  0  0  0  0  0  0
   26.6909  -20.0640  -14.2743 N   0  0  0  0  0  0  0  0  0  0  0  0
   27.5287  -19.1496  -13.5102 C   0  0  0  0  0  0  0  0  0  0  0  0
   27.8558  -18.0637  -14.5500 C   0  0  0  0  0  0  0  0  0  0  0  0
   28.1672  -18.9190  -15.7560 C   0  0  0  0  0  0  0  0  0  0  0  0
   27.2172  -20.0626  -15.6400 C   0  0  1  0  0  0  0  0  0  0  0  0
   27.9970  -21.3118  -15.8755 C   0  0  0  0  0  0  0  0  0  0  0  0
   28.2881  -22.0276  -14.8854 O   0  0  0  0  0  0  0  0  0  0  0  0
   28.4228  -21.7339  -17.1266 O   0  0  0  0  0  0  0  0  0  0  0  0
  2  1  1  1
  2  3  1  0
  4 13  1  0
  4  2  1  0
  5  4  2  0
  6  7  1  0
  7 17  2  0
  8  9  2  0
  8  7  1  0
  9 10  1  0
 10 16  2  0
 10 11  1  0
 12 11  1  1
 12 13  1  0
 14 12  1  0
 15 14  2  0
 17 16  1  0
 18 14  1  0
 18 22  1  0
 19 20  1  0
 19 18  1  0
 20 21  1  0
 22 21  1  0
 23 25  1  0
 22 23  1  1
 24 23  2  0
M  END
$$$$
