AYP.pdb
     RDKit          3D

 25 26  0  0  1  0  0  0  0  0999 V2000
   20.3852  -20.7066  -12.0234 C   0  0  0  0  0  0  0  0  0  0  0  0
   21.1660  -20.7557  -13.3142 C   0  0  2  0  0  0  0  0  0  0  0  0
   21.1559  -22.1001  -13.8171 N   0  0  0  0  0  0  0  0  0  0  0  0
   22.5419  -20.2206  -13.1460 C   0  0  0  0  0  0  0  0  0  0  0  0
   22.6878  -19.0633  -12.7176 O   0  0  0  0  0  0  0  0  0  0  0  0
   25.4761  -19.8084   -6.9199 O   0  0  0  0  0  0  0  0  0  0  0  0
   25.6190  -20.1784   -8.2499 C   0  0  0  0  0  0  0  0  0  0  0  0
   24.6728  -21.0034   -8.7881 C   0  0  0  0  0  0  0  0  0  0  0  0
   24.7565  -21.4044  -10.0920 C   0  0  0  0  0  0  0  0  0  0  0  0
   25.7944  -21.0012  -10.9331 C   0  0  0  0  0  0  0  0  0  0  0  0
   25.7806  -21.4850  -12.3084 C   0  0  0  0  0  0  0  0  0  0  0  0
   25.0235  -20.6282  -13.2929 C   0  0  2  0  0  0  0  0  0  0  0  0
   23.6603  -20.9984  -13.4616 N   0  0  0  0  0  0  0  0  0  0  0  0
   25.7099  -20.6836  -14.5994 C   0  0  0  0  0  0  0  0  0  0  0  0
   25.2880  -21.4943  -15.5102 O   0  0  0  0  0  0  0  0  0  0  0  0
   26.7248  -20.1746  -10.3600 C   0  0  0  0  0  0  0  0  0  0  0  0
   26.6562  -19.7557   -9.0333 C   0  0  0  0  0  0  0  0  0  0  0  0
   26.8334  -19.8895  -14.9476 N   0  0  0  0  0  0  0  0  0  0  0  0
   27.6059  -18.9508  -14.1450 C   0  0  0  0  0  0  0  0  0  0  0  0
   27.9539  -17.8573  -15.1700 C   0  0  0  0  0  0  0  0  0  0  0  0
   28.3492  -18.7051  -16.3567 C   0  0  0  0  0  0  0  0  0  0  0  0
   27.4272  -19.8749  -16.2852 C   0  0  1  0  0  0  0  0  0  0  0  0
   28.2527  -21.1018  -16.4781 C   0  0  0  0  0  0  0  0  0  0  0  0
   28.4710  -21.8352  -15.4822 O   0  0  0  0  0  0  0  0  0  0  0  0
   28.7970  -21.4848  -17.6954 O   0  0  0  0  0  0  0  0  0  0  0  0
  2  1  1  1
  2  3  1  0
  4 13  1  0
  4  2  1  0
  5  4  2  0
  6  7  1  0
  7 17  2  0
  8  9  2  0
  8  7  1  0
  9 10  1  0
 10 16  2  0
 10 11  1  0
 12 11  1  1
 12 13  1  0
 14 12  1  0
 15 14  2  0
 17 16  1  0
 18 14  1  0
 18 22  1  0
 19 20  1  0
 19 18  1  0
 20 21  1  0
 22 21  1  0
 23 25  1  0
 22 23  1  1
 24 23  2  0
M  END
$$$$
