AYP.pdb
     RDKit          3D

 25 26  0  0  1  0  0  0  0  0999 V2000
   28.2437  -22.2076  -16.0060 C   0  0  0  0  0  0  0  0  0  0  0  0
   27.1343  -21.4526  -16.6970 C   0  0  2  0  0  0  0  0  0  0  0  0
   27.7007  -20.6178  -17.7181 N   0  0  0  0  0  0  0  0  0  0  0  0
   26.3044  -20.6873  -15.7309 C   0  0  0  0  0  0  0  0  0  0  0  0
   26.8540  -19.8408  -15.0059 O   0  0  0  0  0  0  0  0  0  0  0  0
   18.8119  -17.5727  -12.0466 O   0  0  0  0  0  0  0  0  0  0  0  0
   19.8177  -18.0263  -12.8885 C   0  0  0  0  0  0  0  0  0  0  0  0
   19.8420  -19.3572  -13.1948 C   0  0  0  0  0  0  0  0  0  0  0  0
   20.8067  -19.8665  -14.0180 C   0  0  0  0  0  0  0  0  0  0  0  0
   21.8041  -19.0705  -14.5830 C   0  0  0  0  0  0  0  0  0  0  0  0
   22.7791  -19.7187  -15.4519 C   0  0  0  0  0  0  0  0  0  0  0  0
   24.0216  -20.2326  -14.7674 C   0  0  2  0  0  0  0  0  0  0  0  0
   24.9272  -20.9085  -15.6317 N   0  0  0  0  0  0  0  0  0  0  0  0
   23.6221  -21.1398  -13.6726 C   0  0  0  0  0  0  0  0  0  0  0  0
   23.2114  -22.3319  -13.9468 O   0  0  0  0  0  0  0  0  0  0  0  0
   21.7488  -17.7416  -14.2543 C   0  0  0  0  0  0  0  0  0  0  0  0
   20.7736  -17.2045  -13.4171 C   0  0  0  0  0  0  0  0  0  0  0  0
   23.6557  -20.7963  -12.2960 N   0  0  0  0  0  0  0  0  0  0  0  0
   24.0529  -19.5545  -11.6466 C   0  0  0  0  0  0  0  0  0  0  0  0
   24.7312  -20.0625  -10.3623 C   0  0  0  0  0  0  0  0  0  0  0  0
   23.7539  -21.1337   -9.9375 C   0  0  0  0  0  0  0  0  0  0  0  0
   23.2839  -21.7217  -11.2247 C   0  0  1  0  0  0  0  0  0  0  0  0
   21.7981  -21.8251  -11.1480 C   0  0  0  0  0  0  0  0  0  0  0  0
   21.1094  -20.9748  -11.7644 O   0  0  0  0  0  0  0  0  0  0  0  0
   21.1266  -22.8072  -10.4343 O   0  0  0  0  0  0  0  0  0  0  0  0
  2  1  1  1
  2  3  1  0
  4 13  1  0
  4  2  1  0
  5  4  2  0
  6  7  1  0
  7 17  2  0
  8  9  2  0
  8  7  1  0
  9 10  1  0
 10 16  2  0
 10 11  1  0
 12 11  1  6
 12 13  1  0
 14 12  1  0
 15 14  2  0
 17 16  1  0
 18 14  1  0
 18 22  1  0
 19 20  1  0
 19 18  1  0
 20 21  1  0
 22 21  1  0
 23 25  1  0
 22 23  1  1
 24 23  2  0
M  END
$$$$
