AYP.pdb
     RDKit          3D

 25 26  0  0  1  0  0  0  0  0999 V2000
   27.9831  -34.9228   -4.5498 C   0  0  0  0  0  0  0  0  0  0  0  0
   26.5609  -34.4897   -4.8108 C   0  0  2  0  0  0  0  0  0  0  0  0
   26.5063  -33.7907   -6.0633 N   0  0  0  0  0  0  0  0  0  0  0  0
   26.0147  -33.6870   -3.6861 C   0  0  0  0  0  0  0  0  0  0  0  0
   26.1634  -32.4533   -3.7011 O   0  0  0  0  0  0  0  0  0  0  0  0
   20.6089  -31.4468    2.9610 O   0  0  0  0  0  0  0  0  0  0  0  0
   21.2582  -31.9996    1.8660 C   0  0  0  0  0  0  0  0  0  0  0  0
   21.6577  -33.3030    1.9519 C   0  0  0  0  0  0  0  0  0  0  0  0
   22.3022  -33.9057    0.9083 C   0  0  0  0  0  0  0  0  0  0  0  0
   22.5839  -33.2365   -0.2834 C   0  0  0  0  0  0  0  0  0  0  0  0
   23.2708  -33.9794   -1.3331 C   0  0  0  0  0  0  0  0  0  0  0  0
   24.7303  -33.6455   -1.5193 C   0  0  2  0  0  0  0  0  0  0  0  0
   25.3429  -34.3001   -2.6239 N   0  0  0  0  0  0  0  0  0  0  0  0
   25.4596  -33.9895   -0.2820 C   0  0  0  0  0  0  0  0  0  0  0  0
   26.0039  -35.1533   -0.1624 O   0  0  0  0  0  0  0  0  0  0  0  0
   22.1691  -31.9317   -0.3343 C   0  0  0  0  0  0  0  0  0  0  0  0
   21.5112  -31.3006    0.7190 C   0  0  0  0  0  0  0  0  0  0  0  0
   25.6176  -33.1140    0.8238 N   0  0  0  0  0  0  0  0  0  0  0  0
   25.1232  -31.7591    1.0279 C   0  0  0  0  0  0  0  0  0  0  0  0
   26.2778  -31.1066    1.8079 C   0  0  0  0  0  0  0  0  0  0  0  0
   26.5994  -32.2030    2.7966 C   0  0  0  0  0  0  0  0  0  0  0  0
   26.3830  -33.4591    2.0226 C   0  0  1  0  0  0  0  0  0  0  0  0
   25.5789  -34.3755    2.8814 C   0  0  0  0  0  0  0  0  0  0  0  0
   24.3614  -34.5275    2.6133 O   0  0  0  0  0  0  0  0  0  0  0  0
   26.0951  -35.0738    3.9634 O   0  0  0  0  0  0  0  0  0  0  0  0
  2  1  1  1
  2  3  1  0
  4 13  1  0
  4  2  1  0
  5  4  2  0
  6  7  1  0
  7 17  2  0
  8  9  2  0
  8  7  1  0
  9 10  1  0
 10 16  2  0
 10 11  1  0
 12 11  1  1
 12 13  1  0
 14 12  1  0
 15 14  2  0
 17 16  1  0
 18 14  1  0
 18 22  1  0
 19 20  1  0
 19 18  1  0
 20 21  1  0
 22 21  1  0
 23 25  1  0
 22 23  1  1
 24 23  2  0
M  END
$$$$
