AFI.pdb
     RDKit          3D

 25 25  0  0  1  0  0  0  0  0999 V2000
   28.8922  -19.8395  -13.6262 C   0  0  0  0  0  0  0  0  0  0  0  0
   29.6324  -20.9653  -12.9345 C   0  0  2  0  0  0  0  0  0  0  0  0
   29.6116  -22.1045  -13.7991 N   0  0  0  0  0  0  0  0  0  0  0  0
   28.9898  -21.2483  -11.6142 C   0  0  0  0  0  0  0  0  0  0  0  0
   28.1095  -22.1460  -11.5703 O   0  0  0  0  0  0  0  0  0  0  0  0
   29.3083  -20.5754  -10.4262 N   0  0  0  0  0  0  0  0  0  0  0  0
   28.6524  -20.7810   -9.1549 C   0  0  1  0  0  0  0  0  0  0  0  0
   29.4706  -20.0461   -8.1134 C   0  0  0  0  0  0  0  0  0  0  0  0
   28.8288  -20.0107   -6.8002 C   0  0  0  0  0  0  0  0  0  0  0  0
   29.0272  -21.0579   -5.9255 C   0  0  0  0  0  0  0  0  0  0  0  0
   28.4503  -21.0885   -4.6681 C   0  0  0  0  0  0  0  0  0  0  0  0
   27.6539  -20.0498   -4.2682 C   0  0  0  0  0  0  0  0  0  0  0  0
   27.4433  -18.9955   -5.1258 C   0  0  0  0  0  0  0  0  0  0  0  0
   28.0253  -18.9782   -6.3776 C   0  0  0  0  0  0  0  0  0  0  0  0
   27.3228  -20.1294   -9.1966 C   0  0  0  0  0  0  0  0  0  0  0  0
   27.2696  -18.9248   -9.5836 O   0  0  0  0  0  0  0  0  0  0  0  0
   23.3798  -20.1063  -12.8507 C   0  0  0  0  0  0  0  0  0  0  0  0
   23.4683  -19.9496  -11.3323 C   0  0  0  0  0  0  0  0  0  0  0  0
   24.7680  -20.4882  -10.8062 C   0  0  2  0  0  0  0  0  0  0  0  0
   24.9254  -21.9046  -11.2822 C   0  0  0  0  0  0  0  0  0  0  0  0
   24.8715  -20.2775   -9.3398 C   0  0  2  0  0  0  0  0  0  0  0  0
   26.1312  -20.8068   -8.8217 N   0  0  0  0  0  0  0  0  0  0  0  0
   23.8013  -21.0110   -8.6293 C   0  0  0  0  0  0  0  0  0  0  0  0
   22.4897  -20.5754   -8.7068 O   0  0  0  0  0  0  0  0  0  0  0  0
   24.1064  -22.0349   -7.9511 O   0  0  0  0  0  0  0  0  0  0  0  0
  2  1  1  6
  2  3  1  0
  4  2  1  0
  4  5  2  0
  6  4  1  0
  7  6  1  0
  7  8  1  1
  8  9  1  0
  9 10  2  0
  9 14  1  0
 10 11  1  0
 11 12  2  0
 13 12  1  0
 14 13  2  0
 15  7  1  0
 16 15  2  0
 18 17  1  0
 19 18  1  0
 19 20  1  1
 21 19  1  0
 21 22  1  1
 22 15  1  0
 23 24  1  0
 23 21  1  0
 25 23  2  0
M  END
$$$$
