AFI.pdb
     RDKit          3D

 25 25  0  0  1  0  0  0  0  0999 V2000
   27.3007  -20.1314  -18.0806 C   0  0  0  0  0  0  0  0  0  0  0  0
   28.3509  -20.5770  -17.0845 C   0  0  2  0  0  0  0  0  0  0  0  0
   29.1341  -21.6044  -17.6981 N   0  0  0  0  0  0  0  0  0  0  0  0
   27.6831  -21.0495  -15.8327 C   0  0  0  0  0  0  0  0  0  0  0  0
   27.2658  -22.2359  -15.8020 O   0  0  0  0  0  0  0  0  0  0  0  0
   27.4946  -20.2523  -14.6949 N   0  0  0  0  0  0  0  0  0  0  0  0
   26.9278  -20.7092  -13.4464 C   0  0  1  0  0  0  0  0  0  0  0  0
   27.4309  -19.7742  -12.3662 C   0  0  0  0  0  0  0  0  0  0  0  0
   26.9263  -20.1108  -11.0359 C   0  0  0  0  0  0  0  0  0  0  0  0
   25.8166  -19.4521  -10.5502 C   0  0  0  0  0  0  0  0  0  0  0  0
   25.2869  -19.7212   -9.3006 C   0  0  0  0  0  0  0  0  0  0  0  0
   25.8758  -20.6713   -8.5109 C   0  0  0  0  0  0  0  0  0  0  0  0
   26.9837  -21.3398   -8.9768 C   0  0  0  0  0  0  0  0  0  0  0  0
   27.5017  -21.0611  -10.2258 C   0  0  0  0  0  0  0  0  0  0  0  0
   25.4567  -20.5464  -13.5061 C   0  0  0  0  0  0  0  0  0  0  0  0
   25.0032  -19.4211  -13.8686 O   0  0  0  0  0  0  0  0  0  0  0  0
   20.7073  -22.3462  -15.8111 C   0  0  0  0  0  0  0  0  0  0  0  0
   21.0657  -22.3621  -14.3247 C   0  0  0  0  0  0  0  0  0  0  0  0
   22.5416  -22.5566  -14.1246 C   0  0  2  0  0  0  0  0  0  0  0  0
   22.7619  -23.8840  -13.4558 C   0  0  0  0  0  0  0  0  0  0  0  0
   23.1424  -21.3783  -13.4493 C   0  0  2  0  0  0  0  0  0  0  0  0
   24.5606  -21.5982  -13.1741 N   0  0  0  0  0  0  0  0  0  0  0  0
   22.5056  -21.1484  -12.1340 C   0  0  0  0  0  0  0  0  0  0  0  0
   21.3745  -20.3562  -12.0376 O   0  0  0  0  0  0  0  0  0  0  0  0
   23.0134  -21.6831  -11.1055 O   0  0  0  0  0  0  0  0  0  0  0  0
  2  1  1  6
  2  3  1  0
  4  2  1  0
  4  5  2  0
  6  4  1  0
  7  6  1  0
  7  8  1  1
  8  9  1  0
  9 10  2  0
  9 14  1  0
 10 11  1  0
 11 12  2  0
 13 12  1  0
 14 13  2  0
 15  7  1  0
 16 15  2  0
 18 17  1  0
 19 18  1  0
 19 20  1  1
 21 19  1  0
 21 22  1  1
 22 15  1  0
 23 24  1  0
 23 21  1  0
 25 23  2  0
M  END
$$$$
