AFI.pdb
     RDKit          3D

 25 25  0  0  1  0  0  0  0  0999 V2000
   27.8881  -19.8337  -13.9861 C   0  0  0  0  0  0  0  0  0  0  0  0
   28.8387  -20.7837  -13.2879 C   0  0  2  0  0  0  0  0  0  0  0  0
   28.9692  -21.9540  -14.0998 N   0  0  0  0  0  0  0  0  0  0  0  0
   28.3155  -21.1003  -11.9233 C   0  0  0  0  0  0  0  0  0  0  0  0
   27.5714  -22.1071  -11.7989 O   0  0  0  0  0  0  0  0  0  0  0  0
   28.6034  -20.3450  -10.7778 N   0  0  0  0  0  0  0  0  0  0  0  0
   28.0977  -20.6221   -9.4525 C   0  0  1  0  0  0  0  0  0  0  0  0
   28.8954  -19.7677   -8.4893 C   0  0  0  0  0  0  0  0  0  0  0  0
   28.4182  -19.8602   -7.1104 C   0  0  0  0  0  0  0  0  0  0  0  0
   28.7955  -20.9384   -6.3383 C   0  0  0  0  0  0  0  0  0  0  0  0
   28.3804  -21.0883   -5.0269 C   0  0  0  0  0  0  0  0  0  0  0  0
   27.5676  -20.1405   -4.4664 C   0  0  0  0  0  0  0  0  0  0  0  0
   27.1798  -19.0571   -5.2196 C   0  0  0  0  0  0  0  0  0  0  0  0
   27.6015  -18.9204   -6.5271 C   0  0  0  0  0  0  0  0  0  0  0  0
   26.6923  -20.1607   -9.3755 C   0  0  0  0  0  0  0  0  0  0  0  0
   26.4556  -18.9467   -9.6469 O   0  0  0  0  0  0  0  0  0  0  0  0
   23.9503  -21.0756  -12.9961 C   0  0  0  0  0  0  0  0  0  0  0  0
   24.4031  -20.4335  -11.6843 C   0  0  0  0  0  0  0  0  0  0  0  0
   23.7116  -21.0594  -10.5069 C   0  0  2  0  0  0  0  0  0  0  0  0
   22.2277  -20.9116  -10.6909 C   0  0  0  0  0  0  0  0  0  0  0  0
   24.2658  -20.5387   -9.2313 C   0  0  2  0  0  0  0  0  0  0  0  0
   25.6257  -21.0268   -9.0125 N   0  0  0  0  0  0  0  0  0  0  0  0
   23.4721  -21.0218   -8.0804 C   0  0  0  0  0  0  0  0  0  0  0  0
   22.2310  -20.4711   -7.8110 O   0  0  0  0  0  0  0  0  0  0  0  0
   23.9478  -21.9391   -7.3498 O   0  0  0  0  0  0  0  0  0  0  0  0
  2  1  1  6
  2  3  1  0
  4  2  1  0
  4  5  2  0
  6  4  1  0
  7  6  1  0
  7  8  1  1
  8  9  1  0
  9 10  2  0
  9 14  1  0
 10 11  1  0
 11 12  2  0
 13 12  1  0
 14 13  2  0
 15  7  1  0
 16 15  2  0
 18 17  1  0
 19 18  1  0
 19 20  1  6
 21 19  1  0
 21 22  1  1
 22 15  1  0
 23 24  1  0
 23 21  1  0
 25 23  2  0
M  END
$$$$
