AFI.pdb
     RDKit          3D

 25 25  0  0  1  0  0  0  0  0999 V2000
   18.4588  -13.6272  -21.1661 C   0  0  0  0  0  0  0  0  0  0  0  0
   18.8883  -12.1805  -21.0375 C   0  0  2  0  0  0  0  0  0  0  0  0
   20.2975  -12.1581  -20.7942 N   0  0  0  0  0  0  0  0  0  0  0  0
   18.1161  -11.5265  -19.9365 C   0  0  0  0  0  0  0  0  0  0  0  0
   16.8633  -11.4831  -20.0437 O   0  0  0  0  0  0  0  0  0  0  0  0
   18.7023  -10.9605  -18.7957 N   0  0  0  0  0  0  0  0  0  0  0  0
   17.9747  -10.3800  -17.6901 C   0  0  1  0  0  0  0  0  0  0  0  0
   18.5245  -11.0046  -16.4246 C   0  0  0  0  0  0  0  0  0  0  0  0
   18.1353  -12.4043  -16.2601 C   0  0  0  0  0  0  0  0  0  0  0  0
   16.8599  -12.7023  -15.8292 C   0  0  0  0  0  0  0  0  0  0  0  0
   16.4261  -14.0042  -15.6524 C   0  0  0  0  0  0  0  0  0  0  0  0
   17.2831  -15.0396  -15.9107 C   0  0  0  0  0  0  0  0  0  0  0  0
   18.5597  -14.7637  -16.3414 C   0  0  0  0  0  0  0  0  0  0  0  0
   18.9792  -13.4597  -16.5136 C   0  0  0  0  0  0  0  0  0  0  0  0
   18.2849   -8.9330  -17.6263 C   0  0  0  0  0  0  0  0  0  0  0  0
   19.4839   -8.5786  -17.8270 O   0  0  0  0  0  0  0  0  0  0  0  0
   14.6444   -5.1314  -19.0953 C   0  0  0  0  0  0  0  0  0  0  0  0
   15.9746   -5.8698  -18.9428 C   0  0  0  0  0  0  0  0  0  0  0  0
   16.5654   -5.6475  -17.5798 C   0  0  2  0  0  0  0  0  0  0  0  0
   16.8375   -4.1795  -17.4111 C   0  0  0  0  0  0  0  0  0  0  0  0
   17.7180   -6.5553  -17.3498 C   0  0  2  0  0  0  0  0  0  0  0  0
   17.2928   -7.9533  -17.3514 N   0  0  0  0  0  0  0  0  0  0  0  0
   18.3150   -6.3152  -16.0178 C   0  0  0  0  0  0  0  0  0  0  0  0
   17.9195   -7.0756  -14.9308 O   0  0  0  0  0  0  0  0  0  0  0  0
   19.1854   -5.4053  -15.8914 O   0  0  0  0  0  0  0  0  0  0  0  0
  2  1  1  1
  2  3  1  0
  4  2  1  0
  4  5  2  0
  6  4  1  0
  7  6  1  0
  7  8  1  1
  8  9  1  0
  9 10  2  0
  9 14  1  0
 10 11  1  0
 11 12  2  0
 13 12  1  0
 14 13  2  0
 15  7  1  0
 16 15  2  0
 18 17  1  0
 19 18  1  0
 19 20  1  6
 21 19  1  0
 21 22  1  1
 22 15  1  0
 23 24  1  0
 23 21  1  0
 25 23  2  0
M  END
$$$$
