AFI.pdb
     RDKit          3D

 25 25  0  0  1  0  0  0  0  0999 V2000
   13.1165  -21.0616    3.8402 C   0  0  0  0  0  0  0  0  0  0  0  0
   13.6614  -20.3319    2.6301 C   0  0  2  0  0  0  0  0  0  0  0  0
   14.0135  -21.3088    1.6466 N   0  0  0  0  0  0  0  0  0  0  0  0
   14.8320  -19.4949    3.0370 C   0  0  0  0  0  0  0  0  0  0  0  0
   15.9378  -20.0721    3.1999 O   0  0  0  0  0  0  0  0  0  0  0  0
   14.7712  -18.1101    3.2472 N   0  0  0  0  0  0  0  0  0  0  0  0
   15.8709  -17.2914    3.7045 C   0  0  1  0  0  0  0  0  0  0  0  0
   15.5380  -15.8607    3.3350 C   0  0  0  0  0  0  0  0  0  0  0  0
   16.6255  -14.9266    3.6219 C   0  0  0  0  0  0  0  0  0  0  0  0
   17.8076  -15.4089    4.1425 C   0  0  0  0  0  0  0  0  0  0  0  0
   18.8764  -14.5810    4.4372 C   0  0  0  0  0  0  0  0  0  0  0  0
   18.7682  -13.2360    4.2083 C   0  0  0  0  0  0  0  0  0  0  0  0
   17.5974  -12.7346    3.6893 C   0  0  0  0  0  0  0  0  0  0  0  0
   16.5389  -13.5724    3.4001 C   0  0  0  0  0  0  0  0  0  0  0  0
   15.9245  -17.3529    5.1836 C   0  0  0  0  0  0  0  0  0  0  0  0
   14.8478  -17.6023    5.8017 O   0  0  0  0  0  0  0  0  0  0  0  0
   16.1210  -20.5079    9.2342 C   0  0  0  0  0  0  0  0  0  0  0  0
   16.0842  -19.0372    8.8173 C   0  0  0  0  0  0  0  0  0  0  0  0
   17.0762  -18.7583    7.7244 C   0  0  2  0  0  0  0  0  0  0  0  0
   18.4054  -19.3306    8.1286 C   0  0  0  0  0  0  0  0  0  0  0  0
   17.0694  -17.3185    7.3605 C   0  0  2  0  0  0  0  0  0  0  0  0
   17.1273  -17.1438    5.9109 N   0  0  0  0  0  0  0  0  0  0  0  0
   18.2673  -16.6375    7.8986 C   0  0  0  0  0  0  0  0  0  0  0  0
   18.2269  -16.0420    9.1475 O   0  0  0  0  0  0  0  0  0  0  0  0
   19.3211  -16.6068    7.1985 O   0  0  0  0  0  0  0  0  0  0  0  0
  2  1  1  1
  2  3  1  0
  4  2  1  0
  4  5  2  0
  6  4  1  0
  7  6  1  0
  7  8  1  1
  8  9  1  0
  9 10  2  0
  9 14  1  0
 10 11  1  0
 11 12  2  0
 13 12  1  0
 14 13  2  0
 15  7  1  0
 16 15  2  0
 18 17  1  0
 19 18  1  0
 19 20  1  1
 21 19  1  0
 21 22  1  6
 22 15  1  0
 23 24  1  0
 23 21  1  0
 25 23  2  0
M  END
$$$$
