AFI.pdb
     RDKit          3D

 25 25  0  0  1  0  0  0  0  0999 V2000
   19.0938   -7.5444  -17.1879 C   0  0  0  0  0  0  0  0  0  0  0  0
   20.2009   -6.7262  -16.5566 C   0  0  2  0  0  0  0  0  0  0  0  0
   19.9700   -5.3509  -16.8740 N   0  0  0  0  0  0  0  0  0  0  0  0
   21.5251   -7.2058  -17.0596 C   0  0  0  0  0  0  0  0  0  0  0  0
   21.8411   -6.9216  -18.2436 O   0  0  0  0  0  0  0  0  0  0  0  0
   22.4325   -7.9507  -16.2933 N   0  0  0  0  0  0  0  0  0  0  0  0
   23.7267   -8.4045  -16.7492 C   0  0  1  0  0  0  0  0  0  0  0  0
   24.5726   -8.6351  -15.5141 C   0  0  0  0  0  0  0  0  0  0  0  0
   25.8552   -9.2723  -15.8084 C   0  0  0  0  0  0  0  0  0  0  0  0
   26.7430   -8.6402  -16.6530 C   0  0  0  0  0  0  0  0  0  0  0  0
   27.9730   -9.1866  -16.9738 C   0  0  0  0  0  0  0  0  0  0  0  0
   28.3316  -10.3951  -16.4407 C   0  0  0  0  0  0  0  0  0  0  0  0
   27.4603  -11.0421  -15.5959 C   0  0  0  0  0  0  0  0  0  0  0  0
   26.2361  -10.4850  -15.2845 C   0  0  0  0  0  0  0  0  0  0  0  0
   23.5620   -9.7198  -17.4102 C   0  0  0  0  0  0  0  0  0  0  0  0
   22.7916  -10.5619  -16.8617 O   0  0  0  0  0  0  0  0  0  0  0  0
   22.1522  -12.7339  -22.1943 C   0  0  0  0  0  0  0  0  0  0  0  0
   23.0902  -12.7377  -20.9868 C   0  0  0  0  0  0  0  0  0  0  0  0
   23.2084  -11.3655  -20.3874 C   0  0  2  0  0  0  0  0  0  0  0  0
   23.6727  -10.4163  -21.4557 C   0  0  0  0  0  0  0  0  0  0  0  0
   24.0236  -11.4002  -19.1465 C   0  0  2  0  0  0  0  0  0  0  0  0
   24.2319  -10.0538  -18.6182 N   0  0  0  0  0  0  0  0  0  0  0  0
   25.3728  -11.9403  -19.4221 C   0  0  0  0  0  0  0  0  0  0  0  0
   26.4850  -11.1235  -19.3119 O   0  0  0  0  0  0  0  0  0  0  0  0
   25.4895  -13.1537  -19.7617 O   0  0  0  0  0  0  0  0  0  0  0  0
  2  1  1  6
  2  3  1  0
  4  2  1  0
  4  5  2  0
  6  4  1  0
  7  6  1  0
  7  8  1  1
  8  9  1  0
  9 10  2  0
  9 14  1  0
 10 11  1  0
 11 12  2  0
 13 12  1  0
 14 13  2  0
 15  7  1  0
 16 15  2  0
 18 17  1  0
 19 18  1  0
 19 20  1  6
 21 19  1  0
 21 22  1  6
 22 15  1  0
 23 24  1  0
 23 21  1  0
 25 23  2  0
M  END
$$$$
