KLA.pdb
     RDKit          3D

 23 22  0  0  1  0  0  0  0  0999 V2000
   18.6416  -12.3333  -17.3155 N   0  0  0  0  0  0  0  0  0  0  0  0
   19.2098  -11.0883  -17.7252 C   0  0  1  0  0  0  0  0  0  0  0  0
   18.2074  -10.3560  -18.5874 C   0  0  0  0  0  0  0  0  0  0  0  0
   17.8543  -11.2564  -19.7385 C   0  0  0  0  0  0  0  0  0  0  0  0
   16.8386  -10.6500  -20.6771 C   0  0  0  0  0  0  0  0  0  0  0  0
   16.4661  -11.5768  -21.8011 C   0  0  0  0  0  0  0  0  0  0  0  0
   15.5394  -10.8607  -22.6662 N   0  0  0  0  0  0  0  0  0  0  0  0
   19.6547  -10.2966  -16.5655 C   0  0  0  0  0  0  0  0  0  0  0  0
   18.9593  -10.2300  -15.4917 O   0  0  0  0  0  0  0  0  0  0  0  0
   22.2718  -10.6079  -13.3746 C   0  0  0  0  0  0  0  0  0  0  0  0
   23.0510  -10.4665  -14.6906 C   0  0  2  0  0  0  0  0  0  0  0  0
   24.4589  -10.8436  -14.4027 C   0  0  0  0  0  0  0  0  0  0  0  0
   22.8083   -9.1056  -15.1966 C   0  0  0  0  0  0  0  0  0  0  0  0
   21.4115   -8.7796  -15.6141 C   0  0  2  0  0  0  0  0  0  0  0  0
   20.8881   -9.5953  -16.6559 N   0  0  0  0  0  0  0  0  0  0  0  0
   21.2601   -7.3157  -15.8801 C   0  0  0  0  0  0  0  0  0  0  0  0
   21.8180   -6.8490  -16.9073 O   0  0  0  0  0  0  0  0  0  0  0  0
   19.1386   -4.4816  -14.7421 C   0  0  0  0  0  0  0  0  0  0  0  0
   20.4307   -5.0041  -15.3015 C   0  0  2  0  0  0  0  0  0  0  0  0
   20.5422   -6.4343  -15.0656 N   0  0  0  0  0  0  0  0  0  0  0  0
   21.5447   -4.2592  -14.6585 C   0  0  0  0  0  0  0  0  0  0  0  0
   22.2740   -4.8826  -13.8494 O   0  0  0  0  0  0  0  0  0  0  0  0
   21.7532   -2.9231  -14.9561 O   0  0  0  0  0  0  0  0  0  0  0  0
  2  8  1  0
  2  1  1  1
  3  2  1  0
  4  3  1  0
  5  4  1  0
  6  5  1  0
  6  7  1  0
  8  9  2  0
 11 10  1  1
 11 12  1  0
 14 13  1  6
 13 11  1  0
 15 14  1  0
 15  8  1  0
 16 17  2  0
 16 14  1  0
 19 18  1  1
 19 21  1  0
 19 20  1  0
 20 16  1  0
 21 23  1  0
 22 21  2  0
M  END
$$$$
