KLA.pdb
     RDKit          3D

 23 22  0  0  1  0  0  0  0  0999 V2000
   26.1066  -21.4749  -14.9004 N   0  0  0  0  0  0  0  0  0  0  0  0
   25.4619  -20.5451  -14.0282 C   0  0  1  0  0  0  0  0  0  0  0  0
   24.1271  -20.1627  -14.6251 C   0  0  0  0  0  0  0  0  0  0  0  0
   24.3429  -19.8983  -16.0893 C   0  0  0  0  0  0  0  0  0  0  0  0
   24.5916  -18.4415  -16.3996 C   0  0  0  0  0  0  0  0  0  0  0  0
   24.6940  -18.1754  -17.8760 C   0  0  0  0  0  0  0  0  0  0  0  0
   25.0786  -16.7807  -18.0408 N   0  0  0  0  0  0  0  0  0  0  0  0
   25.3453  -21.0856  -12.6629 C   0  0  0  0  0  0  0  0  0  0  0  0
   24.7911  -22.2178  -12.4343 O   0  0  0  0  0  0  0  0  0  0  0  0
   26.9769  -19.0221   -7.0282 C   0  0  0  0  0  0  0  0  0  0  0  0
   26.2260  -20.1085   -7.8124 C   0  0  2  0  0  0  0  0  0  0  0  0
   26.6640  -21.4184   -7.2651 C   0  0  0  0  0  0  0  0  0  0  0  0
   26.4702  -19.8605   -9.2428 C   0  0  0  0  0  0  0  0  0  0  0  0
   25.6306  -20.6249  -10.2136 C   0  0  2  0  0  0  0  0  0  0  0  0
   25.8653  -20.3202  -11.5835 N   0  0  0  0  0  0  0  0  0  0  0  0
   24.1849  -20.5628   -9.8359 C   0  0  0  0  0  0  0  0  0  0  0  0
   23.6029  -19.4515   -9.9378 O   0  0  0  0  0  0  0  0  0  0  0  0
   21.2085  -22.4403   -9.9184 C   0  0  0  0  0  0  0  0  0  0  0  0
   22.0378  -21.5904   -8.9990 C   0  0  2  0  0  0  0  0  0  0  0  0
   23.4398  -21.6542   -9.3785 N   0  0  0  0  0  0  0  0  0  0  0  0
   21.8286  -22.0763   -7.6100 C   0  0  0  0  0  0  0  0  0  0  0  0
   20.6780  -21.9688   -7.1206 O   0  0  0  0  0  0  0  0  0  0  0  0
   22.8814  -22.6256   -6.8976 O   0  0  0  0  0  0  0  0  0  0  0  0
  2  8  1  0
  2  1  1  6
  3  2  1  0
  4  3  1  0
  5  4  1  0
  6  5  1  0
  6  7  1  0
  8  9  2  0
 11 10  1  1
 11 12  1  0
 14 13  1  1
 13 11  1  0
 15 14  1  0
 15  8  1  0
 16 17  2  0
 16 14  1  0
 19 18  1  6
 19 21  1  0
 19 20  1  0
 20 16  1  0
 21 23  1  0
 22 21  2  0
M  END
$$$$
