KLA.pdb
     RDKit          3D

 23 22  0  0  1  0  0  0  0  0999 V2000
   23.1240  -15.4721  -18.7004 N   0  0  0  0  0  0  0  0  0  0  0  0
   22.1643  -14.5259  -18.2268 C   0  0  1  0  0  0  0  0  0  0  0  0
   20.9261  -15.2696  -17.7816 C   0  0  0  0  0  0  0  0  0  0  0  0
   20.6488  -16.3409  -18.7994 C   0  0  0  0  0  0  0  0  0  0  0  0
   19.3047  -17.0035  -18.6132 C   0  0  0  0  0  0  0  0  0  0  0  0
   19.0172  -18.0327  -19.6711 C   0  0  0  0  0  0  0  0  0  0  0  0
   17.7287  -18.6326  -19.3555 N   0  0  0  0  0  0  0  0  0  0  0  0
   22.7320  -13.6730  -17.1685 C   0  0  0  0  0  0  0  0  0  0  0  0
   23.6570  -14.0959  -16.3897 O   0  0  0  0  0  0  0  0  0  0  0  0
   26.3751   -9.9696  -16.0741 C   0  0  0  0  0  0  0  0  0  0  0  0
   24.9384  -10.1329  -15.5560 C   0  0  2  0  0  0  0  0  0  0  0  0
   25.0322  -10.4070  -14.0988 C   0  0  0  0  0  0  0  0  0  0  0  0
   24.2869  -11.1538  -16.3928 C   0  0  0  0  0  0  0  0  0  0  0  0
   22.8244  -11.3699  -16.1784 C   0  0  2  0  0  0  0  0  0  0  0  0
   22.2305  -12.3508  -17.0208 N   0  0  0  0  0  0  0  0  0  0  0  0
   22.0856  -10.0697  -16.1770 C   0  0  0  0  0  0  0  0  0  0  0  0
   22.1713   -9.3493  -17.2056 O   0  0  0  0  0  0  0  0  0  0  0  0
   19.5916   -8.3239  -13.9702 C   0  0  0  0  0  0  0  0  0  0  0  0
   20.5367   -8.3713  -15.1364 C   0  0  2  0  0  0  0  0  0  0  0  0
   21.3086   -9.6030  -15.1120 N   0  0  0  0  0  0  0  0  0  0  0  0
   21.4180   -7.1767  -15.0629 C   0  0  0  0  0  0  0  0  0  0  0  0
   22.6068   -7.3493  -14.6995 O   0  0  0  0  0  0  0  0  0  0  0  0
   20.9240   -5.9248  -15.3886 O   0  0  0  0  0  0  0  0  0  0  0  0
  2  8  1  0
  2  1  1  1
  3  2  1  0
  4  3  1  0
  5  4  1  0
  6  5  1  0
  6  7  1  0
  8  9  2  0
 11 10  1  6
 11 12  1  0
 14 13  1  6
 13 11  1  0
 15 14  1  0
 15  8  1  0
 16 17  2  0
 16 14  1  0
 19 18  1  1
 19 21  1  0
 19 20  1  0
 20 16  1  0
 21 23  1  0
 22 21  2  0
M  END
$$$$
