KLA.pdb
     RDKit          3D

 23 22  0  0  1  0  0  0  0  0999 V2000
   19.5078  -10.7869  -17.4723 N   0  0  0  0  0  0  0  0  0  0  0  0
   18.5197   -9.8045  -17.1574 C   0  0  1  0  0  0  0  0  0  0  0  0
   17.2477  -10.5085  -16.7442 C   0  0  0  0  0  0  0  0  0  0  0  0
   16.8308  -11.3987  -17.8818 C   0  0  0  0  0  0  0  0  0  0  0  0
   15.4629  -12.0085  -17.6883 C   0  0  0  0  0  0  0  0  0  0  0  0
   15.0993  -12.9700  -18.7858 C   0  0  0  0  0  0  0  0  0  0  0  0
   15.9754  -14.1260  -18.6591 N   0  0  0  0  0  0  0  0  0  0  0  0
   19.0098   -8.8613  -16.1376 C   0  0  0  0  0  0  0  0  0  0  0  0
   18.2357   -7.9958  -15.5967 O   0  0  0  0  0  0  0  0  0  0  0  0
   20.9120   -9.8555  -12.2059 C   0  0  0  0  0  0  0  0  0  0  0  0
   21.8839  -10.0839  -13.3731 C   0  0  2  0  0  0  0  0  0  0  0  0
   23.0711  -10.7831  -12.8173 C   0  0  0  0  0  0  0  0  0  0  0  0
   22.1100   -8.7780  -14.0137 C   0  0  0  0  0  0  0  0  0  0  0  0
   20.9413   -8.1524  -14.7025 C   0  0  2  0  0  0  0  0  0  0  0  0
   20.3777   -8.9259  -15.7554 N   0  0  0  0  0  0  0  0  0  0  0  0
   21.2475   -6.7450  -15.1048 C   0  0  0  0  0  0  0  0  0  0  0  0
   22.0849   -6.5716  -16.0284 O   0  0  0  0  0  0  0  0  0  0  0  0
   19.7552   -3.3794  -14.7870 C   0  0  0  0  0  0  0  0  0  0  0  0
   20.9773   -4.2443  -14.9045 C   0  0  2  0  0  0  0  0  0  0  0  0
   20.6669   -5.6128  -14.5245 N   0  0  0  0  0  0  0  0  0  0  0  0
   22.0352   -3.6659  -14.0351 C   0  0  0  0  0  0  0  0  0  0  0  0
   22.3067   -4.2666  -12.9672 O   0  0  0  0  0  0  0  0  0  0  0  0
   22.6867   -2.5029  -14.4097 O   0  0  0  0  0  0  0  0  0  0  0  0
  2  8  1  0
  2  1  1  1
  3  2  1  0
  4  3  1  0
  5  4  1  0
  6  5  1  0
  6  7  1  0
  8  9  2  0
 11 10  1  1
 11 12  1  0
 14 13  1  6
 13 11  1  0
 15 14  1  0
 15  8  1  0
 16 17  2  0
 16 14  1  0
 19 18  1  1
 19 21  1  0
 19 20  1  0
 20 16  1  0
 21 23  1  0
 22 21  2  0
M  END
$$$$
