KLA.pdb
     RDKit          3D

 23 22  0  0  1  0  0  0  0  0999 V2000
   16.7517   -9.7122  -16.4647 N   0  0  0  0  0  0  0  0  0  0  0  0
   17.7283   -9.4810  -17.4814 C   0  0  1  0  0  0  0  0  0  0  0  0
   17.0741   -9.6534  -18.8329 C   0  0  0  0  0  0  0  0  0  0  0  0
   16.4283  -11.0109  -18.8555 C   0  0  0  0  0  0  0  0  0  0  0  0
   15.6952  -11.2986  -20.1440 C   0  0  0  0  0  0  0  0  0  0  0  0
   15.1065  -12.6819  -20.1764 C   0  0  0  0  0  0  0  0  0  0  0  0
   14.3160  -12.7896  -21.3944 N   0  0  0  0  0  0  0  0  0  0  0  0
   18.3682   -8.1643  -17.3182 C   0  0  0  0  0  0  0  0  0  0  0  0
   19.2661   -7.7491  -18.1321 O   0  0  0  0  0  0  0  0  0  0  0  0
   17.2290   -3.8561  -17.6931 C   0  0  0  0  0  0  0  0  0  0  0  0
   16.4712   -4.6304  -16.6045 C   0  0  2  0  0  0  0  0  0  0  0  0
   15.3459   -3.7668  -16.1627 C   0  0  0  0  0  0  0  0  0  0  0  0
   17.4568   -5.0262  -15.5853 C   0  0  0  0  0  0  0  0  0  0  0  0
   18.4776   -6.0389  -15.9904 C   0  0  2  0  0  0  0  0  0  0  0  0
   17.9686   -7.3465  -16.2261 N   0  0  0  0  0  0  0  0  0  0  0  0
   19.6478   -6.0215  -15.0593 C   0  0  0  0  0  0  0  0  0  0  0  0
   19.4871   -6.5129  -13.9117 O   0  0  0  0  0  0  0  0  0  0  0  0
   23.3200   -5.3013  -15.2609 C   0  0  0  0  0  0  0  0  0  0  0  0
   22.0513   -5.5116  -14.4853 C   0  0  2  0  0  0  0  0  0  0  0  0
   20.9043   -5.4971  -15.3785 N   0  0  0  0  0  0  0  0  0  0  0  0
   21.9554   -4.4389  -13.4609 C   0  0  0  0  0  0  0  0  0  0  0  0
   21.1607   -3.4923  -13.6790 O   0  0  0  0  0  0  0  0  0  0  0  0
   22.7258   -4.5012  -12.3120 O   0  0  0  0  0  0  0  0  0  0  0  0
  2  8  1  0
  2  1  1  1
  3  2  1  0
  4  3  1  0
  5  4  1  0
  6  5  1  0
  6  7  1  0
  8  9  2  0
 11 10  1  6
 11 12  1  0
 14 13  1  1
 13 11  1  0
 15 14  1  0
 15  8  1  0
 16 17  2  0
 16 14  1  0
 19 18  1  6
 19 21  1  0
 19 20  1  0
 20 16  1  0
 21 23  1  0
 22 21  2  0
M  END
$$$$
