KLA.pdb
     RDKit          3D

 23 22  0  0  1  0  0  0  0  0999 V2000
   19.1695  -12.2590  -19.0993 N   0  0  0  0  0  0  0  0  0  0  0  0
   19.4482  -12.7752  -17.7967 C   0  0  1  0  0  0  0  0  0  0  0  0
   20.3310  -13.9941  -17.9348 C   0  0  0  0  0  0  0  0  0  0  0  0
   19.5484  -15.0403  -18.6786 C   0  0  0  0  0  0  0  0  0  0  0  0
   18.8105  -15.9908  -17.7662 C   0  0  0  0  0  0  0  0  0  0  0  0
   18.1113  -17.0882  -18.5199 C   0  0  0  0  0  0  0  0  0  0  0  0
   17.3812  -17.8875  -17.5462 N   0  0  0  0  0  0  0  0  0  0  0  0
   20.0318  -11.7406  -16.9256 C   0  0  0  0  0  0  0  0  0  0  0  0
   20.3538  -11.9896  -15.7109 O   0  0  0  0  0  0  0  0  0  0  0  0
   23.7953   -9.2587  -17.0569 C   0  0  0  0  0  0  0  0  0  0  0  0
   22.8094   -8.8900  -18.1754 C   0  0  2  0  0  0  0  0  0  0  0  0
   23.5238   -7.9681  -19.0957 C   0  0  0  0  0  0  0  0  0  0  0  0
   21.5873   -8.3837  -17.5295 C   0  0  0  0  0  0  0  0  0  0  0  0
   20.7963   -9.3602  -16.7218 C   0  0  2  0  0  0  0  0  0  0  0  0
   20.2362  -10.4394  -17.4607 N   0  0  0  0  0  0  0  0  0  0  0  0
   19.7979   -8.6566  -15.8589 C   0  0  0  0  0  0  0  0  0  0  0  0
   18.7791   -8.1751  -16.4198 O   0  0  0  0  0  0  0  0  0  0  0  0
   19.0070   -8.3611  -12.2313 C   0  0  0  0  0  0  0  0  0  0  0  0
   18.9422   -7.8290  -13.6342 C   0  0  2  0  0  0  0  0  0  0  0  0
   19.9210   -8.4988  -14.4748 N   0  0  0  0  0  0  0  0  0  0  0  0
   19.1837   -6.3633  -13.5817 C   0  0  0  0  0  0  0  0  0  0  0  0
   20.2291   -5.9240  -14.1194 O   0  0  0  0  0  0  0  0  0  0  0  0
   18.2733   -5.5288  -12.9555 O   0  0  0  0  0  0  0  0  0  0  0  0
  2  8  1  0
  2  1  1  6
  3  2  1  0
  4  3  1  0
  5  4  1  0
  6  5  1  0
  6  7  1  0
  8  9  2  0
 11 10  1  1
 11 12  1  0
 14 13  1  6
 13 11  1  0
 15 14  1  0
 15  8  1  0
 16 17  2  0
 16 14  1  0
 19 18  1  1
 19 21  1  0
 19 20  1  0
 20 16  1  0
 21 23  1  0
 22 21  2  0
M  END
$$$$
