KLA.pdb
     RDKit          3D

 23 22  0  0  1  0  0  0  0  0999 V2000
   20.2643  -10.9065  -18.6679 N   0  0  0  0  0  0  0  0  0  0  0  0
   18.9574  -10.6259  -18.1638 C   0  0  1  0  0  0  0  0  0  0  0  0
   18.2916  -11.9289  -17.7853 C   0  0  0  0  0  0  0  0  0  0  0  0
   17.9932  -12.6731  -19.0571 C   0  0  0  0  0  0  0  0  0  0  0  0
   17.3383  -14.0133  -18.8215 C   0  0  0  0  0  0  0  0  0  0  0  0
   17.0684  -14.7564  -20.1005 C   0  0  0  0  0  0  0  0  0  0  0  0
   16.5958  -16.0855  -19.7398 N   0  0  0  0  0  0  0  0  0  0  0  0
   19.0097   -9.6642  -17.0493 C   0  0  0  0  0  0  0  0  0  0  0  0
   17.9581   -9.3382  -16.3943 O   0  0  0  0  0  0  0  0  0  0  0  0
   20.9707   -9.5084  -12.9532 C   0  0  0  0  0  0  0  0  0  0  0  0
   21.9118   -9.5197  -14.1669 C   0  0  2  0  0  0  0  0  0  0  0  0
   23.2789   -9.7906  -13.6523 C   0  0  0  0  0  0  0  0  0  0  0  0
   21.7032   -8.2554  -14.8916 C   0  0  0  0  0  0  0  0  0  0  0  0
   20.4373   -8.1267  -15.6742 C   0  0  2  0  0  0  0  0  0  0  0  0
   20.2651   -9.0928  -16.7046 N   0  0  0  0  0  0  0  0  0  0  0  0
   20.2401   -6.7213  -16.1460 C   0  0  0  0  0  0  0  0  0  0  0  0
   21.1126   -6.2357  -16.9123 O   0  0  0  0  0  0  0  0  0  0  0  0
   17.4961   -4.1676  -16.0915 C   0  0  0  0  0  0  0  0  0  0  0  0
   18.9257   -4.5736  -16.3077 C   0  0  2  0  0  0  0  0  0  0  0  0
   19.1542   -5.9139  -15.7930 N   0  0  0  0  0  0  0  0  0  0  0  0
   19.7945   -3.5762  -15.6297 C   0  0  0  0  0  0  0  0  0  0  0  0
   20.4667   -3.9621  -14.6426 O   0  0  0  0  0  0  0  0  0  0  0  0
   19.8457   -2.2705  -16.0879 O   0  0  0  0  0  0  0  0  0  0  0  0
  2  8  1  0
  2  1  1  1
  3  2  1  0
  4  3  1  0
  5  4  1  0
  6  5  1  0
  6  7  1  0
  8  9  2  0
 11 10  1  1
 11 12  1  0
 14 13  1  6
 13 11  1  0
 15 14  1  0
 15  8  1  0
 16 17  2  0
 16 14  1  0
 19 18  1  1
 19 21  1  0
 19 20  1  0
 20 16  1  0
 21 23  1  0
 22 21  2  0
M  END
$$$$
