KLA.pdb
     RDKit          3D

 23 22  0  0  1  0  0  0  0  0999 V2000
   28.3183  -32.9172  -14.7273 N   0  0  0  0  0  0  0  0  0  0  0  0
   27.7164  -32.6862  -16.0021 C   0  0  1  0  0  0  0  0  0  0  0  0
   26.8138  -33.8524  -16.3328 C   0  0  0  0  0  0  0  0  0  0  0  0
   27.6476  -34.8879  -17.0349 C   0  0  0  0  0  0  0  0  0  0  0  0
   26.8412  -36.0657  -17.5277 C   0  0  0  0  0  0  0  0  0  0  0  0
   26.0880  -35.7604  -18.7928 C   0  0  0  0  0  0  0  0  0  0  0  0
   25.3920  -36.9765  -19.1887 N   0  0  0  0  0  0  0  0  0  0  0  0
   27.0150  -31.3913  -16.0350 C   0  0  0  0  0  0  0  0  0  0  0  0
   26.4875  -30.8868  -14.9823 O   0  0  0  0  0  0  0  0  0  0  0  0
   27.5634  -27.1364  -15.7989 C   0  0  0  0  0  0  0  0  0  0  0  0
   28.3100  -27.8771  -16.9183 C   0  0  2  0  0  0  0  0  0  0  0  0
   29.3584  -26.9539  -17.4240 C   0  0  0  0  0  0  0  0  0  0  0  0
   27.2994  -28.3416  -17.8826 C   0  0  0  0  0  0  0  0  0  0  0  0
   26.3572  -29.4024  -17.4150 C   0  0  2  0  0  0  0  0  0  0  0  0
   26.9301  -30.6971  -17.2728 N   0  0  0  0  0  0  0  0  0  0  0  0
   25.1022  -29.4000  -18.2283 C   0  0  0  0  0  0  0  0  0  0  0  0
   25.1035  -30.0528  -19.3045 O   0  0  0  0  0  0  0  0  0  0  0  0
   21.5922  -28.0777  -17.8937 C   0  0  0  0  0  0  0  0  0  0  0  0
   22.7079  -28.7301  -18.6585 C   0  0  2  0  0  0  0  0  0  0  0  0
   23.9313  -28.7227  -17.8732 N   0  0  0  0  0  0  0  0  0  0  0  0
   22.8798  -27.9942  -19.9385 C   0  0  0  0  0  0  0  0  0  0  0  0
   23.8359  -27.1857  -20.0236 O   0  0  0  0  0  0  0  0  0  0  0  0
   22.0033  -28.2084  -20.9888 O   0  0  0  0  0  0  0  0  0  0  0  0
  2  8  1  0
  2  1  1  1
  3  2  1  0
  4  3  1  0
  5  4  1  0
  6  5  1  0
  6  7  1  0
  8  9  2  0
 11 10  1  1
 11 12  1  0
 14 13  1  6
 13 11  1  0
 15 14  1  0
 15  8  1  0
 16 17  2  0
 16 14  1  0
 19 18  1  1
 19 21  1  0
 19 20  1  0
 20 16  1  0
 21 23  1  0
 22 21  2  0
M  END
$$$$
