KLA.pdb
     RDKit          3D

 23 22  0  0  1  0  0  0  0  0999 V2000
   27.4578  -21.3995  -15.6755 N   0  0  0  0  0  0  0  0  0  0  0  0
   26.6635  -20.4160  -15.0102 C   0  0  1  0  0  0  0  0  0  0  0  0
   26.0004  -19.5416  -16.0494 C   0  0  0  0  0  0  0  0  0  0  0  0
   27.0262  -18.5561  -16.5360 C   0  0  0  0  0  0  0  0  0  0  0  0
   28.1897  -19.2099  -17.2425 C   0  0  0  0  0  0  0  0  0  0  0  0
   29.1807  -18.2093  -17.7697 C   0  0  0  0  0  0  0  0  0  0  0  0
   30.3285  -18.9544  -18.2670 N   0  0  0  0  0  0  0  0  0  0  0  0
   25.6999  -21.0417  -14.0883 C   0  0  0  0  0  0  0  0  0  0  0  0
   25.1239  -22.1505  -14.3706 O   0  0  0  0  0  0  0  0  0  0  0  0
   26.2226  -22.0399   -9.8463 C   0  0  0  0  0  0  0  0  0  0  0  0
   25.9575  -20.5296   -9.9333 C   0  0  2  0  0  0  0  0  0  0  0  0
   26.1724  -19.9731   -8.5726 C   0  0  0  0  0  0  0  0  0  0  0  0
   24.6227  -20.3552  -10.5292 C   0  0  0  0  0  0  0  0  0  0  0  0
   24.4389  -20.8441  -11.9288 C   0  0  2  0  0  0  0  0  0  0  0  0
   25.4130  -20.3865  -12.8596 N   0  0  0  0  0  0  0  0  0  0  0  0
   23.0338  -20.6258  -12.3919 C   0  0  0  0  0  0  0  0  0  0  0  0
   22.5979  -19.4450  -12.3956 O   0  0  0  0  0  0  0  0  0  0  0  0
   20.4587  -22.5043  -14.3030 C   0  0  0  0  0  0  0  0  0  0  0  0
   20.8311  -21.4243  -13.3281 C   0  0  2  0  0  0  0  0  0  0  0  0
   22.1753  -21.6434  -12.8196 N   0  0  0  0  0  0  0  0  0  0  0  0
   19.8280  -21.4293  -12.2312 C   0  0  0  0  0  0  0  0  0  0  0  0
   18.6519  -21.0944  -12.5136 O   0  0  0  0  0  0  0  0  0  0  0  0
   20.1998  -21.7944  -10.9483 O   0  0  0  0  0  0  0  0  0  0  0  0
  2  8  1  0
  2  1  1  6
  3  2  1  0
  4  3  1  0
  5  4  1  0
  6  5  1  0
  6  7  1  0
  8  9  2  0
 11 10  1  1
 11 12  1  0
 14 13  1  1
 13 11  1  0
 15 14  1  0
 15  8  1  0
 16 17  2  0
 16 14  1  0
 19 18  1  6
 19 21  1  0
 19 20  1  0
 20 16  1  0
 21 23  1  0
 22 21  2  0
M  END
$$$$
