KLA.pdb
     RDKit          3D

 23 22  0  0  1  0  0  0  0  0999 V2000
   25.3417  -20.6233  -17.5843 N   0  0  0  0  0  0  0  0  0  0  0  0
   24.1533  -20.6091  -16.7918 C   0  0  1  0  0  0  0  0  0  0  0  0
   24.3889  -21.4321  -15.5463 C   0  0  0  0  0  0  0  0  0  0  0  0
   25.5690  -22.3260  -15.8085 C   0  0  0  0  0  0  0  0  0  0  0  0
   25.1918  -23.7813  -15.9508 C   0  0  0  0  0  0  0  0  0  0  0  0
   26.3844  -24.6659  -16.1881 C   0  0  0  0  0  0  0  0  0  0  0  0
   25.8902  -26.0240  -16.3649 N   0  0  0  0  0  0  0  0  0  0  0  0
   23.7249  -19.2313  -16.4957 C   0  0  0  0  0  0  0  0  0  0  0  0
   22.7609  -18.9870  -15.6882 O   0  0  0  0  0  0  0  0  0  0  0  0
   25.8967  -16.0359  -14.5486 C   0  0  0  0  0  0  0  0  0  0  0  0
   26.4048  -16.2294  -15.9851 C   0  0  2  0  0  0  0  0  0  0  0  0
   27.6612  -15.4462  -16.1091 C   0  0  0  0  0  0  0  0  0  0  0  0
   25.2986  -15.8759  -16.8897 C   0  0  0  0  0  0  0  0  0  0  0  0
   24.1135  -16.7853  -16.8947 C   0  0  2  0  0  0  0  0  0  0  0  0
   24.4079  -18.1574  -17.1296 N   0  0  0  0  0  0  0  0  0  0  0  0
   23.0348  -16.2541  -17.7840 C   0  0  0  0  0  0  0  0  0  0  0  0
   23.2346  -16.2863  -19.0263 O   0  0  0  0  0  0  0  0  0  0  0  0
   19.4520  -15.2259  -17.4579 C   0  0  0  0  0  0  0  0  0  0  0  0
   20.7611  -15.2398  -18.1938 C   0  0  2  0  0  0  0  0  0  0  0  0
   21.8230  -15.7257  -17.3279 N   0  0  0  0  0  0  0  0  0  0  0  0
   21.0366  -13.8583  -18.6681 C   0  0  0  0  0  0  0  0  0  0  0  0
   21.9485  -13.2147  -18.0943 O   0  0  0  0  0  0  0  0  0  0  0  0
   20.3002  -13.3188  -19.7093 O   0  0  0  0  0  0  0  0  0  0  0  0
  2  8  1  0
  2  1  1  1
  3  2  1  0
  4  3  1  0
  5  4  1  0
  6  5  1  0
  6  7  1  0
  8  9  2  0
 11 10  1  1
 11 12  1  0
 14 13  1  6
 13 11  1  0
 15 14  1  0
 15  8  1  0
 16 17  2  0
 16 14  1  0
 19 18  1  1
 19 21  1  0
 19 20  1  0
 20 16  1  0
 21 23  1  0
 22 21  2  0
M  END
$$$$
