FIM.pdb
     RDKit          3D

 28 28  0  0  1  0  0  0  0  0999 V2000
    5.3580  -18.1292   24.2953 N   0  0  0  0  0  0  0  0  0  0  0  0
    5.8225  -16.7700   24.3573 C   0  0  1  0  0  0  0  0  0  0  0  0
    6.1446  -16.4704   25.8214 C   0  0  0  0  0  0  0  0  0  0  0  0
    6.3103  -15.0172   26.0412 C   0  0  0  0  0  0  0  0  0  0  0  0
    5.2346  -14.1830   25.8366 C   0  0  0  0  0  0  0  0  0  0  0  0
    5.3241  -12.8169   26.0258 C   0  0  0  0  0  0  0  0  0  0  0  0
    6.5272  -12.2802   26.4307 C   0  0  0  0  0  0  0  0  0  0  0  0
    7.5936  -13.1243   26.6316 C   0  0  0  0  0  0  0  0  0  0  0  0
    7.5100  -14.4961   26.4435 C   0  0  0  0  0  0  0  0  0  0  0  0
    7.0920  -16.6329   23.5994 C   0  0  0  0  0  0  0  0  0  0  0  0
    7.8718  -17.6115   23.4428 O   0  0  0  0  0  0  0  0  0  0  0  0
    7.4112  -12.4568   19.9728 C   0  0  0  0  0  0  0  0  0  0  0  0
    7.4846  -13.8155   20.6124 C   0  0  0  0  0  0  0  0  0  0  0  0
    8.7322  -13.9720   21.4613 C   0  0  2  0  0  0  0  0  0  0  0  0
    9.9219  -14.0367   20.5267 C   0  0  0  0  0  0  0  0  0  0  0  0
    8.7156  -15.2872   22.2205 C   0  0  2  0  0  0  0  0  0  0  0  0
    7.5136  -15.4050   23.0044 N   0  0  0  0  0  0  0  0  0  0  0  0
    9.9398  -15.4978   23.0043 C   0  0  0  0  0  0  0  0  0  0  0  0
   11.0490  -15.1636   22.5115 O   0  0  0  0  0  0  0  0  0  0  0  0
   11.6408  -15.0115   29.0691 C   0  0  0  0  0  0  0  0  0  0  0  0
   11.0634  -13.5961   28.0596 S   0  0  0  0  0  0  0  0  0  0  0  0
   10.5772  -14.2782   26.4221 C   0  0  0  0  0  0  0  0  0  0  0  0
   11.0884  -15.6980   26.4093 C   0  0  0  0  0  0  0  0  0  0  0  0
   11.2129  -16.2865   25.0403 C   0  0  2  0  0  0  0  0  0  0  0  0
    9.9743  -16.0623   24.3067 N   0  0  0  0  0  0  0  0  0  0  0  0
   11.6495  -17.6760   24.9856 C   0  0  0  0  0  0  0  0  0  0  0  0
   10.8991  -18.5596   24.5156 O   0  0  0  0  0  0  0  0  0  0  0  0
   12.8980  -18.0656   25.4472 O   0  0  0  0  0  0  0  0  0  0  0  0
  2  1  1  1
  2 10  1  0
  2  3  1  0
  3  4  1  0
  4  9  2  0
  5  4  1  0
  5  6  2  0
  6  7  1  0
  7  8  2  0
  9  8  1  0
 10 11  2  0
 10 17  1  0
 13 12  1  0
 14 15  1  6
 14 13  1  0
 16 14  1  0
 16 17  1  1
 18 16  1  0
 18 19  2  0
 20 21  1  0
 21 22  1  0
 22 23  1  0
 24 23  1  1
 24 25  1  0
 25 18  1  0
 26 24  1  0
 26 28  1  0
 27 26  2  0
M  END
$$$$
