FIM.pdb
     RDKit          3D

 28 28  0  0  1  0  0  0  0  0999 V2000
    5.4867  -17.8601   25.0554 N   0  0  0  0  0  0  0  0  0  0  0  0
    5.9985  -16.5304   24.8622 C   0  0  1  0  0  0  0  0  0  0  0  0
    6.4226  -16.0072   26.2345 C   0  0  0  0  0  0  0  0  0  0  0  0
    6.6771  -14.5508   26.1912 C   0  0  0  0  0  0  0  0  0  0  0  0
    7.9759  -14.1010   26.1165 C   0  0  0  0  0  0  0  0  0  0  0  0
    8.2801  -12.7535   26.0717 C   0  0  0  0  0  0  0  0  0  0  0  0
    7.2496  -11.8390   26.1033 C   0  0  0  0  0  0  0  0  0  0  0  0
    5.9571  -12.3015   26.1778 C   0  0  0  0  0  0  0  0  0  0  0  0
    5.6454  -13.6524   26.2229 C   0  0  0  0  0  0  0  0  0  0  0  0
    7.2211  -16.5751   24.0206 C   0  0  0  0  0  0  0  0  0  0  0  0
    8.0074  -17.5603   24.0572 O   0  0  0  0  0  0  0  0  0  0  0  0
    7.2070  -13.9483   19.2158 C   0  0  0  0  0  0  0  0  0  0  0  0
    7.4425  -14.9648   20.2982 C   0  0  0  0  0  0  0  0  0  0  0  0
    8.6603  -14.6236   21.1362 C   0  0  2  0  0  0  0  0  0  0  0  0
    9.8889  -14.8574   20.2826 C   0  0  0  0  0  0  0  0  0  0  0  0
    8.7846  -15.5590   22.3261 C   0  0  2  0  0  0  0  0  0  0  0  0
    7.5878  -15.5241   23.1258 N   0  0  0  0  0  0  0  0  0  0  0  0
   10.0068  -15.3173   23.1042 C   0  0  0  0  0  0  0  0  0  0  0  0
   10.3259  -14.1344   23.3938 O   0  0  0  0  0  0  0  0  0  0  0  0
    9.4182  -14.1755   28.4304 C   0  0  0  0  0  0  0  0  0  0  0  0
   10.1402  -15.8554   28.5401 S   0  0  0  0  0  0  0  0  0  0  0  0
   11.4756  -15.9404   27.2780 C   0  0  0  0  0  0  0  0  0  0  0  0
   10.7685  -15.9704   25.9452 C   0  0  0  0  0  0  0  0  0  0  0  0
   11.6771  -16.2046   24.7808 C   0  0  2  0  0  0  0  0  0  0  0  0
   10.8799  -16.3362   23.5684 N   0  0  0  0  0  0  0  0  0  0  0  0
   12.6388  -17.2888   24.9360 C   0  0  0  0  0  0  0  0  0  0  0  0
   13.5741  -17.1950   25.7612 O   0  0  0  0  0  0  0  0  0  0  0  0
   12.5537  -18.4507   24.1834 O   0  0  0  0  0  0  0  0  0  0  0  0
  2  1  1  1
  2 10  1  0
  2  3  1  0
  3  4  1  0
  4  9  2  0
  5  4  1  0
  5  6  2  0
  6  7  1  0
  7  8  2  0
  9  8  1  0
 10 11  2  0
 10 17  1  0
 13 12  1  0
 14 15  1  6
 14 13  1  0
 16 14  1  0
 16 17  1  1
 18 16  1  0
 18 19  2  0
 20 21  1  0
 21 22  1  0
 22 23  1  0
 24 23  1  1
 24 25  1  0
 25 18  1  0
 26 24  1  0
 26 28  1  0
 27 26  2  0
M  END
$$$$
