FIM.pdb
     RDKit          3D

 28 28  0  0  1  0  0  0  0  0999 V2000
    7.4119  -19.0845   26.8961 N   0  0  0  0  0  0  0  0  0  0  0  0
    7.8476  -17.7498   27.2060 C   0  0  1  0  0  0  0  0  0  0  0  0
    9.2755  -17.8550   27.7414 C   0  0  0  0  0  0  0  0  0  0  0  0
    9.6624  -16.6245   28.4653 C   0  0  0  0  0  0  0  0  0  0  0  0
    9.6892  -16.6388   29.8414 C   0  0  0  0  0  0  0  0  0  0  0  0
   10.0431  -15.5229   30.5761 C   0  0  0  0  0  0  0  0  0  0  0  0
   10.3774  -14.3657   29.9063 C   0  0  0  0  0  0  0  0  0  0  0  0
   10.3467  -14.3650   28.5318 C   0  0  0  0  0  0  0  0  0  0  0  0
    9.9925  -15.4816   27.7889 C   0  0  0  0  0  0  0  0  0  0  0  0
    7.9107  -16.9362   25.9654 C   0  0  0  0  0  0  0  0  0  0  0  0
    8.0917  -17.4715   24.8381 O   0  0  0  0  0  0  0  0  0  0  0  0
    6.0404  -11.7845   26.4233 C   0  0  0  0  0  0  0  0  0  0  0  0
    6.1852  -13.1328   25.7741 C   0  0  0  0  0  0  0  0  0  0  0  0
    7.5133  -13.2717   25.0540 C   0  0  2  0  0  0  0  0  0  0  0  0
    7.3860  -12.5812   23.7124 C   0  0  0  0  0  0  0  0  0  0  0  0
    7.8236  -14.7280   24.7552 C   0  0  2  0  0  0  0  0  0  0  0  0
    7.7737  -15.5147   25.9602 N   0  0  0  0  0  0  0  0  0  0  0  0
    9.0780  -14.8925   24.0091 C   0  0  0  0  0  0  0  0  0  0  0  0
   10.1169  -14.3120   24.4199 O   0  0  0  0  0  0  0  0  0  0  0  0
   12.2043  -19.0778   26.2109 C   0  0  0  0  0  0  0  0  0  0  0  0
   12.7087  -17.8743   24.9253 S   0  0  0  0  0  0  0  0  0  0  0  0
   11.2086  -17.5087   23.9257 C   0  0  0  0  0  0  0  0  0  0  0  0
   11.5319  -16.2490   23.1603 C   0  0  0  0  0  0  0  0  0  0  0  0
   10.4934  -15.8657   22.1549 C   0  0  2  0  0  0  0  0  0  0  0  0
    9.2175  -15.6737   22.8317 N   0  0  0  0  0  0  0  0  0  0  0  0
   10.3826  -16.7401   20.9941 C   0  0  0  0  0  0  0  0  0  0  0  0
    9.3067  -17.3256   20.7402 O   0  0  0  0  0  0  0  0  0  0  0  0
   11.4529  -16.9530   20.1382 O   0  0  0  0  0  0  0  0  0  0  0  0
  2  1  1  6
  2 10  1  0
  2  3  1  0
  3  4  1  0
  4  9  2  0
  5  4  1  0
  5  6  2  0
  6  7  1  0
  7  8  2  0
  9  8  1  0
 10 11  2  0
 10 17  1  0
 13 12  1  0
 14 15  1  6
 14 13  1  0
 16 14  1  0
 16 17  1  1
 18 16  1  0
 18 19  2  0
 20 21  1  0
 21 22  1  0
 22 23  1  0
 24 23  1  1
 24 25  1  0
 25 18  1  0
 26 24  1  0
 26 28  1  0
 27 26  2  0
M  END
$$$$
