FIM.pdb
     RDKit          3D

 28 28  0  0  1  0  0  0  0  0999 V2000
    5.3410  -18.7047   23.3113 N   0  0  0  0  0  0  0  0  0  0  0  0
    5.9510  -18.3222   24.5558 C   0  0  1  0  0  0  0  0  0  0  0  0
    6.9086  -19.4458   24.9523 C   0  0  0  0  0  0  0  0  0  0  0  0
    7.4680  -19.2143   26.3018 C   0  0  0  0  0  0  0  0  0  0  0  0
    8.7401  -18.7018   26.4194 C   0  0  0  0  0  0  0  0  0  0  0  0
    9.3191  -18.4615   27.6512 C   0  0  0  0  0  0  0  0  0  0  0  0
    8.5975  -18.7453   28.7905 C   0  0  0  0  0  0  0  0  0  0  0  0
    7.3281  -19.2566   28.6591 C   0  0  0  0  0  0  0  0  0  0  0  0
    6.7415  -19.4998   27.4258 C   0  0  0  0  0  0  0  0  0  0  0  0
    6.7743  -17.1016   24.3627 C   0  0  0  0  0  0  0  0  0  0  0  0
    7.5342  -16.9736   23.3646 O   0  0  0  0  0  0  0  0  0  0  0  0
    4.5706  -12.5805   26.2408 C   0  0  0  0  0  0  0  0  0  0  0  0
    5.3241  -13.5345   25.3562 C   0  0  0  0  0  0  0  0  0  0  0  0
    6.7909  -13.6154   25.7353 C   0  0  2  0  0  0  0  0  0  0  0  0
    7.4680  -12.3576   25.2331 C   0  0  0  0  0  0  0  0  0  0  0  0
    7.4740  -14.7757   25.0330 C   0  0  2  0  0  0  0  0  0  0  0  0
    6.7650  -16.0048   25.2775 N   0  0  0  0  0  0  0  0  0  0  0  0
    8.9052  -14.8607   25.3526 C   0  0  0  0  0  0  0  0  0  0  0  0
    9.4412  -13.9360   26.0180 O   0  0  0  0  0  0  0  0  0  0  0  0
   10.9951  -14.0093   29.0431 C   0  0  0  0  0  0  0  0  0  0  0  0
   10.9564  -15.8246   29.2858 S   0  0  0  0  0  0  0  0  0  0  0  0
   10.7559  -16.5767   27.6192 C   0  0  0  0  0  0  0  0  0  0  0  0
   11.4302  -15.6232   26.6635 C   0  0  0  0  0  0  0  0  0  0  0  0
   11.1885  -15.9364   25.2214 C   0  0  2  0  0  0  0  0  0  0  0  0
    9.7549  -15.9290   24.9621 N   0  0  0  0  0  0  0  0  0  0  0  0
   11.8401  -17.1385   24.7166 C   0  0  0  0  0  0  0  0  0  0  0  0
   13.0856  -17.2491   24.7536 O   0  0  0  0  0  0  0  0  0  0  0  0
   11.1124  -18.1916   24.1829 O   0  0  0  0  0  0  0  0  0  0  0  0
  2  1  1  6
  2 10  1  0
  2  3  1  0
  3  4  1  0
  4  9  2  0
  5  4  1  0
  5  6  2  0
  6  7  1  0
  7  8  2  0
  9  8  1  0
 10 11  2  0
 10 17  1  0
 13 12  1  0
 14 15  1  6
 14 13  1  0
 16 14  1  0
 16 17  1  1
 18 16  1  0
 18 19  2  0
 20 21  1  0
 21 22  1  0
 22 23  1  0
 24 23  1  1
 24 25  1  0
 25 18  1  0
 26 24  1  0
 26 28  1  0
 27 26  2  0
M  END
$$$$
