FIM.pdb
     RDKit          3D

 28 28  0  0  1  0  0  0  0  0999 V2000
    5.6834  -18.3337   24.4311 N   0  0  0  0  0  0  0  0  0  0  0  0
    6.0933  -16.9561   24.4669 C   0  0  1  0  0  0  0  0  0  0  0  0
    6.4627  -16.6335   25.9148 C   0  0  0  0  0  0  0  0  0  0  0  0
    6.5915  -15.1739   26.1165 C   0  0  0  0  0  0  0  0  0  0  0  0
    7.8324  -14.6434   26.3881 C   0  0  0  0  0  0  0  0  0  0  0  0
    8.0196  -13.2883   26.5852 C   0  0  0  0  0  0  0  0  0  0  0  0
    6.9290  -12.4493   26.5068 C   0  0  0  0  0  0  0  0  0  0  0  0
    5.6955  -12.9919   26.2348 C   0  0  0  0  0  0  0  0  0  0  0  0
    5.5012  -14.3509   26.0359 C   0  0  0  0  0  0  0  0  0  0  0  0
    7.3238  -16.7721   23.6564 C   0  0  0  0  0  0  0  0  0  0  0  0
    8.1817  -17.6899   23.5479 O   0  0  0  0  0  0  0  0  0  0  0  0
    7.3843  -12.4515   20.0406 C   0  0  0  0  0  0  0  0  0  0  0  0
    7.4414  -13.8331   20.6309 C   0  0  0  0  0  0  0  0  0  0  0  0
    8.7326  -14.0677   21.3921 C   0  0  2  0  0  0  0  0  0  0  0  0
    9.8654  -14.0811   20.3874 C   0  0  0  0  0  0  0  0  0  0  0  0
    8.7359  -15.4339   22.0553 C   0  0  2  0  0  0  0  0  0  0  0  0
    7.6188  -15.5638   22.9544 N   0  0  0  0  0  0  0  0  0  0  0  0
   10.0249  -15.7482   22.6857 C   0  0  0  0  0  0  0  0  0  0  0  0
   11.0539  -15.8389   21.9661 O   0  0  0  0  0  0  0  0  0  0  0  0
   10.2053  -12.8259   28.6991 C   0  0  0  0  0  0  0  0  0  0  0  0
   11.0660  -14.3810   28.2555 S   0  0  0  0  0  0  0  0  0  0  0  0
   10.8525  -14.6046   26.4423 C   0  0  0  0  0  0  0  0  0  0  0  0
   11.4723  -15.9437   26.1261 C   0  0  0  0  0  0  0  0  0  0  0  0
   11.5059  -16.2680   24.6667 C   0  0  2  0  0  0  0  0  0  0  0  0
   10.2089  -15.9633   24.0770 N   0  0  0  0  0  0  0  0  0  0  0  0
   11.9727  -17.6061   24.3259 C   0  0  0  0  0  0  0  0  0  0  0  0
   13.0832  -18.0141   24.7323 O   0  0  0  0  0  0  0  0  0  0  0  0
   11.2123  -18.4662   23.5477 O   0  0  0  0  0  0  0  0  0  0  0  0
  2  1  1  1
  2 10  1  0
  2  3  1  0
  3  4  1  0
  4  9  2  0
  5  4  1  0
  5  6  2  0
  6  7  1  0
  7  8  2  0
  9  8  1  0
 10 11  2  0
 10 17  1  0
 13 12  1  0
 14 15  1  6
 14 13  1  0
 16 14  1  0
 16 17  1  1
 18 16  1  0
 18 19  2  0
 20 21  1  0
 21 22  1  0
 22 23  1  0
 24 23  1  1
 24 25  1  0
 25 18  1  0
 26 24  1  0
 26 28  1  0
 27 26  2  0
M  END
$$$$
