SSN.pdb
     RDKit          3D

 21 20  0  0  1  0  0  0  0  0999 V2000
   19.0334  -12.9835  -17.4076 O   0  0  0  0  0  0  0  0  0  0  0  0
   19.1083  -12.3243  -16.1714 C   0  0  0  0  0  0  0  0  0  0  0  0
   17.7083  -12.0097  -15.6961 C   0  0  2  0  0  0  0  0  0  0  0  0
   16.7396  -12.3770  -16.6890 N   0  0  0  0  0  0  0  0  0  0  0  0
   17.6215  -10.5309  -15.4483 C   0  0  0  0  0  0  0  0  0  0  0  0
   17.3303   -9.7490  -16.3852 O   0  0  0  0  0  0  0  0  0  0  0  0
   17.0786   -6.9594  -12.3934 O   0  0  0  0  0  0  0  0  0  0  0  0
   17.1115   -8.3575  -12.6074 C   0  0  0  0  0  0  0  0  0  0  0  0
   17.8440   -8.5928  -13.8623 C   0  0  2  0  0  0  0  0  0  0  0  0
   17.8700  -10.0109  -14.1473 N   0  0  0  0  0  0  0  0  0  0  0  0
   19.1949   -8.0546  -13.9517 C   0  0  0  0  0  0  0  0  0  0  0  0
   20.1387   -8.7337  -13.4885 O   0  0  0  0  0  0  0  0  0  0  0  0
   23.5090   -5.4157  -15.1399 N   0  0  0  0  0  0  0  0  0  0  0  0
   22.8089   -6.0575  -16.1966 C   0  0  0  0  0  0  0  0  0  0  0  0
   23.3947   -6.2023  -17.2944 O   0  0  0  0  0  0  0  0  0  0  0  0
   21.4370   -6.5363  -16.0033 C   0  0  0  0  0  0  0  0  0  0  0  0
   20.9009   -6.3517  -14.6067 C   0  0  2  0  0  0  0  0  0  0  0  0
   19.5292   -6.8040  -14.5303 N   0  0  0  0  0  0  0  0  0  0  0  0
   20.9921   -4.9514  -14.1266 C   0  0  0  0  0  0  0  0  0  0  0  0
   22.1304   -4.4399  -14.0037 O   0  0  0  0  0  0  0  0  0  0  0  0
   19.8544   -4.2225  -13.8204 O   0  0  0  0  0  0  0  0  0  0  0  0
  1  2  1  0
  2  3  1  0
  3  4  1  6
  5  3  1  0
  5  6  2  0
  7  8  1  0
  9  8  1  1
  9 11  1  0
  9 10  1  0
 10  5  1  0
 11 18  1  0
 12 11  2  0
 13 14  1  0
 14 15  2  0
 16 14  1  0
 17 16  1  6
 17 19  1  0
 18 17  1  0
 19 20  2  0
 19 21  1  0
M  END
$$$$
