SSN.pdb
     RDKit          3D

 21 20  0  0  1  0  0  0  0  0999 V2000
   14.0542  -11.4695  -13.2794 O   0  0  0  0  0  0  0  0  0  0  0  0
   15.3186  -10.9397  -13.5776 C   0  0  0  0  0  0  0  0  0  0  0  0
   15.8507  -11.6088  -14.8243 C   0  0  2  0  0  0  0  0  0  0  0  0
   16.1487  -12.9898  -14.5725 N   0  0  0  0  0  0  0  0  0  0  0  0
   17.1110  -10.9006  -15.2316 C   0  0  0  0  0  0  0  0  0  0  0  0
   18.1710  -11.0734  -14.5832 O   0  0  0  0  0  0  0  0  0  0  0  0
   19.4159   -8.5990  -18.7267 O   0  0  0  0  0  0  0  0  0  0  0  0
   18.1731   -9.1036  -18.2765 C   0  0  0  0  0  0  0  0  0  0  0  0
   18.3061   -9.3785  -16.8365 C   0  0  2  0  0  0  0  0  0  0  0  0
   17.1066  -10.0294  -16.3567 N   0  0  0  0  0  0  0  0  0  0  0  0
   18.6242   -8.2488  -15.9731 C   0  0  0  0  0  0  0  0  0  0  0  0
   17.6803   -7.6074  -15.4591 O   0  0  0  0  0  0  0  0  0  0  0  0
   20.9339   -4.4893  -13.1937 N   0  0  0  0  0  0  0  0  0  0  0  0
   21.7781   -5.6316  -13.2262 C   0  0  0  0  0  0  0  0  0  0  0  0
   22.8131   -5.6246  -12.5205 O   0  0  0  0  0  0  0  0  0  0  0  0
   21.4434   -6.7861  -14.0650 C   0  0  0  0  0  0  0  0  0  0  0  0
   20.1709   -6.6348  -14.8588 C   0  0  2  0  0  0  0  0  0  0  0  0
   19.9377   -7.8126  -15.6652 N   0  0  0  0  0  0  0  0  0  0  0  0
   20.1613   -5.4289  -15.7221 C   0  0  0  0  0  0  0  0  0  0  0  0
   20.6513   -5.5198  -16.8728 O   0  0  0  0  0  0  0  0  0  0  0  0
   19.6270   -4.2312  -15.2754 O   0  0  0  0  0  0  0  0  0  0  0  0
  1  2  1  0
  2  3  1  0
  3  4  1  1
  5  3  1  0
  5  6  2  0
  7  8  1  0
  9  8  1  6
  9 11  1  0
  9 10  1  0
 10  5  1  0
 11 18  1  0
 12 11  2  0
 13 14  1  0
 14 15  2  0
 16 14  1  0
 17 16  1  6
 17 19  1  0
 18 17  1  0
 19 20  2  0
 19 21  1  0
M  END
$$$$
