SSN.pdb
     RDKit          3D

 21 20  0  0  1  0  0  0  0  0999 V2000
   15.5958   -4.5913   -9.3539 O   0  0  0  0  0  0  0  0  0  0  0  0
   14.6187   -5.5562   -9.6411 C   0  0  0  0  0  0  0  0  0  0  0  0
   14.9608   -6.8351   -8.9113 C   0  0  2  0  0  0  0  0  0  0  0  0
   15.1709   -6.5827   -7.5144 N   0  0  0  0  0  0  0  0  0  0  0  0
   16.2244   -7.3875   -9.5063 C   0  0  0  0  0  0  0  0  0  0  0  0
   17.3123   -7.2808   -8.8907 O   0  0  0  0  0  0  0  0  0  0  0  0
   18.1630  -10.4964  -12.5248 O   0  0  0  0  0  0  0  0  0  0  0  0
   16.9823   -9.9167  -12.0034 C   0  0  0  0  0  0  0  0  0  0  0  0
   17.3628   -8.6489  -11.3594 C   0  0  2  0  0  0  0  0  0  0  0  0
   16.1914   -8.0350  -10.7730 N   0  0  0  0  0  0  0  0  0  0  0  0
   18.0627   -7.6716  -12.1826 C   0  0  0  0  0  0  0  0  0  0  0  0
   17.3836   -6.8673  -12.8598 O   0  0  0  0  0  0  0  0  0  0  0  0
   21.7151   -3.6787  -13.3984 N   0  0  0  0  0  0  0  0  0  0  0  0
   22.0488   -5.0596  -13.3778 C   0  0  0  0  0  0  0  0  0  0  0  0
   22.9882   -5.4537  -14.1069 O   0  0  0  0  0  0  0  0  0  0  0  0
   21.3106   -5.9954  -12.5247 C   0  0  0  0  0  0  0  0  0  0  0  0
   20.0933   -6.6050  -13.1717 C   0  0  2  0  0  0  0  0  0  0  0  0
   19.4728   -7.5585  -12.2786 N   0  0  0  0  0  0  0  0  0  0  0  0
   20.3873   -7.2565  -14.4713 C   0  0  0  0  0  0  0  0  0  0  0  0
   20.6641   -8.4796  -14.4719 O   0  0  0  0  0  0  0  0  0  0  0  0
   20.3589   -6.5390  -15.6560 O   0  0  0  0  0  0  0  0  0  0  0  0
  1  2  1  0
  2  3  1  0
  3  4  1  1
  5  3  1  0
  5  6  2  0
  7  8  1  0
  9  8  1  6
  9 11  1  0
  9 10  1  0
 10  5  1  0
 11 18  1  0
 12 11  2  0
 13 14  1  0
 14 15  2  0
 16 14  1  0
 17 16  1  1
 17 19  1  0
 18 17  1  0
 19 20  2  0
 19 21  1  0
M  END
$$$$
