SSN.pdb
     RDKit          3D

 21 20  0  0  1  0  0  0  0  0999 V2000
   17.7160  -10.1822  -19.6087 O   0  0  0  0  0  0  0  0  0  0  0  0
   17.8957   -9.7620  -18.2823 C   0  0  0  0  0  0  0  0  0  0  0  0
   18.5312  -10.8835  -17.4927 C   0  0  2  0  0  0  0  0  0  0  0  0
   17.5352  -11.8065  -17.0287 N   0  0  0  0  0  0  0  0  0  0  0  0
   19.2324  -10.2811  -16.3090 C   0  0  0  0  0  0  0  0  0  0  0  0
   18.6558  -10.2202  -15.1964 O   0  0  0  0  0  0  0  0  0  0  0  0
   23.1977   -9.2123  -14.0554 O   0  0  0  0  0  0  0  0  0  0  0  0
   22.5663   -9.8186  -15.1669 C   0  0  0  0  0  0  0  0  0  0  0  0
   21.2649   -9.1552  -15.3488 C   0  0  2  0  0  0  0  0  0  0  0  0
   20.5557   -9.7763  -16.4460 N   0  0  0  0  0  0  0  0  0  0  0  0
   21.2783   -7.7102  -15.5350 C   0  0  0  0  0  0  0  0  0  0  0  0
   21.4968   -7.2593  -16.6820 O   0  0  0  0  0  0  0  0  0  0  0  0
   20.9848   -2.5373  -15.0440 N   0  0  0  0  0  0  0  0  0  0  0  0
   19.7927   -3.2339  -14.7090 C   0  0  0  0  0  0  0  0  0  0  0  0
   18.7375   -2.5725  -14.5727 O   0  0  0  0  0  0  0  0  0  0  0  0
   19.8013   -4.6885  -14.5282 C   0  0  0  0  0  0  0  0  0  0  0  0
   21.1409   -5.3398  -14.7597 C   0  0  2  0  0  0  0  0  0  0  0  0
   21.0603   -6.7611  -14.5045 N   0  0  0  0  0  0  0  0  0  0  0  0
   22.2274   -4.7468  -13.9426 C   0  0  0  0  0  0  0  0  0  0  0  0
   22.5756   -5.3440  -12.8964 O   0  0  0  0  0  0  0  0  0  0  0  0
   22.8449   -3.5651  -14.3193 O   0  0  0  0  0  0  0  0  0  0  0  0
  1  2  1  0
  2  3  1  0
  3  4  1  1
  5  3  1  0
  5  6  2  0
  7  8  1  0
  9  8  1  6
  9 11  1  0
  9 10  1  0
 10  5  1  0
 11 18  1  0
 12 11  2  0
 13 14  1  0
 14 15  2  0
 16 14  1  0
 17 16  1  1
 17 19  1  0
 18 17  1  0
 19 20  2  0
 19 21  1  0
M  END
$$$$
