SSN.pdb
     RDKit          3D

 21 20  0  0  1  0  0  0  0  0999 V2000
   15.8664  -10.6998  -17.3719 O   0  0  0  0  0  0  0  0  0  0  0  0
   16.6004  -10.0642  -16.3592 C   0  0  0  0  0  0  0  0  0  0  0  0
   17.8006  -10.9156  -16.0132 C   0  0  2  0  0  0  0  0  0  0  0  0
   17.3901  -12.1552  -15.4181 N   0  0  0  0  0  0  0  0  0  0  0  0
   18.6443  -10.1546  -15.0310 C   0  0  0  0  0  0  0  0  0  0  0  0
   18.1979   -9.8847  -13.8900 O   0  0  0  0  0  0  0  0  0  0  0  0
   22.6615   -9.7242  -15.6813 O   0  0  0  0  0  0  0  0  0  0  0  0
   22.1114   -9.6489  -14.3799 C   0  0  0  0  0  0  0  0  0  0  0  0
   20.8032   -8.9836  -14.4938 C   0  0  2  0  0  0  0  0  0  0  0  0
   19.9556   -9.7364  -15.3923 N   0  0  0  0  0  0  0  0  0  0  0  0
   20.8054   -7.5812  -14.8887 C   0  0  0  0  0  0  0  0  0  0  0  0
   20.7640   -7.3059  -16.1090 O   0  0  0  0  0  0  0  0  0  0  0  0
   20.6615   -2.4141  -15.2164 N   0  0  0  0  0  0  0  0  0  0  0  0
   19.8382   -2.8776  -14.1553 C   0  0  0  0  0  0  0  0  0  0  0  0
   19.0774   -2.0566  -13.5929 O   0  0  0  0  0  0  0  0  0  0  0  0
   19.8809   -4.2805  -13.7326 C   0  0  0  0  0  0  0  0  0  0  0  0
   20.8981   -5.1223  -14.4598 C   0  0  2  0  0  0  0  0  0  0  0  0
   20.8516   -6.4883  -13.9867 N   0  0  0  0  0  0  0  0  0  0  0  0
   22.2810   -4.5996  -14.3405 C   0  0  0  0  0  0  0  0  0  0  0  0
   22.8994   -4.7985  -13.2678 O   0  0  0  0  0  0  0  0  0  0  0  0
   22.8793   -3.9095  -15.3822 O   0  0  0  0  0  0  0  0  0  0  0  0
  1  2  1  0
  2  3  1  0
  3  4  1  1
  5  3  1  0
  5  6  2  0
  7  8  1  0
  9  8  1  6
  9 11  1  0
  9 10  1  0
 10  5  1  0
 11 18  1  0
 12 11  2  0
 13 14  1  0
 14 15  2  0
 16 14  1  0
 17 16  1  1
 17 19  1  0
 18 17  1  0
 19 20  2  0
 19 21  1  0
M  END
$$$$
