SSN.pdb
     RDKit          3D

 21 20  0  0  1  0  0  0  0  0999 V2000
   26.4481  -19.0611  -16.1194 O   0  0  0  0  0  0  0  0  0  0  0  0
   27.5382  -19.0437  -15.2363 C   0  0  0  0  0  0  0  0  0  0  0  0
   27.8678  -20.4630  -14.8337 C   0  0  2  0  0  0  0  0  0  0  0  0
   28.0637  -21.2876  -15.9917 N   0  0  0  0  0  0  0  0  0  0  0  0
   26.7141  -21.0012  -14.0367 C   0  0  0  0  0  0  0  0  0  0  0  0
   25.9976  -21.9197  -14.5027 O   0  0  0  0  0  0  0  0  0  0  0  0
   24.3837  -20.9254   -9.8119 O   0  0  0  0  0  0  0  0  0  0  0  0
   25.5043  -20.4789  -10.5513 C   0  0  0  0  0  0  0  0  0  0  0  0
   25.3372  -20.9566  -11.9336 C   0  0  2  0  0  0  0  0  0  0  0  0
   26.4294  -20.4698  -12.7478 N   0  0  0  0  0  0  0  0  0  0  0  0
   24.0713  -20.6570  -12.5896 C   0  0  0  0  0  0  0  0  0  0  0  0
   23.9467  -19.5544  -13.1688 O   0  0  0  0  0  0  0  0  0  0  0  0
   19.3846  -20.8093  -14.8377 N   0  0  0  0  0  0  0  0  0  0  0  0
   19.8814  -22.1324  -14.6926 C   0  0  0  0  0  0  0  0  0  0  0  0
   19.2785  -23.0601  -15.2803 O   0  0  0  0  0  0  0  0  0  0  0  0
   21.0685  -22.4009  -13.8759 C   0  0  0  0  0  0  0  0  0  0  0  0
   21.7392  -21.1694  -13.3229 C   0  0  2  0  0  0  0  0  0  0  0  0
   22.9533  -21.5284  -12.6238 N   0  0  0  0  0  0  0  0  0  0  0  0
   20.8612  -20.3798  -12.4253 C   0  0  0  0  0  0  0  0  0  0  0  0
   21.0122  -20.5063  -11.1870 O   0  0  0  0  0  0  0  0  0  0  0  0
   19.8983  -19.5239  -12.9349 O   0  0  0  0  0  0  0  0  0  0  0  0
  1  2  1  0
  2  3  1  0
  3  4  1  6
  5  3  1  0
  5  6  2  0
  7  8  1  0
  9  8  1  1
  9 11  1  0
  9 10  1  0
 10  5  1  0
 11 18  1  0
 12 11  2  0
 13 14  1  0
 14 15  2  0
 16 14  1  0
 17 16  1  1
 17 19  1  0
 18 17  1  0
 19 20  2  0
 19 21  1  0
M  END
$$$$
