SWR.pdb
     RDKit          3D

 32 33  0  0  1  0  0  0  0  0999 V2000
   25.4594  -17.7282  -17.8690 O   0  0  0  0  0  0  0  0  0  0  0  0
   26.7118  -17.1707  -17.6346 C   0  0  0  0  0  0  0  0  0  0  0  0
   27.7527  -18.2691  -17.3824 C   0  0  2  0  0  0  0  0  0  0  0  0
   27.8980  -18.9365  -18.6866 N   0  0  0  0  0  0  0  0  0  0  0  0
   27.1886  -19.2326  -16.3878 C   0  0  0  0  0  0  0  0  0  0  0  0
   26.5057  -20.2136  -16.7250 O   0  0  0  0  0  0  0  0  0  0  0  0
   27.4382  -19.0246  -15.0237 N   0  0  0  0  0  0  0  0  0  0  0  0
   27.0219  -19.7021  -13.8685 C   0  0  1  0  0  0  0  0  0  0  0  0
   27.5980  -19.2940  -12.5366 C   0  0  0  0  0  0  0  0  0  0  0  0
   27.3053  -20.2968  -11.4538 C   0  0  0  0  0  0  0  0  0  0  0  0
   27.4833  -21.6576  -11.4994 C   0  0  0  0  0  0  0  0  0  0  0  0
   27.0662  -22.1510  -10.3283 N   0  0  0  0  0  0  0  0  0  0  0  0
   26.6240  -21.1347   -9.5302 C   0  0  0  0  0  0  0  0  0  0  0  0
   26.1065  -21.0973   -8.2628 C   0  0  0  0  0  0  0  0  0  0  0  0
   25.7336  -19.8808   -7.6932 C   0  0  0  0  0  0  0  0  0  0  0  0
   25.8727  -18.6937   -8.3802 C   0  0  0  0  0  0  0  0  0  0  0  0
   26.3939  -18.7403   -9.6530 C   0  0  0  0  0  0  0  0  0  0  0  0
   26.7703  -19.9613  -10.2298 C   0  0  0  0  0  0  0  0  0  0  0  0
   25.5616  -19.7275  -13.7534 C   0  0  0  0  0  0  0  0  0  0  0  0
   24.9341  -18.6696  -14.0951 O   0  0  0  0  0  0  0  0  0  0  0  0
   24.2954  -25.6415  -17.7616 N   0  0  0  0  0  0  0  0  0  0  0  0
   23.4248  -26.0314  -16.7186 C   0  0  0  0  0  0  0  0  0  0  0  0
   22.6985  -27.1299  -16.7589 N   0  0  0  0  0  0  0  0  0  0  0  0
   23.2444  -25.2798  -15.5081 N   0  0  0  0  0  0  0  0  0  0  0  0
   24.0462  -24.1510  -15.2144 C   0  0  0  0  0  0  0  0  0  0  0  0
   23.8014  -23.4323  -13.9308 C   0  0  0  0  0  0  0  0  0  0  0  0
   23.0062  -22.1772  -14.0381 C   0  0  0  0  0  0  0  0  0  0  0  0
   23.4636  -20.9890  -13.2983 C   0  0  2  0  0  0  0  0  0  0  0  0
   24.9264  -20.8850  -13.2851 N   0  0  0  0  0  0  0  0  0  0  0  0
   23.0651  -21.0124  -11.8391 C   0  0  0  0  0  0  0  0  0  0  0  0
   21.7644  -20.7751  -11.4295 O   0  0  0  0  0  0  0  0  0  0  0  0
   23.8886  -21.2502  -10.9360 O   0  0  0  0  0  0  0  0  0  0  0  0
  2  1  1  0
  3  2  1  0
  3  4  1  6
  5  6  2  0
  5  3  1  0
  7  5  1  0
  8  7  1  0
  9 10  1  0
  8  9  1  1
 10 11  2  0
 10 18  1  0
 11 12  1  0
 12 13  1  0
 13 14  2  0
 15 14  1  0
 16 15  2  0
 17 18  2  0
 17 16  1  0
 18 13  1  0
 19  8  1  0
 19 29  1  0
 20 19  2  0
 22 21  1  0
 23 22  2  0
 24 22  1  0
 25 26  1  0
 25 24  1  0
 26 27  1  0
 28 27  1  1
 28 29  1  0
 28 30  1  0
 30 31  1  0
 32 30  2  0
M  END
$$$$
