SWR.pdb
     RDKit          3D

 32 33  0  0  1  0  0  0  0  0999 V2000
   26.3485  -21.4056  -17.5141 O   0  0  0  0  0  0  0  0  0  0  0  0
   27.1553  -22.5382  -17.5322 C   0  0  0  0  0  0  0  0  0  0  0  0
   28.0806  -22.5612  -16.3088 C   0  0  2  0  0  0  0  0  0  0  0  0
   28.8659  -23.7958  -16.4718 N   0  0  0  0  0  0  0  0  0  0  0  0
   27.2343  -22.6655  -15.0805 C   0  0  0  0  0  0  0  0  0  0  0  0
   26.7198  -23.7354  -14.7158 O   0  0  0  0  0  0  0  0  0  0  0  0
   27.0117  -21.5156  -14.3095 N   0  0  0  0  0  0  0  0  0  0  0  0
   26.2254  -21.2717  -13.1741 C   0  0  1  0  0  0  0  0  0  0  0  0
   26.6147  -20.1502  -12.2450 C   0  0  0  0  0  0  0  0  0  0  0  0
   27.7601  -20.5237  -11.3438 C   0  0  0  0  0  0  0  0  0  0  0  0
   29.0250  -20.9119  -11.7109 C   0  0  0  0  0  0  0  0  0  0  0  0
   29.7011  -21.1728  -10.5867 N   0  0  0  0  0  0  0  0  0  0  0  0
   28.8965  -20.9597   -9.5039 C   0  0  0  0  0  0  0  0  0  0  0  0
   29.0938  -21.0764   -8.1538 C   0  0  0  0  0  0  0  0  0  0  0  0
   28.0599  -20.7822   -7.2659 C   0  0  0  0  0  0  0  0  0  0  0  0
   26.8233  -20.3703   -7.7150 C   0  0  0  0  0  0  0  0  0  0  0  0
   26.6338  -20.2554   -9.0732 C   0  0  0  0  0  0  0  0  0  0  0  0
   27.6705  -20.5501   -9.9696 C   0  0  0  0  0  0  0  0  0  0  0  0
   24.8102  -21.1167  -13.5198 C   0  0  0  0  0  0  0  0  0  0  0  0
   24.5432  -20.5465  -14.6305 O   0  0  0  0  0  0  0  0  0  0  0  0
   18.2769  -24.4379   -8.5170 N   0  0  0  0  0  0  0  0  0  0  0  0
   18.0073  -24.2229   -9.8877 C   0  0  0  0  0  0  0  0  0  0  0  0
   16.9845  -24.7673  -10.5150 N   0  0  0  0  0  0  0  0  0  0  0  0
   18.8106  -23.3883  -10.7367 N   0  0  0  0  0  0  0  0  0  0  0  0
   19.9733  -22.7439  -10.2507 C   0  0  0  0  0  0  0  0  0  0  0  0
   20.6840  -21.8002  -11.1610 C   0  0  0  0  0  0  0  0  0  0  0  0
   21.5965  -22.4306  -12.1556 C   0  0  0  0  0  0  0  0  0  0  0  0
   22.4118  -21.5565  -13.0155 C   0  0  2  0  0  0  0  0  0  0  0  0
   23.8289  -21.5902  -12.6393 N   0  0  0  0  0  0  0  0  0  0  0  0
   22.0205  -20.0985  -12.9155 C   0  0  0  0  0  0  0  0  0  0  0  0
   21.0917  -19.5277  -13.7684 O   0  0  0  0  0  0  0  0  0  0  0  0
   22.5131  -19.3425  -12.0577 O   0  0  0  0  0  0  0  0  0  0  0  0
  2  1  1  0
  3  2  1  0
  3  4  1  6
  5  6  2  0
  5  3  1  0
  7  5  1  0
  8  7  1  0
  9 10  1  0
  8  9  1  6
 10 11  2  0
 10 18  1  0
 11 12  1  0
 12 13  1  0
 13 14  2  0
 15 14  1  0
 16 15  2  0
 17 18  2  0
 17 16  1  0
 18 13  1  0
 19  8  1  0
 19 29  1  0
 20 19  2  0
 22 21  1  0
 23 22  2  0
 24 22  1  0
 25 26  1  0
 25 24  1  0
 26 27  1  0
 28 27  1  1
 28 29  1  0
 28 30  1  0
 30 31  1  0
 32 30  2  0
M  END
$$$$
