SWR.pdb
     RDKit          3D

 32 33  0  0  1  0  0  0  0  0999 V2000
   13.6421  -21.3861    2.1258 O   0  0  0  0  0  0  0  0  0  0  0  0
   14.4002  -20.8165    1.1084 C   0  0  0  0  0  0  0  0  0  0  0  0
   15.8940  -21.0818    1.3354 C   0  0  2  0  0  0  0  0  0  0  0  0
   15.9721  -22.5325    1.5733 N   0  0  0  0  0  0  0  0  0  0  0  0
   16.3202  -20.3495    2.5675 C   0  0  0  0  0  0  0  0  0  0  0  0
   16.6441  -20.9373    3.6124 O   0  0  0  0  0  0  0  0  0  0  0  0
   16.3572  -18.9479    2.5459 N   0  0  0  0  0  0  0  0  0  0  0  0
   16.8323  -17.9968    3.4605 C   0  0  1  0  0  0  0  0  0  0  0  0
   17.4725  -16.7370    2.9356 C   0  0  0  0  0  0  0  0  0  0  0  0
   18.0517  -15.8876    4.0340 C   0  0  0  0  0  0  0  0  0  0  0  0
   18.2279  -16.2264    5.3530 C   0  0  0  0  0  0  0  0  0  0  0  0
   18.7474  -15.1594    5.9699 N   0  0  0  0  0  0  0  0  0  0  0  0
   18.9093  -14.1413    5.0740 C   0  0  0  0  0  0  0  0  0  0  0  0
   19.3908  -12.8641    5.1856 C   0  0  0  0  0  0  0  0  0  0  0  0
   19.4367  -12.0318    4.0680 C   0  0  0  0  0  0  0  0  0  0  0  0
   19.0039  -12.4642    2.8326 C   0  0  0  0  0  0  0  0  0  0  0  0
   18.5220  -13.7491    2.7293 C   0  0  0  0  0  0  0  0  0  0  0  0
   18.4740  -14.5894    3.8504 C   0  0  0  0  0  0  0  0  0  0  0  0
   15.8038  -17.6226    4.4344 C   0  0  0  0  0  0  0  0  0  0  0  0
   14.7391  -17.0868    3.9771 O   0  0  0  0  0  0  0  0  0  0  0  0
   12.6833  -21.3226   10.0139 N   0  0  0  0  0  0  0  0  0  0  0  0
   13.1108  -22.2902    9.0765 C   0  0  0  0  0  0  0  0  0  0  0  0
   12.5803  -23.4930    8.9896 N   0  0  0  0  0  0  0  0  0  0  0  0
   14.1584  -22.0651    8.1201 N   0  0  0  0  0  0  0  0  0  0  0  0
   14.9250  -20.8754    8.1323 C   0  0  0  0  0  0  0  0  0  0  0  0
   14.2037  -19.5755    8.0128 C   0  0  0  0  0  0  0  0  0  0  0  0
   15.0669  -18.3619    7.9785 C   0  0  0  0  0  0  0  0  0  0  0  0
   15.0116  -17.4924    6.7914 C   0  0  2  0  0  0  0  0  0  0  0  0
   16.0237  -17.8628    5.7969 N   0  0  0  0  0  0  0  0  0  0  0  0
   15.2956  -16.0408    7.1090 C   0  0  0  0  0  0  0  0  0  0  0  0
   14.2998  -15.0794    7.1020 O   0  0  0  0  0  0  0  0  0  0  0  0
   16.4396  -15.6418    7.3959 O   0  0  0  0  0  0  0  0  0  0  0  0
  2  1  1  0
  3  2  1  0
  3  4  1  1
  5  6  2  0
  5  3  1  0
  7  5  1  0
  8  7  1  0
  9 10  1  0
  8  9  1  6
 10 11  2  0
 10 18  1  0
 11 12  1  0
 12 13  1  0
 13 14  2  0
 15 14  1  0
 16 15  2  0
 17 18  2  0
 17 16  1  0
 18 13  1  0
 19  8  1  0
 19 29  1  0
 20 19  2  0
 22 21  1  0
 23 22  2  0
 24 22  1  0
 25 26  1  0
 25 24  1  0
 26 27  1  0
 28 27  1  1
 28 29  1  0
 28 30  1  0
 30 31  1  0
 32 30  2  0
M  END
$$$$
