SWR.pdb
     RDKit          3D

 32 33  0  0  1  0  0  0  0  0999 V2000
   26.8235  -21.2383  -14.8395 O   0  0  0  0  0  0  0  0  0  0  0  0
   28.0728  -20.6353  -14.9382 C   0  0  0  0  0  0  0  0  0  0  0  0
   28.0829  -19.2907  -14.1999 C   0  0  2  0  0  0  0  0  0  0  0  0
   28.1644  -19.6595  -12.7769 N   0  0  0  0  0  0  0  0  0  0  0  0
   26.7836  -18.5992  -14.4635 C   0  0  0  0  0  0  0  0  0  0  0  0
   25.9074  -18.4745  -13.5923 O   0  0  0  0  0  0  0  0  0  0  0  0
   26.5424  -18.0706  -15.7397 N   0  0  0  0  0  0  0  0  0  0  0  0
   25.4368  -17.4166  -16.3027 C   0  0  1  0  0  0  0  0  0  0  0  0
   25.6476  -16.5324  -17.5052 C   0  0  0  0  0  0  0  0  0  0  0  0
   26.6417  -15.4342  -17.2423 C   0  0  0  0  0  0  0  0  0  0  0  0
   27.9895  -15.4413  -17.5048 C   0  0  0  0  0  0  0  0  0  0  0  0
   28.4812  -14.2709  -17.0837 N   0  0  0  0  0  0  0  0  0  0  0  0
   27.4766  -13.5109  -16.5561 C   0  0  0  0  0  0  0  0  0  0  0  0
   27.4426  -12.2602  -15.9994 C   0  0  0  0  0  0  0  0  0  0  0  0
   26.2390  -11.7313  -15.5354 C   0  0  0  0  0  0  0  0  0  0  0  0
   25.0614  -12.4430  -15.6220 C   0  0  0  0  0  0  0  0  0  0  0  0
   25.1044  -13.6989  -16.1832 C   0  0  0  0  0  0  0  0  0  0  0  0
   26.3125  -14.2345  -16.6510 C   0  0  0  0  0  0  0  0  0  0  0  0
   24.3494  -18.3521  -16.6004 C   0  0  0  0  0  0  0  0  0  0  0  0
   24.6807  -19.5284  -16.9699 O   0  0  0  0  0  0  0  0  0  0  0  0
   23.2627  -22.3471  -10.3095 N   0  0  0  0  0  0  0  0  0  0  0  0
   23.3954  -22.5085  -11.7073 C   0  0  0  0  0  0  0  0  0  0  0  0
   23.9717  -23.5562  -12.2604 N   0  0  0  0  0  0  0  0  0  0  0  0
   22.9136  -21.5565  -12.6688 N   0  0  0  0  0  0  0  0  0  0  0  0
   22.3317  -20.3310  -12.2655 C   0  0  0  0  0  0  0  0  0  0  0  0
   21.6187  -19.5212  -13.2951 C   0  0  0  0  0  0  0  0  0  0  0  0
   22.4913  -18.7893  -14.2553 C   0  0  0  0  0  0  0  0  0  0  0  0
   22.0690  -18.7006  -15.6631 C   0  0  2  0  0  0  0  0  0  0  0  0
   23.0203  -17.9292  -16.4699 N   0  0  0  0  0  0  0  0  0  0  0  0
   20.7464  -17.9875  -15.8390 C   0  0  0  0  0  0  0  0  0  0  0  0
   19.5445  -18.6722  -15.8906 O   0  0  0  0  0  0  0  0  0  0  0  0
   20.6756  -16.7487  -15.9421 O   0  0  0  0  0  0  0  0  0  0  0  0
  2  1  1  0
  3  2  1  0
  3  4  1  1
  5  6  2  0
  5  3  1  0
  7  5  1  0
  8  7  1  0
  9 10  1  0
  8  9  1  6
 10 11  2  0
 10 18  1  0
 11 12  1  0
 12 13  1  0
 13 14  2  0
 15 14  1  0
 16 15  2  0
 17 18  2  0
 17 16  1  0
 18 13  1  0
 19  8  1  0
 19 29  1  0
 20 19  2  0
 22 21  1  0
 23 22  2  0
 24 22  1  0
 25 26  1  0
 25 24  1  0
 26 27  1  0
 28 27  1  1
 28 29  1  0
 28 30  1  0
 30 31  1  0
 32 30  2  0
M  END
$$$$
