SWR.pdb
     RDKit          3D

 32 33  0  0  1  0  0  0  0  0999 V2000
   27.0666  -18.8820  -15.4604 O   0  0  0  0  0  0  0  0  0  0  0  0
   28.0856  -18.7529  -14.5227 C   0  0  0  0  0  0  0  0  0  0  0  0
   28.6138  -20.1318  -14.1066 C   0  0  2  0  0  0  0  0  0  0  0  0
   28.8740  -20.8198  -15.3819 N   0  0  0  0  0  0  0  0  0  0  0  0
   27.5300  -20.8467  -13.3649 C   0  0  0  0  0  0  0  0  0  0  0  0
   26.9662  -21.8555  -13.8196 O   0  0  0  0  0  0  0  0  0  0  0  0
   27.1336  -20.3638  -12.1095 N   0  0  0  0  0  0  0  0  0  0  0  0
   26.1923  -20.8152  -11.1729 C   0  0  1  0  0  0  0  0  0  0  0  0
   26.2969  -20.3386   -9.7466 C   0  0  0  0  0  0  0  0  0  0  0  0
   27.5663  -20.7959   -9.0809 C   0  0  0  0  0  0  0  0  0  0  0  0
   28.4946  -21.6848   -9.5642 C   0  0  0  0  0  0  0  0  0  0  0  0
   29.4427  -21.8146   -8.6298 N   0  0  0  0  0  0  0  0  0  0  0  0
   29.1430  -21.0266   -7.5552 C   0  0  0  0  0  0  0  0  0  0  0  0
   29.7697  -20.7965   -6.3595 C   0  0  0  0  0  0  0  0  0  0  0  0
   29.2123  -19.9157   -5.4337 C   0  0  0  0  0  0  0  0  0  0  0  0
   28.0281  -19.2583   -5.6909 C   0  0  0  0  0  0  0  0  0  0  0  0
   27.4052  -19.4950   -6.8950 C   0  0  0  0  0  0  0  0  0  0  0  0
   27.9621  -20.3799   -7.8289 C   0  0  0  0  0  0  0  0  0  0  0  0
   24.8201  -20.5938  -11.6359 C   0  0  0  0  0  0  0  0  0  0  0  0
   24.5369  -19.4294  -12.0761 O   0  0  0  0  0  0  0  0  0  0  0  0
   18.3557  -26.0927  -14.9283 N   0  0  0  0  0  0  0  0  0  0  0  0
   19.7026  -25.8268  -15.2644 C   0  0  0  0  0  0  0  0  0  0  0  0
   20.3464  -26.4652  -16.2202 N   0  0  0  0  0  0  0  0  0  0  0  0
   20.5067  -24.8339  -14.6082 N   0  0  0  0  0  0  0  0  0  0  0  0
   20.0758  -24.2068  -13.4148 C   0  0  0  0  0  0  0  0  0  0  0  0
   20.6085  -22.8487  -13.1049 C   0  0  0  0  0  0  0  0  0  0  0  0
   21.9697  -22.8144  -12.5004 C   0  0  0  0  0  0  0  0  0  0  0  0
   22.5719  -21.5054  -12.1968 C   0  0  2  0  0  0  0  0  0  0  0  0
   23.8950  -21.6442  -11.5796 N   0  0  0  0  0  0  0  0  0  0  0  0
   21.7646  -20.7005  -11.2023 C   0  0  0  0  0  0  0  0  0  0  0  0
   20.7302  -19.8700  -11.5976 O   0  0  0  0  0  0  0  0  0  0  0  0
   21.9900  -20.7496   -9.9788 O   0  0  0  0  0  0  0  0  0  0  0  0
  2  1  1  0
  3  2  1  0
  3  4  1  6
  5  6  2  0
  5  3  1  0
  7  5  1  0
  8  7  1  0
  9 10  1  0
  8  9  1  1
 10 11  2  0
 10 18  1  0
 11 12  1  0
 12 13  1  0
 13 14  2  0
 15 14  1  0
 16 15  2  0
 17 18  2  0
 17 16  1  0
 18 13  1  0
 19  8  1  0
 19 29  1  0
 20 19  2  0
 22 21  1  0
 23 22  2  0
 24 22  1  0
 25 26  1  0
 25 24  1  0
 26 27  1  0
 28 27  1  1
 28 29  1  0
 28 30  1  0
 30 31  1  0
 32 30  2  0
M  END
$$$$
