YKV.pdb
     RDKit          3D

 29 29  0  0  1  0  0  0  0  0999 V2000
    8.4655  -13.3272   16.4237 O   0  0  0  0  0  0  0  0  0  0  0  0
    8.2298  -13.7319   17.7161 C   0  0  0  0  0  0  0  0  0  0  0  0
    7.4364  -12.9286   18.5051 C   0  0  0  0  0  0  0  0  0  0  0  0
    7.1829  -13.3090   19.8047 C   0  0  0  0  0  0  0  0  0  0  0  0
    7.6907  -14.4641   20.3536 C   0  0  0  0  0  0  0  0  0  0  0  0
    7.3715  -14.8048   21.7603 C   0  0  0  0  0  0  0  0  0  0  0  0
    6.8028  -16.2021   21.8726 C   0  0  2  0  0  0  0  0  0  0  0  0
    5.4503  -16.2275   21.3469 N   0  0  0  0  0  0  0  0  0  0  0  0
    6.7952  -16.6774   23.2811 C   0  0  0  0  0  0  0  0  0  0  0  0
    5.8801  -16.3199   24.0781 O   0  0  0  0  0  0  0  0  0  0  0  0
    8.4850  -15.2507   19.5348 C   0  0  0  0  0  0  0  0  0  0  0  0
    8.7495  -14.8845   18.2294 C   0  0  0  0  0  0  0  0  0  0  0  0
    7.7930  -17.5405   23.8015 N   0  0  0  0  0  0  0  0  0  0  0  0
    7.8915  -17.7844   25.2641 C   0  0  1  0  0  0  0  0  0  0  0  0
    8.0456  -19.2428   25.5278 C   0  0  0  0  0  0  0  0  0  0  0  0
    8.2282  -19.5441   26.9811 C   0  0  0  0  0  0  0  0  0  0  0  0
    8.4255  -21.0359   27.2240 C   0  0  0  0  0  0  0  0  0  0  0  0
    8.5842  -21.2085   28.7270 C   0  0  0  0  0  0  0  0  0  0  0  0
    8.7095  -22.5986   29.0928 N   0  0  0  0  0  0  0  0  0  0  0  0
    8.9869  -16.9486   25.7983 C   0  0  0  0  0  0  0  0  0  0  0  0
   10.1228  -16.9044   25.2834 O   0  0  0  0  0  0  0  0  0  0  0  0
    8.3492  -13.9254   28.9700 C   0  0  0  0  0  0  0  0  0  0  0  0
    9.4005  -13.9386   27.8989 C   0  0  2  0  0  0  0  0  0  0  0  0
    8.8296  -13.2241   26.6688 C   0  0  0  0  0  0  0  0  0  0  0  0
    9.8536  -15.3385   27.5332 C   0  0  2  0  0  0  0  0  0  0  0  0
    8.8076  -16.1227   26.9619 N   0  0  0  0  0  0  0  0  0  0  0  0
   10.4336  -15.9401   28.7570 C   0  0  0  0  0  0  0  0  0  0  0  0
    9.9308  -16.9460   29.3167 O   0  0  0  0  0  0  0  0  0  0  0  0
   11.5658  -15.3973   29.3241 O   0  0  0  0  0  0  0  0  0  0  0  0
  2  1  1  0
  3  2  2  0
  4  3  1  0
  5  4  2  0
  5 11  1  0
  6  5  1  0
  6  7  1  0
  7  9  1  0
  7  8  1  1
  9 10  2  0
 11 12  2  0
 12  2  1  0
 13 14  1  0
 13  9  1  0
 14 15  1  6
 16 15  1  0
 17 16  1  0
 18 19  1  0
 18 17  1  0
 20 26  1  0
 20 14  1  0
 21 20  2  0
 23 22  1  1
 23 24  1  0
 25 26  1  1
 25 23  1  0
 27 29  1  0
 27 25  1  0
 28 27  2  0
M  END
$$$$
