YKV.pdb
     RDKit          3D

 29 29  0  0  1  0  0  0  0  0999 V2000
    7.4609  -12.7172   16.3152 O   0  0  0  0  0  0  0  0  0  0  0  0
    7.4287  -13.2436   17.5847 C   0  0  0  0  0  0  0  0  0  0  0  0
    8.0659  -12.5438   18.5854 C   0  0  0  0  0  0  0  0  0  0  0  0
    8.0502  -13.0471   19.8678 C   0  0  0  0  0  0  0  0  0  0  0  0
    7.4217  -14.2264   20.1956 C   0  0  0  0  0  0  0  0  0  0  0  0
    7.4488  -14.7017   21.5992 C   0  0  0  0  0  0  0  0  0  0  0  0
    8.7895  -15.3088   21.9489 C   0  0  2  0  0  0  0  0  0  0  0  0
    9.1566  -16.2994   20.9539 N   0  0  0  0  0  0  0  0  0  0  0  0
    8.7685  -15.9422   23.2935 C   0  0  0  0  0  0  0  0  0  0  0  0
    8.1674  -15.3880   24.2589 O   0  0  0  0  0  0  0  0  0  0  0  0
    6.7898  -14.9070   19.1672 C   0  0  0  0  0  0  0  0  0  0  0  0
    6.7956  -14.4169   17.8757 C   0  0  0  0  0  0  0  0  0  0  0  0
    9.4082  -17.1784   23.5658 N   0  0  0  0  0  0  0  0  0  0  0  0
    9.4201  -17.7342   24.9439 C   0  0  1  0  0  0  0  0  0  0  0  0
    9.8304  -19.1664   24.9117 C   0  0  0  0  0  0  0  0  0  0  0  0
    9.8976  -19.7718   26.2774 C   0  0  0  0  0  0  0  0  0  0  0  0
   10.3373  -21.2303   26.2232 C   0  0  0  0  0  0  0  0  0  0  0  0
   10.4071  -21.7112   27.6646 C   0  0  0  0  0  0  0  0  0  0  0  0
   10.7664  -23.1064   27.7434 N   0  0  0  0  0  0  0  0  0  0  0  0
   10.2796  -16.8719   25.7815 C   0  0  0  0  0  0  0  0  0  0  0  0
   11.4964  -16.7041   25.5614 O   0  0  0  0  0  0  0  0  0  0  0  0
    9.2387  -13.9661   29.3843 C   0  0  0  0  0  0  0  0  0  0  0  0
    9.9958  -14.0247   28.0897 C   0  0  2  0  0  0  0  0  0  0  0  0
    9.0422  -13.6030   26.9661 C   0  0  0  0  0  0  0  0  0  0  0  0
   10.5730  -15.3974   27.8046 C   0  0  2  0  0  0  0  0  0  0  0  0
    9.7579  -16.1629   26.9187 N   0  0  0  0  0  0  0  0  0  0  0  0
   10.7920  -16.0561   29.1140 C   0  0  0  0  0  0  0  0  0  0  0  0
   10.1347  -17.0619   29.4805 O   0  0  0  0  0  0  0  0  0  0  0  0
   11.7449  -15.5693   29.9818 O   0  0  0  0  0  0  0  0  0  0  0  0
  2  1  1  0
  3  2  2  0
  4  3  1  0
  5  4  2  0
  5 11  1  0
  6  5  1  0
  6  7  1  0
  7  9  1  0
  7  8  1  6
  9 10  2  0
 11 12  2  0
 12  2  1  0
 13 14  1  0
 13  9  1  0
 14 15  1  6
 16 15  1  0
 17 16  1  0
 18 19  1  0
 18 17  1  0
 20 26  1  0
 20 14  1  0
 21 20  2  0
 23 22  1  1
 23 24  1  0
 25 26  1  6
 25 23  1  0
 27 29  1  0
 27 25  1  0
 28 27  2  0
M  END
$$$$
