YKV.pdb
     RDKit          3D

 29 29  0  0  1  0  0  0  0  0999 V2000
    9.0697  -14.0157   15.8809 O   0  0  0  0  0  0  0  0  0  0  0  0
    8.4629  -14.2289   17.0958 C   0  0  0  0  0  0  0  0  0  0  0  0
    8.4995  -15.5038   17.6160 C   0  0  0  0  0  0  0  0  0  0  0  0
    7.8997  -15.7473   18.8321 C   0  0  0  0  0  0  0  0  0  0  0  0
    7.2609  -14.7664   19.5554 C   0  0  0  0  0  0  0  0  0  0  0  0
    6.6397  -15.1075   20.8571 C   0  0  0  0  0  0  0  0  0  0  0  0
    6.4692  -16.6028   21.0103 C   0  0  2  0  0  0  0  0  0  0  0  0
    5.3549  -17.0576   20.1993 N   0  0  0  0  0  0  0  0  0  0  0  0
    6.2370  -16.9837   22.4283 C   0  0  0  0  0  0  0  0  0  0  0  0
    5.0823  -16.9003   22.9384 O   0  0  0  0  0  0  0  0  0  0  0  0
    7.2411  -13.4945   19.0056 C   0  0  0  0  0  0  0  0  0  0  0  0
    7.8375  -13.2327   17.7874 C   0  0  0  0  0  0  0  0  0  0  0  0
    7.2751  -17.4524   23.2734 N   0  0  0  0  0  0  0  0  0  0  0  0
    7.0995  -17.4636   24.7490 C   0  0  1  0  0  0  0  0  0  0  0  0
    7.3931  -18.8221   25.2863 C   0  0  0  0  0  0  0  0  0  0  0  0
    8.6786  -19.3778   24.7621 C   0  0  0  0  0  0  0  0  0  0  0  0
    8.9980  -20.7330   25.3825 C   0  0  0  0  0  0  0  0  0  0  0  0
   10.2731  -21.2218   24.7125 C   0  0  0  0  0  0  0  0  0  0  0  0
   10.6834  -22.5075   25.2228 N   0  0  0  0  0  0  0  0  0  0  0  0
    7.9352  -16.3875   25.3211 C   0  0  0  0  0  0  0  0  0  0  0  0
    9.1076  -16.1680   24.9543 O   0  0  0  0  0  0  0  0  0  0  0  0
    6.7066  -12.6448   26.1889 C   0  0  0  0  0  0  0  0  0  0  0  0
    7.4120  -13.2789   27.3520 C   0  0  2  0  0  0  0  0  0  0  0  0
    8.3097  -12.2162   27.9957 C   0  0  0  0  0  0  0  0  0  0  0  0
    8.2307  -14.4921   26.9563 C   0  0  2  0  0  0  0  0  0  0  0  0
    7.4405  -15.5143   26.3512 N   0  0  0  0  0  0  0  0  0  0  0  0
    8.9455  -14.9481   28.1717 C   0  0  0  0  0  0  0  0  0  0  0  0
    8.6910  -16.0431   28.7321 O   0  0  0  0  0  0  0  0  0  0  0  0
    9.9304  -14.1628   28.7297 O   0  0  0  0  0  0  0  0  0  0  0  0
  2  1  1  0
  3  2  2  0
  4  3  1  0
  5  4  2  0
  5 11  1  0
  6  5  1  0
  6  7  1  0
  7  9  1  0
  7  8  1  6
  9 10  2  0
 11 12  2  0
 12  2  1  0
 13 14  1  0
 13  9  1  0
 14 15  1  1
 16 15  1  0
 17 16  1  0
 18 19  1  0
 18 17  1  0
 20 26  1  0
 20 14  1  0
 21 20  2  0
 23 22  1  6
 23 24  1  0
 25 26  1  1
 25 23  1  0
 27 29  1  0
 27 25  1  0
 28 27  2  0
M  END
$$$$
