YKV.pdb
     RDKit          3D

 29 29  0  0  1  0  0  0  0  0999 V2000
    6.8172  -10.6311   27.1887 O   0  0  0  0  0  0  0  0  0  0  0  0
    6.8152  -11.9932   27.0036 C   0  0  0  0  0  0  0  0  0  0  0  0
    8.0319  -12.6225   26.8585 C   0  0  0  0  0  0  0  0  0  0  0  0
    8.0609  -13.9871   26.6715 C   0  0  0  0  0  0  0  0  0  0  0  0
    6.9202  -14.7550   26.6229 C   0  0  0  0  0  0  0  0  0  0  0  0
    7.0343  -16.2186   26.4190 C   0  0  0  0  0  0  0  0  0  0  0  0
    6.3438  -16.6521   25.1447 C   0  0  2  0  0  0  0  0  0  0  0  0
    5.9908  -18.0572   25.2288 N   0  0  0  0  0  0  0  0  0  0  0  0
    7.2048  -16.4286   23.9536 C   0  0  0  0  0  0  0  0  0  0  0  0
    8.1251  -17.2454   23.6599 O   0  0  0  0  0  0  0  0  0  0  0  0
    5.7120  -14.0929   26.7721 C   0  0  0  0  0  0  0  0  0  0  0  0
    5.6645  -12.7253   26.9604 C   0  0  0  0  0  0  0  0  0  0  0  0
    7.0473  -15.3100   23.0961 N   0  0  0  0  0  0  0  0  0  0  0  0
    7.9395  -15.1282   21.9217 C   0  0  1  0  0  0  0  0  0  0  0  0
    7.6059  -13.8562   21.2210 C   0  0  0  0  0  0  0  0  0  0  0  0
    8.5110  -13.5890   20.0610 C   0  0  0  0  0  0  0  0  0  0  0  0
    7.8932  -14.0566   18.7484 C   0  0  0  0  0  0  0  0  0  0  0  0
    8.9319  -13.7954   17.6682 C   0  0  0  0  0  0  0  0  0  0  0  0
    8.4448  -14.1641   16.3610 N   0  0  0  0  0  0  0  0  0  0  0  0
    9.3391  -15.2195   22.3872 C   0  0  0  0  0  0  0  0  0  0  0  0
    9.8340  -14.4284   23.2158 O   0  0  0  0  0  0  0  0  0  0  0  0
   11.6949  -18.7008   21.4925 C   0  0  0  0  0  0  0  0  0  0  0  0
   12.0642  -17.7224   22.5691 C   0  0  2  0  0  0  0  0  0  0  0  0
   11.4445  -18.2109   23.8832 C   0  0  0  0  0  0  0  0  0  0  0  0
   11.6088  -16.3088   22.2642 C   0  0  2  0  0  0  0  0  0  0  0  0
   10.2294  -16.2413   21.9062 N   0  0  0  0  0  0  0  0  0  0  0  0
   12.5117  -15.7791   21.2152 C   0  0  0  0  0  0  0  0  0  0  0  0
   13.7133  -15.4919   21.4425 O   0  0  0  0  0  0  0  0  0  0  0  0
   12.0435  -15.5842   19.9342 O   0  0  0  0  0  0  0  0  0  0  0  0
  2  1  1  0
  3  2  2  0
  4  3  1  0
  5  4  2  0
  5 11  1  0
  6  5  1  0
  6  7  1  0
  7  9  1  0
  7  8  1  1
  9 10  2  0
 11 12  2  0
 12  2  1  0
 13 14  1  0
 13  9  1  0
 14 15  1  1
 16 15  1  0
 17 16  1  0
 18 19  1  0
 18 17  1  0
 20 26  1  0
 20 14  1  0
 21 20  2  0
 23 22  1  6
 23 24  1  0
 25 26  1  6
 25 23  1  0
 27 29  1  0
 27 25  1  0
 28 27  2  0
M  END
$$$$
