YKV.pdb
     RDKit          3D

 29 29  0  0  1  0  0  0  0  0999 V2000
    8.6095  -13.3249   16.4991 O   0  0  0  0  0  0  0  0  0  0  0  0
    8.2508  -13.5943   17.7984 C   0  0  0  0  0  0  0  0  0  0  0  0
    8.1773  -14.9150   18.1828 C   0  0  0  0  0  0  0  0  0  0  0  0
    7.8203  -15.2153   19.4791 C   0  0  0  0  0  0  0  0  0  0  0  0
    7.5317  -14.2475   20.4137 C   0  0  0  0  0  0  0  0  0  0  0  0
    7.1558  -14.6511   21.7893 C   0  0  0  0  0  0  0  0  0  0  0  0
    6.8500  -16.1307   21.8645 C   0  0  2  0  0  0  0  0  0  0  0  0
    5.5443  -16.3942   21.2883 N   0  0  0  0  0  0  0  0  0  0  0  0
    6.8809  -16.6245   23.2664 C   0  0  0  0  0  0  0  0  0  0  0  0
    6.0684  -16.1768   24.1265 O   0  0  0  0  0  0  0  0  0  0  0  0
    7.6144  -12.9287   19.9965 C   0  0  0  0  0  0  0  0  0  0  0  0
    7.9708  -12.6095   18.7006 C   0  0  0  0  0  0  0  0  0  0  0  0
    7.8042  -17.6050   23.7108 N   0  0  0  0  0  0  0  0  0  0  0  0
    7.9005  -17.9520   25.1526 C   0  0  1  0  0  0  0  0  0  0  0  0
    8.1694  -19.4093   25.3086 C   0  0  0  0  0  0  0  0  0  0  0  0
    6.9667  -20.2468   25.0115 C   0  0  0  0  0  0  0  0  0  0  0  0
    7.3084  -21.7322   24.9931 C   0  0  0  0  0  0  0  0  0  0  0  0
    6.0058  -22.4688   24.7206 C   0  0  0  0  0  0  0  0  0  0  0  0
    5.7765  -23.5188   25.6834 N   0  0  0  0  0  0  0  0  0  0  0  0
    8.9158  -17.0745   25.7714 C   0  0  0  0  0  0  0  0  0  0  0  0
   10.0288  -16.8505   25.2534 O   0  0  0  0  0  0  0  0  0  0  0  0
    8.4915  -13.4273   27.0849 C   0  0  0  0  0  0  0  0  0  0  0  0
    9.0513  -14.2866   28.1808 C   0  0  2  0  0  0  0  0  0  0  0  0
   10.1141  -13.4699   28.9244 C   0  0  0  0  0  0  0  0  0  0  0  0
    9.6453  -15.5842   27.6688 C   0  0  2  0  0  0  0  0  0  0  0  0
    8.6792  -16.4151   27.0273 N   0  0  0  0  0  0  0  0  0  0  0  0
   10.3095  -16.2408   28.8194 C   0  0  0  0  0  0  0  0  0  0  0  0
    9.8715  -17.2985   29.3364 O   0  0  0  0  0  0  0  0  0  0  0  0
   11.4510  -15.6935   29.3629 O   0  0  0  0  0  0  0  0  0  0  0  0
  2  1  1  0
  3  2  2  0
  4  3  1  0
  5  4  2  0
  5 11  1  0
  6  5  1  0
  6  7  1  0
  7  9  1  0
  7  8  1  1
  9 10  2  0
 11 12  2  0
 12  2  1  0
 13 14  1  0
 13  9  1  0
 14 15  1  6
 16 15  1  0
 17 16  1  0
 18 19  1  0
 18 17  1  0
 20 26  1  0
 20 14  1  0
 21 20  2  0
 23 22  1  6
 23 24  1  0
 25 26  1  1
 25 23  1  0
 27 29  1  0
 27 25  1  0
 28 27  2  0
M  END
$$$$
