YKV.pdb
     RDKit          3D

 29 29  0  0  1  0  0  0  0  0999 V2000
    4.8818   -9.7280   25.7389 O   0  0  0  0  0  0  0  0  0  0  0  0
    5.4984  -10.9533   25.8289 C   0  0  0  0  0  0  0  0  0  0  0  0
    6.6049  -11.1741   25.0388 C   0  0  0  0  0  0  0  0  0  0  0  0
    7.2435  -12.3929   25.1079 C   0  0  0  0  0  0  0  0  0  0  0  0
    6.8219  -13.4069   25.9370 C   0  0  0  0  0  0  0  0  0  0  0  0
    7.5632  -14.6902   25.9548 C   0  0  0  0  0  0  0  0  0  0  0  0
    7.2541  -15.5212   24.7292 C   0  0  2  0  0  0  0  0  0  0  0  0
    5.9223  -16.0870   24.8402 N   0  0  0  0  0  0  0  0  0  0  0  0
    8.2432  -16.6160   24.5477 C   0  0  0  0  0  0  0  0  0  0  0  0
    8.1729  -17.6712   25.2421 O   0  0  0  0  0  0  0  0  0  0  0  0
    5.7063  -13.1542   26.7191 C   0  0  0  0  0  0  0  0  0  0  0  0
    5.0538  -11.9379   26.6625 C   0  0  0  0  0  0  0  0  0  0  0  0
    9.3008  -16.5419   23.6057 N   0  0  0  0  0  0  0  0  0  0  0  0
   10.5401  -17.3389   23.7984 C   0  0  1  0  0  0  0  0  0  0  0  0
   11.3163  -17.3886   22.5274 C   0  0  0  0  0  0  0  0  0  0  0  0
   10.5139  -17.9338   21.3894 C   0  0  0  0  0  0  0  0  0  0  0  0
   11.2724  -17.8358   20.0709 C   0  0  0  0  0  0  0  0  0  0  0  0
   10.3307  -18.3542   18.9946 C   0  0  0  0  0  0  0  0  0  0  0  0
   10.8762  -18.1627   17.6727 N   0  0  0  0  0  0  0  0  0  0  0  0
   11.2806  -16.7703   24.9439 C   0  0  0  0  0  0  0  0  0  0  0  0
   12.2721  -16.0242   24.8108 O   0  0  0  0  0  0  0  0  0  0  0  0
    9.7481  -16.3215   29.0242 C   0  0  0  0  0  0  0  0  0  0  0  0
   10.9156  -15.6786   28.3341 C   0  0  2  0  0  0  0  0  0  0  0  0
   10.3887  -14.4865   27.5273 C   0  0  0  0  0  0  0  0  0  0  0  0
   11.6681  -16.6360   27.4309 C   0  0  2  0  0  0  0  0  0  0  0  0
   10.8980  -17.0465   26.3023 N   0  0  0  0  0  0  0  0  0  0  0  0
   12.1161  -17.7679   28.2760 C   0  0  0  0  0  0  0  0  0  0  0  0
   11.6728  -18.9341   28.1305 O   0  0  0  0  0  0  0  0  0  0  0  0
   13.0525  -17.5632   29.2657 O   0  0  0  0  0  0  0  0  0  0  0  0
  2  1  1  0
  3  2  2  0
  4  3  1  0
  5  4  2  0
  5 11  1  0
  6  5  1  0
  6  7  1  0
  7  9  1  0
  7  8  1  1
  9 10  2  0
 11 12  2  0
 12  2  1  0
 13 14  1  0
 13  9  1  0
 14 15  1  6
 16 15  1  0
 17 16  1  0
 18 19  1  0
 18 17  1  0
 20 26  1  0
 20 14  1  0
 21 20  2  0
 23 22  1  6
 23 24  1  0
 25 26  1  6
 25 23  1  0
 27 29  1  0
 27 25  1  0
 28 27  2  0
M  END
$$$$
