TMT.pdb
     RDKit          3D

 23 22  0  0  1  0  0  0  0  0999 V2000
   22.7826   -9.6330  -20.3107 C   0  0  0  0  0  0  0  0  0  0  0  0
   21.9500  -10.7877  -19.7964 C   0  0  1  0  0  0  0  0  0  0  0  0
   21.6537  -11.6147  -20.8794 O   0  0  0  0  0  0  0  0  0  0  0  0
   22.7179  -11.5504  -18.7401 C   0  0  2  0  0  0  0  0  0  0  0  0
   22.0602  -12.7824  -18.3821 N   0  0  0  0  0  0  0  0  0  0  0  0
   23.0511  -10.7040  -17.5742 C   0  0  0  0  0  0  0  0  0  0  0  0
   22.1753  -10.4734  -16.7324 O   0  0  0  0  0  0  0  0  0  0  0  0
   27.6643  -13.2886  -15.8650 C   0  0  0  0  0  0  0  0  0  0  0  0
   27.9723  -11.4868  -15.7564 S   0  0  0  0  0  0  0  0  0  0  0  0
   26.4736  -10.7494  -15.1151 C   0  0  0  0  0  0  0  0  0  0  0  0
   26.0610   -9.4680  -15.7062 C   0  0  0  0  0  0  0  0  0  0  0  0
   24.6797   -9.3350  -16.2220 C   0  0  2  0  0  0  0  0  0  0  0  0
   24.3568  -10.1345  -17.3760 N   0  0  0  0  0  0  0  0  0  0  0  0
   24.3188   -7.9118  -16.4987 C   0  0  0  0  0  0  0  0  0  0  0  0
   24.8610   -7.2510  -17.4203 O   0  0  0  0  0  0  0  0  0  0  0  0
   20.9245   -4.5401  -16.7208 C   0  0  0  0  0  0  0  0  0  0  0  0
   21.4837   -5.9263  -16.5012 C   0  0  1  0  0  0  0  0  0  0  0  0
   21.3874   -6.6788  -17.6502 O   0  0  0  0  0  0  0  0  0  0  0  0
   22.9114   -5.8798  -15.9994 C   0  0  2  0  0  0  0  0  0  0  0  0
   23.3383   -7.2500  -15.7193 N   0  0  0  0  0  0  0  0  0  0  0  0
   22.9628   -5.1529  -14.7034 C   0  0  0  0  0  0  0  0  0  0  0  0
   23.1168   -3.7757  -14.6097 O   0  0  0  0  0  0  0  0  0  0  0  0
   22.8645   -5.7915  -13.6232 O   0  0  0  0  0  0  0  0  0  0  0  0
  2  1  1  6
  3  2  1  0
  4  2  1  0
  4  6  1  0
  4  5  1  1
  6  7  2  0
  9  8  1  0
  9 10  1  0
 10 11  1  0
 12 11  1  6
 13 12  1  0
 13  6  1  0
 14 12  1  0
 14 15  2  0
 17 16  1  6
 17 19  1  0
 18 17  1  0
 19 20  1  1
 19 21  1  0
 20 14  1  0
 21 22  1  0
 23 21  2  0
M  END
$$$$
