TMT.pdb
     RDKit          3D

 23 22  0  0  1  0  0  0  0  0999 V2000
   19.6531   -8.5565  -19.7040 C   0  0  0  0  0  0  0  0  0  0  0  0
   18.5659   -9.6077  -19.6402 C   0  0  1  0  0  0  0  0  0  0  0  0
   18.4165  -10.1439  -20.9188 O   0  0  0  0  0  0  0  0  0  0  0  0
   18.9465  -10.6878  -18.6525 C   0  0  2  0  0  0  0  0  0  0  0  0
   17.9972  -11.7729  -18.6504 N   0  0  0  0  0  0  0  0  0  0  0  0
   19.2137  -10.1407  -17.3049 C   0  0  0  0  0  0  0  0  0  0  0  0
   18.2627   -9.9441  -16.5396 O   0  0  0  0  0  0  0  0  0  0  0  0
   22.8960   -9.7431  -10.5625 C   0  0  0  0  0  0  0  0  0  0  0  0
   22.6799  -10.6747  -12.1240 S   0  0  0  0  0  0  0  0  0  0  0  0
   21.8900   -9.5600  -13.2795 C   0  0  0  0  0  0  0  0  0  0  0  0
   21.4796  -10.1282  -14.5719 C   0  0  0  0  0  0  0  0  0  0  0  0
   20.7853   -9.2543  -15.5444 C   0  0  2  0  0  0  0  0  0  0  0  0
   20.5390   -9.8257  -16.8435 N   0  0  0  0  0  0  0  0  0  0  0  0
   21.4780   -7.9412  -15.7129 C   0  0  0  0  0  0  0  0  0  0  0  0
   22.5351   -7.8234  -16.3825 O   0  0  0  0  0  0  0  0  0  0  0  0
   20.5795   -4.8256  -17.3688 C   0  0  0  0  0  0  0  0  0  0  0  0
   20.7201   -4.5026  -15.8997 C   0  0  1  0  0  0  0  0  0  0  0  0
   19.4867   -4.4616  -15.2890 O   0  0  0  0  0  0  0  0  0  0  0  0
   21.6420   -5.4778  -15.1989 C   0  0  2  0  0  0  0  0  0  0  0  0
   20.9579   -6.7674  -15.1141 N   0  0  0  0  0  0  0  0  0  0  0  0
   21.8700   -5.0329  -13.7986 C   0  0  0  0  0  0  0  0  0  0  0  0
   22.5517   -3.8675  -13.4726 O   0  0  0  0  0  0  0  0  0  0  0  0
   21.4352   -5.7268  -12.8427 O   0  0  0  0  0  0  0  0  0  0  0  0
  2  1  1  6
  3  2  1  0
  4  2  1  0
  4  6  1  0
  4  5  1  1
  6  7  2  0
  9  8  1  0
  9 10  1  0
 10 11  1  0
 12 11  1  1
 13 12  1  0
 13  6  1  0
 14 12  1  0
 14 15  2  0
 17 16  1  6
 17 19  1  0
 18 17  1  0
 19 20  1  1
 19 21  1  0
 20 14  1  0
 21 22  1  0
 23 21  2  0
M  END
$$$$
