TMT.pdb
     RDKit          3D

 23 22  0  0  1  0  0  0  0  0999 V2000
   19.5862   -9.5193  -18.3715 C   0  0  0  0  0  0  0  0  0  0  0  0
   19.3497  -10.8669  -17.7242 C   0  0  1  0  0  0  0  0  0  0  0  0
   18.6403  -11.6556  -18.6294 O   0  0  0  0  0  0  0  0  0  0  0  0
   20.6716  -11.5147  -17.3777 C   0  0  2  0  0  0  0  0  0  0  0  0
   20.5045  -12.8806  -16.9478 N   0  0  0  0  0  0  0  0  0  0  0  0
   21.4621  -10.6960  -16.4334 C   0  0  0  0  0  0  0  0  0  0  0  0
   21.0444  -10.5426  -15.2797 O   0  0  0  0  0  0  0  0  0  0  0  0
   27.6178  -12.5759  -15.0581 C   0  0  0  0  0  0  0  0  0  0  0  0
   27.2347  -10.8629  -15.5792 S   0  0  0  0  0  0  0  0  0  0  0  0
   25.4527  -10.7057  -15.5496 C   0  0  0  0  0  0  0  0  0  0  0  0
   24.8992   -9.3847  -15.8818 C   0  0  0  0  0  0  0  0  0  0  0  0
   23.4288   -9.2132  -15.8963 C   0  0  2  0  0  0  0  0  0  0  0  0
   22.7022  -10.0670  -16.8008 N   0  0  0  0  0  0  0  0  0  0  0  0
   23.0320   -7.7937  -16.1415 C   0  0  0  0  0  0  0  0  0  0  0  0
   23.2683   -7.2113  -17.2300 O   0  0  0  0  0  0  0  0  0  0  0  0
   19.8465   -6.3839  -16.5646 C   0  0  0  0  0  0  0  0  0  0  0  0
   20.4056   -5.6633  -15.3602 C   0  0  1  0  0  0  0  0  0  0  0  0
   19.9063   -6.2007  -14.1950 O   0  0  0  0  0  0  0  0  0  0  0  0
   21.9196   -5.6708  -15.3576 C   0  0  2  0  0  0  0  0  0  0  0  0
   22.3658   -7.0460  -15.1395 N   0  0  0  0  0  0  0  0  0  0  0  0
   22.4219   -4.8803  -14.2028 C   0  0  0  0  0  0  0  0  0  0  0  0
   22.2503   -3.5067  -14.0895 O   0  0  0  0  0  0  0  0  0  0  0  0
   23.0359   -5.4583  -13.2683 O   0  0  0  0  0  0  0  0  0  0  0  0
  2  1  1  6
  3  2  1  0
  4  2  1  0
  4  6  1  0
  4  5  1  1
  6  7  2  0
  9  8  1  0
  9 10  1  0
 10 11  1  0
 12 11  1  6
 13 12  1  0
 13  6  1  0
 14 12  1  0
 14 15  2  0
 17 16  1  6
 17 19  1  0
 18 17  1  0
 19 20  1  1
 19 21  1  0
 20 14  1  0
 21 22  1  0
 23 21  2  0
M  END
$$$$
