TMT.pdb
     RDKit          3D

 23 22  0  0  1  0  0  0  0  0999 V2000
   16.6928  -20.9275  -14.0526 C   0  0  0  0  0  0  0  0  0  0  0  0
   15.7095  -21.7484  -13.2463 C   0  0  1  0  0  0  0  0  0  0  0  0
   16.2147  -23.0446  -13.1502 O   0  0  0  0  0  0  0  0  0  0  0  0
   15.5342  -21.1435  -11.8713 C   0  0  2  0  0  0  0  0  0  0  0  0
   14.6992  -21.9611  -11.0269 N   0  0  0  0  0  0  0  0  0  0  0  0
   15.0982  -19.7319  -11.9356 C   0  0  0  0  0  0  0  0  0  0  0  0
   13.9566  -19.4759  -12.3355 O   0  0  0  0  0  0  0  0  0  0  0  0
   14.6280  -12.6193   -8.8907 C   0  0  0  0  0  0  0  0  0  0  0  0
   15.1479  -14.3541   -8.6202 S   0  0  0  0  0  0  0  0  0  0  0  0
   15.0764  -15.1639  -10.2141 C   0  0  0  0  0  0  0  0  0  0  0  0
   15.5303  -16.5613  -10.2674 C   0  0  0  0  0  0  0  0  0  0  0  0
   15.4977  -17.2703  -11.5665 C   0  0  2  0  0  0  0  0  0  0  0  0
   15.9493  -18.6381  -11.5511 N   0  0  0  0  0  0  0  0  0  0  0  0
   16.2357  -16.5255  -12.6309 C   0  0  0  0  0  0  0  0  0  0  0  0
   17.4878  -16.5689  -12.7324 O   0  0  0  0  0  0  0  0  0  0  0  0
   15.6243  -16.5295  -16.5205 C   0  0  0  0  0  0  0  0  0  0  0  0
   15.4267  -15.1605  -15.9127 C   0  0  1  0  0  0  0  0  0  0  0  0
   14.0899  -14.9106  -15.6977 O   0  0  0  0  0  0  0  0  0  0  0  0
   16.2232  -14.9959  -14.6357 C   0  0  2  0  0  0  0  0  0  0  0  0
   15.5376  -15.7334  -13.5755 N   0  0  0  0  0  0  0  0  0  0  0  0
   16.2167  -13.5676  -14.2225 C   0  0  0  0  0  0  0  0  0  0  0  0
   16.8461  -12.5636  -14.9473 O   0  0  0  0  0  0  0  0  0  0  0  0
   15.6197  -13.2233  -13.1693 O   0  0  0  0  0  0  0  0  0  0  0  0
  2  1  1  6
  3  2  1  0
  4  2  1  0
  4  6  1  0
  4  5  1  1
  6  7  2  0
  9  8  1  0
  9 10  1  0
 10 11  1  0
 12 11  1  1
 13 12  1  0
 13  6  1  0
 14 12  1  0
 14 15  2  0
 17 16  1  1
 17 19  1  0
 18 17  1  0
 19 20  1  1
 19 21  1  0
 20 14  1  0
 21 22  1  0
 23 21  2  0
M  END
$$$$
