TMT.pdb
     RDKit          3D

 23 22  0  0  1  0  0  0  0  0999 V2000
   19.7531   -8.3902  -19.8671 C   0  0  0  0  0  0  0  0  0  0  0  0
   18.9948   -9.5470  -19.2524 C   0  0  1  0  0  0  0  0  0  0  0  0
   18.1907  -10.1050  -20.2458 O   0  0  0  0  0  0  0  0  0  0  0  0
   19.9647  -10.5751  -18.7143 C   0  0  2  0  0  0  0  0  0  0  0  0
   19.2958  -11.7892  -18.3177 N   0  0  0  0  0  0  0  0  0  0  0  0
   20.8394  -10.0172  -17.6606 C   0  0  0  0  0  0  0  0  0  0  0  0
   20.4027   -9.9242  -16.5076 O   0  0  0  0  0  0  0  0  0  0  0  0
   26.7644  -11.5186  -15.3276 C   0  0  0  0  0  0  0  0  0  0  0  0
   26.9821   -9.7619  -15.7961 S   0  0  0  0  0  0  0  0  0  0  0  0
   25.3464   -9.0379  -15.8406 C   0  0  0  0  0  0  0  0  0  0  0  0
   24.4273   -9.5420  -16.8715 C   0  0  0  0  0  0  0  0  0  0  0  0
   23.0325   -9.0462  -16.8842 C   0  0  2  0  0  0  0  0  0  0  0  0
   22.1834   -9.5758  -17.9204 N   0  0  0  0  0  0  0  0  0  0  0  0
   22.9678   -7.5538  -16.9165 C   0  0  0  0  0  0  0  0  0  0  0  0
   23.4249   -6.8849  -17.8774 O   0  0  0  0  0  0  0  0  0  0  0  0
   20.2446   -5.6162  -17.4859 C   0  0  0  0  0  0  0  0  0  0  0  0
   20.6938   -5.1346  -16.1262 C   0  0  1  0  0  0  0  0  0  0  0  0
   19.9381   -5.7113  -15.1302 O   0  0  0  0  0  0  0  0  0  0  0  0
   22.1701   -5.3865  -15.9040 C   0  0  2  0  0  0  0  0  0  0  0  0
   22.3799   -6.8325  -15.8483 N   0  0  0  0  0  0  0  0  0  0  0  0
   22.5741   -4.8542  -14.5757 C   0  0  0  0  0  0  0  0  0  0  0  0
   22.6624   -3.4967  -14.2955 O   0  0  0  0  0  0  0  0  0  0  0  0
   22.8554   -5.6498  -13.6418 O   0  0  0  0  0  0  0  0  0  0  0  0
  2  1  1  6
  3  2  1  0
  4  2  1  0
  4  6  1  0
  4  5  1  1
  6  7  2  0
  9  8  1  0
  9 10  1  0
 10 11  1  0
 12 11  1  6
 13 12  1  0
 13  6  1  0
 14 12  1  0
 14 15  2  0
 17 16  1  6
 17 19  1  0
 18 17  1  0
 19 20  1  1
 19 21  1  0
 20 14  1  0
 21 22  1  0
 23 21  2  0
M  END
$$$$
