TMT.pdb
     RDKit          3D

 23 22  0  0  1  0  0  0  0  0999 V2000
   17.9662   -8.3433  -18.1766 C   0  0  0  0  0  0  0  0  0  0  0  0
   17.3392   -9.5711  -17.5516 C   0  0  1  0  0  0  0  0  0  0  0  0
   16.3138  -10.0009  -18.3933 O   0  0  0  0  0  0  0  0  0  0  0  0
   18.3792  -10.6563  -17.3846 C   0  0  2  0  0  0  0  0  0  0  0  0
   17.7890  -11.9094  -16.9849 N   0  0  0  0  0  0  0  0  0  0  0  0
   19.4942  -10.2292  -16.5121 C   0  0  0  0  0  0  0  0  0  0  0  0
   19.3953  -10.3945  -15.2908 O   0  0  0  0  0  0  0  0  0  0  0  0
   26.9367   -9.9484  -14.5818 C   0  0  0  0  0  0  0  0  0  0  0  0
   25.7240  -10.5415  -15.8191 S   0  0  0  0  0  0  0  0  0  0  0  0
   24.2281   -9.5934  -15.5644 C   0  0  0  0  0  0  0  0  0  0  0  0
   23.0664   -9.9559  -16.3893 C   0  0  0  0  0  0  0  0  0  0  0  0
   21.7883   -9.2416  -16.1703 C   0  0  2  0  0  0  0  0  0  0  0  0
   20.6950   -9.6266  -17.0255 N   0  0  0  0  0  0  0  0  0  0  0  0
   21.9568   -7.7583  -16.2326 C   0  0  0  0  0  0  0  0  0  0  0  0
   22.5191   -7.1889  -17.2018 O   0  0  0  0  0  0  0  0  0  0  0  0
   19.5709   -5.0577  -16.5478 C   0  0  0  0  0  0  0  0  0  0  0  0
   20.2588   -4.8563  -15.2178 C   0  0  1  0  0  0  0  0  0  0  0  0
   19.4847   -5.3447  -14.1893 O   0  0  0  0  0  0  0  0  0  0  0  0
   21.6389   -5.4785  -15.2028 C   0  0  2  0  0  0  0  0  0  0  0  0
   21.4807   -6.9321  -15.1850 N   0  0  0  0  0  0  0  0  0  0  0  0
   22.3364   -5.1186  -13.9399 C   0  0  0  0  0  0  0  0  0  0  0  0
   22.7622   -3.8293  -13.6474 O   0  0  0  0  0  0  0  0  0  0  0  0
   22.5650   -6.0055  -13.0765 O   0  0  0  0  0  0  0  0  0  0  0  0
  2  1  1  6
  3  2  1  0
  4  2  1  0
  4  6  1  0
  4  5  1  1
  6  7  2  0
  9  8  1  0
  9 10  1  0
 10 11  1  0
 12 11  1  6
 13 12  1  0
 13  6  1  0
 14 12  1  0
 14 15  2  0
 17 16  1  6
 17 19  1  0
 18 17  1  0
 19 20  1  1
 19 21  1  0
 20 14  1  0
 21 22  1  0
 23 21  2  0
M  END
$$$$
