TMT.pdb
     RDKit          3D

 23 22  0  0  1  0  0  0  0  0999 V2000
   18.6105  -12.7152  -17.0581 C   0  0  0  0  0  0  0  0  0  0  0  0
   19.5087  -11.9187  -16.1362 C   0  0  1  0  0  0  0  0  0  0  0  0
   20.5035  -12.7753  -15.6659 O   0  0  0  0  0  0  0  0  0  0  0  0
   20.1198  -10.7557  -16.8853 C   0  0  2  0  0  0  0  0  0  0  0  0
   20.7934  -11.1840  -18.0859 N   0  0  0  0  0  0  0  0  0  0  0  0
   20.9617   -9.9111  -16.0109 C   0  0  0  0  0  0  0  0  0  0  0  0
   20.4916   -9.4993  -14.9441 O   0  0  0  0  0  0  0  0  0  0  0  0
   27.2481  -10.4555  -16.9779 C   0  0  0  0  0  0  0  0  0  0  0  0
   26.7047  -11.0182  -15.3222 S   0  0  0  0  0  0  0  0  0  0  0  0
   24.9698  -10.6029  -15.1848 C   0  0  0  0  0  0  0  0  0  0  0  0
   24.5992   -9.2075  -15.4628 C   0  0  0  0  0  0  0  0  0  0  0  0
   23.1671   -8.8335  -15.4361 C   0  0  2  0  0  0  0  0  0  0  0  0
   22.3111   -9.5461  -16.3496 N   0  0  0  0  0  0  0  0  0  0  0  0
   22.9671   -7.3650  -15.6259 C   0  0  0  0  0  0  0  0  0  0  0  0
   23.4273   -6.7501  -16.6209 O   0  0  0  0  0  0  0  0  0  0  0  0
   20.0834   -5.5580  -16.4603 C   0  0  0  0  0  0  0  0  0  0  0  0
   20.4845   -5.0148  -15.1087 C   0  0  1  0  0  0  0  0  0  0  0  0
   19.7448   -5.6030  -14.1075 O   0  0  0  0  0  0  0  0  0  0  0  0
   21.9684   -5.1806  -14.8579 C   0  0  2  0  0  0  0  0  0  0  0  0
   22.2409   -6.6055  -14.6758 N   0  0  0  0  0  0  0  0  0  0  0  0
   22.3368   -4.5178  -13.5790 C   0  0  0  0  0  0  0  0  0  0  0  0
   22.2310   -3.1481  -13.3744 O   0  0  0  0  0  0  0  0  0  0  0  0
   22.7684   -5.2072  -12.6184 O   0  0  0  0  0  0  0  0  0  0  0  0
  2  1  1  6
  3  2  1  0
  4  2  1  0
  4  6  1  0
  4  5  1  6
  6  7  2  0
  9  8  1  0
  9 10  1  0
 10 11  1  0
 12 11  1  6
 13 12  1  0
 13  6  1  0
 14 12  1  0
 14 15  2  0
 17 16  1  6
 17 19  1  0
 18 17  1  0
 19 20  1  1
 19 21  1  0
 20 14  1  0
 21 22  1  0
 23 21  2  0
M  END
$$$$
