TMT.pdb
     RDKit          3D

 23 22  0  0  1  0  0  0  0  0999 V2000
   22.3441  -22.9977  -14.0442 C   0  0  0  0  0  0  0  0  0  0  0  0
   21.4201  -21.8030  -14.1439 C   0  0  1  0  0  0  0  0  0  0  0  0
   20.1247  -22.2815  -14.3381 O   0  0  0  0  0  0  0  0  0  0  0  0
   21.4980  -20.9803  -12.8773 C   0  0  2  0  0  0  0  0  0  0  0  0
   20.5296  -19.9123  -12.8696 N   0  0  0  0  0  0  0  0  0  0  0  0
   22.8757  -20.5237  -12.5941 C   0  0  0  0  0  0  0  0  0  0  0  0
   23.3755  -19.6490  -13.3110 O   0  0  0  0  0  0  0  0  0  0  0  0
   25.9080  -20.2953   -7.0286 C   0  0  0  0  0  0  0  0  0  0  0  0
   27.4635  -20.3750   -7.9914 S   0  0  0  0  0  0  0  0  0  0  0  0
   26.9934  -20.5380   -9.7101 C   0  0  0  0  0  0  0  0  0  0  0  0
   25.6057  -20.9407   -9.9813 C   0  0  0  0  0  0  0  0  0  0  0  0
   25.0516  -20.7147  -11.3354 C   0  0  2  0  0  0  0  0  0  0  0  0
   23.6637  -21.0559  -11.5150 N   0  0  0  0  0  0  0  0  0  0  0  0
   25.8608  -21.3925  -12.3930 C   0  0  0  0  0  0  0  0  0  0  0  0
   26.1622  -22.6109  -12.3268 O   0  0  0  0  0  0  0  0  0  0  0  0
   25.2656  -22.6772  -15.5505 C   0  0  0  0  0  0  0  0  0  0  0  0
   26.2138  -21.5225  -15.7742 C   0  0  1  0  0  0  0  0  0  0  0  0
   25.5202  -20.3760  -16.0907 O   0  0  0  0  0  0  0  0  0  0  0  0
   27.1155  -21.3002  -14.5784 C   0  0  2  0  0  0  0  0  0  0  0  0
   26.3219  -20.6727  -13.5227 N   0  0  0  0  0  0  0  0  0  0  0  0
   28.1842  -20.3286  -14.9313 C   0  0  0  0  0  0  0  0  0  0  0  0
   29.2263  -20.6269  -15.7998 O   0  0  0  0  0  0  0  0  0  0  0  0
   28.1686  -19.1727  -14.4335 O   0  0  0  0  0  0  0  0  0  0  0  0
  2  1  1  1
  3  2  1  0
  4  2  1  0
  4  6  1  0
  4  5  1  6
  6  7  2  0
  9  8  1  0
  9 10  1  0
 10 11  1  0
 12 11  1  1
 13 12  1  0
 13  6  1  0
 14 12  1  0
 14 15  2  0
 17 16  1  1
 17 19  1  0
 18 17  1  0
 19 20  1  1
 19 21  1  0
 20 14  1  0
 21 22  1  0
 23 21  2  0
M  END
$$$$
