TMT.pdb
     RDKit          3D

 23 22  0  0  1  0  0  0  0  0999 V2000
   17.6018   -7.7935  -17.1511 C   0  0  0  0  0  0  0  0  0  0  0  0
   16.8355   -8.8189  -16.3434 C   0  0  1  0  0  0  0  0  0  0  0  0
   15.7590   -9.2522  -17.1168 O   0  0  0  0  0  0  0  0  0  0  0  0
   17.7375   -9.9803  -15.9906 C   0  0  2  0  0  0  0  0  0  0  0  0
   17.0126  -11.0482  -15.3483 N   0  0  0  0  0  0  0  0  0  0  0  0
   18.9331   -9.5472  -15.2357 C   0  0  0  0  0  0  0  0  0  0  0  0
   18.8132   -9.2582  -14.0395 O   0  0  0  0  0  0  0  0  0  0  0  0
   23.8020  -13.7801  -14.1947 C   0  0  0  0  0  0  0  0  0  0  0  0
   24.0750  -12.1697  -15.0222 S   0  0  0  0  0  0  0  0  0  0  0  0
   22.5856  -11.2092  -14.7763 C   0  0  0  0  0  0  0  0  0  0  0  0
   22.6128   -9.8148  -15.2418 C   0  0  0  0  0  0  0  0  0  0  0  0
   21.3889   -8.9941  -15.1003 C   0  0  2  0  0  0  0  0  0  0  0  0
   20.2363   -9.4470  -15.8360 N   0  0  0  0  0  0  0  0  0  0  0  0
   21.6375   -7.5561  -15.4210 C   0  0  0  0  0  0  0  0  0  0  0  0
   22.0830   -7.1867  -16.5368 O   0  0  0  0  0  0  0  0  0  0  0  0
   19.3711   -4.9205  -15.9321 C   0  0  0  0  0  0  0  0  0  0  0  0
   20.2089   -4.4596  -14.7624 C   0  0  1  0  0  0  0  0  0  0  0  0
   19.5457   -4.6702  -13.5743 O   0  0  0  0  0  0  0  0  0  0  0  0
   21.5685   -5.1258  -14.7520 C   0  0  2  0  0  0  0  0  0  0  0  0
   21.3752   -6.5460  -14.4630 N   0  0  0  0  0  0  0  0  0  0  0  0
   22.3849   -4.5795  -13.6358 C   0  0  0  0  0  0  0  0  0  0  0  0
   22.8349   -3.2662  -13.5949 O   0  0  0  0  0  0  0  0  0  0  0  0
   22.6979   -5.3211  -12.6681 O   0  0  0  0  0  0  0  0  0  0  0  0
  2  1  1  6
  3  2  1  0
  4  2  1  0
  4  6  1  0
  4  5  1  1
  6  7  2  0
  9  8  1  0
  9 10  1  0
 10 11  1  0
 12 11  1  6
 13 12  1  0
 13  6  1  0
 14 12  1  0
 14 15  2  0
 17 16  1  6
 17 19  1  0
 18 17  1  0
 19 20  1  1
 19 21  1  0
 20 14  1  0
 21 22  1  0
 23 21  2  0
M  END
$$$$
