TMT.pdb
     RDKit          3D

 23 22  0  0  1  0  0  0  0  0999 V2000
   22.2106  -11.7006  -19.8546 C   0  0  0  0  0  0  0  0  0  0  0  0
   21.6102  -10.5785  -19.0353 C   0  0  1  0  0  0  0  0  0  0  0  0
   21.1196   -9.6197  -19.9212 O   0  0  0  0  0  0  0  0  0  0  0  0
   20.4975  -11.1127  -18.1614 C   0  0  2  0  0  0  0  0  0  0  0  0
   19.4480  -11.7220  -18.9398 N   0  0  0  0  0  0  0  0  0  0  0  0
   20.0041  -10.0976  -17.2059 C   0  0  0  0  0  0  0  0  0  0  0  0
   19.0648   -9.3667  -17.5414 O   0  0  0  0  0  0  0  0  0  0  0  0
   17.3894   -7.9107  -10.3390 C   0  0  0  0  0  0  0  0  0  0  0  0
   17.9558   -9.3025  -11.3855 S   0  0  0  0  0  0  0  0  0  0  0  0
   18.8227   -8.5790  -12.7735 C   0  0  0  0  0  0  0  0  0  0  0  0
   19.3834   -9.5113  -13.7625 C   0  0  0  0  0  0  0  0  0  0  0  0
   20.0590   -8.9580  -14.9579 C   0  0  2  0  0  0  0  0  0  0  0  0
   20.5724   -9.9227  -15.8964 N   0  0  0  0  0  0  0  0  0  0  0  0
   21.1495   -8.0035  -14.5946 C   0  0  0  0  0  0  0  0  0  0  0  0
   22.2449   -8.3902  -14.1147 O   0  0  0  0  0  0  0  0  0  0  0  0
   23.0046   -5.5476  -16.7577 C   0  0  0  0  0  0  0  0  0  0  0  0
   22.2765   -4.7849  -15.6758 C   0  0  1  0  0  0  0  0  0  0  0  0
   21.0974   -4.2614  -16.1570 O   0  0  0  0  0  0  0  0  0  0  0  0
   22.0312   -5.6451  -14.4542 C   0  0  2  0  0  0  0  0  0  0  0  0
   20.9819   -6.6093  -14.7820 N   0  0  0  0  0  0  0  0  0  0  0  0
   21.4968   -4.8052  -13.3498 C   0  0  0  0  0  0  0  0  0  0  0  0
   22.2641   -3.8718  -12.6648 O   0  0  0  0  0  0  0  0  0  0  0  0
   20.2943   -4.9251  -12.9978 O   0  0  0  0  0  0  0  0  0  0  0  0
  2  1  1  6
  3  2  1  0
  4  2  1  0
  4  6  1  0
  4  5  1  6
  6  7  2  0
  9  8  1  0
  9 10  1  0
 10 11  1  0
 12 11  1  1
 13 12  1  0
 13  6  1  0
 14 12  1  0
 14 15  2  0
 17 16  1  6
 17 19  1  0
 18 17  1  0
 19 20  1  6
 19 21  1  0
 20 14  1  0
 21 22  1  0
 23 21  2  0
M  END
$$$$
