TMT.pdb
     RDKit          3D

 23 22  0  0  1  0  0  0  0  0999 V2000
   22.1960  -11.4937  -14.5791 C   0  0  0  0  0  0  0  0  0  0  0  0
   22.1726  -12.3205  -15.8468 C   0  0  1  0  0  0  0  0  0  0  0  0
   22.6034  -13.6070  -15.5242 O   0  0  0  0  0  0  0  0  0  0  0  0
   20.7720  -12.3567  -16.4162 C   0  0  2  0  0  0  0  0  0  0  0  0
   20.6748  -13.2441  -17.5483 N   0  0  0  0  0  0  0  0  0  0  0  0
   20.2463  -11.0014  -16.6876 C   0  0  0  0  0  0  0  0  0  0  0  0
   20.4459  -10.4932  -17.7970 O   0  0  0  0  0  0  0  0  0  0  0  0
   14.5973   -8.5636  -17.5840 C   0  0  0  0  0  0  0  0  0  0  0  0
   15.1545   -7.3706  -16.3115 S   0  0  0  0  0  0  0  0  0  0  0  0
   16.9406   -7.4676  -16.2667 C   0  0  0  0  0  0  0  0  0  0  0  0
   17.5257   -8.7972  -16.0402 C   0  0  0  0  0  0  0  0  0  0  0  0
   18.9995   -8.9256  -15.9863 C   0  0  2  0  0  0  0  0  0  0  0  0
   19.5090  -10.2447  -15.7117 N   0  0  0  0  0  0  0  0  0  0  0  0
   19.6124   -7.9572  -15.0276 C   0  0  0  0  0  0  0  0  0  0  0  0
   19.5931   -8.1432  -13.7847 O   0  0  0  0  0  0  0  0  0  0  0  0
   23.1527   -7.1245  -14.7687 C   0  0  0  0  0  0  0  0  0  0  0  0
   22.4231   -5.8382  -15.0784 C   0  0  1  0  0  0  0  0  0  0  0  0
   22.4941   -5.5486  -16.4225 O   0  0  0  0  0  0  0  0  0  0  0  0
   20.9851   -5.8841  -14.6070 C   0  0  2  0  0  0  0  0  0  0  0  0
   20.2451   -6.7792  -15.4954 N   0  0  0  0  0  0  0  0  0  0  0  0
   20.3661   -4.5406  -14.7572 C   0  0  0  0  0  0  0  0  0  0  0  0
   20.6839   -3.4617  -13.9423 O   0  0  0  0  0  0  0  0  0  0  0  0
   19.5096   -4.3433  -15.6582 O   0  0  0  0  0  0  0  0  0  0  0  0
  2  1  1  1
  3  2  1  0
  4  2  1  0
  4  6  1  0
  4  5  1  6
  6  7  2  0
  9  8  1  0
  9 10  1  0
 10 11  1  0
 12 11  1  1
 13 12  1  0
 13  6  1  0
 14 12  1  0
 14 15  2  0
 17 16  1  6
 17 19  1  0
 18 17  1  0
 19 20  1  6
 19 21  1  0
 20 14  1  0
 21 22  1  0
 23 21  2  0
M  END
$$$$
