RME.pdb
     RDKit          3D

 29 28  0  0  1  0  0  0  0  0999 V2000
   17.4494  -24.6080  -10.1392 N   0  0  0  0  0  0  0  0  0  0  0  0
   17.8534  -24.3489   -8.8023 C   0  0  0  0  0  0  0  0  0  0  0  0
   17.4477  -25.1435   -7.8915 N   0  0  0  0  0  0  0  0  0  0  0  0
   18.6750  -23.2658   -8.4383 N   0  0  0  0  0  0  0  0  0  0  0  0
   19.2249  -22.4121   -9.4380 C   0  0  0  0  0  0  0  0  0  0  0  0
   20.4018  -23.1677  -10.0702 C   0  0  0  0  0  0  0  0  0  0  0  0
   21.0673  -22.3535  -11.1280 C   0  0  0  0  0  0  0  0  0  0  0  0
   21.3545  -20.9569  -10.6975 C   0  0  2  0  0  0  0  0  0  0  0  0
   20.3295  -20.0469  -11.2243 N   0  0  0  0  0  0  0  0  0  0  0  0
   22.7053  -20.4579  -11.0621 C   0  0  0  0  0  0  0  0  0  0  0  0
   22.8307  -19.5679  -11.9120 O   0  0  0  0  0  0  0  0  0  0  0  0
   17.5928  -25.1270   -6.8877 C   0  0  0  0  0  0  0  0  0  0  0  0
   28.6734  -19.5591   -7.3034 S   0  0  0  0  0  0  0  0  0  0  0  0
   27.2585  -20.7095   -7.1564 C   0  0  0  0  0  0  0  0  0  0  0  0
   25.9358  -20.1823   -8.3133 C   0  0  0  0  0  0  0  0  0  0  0  0
   26.2152  -20.8836   -9.6209 C   0  0  2  0  0  0  0  0  0  0  0  0
   25.2179  -20.5242  -10.6955 N   0  0  0  0  0  0  0  0  0  0  0  0
   23.8911  -20.9947  -10.4397 C   0  0  0  0  0  0  0  0  0  0  0  0
   25.6652  -21.0241  -12.0175 O   0  0  0  0  0  0  0  0  0  0  0  0
   25.4782  -22.2091  -12.3480 N   0  0  0  0  0  0  0  0  0  0  0  0
   26.3033  -20.1432  -12.8960 C   0  0  1  0  0  0  0  0  0  0  0  0
   26.6245  -20.4557  -14.2801 C   0  0  0  0  0  0  0  0  0  0  0  0
   26.9759  -19.1587  -14.9343 C   0  0  0  0  0  0  0  0  0  0  0  0
   27.3875  -19.2473  -16.3647 C   0  0  0  0  0  0  0  0  0  0  0  0
   27.7169  -17.8830  -16.8824 O   0  0  0  0  0  0  0  0  0  0  0  0
   28.0603  -16.9257  -16.1516 C   0  0  0  0  0  0  0  0  0  0  0  0
   27.7202  -21.4536  -14.2730 O   0  0  0  0  0  0  0  0  0  0  0  0
   28.5030  -21.5272  -13.2949 O   0  0  0  0  0  0  0  0  0  0  0  0
   27.6362  -17.6732  -18.2483 O   0  0  0  0  0  0  0  0  0  0  0  0
  2  3  2  0
  2  1  1  0
  4  2  1  0
  5  4  1  0
  6  5  1  0
  7  6  1  0
  8  7  1  0
  8  9  1  6
 10  8  1  0
 10 17  1  0
 11 10  2  0
 12 13  1  0
 13 14  1  0
 16 15  1  1
 15 14  1  0
 16 17  1  0
 18 16  1  0
 19 18  2  0
 20 18  1  0
 21 20  1  0
 21 26  1  0
 21 22  1  1
 23 22  1  0
 24 25  2  0
 24 23  1  0
 26 29  1  0
 27 26  2  0
 28 24  1  0
M  END
$$$$
