RME.pdb
     RDKit          3D

 29 28  0  0  1  0  0  0  0  0999 V2000
   27.6277  -19.0077  -18.6968 N   0  0  0  0  0  0  0  0  0  0  0  0
   26.3789  -19.3764  -19.2646 C   0  0  0  0  0  0  0  0  0  0  0  0
   26.2463  -19.2799  -20.5289 N   0  0  0  0  0  0  0  0  0  0  0  0
   25.2899  -19.8407  -18.5036 N   0  0  0  0  0  0  0  0  0  0  0  0
   25.4193  -20.0175  -17.0956 C   0  0  0  0  0  0  0  0  0  0  0  0
   26.6634  -19.2307  -16.6609 C   0  0  0  0  0  0  0  0  0  0  0  0
   26.8235  -19.2396  -15.1779 C   0  0  0  0  0  0  0  0  0  0  0  0
   27.2681  -20.5575  -14.6453 C   0  0  2  0  0  0  0  0  0  0  0  0
   27.3459  -21.5401  -15.7336 N   0  0  0  0  0  0  0  0  0  0  0  0
   26.4341  -21.0962  -13.5402 C   0  0  0  0  0  0  0  0  0  0  0  0
   25.7530  -22.1140  -13.7147 O   0  0  0  0  0  0  0  0  0  0  0  0
   25.4288  -19.3958  -21.1182 C   0  0  0  0  0  0  0  0  0  0  0  0
   27.5482  -19.8612   -7.4123 S   0  0  0  0  0  0  0  0  0  0  0  0
   25.7812  -20.2564   -7.1500 C   0  0  0  0  0  0  0  0  0  0  0  0
   25.0685  -20.8826   -8.7203 C   0  0  0  0  0  0  0  0  0  0  0  0
   25.9684  -20.3780   -9.8226 C   0  0  2  0  0  0  0  0  0  0  0  0
   25.5074  -20.8144  -11.1921 N   0  0  0  0  0  0  0  0  0  0  0  0
   26.3992  -20.4510  -12.2502 C   0  0  0  0  0  0  0  0  0  0  0  0
   24.1570  -20.2792  -11.4884 O   0  0  0  0  0  0  0  0  0  0  0  0
   23.9833  -19.0644  -11.6945 N   0  0  0  0  0  0  0  0  0  0  0  0
   23.0726  -21.1607  -11.5352 C   0  0  1  0  0  0  0  0  0  0  0  0
   21.7089  -20.7659  -11.8531 C   0  0  0  0  0  0  0  0  0  0  0  0
   21.2100  -21.7492  -12.8619 C   0  0  0  0  0  0  0  0  0  0  0  0
   21.7507  -21.5891  -14.2424 C   0  0  0  0  0  0  0  0  0  0  0  0
   21.1413  -22.6130  -15.1468 O   0  0  0  0  0  0  0  0  0  0  0  0
   20.3297  -23.4859  -14.7627 C   0  0  0  0  0  0  0  0  0  0  0  0
   20.9399  -20.7459  -10.5863 O   0  0  0  0  0  0  0  0  0  0  0  0
   21.3938  -21.3100   -9.5613 O   0  0  0  0  0  0  0  0  0  0  0  0
   21.4987  -22.5886  -16.4839 O   0  0  0  0  0  0  0  0  0  0  0  0
  2  3  2  0
  2  1  1  0
  4  2  1  0
  5  4  1  0
  6  5  1  0
  7  6  1  0
  8  7  1  0
  8  9  1  6
 10  8  1  0
 10 17  1  0
 11 10  2  0
 12 13  1  0
 13 14  1  0
 16 15  1  1
 15 14  1  0
 16 17  1  0
 18 16  1  0
 19 18  2  0
 20 18  1  0
 21 20  1  0
 21 26  1  0
 21 22  1  1
 23 22  1  0
 24 25  2  0
 24 23  1  0
 26 29  1  0
 27 26  2  0
 28 24  1  0
M  END
$$$$
