RME.pdb
     RDKit          3D

 29 28  0  0  1  0  0  0  0  0999 V2000
   29.8979  -23.1059  -10.7486 N   0  0  0  0  0  0  0  0  0  0  0  0
   30.3052  -21.7452  -10.7289 C   0  0  0  0  0  0  0  0  0  0  0  0
   30.9288  -21.3237   -9.6999 N   0  0  0  0  0  0  0  0  0  0  0  0
   30.0560  -20.8476  -11.7838 N   0  0  0  0  0  0  0  0  0  0  0  0
   28.7310  -20.3914  -12.0424 C   0  0  0  0  0  0  0  0  0  0  0  0
   27.7908  -21.2414  -11.1768 C   0  0  0  0  0  0  0  0  0  0  0  0
   26.4122  -20.6727  -11.1490 C   0  0  0  0  0  0  0  0  0  0  0  0
   25.6262  -20.9835  -12.3754 C   0  0  2  0  0  0  0  0  0  0  0  0
   26.5289  -21.1655  -13.5192 N   0  0  0  0  0  0  0  0  0  0  0  0
   24.5800  -19.9849  -12.7145 C   0  0  0  0  0  0  0  0  0  0  0  0
   24.1250  -19.2394  -11.8384 O   0  0  0  0  0  0  0  0  0  0  0  0
   31.3612  -20.4257   -9.5113 C   0  0  0  0  0  0  0  0  0  0  0  0
   24.7938  -16.0130  -17.3255 S   0  0  0  0  0  0  0  0  0  0  0  0
   25.3849  -15.6459  -15.6335 C   0  0  0  0  0  0  0  0  0  0  0  0
   24.6467  -16.8536  -14.4664 C   0  0  0  0  0  0  0  0  0  0  0  0
   23.7576  -17.7503  -15.2941 C   0  0  2  0  0  0  0  0  0  0  0  0
   23.1413  -18.8637  -14.4822 N   0  0  0  0  0  0  0  0  0  0  0  0
   24.0748  -19.8625  -14.0604 C   0  0  0  0  0  0  0  0  0  0  0  0
   22.0387  -19.5132  -15.2308 O   0  0  0  0  0  0  0  0  0  0  0  0
   22.2627  -20.4709  -15.9930 N   0  0  0  0  0  0  0  0  0  0  0  0
   20.7347  -19.0351  -15.0693 C   0  0  1  0  0  0  0  0  0  0  0  0
   19.5676  -19.5990  -15.7301 C   0  0  0  0  0  0  0  0  0  0  0  0
   18.4286  -19.4486  -14.7743 C   0  0  0  0  0  0  0  0  0  0  0  0
   17.1149  -19.9721  -15.2474 C   0  0  0  0  0  0  0  0  0  0  0  0
   16.4244  -20.6900  -14.1314 O   0  0  0  0  0  0  0  0  0  0  0  0
   15.9025  -20.1127  -13.1502 C   0  0  0  0  0  0  0  0  0  0  0  0
   19.3875  -18.8810  -17.0141 O   0  0  0  0  0  0  0  0  0  0  0  0
   19.8248  -17.7130  -17.1529 O   0  0  0  0  0  0  0  0  0  0  0  0
   16.3615  -22.0715  -14.1928 O   0  0  0  0  0  0  0  0  0  0  0  0
  2  3  2  0
  2  1  1  0
  4  2  1  0
  5  4  1  0
  6  5  1  0
  7  6  1  0
  8  7  1  0
  8  9  1  6
 10  8  1  0
 10 17  1  0
 11 10  2  0
 12 13  1  0
 13 14  1  0
 16 15  1  1
 15 14  1  0
 16 17  1  0
 18 16  1  0
 19 18  2  0
 20 18  1  0
 21 20  1  0
 21 26  1  0
 21 22  1  6
 23 22  1  0
 24 25  2  0
 24 23  1  0
 26 29  1  0
 27 26  2  0
 28 24  1  0
M  END
$$$$
