RME.pdb
     RDKit          3D

 29 28  0  0  1  0  0  0  0  0999 V2000
   31.6684  -24.5570  -17.9932 N   0  0  0  0  0  0  0  0  0  0  0  0
   30.3901  -25.0411  -18.3796 C   0  0  0  0  0  0  0  0  0  0  0  0
   30.2691  -26.2892  -18.6097 N   0  0  0  0  0  0  0  0  0  0  0  0
   29.2592  -24.2149  -18.5181 N   0  0  0  0  0  0  0  0  0  0  0  0
   29.3477  -22.8209  -18.2361 C   0  0  0  0  0  0  0  0  0  0  0  0
   29.1855  -22.6628  -16.7181 C   0  0  0  0  0  0  0  0  0  0  0  0
   27.7761  -22.9024  -16.2925 C   0  0  0  0  0  0  0  0  0  0  0  0
   27.1114  -21.6821  -15.7564 C   0  0  2  0  0  0  0  0  0  0  0  0
   28.1169  -20.6624  -15.4319 N   0  0  0  0  0  0  0  0  0  0  0  0
   26.2347  -21.9162  -14.5802 C   0  0  0  0  0  0  0  0  0  0  0  0
   25.3021  -22.7257  -14.6513 O   0  0  0  0  0  0  0  0  0  0  0  0
   29.4889  -26.8197  -18.9824 C   0  0  0  0  0  0  0  0  0  0  0  0
   25.0474  -20.2743   -6.8418 S   0  0  0  0  0  0  0  0  0  0  0  0
   26.1033  -20.1186   -8.3277 C   0  0  0  0  0  0  0  0  0  0  0  0
   25.2030  -20.7966   -9.7753 C   0  0  0  0  0  0  0  0  0  0  0  0
   26.1803  -20.7782  -10.9261 C   0  0  1  0  0  0  0  0  0  0  0  0
   25.5710  -21.2828  -12.2116 N   0  0  0  0  0  0  0  0  0  0  0  0
   26.4484  -21.2115  -13.3395 C   0  0  0  0  0  0  0  0  0  0  0  0
   24.3184  -20.5534  -12.5225 O   0  0  0  0  0  0  0  0  0  0  0  0
   24.3366  -19.3370  -12.7837 N   0  0  0  0  0  0  0  0  0  0  0  0
   23.1073  -21.2524  -12.5200 C   0  0  1  0  0  0  0  0  0  0  0  0
   21.8317  -20.6826  -12.9259 C   0  0  0  0  0  0  0  0  0  0  0  0
   21.1331  -21.7376  -13.7212 C   0  0  0  0  0  0  0  0  0  0  0  0
   19.7258  -21.4301  -14.1068 C   0  0  0  0  0  0  0  0  0  0  0  0
   19.1494  -22.5766  -14.8757 O   0  0  0  0  0  0  0  0  0  0  0  0
   19.7456  -23.6629  -15.0567 C   0  0  0  0  0  0  0  0  0  0  0  0
   21.1140  -20.2668  -11.6977 O   0  0  0  0  0  0  0  0  0  0  0  0
   21.2949  -20.8829  -10.6196 O   0  0  0  0  0  0  0  0  0  0  0  0
   17.8840  -22.4218  -15.4150 O   0  0  0  0  0  0  0  0  0  0  0  0
  2  3  2  0
  2  1  1  0
  4  2  1  0
  5  4  1  0
  6  5  1  0
  7  6  1  0
  8  7  1  0
  8  9  1  1
 10  8  1  0
 10 17  1  0
 11 10  2  0
 12 13  1  0
 13 14  1  0
 16 15  1  1
 15 14  1  0
 16 17  1  0
 18 16  1  0
 19 18  2  0
 20 18  1  0
 21 20  1  0
 21 26  1  0
 21 22  1  1
 23 22  1  0
 24 25  2  0
 24 23  1  0
 26 29  1  0
 27 26  2  0
 28 24  1  0
M  END
$$$$
