RME.pdb
     RDKit          3D

 29 28  0  0  1  0  0  0  0  0999 V2000
   31.5433  -25.2847  -15.1207 N   0  0  0  0  0  0  0  0  0  0  0  0
   31.5927  -24.4848  -16.2934 C   0  0  0  0  0  0  0  0  0  0  0  0
   31.7167  -25.0774  -17.4154 N   0  0  0  0  0  0  0  0  0  0  0  0
   31.5108  -23.0799  -16.2758 N   0  0  0  0  0  0  0  0  0  0  0  0
   30.7692  -22.4152  -15.2565 C   0  0  0  0  0  0  0  0  0  0  0  0
   29.3441  -22.2267  -15.7942 C   0  0  0  0  0  0  0  0  0  0  0  0
   28.3251  -22.4503  -14.7281 C   0  0  0  0  0  0  0  0  0  0  0  0
   27.8253  -21.1850  -14.1219 C   0  0  2  0  0  0  0  0  0  0  0  0
   28.9543  -20.3676  -13.6600 N   0  0  0  0  0  0  0  0  0  0  0  0
   26.8505  -21.3668  -13.0158 C   0  0  0  0  0  0  0  0  0  0  0  0
   25.8377  -22.0562  -13.1869 O   0  0  0  0  0  0  0  0  0  0  0  0
   31.8782  -24.7049  -18.3450 C   0  0  0  0  0  0  0  0  0  0  0  0
   27.3052  -19.1832   -6.7726 S   0  0  0  0  0  0  0  0  0  0  0  0
   28.5831  -20.3311   -7.4022 C   0  0  0  0  0  0  0  0  0  0  0  0
   27.9963  -21.0772   -8.9721 C   0  0  0  0  0  0  0  0  0  0  0  0
   26.7057  -20.3735   -9.3169 C   0  0  2  0  0  0  0  0  0  0  0  0
   26.1353  -20.8248  -10.6395 N   0  0  0  0  0  0  0  0  0  0  0  0
   27.0600  -20.7494  -11.7287 C   0  0  0  0  0  0  0  0  0  0  0  0
   24.9181  -20.0501  -10.9799 O   0  0  0  0  0  0  0  0  0  0  0  0
   24.9982  -18.9816  -11.6126 N   0  0  0  0  0  0  0  0  0  0  0  0
   23.6697  -20.5368  -10.5803 C   0  0  1  0  0  0  0  0  0  0  0  0
   22.4581  -20.4395  -11.3798 C   0  0  0  0  0  0  0  0  0  0  0  0
   22.7349  -21.1687  -12.6547 C   0  0  0  0  0  0  0  0  0  0  0  0
   22.1698  -20.5504  -13.8883 C   0  0  0  0  0  0  0  0  0  0  0  0
   22.1049  -21.5694  -14.9815 O   0  0  0  0  0  0  0  0  0  0  0  0
   22.5272  -22.7427  -14.8650 C   0  0  0  0  0  0  0  0  0  0  0  0
   21.3456  -21.0055  -10.5807 O   0  0  0  0  0  0  0  0  0  0  0  0
   20.1565  -20.8433  -10.9474 O   0  0  0  0  0  0  0  0  0  0  0  0
   21.5444  -21.1878  -16.1882 O   0  0  0  0  0  0  0  0  0  0  0  0
  2  3  2  0
  2  1  1  0
  4  2  1  0
  5  4  1  0
  6  5  1  0
  7  6  1  0
  8  7  1  0
  8  9  1  1
 10  8  1  0
 10 17  1  0
 11 10  2  0
 12 13  1  0
 13 14  1  0
 16 15  1  1
 15 14  1  0
 16 17  1  0
 18 16  1  0
 19 18  2  0
 20 18  1  0
 21 20  1  0
 21 26  1  0
 21 22  1  6
 23 22  1  0
 24 25  2  0
 24 23  1  0
 26 29  1  0
 27 26  2  0
 28 24  1  0
M  END
$$$$
