RME.pdb
     RDKit          3D

 29 28  0  0  1  0  0  0  0  0999 V2000
   29.0910  -20.3882  -19.7924 N   0  0  0  0  0  0  0  0  0  0  0  0
   28.4699  -21.4310  -19.0545 C   0  0  0  0  0  0  0  0  0  0  0  0
   28.0879  -22.4672  -19.6915 N   0  0  0  0  0  0  0  0  0  0  0  0
   28.2589  -21.3756  -17.6642 N   0  0  0  0  0  0  0  0  0  0  0  0
   28.6403  -20.2191  -16.9241 C   0  0  0  0  0  0  0  0  0  0  0  0
   28.5460  -20.5908  -15.4380 C   0  0  0  0  0  0  0  0  0  0  0  0
   27.5224  -21.6504  -15.2048 C   0  0  0  0  0  0  0  0  0  0  0  0
   26.2106  -21.1077  -14.7543 C   0  0  2  0  0  0  0  0  0  0  0  0
   26.2720  -19.6427  -14.6761 N   0  0  0  0  0  0  0  0  0  0  0  0
   25.7173  -21.6598  -13.4664 C   0  0  0  0  0  0  0  0  0  0  0  0
   25.4832  -22.8696  -13.3577 O   0  0  0  0  0  0  0  0  0  0  0  0
   27.6032  -23.2985  -19.3708 C   0  0  0  0  0  0  0  0  0  0  0  0
   26.4814  -18.9291   -7.3135 S   0  0  0  0  0  0  0  0  0  0  0  0
   26.1133  -20.7196   -7.2387 C   0  0  0  0  0  0  0  0  0  0  0  0
   24.9386  -21.1457   -8.5819 C   0  0  0  0  0  0  0  0  0  0  0  0
   25.5643  -20.6480   -9.8628 C   0  0  2  0  0  0  0  0  0  0  0  0
   24.9193  -21.2422  -11.0914 N   0  0  0  0  0  0  0  0  0  0  0  0
   25.5014  -20.8061  -12.3235 C   0  0  0  0  0  0  0  0  0  0  0  0
   23.4646  -20.9571  -11.1127 O   0  0  0  0  0  0  0  0  0  0  0  0
   22.7377  -21.2781  -10.1552 N   0  0  0  0  0  0  0  0  0  0  0  0
   22.9143  -20.3181  -12.2280 C   0  0  2  0  0  0  0  0  0  0  0  0
   21.5068  -19.9765  -12.3648 C   0  0  0  0  0  0  0  0  0  0  0  0
   21.2830  -19.6848  -13.8134 C   0  0  0  0  0  0  0  0  0  0  0  0
   19.8892  -19.3110  -14.1893 C   0  0  0  0  0  0  0  0  0  0  0  0
   19.7955  -19.1307  -15.6713 O   0  0  0  0  0  0  0  0  0  0  0  0
   20.7809  -19.1829  -16.4424 C   0  0  0  0  0  0  0  0  0  0  0  0
   20.7150  -21.1144  -11.8407 O   0  0  0  0  0  0  0  0  0  0  0  0
   19.9633  -20.9585  -10.8480 O   0  0  0  0  0  0  0  0  0  0  0  0
   18.5450  -18.8936  -16.2157 O   0  0  0  0  0  0  0  0  0  0  0  0
  2  3  2  0
  2  1  1  0
  4  2  1  0
  5  4  1  0
  6  5  1  0
  7  6  1  0
  8  7  1  0
  8  9  1  1
 10  8  1  0
 10 17  1  0
 11 10  2  0
 12 13  1  0
 13 14  1  0
 16 15  1  1
 15 14  1  0
 16 17  1  0
 18 16  1  0
 19 18  2  0
 20 18  1  0
 21 20  1  0
 21 26  1  0
 21 22  1  6
 23 22  1  0
 24 25  2  0
 24 23  1  0
 26 29  1  0
 27 26  2  0
 28 24  1  0
M  END
$$$$
