RME.pdb
     RDKit          3D

 29 28  0  0  1  0  0  0  0  0999 V2000
   20.2786  -22.6962   -8.5716 N   0  0  0  0  0  0  0  0  0  0  0  0
   19.6185  -22.3483   -9.7803 C   0  0  0  0  0  0  0  0  0  0  0  0
   18.3441  -22.3777   -9.7943 N   0  0  0  0  0  0  0  0  0  0  0  0
   20.2995  -21.9742  -10.9538 N   0  0  0  0  0  0  0  0  0  0  0  0
   21.7078  -22.1637  -11.0598 C   0  0  0  0  0  0  0  0  0  0  0  0
   22.3688  -21.0798  -10.1973 C   0  0  0  0  0  0  0  0  0  0  0  0
   23.5100  -20.4362  -10.9103 C   0  0  0  0  0  0  0  0  0  0  0  0
   24.4437  -21.4191  -11.5271 C   0  0  2  0  0  0  0  0  0  0  0  0
   24.8746  -22.4017  -10.5247 N   0  0  0  0  0  0  0  0  0  0  0  0
   25.6319  -20.8199  -12.1873 C   0  0  0  0  0  0  0  0  0  0  0  0
   25.5190  -19.7769  -12.8428 O   0  0  0  0  0  0  0  0  0  0  0  0
   17.6875  -22.2039  -10.5477 C   0  0  0  0  0  0  0  0  0  0  0  0
   31.4342  -21.4753   -8.3953 S   0  0  0  0  0  0  0  0  0  0  0  0
   31.1514  -21.8689  -10.1595 C   0  0  0  0  0  0  0  0  0  0  0  0
   29.5492  -21.1458  -10.6846 C   0  0  0  0  0  0  0  0  0  0  0  0
   29.3981  -21.4753  -12.1503 C   0  0  2  0  0  0  0  0  0  0  0  0
   28.1094  -20.9475  -12.7328 N   0  0  0  0  0  0  0  0  0  0  0  0
   26.9329  -21.4346  -12.0805 C   0  0  0  0  0  0  0  0  0  0  0  0
   28.0234  -21.2501  -14.1815 O   0  0  0  0  0  0  0  0  0  0  0  0
   27.6644  -22.3735  -14.5783 N   0  0  0  0  0  0  0  0  0  0  0  0
   28.3517  -20.2521  -15.1041 C   0  0  1  0  0  0  0  0  0  0  0  0
   27.8134  -20.1747  -16.4535 C   0  0  0  0  0  0  0  0  0  0  0  0
   26.3257  -20.2146  -16.3166 C   0  0  0  0  0  0  0  0  0  0  0  0
   25.5563  -20.0861  -17.5874 C   0  0  0  0  0  0  0  0  0  0  0  0
   24.0895  -20.1404  -17.2991 O   0  0  0  0  0  0  0  0  0  0  0  0
   23.2029  -19.9743  -18.1678 C   0  0  0  0  0  0  0  0  0  0  0  0
   28.3372  -18.9358  -17.0760 O   0  0  0  0  0  0  0  0  0  0  0  0
   28.4543  -17.8870  -16.3971 O   0  0  0  0  0  0  0  0  0  0  0  0
   23.6960  -20.3894  -15.9955 O   0  0  0  0  0  0  0  0  0  0  0  0
  2  3  2  0
  2  1  1  0
  4  2  1  0
  5  4  1  0
  6  5  1  0
  7  6  1  0
  8  7  1  0
  8  9  1  1
 10  8  1  0
 10 17  1  0
 11 10  2  0
 12 13  1  0
 13 14  1  0
 16 15  1  1
 15 14  1  0
 16 17  1  0
 18 16  1  0
 19 18  2  0
 20 18  1  0
 21 20  1  0
 21 26  1  0
 21 22  1  6
 23 22  1  0
 24 25  2  0
 24 23  1  0
 26 29  1  0
 27 26  2  0
 28 24  1  0
M  END
$$$$
