RME.pdb
     RDKit          3D

 29 28  0  0  1  0  0  0  0  0999 V2000
   30.0406  -27.0515  -16.5040 N   0  0  0  0  0  0  0  0  0  0  0  0
   29.2337  -26.6684  -17.6085 C   0  0  0  0  0  0  0  0  0  0  0  0
   29.2619  -27.4016  -18.6511 N   0  0  0  0  0  0  0  0  0  0  0  0
   28.4100  -25.5273  -17.6060 N   0  0  0  0  0  0  0  0  0  0  0  0
   28.2736  -24.7410  -16.4255 C   0  0  0  0  0  0  0  0  0  0  0  0
   29.4884  -23.8045  -16.3718 C   0  0  0  0  0  0  0  0  0  0  0  0
   29.0940  -22.4220  -15.9746 C   0  0  0  0  0  0  0  0  0  0  0  0
   27.9996  -21.8615  -16.8152 C   0  0  2  0  0  0  0  0  0  0  0  0
   28.5530  -21.3028  -18.0552 N   0  0  0  0  0  0  0  0  0  0  0  0
   27.1534  -20.8447  -16.1392 C   0  0  0  0  0  0  0  0  0  0  0  0
   26.7037  -21.0630  -15.0077 O   0  0  0  0  0  0  0  0  0  0  0  0
   28.7378  -27.3388  -19.5173 C   0  0  0  0  0  0  0  0  0  0  0  0
   26.6810  -14.7153  -18.0816 S   0  0  0  0  0  0  0  0  0  0  0  0
   28.0379  -15.1155  -16.9216 C   0  0  0  0  0  0  0  0  0  0  0  0
   27.7381  -16.7752  -16.1996 C   0  0  0  0  0  0  0  0  0  0  0  0
   26.3488  -17.1783  -16.6320 C   0  0  2  0  0  0  0  0  0  0  0  0
   25.9965  -18.5846  -16.2115 N   0  0  0  0  0  0  0  0  0  0  0  0
   26.8392  -19.5911  -16.7806 C   0  0  0  0  0  0  0  0  0  0  0  0
   24.5831  -18.8928  -16.5357 O   0  0  0  0  0  0  0  0  0  0  0  0
   24.2585  -19.2740  -17.6748 N   0  0  0  0  0  0  0  0  0  0  0  0
   23.6116  -18.7504  -15.5402 C   0  0  1  0  0  0  0  0  0  0  0  0
   22.1913  -18.9934  -15.7407 C   0  0  0  0  0  0  0  0  0  0  0  0
   21.6961  -19.6505  -14.4931 C   0  0  0  0  0  0  0  0  0  0  0  0
   20.2337  -19.9391  -14.4518 C   0  0  0  0  0  0  0  0  0  0  0  0
   19.8938  -20.6510  -13.1808 O   0  0  0  0  0  0  0  0  0  0  0  0
   20.7323  -20.9288  -12.2932 C   0  0  0  0  0  0  0  0  0  0  0  0
   21.5507  -17.6914  -16.0419 O   0  0  0  0  0  0  0  0  0  0  0  0
   20.4041  -17.6527  -16.5506 O   0  0  0  0  0  0  0  0  0  0  0  0
   18.5750  -21.0207  -12.9801 O   0  0  0  0  0  0  0  0  0  0  0  0
  2  3  2  0
  2  1  1  0
  4  2  1  0
  5  4  1  0
  6  5  1  0
  7  6  1  0
  8  7  1  0
  8  9  1  6
 10  8  1  0
 10 17  1  0
 11 10  2  0
 12 13  1  0
 13 14  1  0
 16 15  1  1
 15 14  1  0
 16 17  1  0
 18 16  1  0
 19 18  2  0
 20 18  1  0
 21 20  1  0
 21 26  1  0
 21 22  1  6
 23 22  1  0
 24 25  2  0
 24 23  1  0
 26 29  1  0
 27 26  2  0
 28 24  1  0
M  END
$$$$
