RME.pdb
     RDKit          3D

 29 28  0  0  1  0  0  0  0  0999 V2000
   23.0601  -24.5491  -16.1463 N   0  0  0  0  0  0  0  0  0  0  0  0
   23.5241  -23.9426  -14.9486 C   0  0  0  0  0  0  0  0  0  0  0  0
   22.6636  -23.6550  -14.0529 N   0  0  0  0  0  0  0  0  0  0  0  0
   24.8785  -23.6475  -14.7051 N   0  0  0  0  0  0  0  0  0  0  0  0
   25.6121  -22.8321  -15.6149 C   0  0  0  0  0  0  0  0  0  0  0  0
   26.0196  -21.5662  -14.8487 C   0  0  0  0  0  0  0  0  0  0  0  0
   24.9526  -20.5256  -14.9084 C   0  0  0  0  0  0  0  0  0  0  0  0
   25.0610  -19.6445  -16.1044 C   0  0  2  0  0  0  0  0  0  0  0  0
   26.4339  -19.6684  -16.6246 N   0  0  0  0  0  0  0  0  0  0  0  0
   24.6310  -18.2397  -15.8842 C   0  0  0  0  0  0  0  0  0  0  0  0
   23.5085  -17.9981  -15.4239 O   0  0  0  0  0  0  0  0  0  0  0  0
   22.7791  -23.2373  -13.1358 C   0  0  0  0  0  0  0  0  0  0  0  0
   28.6284  -12.7850  -14.9219 S   0  0  0  0  0  0  0  0  0  0  0  0
   27.4233  -12.3645  -16.2326 C   0  0  0  0  0  0  0  0  0  0  0  0
   25.9034  -13.3631  -15.9908 C   0  0  0  0  0  0  0  0  0  0  0  0
   26.3081  -14.8032  -16.1956 C   0  0  2  0  0  0  0  0  0  0  0  0
   25.1492  -15.7580  -16.0412 N   0  0  0  0  0  0  0  0  0  0  0  0
   25.5040  -17.1351  -16.1992 C   0  0  0  0  0  0  0  0  0  0  0  0
   24.0613  -15.4237  -16.9912 O   0  0  0  0  0  0  0  0  0  0  0  0
   24.1815  -15.6588  -18.2071 N   0  0  0  0  0  0  0  0  0  0  0  0
   22.8895  -14.8378  -16.5024 C   0  0  1  0  0  0  0  0  0  0  0  0
   21.7238  -14.5335  -17.3180 C   0  0  0  0  0  0  0  0  0  0  0  0
   20.5738  -15.2572  -16.6958 C   0  0  0  0  0  0  0  0  0  0  0  0
   19.2258  -14.9072  -17.2285 C   0  0  0  0  0  0  0  0  0  0  0  0
   18.1750  -15.6773  -16.4933 O   0  0  0  0  0  0  0  0  0  0  0  0
   16.9522  -15.6106  -16.7551 C   0  0  0  0  0  0  0  0  0  0  0  0
   21.5721  -13.0596  -17.3530 O   0  0  0  0  0  0  0  0  0  0  0  0
   21.9833  -12.3581  -16.3971 O   0  0  0  0  0  0  0  0  0  0  0  0
   18.5843  -16.5102  -15.4662 O   0  0  0  0  0  0  0  0  0  0  0  0
  2  3  2  0
  2  1  1  0
  4  2  1  0
  5  4  1  0
  6  5  1  0
  7  6  1  0
  8  7  1  0
  8  9  1  1
 10  8  1  0
 10 17  1  0
 11 10  2  0
 12 13  1  0
 13 14  1  0
 16 15  1  1
 15 14  1  0
 16 17  1  0
 18 16  1  0
 19 18  2  0
 20 18  1  0
 21 20  1  0
 21 26  1  0
 21 22  1  6
 23 22  1  0
 24 25  2  0
 24 23  1  0
 26 29  1  0
 27 26  2  0
 28 24  1  0
M  END
$$$$
