RME.pdb
     RDKit          3D

 29 28  0  0  1  0  0  0  0  0999 V2000
   31.5103  -25.1592  -15.3498 N   0  0  0  0  0  0  0  0  0  0  0  0
   31.2953  -25.0711  -16.7512 C   0  0  0  0  0  0  0  0  0  0  0  0
   32.0943  -25.7021  -17.5185 N   0  0  0  0  0  0  0  0  0  0  0  0
   30.2494  -24.3269  -17.3282 N   0  0  0  0  0  0  0  0  0  0  0  0
   29.2646  -23.7106  -16.5031 C   0  0  0  0  0  0  0  0  0  0  0  0
   29.7646  -22.2921  -16.1972 C   0  0  0  0  0  0  0  0  0  0  0  0
   29.1404  -21.7498  -14.9558 C   0  0  0  0  0  0  0  0  0  0  0  0
   27.7230  -21.3342  -15.1470 C   0  0  2  0  0  0  0  0  0  0  0  0
   27.6530  -19.8926  -15.4169 N   0  0  0  0  0  0  0  0  0  0  0  0
   26.8154  -21.6801  -14.0230 C   0  0  0  0  0  0  0  0  0  0  0  0
   26.3659  -22.8277  -13.9175 O   0  0  0  0  0  0  0  0  0  0  0  0
   32.1077  -25.7912  -18.5288 C   0  0  0  0  0  0  0  0  0  0  0  0
   27.3441  -20.1817   -8.0773 S   0  0  0  0  0  0  0  0  0  0  0  0
   25.5201  -20.0491   -8.0275 C   0  0  0  0  0  0  0  0  0  0  0  0
   24.8297  -20.6977   -9.5986 C   0  0  0  0  0  0  0  0  0  0  0  0
   25.9230  -20.5551  -10.6301 C   0  0  1  0  0  0  0  0  0  0  0  0
   25.4557  -20.9069  -12.0217 N   0  0  0  0  0  0  0  0  0  0  0  0
   26.4405  -20.6950  -13.0377 C   0  0  0  0  0  0  0  0  0  0  0  0
   24.2269  -20.1545  -12.3705 O   0  0  0  0  0  0  0  0  0  0  0  0
   24.2952  -19.0479  -12.9354 N   0  0  0  0  0  0  0  0  0  0  0  0
   22.9810  -20.7061  -12.0564 C   0  0  1  0  0  0  0  0  0  0  0  0
   21.8275  -20.6821  -12.9425 C   0  0  0  0  0  0  0  0  0  0  0  0
   22.2485  -21.3698  -14.2008 C   0  0  0  0  0  0  0  0  0  0  0  0
   21.1738  -21.5793  -15.2132 C   0  0  0  0  0  0  0  0  0  0  0  0
   21.7465  -22.2298  -16.4324 O   0  0  0  0  0  0  0  0  0  0  0  0
   21.0838  -22.4759  -17.4661 C   0  0  0  0  0  0  0  0  0  0  0  0
   20.7028  -21.3378  -12.2342 O   0  0  0  0  0  0  0  0  0  0  0  0
   20.9282  -22.1811  -11.3327 O   0  0  0  0  0  0  0  0  0  0  0  0
   23.0865  -22.5766  -16.4108 O   0  0  0  0  0  0  0  0  0  0  0  0
  2  3  2  0
  2  1  1  0
  4  2  1  0
  5  4  1  0
  6  5  1  0
  7  6  1  0
  8  7  1  0
  8  9  1  1
 10  8  1  0
 10 17  1  0
 11 10  2  0
 12 13  1  0
 13 14  1  0
 16 15  1  1
 15 14  1  0
 16 17  1  0
 18 16  1  0
 19 18  2  0
 20 18  1  0
 21 20  1  0
 21 26  1  0
 21 22  1  1
 23 22  1  0
 24 25  2  0
 24 23  1  0
 26 29  1  0
 27 26  2  0
 28 24  1  0
M  END
$$$$
