PFG.pdb
     RDKit          3D

 23 24  0  0  1  0  0  0  0  0999 V2000
   27.0838  -18.3965  -14.1305 N   0  0  0  0  0  0  0  0  0  0  0  0
   28.1189  -17.7550  -14.9306 C   0  0  0  0  0  0  0  0  0  0  0  0
   29.3279  -18.6436  -14.7164 C   0  0  0  0  0  0  0  0  0  0  0  0
   28.7362  -20.0220  -14.5116 C   0  0  0  0  0  0  0  0  0  0  0  0
   27.2576  -19.8001  -14.4496 C   0  0  1  0  0  0  0  0  0  0  0  0
   26.5417  -20.6697  -13.5063 C   0  0  0  0  0  0  0  0  0  0  0  0
   26.5810  -21.9230  -13.5544 O   0  0  0  0  0  0  0  0  0  0  0  0
   25.7552  -20.0927  -12.4750 N   0  0  0  0  0  0  0  0  0  0  0  0
   25.0036  -20.9449  -11.5678 C   0  0  1  0  0  0  0  0  0  0  0  0
   25.0864  -20.3403  -10.1667 C   0  0  0  0  0  0  0  0  0  0  0  0
   26.4390  -20.5472   -9.5870 C   0  0  0  0  0  0  0  0  0  0  0  0
   26.8018  -19.9479   -8.3936 C   0  0  0  0  0  0  0  0  0  0  0  0
   28.0289  -20.1052   -7.8196 C   0  0  0  0  0  0  0  0  0  0  0  0
   28.9664  -20.9046   -8.4576 C   0  0  0  0  0  0  0  0  0  0  0  0
   28.6480  -21.5121   -9.6341 C   0  0  0  0  0  0  0  0  0  0  0  0
   27.3939  -21.3348  -10.1946 C   0  0  0  0  0  0  0  0  0  0  0  0
   23.5600  -20.9795  -11.9422 C   0  0  0  0  0  0  0  0  0  0  0  0
   22.9914  -19.8842  -12.1565 O   0  0  0  0  0  0  0  0  0  0  0  0
   22.8373  -22.1789  -12.0583 N   0  0  0  0  0  0  0  0  0  0  0  0
   21.4473  -22.1562  -12.4081 C   0  0  0  0  0  0  0  0  0  0  0  0
   21.2766  -21.9011  -13.8826 C   0  0  0  0  0  0  0  0  0  0  0  0
   20.3449  -20.9954  -14.3403 O   0  0  0  0  0  0  0  0  0  0  0  0
   21.9941  -22.5234  -14.7043 O   0  0  0  0  0  0  0  0  0  0  0  0
  1  2  1  0
  3  2  1  0
  4  5  1  0
  4  3  1  0
  5  1  1  0
  6  8  1  0
  5  6  1  1
  7  6  2  0
  9  8  1  0
  9 10  1  1
 10 11  1  0
 11 12  2  0
 11 16  1  0
 12 13  1  0
 13 14  2  0
 15 14  1  0
 16 15  2  0
 17  9  1  0
 18 17  2  0
 19 17  1  0
 20 21  1  0
 20 19  1  0
 21 22  1  0
 23 21  2  0
M  END
$$$$
