PFG.pdb
     RDKit          3D

 23 24  0  0  1  0  0  0  0  0999 V2000
   29.3761  -20.4364  -11.2535 N   0  0  0  0  0  0  0  0  0  0  0  0
   30.6736  -20.5781  -11.9012 C   0  0  0  0  0  0  0  0  0  0  0  0
   31.5012  -21.3172  -10.8687 C   0  0  0  0  0  0  0  0  0  0  0  0
   30.4916  -22.1776  -10.1392 C   0  0  0  0  0  0  0  0  0  0  0  0
   29.1622  -21.7491  -10.6763 C   0  0  1  0  0  0  0  0  0  0  0  0
   28.0711  -21.7445   -9.6925 C   0  0  0  0  0  0  0  0  0  0  0  0
   27.6787  -22.7727   -9.0896 O   0  0  0  0  0  0  0  0  0  0  0  0
   27.4051  -20.5290   -9.3857 N   0  0  0  0  0  0  0  0  0  0  0  0
   26.2916  -20.5235   -8.4508 C   0  0  1  0  0  0  0  0  0  0  0  0
   26.4361  -19.3021   -7.5438 C   0  0  0  0  0  0  0  0  0  0  0  0
   27.3836  -19.5838   -6.4341 C   0  0  0  0  0  0  0  0  0  0  0  0
   27.2031  -20.6755   -5.6031 C   0  0  0  0  0  0  0  0  0  0  0  0
   28.0426  -20.9780   -4.5718 C   0  0  0  0  0  0  0  0  0  0  0  0
   29.1348  -20.1552   -4.3371 C   0  0  0  0  0  0  0  0  0  0  0  0
   29.3473  -19.0707   -5.1328 C   0  0  0  0  0  0  0  0  0  0  0  0
   28.4784  -18.7871   -6.1734 C   0  0  0  0  0  0  0  0  0  0  0  0
   24.9926  -20.3801   -9.1700 C   0  0  0  0  0  0  0  0  0  0  0  0
   23.9458  -20.3926   -8.4823 O   0  0  0  0  0  0  0  0  0  0  0  0
   24.9126  -20.2347  -10.5653 N   0  0  0  0  0  0  0  0  0  0  0  0
   23.6864  -19.8205  -11.1815 C   0  0  0  0  0  0  0  0  0  0  0  0
   23.2842  -20.7881  -12.2633 C   0  0  0  0  0  0  0  0  0  0  0  0
   22.8766  -22.0669  -11.9525 O   0  0  0  0  0  0  0  0  0  0  0  0
   23.3216  -20.4225  -13.4642 O   0  0  0  0  0  0  0  0  0  0  0  0
  1  2  1  0
  3  2  1  0
  4  5  1  0
  4  3  1  0
  5  1  1  0
  6  8  1  0
  5  6  1  1
  7  6  2  0
  9  8  1  0
  9 10  1  1
 10 11  1  0
 11 12  2  0
 11 16  1  0
 12 13  1  0
 13 14  2  0
 15 14  1  0
 16 15  2  0
 17  9  1  0
 18 17  2  0
 19 17  1  0
 20 21  1  0
 20 19  1  0
 21 22  1  0
 23 21  2  0
M  END
$$$$
