PFG.pdb
     RDKit          3D

 23 24  0  0  1  0  0  0  0  0999 V2000
   28.1407  -19.4659  -12.3790 N   0  0  0  0  0  0  0  0  0  0  0  0
   29.1635  -19.3987  -13.4146 C   0  0  0  0  0  0  0  0  0  0  0  0
   30.2808  -20.2591  -12.8592 C   0  0  0  0  0  0  0  0  0  0  0  0
   29.5610  -21.3050  -12.0346 C   0  0  0  0  0  0  0  0  0  0  0  0
   28.1279  -20.8741  -12.0337 C   0  0  1  0  0  0  0  0  0  0  0  0
   27.4086  -21.1241  -10.7773 C   0  0  0  0  0  0  0  0  0  0  0  0
   27.2499  -22.2682  -10.2869 O   0  0  0  0  0  0  0  0  0  0  0  0
   26.8519  -20.0354  -10.0562 N   0  0  0  0  0  0  0  0  0  0  0  0
   25.9994  -20.2833   -8.9047 C   0  0  1  0  0  0  0  0  0  0  0  0
   26.2323  -19.1653   -7.8892 C   0  0  0  0  0  0  0  0  0  0  0  0
   27.1520  -19.6189   -6.8138 C   0  0  0  0  0  0  0  0  0  0  0  0
   28.4824  -19.2383   -6.8067 C   0  0  0  0  0  0  0  0  0  0  0  0
   29.3670  -19.6266   -5.8440 C   0  0  0  0  0  0  0  0  0  0  0  0
   28.9187  -20.4441   -4.8166 C   0  0  0  0  0  0  0  0  0  0  0  0
   27.6163  -20.8406   -4.7877 C   0  0  0  0  0  0  0  0  0  0  0  0
   26.7395  -20.4312   -5.7787 C   0  0  0  0  0  0  0  0  0  0  0  0
   24.5585  -20.2305   -9.2873 C   0  0  0  0  0  0  0  0  0  0  0  0
   24.1852  -19.2749  -10.0058 O   0  0  0  0  0  0  0  0  0  0  0  0
   23.6301  -21.2007   -8.8735 N   0  0  0  0  0  0  0  0  0  0  0  0
   22.2633  -21.1232   -9.2986 C   0  0  0  0  0  0  0  0  0  0  0  0
   22.1602  -21.3204  -10.7881 C   0  0  0  0  0  0  0  0  0  0  0  0
   21.5232  -20.3918  -11.5820 O   0  0  0  0  0  0  0  0  0  0  0  0
   22.6621  -22.3456  -11.3117 O   0  0  0  0  0  0  0  0  0  0  0  0
  1  2  1  0
  3  2  1  0
  4  5  1  0
  4  3  1  0
  5  1  1  0
  6  8  1  0
  5  6  1  1
  7  6  2  0
  9  8  1  0
  9 10  1  1
 10 11  1  0
 11 12  2  0
 11 16  1  0
 12 13  1  0
 13 14  2  0
 15 14  1  0
 16 15  2  0
 17  9  1  0
 18 17  2  0
 19 17  1  0
 20 21  1  0
 20 19  1  0
 21 22  1  0
 23 21  2  0
M  END
$$$$
