PFG.pdb
     RDKit          3D

 23 24  0  0  1  0  0  0  0  0999 V2000
   26.5270  -19.6275  -12.7408 N   0  0  0  0  0  0  0  0  0  0  0  0
   26.7779  -19.3421  -14.1475 C   0  0  0  0  0  0  0  0  0  0  0  0
   28.2589  -19.6244  -14.3030 C   0  0  0  0  0  0  0  0  0  0  0  0
   28.5287  -20.7234  -13.2975 C   0  0  0  0  0  0  0  0  0  0  0  0
   27.2506  -20.8665  -12.5323 C   0  0  1  0  0  0  0  0  0  0  0  0
   27.4163  -21.1713  -11.1047 C   0  0  0  0  0  0  0  0  0  0  0  0
   27.9121  -22.2426  -10.6790 O   0  0  0  0  0  0  0  0  0  0  0  0
   27.0034  -20.2251  -10.1304 N   0  0  0  0  0  0  0  0  0  0  0  0
   27.1182  -20.5384   -8.7152 C   0  0  1  0  0  0  0  0  0  0  0  0
   28.2207  -19.6629   -8.1207 C   0  0  0  0  0  0  0  0  0  0  0  0
   28.2629  -19.8071   -6.6422 C   0  0  0  0  0  0  0  0  0  0  0  0
   29.1299  -20.7006   -6.0381 C   0  0  0  0  0  0  0  0  0  0  0  0
   29.2078  -20.8709   -4.6872 C   0  0  0  0  0  0  0  0  0  0  0  0
   28.3797  -20.1145   -3.8705 C   0  0  0  0  0  0  0  0  0  0  0  0
   27.5123  -19.2241   -4.4265 C   0  0  0  0  0  0  0  0  0  0  0  0
   27.4543  -19.0714   -5.8019 C   0  0  0  0  0  0  0  0  0  0  0  0
   25.8580  -20.2026   -7.9911 C   0  0  0  0  0  0  0  0  0  0  0  0
   25.1954  -19.2240   -8.4060 O   0  0  0  0  0  0  0  0  0  0  0  0
   25.4042  -20.9368   -6.8823 N   0  0  0  0  0  0  0  0  0  0  0  0
   24.4490  -21.9918   -7.0537 C   0  0  0  0  0  0  0  0  0  0  0  0
   23.0495  -21.4369   -7.0979 C   0  0  0  0  0  0  0  0  0  0  0  0
   22.4849  -21.0363   -8.2890 O   0  0  0  0  0  0  0  0  0  0  0  0
   22.3900  -21.3388   -6.0336 O   0  0  0  0  0  0  0  0  0  0  0  0
  1  2  1  0
  3  2  1  0
  4  5  1  0
  4  3  1  0
  5  1  1  0
  6  8  1  0
  5  6  1  1
  7  6  2  0
  9  8  1  0
  9 10  1  1
 10 11  1  0
 11 12  2  0
 11 16  1  0
 12 13  1  0
 13 14  2  0
 15 14  1  0
 16 15  2  0
 17  9  1  0
 18 17  2  0
 19 17  1  0
 20 21  1  0
 20 19  1  0
 21 22  1  0
 23 21  2  0
M  END
$$$$
