PFG.pdb
     RDKit          3D

 23 24  0  0  1  0  0  0  0  0999 V2000
   27.2567  -20.5457  -16.6844 N   0  0  0  0  0  0  0  0  0  0  0  0
   28.1238  -20.6939  -17.8460 C   0  0  0  0  0  0  0  0  0  0  0  0
   29.1350  -21.7302  -17.3979 C   0  0  0  0  0  0  0  0  0  0  0  0
   28.3597  -22.6047  -16.4356 C   0  0  0  0  0  0  0  0  0  0  0  0
   27.0402  -21.9183  -16.2704 C   0  0  1  0  0  0  0  0  0  0  0  0
   26.4664  -21.9999  -14.9204 C   0  0  0  0  0  0  0  0  0  0  0  0
   26.0611  -23.0695  -14.4044 O   0  0  0  0  0  0  0  0  0  0  0  0
   26.3504  -20.8246  -14.1326 N   0  0  0  0  0  0  0  0  0  0  0  0
   25.8157  -20.9015  -12.7827 C   0  0  1  0  0  0  0  0  0  0  0  0
   26.7348  -20.1030  -11.8593 C   0  0  0  0  0  0  0  0  0  0  0  0
   26.2904  -20.2243  -10.4464 C   0  0  0  0  0  0  0  0  0  0  0  0
   26.8410  -21.1753   -9.6055 C   0  0  0  0  0  0  0  0  0  0  0  0
   26.4688  -21.3279   -8.3024 C   0  0  0  0  0  0  0  0  0  0  0  0
   25.4895  -20.4916   -7.7860 C   0  0  0  0  0  0  0  0  0  0  0  0
   24.9228  -19.5427   -8.5814 C   0  0  0  0  0  0  0  0  0  0  0  0
   25.3202  -19.4099   -9.9016 C   0  0  0  0  0  0  0  0  0  0  0  0
   24.4668  -20.2690  -12.7071 C   0  0  0  0  0  0  0  0  0  0  0  0
   24.3559  -19.0913  -13.1189 O   0  0  0  0  0  0  0  0  0  0  0  0
   23.3432  -20.9423  -12.1985 N   0  0  0  0  0  0  0  0  0  0  0  0
   22.0742  -20.2798  -12.1235 C   0  0  0  0  0  0  0  0  0  0  0  0
   21.0746  -21.1323  -11.3871 C   0  0  0  0  0  0  0  0  0  0  0  0
   19.9719  -21.6468  -12.0332 O   0  0  0  0  0  0  0  0  0  0  0  0
   21.2503  -21.3764  -10.1678 O   0  0  0  0  0  0  0  0  0  0  0  0
  1  2  1  0
  3  2  1  0
  4  5  1  0
  4  3  1  0
  5  1  1  0
  6  8  1  0
  5  6  1  1
  7  6  2  0
  9  8  1  0
  9 10  1  1
 10 11  1  0
 11 12  2  0
 11 16  1  0
 12 13  1  0
 13 14  2  0
 15 14  1  0
 16 15  2  0
 17  9  1  0
 18 17  2  0
 19 17  1  0
 20 21  1  0
 20 19  1  0
 21 22  1  0
 23 21  2  0
M  END
$$$$
