PFG.pdb
     RDKit          3D

 23 24  0  0  1  0  0  0  0  0999 V2000
   30.3456  -20.9004  -10.5250 N   0  0  0  0  0  0  0  0  0  0  0  0
   31.7314  -21.2493  -10.8099 C   0  0  0  0  0  0  0  0  0  0  0  0
   32.1813  -21.9550   -9.5462 C   0  0  0  0  0  0  0  0  0  0  0  0
   30.9221  -22.6182   -9.0302 C   0  0  0  0  0  0  0  0  0  0  0  0
   29.8294  -22.1119   -9.9185 C   0  0  1  0  0  0  0  0  0  0  0  0
   28.5431  -21.8836   -9.2464 C   0  0  0  0  0  0  0  0  0  0  0  0
   27.9384  -22.7668   -8.5914 O   0  0  0  0  0  0  0  0  0  0  0  0
   27.9253  -20.6078   -9.3233 N   0  0  0  0  0  0  0  0  0  0  0  0
   26.6436  -20.3782   -8.6764 C   0  0  1  0  0  0  0  0  0  0  0  0
   26.8009  -19.2060   -7.7086 C   0  0  0  0  0  0  0  0  0  0  0  0
   27.6545  -19.5912   -6.5548 C   0  0  0  0  0  0  0  0  0  0  0  0
   27.1178  -20.2405   -5.4570 C   0  0  0  0  0  0  0  0  0  0  0  0
   27.8567  -20.6153   -4.3738 C   0  0  0  0  0  0  0  0  0  0  0  0
   29.2156  -20.3352   -4.3638 C   0  0  0  0  0  0  0  0  0  0  0  0
   29.7819  -19.6975   -5.4253 C   0  0  0  0  0  0  0  0  0  0  0  0
   29.0074  -19.3282   -6.5126 C   0  0  0  0  0  0  0  0  0  0  0  0
   25.6067  -19.9832   -9.6734 C   0  0  0  0  0  0  0  0  0  0  0  0
   25.9832  -19.3241  -10.6697 O   0  0  0  0  0  0  0  0  0  0  0  0
   24.2507  -20.3222   -9.5290 N   0  0  0  0  0  0  0  0  0  0  0  0
   23.2856  -19.8736  -10.4894 C   0  0  0  0  0  0  0  0  0  0  0  0
   23.0823  -20.9126  -11.5606 C   0  0  0  0  0  0  0  0  0  0  0  0
   21.8401  -21.4652  -11.7830 O   0  0  0  0  0  0  0  0  0  0  0  0
   24.0594  -21.2787  -12.2594 O   0  0  0  0  0  0  0  0  0  0  0  0
  1  2  1  0
  3  2  1  0
  4  5  1  0
  4  3  1  0
  5  1  1  0
  6  8  1  0
  5  6  1  1
  7  6  2  0
  9  8  1  0
  9 10  1  1
 10 11  1  0
 11 12  2  0
 11 16  1  0
 12 13  1  0
 13 14  2  0
 15 14  1  0
 16 15  2  0
 17  9  1  0
 18 17  2  0
 19 17  1  0
 20 21  1  0
 20 19  1  0
 21 22  1  0
 23 21  2  0
M  END
$$$$
