PFG.pdb
     RDKit          3D

 23 24  0  0  1  0  0  0  0  0999 V2000
   27.1311  -18.6754  -15.7143 N   0  0  0  0  0  0  0  0  0  0  0  0
   28.0839  -18.2255  -16.7208 C   0  0  0  0  0  0  0  0  0  0  0  0
   29.2324  -19.2041  -16.5777 C   0  0  0  0  0  0  0  0  0  0  0  0
   28.5648  -20.4883  -16.1339 C   0  0  0  0  0  0  0  0  0  0  0  0
   27.1363  -20.1146  -15.8904 C   0  0  1  0  0  0  0  0  0  0  0  0
   26.5004  -20.8075  -14.7617 C   0  0  0  0  0  0  0  0  0  0  0  0
   26.3444  -22.0516  -14.7128 O   0  0  0  0  0  0  0  0  0  0  0  0
   26.0267  -20.0586  -13.6526 N   0  0  0  0  0  0  0  0  0  0  0  0
   25.4268  -20.7389  -12.5162 C   0  0  1  0  0  0  0  0  0  0  0  0
   26.0676  -20.1931  -11.2408 C   0  0  0  0  0  0  0  0  0  0  0  0
   27.4929  -20.6047  -11.1540 C   0  0  0  0  0  0  0  0  0  0  0  0
   28.4528  -20.0236  -11.9639 C   0  0  0  0  0  0  0  0  0  0  0  0
   29.7725  -20.3651  -11.9237 C   0  0  0  0  0  0  0  0  0  0  0  0
   30.1817  -21.3432  -11.0288 C   0  0  0  0  0  0  0  0  0  0  0  0
   29.2675  -21.9392  -10.2144 C   0  0  0  0  0  0  0  0  0  0  0  0
   27.9332  -21.5728  -10.2764 C   0  0  0  0  0  0  0  0  0  0  0  0
   23.9668  -20.4456  -12.4296 C   0  0  0  0  0  0  0  0  0  0  0  0
   23.5774  -19.3234  -12.8268 O   0  0  0  0  0  0  0  0  0  0  0  0
   23.0378  -21.3720  -11.9263 N   0  0  0  0  0  0  0  0  0  0  0  0
   21.6442  -21.0415  -11.8679 C   0  0  0  0  0  0  0  0  0  0  0  0
   20.9451  -21.4695  -13.1314 C   0  0  0  0  0  0  0  0  0  0  0  0
   19.5882  -21.2875  -13.2852 O   0  0  0  0  0  0  0  0  0  0  0  0
   21.6097  -21.9992  -14.0560 O   0  0  0  0  0  0  0  0  0  0  0  0
  1  2  1  0
  3  2  1  0
  4  5  1  0
  4  3  1  0
  5  1  1  0
  6  8  1  0
  5  6  1  1
  7  6  2  0
  9  8  1  0
  9 10  1  1
 10 11  1  0
 11 12  2  0
 11 16  1  0
 12 13  1  0
 13 14  2  0
 15 14  1  0
 16 15  2  0
 17  9  1  0
 18 17  2  0
 19 17  1  0
 20 21  1  0
 20 19  1  0
 21 22  1  0
 23 21  2  0
M  END
$$$$
