PFG.pdb
     RDKit          3D

 23 24  0  0  1  0  0  0  0  0999 V2000
   26.5908  -19.3759  -13.2085 N   0  0  0  0  0  0  0  0  0  0  0  0
   27.0464  -19.2790  -14.5892 C   0  0  0  0  0  0  0  0  0  0  0  0
   28.2825  -20.1558  -14.6121 C   0  0  0  0  0  0  0  0  0  0  0  0
   27.9912  -21.2248  -13.5806 C   0  0  0  0  0  0  0  0  0  0  0  0
   26.7143  -20.7934  -12.9302 C   0  0  1  0  0  0  0  0  0  0  0  0
   26.6265  -21.0796  -11.4918 C   0  0  0  0  0  0  0  0  0  0  0  0
   26.5439  -22.2398  -11.0210 O   0  0  0  0  0  0  0  0  0  0  0  0
   26.6327  -20.0091  -10.5595 N   0  0  0  0  0  0  0  0  0  0  0  0
   26.6135  -20.2853   -9.1321 C   0  0  1  0  0  0  0  0  0  0  0  0
   27.3872  -19.1757   -8.4211 C   0  0  0  0  0  0  0  0  0  0  0  0
   27.6825  -19.5613   -7.0166 C   0  0  0  0  0  0  0  0  0  0  0  0
   28.9358  -20.0214   -6.6526 C   0  0  0  0  0  0  0  0  0  0  0  0
   29.2579  -20.3877   -5.3790 C   0  0  0  0  0  0  0  0  0  0  0  0
   28.2862  -20.2976   -4.3928 C   0  0  0  0  0  0  0  0  0  0  0  0
   27.0402  -19.8495   -4.7107 C   0  0  0  0  0  0  0  0  0  0  0  0
   26.7405  -19.4841   -6.0126 C   0  0  0  0  0  0  0  0  0  0  0  0
   25.2196  -20.2525   -8.6017 C   0  0  0  0  0  0  0  0  0  0  0  0
   24.5018  -19.2770   -8.9209 O   0  0  0  0  0  0  0  0  0  0  0  0
   24.7017  -21.2623   -7.7732 N   0  0  0  0  0  0  0  0  0  0  0  0
   23.3592  -21.1757   -7.2782 C   0  0  0  0  0  0  0  0  0  0  0  0
   23.0530  -22.3389   -6.3719 C   0  0  0  0  0  0  0  0  0  0  0  0
   21.8171  -22.4651   -5.7763 O   0  0  0  0  0  0  0  0  0  0  0  0
   23.9373  -23.2045   -6.1576 O   0  0  0  0  0  0  0  0  0  0  0  0
  1  2  1  0
  3  2  1  0
  4  5  1  0
  4  3  1  0
  5  1  1  0
  6  8  1  0
  5  6  1  1
  7  6  2  0
  9  8  1  0
  9 10  1  1
 10 11  1  0
 11 12  2  0
 11 16  1  0
 12 13  1  0
 13 14  2  0
 15 14  1  0
 16 15  2  0
 17  9  1  0
 18 17  2  0
 19 17  1  0
 20 21  1  0
 20 19  1  0
 21 22  1  0
 23 21  2  0
M  END
$$$$
