PFG.pdb
     RDKit          3D

 23 24  0  0  1  0  0  0  0  0999 V2000
   30.4301  -20.7778  -10.3426 N   0  0  0  0  0  0  0  0  0  0  0  0
   31.8205  -21.1851  -10.4980 C   0  0  0  0  0  0  0  0  0  0  0  0
   31.9789  -22.2883   -9.4709 C   0  0  0  0  0  0  0  0  0  0  0  0
   30.6064  -22.9232   -9.4023 C   0  0  0  0  0  0  0  0  0  0  0  0
   29.7348  -22.0464  -10.2454 C   0  0  1  0  0  0  0  0  0  0  0  0
   28.3611  -21.8823   -9.7509 C   0  0  0  0  0  0  0  0  0  0  0  0
   27.5688  -22.8400   -9.5787 O   0  0  0  0  0  0  0  0  0  0  0  0
   27.8741  -20.5850   -9.4428 N   0  0  0  0  0  0  0  0  0  0  0  0
   26.5323  -20.4178   -8.9082 C   0  0  1  0  0  0  0  0  0  0  0  0
   26.5564  -19.2584   -7.9130 C   0  0  0  0  0  0  0  0  0  0  0  0
   27.3944  -19.5985   -6.7339 C   0  0  0  0  0  0  0  0  0  0  0  0
   27.0653  -20.6590   -5.9081 C   0  0  0  0  0  0  0  0  0  0  0  0
   27.8000  -21.0124   -4.8148 C   0  0  0  0  0  0  0  0  0  0  0  0
   28.9358  -20.2771   -4.5080 C   0  0  0  0  0  0  0  0  0  0  0  0
   29.2936  -19.2258   -5.2961 C   0  0  0  0  0  0  0  0  0  0  0  0
   28.5288  -18.8890   -6.4007 C   0  0  0  0  0  0  0  0  0  0  0  0
   25.5715  -20.0455   -9.9869 C   0  0  0  0  0  0  0  0  0  0  0  0
   26.0097  -19.3645  -10.9425 O   0  0  0  0  0  0  0  0  0  0  0  0
   24.2199  -20.4287   -9.9612 N   0  0  0  0  0  0  0  0  0  0  0  0
   23.4105  -20.3092  -11.1382 C   0  0  0  0  0  0  0  0  0  0  0  0
   21.9971  -20.7458  -10.8554 C   0  0  0  0  0  0  0  0  0  0  0  0
   21.6478  -21.2573   -9.6248 O   0  0  0  0  0  0  0  0  0  0  0  0
   21.1267  -20.6415  -11.7547 O   0  0  0  0  0  0  0  0  0  0  0  0
  1  2  1  0
  3  2  1  0
  4  5  1  0
  4  3  1  0
  5  1  1  0
  6  8  1  0
  5  6  1  1
  7  6  2  0
  9  8  1  0
  9 10  1  1
 10 11  1  0
 11 12  2  0
 11 16  1  0
 12 13  1  0
 13 14  2  0
 15 14  1  0
 16 15  2  0
 17  9  1  0
 18 17  2  0
 19 17  1  0
 20 21  1  0
 20 19  1  0
 21 22  1  0
 23 21  2  0
M  END
$$$$
