HFN.pdb
     RDKit          3D

 30 31  0  0  1  0  0  0  0  0999 V2000
   10.7526  -15.1396   19.1418 N   0  0  0  0  0  0  0  0  0  0  0  0
    9.4138  -14.9334   19.6553 C   0  0  1  0  0  0  0  0  0  0  0  0
    8.6007  -16.1724   19.2740 C   0  0  0  0  0  0  0  0  0  0  0  0
    8.1556  -16.0745   17.8569 C   0  0  0  0  0  0  0  0  0  0  0  0
    8.4793  -15.1334   16.9035 C   0  0  0  0  0  0  0  0  0  0  0  0
    7.8636  -15.4046   15.7396 N   0  0  0  0  0  0  0  0  0  0  0  0
    7.1410  -16.5264   15.9490 C   0  0  0  0  0  0  0  0  0  0  0  0
    7.3148  -16.9323   17.2231 N   0  0  0  0  0  0  0  0  0  0  0  0
    9.4924  -14.8498   21.1192 C   0  0  0  0  0  0  0  0  0  0  0  0
   10.5205  -15.1656   21.7544 O   0  0  0  0  0  0  0  0  0  0  0  0
    8.3754  -14.3979   21.8574 N   0  0  0  0  0  0  0  0  0  0  0  0
    8.4039  -14.1963   23.2937 C   0  0  1  0  0  0  0  0  0  0  0  0
    7.2401  -13.3306   23.6485 C   0  0  0  0  0  0  0  0  0  0  0  0
    7.2779  -13.0722   25.1104 C   0  0  0  0  0  0  0  0  0  0  0  0
    6.3458  -13.7208   25.8901 C   0  0  0  0  0  0  0  0  0  0  0  0
    6.2823  -13.5588   27.2705 C   0  0  0  0  0  0  0  0  0  0  0  0
    7.1711  -12.7300   27.8805 C   0  0  0  0  0  0  0  0  0  0  0  0
    8.1128  -12.0730   27.1036 C   0  0  0  0  0  0  0  0  0  0  0  0
    8.1732  -12.2367   25.7290 C   0  0  0  0  0  0  0  0  0  0  0  0
    8.4614  -15.4714   24.0271 C   0  0  0  0  0  0  0  0  0  0  0  0
    7.4811  -16.2526   23.9155 O   0  0  0  0  0  0  0  0  0  0  0  0
    9.5660  -18.5137   23.1677 N   0  0  0  0  0  0  0  0  0  0  0  0
   10.7706  -18.5353   23.9225 C   0  0  0  0  0  0  0  0  0  0  0  0
   11.7325  -19.1684   23.4573 O   0  0  0  0  0  0  0  0  0  0  0  0
   10.8132  -17.8259   25.1808 C   0  0  0  0  0  0  0  0  0  0  0  0
    9.5428  -17.1352   25.6138 C   0  0  2  0  0  0  0  0  0  0  0  0
    9.5325  -15.8804   24.8438 N   0  0  0  0  0  0  0  0  0  0  0  0
    9.5122  -16.8295   27.0591 C   0  0  0  0  0  0  0  0  0  0  0  0
    9.8633  -15.6924   27.4409 O   0  0  0  0  0  0  0  0  0  0  0  0
    9.1093  -17.7606   27.9705 O   0  0  0  0  0  0  0  0  0  0  0  0
  2  3  1  0
  2  1  1  6
  3  4  1  0
  4  8  1  0
  4  5  2  0
  5  6  1  0
  7  6  1  0
  8  7  2  0
  9 11  1  0
  9  2  1  0
 10  9  2  0
 12 13  1  1
 12 11  1  0
 13 14  1  0
 14 15  2  0
 14 19  1  0
 15 16  1  0
 16 17  2  0
 18 17  1  0
 19 18  2  0
 20 12  1  0
 20 21  2  0
 22 23  1  0
 23 24  2  0
 23 25  1  0
 26 25  1  1
 26 27  1  0
 27 20  1  0
 28 26  1  0
 28 30  1  0
 29 28  2  0
M  END
$$$$
