HFN.pdb
     RDKit          3D

 30 31  0  0  1  0  0  0  0  0999 V2000
    9.1606  -17.2076   19.9265 N   0  0  0  0  0  0  0  0  0  0  0  0
   10.4853  -17.0552   20.4923 C   0  0  1  0  0  0  0  0  0  0  0  0
   11.3124  -16.2712   19.4710 C   0  0  0  0  0  0  0  0  0  0  0  0
   11.2021  -16.9065   18.1294 C   0  0  0  0  0  0  0  0  0  0  0  0
   10.3902  -17.9414   17.7178 C   0  0  0  0  0  0  0  0  0  0  0  0
   10.5958  -18.2192   16.4186 N   0  0  0  0  0  0  0  0  0  0  0  0
   11.5454  -17.3568   15.9956 C   0  0  0  0  0  0  0  0  0  0  0  0
   11.9126  -16.5649   17.0235 N   0  0  0  0  0  0  0  0  0  0  0  0
   10.3701  -16.2590   21.7208 C   0  0  0  0  0  0  0  0  0  0  0  0
   11.3683  -15.8557   22.3542 O   0  0  0  0  0  0  0  0  0  0  0  0
    9.0924  -15.9249   22.2235 N   0  0  0  0  0  0  0  0  0  0  0  0
    8.8855  -15.3340   23.5321 C   0  0  1  0  0  0  0  0  0  0  0  0
    7.6095  -14.5603   23.4784 C   0  0  0  0  0  0  0  0  0  0  0  0
    7.4701  -13.7996   24.7461 C   0  0  0  0  0  0  0  0  0  0  0  0
    6.5766  -14.2823   25.6768 C   0  0  0  0  0  0  0  0  0  0  0  0
    6.3597  -13.6566   26.9003 C   0  0  0  0  0  0  0  0  0  0  0  0
    7.0526  -12.5246   27.1961 C   0  0  0  0  0  0  0  0  0  0  0  0
    7.9540  -12.0315   26.2653 C   0  0  0  0  0  0  0  0  0  0  0  0
    8.1676  -12.6573   25.0476 C   0  0  0  0  0  0  0  0  0  0  0  0
    8.9442  -16.3398   24.6053 C   0  0  0  0  0  0  0  0  0  0  0  0
    8.2707  -17.3922   24.4552 O   0  0  0  0  0  0  0  0  0  0  0  0
   10.6339  -18.8790   28.9579 N   0  0  0  0  0  0  0  0  0  0  0  0
   11.2025  -17.5779   28.8868 C   0  0  0  0  0  0  0  0  0  0  0  0
   11.9773  -17.2358   29.7951 O   0  0  0  0  0  0  0  0  0  0  0  0
   10.8524  -16.7283   27.7714 C   0  0  0  0  0  0  0  0  0  0  0  0
    9.8784  -17.2942   26.7667 C   0  0  2  0  0  0  0  0  0  0  0  0
    9.6984  -16.2104   25.7868 N   0  0  0  0  0  0  0  0  0  0  0  0
    8.5721  -17.6474   27.3601 C   0  0  0  0  0  0  0  0  0  0  0  0
    8.5159  -18.6008   28.1664 O   0  0  0  0  0  0  0  0  0  0  0  0
    7.4412  -16.9540   27.0441 O   0  0  0  0  0  0  0  0  0  0  0  0
  2  3  1  0
  2  1  1  6
  3  4  1  0
  4  8  1  0
  4  5  2  0
  5  6  1  0
  7  6  1  0
  8  7  2  0
  9 11  1  0
  9  2  1  0
 10  9  2  0
 12 13  1  6
 12 11  1  0
 13 14  1  0
 14 15  2  0
 14 19  1  0
 15 16  1  0
 16 17  2  0
 18 17  1  0
 19 18  2  0
 20 12  1  0
 20 21  2  0
 22 23  1  0
 23 24  2  0
 23 25  1  0
 26 25  1  1
 26 27  1  0
 27 20  1  0
 28 26  1  0
 28 30  1  0
 29 28  2  0
M  END
$$$$
