HFN.pdb
     RDKit          3D

 30 31  0  0  1  0  0  0  0  0999 V2000
   10.2208  -16.3526   19.1638 N   0  0  0  0  0  0  0  0  0  0  0  0
    8.9482  -16.2711   19.8510 C   0  0  1  0  0  0  0  0  0  0  0  0
    8.4104  -17.7002   19.9521 C   0  0  0  0  0  0  0  0  0  0  0  0
    7.9187  -18.1556   18.6230 C   0  0  0  0  0  0  0  0  0  0  0  0
    7.4865  -17.4076   17.5491 C   0  0  0  0  0  0  0  0  0  0  0  0
    7.1235  -18.2051   16.5296 N   0  0  0  0  0  0  0  0  0  0  0  0
    7.3244  -19.4718   16.9532 C   0  0  0  0  0  0  0  0  0  0  0  0
    7.8033  -19.4454   18.2135 N   0  0  0  0  0  0  0  0  0  0  0  0
    9.1910  -15.7588   21.2056 C   0  0  0  0  0  0  0  0  0  0  0  0
   10.2653  -15.9519   21.8127 O   0  0  0  0  0  0  0  0  0  0  0  0
    8.1857  -15.0171   21.8661 N   0  0  0  0  0  0  0  0  0  0  0  0
    8.3123  -14.5558   23.2357 C   0  0  1  0  0  0  0  0  0  0  0  0
    7.1742  -13.6268   23.5032 C   0  0  0  0  0  0  0  0  0  0  0  0
    7.2311  -13.2162   24.9292 C   0  0  0  0  0  0  0  0  0  0  0  0
    8.1208  -12.2192   25.2638 C   0  0  0  0  0  0  0  0  0  0  0  0
    8.2640  -11.7504   26.5659 C   0  0  0  0  0  0  0  0  0  0  0  0
    7.4998  -12.2922   27.5515 C   0  0  0  0  0  0  0  0  0  0  0  0
    6.6015  -13.2961   27.2239 C   0  0  0  0  0  0  0  0  0  0  0  0
    6.4614  -13.7607   25.9260 C   0  0  0  0  0  0  0  0  0  0  0  0
    8.4217  -15.6753   24.1852 C   0  0  0  0  0  0  0  0  0  0  0  0
    7.4800  -16.5096   24.2138 O   0  0  0  0  0  0  0  0  0  0  0  0
   11.0532  -20.1209   25.6358 N   0  0  0  0  0  0  0  0  0  0  0  0
   11.5392  -18.8325   25.9896 C   0  0  0  0  0  0  0  0  0  0  0  0
   12.4072  -18.7659   26.8754 O   0  0  0  0  0  0  0  0  0  0  0  0
   11.0029  -17.6776   25.3063 C   0  0  0  0  0  0  0  0  0  0  0  0
    9.7061  -17.1165   25.8372 C   0  0  2  0  0  0  0  0  0  0  0  0
    9.5026  -15.8807   25.0634 N   0  0  0  0  0  0  0  0  0  0  0  0
    9.7597  -16.7951   27.2784 C   0  0  0  0  0  0  0  0  0  0  0  0
    9.3275  -17.6338   28.0981 O   0  0  0  0  0  0  0  0  0  0  0  0
   10.2698  -15.6100   27.7202 O   0  0  0  0  0  0  0  0  0  0  0  0
  2  3  1  0
  2  1  1  6
  3  4  1  0
  4  8  1  0
  4  5  2  0
  5  6  1  0
  7  6  1  0
  8  7  2  0
  9 11  1  0
  9  2  1  0
 10  9  2  0
 12 13  1  1
 12 11  1  0
 13 14  1  0
 14 15  2  0
 14 19  1  0
 15 16  1  0
 16 17  2  0
 18 17  1  0
 19 18  2  0
 20 12  1  0
 20 21  2  0
 22 23  1  0
 23 24  2  0
 23 25  1  0
 26 25  1  6
 26 27  1  0
 27 20  1  0
 28 26  1  0
 28 30  1  0
 29 28  2  0
M  END
$$$$
