HFN.pdb
     RDKit          3D

 30 31  0  0  1  0  0  0  0  0999 V2000
   11.0164  -16.6537   20.2215 N   0  0  0  0  0  0  0  0  0  0  0  0
    9.7516  -16.7899   20.9143 C   0  0  1  0  0  0  0  0  0  0  0  0
    9.6875  -18.2275   21.4348 C   0  0  0  0  0  0  0  0  0  0  0  0
    9.4649  -19.1701   20.3044 C   0  0  0  0  0  0  0  0  0  0  0  0
    8.7189  -18.9979   19.1584 C   0  0  0  0  0  0  0  0  0  0  0  0
    8.7757  -20.0958   18.3847 N   0  0  0  0  0  0  0  0  0  0  0  0
    9.5631  -20.9767   19.0393 C   0  0  0  0  0  0  0  0  0  0  0  0
    9.9798  -20.4221   20.1958 N   0  0  0  0  0  0  0  0  0  0  0  0
    9.7551  -15.8706   22.0594 C   0  0  0  0  0  0  0  0  0  0  0  0
   10.8094  -15.4919   22.6117 O   0  0  0  0  0  0  0  0  0  0  0  0
    8.5317  -15.3837   22.5724 N   0  0  0  0  0  0  0  0  0  0  0  0
    8.4455  -14.5435   23.7517 C   0  0  1  0  0  0  0  0  0  0  0  0
    7.1095  -13.8768   23.7310 C   0  0  0  0  0  0  0  0  0  0  0  0
    6.9486  -13.1126   24.9941 C   0  0  0  0  0  0  0  0  0  0  0  0
    7.7497  -12.0056   25.1684 C   0  0  0  0  0  0  0  0  0  0  0  0
    7.6901  -11.2112   26.3090 C   0  0  0  0  0  0  0  0  0  0  0  0
    6.8098  -11.5335   27.2940 C   0  0  0  0  0  0  0  0  0  0  0  0
    5.9994  -12.6460   27.1272 C   0  0  0  0  0  0  0  0  0  0  0  0
    6.0614  -13.4350   25.9898 C   0  0  0  0  0  0  0  0  0  0  0  0
    8.7331  -15.2947   24.9845 C   0  0  0  0  0  0  0  0  0  0  0  0
    8.8429  -14.6402   26.0538 O   0  0  0  0  0  0  0  0  0  0  0  0
   10.7092  -19.9686   27.2673 N   0  0  0  0  0  0  0  0  0  0  0  0
    9.3330  -19.8522   26.9301 C   0  0  0  0  0  0  0  0  0  0  0  0
    8.5319  -20.6085   27.5036 O   0  0  0  0  0  0  0  0  0  0  0  0
    8.9410  -18.8688   25.9464 C   0  0  0  0  0  0  0  0  0  0  0  0
    9.1817  -17.4214   26.3004 C   0  0  2  0  0  0  0  0  0  0  0  0
    8.8942  -16.6914   25.0547 N   0  0  0  0  0  0  0  0  0  0  0  0
   10.5714  -17.1509   26.7235 C   0  0  0  0  0  0  0  0  0  0  0  0
   10.7874  -16.8372   27.9138 O   0  0  0  0  0  0  0  0  0  0  0  0
   11.6088  -17.2394   25.8425 O   0  0  0  0  0  0  0  0  0  0  0  0
  2  3  1  0
  2  1  1  1
  3  4  1  0
  4  8  1  0
  4  5  2  0
  5  6  1  0
  7  6  1  0
  8  7  2  0
  9 11  1  0
  9  2  1  0
 10  9  2  0
 12 13  1  1
 12 11  1  0
 13 14  1  0
 14 15  2  0
 14 19  1  0
 15 16  1  0
 16 17  2  0
 18 17  1  0
 19 18  2  0
 20 12  1  0
 20 21  2  0
 22 23  1  0
 23 24  2  0
 23 25  1  0
 26 25  1  6
 26 27  1  0
 27 20  1  0
 28 26  1  0
 28 30  1  0
 29 28  2  0
M  END
$$$$
