HFN.pdb
     RDKit          3D

 30 31  0  0  1  0  0  0  0  0999 V2000
   11.2473  -14.8981   19.9238 N   0  0  0  0  0  0  0  0  0  0  0  0
   10.0854  -14.6743   20.7594 C   0  0  1  0  0  0  0  0  0  0  0  0
    8.9526  -15.5203   20.1738 C   0  0  0  0  0  0  0  0  0  0  0  0
    8.3207  -14.8059   19.0309 C   0  0  0  0  0  0  0  0  0  0  0  0
    8.6977  -13.6286   18.4215 C   0  0  0  0  0  0  0  0  0  0  0  0
    7.8566  -13.3218   17.4186 N   0  0  0  0  0  0  0  0  0  0  0  0
    6.9351  -14.3088   17.3857 C   0  0  0  0  0  0  0  0  0  0  0  0
    7.2118  -15.2041   18.3554 N   0  0  0  0  0  0  0  0  0  0  0  0
   10.3918  -15.1619   22.1103 C   0  0  0  0  0  0  0  0  0  0  0  0
   11.1767  -16.1110   22.3183 O   0  0  0  0  0  0  0  0  0  0  0  0
    9.7875  -14.5496   23.2313 N   0  0  0  0  0  0  0  0  0  0  0  0
   10.0990  -14.9184   24.5993 C   0  0  1  0  0  0  0  0  0  0  0  0
    9.3664  -13.9757   25.4961 C   0  0  0  0  0  0  0  0  0  0  0  0
    9.7991  -14.2285   26.8940 C   0  0  0  0  0  0  0  0  0  0  0  0
    8.8240  -14.2246   27.8670 C   0  0  0  0  0  0  0  0  0  0  0  0
    9.1070  -14.4488   29.2106 C   0  0  0  0  0  0  0  0  0  0  0  0
   10.3933  -14.6815   29.5855 C   0  0  0  0  0  0  0  0  0  0  0  0
   11.3813  -14.6873   28.6130 C   0  0  0  0  0  0  0  0  0  0  0  0
   11.0959  -14.4635   27.2756 C   0  0  0  0  0  0  0  0  0  0  0  0
    9.8296  -16.3418   24.8602 C   0  0  0  0  0  0  0  0  0  0  0  0
    8.7341  -16.8113   24.4562 O   0  0  0  0  0  0  0  0  0  0  0  0
   10.4581  -21.4444   25.7886 N   0  0  0  0  0  0  0  0  0  0  0  0
   11.0332  -20.8022   24.6580 C   0  0  0  0  0  0  0  0  0  0  0  0
   11.4977  -21.5222   23.7590 O   0  0  0  0  0  0  0  0  0  0  0  0
   11.0475  -19.3578   24.6139 C   0  0  0  0  0  0  0  0  0  0  0  0
   10.4153  -18.6369   25.7796 C   0  0  2  0  0  0  0  0  0  0  0  0
   10.7076  -17.2160   25.5283 N   0  0  0  0  0  0  0  0  0  0  0  0
   10.9817  -19.0357   27.0848 C   0  0  0  0  0  0  0  0  0  0  0  0
   10.2051  -19.4215   27.9848 O   0  0  0  0  0  0  0  0  0  0  0  0
   12.3249  -18.9899   27.3165 O   0  0  0  0  0  0  0  0  0  0  0  0
  2  3  1  0
  2  1  1  6
  3  4  1  0
  4  8  1  0
  4  5  2  0
  5  6  1  0
  7  6  1  0
  8  7  2  0
  9 11  1  0
  9  2  1  0
 10  9  2  0
 12 13  1  1
 12 11  1  0
 13 14  1  0
 14 15  2  0
 14 19  1  0
 15 16  1  0
 16 17  2  0
 18 17  1  0
 19 18  2  0
 20 12  1  0
 20 21  2  0
 22 23  1  0
 23 24  2  0
 23 25  1  0
 26 25  1  6
 26 27  1  0
 27 20  1  0
 28 26  1  0
 28 30  1  0
 29 28  2  0
M  END
$$$$
