HFN.pdb
     RDKit          3D

 30 31  0  0  1  0  0  0  0  0999 V2000
   10.3824  -16.7491   19.9097 N   0  0  0  0  0  0  0  0  0  0  0  0
    9.4213  -17.1648   20.9106 C   0  0  1  0  0  0  0  0  0  0  0  0
    9.8501  -18.5563   21.3813 C   0  0  0  0  0  0  0  0  0  0  0  0
    9.6660  -19.5453   20.2841 C   0  0  0  0  0  0  0  0  0  0  0  0
    8.5257  -19.8641   19.5786 C   0  0  0  0  0  0  0  0  0  0  0  0
    8.7828  -20.8155   18.6643 N   0  0  0  0  0  0  0  0  0  0  0  0
   10.0960  -21.1078   18.7850 C   0  0  0  0  0  0  0  0  0  0  0  0
   10.6307  -20.3445   19.7596 N   0  0  0  0  0  0  0  0  0  0  0  0
    9.5072  -16.2337   22.0429 C   0  0  0  0  0  0  0  0  0  0  0  0
   10.5915  -15.7527   22.4343 O   0  0  0  0  0  0  0  0  0  0  0  0
    8.3323  -15.8540   22.7302 N   0  0  0  0  0  0  0  0  0  0  0  0
    8.3363  -14.9577   23.8708 C   0  0  1  0  0  0  0  0  0  0  0  0
    6.9820  -14.3346   23.9565 C   0  0  0  0  0  0  0  0  0  0  0  0
    6.9271  -13.5024   25.1852 C   0  0  0  0  0  0  0  0  0  0  0  0
    7.5727  -12.2860   25.1529 C   0  0  0  0  0  0  0  0  0  0  0  0
    7.5911  -11.4197   26.2414 C   0  0  0  0  0  0  0  0  0  0  0  0
    6.9495  -11.7806   27.3846 C   0  0  0  0  0  0  0  0  0  0  0  0
    6.2970  -13.0032   27.4263 C   0  0  0  0  0  0  0  0  0  0  0  0
    6.2806  -13.8636   26.3402 C   0  0  0  0  0  0  0  0  0  0  0  0
    8.7746  -15.6359   25.1016 C   0  0  0  0  0  0  0  0  0  0  0  0
    8.8955  -14.9366   26.1409 O   0  0  0  0  0  0  0  0  0  0  0  0
    7.8426  -19.1592   28.6734 N   0  0  0  0  0  0  0  0  0  0  0  0
    7.6329  -19.2073   27.2681 C   0  0  0  0  0  0  0  0  0  0  0  0
    6.4768  -19.4126   26.8633 O   0  0  0  0  0  0  0  0  0  0  0  0
    8.7656  -19.0165   26.3912 C   0  0  0  0  0  0  0  0  0  0  0  0
    9.4552  -17.6754   26.4553 C   0  0  2  0  0  0  0  0  0  0  0  0
    9.0683  -17.0090   25.2009 N   0  0  0  0  0  0  0  0  0  0  0  0
   10.9273  -17.7826   26.5255 C   0  0  0  0  0  0  0  0  0  0  0  0
   11.4624  -17.9974   27.6344 O   0  0  0  0  0  0  0  0  0  0  0  0
   11.6998  -17.6532   25.4091 O   0  0  0  0  0  0  0  0  0  0  0  0
  2  3  1  0
  2  1  1  6
  3  4  1  0
  4  8  1  0
  4  5  2  0
  5  6  1  0
  7  6  1  0
  8  7  2  0
  9 11  1  0
  9  2  1  0
 10  9  2  0
 12 13  1  1
 12 11  1  0
 13 14  1  0
 14 15  2  0
 14 19  1  0
 15 16  1  0
 16 17  2  0
 18 17  1  0
 19 18  2  0
 20 12  1  0
 20 21  2  0
 22 23  1  0
 23 24  2  0
 23 25  1  0
 26 25  1  6
 26 27  1  0
 27 20  1  0
 28 26  1  0
 28 30  1  0
 29 28  2  0
M  END
$$$$
