HFN.pdb
     RDKit          3D

 30 31  0  0  1  0  0  0  0  0999 V2000
   10.4979  -16.9810   19.6647 N   0  0  0  0  0  0  0  0  0  0  0  0
    9.4378  -17.3009   20.5986 C   0  0  1  0  0  0  0  0  0  0  0  0
    9.6017  -18.7786   20.9609 C   0  0  0  0  0  0  0  0  0  0  0  0
    9.3120  -19.6300   19.7747 C   0  0  0  0  0  0  0  0  0  0  0  0
    8.2215  -19.6112   18.9321 C   0  0  0  0  0  0  0  0  0  0  0  0
    8.3435  -20.5480   17.9756 N   0  0  0  0  0  0  0  0  0  0  0  0
    9.5195  -21.1707   18.2071 C   0  0  0  0  0  0  0  0  0  0  0  0
   10.1052  -20.6202   19.2899 N   0  0  0  0  0  0  0  0  0  0  0  0
    9.6330  -16.4916   21.8082 C   0  0  0  0  0  0  0  0  0  0  0  0
   10.7606  -16.2942   22.3078 O   0  0  0  0  0  0  0  0  0  0  0  0
    8.5178  -15.9046   22.4475 N   0  0  0  0  0  0  0  0  0  0  0  0
    8.6180  -15.1558   23.6859 C   0  0  1  0  0  0  0  0  0  0  0  0
    7.4037  -14.2929   23.7880 C   0  0  0  0  0  0  0  0  0  0  0  0
    7.4865  -13.5165   25.0512 C   0  0  0  0  0  0  0  0  0  0  0  0
    6.4518  -13.6600   25.9491 C   0  0  0  0  0  0  0  0  0  0  0  0
    6.4177  -12.9850   27.1652 C   0  0  0  0  0  0  0  0  0  0  0  0
    7.4414  -12.1498   27.4868 C   0  0  0  0  0  0  0  0  0  0  0  0
    8.4870  -11.9992   26.5891 C   0  0  0  0  0  0  0  0  0  0  0  0
    8.5179  -12.6730   25.3787 C   0  0  0  0  0  0  0  0  0  0  0  0
    8.8397  -16.0362   24.8446 C   0  0  0  0  0  0  0  0  0  0  0  0
    7.8802  -16.7592   25.2193 O   0  0  0  0  0  0  0  0  0  0  0  0
   10.7252  -19.2510   24.9027 N   0  0  0  0  0  0  0  0  0  0  0  0
   11.7785  -18.3941   25.3242 C   0  0  0  0  0  0  0  0  0  0  0  0
   12.8085  -18.3610   24.6311 O   0  0  0  0  0  0  0  0  0  0  0  0
   11.5978  -17.6131   26.5266 C   0  0  0  0  0  0  0  0  0  0  0  0
   10.2361  -16.9969   26.7374 C   0  0  2  0  0  0  0  0  0  0  0  0
   10.0462  -16.1283   25.5640 N   0  0  0  0  0  0  0  0  0  0  0  0
   10.1497  -16.1884   27.9712 C   0  0  0  0  0  0  0  0  0  0  0  0
    9.7305  -16.7297   29.0168 O   0  0  0  0  0  0  0  0  0  0  0  0
   10.5184  -14.8754   27.9836 O   0  0  0  0  0  0  0  0  0  0  0  0
  2  3  1  0
  2  1  1  6
  3  4  1  0
  4  8  1  0
  4  5  2  0
  5  6  1  0
  7  6  1  0
  8  7  2  0
  9 11  1  0
  9  2  1  0
 10  9  2  0
 12 13  1  1
 12 11  1  0
 13 14  1  0
 14 15  2  0
 14 19  1  0
 15 16  1  0
 16 17  2  0
 18 17  1  0
 19 18  2  0
 20 12  1  0
 20 21  2  0
 22 23  1  0
 23 24  2  0
 23 25  1  0
 26 25  1  6
 26 27  1  0
 27 20  1  0
 28 26  1  0
 28 30  1  0
 29 28  2  0
M  END
$$$$
