HFN.pdb
     RDKit          3D

 30 31  0  0  1  0  0  0  0  0999 V2000
    7.9775  -16.6229   19.7015 N   0  0  0  0  0  0  0  0  0  0  0  0
    9.3693  -16.5285   20.0918 C   0  0  1  0  0  0  0  0  0  0  0  0
   10.0651  -15.6672   19.0355 C   0  0  0  0  0  0  0  0  0  0  0  0
    9.1073  -14.6758   18.4737 C   0  0  0  0  0  0  0  0  0  0  0  0
    7.7816  -14.4679   18.7881 C   0  0  0  0  0  0  0  0  0  0  0  0
    7.2686  -13.4691   18.0488 N   0  0  0  0  0  0  0  0  0  0  0  0
    8.2721  -13.0348   17.2559 C   0  0  0  0  0  0  0  0  0  0  0  0
    9.3807  -13.7594   17.5094 N   0  0  0  0  0  0  0  0  0  0  0  0
    9.4365  -15.8380   21.3861 C   0  0  0  0  0  0  0  0  0  0  0  0
   10.5198  -15.5271   21.9244 O   0  0  0  0  0  0  0  0  0  0  0  0
    8.2436  -15.5031   22.0657 N   0  0  0  0  0  0  0  0  0  0  0  0
    8.2239  -14.9601   23.4107 C   0  0  1  0  0  0  0  0  0  0  0  0
    7.0282  -14.0721   23.5185 C   0  0  0  0  0  0  0  0  0  0  0  0
    7.0568  -13.4086   24.8468 C   0  0  0  0  0  0  0  0  0  0  0  0
    6.3746  -14.0229   25.8738 C   0  0  0  0  0  0  0  0  0  0  0  0
    6.3289  -13.4973   27.1612 C   0  0  0  0  0  0  0  0  0  0  0  0
    6.9802  -12.3328   27.4234 C   0  0  0  0  0  0  0  0  0  0  0  0
    7.6695  -11.7075   26.3958 C   0  0  0  0  0  0  0  0  0  0  0  0
    7.7129  -12.2338   25.1147 C   0  0  0  0  0  0  0  0  0  0  0  0
    8.2919  -16.0179   24.4320 C   0  0  0  0  0  0  0  0  0  0  0  0
    7.6090  -17.0575   24.2408 O   0  0  0  0  0  0  0  0  0  0  0  0
   11.1331  -19.4253   26.9138 N   0  0  0  0  0  0  0  0  0  0  0  0
   11.2857  -18.9199   25.5937 C   0  0  0  0  0  0  0  0  0  0  0  0
   12.0468  -19.5309   24.8258 O   0  0  0  0  0  0  0  0  0  0  0  0
   10.5537  -17.7321   25.2171 C   0  0  0  0  0  0  0  0  0  0  0  0
    9.6537  -17.1280   26.2675 C   0  0  2  0  0  0  0  0  0  0  0  0
    9.0649  -15.9516   25.6066 N   0  0  0  0  0  0  0  0  0  0  0  0
   10.3820  -16.7018   27.4804 C   0  0  0  0  0  0  0  0  0  0  0  0
   10.4310  -17.4801   28.4571 O   0  0  0  0  0  0  0  0  0  0  0  0
   10.9952  -15.4855   27.5463 O   0  0  0  0  0  0  0  0  0  0  0  0
  2  3  1  0
  2  1  1  6
  3  4  1  0
  4  8  1  0
  4  5  2  0
  5  6  1  0
  7  6  1  0
  8  7  2  0
  9 11  1  0
  9  2  1  0
 10  9  2  0
 12 13  1  1
 12 11  1  0
 13 14  1  0
 14 15  2  0
 14 19  1  0
 15 16  1  0
 16 17  2  0
 18 17  1  0
 19 18  2  0
 20 12  1  0
 20 21  2  0
 22 23  1  0
 23 24  2  0
 23 25  1  0
 26 25  1  6
 26 27  1  0
 27 20  1  0
 28 26  1  0
 28 30  1  0
 29 28  2  0
M  END
$$$$
