HFN.pdb
     RDKit          3D

 30 31  0  0  1  0  0  0  0  0999 V2000
   10.3333  -15.1302   20.7052 N   0  0  0  0  0  0  0  0  0  0  0  0
    9.3029  -15.8540   21.4211 C   0  0  1  0  0  0  0  0  0  0  0  0
    9.4805  -17.3332   21.0716 C   0  0  0  0  0  0  0  0  0  0  0  0
    9.1238  -17.5670   19.6454 C   0  0  0  0  0  0  0  0  0  0  0  0
    8.7821  -16.6548   18.6704 C   0  0  0  0  0  0  0  0  0  0  0  0
    8.5301  -17.2763   17.5053 N   0  0  0  0  0  0  0  0  0  0  0  0
    8.7116  -18.5948   17.7356 C   0  0  0  0  0  0  0  0  0  0  0  0
    9.0692  -18.7731   19.0235 N   0  0  0  0  0  0  0  0  0  0  0  0
    9.5333  -15.6758   22.8604 C   0  0  0  0  0  0  0  0  0  0  0  0
   10.5581  -15.1222   23.3115 O   0  0  0  0  0  0  0  0  0  0  0  0
    8.5735  -16.1401   23.7877 N   0  0  0  0  0  0  0  0  0  0  0  0
    8.7425  -16.0312   25.2244 C   0  0  1  0  0  0  0  0  0  0  0  0
    7.4177  -15.6605   25.8052 C   0  0  0  0  0  0  0  0  0  0  0  0
    7.2961  -14.1806   25.7854 C   0  0  0  0  0  0  0  0  0  0  0  0
    7.5195  -13.5131   26.9695 C   0  0  0  0  0  0  0  0  0  0  0  0
    7.4348  -12.1285   27.0753 C   0  0  0  0  0  0  0  0  0  0  0  0
    7.1198  -11.3991   25.9718 C   0  0  0  0  0  0  0  0  0  0  0  0
    6.8933  -12.0624   24.7756 C   0  0  0  0  0  0  0  0  0  0  0  0
    6.9785  -13.4417   24.6738 C   0  0  0  0  0  0  0  0  0  0  0  0
    9.3430  -17.2452   25.8011 C   0  0  0  0  0  0  0  0  0  0  0  0
    9.3271  -17.3647   27.0538 O   0  0  0  0  0  0  0  0  0  0  0  0
    9.3979  -20.7273   22.4799 N   0  0  0  0  0  0  0  0  0  0  0  0
    9.4743  -20.7928   23.8980 C   0  0  0  0  0  0  0  0  0  0  0  0
    8.4584  -21.1526   24.5152 O   0  0  0  0  0  0  0  0  0  0  0  0
   10.7190  -20.4405   24.5423 C   0  0  0  0  0  0  0  0  0  0  0  0
   10.6432  -19.4231   25.6547 C   0  0  2  0  0  0  0  0  0  0  0  0
    9.9335  -18.2818   25.0539 N   0  0  0  0  0  0  0  0  0  0  0  0
   11.9713  -18.9849   26.1318 C   0  0  0  0  0  0  0  0  0  0  0  0
   12.7003  -19.8100   26.7230 O   0  0  0  0  0  0  0  0  0  0  0  0
   12.4067  -17.7074   25.9363 O   0  0  0  0  0  0  0  0  0  0  0  0
  2  3  1  0
  2  1  1  6
  3  4  1  0
  4  8  1  0
  4  5  2  0
  5  6  1  0
  7  6  1  0
  8  7  2  0
  9 11  1  0
  9  2  1  0
 10  9  2  0
 12 13  1  1
 12 11  1  0
 13 14  1  0
 14 15  2  0
 14 19  1  0
 15 16  1  0
 16 17  2  0
 18 17  1  0
 19 18  2  0
 20 12  1  0
 20 21  2  0
 22 23  1  0
 23 24  2  0
 23 25  1  0
 26 25  1  6
 26 27  1  0
 27 20  1  0
 28 26  1  0
 28 30  1  0
 29 28  2  0
M  END
$$$$
