HFN.pdb
     RDKit          3D

 30 31  0  0  1  0  0  0  0  0999 V2000
   10.9179  -16.6649   20.1599 N   0  0  0  0  0  0  0  0  0  0  0  0
    9.7903  -17.0219   20.9961 C   0  0  1  0  0  0  0  0  0  0  0  0
   10.0651  -18.4303   21.5278 C   0  0  0  0  0  0  0  0  0  0  0  0
    9.7945  -19.4382   20.4663 C   0  0  0  0  0  0  0  0  0  0  0  0
    8.6985  -19.5627   19.6399 C   0  0  0  0  0  0  0  0  0  0  0  0
    8.8434  -20.6127   18.8131 N   0  0  0  0  0  0  0  0  0  0  0  0
   10.0397  -21.1642   19.1118 C   0  0  0  0  0  0  0  0  0  0  0  0
   10.6149  -20.4591   20.1070 N   0  0  0  0  0  0  0  0  0  0  0  0
    9.7457  -16.0879   22.1284 C   0  0  0  0  0  0  0  0  0  0  0  0
   10.7720  -15.5487   22.5933 O   0  0  0  0  0  0  0  0  0  0  0  0
    8.5065  -15.7729   22.7301 N   0  0  0  0  0  0  0  0  0  0  0  0
    8.3761  -14.8414   23.8345 C   0  0  1  0  0  0  0  0  0  0  0  0
    7.0096  -14.2442   23.7588 C   0  0  0  0  0  0  0  0  0  0  0  0
    6.8397  -13.3180   24.9072 C   0  0  0  0  0  0  0  0  0  0  0  0
    7.5904  -12.1631   24.9029 C   0  0  0  0  0  0  0  0  0  0  0  0
    7.5177  -11.2198   25.9229 C   0  0  0  0  0  0  0  0  0  0  0  0
    6.6754  -11.4392   26.9676 C   0  0  0  0  0  0  0  0  0  0  0  0
    5.9158  -12.5990   26.9803 C   0  0  0  0  0  0  0  0  0  0  0  0
    5.9908  -13.5365   25.9627 C   0  0  0  0  0  0  0  0  0  0  0  0
    8.6957  -15.4712   25.1260 C   0  0  0  0  0  0  0  0  0  0  0  0
    8.8859  -14.7137   26.1128 O   0  0  0  0  0  0  0  0  0  0  0  0
    8.0147  -19.7621   24.2917 N   0  0  0  0  0  0  0  0  0  0  0  0
    7.8080  -19.3281   25.6297 C   0  0  0  0  0  0  0  0  0  0  0  0
    6.6413  -19.3017   26.0546 O   0  0  0  0  0  0  0  0  0  0  0  0
    8.9558  -18.9435   26.4190 C   0  0  0  0  0  0  0  0  0  0  0  0
    9.1706  -17.4643   26.6286 C   0  0  2  0  0  0  0  0  0  0  0  0
    8.8040  -16.8587   25.3378 N   0  0  0  0  0  0  0  0  0  0  0  0
   10.5700  -17.1218   26.9568 C   0  0  0  0  0  0  0  0  0  0  0  0
   10.9072  -17.0563   28.1584 O   0  0  0  0  0  0  0  0  0  0  0  0
   11.4874  -16.8805   25.9769 O   0  0  0  0  0  0  0  0  0  0  0  0
  2  3  1  0
  2  1  1  6
  3  4  1  0
  4  8  1  0
  4  5  2  0
  5  6  1  0
  7  6  1  0
  8  7  2  0
  9 11  1  0
  9  2  1  0
 10  9  2  0
 12 13  1  1
 12 11  1  0
 13 14  1  0
 14 15  2  0
 14 19  1  0
 15 16  1  0
 16 17  2  0
 18 17  1  0
 19 18  2  0
 20 12  1  0
 20 21  2  0
 22 23  1  0
 23 24  2  0
 23 25  1  0
 26 25  1  6
 26 27  1  0
 27 20  1  0
 28 26  1  0
 28 30  1  0
 29 28  2  0
M  END
$$$$
