HFN.pdb
     RDKit          3D

 30 31  0  0  1  0  0  0  0  0999 V2000
   10.1233  -17.1251   20.1071 N   0  0  0  0  0  0  0  0  0  0  0  0
    8.8007  -16.8344   20.6215 C   0  0  1  0  0  0  0  0  0  0  0  0
    8.0858  -18.1779   20.7815 C   0  0  0  0  0  0  0  0  0  0  0  0
    7.7411  -18.7350   19.4448 C   0  0  0  0  0  0  0  0  0  0  0  0
    7.3112  -18.0802   18.3108 C   0  0  0  0  0  0  0  0  0  0  0  0
    7.1078  -18.9512   17.3072 N   0  0  0  0  0  0  0  0  0  0  0  0
    7.4094  -20.1715   17.8016 C   0  0  0  0  0  0  0  0  0  0  0  0
    7.7912  -20.0446   19.0887 N   0  0  0  0  0  0  0  0  0  0  0  0
    8.9495  -16.2157   21.9449 C   0  0  0  0  0  0  0  0  0  0  0  0
    9.9215  -16.4561   22.6917 O   0  0  0  0  0  0  0  0  0  0  0  0
    7.9686  -15.3118   22.4114 N   0  0  0  0  0  0  0  0  0  0  0  0
    7.9954  -14.7300   23.7400 C   0  0  1  0  0  0  0  0  0  0  0  0
    7.0673  -13.5602   23.7363 C   0  0  0  0  0  0  0  0  0  0  0  0
    7.0552  -12.9686   25.0984 C   0  0  0  0  0  0  0  0  0  0  0  0
    5.8259  -12.7432   25.6776 C   0  0  0  0  0  0  0  0  0  0  0  0
    5.6871  -12.1940   26.9483 C   0  0  0  0  0  0  0  0  0  0  0  0
    6.8031  -11.8645   27.6517 C   0  0  0  0  0  0  0  0  0  0  0  0
    8.0447  -12.0877   27.0766 C   0  0  0  0  0  0  0  0  0  0  0  0
    8.1793  -12.6349   25.8107 C   0  0  0  0  0  0  0  0  0  0  0  0
    7.7132  -15.7289   24.7837 C   0  0  0  0  0  0  0  0  0  0  0  0
    6.5785  -16.2733   24.7781 O   0  0  0  0  0  0  0  0  0  0  0  0
    7.2557  -20.5584   25.9547 N   0  0  0  0  0  0  0  0  0  0  0  0
    8.4650  -19.8140   26.0249 C   0  0  0  0  0  0  0  0  0  0  0  0
    9.4615  -20.3755   26.5087 O   0  0  0  0  0  0  0  0  0  0  0  0
    8.4719  -18.4548   25.5342 C   0  0  0  0  0  0  0  0  0  0  0  0
    8.4894  -17.3587   26.5718 C   0  0  2  0  0  0  0  0  0  0  0  0
    8.6196  -16.1197   25.7874 N   0  0  0  0  0  0  0  0  0  0  0  0
    9.6221  -17.4696   27.5141 C   0  0  0  0  0  0  0  0  0  0  0  0
    9.4506  -18.0794   28.5915 O   0  0  0  0  0  0  0  0  0  0  0  0
   10.8378  -16.9229   27.2260 O   0  0  0  0  0  0  0  0  0  0  0  0
  2  3  1  0
  2  1  1  1
  3  4  1  0
  4  8  1  0
  4  5  2  0
  5  6  1  0
  7  6  1  0
  8  7  2  0
  9 11  1  0
  9  2  1  0
 10  9  2  0
 12 13  1  6
 12 11  1  0
 13 14  1  0
 14 15  2  0
 14 19  1  0
 15 16  1  0
 16 17  2  0
 18 17  1  0
 19 18  2  0
 20 12  1  0
 20 21  2  0
 22 23  1  0
 23 24  2  0
 23 25  1  0
 26 25  1  6
 26 27  1  0
 27 20  1  0
 28 26  1  0
 28 30  1  0
 29 28  2  0
M  END
$$$$
