RIE.pdb
     RDKit          3D

 29 28  0  0  1  0  0  0  0  0999 V2000
   26.6664  -18.2715  -17.6585 N   0  0  0  0  0  0  0  0  0  0  0  0
   25.2413  -18.2948  -17.7726 C   0  0  0  0  0  0  0  0  0  0  0  0
   24.7002  -18.6525  -18.8869 N   0  0  0  0  0  0  0  0  0  0  0  0
   24.4669  -17.9208  -16.6444 N   0  0  0  0  0  0  0  0  0  0  0  0
   24.9462  -18.3001  -15.3317 C   0  0  0  0  0  0  0  0  0  0  0  0
   24.5678  -19.7406  -15.0759 C   0  0  0  0  0  0  0  0  0  0  0  0
   24.4099  -20.0476  -13.6065 C   0  0  0  0  0  0  0  0  0  0  0  0
   25.7605  -20.2587  -12.9192 C   0  0  2  0  0  0  0  0  0  0  0  0
   26.5692  -21.1541  -13.7287 N   0  0  0  0  0  0  0  0  0  0  0  0
   25.4599  -20.8472  -11.5884 C   0  0  0  0  0  0  0  0  0  0  0  0
   25.2194  -22.0761  -11.5232 O   0  0  0  0  0  0  0  0  0  0  0  0
   23.6677  -18.7043  -18.9760 C   0  0  0  0  0  0  0  0  0  0  0  0
   28.0535  -18.9918   -7.2978 C   0  0  0  0  0  0  0  0  0  0  0  0
   27.3210  -19.8817   -8.2387 C   0  0  2  0  0  0  0  0  0  0  0  0
   25.8536  -19.9571   -8.0917 C   0  0  0  0  0  0  0  0  0  0  0  0
   25.4199  -20.1662   -6.6432 C   0  0  2  0  0  0  0  0  0  0  0  0
   25.0457  -20.6750   -9.0926 N   0  0  0  0  0  0  0  0  0  0  0  0
   25.4379  -20.0656  -10.4043 C   0  0  0  0  0  0  0  0  0  0  0  0
   23.6079  -20.6289   -9.0581 O   0  0  0  0  0  0  0  0  0  0  0  0
   22.9723  -19.5314   -9.2413 N   0  0  0  0  0  0  0  0  0  0  0  0
   22.8227  -21.7813   -8.8316 C   0  0  1  0  0  0  0  0  0  0  0  0
   21.3463  -21.6361   -8.7000 C   0  0  0  0  0  0  0  0  0  0  0  0
   20.8078  -22.0916  -10.0266 C   0  0  0  0  0  0  0  0  0  0  0  0
   19.4212  -21.7807  -10.3796 C   0  0  0  0  0  0  0  0  0  0  0  0
   18.8913  -22.2774  -11.6517 O   0  0  0  0  0  0  0  0  0  0  0  0
   19.6826  -22.8642  -12.4648 C   0  0  0  0  0  0  0  0  0  0  0  0
   20.9424  -22.4106   -7.5408 O   0  0  0  0  0  0  0  0  0  0  0  0
   19.8523  -22.2055   -6.9672 O   0  0  0  0  0  0  0  0  0  0  0  0
   17.5592  -22.1570  -12.0466 O   0  0  0  0  0  0  0  0  0  0  0  0
  2  1  1  0
  3  2  2  0
  4  2  1  0
  5  4  1  0
  6  5  1  0
  7  6  1  0
  7  8  1  0
  8  9  1  6
 10 11  2  0
 10  8  1  0
 13 12  1  0
 13 14  1  0
 14 15  1  6
 16 14  1  0
 16 17  1  6
 17 10  1  0
 18 16  1  0
 19 18  2  0
 20 18  1  0
 21 20  1  0
 21 22  1  1
 22 23  1  0
 24 23  1  0
 24 25  2  0
 26 29  1  0
 26 21  1  0
 27 26  2  0
 28 24  1  0
M  END
$$$$
