RIE.pdb
     RDKit          3D

 29 28  0  0  1  0  0  0  0  0999 V2000
   22.0300  -39.0871   -9.5394 N   0  0  0  0  0  0  0  0  0  0  0  0
   22.5703  -40.4092   -9.6078 C   0  0  0  0  0  0  0  0  0  0  0  0
   22.2531  -41.1734  -10.5967 N   0  0  0  0  0  0  0  0  0  0  0  0
   23.4448  -40.8361   -8.5756 N   0  0  0  0  0  0  0  0  0  0  0  0
   24.1319  -39.8236   -7.8013 C   0  0  0  0  0  0  0  0  0  0  0  0
   25.5801  -39.7854   -8.2312 C   0  0  0  0  0  0  0  0  0  0  0  0
   26.3992  -38.8055   -7.4267 C   0  0  0  0  0  0  0  0  0  0  0  0
   26.0279  -37.3555   -7.7440 C   0  0  2  0  0  0  0  0  0  0  0  0
   26.4696  -37.0372   -9.0910 N   0  0  0  0  0  0  0  0  0  0  0  0
   26.7213  -36.5196   -6.7300 C   0  0  0  0  0  0  0  0  0  0  0  0
   27.9417  -36.2813   -6.8909 O   0  0  0  0  0  0  0  0  0  0  0  0
   22.6960  -42.1058  -10.7024 C   0  0  0  0  0  0  0  0  0  0  0  0
   24.7852  -31.9536   -6.1530 C   0  0  0  0  0  0  0  0  0  0  0  0
   25.6322  -33.1766   -6.1246 C   0  0  2  0  0  0  0  0  0  0  0  0
   25.8995  -33.7815   -4.8042 C   0  0  0  0  0  0  0  0  0  0  0  0
   26.1562  -32.7360   -3.7221 C   0  0  2  0  0  0  0  0  0  0  0  0
   26.7230  -34.9984   -4.7011 N   0  0  0  0  0  0  0  0  0  0  0  0
   26.0478  -35.9904   -5.5986 C   0  0  0  0  0  0  0  0  0  0  0  0
   26.8985  -35.6718   -3.4415 O   0  0  0  0  0  0  0  0  0  0  0  0
   25.9529  -36.3591   -2.9165 N   0  0  0  0  0  0  0  0  0  0  0  0
   28.1142  -35.6214   -2.7236 C   0  0  1  0  0  0  0  0  0  0  0  0
   28.2027  -36.3031   -1.4023 C   0  0  0  0  0  0  0  0  0  0  0  0
   29.6556  -36.6600   -1.2643 C   0  0  0  0  0  0  0  0  0  0  0  0
   30.1408  -37.1999    0.0073 C   0  0  0  0  0  0  0  0  0  0  0  0
   31.5813  -37.4005    0.1820 O   0  0  0  0  0  0  0  0  0  0  0  0
   32.3696  -37.0920   -0.7746 C   0  0  0  0  0  0  0  0  0  0  0  0
   27.6677  -35.3865   -0.4121 O   0  0  0  0  0  0  0  0  0  0  0  0
   27.7284  -34.1492   -0.5690 O   0  0  0  0  0  0  0  0  0  0  0  0
   32.1671  -37.9110    1.3401 O   0  0  0  0  0  0  0  0  0  0  0  0
  2  1  1  0
  3  2  2  0
  4  2  1  0
  5  4  1  0
  6  5  1  0
  7  6  1  0
  7  8  1  0
  8  9  1  6
 10 11  2  0
 10  8  1  0
 13 12  1  0
 13 14  1  0
 14 15  1  1
 16 14  1  0
 16 17  1  6
 17 10  1  0
 18 16  1  0
 19 18  2  0
 20 18  1  0
 21 20  1  0
 21 22  1  1
 22 23  1  0
 24 23  1  0
 24 25  2  0
 26 29  1  0
 26 21  1  0
 27 26  2  0
 28 24  1  0
M  END
$$$$
