RIE.pdb
     RDKit          3D

 29 28  0  0  1  0  0  0  0  0999 V2000
   29.6331  -24.6899  -16.3138 N   0  0  0  0  0  0  0  0  0  0  0  0
   30.3410  -23.7230  -17.0939 C   0  0  0  0  0  0  0  0  0  0  0  0
   31.1795  -24.1212  -17.9888 N   0  0  0  0  0  0  0  0  0  0  0  0
   30.0920  -22.3473  -16.8532 N   0  0  0  0  0  0  0  0  0  0  0  0
   28.7357  -21.9425  -16.5480 C   0  0  0  0  0  0  0  0  0  0  0  0
   27.7948  -22.6486  -17.4966 C   0  0  0  0  0  0  0  0  0  0  0  0
   26.3459  -22.4852  -17.1064 C   0  0  0  0  0  0  0  0  0  0  0  0
   26.1040  -21.1819  -16.3425 C   0  0  2  0  0  0  0  0  0  0  0  0
   27.3850  -20.5781  -16.0180 N   0  0  0  0  0  0  0  0  0  0  0  0
   25.3498  -21.5542  -15.1176 C   0  0  0  0  0  0  0  0  0  0  0  0
   24.4861  -22.4590  -15.2042 O   0  0  0  0  0  0  0  0  0  0  0  0
   31.7435  -23.4330  -18.5226 C   0  0  0  0  0  0  0  0  0  0  0  0
   27.8488  -21.2291  -10.3807 C   0  0  0  0  0  0  0  0  0  0  0  0
   26.8806  -21.7310  -11.3930 C   0  0  2  0  0  0  0  0  0  0  0  0
   25.5994  -21.0074  -11.5179 C   0  0  0  0  0  0  0  0  0  0  0  0
   24.8731  -20.8676  -10.1826 C   0  0  2  0  0  0  0  0  0  0  0  0
   24.7254  -21.2456  -12.6793 N   0  0  0  0  0  0  0  0  0  0  0  0
   25.5779  -20.9212  -13.8683 C   0  0  0  0  0  0  0  0  0  0  0  0
   23.5089  -20.4982  -12.8590 O   0  0  0  0  0  0  0  0  0  0  0  0
   23.4989  -19.2182  -12.7996 N   0  0  0  0  0  0  0  0  0  0  0  0
   22.2703  -21.1266  -13.1176 C   0  0  1  0  0  0  0  0  0  0  0  0
   21.0369  -20.2943  -13.1834 C   0  0  0  0  0  0  0  0  0  0  0  0
   20.8345  -20.0443  -14.6510 C   0  0  0  0  0  0  0  0  0  0  0  0
   19.6236  -19.3526  -15.0975 C   0  0  0  0  0  0  0  0  0  0  0  0
   19.4284  -19.1325  -16.5325 O   0  0  0  0  0  0  0  0  0  0  0  0
   20.3120  -19.5599  -17.3500 C   0  0  0  0  0  0  0  0  0  0  0  0
   19.9870  -21.0319  -12.5049 O   0  0  0  0  0  0  0  0  0  0  0  0
   20.0874  -22.2575  -12.2874 O   0  0  0  0  0  0  0  0  0  0  0  0
   18.3254  -18.4802  -17.0827 O   0  0  0  0  0  0  0  0  0  0  0  0
  2  1  1  0
  3  2  2  0
  4  2  1  0
  5  4  1  0
  6  5  1  0
  7  6  1  0
  7  8  1  0
  8  9  1  1
 10 11  2  0
 10  8  1  0
 13 12  1  0
 13 14  1  0
 14 15  1  6
 16 14  1  0
 16 17  1  6
 17 10  1  0
 18 16  1  0
 19 18  2  0
 20 18  1  0
 21 20  1  0
 21 22  1  1
 22 23  1  0
 24 23  1  0
 24 25  2  0
 26 29  1  0
 26 21  1  0
 27 26  2  0
 28 24  1  0
M  END
$$$$
