RIE.pdb
     RDKit          3D

 29 28  0  0  1  0  0  0  0  0999 V2000
   19.6838  -15.5491  -19.4907 N   0  0  0  0  0  0  0  0  0  0  0  0
   19.6013  -15.0405  -20.8246 C   0  0  0  0  0  0  0  0  0  0  0  0
   19.1586  -15.8011  -21.7669 N   0  0  0  0  0  0  0  0  0  0  0  0
   20.0127  -13.7043  -21.0649 N   0  0  0  0  0  0  0  0  0  0  0  0
   20.6663  -12.9877  -19.9898 C   0  0  0  0  0  0  0  0  0  0  0  0
   19.6556  -12.0794  -19.3289 C   0  0  0  0  0  0  0  0  0  0  0  0
   20.2439  -11.2916  -18.1836 C   0  0  0  0  0  0  0  0  0  0  0  0
   21.3695  -12.0560  -17.4838 C   0  0  2  0  0  0  0  0  0  0  0  0
   20.8088  -13.2176  -16.8151 N   0  0  0  0  0  0  0  0  0  0  0  0
   21.9738  -11.1063  -16.5140 C   0  0  0  0  0  0  0  0  0  0  0  0
   21.3578  -10.8755  -15.4465 O   0  0  0  0  0  0  0  0  0  0  0  0
   19.0357  -15.4288  -22.7276 C   0  0  0  0  0  0  0  0  0  0  0  0
   27.5683  -10.5593  -16.4916 C   0  0  0  0  0  0  0  0  0  0  0  0
   26.1839  -10.0588  -16.7076 C   0  0  2  0  0  0  0  0  0  0  0  0
   25.2340  -10.1968  -15.5854 C   0  0  0  0  0  0  0  0  0  0  0  0
   25.3194  -11.5631  -14.9103 C   0  0  1  0  0  0  0  0  0  0  0  0
   23.8743   -9.6410  -15.6946 N   0  0  0  0  0  0  0  0  0  0  0  0
   23.2137  -10.4617  -16.7603 C   0  0  0  0  0  0  0  0  0  0  0  0
   23.6609   -8.2693  -16.0735 O   0  0  0  0  0  0  0  0  0  0  0  0
   23.7628   -7.8920  -17.2939 N   0  0  0  0  0  0  0  0  0  0  0  0
   23.3213   -7.2721  -15.1321 C   0  0  1  0  0  0  0  0  0  0  0  0
   23.0035   -5.8996  -15.6152 C   0  0  0  0  0  0  0  0  0  0  0  0
   21.7293   -6.0651  -16.3942 C   0  0  0  0  0  0  0  0  0  0  0  0
   20.4618   -6.1900  -15.6720 C   0  0  0  0  0  0  0  0  0  0  0  0
   19.2232   -6.3207  -16.4433 O   0  0  0  0  0  0  0  0  0  0  0  0
   19.0044   -5.5087  -17.4048 C   0  0  0  0  0  0  0  0  0  0  0  0
   22.9374   -5.0402  -14.4474 O   0  0  0  0  0  0  0  0  0  0  0  0
   22.9713   -5.5087  -13.2904 O   0  0  0  0  0  0  0  0  0  0  0  0
   18.2476   -7.2875  -16.2019 O   0  0  0  0  0  0  0  0  0  0  0  0
  2  1  1  0
  3  2  2  0
  4  2  1  0
  5  4  1  0
  6  5  1  0
  7  6  1  0
  7  8  1  0
  8  9  1  1
 10 11  2  0
 10  8  1  0
 13 12  1  0
 13 14  1  0
 14 15  1  1
 16 14  1  0
 16 17  1  6
 17 10  1  0
 18 16  1  0
 19 18  2  0
 20 18  1  0
 21 20  1  0
 21 22  1  6
 22 23  1  0
 24 23  1  0
 24 25  2  0
 26 29  1  0
 26 21  1  0
 27 26  2  0
 28 24  1  0
M  END
$$$$
