RIE.pdb
     RDKit          3D

 29 28  0  0  1  0  0  0  0  0999 V2000
   15.7907  -23.5950  -11.7716 N   0  0  0  0  0  0  0  0  0  0  0  0
   16.1062  -23.6241  -10.3773 C   0  0  0  0  0  0  0  0  0  0  0  0
   15.3231  -24.2453   -9.5628 N   0  0  0  0  0  0  0  0  0  0  0  0
   17.2812  -22.9628   -9.9364 N   0  0  0  0  0  0  0  0  0  0  0  0
   18.4986  -23.1553  -10.6965 C   0  0  0  0  0  0  0  0  0  0  0  0
   18.4436  -22.2813  -11.9280 C   0  0  0  0  0  0  0  0  0  0  0  0
   19.1930  -20.9829  -11.7527 C   0  0  0  0  0  0  0  0  0  0  0  0
   20.4259  -21.1512  -10.8625 C   0  0  2  0  0  0  0  0  0  0  0  0
   20.1458  -20.5867   -9.5534 N   0  0  0  0  0  0  0  0  0  0  0  0
   21.5303  -20.4278  -11.5443 C   0  0  0  0  0  0  0  0  0  0  0  0
   21.6330  -19.1917  -11.3604 O   0  0  0  0  0  0  0  0  0  0  0  0
   14.4389  -24.6675   -9.9042 C   0  0  0  0  0  0  0  0  0  0  0  0
   26.3787  -21.9715  -10.8285 C   0  0  0  0  0  0  0  0  0  0  0  0
   25.1513  -21.2020  -11.1679 C   0  0  2  0  0  0  0  0  0  0  0  0
   24.8027  -21.0844  -12.5980 C   0  0  0  0  0  0  0  0  0  0  0  0
   26.0271  -20.8677  -13.4834 C   0  0  2  0  0  0  0  0  0  0  0  0
   23.5996  -20.3398  -13.0074 N   0  0  0  0  0  0  0  0  0  0  0  0
   22.4601  -21.0899  -12.3872 C   0  0  0  0  0  0  0  0  0  0  0  0
   23.2553  -20.1908  -14.3966 O   0  0  0  0  0  0  0  0  0  0  0  0
   22.9079  -21.1982  -15.1082 N   0  0  0  0  0  0  0  0  0  0  0  0
   23.2718  -18.9363  -15.0462 C   0  0  1  0  0  0  0  0  0  0  0  0
   22.8398  -18.8530  -16.4691 C   0  0  0  0  0  0  0  0  0  0  0  0
   22.0652  -17.5680  -16.5482 C   0  0  0  0  0  0  0  0  0  0  0  0
   21.5692  -17.1118  -17.8481 C   0  0  0  0  0  0  0  0  0  0  0  0
   20.8366  -15.8451  -17.9159 O   0  0  0  0  0  0  0  0  0  0  0  0
   21.4862  -14.7489  -17.8248 C   0  0  0  0  0  0  0  0  0  0  0  0
   24.0377  -18.9341  -17.2847 O   0  0  0  0  0  0  0  0  0  0  0  0
   25.1528  -18.5882  -16.8416 O   0  0  0  0  0  0  0  0  0  0  0  0
   19.4551  -15.7460  -18.0787 O   0  0  0  0  0  0  0  0  0  0  0  0
  2  1  1  0
  3  2  2  0
  4  2  1  0
  5  4  1  0
  6  5  1  0
  7  6  1  0
  7  8  1  0
  8  9  1  1
 10 11  2  0
 10  8  1  0
 13 12  1  0
 13 14  1  0
 14 15  1  6
 16 14  1  0
 16 17  1  1
 17 10  1  0
 18 16  1  0
 19 18  2  0
 20 18  1  0
 21 20  1  0
 21 22  1  6
 22 23  1  0
 24 23  1  0
 24 25  2  0
 26 29  1  0
 26 21  1  0
 27 26  2  0
 28 24  1  0
M  END
$$$$
