RIE.pdb
     RDKit          3D

 29 28  0  0  1  0  0  0  0  0999 V2000
   27.1352  -16.4203  -19.3438 N   0  0  0  0  0  0  0  0  0  0  0  0
   28.4895  -16.7883  -19.6181 C   0  0  0  0  0  0  0  0  0  0  0  0
   29.0141  -16.4753  -20.7535 N   0  0  0  0  0  0  0  0  0  0  0  0
   29.2140  -17.4906  -18.6210 N   0  0  0  0  0  0  0  0  0  0  0  0
   28.5633  -17.7376  -17.3513 C   0  0  0  0  0  0  0  0  0  0  0  0
   27.7396  -18.9992  -17.4670 C   0  0  0  0  0  0  0  0  0  0  0  0
   26.9676  -19.3065  -16.2068 C   0  0  0  0  0  0  0  0  0  0  0  0
   27.7059  -20.3065  -15.3147 C   0  0  2  0  0  0  0  0  0  0  0  0
   28.3770  -21.2845  -16.1538 N   0  0  0  0  0  0  0  0  0  0  0  0
   26.6701  -20.9405  -14.4586 C   0  0  0  0  0  0  0  0  0  0  0  0
   26.0266  -21.9104  -14.9248 O   0  0  0  0  0  0  0  0  0  0  0  0
   29.9695  -16.7986  -20.9971 C   0  0  0  0  0  0  0  0  0  0  0  0
   25.3575  -21.2211   -8.4502 C   0  0  0  0  0  0  0  0  0  0  0  0
   24.8640  -21.4285   -9.8385 C   0  0  2  0  0  0  0  0  0  0  0  0
   25.7383  -20.9771  -10.9396 C   0  0  0  0  0  0  0  0  0  0  0  0
   26.4758  -19.6823  -10.6087 C   0  0  2  0  0  0  0  0  0  0  0  0
   25.2894  -21.0973  -12.3374 N   0  0  0  0  0  0  0  0  0  0  0  0
   26.3930  -20.4834  -13.1442 C   0  0  0  0  0  0  0  0  0  0  0  0
   24.0800  -20.4598  -12.7865 O   0  0  0  0  0  0  0  0  0  0  0  0
   24.0374  -19.2000  -13.0169 N   0  0  0  0  0  0  0  0  0  0  0  0
   22.8851  -21.1810  -13.0053 C   0  0  1  0  0  0  0  0  0  0  0  0
   21.6906  -20.4604  -13.5271 C   0  0  0  0  0  0  0  0  0  0  0  0
   21.2519  -21.2754  -14.7106 C   0  0  0  0  0  0  0  0  0  0  0  0
   19.9974  -20.9368  -15.3855 C   0  0  0  0  0  0  0  0  0  0  0  0
   19.5108  -21.8190  -16.4489 O   0  0  0  0  0  0  0  0  0  0  0  0
   18.3301  -22.2990  -16.3630 C   0  0  0  0  0  0  0  0  0  0  0  0
   20.7439  -20.3537  -12.4320 O   0  0  0  0  0  0  0  0  0  0  0  0
   20.7475  -21.1682  -11.4855 O   0  0  0  0  0  0  0  0  0  0  0  0
   20.2557  -22.1781  -17.5719 O   0  0  0  0  0  0  0  0  0  0  0  0
  2  1  1  0
  3  2  2  0
  4  2  1  0
  5  4  1  0
  6  5  1  0
  7  6  1  0
  7  8  1  0
  8  9  1  6
 10 11  2  0
 10  8  1  0
 13 12  1  0
 13 14  1  0
 14 15  1  6
 16 14  1  0
 16 17  1  6
 17 10  1  0
 18 16  1  0
 19 18  2  0
 20 18  1  0
 21 20  1  0
 21 22  1  1
 22 23  1  0
 24 23  1  0
 24 25  2  0
 26 29  1  0
 26 21  1  0
 27 26  2  0
 28 24  1  0
M  END
$$$$
