RIE.pdb
     RDKit          3D

 29 28  0  0  1  0  0  0  0  0999 V2000
   21.8400  -33.6167  -11.7097 N   0  0  0  0  0  0  0  0  0  0  0  0
   20.5430  -33.8134  -11.1409 C   0  0  0  0  0  0  0  0  0  0  0  0
   20.2766  -34.9213  -10.5376 N   0  0  0  0  0  0  0  0  0  0  0  0
   19.5873  -32.7720  -11.2614 N   0  0  0  0  0  0  0  0  0  0  0  0
   20.0130  -31.5199  -11.8510 C   0  0  0  0  0  0  0  0  0  0  0  0
   20.5082  -30.6104  -10.7505 C   0  0  0  0  0  0  0  0  0  0  0  0
   19.5257  -29.5142  -10.4167 C   0  0  0  0  0  0  0  0  0  0  0  0
   19.8523  -28.2121  -11.1506 C   0  0  2  0  0  0  0  0  0  0  0  0
   21.2113  -28.2829  -11.6593 N   0  0  0  0  0  0  0  0  0  0  0  0
   19.6996  -27.1240  -10.1504 C   0  0  0  0  0  0  0  0  0  0  0  0
   20.6130  -26.9601   -9.3071 O   0  0  0  0  0  0  0  0  0  0  0  0
   19.3202  -35.1079  -10.1809 C   0  0  0  0  0  0  0  0  0  0  0  0
   19.0634  -22.4848  -11.9966 C   0  0  0  0  0  0  0  0  0  0  0  0
   19.3188  -23.6612  -11.1223 C   0  0  2  0  0  0  0  0  0  0  0  0
   18.3344  -23.9360  -10.0564 C   0  0  0  0  0  0  0  0  0  0  0  0
   17.8688  -22.6667   -9.3478 C   0  0  2  0  0  0  0  0  0  0  0  0
   18.4977  -25.1112   -9.1836 N   0  0  0  0  0  0  0  0  0  0  0  0
   18.5621  -26.2760  -10.1242 C   0  0  0  0  0  0  0  0  0  0  0  0
   17.4982  -25.4559   -8.2074 O   0  0  0  0  0  0  0  0  0  0  0  0
   16.3689  -25.9505   -8.5568 N   0  0  0  0  0  0  0  0  0  0  0  0
   17.7067  -25.2789   -6.8214 C   0  0  1  0  0  0  0  0  0  0  0  0
   16.5915  -25.5729   -5.8789 C   0  0  0  0  0  0  0  0  0  0  0  0
   17.2609  -25.7072   -4.5406 C   0  0  0  0  0  0  0  0  0  0  0  0
   18.2542  -26.7644   -4.3416 C   0  0  0  0  0  0  0  0  0  0  0  0
   18.9890  -26.8094   -3.0752 O   0  0  0  0  0  0  0  0  0  0  0  0
   18.3501  -27.0589   -1.9975 C   0  0  0  0  0  0  0  0  0  0  0  0
   15.6257  -24.4974   -6.0110 O   0  0  0  0  0  0  0  0  0  0  0  0
   15.9470  -23.3872   -6.4838 O   0  0  0  0  0  0  0  0  0  0  0  0
   20.3626  -26.5986   -2.9577 O   0  0  0  0  0  0  0  0  0  0  0  0
  2  1  1  0
  3  2  2  0
  4  2  1  0
  5  4  1  0
  6  5  1  0
  7  6  1  0
  7  8  1  0
  8  9  1  1
 10 11  2  0
 10  8  1  0
 13 12  1  0
 13 14  1  0
 14 15  1  6
 16 14  1  0
 16 17  1  1
 17 10  1  0
 18 16  1  0
 19 18  2  0
 20 18  1  0
 21 20  1  0
 21 22  1  1
 22 23  1  0
 24 23  1  0
 24 25  2  0
 26 29  1  0
 26 21  1  0
 27 26  2  0
 28 24  1  0
M  END
$$$$
