RIE.pdb
     RDKit          3D

 29 28  0  0  1  0  0  0  0  0999 V2000
   27.2948  -17.9123  -20.8623 N   0  0  0  0  0  0  0  0  0  0  0  0
   25.9798  -17.3754  -20.6978 C   0  0  0  0  0  0  0  0  0  0  0  0
   25.1646  -17.3771  -21.6967 N   0  0  0  0  0  0  0  0  0  0  0  0
   25.6158  -16.8561  -19.4288 N   0  0  0  0  0  0  0  0  0  0  0  0
   26.4761  -17.1459  -18.3007 C   0  0  0  0  0  0  0  0  0  0  0  0
   26.3375  -18.6092  -17.9498 C   0  0  0  0  0  0  0  0  0  0  0  0
   25.5718  -18.8291  -16.6677 C   0  0  0  0  0  0  0  0  0  0  0  0
   26.3798  -19.6395  -15.6521 C   0  0  2  0  0  0  0  0  0  0  0  0
   27.2786  -20.5311  -16.3649 N   0  0  0  0  0  0  0  0  0  0  0  0
   25.3887  -20.3952  -14.8434 C   0  0  0  0  0  0  0  0  0  0  0  0
   24.7885  -21.3542  -15.3841 O   0  0  0  0  0  0  0  0  0  0  0  0
   24.2212  -16.9550  -21.6049 C   0  0  0  0  0  0  0  0  0  0  0  0
   25.4579  -19.9386   -9.1024 C   0  0  0  0  0  0  0  0  0  0  0  0
   24.9408  -19.7827  -10.4887 C   0  0  2  0  0  0  0  0  0  0  0  0
   24.9143  -20.9901  -11.3385 C   0  0  0  0  0  0  0  0  0  0  0  0
   26.2333  -21.7578  -11.3068 C   0  0  1  0  0  0  0  0  0  0  0  0
   24.2456  -20.9569  -12.6505 N   0  0  0  0  0  0  0  0  0  0  0  0
   25.1066  -20.0649  -13.4925 C   0  0  0  0  0  0  0  0  0  0  0  0
   22.9071  -20.4470  -12.7892 O   0  0  0  0  0  0  0  0  0  0  0  0
   22.6495  -19.2015  -12.6326 N   0  0  0  0  0  0  0  0  0  0  0  0
   21.8133  -21.2809  -13.1115 C   0  0  1  0  0  0  0  0  0  0  0  0
   20.4494  -20.6874  -13.1882 C   0  0  0  0  0  0  0  0  0  0  0  0
   19.9391  -21.1008  -14.5396 C   0  0  0  0  0  0  0  0  0  0  0  0
   20.3157  -20.3150  -15.7163 C   0  0  0  0  0  0  0  0  0  0  0  0
   20.7955  -21.0193  -16.9078 O   0  0  0  0  0  0  0  0  0  0  0  0
   20.7876  -22.2966  -16.9168 C   0  0  0  0  0  0  0  0  0  0  0  0
   19.7055  -21.1764  -12.0417 O   0  0  0  0  0  0  0  0  0  0  0  0
   18.5819  -20.7167  -11.7493 O   0  0  0  0  0  0  0  0  0  0  0  0
   21.2668  -20.3849  -18.0568 O   0  0  0  0  0  0  0  0  0  0  0  0
  2  1  1  0
  3  2  2  0
  4  2  1  0
  5  4  1  0
  6  5  1  0
  7  6  1  0
  7  8  1  0
  8  9  1  6
 10 11  2  0
 10  8  1  0
 13 12  1  0
 13 14  1  0
 14 15  1  1
 16 14  1  0
 16 17  1  6
 17 10  1  0
 18 16  1  0
 19 18  2  0
 20 18  1  0
 21 20  1  0
 21 22  1  1
 22 23  1  0
 24 23  1  0
 24 25  2  0
 26 29  1  0
 26 21  1  0
 27 26  2  0
 28 24  1  0
M  END
$$$$
