EDL.pdb
     RDKit          3D

 26 25  0  0  1  0  0  0  0  0999 V2000
   17.5519  -14.6259  -17.6277 N   0  0  0  0  0  0  0  0  0  0  0  0
   19.0013  -14.5446  -17.4947 C   0  0  1  0  0  0  0  0  0  0  0  0
   19.5869  -15.3471  -18.6317 C   0  0  0  0  0  0  0  0  0  0  0  0
   18.8587  -16.6355  -18.8931 C   0  0  0  0  0  0  0  0  0  0  0  0
   19.8865  -17.7105  -19.0774 C   0  0  0  0  0  0  0  0  0  0  0  0
   21.1165  -17.4592  -19.0562 O   0  0  0  0  0  0  0  0  0  0  0  0
   19.4340  -13.1413  -17.4655 C   0  0  0  0  0  0  0  0  0  0  0  0
   20.6327  -12.7745  -17.4737 O   0  0  0  0  0  0  0  0  0  0  0  0
   19.4777  -19.0067  -19.2749 O   0  0  0  0  0  0  0  0  0  0  0  0
   18.4500  -12.1131  -17.4252 N   0  0  0  0  0  0  0  0  0  0  0  0
   18.7487  -10.7210  -17.4983 C   0  0  1  0  0  0  0  0  0  0  0  0
   17.4672   -9.9367  -17.3942 C   0  0  0  0  0  0  0  0  0  0  0  0
   17.6885   -8.5154  -17.7085 C   0  0  0  0  0  0  0  0  0  0  0  0
   18.8318   -8.1932  -18.1569 O   0  0  0  0  0  0  0  0  0  0  0  0
   19.6186  -10.2677  -16.3602 C   0  0  0  0  0  0  0  0  0  0  0  0
   19.2143  -10.4376  -15.1808 O   0  0  0  0  0  0  0  0  0  0  0  0
   16.7832   -7.4929  -17.5660 O   0  0  0  0  0  0  0  0  0  0  0  0
   25.4773  -10.4958  -15.3849 C   0  0  0  0  0  0  0  0  0  0  0  0
   24.2322   -9.7950  -14.9346 C   0  0  2  0  0  0  0  0  0  0  0  0
   23.9033  -10.3898  -13.5415 C   0  0  0  0  0  0  0  0  0  0  0  0
   23.0225   -9.9685  -15.7396 C   0  0  0  0  0  0  0  0  0  0  0  0
   21.7589   -9.2505  -15.4501 C   0  0  2  0  0  0  0  0  0  0  0  0
   20.8637   -9.6631  -16.5625 N   0  0  0  0  0  0  0  0  0  0  0  0
   21.8845   -7.8058  -15.4133 C   0  0  0  0  0  0  0  0  0  0  0  0
   21.6851   -6.8962  -16.4240 O   0  0  0  0  0  0  0  0  0  0  0  0
   22.2369   -7.2783  -14.2945 O   0  0  0  0  0  0  0  0  0  0  0  0
  2  1  1  6
  2  7  1  0
  3  2  1  0
  3  4  1  0
  4  5  1  0
  5  6  2  0
  7  8  2  0
  9  5  1  0
 10 11  1  0
 10  7  1  0
 12 13  1  0
 11 12  1  1
 13 17  1  0
 14 13  2  0
 15 11  1  0
 15 16  2  0
 19 18  1  6
 19 21  1  0
 19 20  1  0
 22 21  1  6
 22 23  1  0
 22 24  1  0
 23 15  1  0
 24 26  2  0
 24 25  1  0
M  END
$$$$
