EDL.pdb
     RDKit          3D

 26 25  0  0  1  0  0  0  0  0999 V2000
   19.1598  -12.9710  -18.0329 N   0  0  0  0  0  0  0  0  0  0  0  0
   19.8481  -11.8482  -17.4079 C   0  0  1  0  0  0  0  0  0  0  0  0
   21.1945  -11.7353  -18.0818 C   0  0  0  0  0  0  0  0  0  0  0  0
   21.1952  -12.2209  -19.5041 C   0  0  0  0  0  0  0  0  0  0  0  0
   22.5867  -12.0648  -20.0381 C   0  0  0  0  0  0  0  0  0  0  0  0
   23.5306  -11.6618  -19.3149 O   0  0  0  0  0  0  0  0  0  0  0  0
   19.0286  -10.6326  -17.4972 C   0  0  0  0  0  0  0  0  0  0  0  0
   18.4047  -10.2789  -18.5254 O   0  0  0  0  0  0  0  0  0  0  0  0
   22.8419  -12.3695  -21.3528 O   0  0  0  0  0  0  0  0  0  0  0  0
   18.9191   -9.7850  -16.3586 N   0  0  0  0  0  0  0  0  0  0  0  0
   18.0534   -8.6545  -16.2869 C   0  0  1  0  0  0  0  0  0  0  0  0
   17.4339   -8.5952  -14.9155 C   0  0  0  0  0  0  0  0  0  0  0  0
   16.4043   -9.6350  -14.7533 C   0  0  0  0  0  0  0  0  0  0  0  0
   15.5851   -9.7923  -15.7106 O   0  0  0  0  0  0  0  0  0  0  0  0
   18.7940   -7.3609  -16.4755 C   0  0  0  0  0  0  0  0  0  0  0  0
   19.9857   -7.2793  -16.0800 O   0  0  0  0  0  0  0  0  0  0  0  0
   16.2333  -10.4584  -13.6678 O   0  0  0  0  0  0  0  0  0  0  0  0
   19.5680   -4.6105  -20.4826 C   0  0  0  0  0  0  0  0  0  0  0  0
   18.2446   -4.7431  -19.7931 C   0  0  2  0  0  0  0  0  0  0  0  0
   17.2761   -3.8195  -20.5752 C   0  0  0  0  0  0  0  0  0  0  0  0
   18.1585   -4.3209  -18.3947 C   0  0  0  0  0  0  0  0  0  0  0  0
   18.9381   -4.9691  -17.3138 C   0  0  2  0  0  0  0  0  0  0  0  0
   18.2077   -6.2416  -17.0757 N   0  0  0  0  0  0  0  0  0  0  0  0
   19.0203   -4.1980  -16.0879 C   0  0  0  0  0  0  0  0  0  0  0  0
   19.9252   -3.2239  -15.7400 O   0  0  0  0  0  0  0  0  0  0  0  0
   18.1414   -4.4454  -15.1821 O   0  0  0  0  0  0  0  0  0  0  0  0
  2  1  1  6
  2  7  1  0
  3  2  1  0
  3  4  1  0
  4  5  1  0
  5  6  2  0
  7  8  2  0
  9  5  1  0
 10 11  1  0
 10  7  1  0
 12 13  1  0
 11 12  1  1
 13 17  1  0
 14 13  2  0
 15 11  1  0
 15 16  2  0
 19 18  1  6
 19 21  1  0
 19 20  1  0
 22 21  1  6
 22 23  1  0
 22 24  1  0
 23 15  1  0
 24 26  2  0
 24 25  1  0
M  END
$$$$
