EDL.pdb
     RDKit          3D

 26 25  0  0  1  0  0  0  0  0999 V2000
   17.3342  -13.5949  -16.6017 N   0  0  0  0  0  0  0  0  0  0  0  0
   18.6276  -13.5653  -17.2735 C   0  0  1  0  0  0  0  0  0  0  0  0
   18.4725  -14.3591  -18.5484 C   0  0  0  0  0  0  0  0  0  0  0  0
   17.3590  -15.3671  -18.4948 C   0  0  0  0  0  0  0  0  0  0  0  0
   16.2430  -14.8595  -19.3567 C   0  0  0  0  0  0  0  0  0  0  0  0
   15.8187  -13.6816  -19.2622 O   0  0  0  0  0  0  0  0  0  0  0  0
   19.0647  -12.1783  -17.4798 C   0  0  0  0  0  0  0  0  0  0  0  0
   20.1749  -11.8553  -17.9641 O   0  0  0  0  0  0  0  0  0  0  0  0
   15.6655  -15.7008  -20.2759 O   0  0  0  0  0  0  0  0  0  0  0  0
   18.1913  -11.1147  -17.1151 N   0  0  0  0  0  0  0  0  0  0  0  0
   18.5041   -9.7338  -17.2824 C   0  0  1  0  0  0  0  0  0  0  0  0
   17.2248   -8.9398  -17.3142 C   0  0  0  0  0  0  0  0  0  0  0  0
   17.4779   -7.5418  -17.7006 C   0  0  0  0  0  0  0  0  0  0  0  0
   18.6723   -7.2312  -17.9991 O   0  0  0  0  0  0  0  0  0  0  0  0
   19.3121   -9.1931  -16.1368 C   0  0  0  0  0  0  0  0  0  0  0  0
   18.8419   -9.2688  -14.9721 O   0  0  0  0  0  0  0  0  0  0  0  0
   16.5527   -6.5297  -17.7717 O   0  0  0  0  0  0  0  0  0  0  0  0
   23.1220  -10.3891  -13.5134 C   0  0  0  0  0  0  0  0  0  0  0  0
   23.0084  -10.1394  -14.9862 C   0  0  2  0  0  0  0  0  0  0  0  0
   24.4003  -10.4866  -15.5734 C   0  0  0  0  0  0  0  0  0  0  0  0
   22.7173   -8.7745  -15.4264 C   0  0  0  0  0  0  0  0  0  0  0  0
   21.4090   -8.1197  -15.1908 C   0  0  2  0  0  0  0  0  0  0  0  0
   20.5699   -8.6081  -16.3163 N   0  0  0  0  0  0  0  0  0  0  0  0
   21.4553   -6.6699  -15.1886 C   0  0  0  0  0  0  0  0  0  0  0  0
   21.6925   -5.8155  -14.1385 O   0  0  0  0  0  0  0  0  0  0  0  0
   21.2410   -6.0768  -16.3095 O   0  0  0  0  0  0  0  0  0  0  0  0
  2  1  1  6
  2  7  1  0
  3  2  1  0
  3  4  1  0
  4  5  1  0
  5  6  2  0
  7  8  2  0
  9  5  1  0
 10 11  1  0
 10  7  1  0
 12 13  1  0
 11 12  1  1
 13 17  1  0
 14 13  2  0
 15 11  1  0
 15 16  2  0
 19 18  1  1
 19 21  1  0
 19 20  1  0
 22 21  1  6
 22 23  1  0
 22 24  1  0
 23 15  1  0
 24 26  2  0
 24 25  1  0
M  END
$$$$
