EDL.pdb
     RDKit          3D

 26 25  0  0  1  0  0  0  0  0999 V2000
   26.6423  -19.9748  -18.8321 N   0  0  0  0  0  0  0  0  0  0  0  0
   26.7871  -18.7136  -18.1156 C   0  0  1  0  0  0  0  0  0  0  0  0
   27.0502  -17.6514  -19.1560 C   0  0  0  0  0  0  0  0  0  0  0  0
   27.4825  -18.2074  -20.4837 C   0  0  0  0  0  0  0  0  0  0  0  0
   28.9694  -18.3888  -20.4393 C   0  0  0  0  0  0  0  0  0  0  0  0
   29.4981  -19.5263  -20.4951 O   0  0  0  0  0  0  0  0  0  0  0  0
   25.6032  -18.4591  -17.2844 C   0  0  0  0  0  0  0  0  0  0  0  0
   25.4106  -17.4015  -16.6395 O   0  0  0  0  0  0  0  0  0  0  0  0
   29.7801  -17.2851  -20.3351 O   0  0  0  0  0  0  0  0  0  0  0  0
   24.5956  -19.4603  -17.1880 N   0  0  0  0  0  0  0  0  0  0  0  0
   23.4380  -19.3492  -16.3632 C   0  0  1  0  0  0  0  0  0  0  0  0
   22.2161  -19.6649  -17.1849 C   0  0  0  0  0  0  0  0  0  0  0  0
   20.9881  -19.5218  -16.3855 C   0  0  0  0  0  0  0  0  0  0  0  0
   20.8926  -18.4902  -15.6513 O   0  0  0  0  0  0  0  0  0  0  0  0
   23.4541  -20.3342  -15.2287 C   0  0  0  0  0  0  0  0  0  0  0  0
   23.6031  -21.5566  -15.4870 O   0  0  0  0  0  0  0  0  0  0  0  0
   19.9270  -20.3926  -16.3480 O   0  0  0  0  0  0  0  0  0  0  0  0
   24.0616  -21.1409   -9.5941 C   0  0  0  0  0  0  0  0  0  0  0  0
   24.8979  -21.3675  -10.8163 C   0  0  2  0  0  0  0  0  0  0  0  0
   26.3174  -20.8681  -10.4447 C   0  0  0  0  0  0  0  0  0  0  0  0
   24.5287  -20.6515  -12.0380 C   0  0  0  0  0  0  0  0  0  0  0  0
   23.2618  -20.9068  -12.7631 C   0  0  2  0  0  0  0  0  0  0  0  0
   23.3098  -19.9429  -13.8935 N   0  0  0  0  0  0  0  0  0  0  0  0
   22.0645  -20.6965  -11.9716 C   0  0  0  0  0  0  0  0  0  0  0  0
   21.3209  -19.5508  -11.8190 O   0  0  0  0  0  0  0  0  0  0  0  0
   21.6204  -21.7030  -11.3053 O   0  0  0  0  0  0  0  0  0  0  0  0
  2  1  1  6
  2  7  1  0
  3  2  1  0
  3  4  1  0
  4  5  1  0
  5  6  2  0
  7  8  2  0
  9  5  1  0
 10 11  1  0
 10  7  1  0
 12 13  1  0
 11 12  1  6
 13 17  1  0
 14 13  2  0
 15 11  1  0
 15 16  2  0
 19 18  1  1
 19 21  1  0
 19 20  1  0
 22 21  1  1
 22 23  1  0
 22 24  1  0
 23 15  1  0
 24 26  2  0
 24 25  1  0
M  END
$$$$
