KEM.pdb
     RDKit          3D

 27 26  0  0  1  0  0  0  0  0999 V2000
   18.6240  -11.0665  -15.9699 N   0  0  0  0  0  0  0  0  0  0  0  0
   19.6457  -10.0612  -16.0114 C   0  0  1  0  0  0  0  0  0  0  0  0
   20.8093  -10.3635  -16.8926 C   0  0  0  0  0  0  0  0  0  0  0  0
   21.6264  -11.5443  -16.5368 C   0  0  0  0  0  0  0  0  0  0  0  0
   22.7473  -11.8849  -17.4512 C   0  0  0  0  0  0  0  0  0  0  0  0
   23.4455  -13.1784  -17.0968 C   0  0  0  0  0  0  0  0  0  0  0  0
   24.4572  -13.5221  -18.0830 N   0  0  0  0  0  0  0  0  0  0  0  0
   19.0455   -8.7558  -16.4846 C   0  0  0  0  0  0  0  0  0  0  0  0
   18.4264   -8.7755  -17.5955 O   0  0  0  0  0  0  0  0  0  0  0  0
   19.1669   -7.5751  -15.7310 N   0  0  0  0  0  0  0  0  0  0  0  0
   18.7188   -6.3065  -16.1701 C   0  0  1  0  0  0  0  0  0  0  0  0
   17.7197   -5.7462  -15.2117 C   0  0  0  0  0  0  0  0  0  0  0  0
   17.1734   -4.4607  -15.8233 C   0  0  0  0  0  0  0  0  0  0  0  0
   16.1365   -3.8702  -14.9385 C   0  0  0  0  0  0  0  0  0  0  0  0
   15.8571   -4.4026  -13.8365 O   0  0  0  0  0  0  0  0  0  0  0  0
   19.7996   -5.3249  -16.5015 C   0  0  0  0  0  0  0  0  0  0  0  0
   20.8181   -5.1108  -15.8171 O   0  0  0  0  0  0  0  0  0  0  0  0
   15.4542   -2.7226  -15.3043 O   0  0  0  0  0  0  0  0  0  0  0  0
   23.3881   -2.9073  -22.4962 C   0  0  0  0  0  0  0  0  0  0  0  0
   21.7059   -2.5914  -21.9524 S   0  0  0  0  0  0  0  0  0  0  0  0
   21.6153   -2.5058  -20.1572 C   0  0  0  0  0  0  0  0  0  0  0  0
   20.7087   -3.5094  -19.5593 C   0  0  0  0  0  0  0  0  0  0  0  0
   20.6798   -3.6078  -18.0789 C   0  0  2  0  0  0  0  0  0  0  0  0
   19.6152   -4.5961  -17.7015 N   0  0  0  0  0  0  0  0  0  0  0  0
   20.4221   -2.4039  -17.3011 C   0  0  0  0  0  0  0  0  0  0  0  0
   21.4479   -1.4487  -17.1410 O   0  0  0  0  0  0  0  0  0  0  0  0
   19.3535   -2.1096  -16.7373 O   0  0  0  0  0  0  0  0  0  0  0  0
  2  1  1  6
  3  2  1  0
  4  3  1  0
  4  5  1  0
  5  6  1  0
  7  6  1  0
  8  2  1  0
  8  9  2  0
 10  8  1  0
 11 10  1  0
 11 12  1  1
 12 13  1  0
 13 14  1  0
 14 18  1  0
 15 14  2  0
 16 11  1  0
 17 16  2  0
 20 19  1  0
 20 21  1  0
 21 22  1  0
 23 22  1  6
 23 24  1  0
 24 16  1  0
 25 23  1  0
 25 26  1  0
 27 25  2  0
M  END
$$$$
