KEM.pdb
     RDKit          3D

 27 26  0  0  1  0  0  0  0  0999 V2000
   23.2243  -11.9977  -18.2610 N   0  0  0  0  0  0  0  0  0  0  0  0
   22.7661  -11.3419  -19.4510 C   0  0  1  0  0  0  0  0  0  0  0  0
   21.9595  -12.1843  -20.3792 C   0  0  0  0  0  0  0  0  0  0  0  0
   21.2414  -13.3326  -19.7840 C   0  0  0  0  0  0  0  0  0  0  0  0
   20.5585  -14.2579  -20.7252 C   0  0  0  0  0  0  0  0  0  0  0  0
   19.8779  -15.4225  -20.0419 C   0  0  0  0  0  0  0  0  0  0  0  0
   19.2094  -16.2843  -21.0035 N   0  0  0  0  0  0  0  0  0  0  0  0
   21.9192  -10.1476  -19.0706 C   0  0  0  0  0  0  0  0  0  0  0  0
   20.6604  -10.2663  -19.2094 O   0  0  0  0  0  0  0  0  0  0  0  0
   22.4973   -8.9610  -18.5864 N   0  0  0  0  0  0  0  0  0  0  0  0
   21.7563   -7.8126  -18.2186 C   0  0  1  0  0  0  0  0  0  0  0  0
   21.7402   -7.6562  -16.7333 C   0  0  0  0  0  0  0  0  0  0  0  0
   20.3235   -7.9609  -16.2589 C   0  0  0  0  0  0  0  0  0  0  0  0
   20.2326   -7.8148  -14.7835 C   0  0  0  0  0  0  0  0  0  0  0  0
   19.7407   -8.7300  -14.0789 O   0  0  0  0  0  0  0  0  0  0  0  0
   22.1464   -6.5477  -18.9181 C   0  0  0  0  0  0  0  0  0  0  0  0
   23.2948   -6.2582  -19.3043 O   0  0  0  0  0  0  0  0  0  0  0  0
   20.6859   -6.6706  -14.1495 O   0  0  0  0  0  0  0  0  0  0  0  0
   19.0502   -0.6169  -23.0907 C   0  0  0  0  0  0  0  0  0  0  0  0
   18.8276   -2.1462  -22.1758 S   0  0  0  0  0  0  0  0  0  0  0  0
   20.3298   -2.5908  -21.2904 C   0  0  0  0  0  0  0  0  0  0  0  0
   20.2407   -3.8853  -20.5813 C   0  0  0  0  0  0  0  0  0  0  0  0
   21.4416   -4.3414  -19.8384 C   0  0  2  0  0  0  0  0  0  0  0  0
   21.0956   -5.6255  -19.1428 N   0  0  0  0  0  0  0  0  0  0  0  0
   22.0157   -3.4642  -18.8276 C   0  0  0  0  0  0  0  0  0  0  0  0
   21.7598   -3.7170  -17.4635 O   0  0  0  0  0  0  0  0  0  0  0  0
   22.7374   -2.4740  -19.0400 O   0  0  0  0  0  0  0  0  0  0  0  0
  2  1  1  1
  3  2  1  0
  4  3  1  0
  4  5  1  0
  5  6  1  0
  7  6  1  0
  8  2  1  0
  8  9  2  0
 10  8  1  0
 11 10  1  0
 11 12  1  1
 12 13  1  0
 13 14  1  0
 14 18  1  0
 15 14  2  0
 16 11  1  0
 17 16  2  0
 20 19  1  0
 20 21  1  0
 21 22  1  0
 23 22  1  1
 23 24  1  0
 24 16  1  0
 25 23  1  0
 25 26  1  0
 27 25  2  0
M  END
$$$$
