KEM.pdb
     RDKit          3D

 27 26  0  0  1  0  0  0  0  0999 V2000
   26.4890  -21.1560   -9.3251 N   0  0  0  0  0  0  0  0  0  0  0  0
   25.5567  -20.9492  -10.3949 C   0  0  1  0  0  0  0  0  0  0  0  0
   24.4383  -20.0089  -10.1000 C   0  0  0  0  0  0  0  0  0  0  0  0
   23.1278  -20.6128   -9.7738 C   0  0  0  0  0  0  0  0  0  0  0  0
   22.3337  -21.1474  -10.9104 C   0  0  0  0  0  0  0  0  0  0  0  0
   20.9690  -21.6588  -10.5076 C   0  0  0  0  0  0  0  0  0  0  0  0
   20.2976  -22.3111  -11.6203 N   0  0  0  0  0  0  0  0  0  0  0  0
   26.2920  -20.4145  -11.6040 C   0  0  0  0  0  0  0  0  0  0  0  0
   27.0514  -19.4111  -11.4192 O   0  0  0  0  0  0  0  0  0  0  0  0
   26.1421  -20.9998  -12.8734 N   0  0  0  0  0  0  0  0  0  0  0  0
   26.6962  -20.4660  -14.0613 C   0  0  1  0  0  0  0  0  0  0  0  0
   27.2181  -21.5620  -14.9315 C   0  0  0  0  0  0  0  0  0  0  0  0
   27.8462  -20.9095  -16.1581 C   0  0  0  0  0  0  0  0  0  0  0  0
   28.4772  -21.9397  -17.0224 C   0  0  0  0  0  0  0  0  0  0  0  0
   27.8422  -22.9690  -17.3588 O   0  0  0  0  0  0  0  0  0  0  0  0
   25.8120  -19.5186  -14.8111 C   0  0  0  0  0  0  0  0  0  0  0  0
   24.5781  -19.6287  -14.9413 O   0  0  0  0  0  0  0  0  0  0  0  0
   29.7763  -21.7924  -17.4776 O   0  0  0  0  0  0  0  0  0  0  0  0
   25.2209  -11.9714  -16.7118 C   0  0  0  0  0  0  0  0  0  0  0  0
   25.9237  -13.3147  -15.7489 S   0  0  0  0  0  0  0  0  0  0  0  0
   25.4521  -14.9114  -16.4320 C   0  0  0  0  0  0  0  0  0  0  0  0
   26.0010  -16.0631  -15.6845 C   0  0  0  0  0  0  0  0  0  0  0  0
   25.6160  -17.4211  -16.1428 C   0  0  2  0  0  0  0  0  0  0  0  0
   26.4680  -18.4158  -15.4098 N   0  0  0  0  0  0  0  0  0  0  0  0
   25.7297  -17.7416  -17.5587 C   0  0  0  0  0  0  0  0  0  0  0  0
   24.6284  -17.5173  -18.4114 O   0  0  0  0  0  0  0  0  0  0  0  0
   26.7315  -18.2115  -18.1262 O   0  0  0  0  0  0  0  0  0  0  0  0
  2  1  1  1
  3  2  1  0
  4  3  1  0
  4  5  1  0
  5  6  1  0
  7  6  1  0
  8  2  1  0
  8  9  2  0
 10  8  1  0
 11 10  1  0
 11 12  1  6
 12 13  1  0
 13 14  1  0
 14 18  1  0
 15 14  2  0
 16 11  1  0
 17 16  2  0
 20 19  1  0
 20 21  1  0
 21 22  1  0
 23 22  1  6
 23 24  1  0
 24 16  1  0
 25 23  1  0
 25 26  1  0
 27 25  2  0
M  END
$$$$
