KEM.pdb
     RDKit          3D

 27 26  0  0  1  0  0  0  0  0999 V2000
   28.0155  -18.1628  -15.8735 N   0  0  0  0  0  0  0  0  0  0  0  0
   26.9730  -17.5138  -15.1330 C   0  0  1  0  0  0  0  0  0  0  0  0
   26.0592  -16.6493  -15.9326 C   0  0  0  0  0  0  0  0  0  0  0  0
   26.4285  -16.4164  -17.3460 C   0  0  0  0  0  0  0  0  0  0  0  0
   27.7221  -16.9864  -17.8044 C   0  0  0  0  0  0  0  0  0  0  0  0
   28.0574  -16.6490  -19.2397 C   0  0  0  0  0  0  0  0  0  0  0  0
   29.3450  -17.2023  -19.6273 N   0  0  0  0  0  0  0  0  0  0  0  0
   26.1225  -18.5582  -14.4445 C   0  0  0  0  0  0  0  0  0  0  0  0
   25.1456  -18.1374  -13.7470 O   0  0  0  0  0  0  0  0  0  0  0  0
   26.3995  -19.9309  -14.5698 N   0  0  0  0  0  0  0  0  0  0  0  0
   25.7515  -20.9407  -13.8190 C   0  0  1  0  0  0  0  0  0  0  0  0
   25.8350  -22.2523  -14.5285 C   0  0  0  0  0  0  0  0  0  0  0  0
   24.9764  -23.2451  -13.7525 C   0  0  0  0  0  0  0  0  0  0  0  0
   24.9916  -24.5712  -14.4215 C   0  0  0  0  0  0  0  0  0  0  0  0
   25.6479  -24.7479  -15.4769 O   0  0  0  0  0  0  0  0  0  0  0  0
   26.1723  -21.0429  -12.3859 C   0  0  0  0  0  0  0  0  0  0  0  0
   27.3419  -21.1901  -11.9833 O   0  0  0  0  0  0  0  0  0  0  0  0
   24.2856  -25.6422  -13.9011 O   0  0  0  0  0  0  0  0  0  0  0  0
   28.6365  -19.0052   -6.0999 C   0  0  0  0  0  0  0  0  0  0  0  0
   27.9926  -18.8386   -7.7681 S   0  0  0  0  0  0  0  0  0  0  0  0
   26.8847  -20.1987   -8.1691 C   0  0  0  0  0  0  0  0  0  0  0  0
   26.5536  -20.2914   -9.6073 C   0  0  0  0  0  0  0  0  0  0  0  0
   25.4748  -21.2314  -10.0007 C   0  0  2  0  0  0  0  0  0  0  0  0
   25.1261  -20.9613  -11.4353 N   0  0  0  0  0  0  0  0  0  0  0  0
   24.2219  -21.2107   -9.2587 C   0  0  0  0  0  0  0  0  0  0  0  0
   24.2107  -21.6084   -7.9052 O   0  0  0  0  0  0  0  0  0  0  0  0
   23.1121  -20.8675   -9.7025 O   0  0  0  0  0  0  0  0  0  0  0  0
  2  1  1  6
  3  2  1  0
  4  3  1  0
  4  5  1  0
  5  6  1  0
  7  6  1  0
  8  2  1  0
  8  9  2  0
 10  8  1  0
 11 10  1  0
 11 12  1  6
 12 13  1  0
 13 14  1  0
 14 18  1  0
 15 14  2  0
 16 11  1  0
 17 16  2  0
 20 19  1  0
 20 21  1  0
 21 22  1  0
 23 22  1  1
 23 24  1  0
 24 16  1  0
 25 23  1  0
 25 26  1  0
 27 25  2  0
M  END
$$$$
