KEM.pdb
     RDKit          3D

 27 26  0  0  1  0  0  0  0  0999 V2000
   27.5851  -21.9836  -13.8739 N   0  0  0  0  0  0  0  0  0  0  0  0
   27.2252  -20.9639  -12.9322 C   0  0  1  0  0  0  0  0  0  0  0  0
   28.2665  -19.9284  -12.6768 C   0  0  0  0  0  0  0  0  0  0  0  0
   29.5881  -20.4102  -12.2189 C   0  0  0  0  0  0  0  0  0  0  0  0
   29.6067  -21.2630  -11.0020 C   0  0  0  0  0  0  0  0  0  0  0  0
   30.9996  -21.6174  -10.5326 C   0  0  0  0  0  0  0  0  0  0  0  0
   31.7523  -22.2991  -11.5732 N   0  0  0  0  0  0  0  0  0  0  0  0
   25.9838  -20.2487  -13.4179 C   0  0  0  0  0  0  0  0  0  0  0  0
   25.6115  -19.2276  -12.7571 O   0  0  0  0  0  0  0  0  0  0  0  0
   25.2743  -20.6929  -14.5474 N   0  0  0  0  0  0  0  0  0  0  0  0
   24.0047  -20.1976  -14.9295 C   0  0  1  0  0  0  0  0  0  0  0  0
   23.9124  -20.0920  -16.4165 C   0  0  0  0  0  0  0  0  0  0  0  0
   24.8618  -18.9818  -16.8538 C   0  0  0  0  0  0  0  0  0  0  0  0
   24.1555  -17.6752  -16.8637 C   0  0  0  0  0  0  0  0  0  0  0  0
   24.8009  -16.5992  -16.9034 O   0  0  0  0  0  0  0  0  0  0  0  0
   22.8323  -20.9165  -14.3379 C   0  0  0  0  0  0  0  0  0  0  0  0
   22.6268  -22.1434  -14.4032 O   0  0  0  0  0  0  0  0  0  0  0  0
   22.7731  -17.6099  -16.8294 O   0  0  0  0  0  0  0  0  0  0  0  0
   21.9751  -19.8600   -8.3710 C   0  0  0  0  0  0  0  0  0  0  0  0
   20.2347  -19.9814   -8.7971 S   0  0  0  0  0  0  0  0  0  0  0  0
   20.0201  -20.7303  -10.4192 C   0  0  0  0  0  0  0  0  0  0  0  0
   21.0323  -20.3041  -11.4093 C   0  0  0  0  0  0  0  0  0  0  0  0
   20.8737  -20.7919  -12.8018 C   0  0  2  0  0  0  0  0  0  0  0  0
   21.8983  -20.1013  -13.6537 N   0  0  0  0  0  0  0  0  0  0  0  0
   19.5910  -20.6095  -13.4666 C   0  0  0  0  0  0  0  0  0  0  0  0
   18.6059  -21.6138  -13.3609 O   0  0  0  0  0  0  0  0  0  0  0  0
   19.2508  -19.6258  -14.1471 O   0  0  0  0  0  0  0  0  0  0  0  0
  2  1  1  6
  3  2  1  0
  4  3  1  0
  4  5  1  0
  5  6  1  0
  7  6  1  0
  8  2  1  0
  8  9  2  0
 10  8  1  0
 11 10  1  0
 11 12  1  6
 12 13  1  0
 13 14  1  0
 14 18  1  0
 15 14  2  0
 16 11  1  0
 17 16  2  0
 20 19  1  0
 20 21  1  0
 21 22  1  0
 23 22  1  1
 23 24  1  0
 24 16  1  0
 25 23  1  0
 25 26  1  0
 27 25  2  0
M  END
$$$$
