KEM.pdb
     RDKit          3D

 27 26  0  0  1  0  0  0  0  0999 V2000
   17.0023  -24.9330  -13.9648 N   0  0  0  0  0  0  0  0  0  0  0  0
   18.1098  -24.6352  -13.1038 C   0  0  1  0  0  0  0  0  0  0  0  0
   18.1983  -23.2229  -12.6356 C   0  0  0  0  0  0  0  0  0  0  0  0
   18.5386  -22.2034  -13.6521 C   0  0  0  0  0  0  0  0  0  0  0  0
   19.9743  -22.0661  -14.0104 C   0  0  0  0  0  0  0  0  0  0  0  0
   20.2450  -20.9690  -15.0151 C   0  0  0  0  0  0  0  0  0  0  0  0
   21.6720  -20.7640  -15.2046 N   0  0  0  0  0  0  0  0  0  0  0  0
   18.0413  -25.5166  -11.8763 C   0  0  0  0  0  0  0  0  0  0  0  0
   16.9849  -25.4421  -11.1717 O   0  0  0  0  0  0  0  0  0  0  0  0
   19.0971  -26.3780  -11.5302 N   0  0  0  0  0  0  0  0  0  0  0  0
   19.1925  -27.0546  -10.2907 C   0  0  1  0  0  0  0  0  0  0  0  0
   20.4226  -27.9009  -10.2521 C   0  0  0  0  0  0  0  0  0  0  0  0
   20.3051  -28.8199   -9.0411 C   0  0  0  0  0  0  0  0  0  0  0  0
   21.4150  -29.8070   -9.0349 C   0  0  0  0  0  0  0  0  0  0  0  0
   22.3727  -29.6981   -9.8391 O   0  0  0  0  0  0  0  0  0  0  0  0
   19.0615  -26.1884   -9.0766 C   0  0  0  0  0  0  0  0  0  0  0  0
   19.6056  -25.0795   -8.9158 O   0  0  0  0  0  0  0  0  0  0  0  0
   21.4223  -30.8684   -8.1461 O   0  0  0  0  0  0  0  0  0  0  0  0
   14.4566  -22.0941   -5.0353 C   0  0  0  0  0  0  0  0  0  0  0  0
   14.7496  -23.3911   -6.2424 S   0  0  0  0  0  0  0  0  0  0  0  0
   16.2934  -24.2506   -5.9014 C   0  0  0  0  0  0  0  0  0  0  0  0
   16.7067  -25.1789   -6.9756 C   0  0  0  0  0  0  0  0  0  0  0  0
   18.0274  -25.8409   -6.8357 C   0  0  2  0  0  0  0  0  0  0  0  0
   18.2421  -26.7053   -8.0438 N   0  0  0  0  0  0  0  0  0  0  0  0
   18.2690  -26.6851   -5.6740 C   0  0  0  0  0  0  0  0  0  0  0  0
   18.7864  -26.1100   -4.4942 O   0  0  0  0  0  0  0  0  0  0  0  0
   18.0620  -27.9091   -5.6009 O   0  0  0  0  0  0  0  0  0  0  0  0
  2  1  1  6
  3  2  1  0
  4  3  1  0
  4  5  1  0
  5  6  1  0
  7  6  1  0
  8  2  1  0
  8  9  2  0
 10  8  1  0
 11 10  1  0
 11 12  1  1
 12 13  1  0
 13 14  1  0
 14 18  1  0
 15 14  2  0
 16 11  1  0
 17 16  2  0
 20 19  1  0
 20 21  1  0
 21 22  1  0
 23 22  1  1
 23 24  1  0
 24 16  1  0
 25 23  1  0
 25 26  1  0
 27 25  2  0
M  END
$$$$
