KEM.pdb
     RDKit          3D

 27 26  0  0  1  0  0  0  0  0999 V2000
   17.0148  -11.0273  -17.1671 N   0  0  0  0  0  0  0  0  0  0  0  0
   17.5079  -10.8565  -15.8315 C   0  0  1  0  0  0  0  0  0  0  0  0
   17.9411  -12.1048  -15.1417 C   0  0  0  0  0  0  0  0  0  0  0  0
   16.9700  -13.2204  -15.1097 C   0  0  0  0  0  0  0  0  0  0  0  0
   15.6588  -12.9504  -14.4647 C   0  0  0  0  0  0  0  0  0  0  0  0
   14.7349  -14.1473  -14.4475 C   0  0  0  0  0  0  0  0  0  0  0  0
   13.5122  -13.8627  -13.7138 N   0  0  0  0  0  0  0  0  0  0  0  0
   18.6918   -9.9149  -15.8510 C   0  0  0  0  0  0  0  0  0  0  0  0
   19.3606   -9.8080  -14.7744 O   0  0  0  0  0  0  0  0  0  0  0  0
   19.0362   -9.1911  -17.0060 N   0  0  0  0  0  0  0  0  0  0  0  0
   20.0705   -8.2262  -17.0561 C   0  0  1  0  0  0  0  0  0  0  0  0
   20.2489   -7.7254  -18.4518 C   0  0  0  0  0  0  0  0  0  0  0  0
   21.4494   -6.7854  -18.4482 C   0  0  0  0  0  0  0  0  0  0  0  0
   21.1595   -5.5776  -19.2629 C   0  0  0  0  0  0  0  0  0  0  0  0
   21.4539   -4.4336  -18.8384 O   0  0  0  0  0  0  0  0  0  0  0  0
   19.9548   -7.1113  -16.0636 C   0  0  0  0  0  0  0  0  0  0  0  0
   18.9205   -6.4601  -15.8233 O   0  0  0  0  0  0  0  0  0  0  0  0
   20.5597   -5.6816  -20.5063 O   0  0  0  0  0  0  0  0  0  0  0  0
   19.5579   -5.3682   -9.0089 C   0  0  0  0  0  0  0  0  0  0  0  0
   19.6528   -6.4391  -10.4475 S   0  0  0  0  0  0  0  0  0  0  0  0
   20.4136   -5.5848  -11.8366 C   0  0  0  0  0  0  0  0  0  0  0  0
   20.4717   -6.3943  -13.0726 C   0  0  0  0  0  0  0  0  0  0  0  0
   21.0482   -5.7551  -14.2814 C   0  0  2  0  0  0  0  0  0  0  0  0
   21.1410   -6.7979  -15.3568 N   0  0  0  0  0  0  0  0  0  0  0  0
   22.3638   -5.1378  -14.1881 C   0  0  0  0  0  0  0  0  0  0  0  0
   22.5443   -4.0114  -13.3581 O   0  0  0  0  0  0  0  0  0  0  0  0
   23.3913   -5.5071  -14.7835 O   0  0  0  0  0  0  0  0  0  0  0  0
  2  1  1  6
  3  2  1  0
  4  3  1  0
  4  5  1  0
  5  6  1  0
  7  6  1  0
  8  2  1  0
  8  9  2  0
 10  8  1  0
 11 10  1  0
 11 12  1  6
 12 13  1  0
 13 14  1  0
 14 18  1  0
 15 14  2  0
 16 11  1  0
 17 16  2  0
 20 19  1  0
 20 21  1  0
 21 22  1  0
 23 22  1  1
 23 24  1  0
 24 16  1  0
 25 23  1  0
 25 26  1  0
 27 25  2  0
M  END
$$$$
