KEM.pdb
     RDKit          3D

 27 26  0  0  1  0  0  0  0  0999 V2000
   17.8514  -12.2788  -14.8117 N   0  0  0  0  0  0  0  0  0  0  0  0
   17.3459  -10.9372  -14.7808 C   0  0  1  0  0  0  0  0  0  0  0  0
   15.8933  -10.7906  -15.0809 C   0  0  0  0  0  0  0  0  0  0  0  0
   15.4904  -10.9068  -16.4996 C   0  0  0  0  0  0  0  0  0  0  0  0
   14.0394  -10.7858  -16.7972 C   0  0  0  0  0  0  0  0  0  0  0  0
   13.7136  -10.8835  -18.2705 C   0  0  0  0  0  0  0  0  0  0  0  0
   12.2897  -10.7138  -18.5109 N   0  0  0  0  0  0  0  0  0  0  0  0
   17.5886  -10.3417  -13.4116 C   0  0  0  0  0  0  0  0  0  0  0  0
   17.1984  -11.0219  -12.4101 O   0  0  0  0  0  0  0  0  0  0  0  0
   18.2160   -9.0935  -13.2536 N   0  0  0  0  0  0  0  0  0  0  0  0
   18.4185   -8.4622  -12.0031 C   0  0  1  0  0  0  0  0  0  0  0  0
   19.7188   -7.7273  -11.9948 C   0  0  0  0  0  0  0  0  0  0  0  0
   19.6110   -6.5997  -13.0154 C   0  0  0  0  0  0  0  0  0  0  0  0
   20.8519   -5.7833  -13.0129 C   0  0  0  0  0  0  0  0  0  0  0  0
   21.7999   -6.0623  -12.2387 O   0  0  0  0  0  0  0  0  0  0  0  0
   17.2832   -7.6121  -11.5235 C   0  0  0  0  0  0  0  0  0  0  0  0
   16.4982   -6.9747  -12.2509 O   0  0  0  0  0  0  0  0  0  0  0  0
   20.9949   -4.6980  -13.8604 O   0  0  0  0  0  0  0  0  0  0  0  0
   11.3060   -7.4191   -6.7918 C   0  0  0  0  0  0  0  0  0  0  0  0
   12.7377   -8.2305   -7.5110 S   0  0  0  0  0  0  0  0  0  0  0  0
   13.8401   -7.0314   -8.2759 C   0  0  0  0  0  0  0  0  0  0  0  0
   15.0188   -7.6399   -8.9293 C   0  0  0  0  0  0  0  0  0  0  0  0
   15.9801   -6.7249   -9.5932 C   0  0  2  0  0  0  0  0  0  0  0  0
   17.1179   -7.5509  -10.1186 N   0  0  0  0  0  0  0  0  0  0  0  0
   16.5750   -5.6478   -8.8144 C   0  0  0  0  0  0  0  0  0  0  0  0
   15.8115   -4.4972   -8.5256 O   0  0  0  0  0  0  0  0  0  0  0  0
   17.7305   -5.6263   -8.3552 O   0  0  0  0  0  0  0  0  0  0  0  0
  2  1  1  1
  3  2  1  0
  4  3  1  0
  4  5  1  0
  5  6  1  0
  7  6  1  0
  8  2  1  0
  8  9  2  0
 10  8  1  0
 11 10  1  0
 11 12  1  6
 12 13  1  0
 13 14  1  0
 14 18  1  0
 15 14  2  0
 16 11  1  0
 17 16  2  0
 20 19  1  0
 20 21  1  0
 21 22  1  0
 23 22  1  1
 23 24  1  0
 24 16  1  0
 25 23  1  0
 25 26  1  0
 27 25  2  0
M  END
$$$$
