KEM.pdb
     RDKit          3D

 27 26  0  0  1  0  0  0  0  0999 V2000
   26.4164  -20.3909  -17.0598 N   0  0  0  0  0  0  0  0  0  0  0  0
   27.1294  -20.8849  -15.9179 C   0  0  1  0  0  0  0  0  0  0  0  0
   28.5581  -20.4708  -15.8237 C   0  0  0  0  0  0  0  0  0  0  0  0
   29.4795  -21.0167  -16.8442 C   0  0  0  0  0  0  0  0  0  0  0  0
   29.6101  -22.4957  -16.9079 C   0  0  0  0  0  0  0  0  0  0  0  0
   30.6023  -22.9714  -17.9450 C   0  0  0  0  0  0  0  0  0  0  0  0
   30.6789  -24.4231  -17.9785 N   0  0  0  0  0  0  0  0  0  0  0  0
   26.4380  -20.4194  -14.6555 C   0  0  0  0  0  0  0  0  0  0  0  0
   26.7330  -19.2568  -14.2323 O   0  0  0  0  0  0  0  0  0  0  0  0
   25.5123  -21.2349  -13.9812 N   0  0  0  0  0  0  0  0  0  0  0  0
   24.8197  -20.8445  -12.8102 C   0  0  1  0  0  0  0  0  0  0  0  0
   23.3743  -21.2063  -12.9145 C   0  0  0  0  0  0  0  0  0  0  0  0
   22.7426  -20.2676  -13.9367 C   0  0  0  0  0  0  0  0  0  0  0  0
   21.9051  -19.2499  -13.2517 C   0  0  0  0  0  0  0  0  0  0  0  0
   21.7092  -19.3108  -12.0132 O   0  0  0  0  0  0  0  0  0  0  0  0
   25.4284  -21.3054  -11.5224 C   0  0  0  0  0  0  0  0  0  0  0  0
   25.9578  -22.4161  -11.3281 O   0  0  0  0  0  0  0  0  0  0  0  0
   21.3211  -18.2123  -13.9579 O   0  0  0  0  0  0  0  0  0  0  0  0
   28.7945  -18.9378   -4.8865 C   0  0  0  0  0  0  0  0  0  0  0  0
   28.3203  -18.6817   -6.5996 S   0  0  0  0  0  0  0  0  0  0  0  0
   27.1833  -19.9630   -7.1510 C   0  0  0  0  0  0  0  0  0  0  0  0
   26.7854  -19.8343   -8.5693 C   0  0  0  0  0  0  0  0  0  0  0  0
   25.8410  -20.8443   -9.1082 C   0  0  2  0  0  0  0  0  0  0  0  0
   25.3804  -20.3740  -10.4569 N   0  0  0  0  0  0  0  0  0  0  0  0
   24.6403  -21.1581   -8.3464 C   0  0  0  0  0  0  0  0  0  0  0  0
   24.7473  -21.9273   -7.1686 O   0  0  0  0  0  0  0  0  0  0  0  0
   23.4804  -20.8099   -8.6289 O   0  0  0  0  0  0  0  0  0  0  0  0
  2  1  1  6
  3  2  1  0
  4  3  1  0
  4  5  1  0
  5  6  1  0
  7  6  1  0
  8  2  1  0
  8  9  2  0
 10  8  1  0
 11 10  1  0
 11 12  1  6
 12 13  1  0
 13 14  1  0
 14 18  1  0
 15 14  2  0
 16 11  1  0
 17 16  2  0
 20 19  1  0
 20 21  1  0
 21 22  1  0
 23 22  1  1
 23 24  1  0
 24 16  1  0
 25 23  1  0
 25 26  1  0
 27 25  2  0
M  END
$$$$
