KEM.pdb
     RDKit          3D

 27 26  0  0  1  0  0  0  0  0999 V2000
   15.5855  -12.5588  -13.2408 N   0  0  0  0  0  0  0  0  0  0  0  0
   15.4530  -11.2272  -13.7562 C   0  0  1  0  0  0  0  0  0  0  0  0
   14.0582  -10.7822  -14.0360 C   0  0  0  0  0  0  0  0  0  0  0  0
   13.2670  -11.6145  -14.9686 C   0  0  0  0  0  0  0  0  0  0  0  0
   11.9514  -12.1036  -14.4804 C   0  0  0  0  0  0  0  0  0  0  0  0
   11.2314  -12.9925  -15.4692 C   0  0  0  0  0  0  0  0  0  0  0  0
   11.8441  -14.3091  -15.5423 N   0  0  0  0  0  0  0  0  0  0  0  0
   16.0532  -10.2470  -12.7727 C   0  0  0  0  0  0  0  0  0  0  0  0
   15.7167  -10.3760  -11.5528 O   0  0  0  0  0  0  0  0  0  0  0  0
   16.9416   -9.2398  -13.1882 N   0  0  0  0  0  0  0  0  0  0  0  0
   17.4980   -8.2687  -12.3218 C   0  0  1  0  0  0  0  0  0  0  0  0
   18.6386   -7.5698  -12.9862 C   0  0  0  0  0  0  0  0  0  0  0  0
   19.7197   -8.6122  -13.2501 C   0  0  0  0  0  0  0  0  0  0  0  0
   20.9333   -7.9642  -13.8101 C   0  0  0  0  0  0  0  0  0  0  0  0
   21.6940   -7.2876  -13.0757 O   0  0  0  0  0  0  0  0  0  0  0  0
   16.5177   -7.3099  -11.7208 C   0  0  0  0  0  0  0  0  0  0  0  0
   15.5689   -6.7719  -12.3224 O   0  0  0  0  0  0  0  0  0  0  0  0
   21.2558   -8.0888  -15.1506 O   0  0  0  0  0  0  0  0  0  0  0  0
   12.2256   -6.4879   -5.4120 C   0  0  0  0  0  0  0  0  0  0  0  0
   13.3967   -7.3789   -6.4417 S   0  0  0  0  0  0  0  0  0  0  0  0
   14.1076   -6.2970   -7.6916 C   0  0  0  0  0  0  0  0  0  0  0  0
   15.0580   -6.9784   -8.5966 C   0  0  0  0  0  0  0  0  0  0  0  0
   15.6804   -6.1658   -9.6711 C   0  0  2  0  0  0  0  0  0  0  0  0
   16.7164   -7.0127  -10.3506 N   0  0  0  0  0  0  0  0  0  0  0  0
   16.3362   -4.9157   -9.3139 C   0  0  0  0  0  0  0  0  0  0  0  0
   15.5531   -3.8052   -8.9345 O   0  0  0  0  0  0  0  0  0  0  0  0
   17.5621   -4.7067   -9.3054 O   0  0  0  0  0  0  0  0  0  0  0  0
  2  1  1  1
  3  2  1  0
  4  3  1  0
  4  5  1  0
  5  6  1  0
  7  6  1  0
  8  2  1  0
  8  9  2  0
 10  8  1  0
 11 10  1  0
 11 12  1  6
 12 13  1  0
 13 14  1  0
 14 18  1  0
 15 14  2  0
 16 11  1  0
 17 16  2  0
 20 19  1  0
 20 21  1  0
 21 22  1  0
 23 22  1  1
 23 24  1  0
 24 16  1  0
 25 23  1  0
 25 26  1  0
 27 25  2  0
M  END
$$$$
