FHV.pdb
     RDKit          3D

 29 30  0  0  1  0  0  0  0  0999 V2000
   23.2129  -19.1528  -17.9764 N   0  0  0  0  0  0  0  0  0  0  0  0
   23.7326  -18.4748  -16.8344 C   0  0  1  0  0  0  0  0  0  0  0  0
   22.6040  -17.9800  -15.9333 C   0  0  0  0  0  0  0  0  0  0  0  0
   21.8293  -16.8855  -16.5585 C   0  0  0  0  0  0  0  0  0  0  0  0
   20.5817  -17.1735  -17.0604 C   0  0  0  0  0  0  0  0  0  0  0  0
   19.7916  -16.2010  -17.6634 C   0  0  0  0  0  0  0  0  0  0  0  0
   20.3091  -14.9264  -17.7406 C   0  0  0  0  0  0  0  0  0  0  0  0
   21.5601  -14.6245  -17.2407 C   0  0  0  0  0  0  0  0  0  0  0  0
   22.3314  -15.6149  -16.6419 C   0  0  0  0  0  0  0  0  0  0  0  0
   24.6374  -19.3052  -16.0131 C   0  0  0  0  0  0  0  0  0  0  0  0
   24.2705  -20.4769  -15.6913 O   0  0  0  0  0  0  0  0  0  0  0  0
   25.8994  -18.8921  -15.5497 N   0  0  0  0  0  0  0  0  0  0  0  0
   26.7900  -19.7990  -14.7632 C   0  0  1  0  0  0  0  0  0  0  0  0
   28.2004  -19.5551  -15.1590 C   0  0  0  0  0  0  0  0  0  0  0  0
   28.5832  -20.1512  -16.4449 C   0  0  0  0  0  0  0  0  0  0  0  0
   27.7466  -20.9627  -17.2308 C   0  0  0  0  0  0  0  0  0  0  0  0
   28.3847  -21.3504  -18.3441 N   0  0  0  0  0  0  0  0  0  0  0  0
   29.6116  -20.8078  -18.2930 C   0  0  0  0  0  0  0  0  0  0  0  0
   29.7163  -20.1027  -17.1678 N   0  0  0  0  0  0  0  0  0  0  0  0
   26.4248  -19.6522  -13.3671 C   0  0  0  0  0  0  0  0  0  0  0  0
   26.5179  -18.4882  -12.8325 O   0  0  0  0  0  0  0  0  0  0  0  0
   23.9732  -22.1385  -10.8222 C   0  0  0  0  0  0  0  0  0  0  0  0
   24.1769  -20.6373  -10.7636 C   0  0  2  0  0  0  0  0  0  0  0  0
   23.2079  -20.0140  -11.7404 C   0  0  0  0  0  0  0  0  0  0  0  0
   25.6120  -20.3630  -11.1146 C   0  0  2  0  0  0  0  0  0  0  0  0
   25.9568  -20.6307  -12.4647 N   0  0  0  0  0  0  0  0  0  0  0  0
   26.5239  -21.0405  -10.1940 C   0  0  0  0  0  0  0  0  0  0  0  0
   26.6264  -20.7360   -8.8389 O   0  0  0  0  0  0  0  0  0  0  0  0
   27.2774  -21.9550  -10.6000 O   0  0  0  0  0  0  0  0  0  0  0  0
  2  1  1  6
  2  3  1  0
  2 10  1  0
  3  4  1  0
  4  9  1  0
  5  4  2  0
  5  6  1  0
  6  7  2  0
  7  8  1  0
  9  8  2  0
 10 12  1  0
 10 11  2  0
 12 13  1  0
 13 20  1  0
 13 14  1  1
 14 15  1  0
 15 19  1  0
 15 16  2  0
 16 17  1  0
 18 17  1  0
 19 18  2  0
 20 21  2  0
 23 22  1  6
 23 24  1  0
 23 25  1  0
 25 27  1  0
 26 20  1  0
 25 26  1  6
 27 28  1  0
 29 27  2  0
M  END
$$$$
