FHV.pdb
     RDKit          3D

 29 30  0  0  1  0  0  0  0  0999 V2000
   21.2868  -13.7506  -19.3407 N   0  0  0  0  0  0  0  0  0  0  0  0
   20.1974  -12.9475  -18.8911 C   0  0  1  0  0  0  0  0  0  0  0  0
   19.5989  -13.5108  -17.6046 C   0  0  0  0  0  0  0  0  0  0  0  0
   18.9553  -14.8260  -17.8173 C   0  0  0  0  0  0  0  0  0  0  0  0
   19.5206  -15.9319  -17.2269 C   0  0  0  0  0  0  0  0  0  0  0  0
   18.9770  -17.2027  -17.3789 C   0  0  0  0  0  0  0  0  0  0  0  0
   17.8405  -17.3146  -18.1499 C   0  0  0  0  0  0  0  0  0  0  0  0
   17.2635  -16.2121  -18.7479 C   0  0  0  0  0  0  0  0  0  0  0  0
   17.8263  -14.9512  -18.5808 C   0  0  0  0  0  0  0  0  0  0  0  0
   20.5638  -11.5382  -18.6414 C   0  0  0  0  0  0  0  0  0  0  0  0
   21.7366  -11.2726  -18.2353 O   0  0  0  0  0  0  0  0  0  0  0  0
   19.6982  -10.4444  -18.8216 N   0  0  0  0  0  0  0  0  0  0  0  0
   20.1741   -9.0316  -18.7129 C   0  0  1  0  0  0  0  0  0  0  0  0
   19.6007   -8.2402  -19.8311 C   0  0  0  0  0  0  0  0  0  0  0  0
   20.2739   -8.4339  -21.1213 C   0  0  0  0  0  0  0  0  0  0  0  0
   21.4658   -9.1572  -21.3008 C   0  0  0  0  0  0  0  0  0  0  0  0
   21.8248   -9.1518  -22.5923 N   0  0  0  0  0  0  0  0  0  0  0  0
   20.8924   -8.4424  -23.2477 C   0  0  0  0  0  0  0  0  0  0  0  0
   19.9829   -8.0243  -22.3689 N   0  0  0  0  0  0  0  0  0  0  0  0
   19.9193   -8.5978  -17.3525 C   0  0  0  0  0  0  0  0  0  0  0  0
   18.7556   -8.8119  -16.8529 O   0  0  0  0  0  0  0  0  0  0  0  0
   22.7839   -7.8861  -14.3197 C   0  0  0  0  0  0  0  0  0  0  0  0
   21.3773   -8.4078  -14.1013 C   0  0  2  0  0  0  0  0  0  0  0  0
   21.4164   -9.9040  -14.3047 C   0  0  0  0  0  0  0  0  0  0  0  0
   20.4803   -7.7115  -15.0854 C   0  0  2  0  0  0  0  0  0  0  0  0
   20.7903   -7.9532  -16.4488 N   0  0  0  0  0  0  0  0  0  0  0  0
   20.3995   -6.2778  -14.8100 C   0  0  0  0  0  0  0  0  0  0  0  0
   19.7465   -5.7353  -13.7060 O   0  0  0  0  0  0  0  0  0  0  0  0
   20.9329   -5.4486  -15.5826 O   0  0  0  0  0  0  0  0  0  0  0  0
  2  1  1  1
  2  3  1  0
  2 10  1  0
  3  4  1  0
  4  9  1  0
  5  4  2  0
  5  6  1  0
  6  7  2  0
  7  8  1  0
  9  8  2  0
 10 12  1  0
 10 11  2  0
 12 13  1  0
 13 20  1  0
 13 14  1  6
 14 15  1  0
 15 19  1  0
 15 16  2  0
 16 17  1  0
 18 17  1  0
 19 18  2  0
 20 21  2  0
 23 22  1  6
 23 24  1  0
 23 25  1  0
 25 27  1  0
 26 20  1  0
 25 26  1  6
 27 28  1  0
 29 27  2  0
M  END
$$$$
