FHV.pdb
     RDKit          3D

 29 30  0  0  1  0  0  0  0  0999 V2000
   29.7574   -9.9926  -16.5226 N   0  0  0  0  0  0  0  0  0  0  0  0
   30.0247   -9.6974  -17.8920 C   0  0  1  0  0  0  0  0  0  0  0  0
   31.4864   -9.3038  -18.0899 C   0  0  0  0  0  0  0  0  0  0  0  0
   31.8794   -8.1652  -17.2308 C   0  0  0  0  0  0  0  0  0  0  0  0
   31.3118   -6.9368  -17.4759 C   0  0  0  0  0  0  0  0  0  0  0  0
   31.6289   -5.8175  -16.7142 C   0  0  0  0  0  0  0  0  0  0  0  0
   32.5411   -5.9855  -15.6954 C   0  0  0  0  0  0  0  0  0  0  0  0
   33.1180   -7.2134  -15.4393 C   0  0  0  0  0  0  0  0  0  0  0  0
   32.7844   -8.3183  -16.2154 C   0  0  0  0  0  0  0  0  0  0  0  0
   29.7289  -10.8178  -18.8084 C   0  0  0  0  0  0  0  0  0  0  0  0
   29.6474  -11.9923  -18.3340 O   0  0  0  0  0  0  0  0  0  0  0  0
   29.5260  -10.6839  -20.1937 N   0  0  0  0  0  0  0  0  0  0  0  0
   29.0695  -11.8272  -21.0413 C   0  0  1  0  0  0  0  0  0  0  0  0
   27.8409  -12.4112  -20.4455 C   0  0  0  0  0  0  0  0  0  0  0  0
   27.2130  -13.4630  -21.2546 C   0  0  0  0  0  0  0  0  0  0  0  0
   27.8065  -14.7009  -21.5569 C   0  0  0  0  0  0  0  0  0  0  0  0
   26.9829  -15.4411  -22.3123 N   0  0  0  0  0  0  0  0  0  0  0  0
   25.8740  -14.7089  -22.5032 C   0  0  0  0  0  0  0  0  0  0  0  0
   26.0220  -13.5441  -21.8743 N   0  0  0  0  0  0  0  0  0  0  0  0
   29.0190  -11.3514  -22.4106 C   0  0  0  0  0  0  0  0  0  0  0  0
   28.4663  -10.2151  -22.6404 O   0  0  0  0  0  0  0  0  0  0  0  0
   31.2786  -12.7154  -25.7421 C   0  0  0  0  0  0  0  0  0  0  0  0
   30.7493  -11.3016  -25.6027 C   0  0  2  0  0  0  0  0  0  0  0  0
   31.7887  -10.5050  -24.8500 C   0  0  0  0  0  0  0  0  0  0  0  0
   29.4381  -11.3810  -24.8730 C   0  0  2  0  0  0  0  0  0  0  0  0
   29.5090  -11.9661  -23.5822 N   0  0  0  0  0  0  0  0  0  0  0  0
   28.4130  -12.0295  -25.6894 C   0  0  0  0  0  0  0  0  0  0  0  0
   27.7826  -11.4203  -26.7715 O   0  0  0  0  0  0  0  0  0  0  0  0
   28.0463  -13.2011  -25.4410 O   0  0  0  0  0  0  0  0  0  0  0  0
  2  1  1  1
  2  3  1  0
  2 10  1  0
  3  4  1  0
  4  9  1  0
  5  4  2  0
  5  6  1  0
  6  7  2  0
  7  8  1  0
  9  8  2  0
 10 12  1  0
 10 11  2  0
 12 13  1  0
 13 20  1  0
 13 14  1  1
 14 15  1  0
 15 19  1  0
 15 16  2  0
 16 17  1  0
 18 17  1  0
 19 18  2  0
 20 21  2  0
 23 22  1  1
 23 24  1  0
 23 25  1  0
 25 27  1  0
 26 20  1  0
 25 26  1  1
 27 28  1  0
 29 27  2  0
M  END
$$$$
