FHV.pdb
     RDKit          3D

 29 30  0  0  1  0  0  0  0  0999 V2000
   28.4725  -20.7592   -9.1908 N   0  0  0  0  0  0  0  0  0  0  0  0
   27.0805  -20.6109   -8.9184 C   0  0  1  0  0  0  0  0  0  0  0  0
   26.8381  -19.4889   -7.9120 C   0  0  0  0  0  0  0  0  0  0  0  0
   27.5828  -19.6993   -6.6510 C   0  0  0  0  0  0  0  0  0  0  0  0
   28.6302  -18.8557   -6.3635 C   0  0  0  0  0  0  0  0  0  0  0  0
   29.3798  -18.9878   -5.1998 C   0  0  0  0  0  0  0  0  0  0  0  0
   29.0317  -20.0041   -4.3371 C   0  0  0  0  0  0  0  0  0  0  0  0
   27.9825  -20.8575   -4.6142 C   0  0  0  0  0  0  0  0  0  0  0  0
   27.2476  -20.7050   -5.7852 C   0  0  0  0  0  0  0  0  0  0  0  0
   26.2688  -20.3256  -10.1195 C   0  0  0  0  0  0  0  0  0  0  0  0
   26.6022  -19.3566  -10.8684 O   0  0  0  0  0  0  0  0  0  0  0  0
   25.1322  -21.0576  -10.5072 N   0  0  0  0  0  0  0  0  0  0  0  0
   24.4798  -20.8613  -11.8376 C   0  0  1  0  0  0  0  0  0  0  0  0
   25.1017  -21.7826  -12.8224 C   0  0  0  0  0  0  0  0  0  0  0  0
   26.4068  -21.3406  -13.3291 C   0  0  0  0  0  0  0  0  0  0  0  0
   27.6282  -21.9822  -13.0598 C   0  0  0  0  0  0  0  0  0  0  0  0
   28.6366  -21.3384  -13.6645 N   0  0  0  0  0  0  0  0  0  0  0  0
   28.0929  -20.2983  -14.3163 C   0  0  0  0  0  0  0  0  0  0  0  0
   26.7769  -20.3105  -14.1106 N   0  0  0  0  0  0  0  0  0  0  0  0
   23.0466  -20.9347  -11.6263 C   0  0  0  0  0  0  0  0  0  0  0  0
   22.6043  -21.7337  -10.7233 O   0  0  0  0  0  0  0  0  0  0  0  0
   18.9649  -18.9500  -13.0403 C   0  0  0  0  0  0  0  0  0  0  0  0
   19.9403  -18.9681  -11.8799 C   0  0  2  0  0  0  0  0  0  0  0  0
   20.8800  -17.8000  -12.0647 C   0  0  0  0  0  0  0  0  0  0  0  0
   20.6489  -20.2929  -11.9071 C   0  0  2  0  0  0  0  0  0  0  0  0
   22.0157  -20.2301  -12.2831 N   0  0  0  0  0  0  0  0  0  0  0  0
   19.9234  -21.2678  -12.7203 C   0  0  0  0  0  0  0  0  0  0  0  0
   18.7536  -21.9029  -12.3106 O   0  0  0  0  0  0  0  0  0  0  0  0
   20.3383  -21.5836  -13.8592 O   0  0  0  0  0  0  0  0  0  0  0  0
  2  1  1  6
  2  3  1  0
  2 10  1  0
  3  4  1  0
  4  9  1  0
  5  4  2  0
  5  6  1  0
  6  7  2  0
  7  8  1  0
  9  8  2  0
 10 12  1  0
 10 11  2  0
 12 13  1  0
 13 20  1  0
 13 14  1  6
 14 15  1  0
 15 19  1  0
 15 16  2  0
 16 17  1  0
 18 17  1  0
 19 18  2  0
 20 21  2  0
 23 22  1  6
 23 24  1  0
 23 25  1  0
 25 27  1  0
 26 20  1  0
 25 26  1  6
 27 28  1  0
 29 27  2  0
M  END
$$$$
