FHV.pdb
     RDKit          3D

 29 30  0  0  1  0  0  0  0  0999 V2000
   25.0283  -16.8805  -16.9554 N   0  0  0  0  0  0  0  0  0  0  0  0
   25.9422  -17.6446  -16.1713 C   0  0  1  0  0  0  0  0  0  0  0  0
   26.7390  -16.7443  -15.2304 C   0  0  0  0  0  0  0  0  0  0  0  0
   27.6224  -15.8119  -15.9647 C   0  0  0  0  0  0  0  0  0  0  0  0
   27.4214  -14.4608  -15.8054 C   0  0  0  0  0  0  0  0  0  0  0  0
   28.2082  -13.5202  -16.4607 C   0  0  0  0  0  0  0  0  0  0  0  0
   29.2061  -13.9954  -17.2834 C   0  0  0  0  0  0  0  0  0  0  0  0
   29.4181  -15.3492  -17.4518 C   0  0  0  0  0  0  0  0  0  0  0  0
   28.6174  -16.2706  -16.7851 C   0  0  0  0  0  0  0  0  0  0  0  0
   25.2922  -18.6907  -15.3553 C   0  0  0  0  0  0  0  0  0  0  0  0
   24.2548  -18.3912  -14.6882 O   0  0  0  0  0  0  0  0  0  0  0  0
   25.7409  -20.0201  -15.2568 N   0  0  0  0  0  0  0  0  0  0  0  0
   24.9854  -21.0559  -14.4884 C   0  0  1  0  0  0  0  0  0  0  0  0
   24.9108  -22.2996  -15.2966 C   0  0  0  0  0  0  0  0  0  0  0  0
   24.2070  -23.4092  -14.6419 C   0  0  0  0  0  0  0  0  0  0  0  0
   23.6013  -23.3360  -13.3756 C   0  0  0  0  0  0  0  0  0  0  0  0
   23.0421  -24.5119  -13.0571 N   0  0  0  0  0  0  0  0  0  0  0  0
   23.2736  -25.3397  -14.0883 C   0  0  0  0  0  0  0  0  0  0  0  0
   23.9617  -24.6774  -15.0169 N   0  0  0  0  0  0  0  0  0  0  0  0
   25.5751  -21.1217  -13.1648 C   0  0  0  0  0  0  0  0  0  0  0  0
   26.8305  -21.3753  -13.0695 O   0  0  0  0  0  0  0  0  0  0  0  0
   25.9469  -19.8459   -8.6983 C   0  0  0  0  0  0  0  0  0  0  0  0
   26.4267  -20.1143  -10.1111 C   0  0  2  0  0  0  0  0  0  0  0  0
   26.2804  -18.8268  -10.8874 C   0  0  0  0  0  0  0  0  0  0  0  0
   25.5856  -21.2274  -10.6691 C   0  0  2  0  0  0  0  0  0  0  0  0
   24.9594  -20.9370  -11.9089 N   0  0  0  0  0  0  0  0  0  0  0  0
   24.6129  -21.7034   -9.6867 C   0  0  0  0  0  0  0  0  0  0  0  0
   24.9594  -22.2462   -8.4518 O   0  0  0  0  0  0  0  0  0  0  0  0
   23.3845  -21.6406   -9.9229 O   0  0  0  0  0  0  0  0  0  0  0  0
  2  1  1  1
  2  3  1  0
  2 10  1  0
  3  4  1  0
  4  9  1  0
  5  4  2  0
  5  6  1  0
  6  7  2  0
  7  8  1  0
  9  8  2  0
 10 12  1  0
 10 11  2  0
 12 13  1  0
 13 20  1  0
 13 14  1  6
 14 15  1  0
 15 19  1  0
 15 16  2  0
 16 17  1  0
 18 17  1  0
 19 18  2  0
 20 21  2  0
 23 22  1  1
 23 24  1  0
 23 25  1  0
 25 27  1  0
 26 20  1  0
 25 26  1  6
 27 28  1  0
 29 27  2  0
M  END
$$$$
