FHV.pdb
     RDKit          3D

 29 30  0  0  1  0  0  0  0  0999 V2000
   28.4055  -20.7370   -9.8170 N   0  0  0  0  0  0  0  0  0  0  0  0
   27.0234  -20.8045   -9.4717 C   0  0  1  0  0  0  0  0  0  0  0  0
   26.6635  -19.7295   -8.4492 C   0  0  0  0  0  0  0  0  0  0  0  0
   27.3915  -19.9062   -7.1734 C   0  0  0  0  0  0  0  0  0  0  0  0
   26.7599  -20.5712   -6.1486 C   0  0  0  0  0  0  0  0  0  0  0  0
   27.3757  -20.7776   -4.9191 C   0  0  0  0  0  0  0  0  0  0  0  0
   28.6538  -20.2871   -4.7634 C   0  0  0  0  0  0  0  0  0  0  0  0
   29.2987  -19.6179   -5.7843 C   0  0  0  0  0  0  0  0  0  0  0  0
   28.6614  -19.4239   -7.0053 C   0  0  0  0  0  0  0  0  0  0  0  0
   26.1158  -20.6527  -10.6274 C   0  0  0  0  0  0  0  0  0  0  0  0
   26.2928  -19.6788  -11.4219 O   0  0  0  0  0  0  0  0  0  0  0  0
   25.0486  -21.5196  -10.9238 N   0  0  0  0  0  0  0  0  0  0  0  0
   24.2777  -21.4190  -12.2003 C   0  0  1  0  0  0  0  0  0  0  0  0
   24.4636  -22.6705  -12.9780 C   0  0  0  0  0  0  0  0  0  0  0  0
   25.6955  -22.7140  -13.7754 C   0  0  0  0  0  0  0  0  0  0  0  0
   26.6500  -21.6836  -13.8292 C   0  0  0  0  0  0  0  0  0  0  0  0
   27.6588  -22.0242  -14.6436 N   0  0  0  0  0  0  0  0  0  0  0  0
   27.3759  -23.2489  -15.1149 C   0  0  0  0  0  0  0  0  0  0  0  0
   26.2151  -23.6450  -14.5953 N   0  0  0  0  0  0  0  0  0  0  0  0
   22.9299  -21.0092  -11.8551 C   0  0  0  0  0  0  0  0  0  0  0  0
   22.4451  -21.3959  -10.7304 O   0  0  0  0  0  0  0  0  0  0  0  0
   20.0929  -18.6183  -14.1330 C   0  0  0  0  0  0  0  0  0  0  0  0
   20.2505  -18.5092  -12.6292 C   0  0  2  0  0  0  0  0  0  0  0  0
   21.2276  -17.3892  -12.3599 C   0  0  0  0  0  0  0  0  0  0  0  0
   20.7400  -19.8391  -12.1294 C   0  0  2  0  0  0  0  0  0  0  0  0
   22.0287  -20.2118  -12.5918 N   0  0  0  0  0  0  0  0  0  0  0  0
   19.7628  -20.8963  -12.3853 C   0  0  0  0  0  0  0  0  0  0  0  0
   18.5560  -21.0195  -11.7012 O   0  0  0  0  0  0  0  0  0  0  0  0
   19.9778  -21.7656  -13.2610 O   0  0  0  0  0  0  0  0  0  0  0  0
  2  1  1  6
  2  3  1  0
  2 10  1  0
  3  4  1  0
  4  9  1  0
  5  4  2  0
  5  6  1  0
  6  7  2  0
  7  8  1  0
  9  8  2  0
 10 12  1  0
 10 11  2  0
 12 13  1  0
 13 20  1  0
 13 14  1  1
 14 15  1  0
 15 19  1  0
 15 16  2  0
 16 17  1  0
 18 17  1  0
 19 18  2  0
 20 21  2  0
 23 22  1  6
 23 24  1  0
 23 25  1  0
 25 27  1  0
 26 20  1  0
 25 26  1  6
 27 28  1  0
 29 27  2  0
M  END
$$$$
