FHV.pdb
     RDKit          3D

 29 30  0  0  1  0  0  0  0  0999 V2000
   18.5524  -14.8463  -18.6469 N   0  0  0  0  0  0  0  0  0  0  0  0
   18.5178  -14.1451  -17.4056 C   0  0  1  0  0  0  0  0  0  0  0  0
   19.4991  -14.7543  -16.4073 C   0  0  0  0  0  0  0  0  0  0  0  0
   19.1659  -16.1589  -16.0831 C   0  0  0  0  0  0  0  0  0  0  0  0
   18.2364  -16.3982  -15.0981 C   0  0  0  0  0  0  0  0  0  0  0  0
   17.8694  -17.6891  -14.7343 C   0  0  0  0  0  0  0  0  0  0  0  0
   18.4765  -18.7297  -15.4029 C   0  0  0  0  0  0  0  0  0  0  0  0
   19.4110  -18.5027  -16.3935 C   0  0  0  0  0  0  0  0  0  0  0  0
   19.7615  -17.2019  -16.7394 C   0  0  0  0  0  0  0  0  0  0  0  0
   18.8311  -12.7065  -17.5287 C   0  0  0  0  0  0  0  0  0  0  0  0
   19.6318  -12.3295  -18.4385 O   0  0  0  0  0  0  0  0  0  0  0  0
   18.3017  -11.7004  -16.7007 N   0  0  0  0  0  0  0  0  0  0  0  0
   18.5173  -10.2484  -16.9821 C   0  0  1  0  0  0  0  0  0  0  0  0
   17.2126   -9.6201  -17.3112 C   0  0  0  0  0  0  0  0  0  0  0  0
   17.2634   -8.1620  -17.4746 C   0  0  0  0  0  0  0  0  0  0  0  0
   16.7188   -7.2362  -16.5679 C   0  0  0  0  0  0  0  0  0  0  0  0
   16.9280   -5.9838  -16.9976 N   0  0  0  0  0  0  0  0  0  0  0  0
   17.5941   -6.0820  -18.1591 C   0  0  0  0  0  0  0  0  0  0  0  0
   17.7859   -7.3721  -18.4296 N   0  0  0  0  0  0  0  0  0  0  0  0
   19.2898   -9.7089  -15.8793 C   0  0  0  0  0  0  0  0  0  0  0  0
   18.9547  -10.0364  -14.6835 O   0  0  0  0  0  0  0  0  0  0  0  0
   23.2150   -8.3022  -15.9404 C   0  0  0  0  0  0  0  0  0  0  0  0
   22.5325   -8.7882  -14.6769 C   0  0  2  0  0  0  0  0  0  0  0  0
   22.7163  -10.2862  -14.6148 C   0  0  0  0  0  0  0  0  0  0  0  0
   21.0877   -8.3837  -14.7608 C   0  0  2  0  0  0  0  0  0  0  0  0
   20.4055   -8.8461  -15.9159 N   0  0  0  0  0  0  0  0  0  0  0  0
   20.9291   -6.9393  -14.5985 C   0  0  0  0  0  0  0  0  0  0  0  0
   21.1806   -6.2597  -13.4092 O   0  0  0  0  0  0  0  0  0  0  0  0
   20.5471   -6.2278  -15.5560 O   0  0  0  0  0  0  0  0  0  0  0  0
  2  1  1  6
  2  3  1  0
  2 10  1  0
  3  4  1  0
  4  9  1  0
  5  4  2  0
  5  6  1  0
  6  7  2  0
  7  8  1  0
  9  8  2  0
 10 12  1  0
 10 11  2  0
 12 13  1  0
 13 20  1  0
 13 14  1  1
 14 15  1  0
 15 19  1  0
 15 16  2  0
 16 17  1  0
 18 17  1  0
 19 18  2  0
 20 21  2  0
 23 22  1  6
 23 24  1  0
 23 25  1  0
 25 27  1  0
 26 20  1  0
 25 26  1  6
 27 28  1  0
 29 27  2  0
M  END
$$$$
