FHV.pdb
     RDKit          3D

 29 30  0  0  1  0  0  0  0  0999 V2000
   28.6150  -20.4993  -15.1591 N   0  0  0  0  0  0  0  0  0  0  0  0
   27.6314  -20.9073  -14.2104 C   0  0  1  0  0  0  0  0  0  0  0  0
   27.6590  -20.0098  -12.9757 C   0  0  0  0  0  0  0  0  0  0  0  0
   28.5091  -20.5659  -11.9001 C   0  0  0  0  0  0  0  0  0  0  0  0
   29.8735  -20.4375  -12.0148 C   0  0  0  0  0  0  0  0  0  0  0  0
   30.7405  -20.9335  -11.0475 C   0  0  0  0  0  0  0  0  0  0  0  0
   30.1776  -21.5643   -9.9595 C   0  0  0  0  0  0  0  0  0  0  0  0
   28.8095  -21.6996   -9.8327 C   0  0  0  0  0  0  0  0  0  0  0  0
   27.9629  -21.1949  -10.8140 C   0  0  0  0  0  0  0  0  0  0  0  0
   26.2540  -20.9007  -14.7448 C   0  0  0  0  0  0  0  0  0  0  0  0
   25.8458  -19.8770  -15.3744 O   0  0  0  0  0  0  0  0  0  0  0  0
   25.3399  -21.9609  -14.6087 N   0  0  0  0  0  0  0  0  0  0  0  0
   23.9803  -21.9186  -15.2282 C   0  0  1  0  0  0  0  0  0  0  0  0
   23.9103  -22.9318  -16.3117 C   0  0  0  0  0  0  0  0  0  0  0  0
   24.7244  -22.6173  -17.4922 C   0  0  0  0  0  0  0  0  0  0  0  0
   24.3282  -21.7567  -18.5307 C   0  0  0  0  0  0  0  0  0  0  0  0
   25.2891  -21.6758  -19.4618 N   0  0  0  0  0  0  0  0  0  0  0  0
   26.2938  -22.4637  -19.0470 C   0  0  0  0  0  0  0  0  0  0  0  0
   25.9485  -23.0135  -17.8839 N   0  0  0  0  0  0  0  0  0  0  0  0
   23.0153  -21.9891  -14.1476 C   0  0  0  0  0  0  0  0  0  0  0  0
   22.8076  -23.1273  -13.5900 O   0  0  0  0  0  0  0  0  0  0  0  0
   21.4049  -18.8174  -11.6867 C   0  0  0  0  0  0  0  0  0  0  0  0
   21.7165  -20.2454  -11.2843 C   0  0  2  0  0  0  0  0  0  0  0  0
   23.1775  -20.2964  -10.9044 C   0  0  0  0  0  0  0  0  0  0  0  0
   21.3908  -21.1258  -12.4577 C   0  0  2  0  0  0  0  0  0  0  0  0
   22.2377  -20.9558  -13.5835 N   0  0  0  0  0  0  0  0  0  0  0  0
   19.9831  -21.0098  -12.8356 C   0  0  0  0  0  0  0  0  0  0  0  0
   18.9259  -21.4122  -12.0233 O   0  0  0  0  0  0  0  0  0  0  0  0
   19.6578  -20.5267  -13.9446 O   0  0  0  0  0  0  0  0  0  0  0  0
  2  1  1  6
  2  3  1  0
  2 10  1  0
  3  4  1  0
  4  9  1  0
  5  4  2  0
  5  6  1  0
  6  7  2  0
  7  8  1  0
  9  8  2  0
 10 12  1  0
 10 11  2  0
 12 13  1  0
 13 20  1  0
 13 14  1  6
 14 15  1  0
 15 19  1  0
 15 16  2  0
 16 17  1  0
 18 17  1  0
 19 18  2  0
 20 21  2  0
 23 22  1  6
 23 24  1  0
 23 25  1  0
 25 27  1  0
 26 20  1  0
 25 26  1  6
 27 28  1  0
 29 27  2  0
M  END
$$$$
