HFY.pdb
     RDKit          3D

 34 36  0  0  1  0  0  0  0  0999 V2000
    9.0009  -17.1173   18.8629 N   0  0  0  0  0  0  0  0  0  0  0  0
    9.4601  -17.4793   20.1876 C   0  0  1  0  0  0  0  0  0  0  0  0
   10.8241  -18.0764   20.0799 C   0  0  0  0  0  0  0  0  0  0  0  0
   10.6873  -19.3489   19.3090 C   0  0  0  0  0  0  0  0  0  0  0  0
   10.1022  -19.4807   18.0616 C   0  0  0  0  0  0  0  0  0  0  0  0
   10.1645  -20.7879   17.6828 N   0  0  0  0  0  0  0  0  0  0  0  0
   10.7774  -21.4609   18.6758 C   0  0  0  0  0  0  0  0  0  0  0  0
   11.0834  -20.5876   19.6397 N   0  0  0  0  0  0  0  0  0  0  0  0
    9.3806  -16.3179   21.1065 C   0  0  0  0  0  0  0  0  0  0  0  0
   10.2657  -15.4394   21.0332 O   0  0  0  0  0  0  0  0  0  0  0  0
    8.3485  -16.1614   22.0606 N   0  0  0  0  0  0  0  0  0  0  0  0
    8.3338  -14.9816   22.8896 C   0  0  1  0  0  0  0  0  0  0  0  0
    6.9458  -14.8149   23.4882 C   0  0  0  0  0  0  0  0  0  0  0  0
    6.8620  -13.7183   24.4631 C   0  0  0  0  0  0  0  0  0  0  0  0
    7.0593  -12.4057   24.1040 C   0  0  0  0  0  0  0  0  0  0  0  0
    6.9678  -11.4238   25.0597 C   0  0  0  0  0  0  0  0  0  0  0  0
    6.6843  -11.6970   26.3750 C   0  0  0  0  0  0  0  0  0  0  0  0
    6.4881  -13.0215   26.7230 C   0  0  0  0  0  0  0  0  0  0  0  0
    6.5781  -14.0049   25.7744 C   0  0  0  0  0  0  0  0  0  0  0  0
    9.2433  -15.2528   24.0419 C   0  0  0  0  0  0  0  0  0  0  0  0
    8.8553  -14.9298   25.1952 O   0  0  0  0  0  0  0  0  0  0  0  0
    9.5621  -14.5748   31.0773 O   0  0  0  0  0  0  0  0  0  0  0  0
    9.8523  -15.1682   29.8351 C   0  0  0  0  0  0  0  0  0  0  0  0
    9.9803  -14.3998   28.6977 C   0  0  0  0  0  0  0  0  0  0  0  0
   10.2656  -14.9880   27.4796 C   0  0  0  0  0  0  0  0  0  0  0  0
   10.4369  -16.3536   27.3261 C   0  0  0  0  0  0  0  0  0  0  0  0
   10.7316  -17.0005   26.0329 C   0  0  0  0  0  0  0  0  0  0  0  0
   11.3440  -16.0494   25.0651 C   0  0  2  0  0  0  0  0  0  0  0  0
   10.5101  -15.8513   23.8961 N   0  0  0  0  0  0  0  0  0  0  0  0
   12.6421  -16.5619   24.5973 C   0  0  0  0  0  0  0  0  0  0  0  0
   12.7091  -17.3801   23.6380 O   0  0  0  0  0  0  0  0  0  0  0  0
   10.3015  -17.1104   28.4983 C   0  0  0  0  0  0  0  0  0  0  0  0
   10.0179  -16.5273   29.7110 C   0  0  0  0  0  0  0  0  0  0  0  0
   13.8483  -16.1878   25.1619 O   0  0  0  0  0  0  0  0  0  0  0  0
  2  9  1  0
  2  1  1  6
  3  2  1  0
  4  8  1  0
  4  3  1  0
  5  4  2  0
  6  5  1  0
  6  7  1  0
  7  8  2  0
  9 10  2  0
 11  9  1  0
 11 12  1  0
 12 13  1  1
 13 14  1  0
 14 19  1  0
 15 14  2  0
 15 16  1  0
 16 17  2  0
 17 18  1  0
 19 18  2  0
 20 21  2  0
 20 12  1  0
 22 23  1  0
 23 24  2  0
 24 25  1  0
 26 25  2  0
 26 27  1  0
 28 27  1  1
 28 29  1  0
 29 20  1  0
 30 28  1  0
 31 30  2  0
 32 26  1  0
 33 23  1  0
 33 32  2  0
 34 30  1  0
M  END
$$$$
