HFY.pdb
     RDKit          3D

 34 36  0  0  1  0  0  0  0  0999 V2000
    9.3176  -16.8509   18.5061 N   0  0  0  0  0  0  0  0  0  0  0  0
    9.8084  -17.4735   19.7178 C   0  0  1  0  0  0  0  0  0  0  0  0
   11.1786  -18.0095   19.4649 C   0  0  0  0  0  0  0  0  0  0  0  0
   11.0341  -19.1571   18.5193 C   0  0  0  0  0  0  0  0  0  0  0  0
   11.5390  -20.4316   18.7100 C   0  0  0  0  0  0  0  0  0  0  0  0
   11.2058  -21.2016   17.6367 N   0  0  0  0  0  0  0  0  0  0  0  0
   10.5051  -20.4223   16.7903 C   0  0  0  0  0  0  0  0  0  0  0  0
   10.4112  -19.2042   17.3316 N   0  0  0  0  0  0  0  0  0  0  0  0
    9.7302  -16.5319   20.8609 C   0  0  0  0  0  0  0  0  0  0  0  0
   10.7596  -15.9030   21.1854 O   0  0  0  0  0  0  0  0  0  0  0  0
    8.5433  -16.3148   21.5986 N   0  0  0  0  0  0  0  0  0  0  0  0
    8.5432  -15.3295   22.6515 C   0  0  1  0  0  0  0  0  0  0  0  0
    7.1086  -15.0642   23.0805 C   0  0  0  0  0  0  0  0  0  0  0  0
    7.0046  -14.1404   24.2189 C   0  0  0  0  0  0  0  0  0  0  0  0
    6.4436  -14.5178   25.4163 C   0  0  0  0  0  0  0  0  0  0  0  0
    6.3745  -13.6104   26.4447 C   0  0  0  0  0  0  0  0  0  0  0  0
    6.8466  -12.3262   26.3299 C   0  0  0  0  0  0  0  0  0  0  0  0
    7.4085  -11.9593   25.1202 C   0  0  0  0  0  0  0  0  0  0  0  0
    7.4801  -12.8599   24.0911 C   0  0  0  0  0  0  0  0  0  0  0  0
    9.2102  -15.9577   23.8301 C   0  0  0  0  0  0  0  0  0  0  0  0
    9.0052  -17.1805   24.0482 O   0  0  0  0  0  0  0  0  0  0  0  0
   11.2321  -16.4946   32.2568 O   0  0  0  0  0  0  0  0  0  0  0  0
   11.2623  -16.1245   30.8997 C   0  0  0  0  0  0  0  0  0  0  0  0
   11.9343  -16.8925   29.9728 C   0  0  0  0  0  0  0  0  0  0  0  0
   11.9608  -16.5242   28.6406 C   0  0  0  0  0  0  0  0  0  0  0  0
   11.3300  -15.3880   28.1621 C   0  0  0  0  0  0  0  0  0  0  0  0
   11.3558  -14.9734   26.7460 C   0  0  0  0  0  0  0  0  0  0  0  0
   10.5818  -15.9064   25.8820 C   0  0  2  0  0  0  0  0  0  0  0  0
   10.0546  -15.2458   24.7044 N   0  0  0  0  0  0  0  0  0  0  0  0
    9.4378  -16.4601   26.6246 C   0  0  0  0  0  0  0  0  0  0  0  0
    8.3625  -15.8085   26.7400 O   0  0  0  0  0  0  0  0  0  0  0  0
   10.6546  -14.6264   29.1258 C   0  0  0  0  0  0  0  0  0  0  0  0
   10.6268  -14.9908   30.4514 C   0  0  0  0  0  0  0  0  0  0  0  0
    9.4621  -17.7041   27.2293 O   0  0  0  0  0  0  0  0  0  0  0  0
  2  9  1  0
  2  1  1  6
  3  2  1  0
  4  8  1  0
  4  3  1  0
  5  4  2  0
  6  5  1  0
  6  7  1  0
  7  8  2  0
  9 10  2  0
 11  9  1  0
 11 12  1  0
 12 13  1  1
 13 14  1  0
 14 19  1  0
 15 14  2  0
 15 16  1  0
 16 17  2  0
 17 18  1  0
 19 18  2  0
 20 21  2  0
 20 12  1  0
 22 23  1  0
 23 24  2  0
 24 25  1  0
 26 25  2  0
 26 27  1  0
 28 27  1  1
 28 29  1  0
 29 20  1  0
 30 28  1  0
 31 30  2  0
 32 26  1  0
 33 23  1  0
 33 32  2  0
 34 30  1  0
M  END
$$$$
