HFY.pdb
     RDKit          3D

 34 36  0  0  1  0  0  0  0  0999 V2000
    9.7282  -16.6417   18.3248 N   0  0  0  0  0  0  0  0  0  0  0  0
    9.2236  -17.3786   19.4645 C   0  0  1  0  0  0  0  0  0  0  0  0
    9.9484  -18.6804   19.5577 C   0  0  0  0  0  0  0  0  0  0  0  0
    9.4306  -19.5513   18.4596 C   0  0  0  0  0  0  0  0  0  0  0  0
    9.8071  -19.4863   17.1293 C   0  0  0  0  0  0  0  0  0  0  0  0
    9.1236  -20.4364   16.4321 N   0  0  0  0  0  0  0  0  0  0  0  0
    8.3340  -21.0835   17.3110 C   0  0  0  0  0  0  0  0  0  0  0  0
    8.5288  -20.5433   18.5175 N   0  0  0  0  0  0  0  0  0  0  0  0
    9.2990  -16.5564   20.6965 C   0  0  0  0  0  0  0  0  0  0  0  0
   10.4231  -16.3262   21.1905 O   0  0  0  0  0  0  0  0  0  0  0  0
    8.1562  -16.0223   21.3359 N   0  0  0  0  0  0  0  0  0  0  0  0
    8.3158  -15.3238   22.5873 C   0  0  1  0  0  0  0  0  0  0  0  0
    6.9653  -14.7786   23.0251 C   0  0  0  0  0  0  0  0  0  0  0  0
    7.0310  -13.9932   24.2657 C   0  0  0  0  0  0  0  0  0  0  0  0
    6.4516  -14.4262   25.4352 C   0  0  0  0  0  0  0  0  0  0  0  0
    6.5465  -13.6488   26.5632 C   0  0  0  0  0  0  0  0  0  0  0  0
    7.2022  -12.4426   26.5762 C   0  0  0  0  0  0  0  0  0  0  0  0
    7.7806  -12.0186   25.3932 C   0  0  0  0  0  0  0  0  0  0  0  0
    7.6893  -12.7896   24.2652 C   0  0  0  0  0  0  0  0  0  0  0  0
    8.6911  -16.3469   23.6076 C   0  0  0  0  0  0  0  0  0  0  0  0
    7.7677  -16.9823   24.1809 O   0  0  0  0  0  0  0  0  0  0  0  0
   10.6731  -15.1848   31.5951 O   0  0  0  0  0  0  0  0  0  0  0  0
   10.5723  -15.1773   30.1917 C   0  0  0  0  0  0  0  0  0  0  0  0
    9.7540  -14.2743   29.5470 C   0  0  0  0  0  0  0  0  0  0  0  0
    9.6588  -14.2713   28.1678 C   0  0  0  0  0  0  0  0  0  0  0  0
   10.3613  -15.1533   27.3639 C   0  0  0  0  0  0  0  0  0  0  0  0
   10.2648  -15.1720   25.8914 C   0  0  0  0  0  0  0  0  0  0  0  0
   10.4356  -16.5453   25.3430 C   0  0  2  0  0  0  0  0  0  0  0  0
   10.0262  -16.6311   23.9551 N   0  0  0  0  0  0  0  0  0  0  0  0
    9.6170  -17.5042   26.1028 C   0  0  0  0  0  0  0  0  0  0  0  0
   10.1458  -18.4962   26.6775 O   0  0  0  0  0  0  0  0  0  0  0  0
   11.1853  -16.0597   28.0455 C   0  0  0  0  0  0  0  0  0  0  0  0
   11.2817  -16.0644   29.4172 C   0  0  0  0  0  0  0  0  0  0  0  0
    8.2455  -17.3839   26.2379 O   0  0  0  0  0  0  0  0  0  0  0  0
  2  9  1  0
  2  1  1  6
  3  2  1  0
  4  8  1  0
  4  3  1  0
  5  4  2  0
  6  5  1  0
  6  7  1  0
  7  8  2  0
  9 10  2  0
 11  9  1  0
 11 12  1  0
 12 13  1  1
 13 14  1  0
 14 19  1  0
 15 14  2  0
 15 16  1  0
 16 17  2  0
 17 18  1  0
 19 18  2  0
 20 21  2  0
 20 12  1  0
 22 23  1  0
 23 24  2  0
 24 25  1  0
 26 25  2  0
 26 27  1  0
 28 27  1  1
 28 29  1  0
 29 20  1  0
 30 28  1  0
 31 30  2  0
 32 26  1  0
 33 23  1  0
 33 32  2  0
 34 30  1  0
M  END
$$$$
