HFY.pdb
     RDKit          3D

 34 36  0  0  1  0  0  0  0  0999 V2000
    9.7186  -17.0250   18.0575 N   0  0  0  0  0  0  0  0  0  0  0  0
    8.9435  -17.5109   19.1800 C   0  0  1  0  0  0  0  0  0  0  0  0
    9.3235  -18.9288   19.4520 C   0  0  0  0  0  0  0  0  0  0  0  0
    8.7808  -19.7523   18.3296 C   0  0  0  0  0  0  0  0  0  0  0  0
    7.7100  -20.6254   18.4106 C   0  0  0  0  0  0  0  0  0  0  0  0
    7.5112  -21.1919   17.1876 N   0  0  0  0  0  0  0  0  0  0  0  0
    8.4413  -20.6818   16.3572 C   0  0  0  0  0  0  0  0  0  0  0  0
    9.1918  -19.8236   17.0542 N   0  0  0  0  0  0  0  0  0  0  0  0
    9.0924  -16.6112   20.3495 C   0  0  0  0  0  0  0  0  0  0  0  0
   10.2298  -16.1722   20.6217 O   0  0  0  0  0  0  0  0  0  0  0  0
    8.0051  -16.2290   21.1691 N   0  0  0  0  0  0  0  0  0  0  0  0
    8.2460  -15.3536   22.2893 C   0  0  1  0  0  0  0  0  0  0  0  0
    6.9119  -14.9516   22.8988 C   0  0  0  0  0  0  0  0  0  0  0  0
    7.0506  -14.1869   24.1463 C   0  0  0  0  0  0  0  0  0  0  0  0
    6.5712  -14.6557   25.3468 C   0  0  0  0  0  0  0  0  0  0  0  0
    6.7307  -13.8962   26.4797 C   0  0  0  0  0  0  0  0  0  0  0  0
    7.3555  -12.6736   26.4677 C   0  0  0  0  0  0  0  0  0  0  0  0
    7.8330  -12.2136   25.2536 C   0  0  0  0  0  0  0  0  0  0  0  0
    7.6769  -12.9666   24.1205 C   0  0  0  0  0  0  0  0  0  0  0  0
    8.9399  -16.1671   23.3311 C   0  0  0  0  0  0  0  0  0  0  0  0
    8.3036  -17.1091   23.8721 O   0  0  0  0  0  0  0  0  0  0  0  0
   10.9488  -15.2811   31.5248 O   0  0  0  0  0  0  0  0  0  0  0  0
   10.6153  -15.2692   30.1579 C   0  0  0  0  0  0  0  0  0  0  0  0
   10.3967  -16.4460   29.4738 C   0  0  0  0  0  0  0  0  0  0  0  0
   10.0692  -16.4285   28.1308 C   0  0  0  0  0  0  0  0  0  0  0  0
    9.9429  -15.2571   27.4031 C   0  0  0  0  0  0  0  0  0  0  0  0
    9.6043  -15.2190   25.9672 C   0  0  0  0  0  0  0  0  0  0  0  0
   10.6026  -15.9544   25.1434 C   0  0  2  0  0  0  0  0  0  0  0  0
   10.2686  -15.9282   23.7331 N   0  0  0  0  0  0  0  0  0  0  0  0
   10.6633  -17.3664   25.5546 C   0  0  0  0  0  0  0  0  0  0  0  0
    9.6749  -18.1340   25.3872 O   0  0  0  0  0  0  0  0  0  0  0  0
   10.1703  -14.0763   28.1234 C   0  0  0  0  0  0  0  0  0  0  0  0
   10.4960  -14.0912   29.4593 C   0  0  0  0  0  0  0  0  0  0  0  0
   11.7825  -17.9352   26.1356 O   0  0  0  0  0  0  0  0  0  0  0  0
  2  9  1  0
  2  1  1  6
  3  2  1  0
  4  8  1  0
  4  3  1  0
  5  4  2  0
  6  5  1  0
  6  7  1  0
  7  8  2  0
  9 10  2  0
 11  9  1  0
 11 12  1  0
 12 13  1  1
 13 14  1  0
 14 19  1  0
 15 14  2  0
 15 16  1  0
 16 17  2  0
 17 18  1  0
 19 18  2  0
 20 21  2  0
 20 12  1  0
 22 23  1  0
 23 24  2  0
 24 25  1  0
 26 25  2  0
 26 27  1  0
 28 27  1  1
 28 29  1  0
 29 20  1  0
 30 28  1  0
 31 30  2  0
 32 26  1  0
 33 23  1  0
 33 32  2  0
 34 30  1  0
M  END
$$$$
