HFY.pdb
     RDKit          3D

 34 36  0  0  1  0  0  0  0  0999 V2000
    9.8709  -16.9912   18.1945 N   0  0  0  0  0  0  0  0  0  0  0  0
    9.0601  -17.3752   19.3311 C   0  0  1  0  0  0  0  0  0  0  0  0
    9.4256  -18.7642   19.7383 C   0  0  0  0  0  0  0  0  0  0  0  0
    8.8899  -19.6847   18.6905 C   0  0  0  0  0  0  0  0  0  0  0  0
    7.5658  -19.7826   18.2994 C   0  0  0  0  0  0  0  0  0  0  0  0
    7.4647  -20.7268   17.3225 N   0  0  0  0  0  0  0  0  0  0  0  0
    8.7034  -21.2103   17.1069 C   0  0  0  0  0  0  0  0  0  0  0  0
    9.5434  -20.5779   17.9316 N   0  0  0  0  0  0  0  0  0  0  0  0
    9.1772  -16.3763   20.4211 C   0  0  0  0  0  0  0  0  0  0  0  0
   10.3008  -15.8854   20.6602 O   0  0  0  0  0  0  0  0  0  0  0  0
    8.0747  -15.9557   21.2005 N   0  0  0  0  0  0  0  0  0  0  0  0
    8.2810  -14.9672   22.2300 C   0  0  1  0  0  0  0  0  0  0  0  0
    6.9297  -14.5289   22.7727 C   0  0  0  0  0  0  0  0  0  0  0  0
    7.0319  -13.5393   23.8546 C   0  0  0  0  0  0  0  0  0  0  0  0
    7.4770  -12.2575   23.6316 C   0  0  0  0  0  0  0  0  0  0  0  0
    7.5507  -11.3766   24.6825 C   0  0  0  0  0  0  0  0  0  0  0  0
    7.1953  -11.7224   25.9628 C   0  0  0  0  0  0  0  0  0  0  0  0
    6.7492  -13.0149   26.1735 C   0  0  0  0  0  0  0  0  0  0  0  0
    6.6736  -13.8977   25.1294 C   0  0  0  0  0  0  0  0  0  0  0  0
    8.9680  -15.6587   23.3606 C   0  0  0  0  0  0  0  0  0  0  0  0
    8.3282  -16.5349   23.9993 O   0  0  0  0  0  0  0  0  0  0  0  0
   10.9927  -16.0774   31.5267 O   0  0  0  0  0  0  0  0  0  0  0  0
   10.6380  -15.8752   30.1802 C   0  0  0  0  0  0  0  0  0  0  0  0
   10.6716  -14.6150   29.6224 C   0  0  0  0  0  0  0  0  0  0  0  0
   10.3222  -14.4220   28.2988 C   0  0  0  0  0  0  0  0  0  0  0  0
    9.9251  -15.4561   27.4677 C   0  0  0  0  0  0  0  0  0  0  0  0
    9.5388  -15.2682   26.0559 C   0  0  0  0  0  0  0  0  0  0  0  0
   10.6806  -15.5119   25.1325 C   0  0  2  0  0  0  0  0  0  0  0  0
   10.2940  -15.3754   23.7421 N   0  0  0  0  0  0  0  0  0  0  0  0
   11.2004  -16.8772   25.3122 C   0  0  0  0  0  0  0  0  0  0  0  0
   10.7630  -17.8350   24.6154 O   0  0  0  0  0  0  0  0  0  0  0  0
    9.9003  -16.7261   28.0607 C   0  0  0  0  0  0  0  0  0  0  0  0
   10.2476  -16.9204   29.3770 C   0  0  0  0  0  0  0  0  0  0  0  0
   12.1828  -17.1950   26.2329 O   0  0  0  0  0  0  0  0  0  0  0  0
  2  9  1  0
  2  1  1  6
  3  2  1  0
  4  8  1  0
  4  3  1  0
  5  4  2  0
  6  5  1  0
  6  7  1  0
  7  8  2  0
  9 10  2  0
 11  9  1  0
 11 12  1  0
 12 13  1  1
 13 14  1  0
 14 19  1  0
 15 14  2  0
 15 16  1  0
 16 17  2  0
 17 18  1  0
 19 18  2  0
 20 21  2  0
 20 12  1  0
 22 23  1  0
 23 24  2  0
 24 25  1  0
 26 25  2  0
 26 27  1  0
 28 27  1  1
 28 29  1  0
 29 20  1  0
 30 28  1  0
 31 30  2  0
 32 26  1  0
 33 23  1  0
 33 32  2  0
 34 30  1  0
M  END
$$$$
