HFY.pdb
     RDKit          3D

 34 36  0  0  1  0  0  0  0  0999 V2000
    9.2621  -16.5579   18.3966 N   0  0  0  0  0  0  0  0  0  0  0  0
    9.6198  -17.2108   19.6385 C   0  0  1  0  0  0  0  0  0  0  0  0
   10.9403  -17.8858   19.4667 C   0  0  0  0  0  0  0  0  0  0  0  0
   10.6998  -19.1246   18.6668 C   0  0  0  0  0  0  0  0  0  0  0  0
    9.9922  -19.1967   17.4795 C   0  0  0  0  0  0  0  0  0  0  0  0
    9.9875  -20.4891   17.0484 N   0  0  0  0  0  0  0  0  0  0  0  0
   10.6799  -21.2116   17.9502 C   0  0  0  0  0  0  0  0  0  0  0  0
   11.0987  -20.3824   18.9107 N   0  0  0  0  0  0  0  0  0  0  0  0
    9.5753  -16.2508   20.7681 C   0  0  0  0  0  0  0  0  0  0  0  0
   10.6098  -15.6067   21.0429 O   0  0  0  0  0  0  0  0  0  0  0  0
    8.4151  -16.0329   21.5468 N   0  0  0  0  0  0  0  0  0  0  0  0
    8.4635  -15.0743   22.6230 C   0  0  1  0  0  0  0  0  0  0  0  0
    7.0488  -14.8108   23.1148 C   0  0  0  0  0  0  0  0  0  0  0  0
    6.9893  -13.8453   24.2214 C   0  0  0  0  0  0  0  0  0  0  0  0
    7.5108  -12.5776   24.1127 C   0  0  0  0  0  0  0  0  0  0  0  0
    7.4250  -11.7191   25.1811 C   0  0  0  0  0  0  0  0  0  0  0  0
    6.8343  -12.0740   26.3686 C   0  0  0  0  0  0  0  0  0  0  0  0
    6.3138  -13.3521   26.4647 C   0  0  0  0  0  0  0  0  0  0  0  0
    6.3963  -14.2126   25.4027 C   0  0  0  0  0  0  0  0  0  0  0  0
    9.1718  -15.7359   23.7585 C   0  0  0  0  0  0  0  0  0  0  0  0
    8.9354  -16.9526   23.9794 O   0  0  0  0  0  0  0  0  0  0  0  0
   11.6991  -16.9405   32.0431 O   0  0  0  0  0  0  0  0  0  0  0  0
   11.4598  -16.3774   30.7762 C   0  0  0  0  0  0  0  0  0  0  0  0
   11.9651  -16.9639   29.6355 C   0  0  0  0  0  0  0  0  0  0  0  0
   11.7268  -16.4064   28.3931 C   0  0  0  0  0  0  0  0  0  0  0  0
   10.9839  -15.2509   28.2176 C   0  0  0  0  0  0  0  0  0  0  0  0
   10.7277  -14.6355   26.9010 C   0  0  0  0  0  0  0  0  0  0  0  0
   10.4816  -15.6602   25.8496 C   0  0  2  0  0  0  0  0  0  0  0  0
   10.0882  -15.0621   24.5892 N   0  0  0  0  0  0  0  0  0  0  0  0
    9.3978  -16.5663   26.2633 C   0  0  0  0  0  0  0  0  0  0  0  0
    9.6305  -17.7794   26.5246 O   0  0  0  0  0  0  0  0  0  0  0  0
   10.4825  -14.6761   29.3937 C   0  0  0  0  0  0  0  0  0  0  0  0
   10.7181  -15.2291   30.6306 C   0  0  0  0  0  0  0  0  0  0  0  0
    8.0824  -16.1584   26.3938 O   0  0  0  0  0  0  0  0  0  0  0  0
  2  9  1  0
  2  1  1  6
  3  2  1  0
  4  8  1  0
  4  3  1  0
  5  4  2  0
  6  5  1  0
  6  7  1  0
  7  8  2  0
  9 10  2  0
 11  9  1  0
 11 12  1  0
 12 13  1  1
 13 14  1  0
 14 19  1  0
 15 14  2  0
 15 16  1  0
 16 17  2  0
 17 18  1  0
 19 18  2  0
 20 21  2  0
 20 12  1  0
 22 23  1  0
 23 24  2  0
 24 25  1  0
 26 25  2  0
 26 27  1  0
 28 27  1  1
 28 29  1  0
 29 20  1  0
 30 28  1  0
 31 30  2  0
 32 26  1  0
 33 23  1  0
 33 32  2  0
 34 30  1  0
M  END
$$$$
