HFY.pdb
     RDKit          3D

 34 36  0  0  1  0  0  0  0  0999 V2000
    9.6211  -16.6272   19.2831 N   0  0  0  0  0  0  0  0  0  0  0  0
    8.6026  -16.8966   20.2764 C   0  0  1  0  0  0  0  0  0  0  0  0
    8.5305  -18.3698   20.5073 C   0  0  0  0  0  0  0  0  0  0  0  0
    7.5087  -18.9132   19.5623 C   0  0  0  0  0  0  0  0  0  0  0  0
    6.8333  -18.1882   18.5960 C   0  0  0  0  0  0  0  0  0  0  0  0
    5.9859  -19.0233   17.9321 N   0  0  0  0  0  0  0  0  0  0  0  0
    6.1293  -20.2482   18.4739 C   0  0  0  0  0  0  0  0  0  0  0  0
    7.0422  -20.1661   19.4462 N   0  0  0  0  0  0  0  0  0  0  0  0
    8.8460  -16.1043   21.5063 C   0  0  0  0  0  0  0  0  0  0  0  0
   10.0061  -16.0633   21.9679 O   0  0  0  0  0  0  0  0  0  0  0  0
    7.8243  -15.3942   22.1784 N   0  0  0  0  0  0  0  0  0  0  0  0
    8.1586  -14.6334   23.3569 C   0  0  1  0  0  0  0  0  0  0  0  0
    6.9119  -13.9185   23.8543 C   0  0  0  0  0  0  0  0  0  0  0  0
    7.1045  -13.2477   25.1477 C   0  0  0  0  0  0  0  0  0  0  0  0
    8.2449  -12.5364   25.4382 C   0  0  0  0  0  0  0  0  0  0  0  0
    8.3679  -11.9304   26.6644 C   0  0  0  0  0  0  0  0  0  0  0  0
    7.3908  -12.0036   27.6261 C   0  0  0  0  0  0  0  0  0  0  0  0
    6.2487  -12.7223   27.3211 C   0  0  0  0  0  0  0  0  0  0  0  0
    6.1204  -13.3287   26.1001 C   0  0  0  0  0  0  0  0  0  0  0  0
    8.5132  -15.6192   24.4204 C   0  0  0  0  0  0  0  0  0  0  0  0
    8.0022  -16.7683   24.3612 O   0  0  0  0  0  0  0  0  0  0  0  0
   12.2719  -21.8249   28.7657 O   0  0  0  0  0  0  0  0  0  0  0  0
   11.8639  -20.7453   27.9609 C   0  0  0  0  0  0  0  0  0  0  0  0
   12.7625  -19.7751   27.5716 C   0  0  0  0  0  0  0  0  0  0  0  0
   12.3563  -18.7165   26.7807 C   0  0  0  0  0  0  0  0  0  0  0  0
   11.0525  -18.5652   26.3391 C   0  0  0  0  0  0  0  0  0  0  0  0
   10.5980  -17.4371   25.5032 C   0  0  0  0  0  0  0  0  0  0  0  0
    9.9004  -16.3975   26.3084 C   0  0  2  0  0  0  0  0  0  0  0  0
    9.3900  -15.3215   25.4819 N   0  0  0  0  0  0  0  0  0  0  0  0
   10.8265  -15.8006   27.2844 C   0  0  0  0  0  0  0  0  0  0  0  0
   11.7652  -15.0440   26.9095 O   0  0  0  0  0  0  0  0  0  0  0  0
   10.1605  -19.5657   26.7494 C   0  0  0  0  0  0  0  0  0  0  0  0
   10.5625  -20.6196   27.5360 C   0  0  0  0  0  0  0  0  0  0  0  0
   10.7311  -16.0207   28.6468 O   0  0  0  0  0  0  0  0  0  0  0  0
  2  9  1  0
  2  1  1  6
  3  2  1  0
  4  8  1  0
  4  3  1  0
  5  4  2  0
  6  5  1  0
  6  7  1  0
  7  8  2  0
  9 10  2  0
 11  9  1  0
 11 12  1  0
 12 13  1  1
 13 14  1  0
 14 19  1  0
 15 14  2  0
 15 16  1  0
 16 17  2  0
 17 18  1  0
 19 18  2  0
 20 21  2  0
 20 12  1  0
 22 23  1  0
 23 24  2  0
 24 25  1  0
 26 25  2  0
 26 27  1  0
 28 27  1  6
 28 29  1  0
 29 20  1  0
 30 28  1  0
 31 30  2  0
 32 26  1  0
 33 23  1  0
 33 32  2  0
 34 30  1  0
M  END
$$$$
