HFY.pdb
     RDKit          3D

 34 36  0  0  1  0  0  0  0  0999 V2000
    9.6724  -17.1589   19.9732 N   0  0  0  0  0  0  0  0  0  0  0  0
    8.6601  -17.3823   20.9841 C   0  0  1  0  0  0  0  0  0  0  0  0
    8.6875  -18.8198   21.3861 C   0  0  0  0  0  0  0  0  0  0  0  0
    7.9533  -19.5847   20.3333 C   0  0  0  0  0  0  0  0  0  0  0  0
    7.3426  -19.0418   19.2162 C   0  0  0  0  0  0  0  0  0  0  0  0
    6.7783  -20.0478   18.4912 N   0  0  0  0  0  0  0  0  0  0  0  0
    7.0318  -21.1988   19.1437 C   0  0  0  0  0  0  0  0  0  0  0  0
    7.7344  -20.9054   20.2418 N   0  0  0  0  0  0  0  0  0  0  0  0
    8.8285  -16.4365   22.1139 C   0  0  0  0  0  0  0  0  0  0  0  0
    9.9870  -16.1178   22.4556 O   0  0  0  0  0  0  0  0  0  0  0  0
    7.7370  -15.8803   22.8205 N   0  0  0  0  0  0  0  0  0  0  0  0
    7.9974  -14.9757   23.9129 C   0  0  1  0  0  0  0  0  0  0  0  0
    6.7424  -14.1636   24.1925 C   0  0  0  0  0  0  0  0  0  0  0  0
    6.8748  -13.2717   25.3532 C   0  0  0  0  0  0  0  0  0  0  0  0
    7.7880  -12.2441   25.3835 C   0  0  0  0  0  0  0  0  0  0  0  0
    7.8653  -11.4431   26.4963 C   0  0  0  0  0  0  0  0  0  0  0  0
    7.0614  -11.6243   27.5945 C   0  0  0  0  0  0  0  0  0  0  0  0
    6.1471  -12.6616   27.5510 C   0  0  0  0  0  0  0  0  0  0  0  0
    6.0655  -13.4636   26.4441 C   0  0  0  0  0  0  0  0  0  0  0  0
    8.2158  -15.8169   25.1267 C   0  0  0  0  0  0  0  0  0  0  0  0
    7.2214  -16.3986   25.6345 O   0  0  0  0  0  0  0  0  0  0  0  0
    5.6751  -21.2314   24.8276 O   0  0  0  0  0  0  0  0  0  0  0  0
    6.7285  -20.4543   25.3433 C   0  0  0  0  0  0  0  0  0  0  0  0
    6.7907  -20.1511   26.6867 C   0  0  0  0  0  0  0  0  0  0  0  0
    7.8280  -19.3871   27.1882 C   0  0  0  0  0  0  0  0  0  0  0  0
    8.8468  -18.8886   26.3935 C   0  0  0  0  0  0  0  0  0  0  0  0
    9.9563  -18.0632   26.9088 C   0  0  0  0  0  0  0  0  0  0  0  0
    9.5730  -16.6292   27.0221 C   0  0  2  0  0  0  0  0  0  0  0  0
    9.4792  -15.9876   25.7257 N   0  0  0  0  0  0  0  0  0  0  0  0
   10.5779  -15.8923   27.8055 C   0  0  0  0  0  0  0  0  0  0  0  0
   10.8540  -16.2319   28.9898 O   0  0  0  0  0  0  0  0  0  0  0  0
    8.7585  -19.2122   25.0324 C   0  0  0  0  0  0  0  0  0  0  0  0
    7.7277  -19.9721   24.5315 C   0  0  0  0  0  0  0  0  0  0  0  0
   11.2736  -14.8052   27.3075 O   0  0  0  0  0  0  0  0  0  0  0  0
  2  9  1  0
  2  1  1  6
  3  2  1  0
  4  8  1  0
  4  3  1  0
  5  4  2  0
  6  5  1  0
  6  7  1  0
  7  8  2  0
  9 10  2  0
 11  9  1  0
 11 12  1  0
 12 13  1  1
 13 14  1  0
 14 19  1  0
 15 14  2  0
 15 16  1  0
 16 17  2  0
 17 18  1  0
 19 18  2  0
 20 21  2  0
 20 12  1  0
 22 23  1  0
 23 24  2  0
 24 25  1  0
 26 25  2  0
 26 27  1  0
 28 27  1  6
 28 29  1  0
 29 20  1  0
 30 28  1  0
 31 30  2  0
 32 26  1  0
 33 23  1  0
 33 32  2  0
 34 30  1  0
M  END
$$$$
