NTD.pdb
     RDKit          3D

 24 23  0  0  1  0  0  0  0  0999 V2000
   24.6070  -21.4743   -8.3210 N   0  0  0  0  0  0  0  0  0  0  0  0
   25.4656  -20.3843   -8.4949 C   0  0  0  0  0  0  0  0  0  0  0  0
   25.8704  -19.7700   -7.4520 O   0  0  0  0  0  0  0  0  0  0  0  0
   25.9701  -19.8479   -9.7787 C   0  0  0  0  0  0  0  0  0  0  0  0
   25.4760  -20.6063  -10.9758 C   0  0  2  0  0  0  0  0  0  0  0  0
   25.9161  -21.9620  -10.9613 N   0  0  0  0  0  0  0  0  0  0  0  0
   25.9060  -19.9705  -12.2570 C   0  0  0  0  0  0  0  0  0  0  0  0
   26.5293  -18.8902  -12.3024 O   0  0  0  0  0  0  0  0  0  0  0  0
   28.1543  -21.2387  -14.7280 C   0  0  0  0  0  0  0  0  0  0  0  0
   26.8965  -20.9581  -15.4907 C   0  0  1  0  0  0  0  0  0  0  0  0
   26.2332  -22.1968  -15.6483 O   0  0  0  0  0  0  0  0  0  0  0  0
   25.9761  -19.9857  -14.7610 C   0  0  2  0  0  0  0  0  0  0  0  0
   25.5931  -20.6141  -13.4697 N   0  0  0  0  0  0  0  0  0  0  0  0
   24.7906  -19.5978  -15.5035 C   0  0  0  0  0  0  0  0  0  0  0  0
   23.7148  -20.2399  -15.3166 O   0  0  0  0  0  0  0  0  0  0  0  0
   24.7061  -18.5406  -16.4438 N   0  0  0  0  0  0  0  0  0  0  0  0
   23.4714  -18.2613  -17.1666 C   0  0  1  0  0  0  0  0  0  0  0  0
   23.0174  -16.8127  -16.9504 C   0  0  0  0  0  0  0  0  0  0  0  0
   21.7935  -16.5794  -17.7395 C   0  0  0  0  0  0  0  0  0  0  0  0
   21.7499  -16.5016  -18.9513 O   0  0  0  0  0  0  0  0  0  0  0  0
   23.6850  -18.4272  -18.6028 C   0  0  0  0  0  0  0  0  0  0  0  0
   25.0106  -18.5818  -19.0606 O   0  0  0  0  0  0  0  0  0  0  0  0
   20.5611  -16.4387  -17.0242 O   0  0  0  0  0  0  0  0  0  0  0  0
   22.7883  -18.4420  -19.4683 O   0  0  0  0  0  0  0  0  0  0  0  0
  2  3  2  0
  2  1  1  0
  4  5  1  0
  4  2  1  0
  5  7  1  0
  5  6  1  1
  7  8  2  0
 10  9  1  1
 10 12  1  0
 11 10  1  0
 12 14  1  0
 12 13  1  1
 13  7  1  0
 14 15  2  0
 16 14  1  0
 16 17  1  0
 17 21  1  0
 17 18  1  6
 19 20  2  0
 19 18  1  0
 21 24  2  0
 21 22  1  0
 23 19  1  0
M  END
$$$$
