NTD.pdb
     RDKit          3D

 24 23  0  0  1  0  0  0  0  0999 V2000
   14.1145  -11.8366  -16.3072 N   0  0  0  0  0  0  0  0  0  0  0  0
   15.4129  -11.3599  -16.5131 C   0  0  0  0  0  0  0  0  0  0  0  0
   15.7955  -11.1679  -17.7154 O   0  0  0  0  0  0  0  0  0  0  0  0
   16.4184  -11.0458  -15.4734 C   0  0  0  0  0  0  0  0  0  0  0  0
   17.8323  -11.1234  -15.9702 C   0  0  2  0  0  0  0  0  0  0  0  0
   18.2627  -12.4727  -16.1318 N   0  0  0  0  0  0  0  0  0  0  0  0
   18.7838  -10.4164  -15.0617 C   0  0  0  0  0  0  0  0  0  0  0  0
   18.6701  -10.4276  -13.8190 O   0  0  0  0  0  0  0  0  0  0  0  0
   22.3213  -10.9743  -14.5727 C   0  0  0  0  0  0  0  0  0  0  0  0
   22.1991   -9.5463  -15.0066 C   0  0  1  0  0  0  0  0  0  0  0  0
   22.4631   -9.5206  -16.3954 O   0  0  0  0  0  0  0  0  0  0  0  0
   20.8088   -8.9751  -14.7497 C   0  0  2  0  0  0  0  0  0  0  0  0
   19.8562   -9.7017  -15.6293 N   0  0  0  0  0  0  0  0  0  0  0  0
   20.6926   -7.5429  -14.9559 C   0  0  0  0  0  0  0  0  0  0  0  0
   20.4428   -7.1111  -16.1203 O   0  0  0  0  0  0  0  0  0  0  0  0
   20.8308   -6.5446  -13.9594 N   0  0  0  0  0  0  0  0  0  0  0  0
   20.8391   -5.1267  -14.2980 C   0  0  1  0  0  0  0  0  0  0  0  0
   19.5811   -4.4237  -13.7742 C   0  0  0  0  0  0  0  0  0  0  0  0
   19.5887   -3.0275  -14.2493 C   0  0  0  0  0  0  0  0  0  0  0  0
   20.3935   -2.5620  -15.0315 O   0  0  0  0  0  0  0  0  0  0  0  0
   21.9831   -4.4697  -13.6691 C   0  0  0  0  0  0  0  0  0  0  0  0
   22.7005   -5.1868  -12.6885 O   0  0  0  0  0  0  0  0  0  0  0  0
   18.5669   -2.1545  -13.7555 O   0  0  0  0  0  0  0  0  0  0  0  0
   22.3832   -3.3174  -13.9250 O   0  0  0  0  0  0  0  0  0  0  0  0
  2  3  2  0
  2  1  1  0
  4  5  1  0
  4  2  1  0
  5  7  1  0
  5  6  1  1
  7  8  2  0
 10  9  1  6
 10 12  1  0
 11 10  1  0
 12 14  1  0
 12 13  1  6
 13  7  1  0
 14 15  2  0
 16 14  1  0
 16 17  1  0
 17 21  1  0
 17 18  1  1
 19 20  2  0
 19 18  1  0
 21 24  2  0
 21 22  1  0
 23 19  1  0
M  END
$$$$
