NTD.pdb
     RDKit          3D

 24 23  0  0  1  0  0  0  0  0999 V2000
   16.7100  -14.6167  -14.1812 N   0  0  0  0  0  0  0  0  0  0  0  0
   17.6817  -14.3296  -15.1449 C   0  0  0  0  0  0  0  0  0  0  0  0
   18.5054  -15.2533  -15.4568 O   0  0  0  0  0  0  0  0  0  0  0  0
   17.8702  -13.0481  -15.8610 C   0  0  0  0  0  0  0  0  0  0  0  0
   16.8792  -11.9934  -15.4641 C   0  0  2  0  0  0  0  0  0  0  0  0
   15.5488  -12.3547  -15.8265 N   0  0  0  0  0  0  0  0  0  0  0  0
   17.2029  -10.6664  -16.0683 C   0  0  0  0  0  0  0  0  0  0  0  0
   17.4999  -10.5235  -17.2720 O   0  0  0  0  0  0  0  0  0  0  0  0
   15.2309   -7.4501  -14.8456 C   0  0  0  0  0  0  0  0  0  0  0  0
   16.0648   -7.5344  -16.0865 C   0  0  1  0  0  0  0  0  0  0  0  0
   16.2586   -6.2077  -16.5356 O   0  0  0  0  0  0  0  0  0  0  0  0
   17.4221   -8.1819  -15.8347 C   0  0  2  0  0  0  0  0  0  0  0  0
   17.1761   -9.5240  -15.2454 N   0  0  0  0  0  0  0  0  0  0  0  0
   18.3133   -7.4141  -14.9840 C   0  0  0  0  0  0  0  0  0  0  0  0
   18.2142   -7.5357  -13.7271 O   0  0  0  0  0  0  0  0  0  0  0  0
   19.3167   -6.5158  -15.4256 N   0  0  0  0  0  0  0  0  0  0  0  0
   20.1528   -5.7843  -14.4817 C   0  0  1  0  0  0  0  0  0  0  0  0
   21.6380   -5.9133  -14.8401 C   0  0  0  0  0  0  0  0  0  0  0  0
   22.4328   -5.2053  -13.8192 C   0  0  0  0  0  0  0  0  0  0  0  0
   22.1975   -5.2085  -12.6272 O   0  0  0  0  0  0  0  0  0  0  0  0
   19.8292   -4.3598  -14.5278 C   0  0  0  0  0  0  0  0  0  0  0  0
   18.9706   -3.9097  -15.5528 O   0  0  0  0  0  0  0  0  0  0  0  0
   23.5717   -4.4610  -14.2655 O   0  0  0  0  0  0  0  0  0  0  0  0
   20.2521   -3.4981  -13.7327 O   0  0  0  0  0  0  0  0  0  0  0  0
  2  3  2  0
  2  1  1  0
  4  5  1  0
  4  2  1  0
  5  7  1  0
  5  6  1  6
  7  8  2  0
 10  9  1  1
 10 12  1  0
 11 10  1  0
 12 14  1  0
 12 13  1  1
 13  7  1  0
 14 15  2  0
 16 14  1  0
 16 17  1  0
 17 21  1  0
 17 18  1  6
 19 20  2  0
 19 18  1  0
 21 24  2  0
 21 22  1  0
 23 19  1  0
M  END
$$$$
