NTD.pdb
     RDKit          3D

 24 23  0  0  1  0  0  0  0  0999 V2000
   28.2297  -13.5530  -19.8712 N   0  0  0  0  0  0  0  0  0  0  0  0
   28.0239  -12.2561  -20.3519 C   0  0  0  0  0  0  0  0  0  0  0  0
   27.4965  -12.1232  -21.5065 O   0  0  0  0  0  0  0  0  0  0  0  0
   28.3556  -10.9902  -19.6605 C   0  0  0  0  0  0  0  0  0  0  0  0
   28.9877  -11.1950  -18.3149 C   0  0  2  0  0  0  0  0  0  0  0  0
   28.0961  -11.8326  -17.4036 N   0  0  0  0  0  0  0  0  0  0  0  0
   29.4561   -9.9096  -17.7158 C   0  0  0  0  0  0  0  0  0  0  0  0
   28.7826   -9.2615  -16.8889 O   0  0  0  0  0  0  0  0  0  0  0  0
   33.1232   -9.4492  -16.4320 C   0  0  0  0  0  0  0  0  0  0  0  0
   32.7433   -8.3144  -17.3321 C   0  0  1  0  0  0  0  0  0  0  0  0
   33.3006   -8.5986  -18.6000 O   0  0  0  0  0  0  0  0  0  0  0  0
   31.2326   -8.1604  -17.4714 C   0  0  2  0  0  0  0  0  0  0  0  0
   30.7117   -9.4018  -18.1013 N   0  0  0  0  0  0  0  0  0  0  0  0
   30.8076   -6.9959  -18.2267 C   0  0  0  0  0  0  0  0  0  0  0  0
   30.2837   -7.1649  -19.3675 O   0  0  0  0  0  0  0  0  0  0  0  0
   30.9177   -5.6464  -17.8077 N   0  0  0  0  0  0  0  0  0  0  0  0
   30.3963   -4.5525  -18.6181 C   0  0  1  0  0  0  0  0  0  0  0  0
   28.8639   -4.5772  -18.6637 C   0  0  0  0  0  0  0  0  0  0  0  0
   28.4034   -3.5391  -19.6047 C   0  0  0  0  0  0  0  0  0  0  0  0
   28.9359   -2.4590  -19.7660 O   0  0  0  0  0  0  0  0  0  0  0  0
   30.7811   -3.2698  -18.0326 C   0  0  0  0  0  0  0  0  0  0  0  0
   30.7845   -2.1349  -18.8708 O   0  0  0  0  0  0  0  0  0  0  0  0
   27.2430   -3.8273  -20.3925 O   0  0  0  0  0  0  0  0  0  0  0  0
   31.1122   -3.0898  -16.8446 O   0  0  0  0  0  0  0  0  0  0  0  0
  2  3  2  0
  2  1  1  0
  4  5  1  0
  4  2  1  0
  5  7  1  0
  5  6  1  1
  7  8  2  0
 10  9  1  1
 10 12  1  0
 11 10  1  0
 12 14  1  0
 12 13  1  6
 13  7  1  0
 14 15  2  0
 16 14  1  0
 16 17  1  0
 17 21  1  0
 17 18  1  1
 19 20  2  0
 19 18  1  0
 21 24  2  0
 21 22  1  0
 23 19  1  0
M  END
$$$$
