NTD.pdb
     RDKit          3D

 24 23  0  0  1  0  0  0  0  0999 V2000
   14.1870  -13.1086   -9.6385 N   0  0  0  0  0  0  0  0  0  0  0  0
   15.0166  -12.7583  -10.7083 C   0  0  0  0  0  0  0  0  0  0  0  0
   15.5332  -13.7001  -11.3974 O   0  0  0  0  0  0  0  0  0  0  0  0
   15.3738  -11.3894  -11.1433 C   0  0  0  0  0  0  0  0  0  0  0  0
   14.6942  -10.3152  -10.3455 C   0  0  2  0  0  0  0  0  0  0  0  0
   13.2752  -10.3921  -10.4561 N   0  0  0  0  0  0  0  0  0  0  0  0
   15.1392   -8.9493  -10.7540 C   0  0  0  0  0  0  0  0  0  0  0  0
   14.6161   -8.3188  -11.6955 O   0  0  0  0  0  0  0  0  0  0  0  0
   14.8463   -6.0481   -8.8537 C   0  0  0  0  0  0  0  0  0  0  0  0
   16.3067   -6.0773   -9.1834 C   0  0  1  0  0  0  0  0  0  0  0  0
   16.9687   -6.5957   -8.0467 O   0  0  0  0  0  0  0  0  0  0  0  0
   16.6153   -6.9586  -10.3889 C   0  0  2  0  0  0  0  0  0  0  0  0
   16.1979   -8.3441  -10.0499 N   0  0  0  0  0  0  0  0  0  0  0  0
   18.0028   -6.9407  -10.8154 C   0  0  0  0  0  0  0  0  0  0  0  0
   18.7636   -7.8896  -10.4612 O   0  0  0  0  0  0  0  0  0  0  0  0
   18.6153   -5.9430  -11.6143 N   0  0  0  0  0  0  0  0  0  0  0  0
   19.9703   -6.1038  -12.1273 C   0  0  1  0  0  0  0  0  0  0  0  0
   20.0710   -7.3192  -13.0568 C   0  0  0  0  0  0  0  0  0  0  0  0
   21.4516   -7.4089  -13.5677 C   0  0  0  0  0  0  0  0  0  0  0  0
   22.3974   -6.7816  -13.1337 O   0  0  0  0  0  0  0  0  0  0  0  0
   20.3468   -4.9342  -12.9187 C   0  0  0  0  0  0  0  0  0  0  0  0
   19.3129   -4.1300  -13.4429 O   0  0  0  0  0  0  0  0  0  0  0  0
   21.6983   -8.3075  -14.6548 O   0  0  0  0  0  0  0  0  0  0  0  0
   21.5147   -4.5828  -13.1754 O   0  0  0  0  0  0  0  0  0  0  0  0
  2  3  2  0
  2  1  1  0
  4  5  1  0
  4  2  1  0
  5  7  1  0
  5  6  1  6
  7  8  2  0
 10  9  1  1
 10 12  1  0
 11 10  1  0
 12 14  1  0
 12 13  1  1
 13  7  1  0
 14 15  2  0
 16 14  1  0
 16 17  1  0
 17 21  1  0
 17 18  1  6
 19 20  2  0
 19 18  1  0
 21 24  2  0
 21 22  1  0
 23 19  1  0
M  END
$$$$
