NTD.pdb
     RDKit          3D

 24 23  0  0  1  0  0  0  0  0999 V2000
   16.7125  -14.7188  -14.5688 N   0  0  0  0  0  0  0  0  0  0  0  0
   17.7075  -14.0252  -15.2648 C   0  0  0  0  0  0  0  0  0  0  0  0
   18.6682  -14.7003  -15.7649 O   0  0  0  0  0  0  0  0  0  0  0  0
   17.7771  -12.5645  -15.4930 C   0  0  0  0  0  0  0  0  0  0  0  0
   16.6274  -11.8124  -14.8891 C   0  0  2  0  0  0  0  0  0  0  0  0
   15.4010  -12.0950  -15.5583 N   0  0  0  0  0  0  0  0  0  0  0  0
   16.8571  -10.3367  -14.9003 C   0  0  0  0  0  0  0  0  0  0  0  0
   16.7221   -9.6370  -15.9248 O   0  0  0  0  0  0  0  0  0  0  0  0
   15.4407   -7.8757  -12.4264 C   0  0  0  0  0  0  0  0  0  0  0  0
   16.9179   -7.6348  -12.4744 C   0  0  1  0  0  0  0  0  0  0  0  0
   17.4633   -8.2274  -11.3123 O   0  0  0  0  0  0  0  0  0  0  0  0
   17.5703   -8.2533  -13.7061 C   0  0  2  0  0  0  0  0  0  0  0  0
   17.2467   -9.7039  -13.7041 N   0  0  0  0  0  0  0  0  0  0  0  0
   19.0059   -8.0576  -13.7962 C   0  0  0  0  0  0  0  0  0  0  0  0
   19.7540   -9.0714  -13.9277 O   0  0  0  0  0  0  0  0  0  0  0  0
   19.6805   -6.8119  -13.7542 N   0  0  0  0  0  0  0  0  0  0  0  0
   21.0913   -6.6977  -14.1029 C   0  0  1  0  0  0  0  0  0  0  0  0
   21.3296   -7.0543  -15.5751 C   0  0  0  0  0  0  0  0  0  0  0  0
   22.7665   -6.9016  -15.8706 C   0  0  0  0  0  0  0  0  0  0  0  0
   23.6516   -6.8898  -15.0384 O   0  0  0  0  0  0  0  0  0  0  0  0
   21.5399   -5.3183  -13.9243 C   0  0  0  0  0  0  0  0  0  0  0  0
   20.7099   -4.2852  -14.4085 O   0  0  0  0  0  0  0  0  0  0  0  0
   23.1489   -6.7615  -17.2433 O   0  0  0  0  0  0  0  0  0  0  0  0
   22.6047   -4.9714  -13.3773 O   0  0  0  0  0  0  0  0  0  0  0  0
  2  3  2  0
  2  1  1  0
  4  5  1  0
  4  2  1  0
  5  7  1  0
  5  6  1  6
  7  8  2  0
 10  9  1  6
 10 12  1  0
 11 10  1  0
 12 14  1  0
 12 13  1  1
 13  7  1  0
 14 15  2  0
 16 14  1  0
 16 17  1  0
 17 21  1  0
 17 18  1  6
 19 20  2  0
 19 18  1  0
 21 24  2  0
 21 22  1  0
 23 19  1  0
M  END
$$$$
