NTD.pdb
     RDKit          3D

 24 23  0  0  1  0  0  0  0  0999 V2000
   28.3578  -21.2973   -8.1095 N   0  0  0  0  0  0  0  0  0  0  0  0
   27.1861  -20.5341   -8.0965 C   0  0  0  0  0  0  0  0  0  0  0  0
   26.8884  -19.9142   -7.0213 O   0  0  0  0  0  0  0  0  0  0  0  0
   26.2287  -20.3588   -9.2115 C   0  0  0  0  0  0  0  0  0  0  0  0
   26.5595  -21.1903  -10.4162 C   0  0  2  0  0  0  0  0  0  0  0  0
   27.9632  -21.2326  -10.6601 N   0  0  0  0  0  0  0  0  0  0  0  0
   25.8686  -20.6950  -11.6442 C   0  0  0  0  0  0  0  0  0  0  0  0
   26.3323  -19.7868  -12.3637 O   0  0  0  0  0  0  0  0  0  0  0  0
   25.6939  -22.2699  -14.5313 C   0  0  0  0  0  0  0  0  0  0  0  0
   24.2369  -22.0315  -14.2806 C   0  0  1  0  0  0  0  0  0  0  0  0
   23.7155  -23.2326  -13.7472 O   0  0  0  0  0  0  0  0  0  0  0  0
   23.9928  -20.8962  -13.2923 C   0  0  2  0  0  0  0  0  0  0  0  0
   24.6374  -21.2740  -12.0075 N   0  0  0  0  0  0  0  0  0  0  0  0
   22.5953  -20.5678  -13.0772 C   0  0  0  0  0  0  0  0  0  0  0  0
   22.0786  -20.8057  -11.9454 O   0  0  0  0  0  0  0  0  0  0  0  0
   21.7204  -19.9877  -14.0295 N   0  0  0  0  0  0  0  0  0  0  0  0
   20.3120  -19.7599  -13.7301 C   0  0  1  0  0  0  0  0  0  0  0  0
   19.7147  -18.6901  -14.6520 C   0  0  0  0  0  0  0  0  0  0  0  0
   18.2850  -18.5319  -14.3265 C   0  0  0  0  0  0  0  0  0  0  0  0
   17.8517  -17.9246  -13.3674 O   0  0  0  0  0  0  0  0  0  0  0  0
   19.5489  -20.9858  -13.9554 C   0  0  0  0  0  0  0  0  0  0  0  0
   18.4232  -21.2233  -13.1388 O   0  0  0  0  0  0  0  0  0  0  0  0
   17.3339  -19.1355  -15.2104 O   0  0  0  0  0  0  0  0  0  0  0  0
   19.8103  -21.8503  -14.8143 O   0  0  0  0  0  0  0  0  0  0  0  0
  2  3  2  0
  2  1  1  0
  4  5  1  0
  4  2  1  0
  5  7  1  0
  5  6  1  6
  7  8  2  0
 10  9  1  1
 10 12  1  0
 11 10  1  0
 12 14  1  0
 12 13  1  1
 13  7  1  0
 14 15  2  0
 16 14  1  0
 16 17  1  0
 17 21  1  0
 17 18  1  6
 19 20  2  0
 19 18  1  0
 21 24  2  0
 21 22  1  0
 23 19  1  0
M  END
$$$$
