DRE.pdb
     RDKit          3D

 29 28  0  0  1  0  0  0  0  0999 V2000
   13.1175  -16.0203   18.4048 N   0  0  0  0  0  0  0  0  0  0  0  0
   13.7449  -15.6198   19.6454 C   0  0  1  0  0  0  0  0  0  0  0  0
   14.5632  -14.3485   19.4909 C   0  0  0  0  0  0  0  0  0  0  0  0
   15.6204  -14.4784   18.4563 C   0  0  0  0  0  0  0  0  0  0  0  0
   16.2577  -15.5758   18.3074 O   0  0  0  0  0  0  0  0  0  0  0  0
   12.7707  -15.5078   20.7490 C   0  0  0  0  0  0  0  0  0  0  0  0
   13.0756  -14.7534   21.7092 O   0  0  0  0  0  0  0  0  0  0  0  0
   15.9791  -13.4632   17.6124 O   0  0  0  0  0  0  0  0  0  0  0  0
    7.6107  -13.0709   17.7195 N   0  0  0  0  0  0  0  0  0  0  0  0
    7.8520  -12.9353   19.1271 C   0  0  0  0  0  0  0  0  0  0  0  0
    8.1335  -11.7659   19.5862 N   0  0  0  0  0  0  0  0  0  0  0  0
    7.7876  -14.0377   20.0017 N   0  0  0  0  0  0  0  0  0  0  0  0
    8.3420  -14.0200   21.3439 C   0  0  0  0  0  0  0  0  0  0  0  0
    8.1900  -15.3561   22.0270 C   0  0  0  0  0  0  0  0  0  0  0  0
    9.2083  -16.3487   21.5368 C   0  0  0  0  0  0  0  0  0  0  0  0
   10.6195  -15.9554   21.8685 C   0  0  2  0  0  0  0  0  0  0  0  0
   11.5331  -16.1969   20.7772 N   0  0  0  0  0  0  0  0  0  0  0  0
   11.1250  -16.6305   23.0921 C   0  0  0  0  0  0  0  0  0  0  0  0
   11.7234  -17.7288   22.9938 O   0  0  0  0  0  0  0  0  0  0  0  0
    8.4518  -11.6467   20.5592 N   0  0  0  0  0  0  0  0  0  0  0  0
   10.9483  -16.0641   24.3704 C   0  0  2  0  0  0  0  0  0  0  0  0
   11.3552  -16.7591   25.6149 C   0  0  0  0  0  0  0  0  0  0  0  0
   10.9815  -15.8398   26.7487 C   0  0  0  0  0  0  0  0  0  0  0  0
   11.2468  -16.3605   28.1139 C   0  0  0  0  0  0  0  0  0  0  0  0
   10.8855  -15.3253   29.1383 O   0  0  0  0  0  0  0  0  0  0  0  0
   10.3885  -14.2523   28.7288 C   0  0  0  0  0  0  0  0  0  0  0  0
   10.6191  -18.0331   25.7334 O   0  0  0  0  0  0  0  0  0  0  0  0
    9.4464  -18.1385   25.3169 O   0  0  0  0  0  0  0  0  0  0  0  0
   11.0802  -15.5146   30.4958 O   0  0  0  0  0  0  0  0  0  0  0  0
  2  1  1  6
  2  3  1  0
  3  4  1  0
  4  8  1  0
  5  4  2  0
  6  2  1  0
  7  6  2  0
 10  9  1  0
 10 12  1  0
 11 10  2  0
 12 13  1  0
 13 14  1  0
 16 15  1  6
 15 14  1  0
 16 17  1  0
 17  6  1  0
 18 20  1  0
 18 16  1  0
 19 18  2  0
 21 26  1  0
 21 20  1  0
 21 22  1  6
 23 22  1  0
 23 24  1  0
 24 25  2  0
 26 29  1  0
 27 26  2  0
 28 24  1  0
M  END
$$$$
