DRE.pdb
     RDKit          3D

 29 28  0  0  1  0  0  0  0  0999 V2000
   15.0772  -17.3339   17.0605 N   0  0  0  0  0  0  0  0  0  0  0  0
   15.2923  -18.6340   17.6577 C   0  0  1  0  0  0  0  0  0  0  0  0
   16.7457  -18.8556   18.0432 C   0  0  0  0  0  0  0  0  0  0  0  0
   17.6804  -18.5315   16.9359 C   0  0  0  0  0  0  0  0  0  0  0  0
   17.4689  -18.9669   15.7535 O   0  0  0  0  0  0  0  0  0  0  0  0
   14.3851  -18.8786   18.7963 C   0  0  0  0  0  0  0  0  0  0  0  0
   14.0167  -17.8762   19.4621 O   0  0  0  0  0  0  0  0  0  0  0  0
   18.8030  -17.7662   17.0959 O   0  0  0  0  0  0  0  0  0  0  0  0
    7.9561  -24.5733   19.9523 N   0  0  0  0  0  0  0  0  0  0  0  0
    9.0495  -24.7085   20.8711 C   0  0  0  0  0  0  0  0  0  0  0  0
    9.1926  -25.8308   21.4855 N   0  0  0  0  0  0  0  0  0  0  0  0
    9.9544  -23.6555   21.1097 N   0  0  0  0  0  0  0  0  0  0  0  0
    9.7191  -22.2914   20.6702 C   0  0  0  0  0  0  0  0  0  0  0  0
   10.8597  -21.3799   21.0483 C   0  0  0  0  0  0  0  0  0  0  0  0
   11.8489  -21.2338   19.9246 C   0  0  0  0  0  0  0  0  0  0  0  0
   12.9656  -20.2817   20.2447 C   0  0  2  0  0  0  0  0  0  0  0  0
   13.9195  -20.1642   19.1676 N   0  0  0  0  0  0  0  0  0  0  0  0
   13.6795  -20.6433   21.4970 C   0  0  0  0  0  0  0  0  0  0  0  0
   14.8303  -21.1389   21.4354 O   0  0  0  0  0  0  0  0  0  0  0  0
    9.9615  -25.9666   22.1583 N   0  0  0  0  0  0  0  0  0  0  0  0
   13.0922  -20.4420   22.7622 C   0  0  2  0  0  0  0  0  0  0  0  0
   13.7752  -20.8061   24.0265 C   0  0  0  0  0  0  0  0  0  0  0  0
   12.8691  -20.3457   25.1389 C   0  0  0  0  0  0  0  0  0  0  0  0
   13.3531  -20.6155   26.5167 C   0  0  0  0  0  0  0  0  0  0  0  0
   12.3406  -20.1441   27.5188 O   0  0  0  0  0  0  0  0  0  0  0  0
   11.3156  -19.5732   27.0837 C   0  0  0  0  0  0  0  0  0  0  0  0
   13.9501  -22.2705   24.0903 O   0  0  0  0  0  0  0  0  0  0  0  0
   13.0907  -23.0413   23.6138 O   0  0  0  0  0  0  0  0  0  0  0  0
   12.5001  -20.3169   28.8831 O   0  0  0  0  0  0  0  0  0  0  0  0
  2  1  1  1
  2  3  1  0
  3  4  1  0
  4  8  1  0
  5  4  2  0
  6  2  1  0
  7  6  2  0
 10  9  1  0
 10 12  1  0
 11 10  2  0
 12 13  1  0
 13 14  1  0
 16 15  1  6
 15 14  1  0
 16 17  1  0
 17  6  1  0
 18 20  1  0
 18 16  1  0
 19 18  2  0
 21 26  1  0
 21 20  1  0
 21 22  1  6
 23 22  1  0
 23 24  1  0
 24 25  2  0
 26 29  1  0
 27 26  2  0
 28 24  1  0
M  END
$$$$
