DRE.pdb
     RDKit          3D

 29 28  0  0  1  0  0  0  0  0999 V2000
   16.7354  -13.7768   17.3385 N   0  0  0  0  0  0  0  0  0  0  0  0
   15.4026  -14.2919   17.1111 C   0  0  1  0  0  0  0  0  0  0  0  0
   15.4198  -15.6381   16.4059 C   0  0  0  0  0  0  0  0  0  0  0  0
   16.7890  -16.2020   16.2963 C   0  0  0  0  0  0  0  0  0  0  0  0
   17.2184  -17.0471   17.1531 O   0  0  0  0  0  0  0  0  0  0  0  0
   14.6068  -14.3398   18.3536 C   0  0  0  0  0  0  0  0  0  0  0  0
   15.1770  -13.9750   19.4147 O   0  0  0  0  0  0  0  0  0  0  0  0
   17.6651  -15.8677   15.3002 O   0  0  0  0  0  0  0  0  0  0  0  0
    6.3274  -13.1887   20.1788 N   0  0  0  0  0  0  0  0  0  0  0  0
    7.5077  -12.8712   19.4278 C   0  0  0  0  0  0  0  0  0  0  0  0
    7.4096  -12.0108   18.4751 N   0  0  0  0  0  0  0  0  0  0  0  0
    8.7509  -13.4719   19.7079 N   0  0  0  0  0  0  0  0  0  0  0  0
    8.9343  -14.4702   20.7466 C   0  0  0  0  0  0  0  0  0  0  0  0
   10.3791  -14.8850   20.8715 C   0  0  0  0  0  0  0  0  0  0  0  0
   11.0899  -14.8247   19.5473 C   0  0  0  0  0  0  0  0  0  0  0  0
   12.5858  -14.8189   19.6829 C   0  0  2  0  0  0  0  0  0  0  0  0
   13.2578  -14.7695   18.4063 N   0  0  0  0  0  0  0  0  0  0  0  0
   13.0905  -15.9807   20.4601 C   0  0  0  0  0  0  0  0  0  0  0  0
   13.0198  -17.1337   19.9708 O   0  0  0  0  0  0  0  0  0  0  0  0
    8.2257  -11.7812   17.8890 N   0  0  0  0  0  0  0  0  0  0  0  0
   13.6511  -15.8193   21.7430 C   0  0  2  0  0  0  0  0  0  0  0  0
   14.0488  -16.9683   22.5910 C   0  0  0  0  0  0  0  0  0  0  0  0
   15.4126  -16.6332   23.1367 C   0  0  0  0  0  0  0  0  0  0  0  0
   16.5072  -16.5632   22.1355 C   0  0  0  0  0  0  0  0  0  0  0  0
   17.7798  -16.1197   22.7953 O   0  0  0  0  0  0  0  0  0  0  0  0
   17.8537  -14.9286   23.1720 C   0  0  0  0  0  0  0  0  0  0  0  0
   13.0850  -17.1227   23.6984 O   0  0  0  0  0  0  0  0  0  0  0  0
   12.1545  -16.3053   23.8587 O   0  0  0  0  0  0  0  0  0  0  0  0
   18.8546  -16.9687   22.9971 O   0  0  0  0  0  0  0  0  0  0  0  0
  2  1  1  1
  2  3  1  0
  3  4  1  0
  4  8  1  0
  5  4  2  0
  6  2  1  0
  7  6  2  0
 10  9  1  0
 10 12  1  0
 11 10  2  0
 12 13  1  0
 13 14  1  0
 16 15  1  6
 15 14  1  0
 16 17  1  0
 17  6  1  0
 18 20  1  0
 18 16  1  0
 19 18  2  0
 21 26  1  0
 21 20  1  0
 21 22  1  6
 23 22  1  0
 23 24  1  0
 24 25  2  0
 26 29  1  0
 27 26  2  0
 28 24  1  0
M  END
$$$$
