DRE.pdb
     RDKit          3D

 29 28  0  0  1  0  0  0  0  0999 V2000
   16.2082  -17.3655   15.2484 N   0  0  0  0  0  0  0  0  0  0  0  0
   15.8391  -18.3909   16.1999 C   0  0  1  0  0  0  0  0  0  0  0  0
   17.0386  -19.1981   16.6685 C   0  0  0  0  0  0  0  0  0  0  0  0
   17.7792  -19.8177   15.5404 C   0  0  0  0  0  0  0  0  0  0  0  0
   18.8798  -19.3169   15.1276 O   0  0  0  0  0  0  0  0  0  0  0  0
   15.0753  -17.8428   17.3381 C   0  0  0  0  0  0  0  0  0  0  0  0
   15.5204  -16.7963   17.8772 O   0  0  0  0  0  0  0  0  0  0  0  0
   17.3501  -20.9362   14.8800 O   0  0  0  0  0  0  0  0  0  0  0  0
   10.8621  -20.6651   15.8324 N   0  0  0  0  0  0  0  0  0  0  0  0
    9.6307  -20.9581   16.5073 C   0  0  0  0  0  0  0  0  0  0  0  0
    9.0668  -22.0928   16.2789 N   0  0  0  0  0  0  0  0  0  0  0  0
    9.0368  -20.0445   17.4002 N   0  0  0  0  0  0  0  0  0  0  0  0
    9.6483  -18.7785   17.7643 C   0  0  0  0  0  0  0  0  0  0  0  0
   11.0951  -18.9504   18.1541 C   0  0  0  0  0  0  0  0  0  0  0  0
   11.6992  -17.6572   18.6285 C   0  0  0  0  0  0  0  0  0  0  0  0
   13.1719  -17.7626   18.9040 C   0  0  2  0  0  0  0  0  0  0  0  0
   13.8881  -18.4289   17.8424 N   0  0  0  0  0  0  0  0  0  0  0  0
   13.4617  -18.4407   20.1943 C   0  0  0  0  0  0  0  0  0  0  0  0
   13.3862  -19.6907   20.2701 O   0  0  0  0  0  0  0  0  0  0  0  0
    8.2036  -22.3593   16.7751 N   0  0  0  0  0  0  0  0  0  0  0  0
   13.8221  -17.7100   21.3441 C   0  0  1  0  0  0  0  0  0  0  0  0
   14.0919  -18.3578   22.6499 C   0  0  0  0  0  0  0  0  0  0  0  0
   15.2562  -17.6151   23.2525 C   0  0  0  0  0  0  0  0  0  0  0  0
   16.5557  -17.7780   22.5522 C   0  0  0  0  0  0  0  0  0  0  0  0
   17.5364  -16.7541   23.0436 O   0  0  0  0  0  0  0  0  0  0  0  0
   17.7006  -16.6543   24.2801 C   0  0  0  0  0  0  0  0  0  0  0  0
   12.9061  -18.2304   23.5197 O   0  0  0  0  0  0  0  0  0  0  0  0
   11.9588  -17.4785   23.2082 O   0  0  0  0  0  0  0  0  0  0  0  0
   18.2519  -15.9319   22.1901 O   0  0  0  0  0  0  0  0  0  0  0  0
  2  1  1  6
  2  3  1  0
  3  4  1  0
  4  8  1  0
  5  4  2  0
  6  2  1  0
  7  6  2  0
 10  9  1  0
 10 12  1  0
 11 10  2  0
 12 13  1  0
 13 14  1  0
 16 15  1  6
 15 14  1  0
 16 17  1  0
 17  6  1  0
 18 20  1  0
 18 16  1  0
 19 18  2  0
 21 26  1  0
 21 20  1  0
 21 22  1  1
 23 22  1  0
 23 24  1  0
 24 25  2  0
 26 29  1  0
 27 26  2  0
 28 24  1  0
M  END
$$$$
