DRE.pdb
     RDKit          3D

 29 28  0  0  1  0  0  0  0  0999 V2000
   13.7396  -15.6042   16.7061 N   0  0  0  0  0  0  0  0  0  0  0  0
   14.7367  -15.1086   17.6298 C   0  0  1  0  0  0  0  0  0  0  0  0
   15.3631  -13.8077   17.1551 C   0  0  0  0  0  0  0  0  0  0  0  0
   16.6481  -14.0253   16.4436 C   0  0  0  0  0  0  0  0  0  0  0  0
   17.7002  -13.3850   16.7839 O   0  0  0  0  0  0  0  0  0  0  0  0
   14.2093  -14.9878   19.0034 C   0  0  0  0  0  0  0  0  0  0  0  0
   14.9924  -14.5410   19.8815 O   0  0  0  0  0  0  0  0  0  0  0  0
   16.7953  -14.9004   15.4025 O   0  0  0  0  0  0  0  0  0  0  0  0
    7.8849  -11.5844   19.0333 N   0  0  0  0  0  0  0  0  0  0  0  0
    7.9435  -12.9780   18.6982 C   0  0  0  0  0  0  0  0  0  0  0  0
    8.0848  -13.3006   17.4599 N   0  0  0  0  0  0  0  0  0  0  0  0
    7.8514  -13.9832   19.6809 N   0  0  0  0  0  0  0  0  0  0  0  0
    8.8182  -15.0593   19.8092 C   0  0  0  0  0  0  0  0  0  0  0  0
   10.2188  -14.5307   19.9929 C   0  0  0  0  0  0  0  0  0  0  0  0
   11.0119  -15.3812   20.9470 C   0  0  0  0  0  0  0  0  0  0  0  0
   12.4961  -15.2490   20.7577 C   0  0  2  0  0  0  0  0  0  0  0  0
   12.8888  -15.3451   19.3720 N   0  0  0  0  0  0  0  0  0  0  0  0
   13.2614  -16.2418   21.5561 C   0  0  0  0  0  0  0  0  0  0  0  0
   13.4582  -17.3916   21.0945 O   0  0  0  0  0  0  0  0  0  0  0  0
    8.3167  -14.2687   17.1928 N   0  0  0  0  0  0  0  0  0  0  0  0
   13.7761  -15.9222   22.8285 C   0  0  1  0  0  0  0  0  0  0  0  0
   14.5448  -16.8914   23.6454 C   0  0  0  0  0  0  0  0  0  0  0  0
   15.9369  -16.3273   23.7636 C   0  0  0  0  0  0  0  0  0  0  0  0
   16.8588  -17.0709   24.6595 C   0  0  0  0  0  0  0  0  0  0  0  0
   18.1944  -16.3883   24.7040 O   0  0  0  0  0  0  0  0  0  0  0  0
   18.9559  -16.5384   23.7224 C   0  0  0  0  0  0  0  0  0  0  0  0
   13.9310  -17.0074   24.9828 O   0  0  0  0  0  0  0  0  0  0  0  0
   13.0543  -16.2015   25.3593 O   0  0  0  0  0  0  0  0  0  0  0  0
   18.6039  -15.6125   25.7750 O   0  0  0  0  0  0  0  0  0  0  0  0
  2  1  1  6
  2  3  1  0
  3  4  1  0
  4  8  1  0
  5  4  2  0
  6  2  1  0
  7  6  2  0
 10  9  1  0
 10 12  1  0
 11 10  2  0
 12 13  1  0
 13 14  1  0
 16 15  1  6
 15 14  1  0
 16 17  1  0
 17  6  1  0
 18 20  1  0
 18 16  1  0
 19 18  2  0
 21 26  1  0
 21 20  1  0
 21 22  1  6
 23 22  1  0
 23 24  1  0
 24 25  2  0
 26 29  1  0
 27 26  2  0
 28 24  1  0
M  END
$$$$
