DRE.pdb
     RDKit          3D

 29 28  0  0  1  0  0  0  0  0999 V2000
   12.2354  -18.8843   16.8187 N   0  0  0  0  0  0  0  0  0  0  0  0
   13.3070  -18.1060   17.4011 C   0  0  1  0  0  0  0  0  0  0  0  0
   14.0159  -17.2432   16.3701 C   0  0  0  0  0  0  0  0  0  0  0  0
   14.3371  -17.9931   15.1294 C   0  0  0  0  0  0  0  0  0  0  0  0
   14.5177  -19.2576   15.1583 O   0  0  0  0  0  0  0  0  0  0  0  0
   12.8488  -17.3073   18.5551 C   0  0  0  0  0  0  0  0  0  0  0  0
   13.7331  -16.7360   19.2448 O   0  0  0  0  0  0  0  0  0  0  0  0
   14.4600  -17.4028   13.9015 O   0  0  0  0  0  0  0  0  0  0  0  0
    7.7272  -12.0252   20.5666 N   0  0  0  0  0  0  0  0  0  0  0  0
    7.3618  -13.0877   19.6747 C   0  0  0  0  0  0  0  0  0  0  0  0
    6.9986  -12.7800   18.4785 N   0  0  0  0  0  0  0  0  0  0  0  0
    7.3926  -14.4380   20.0753 N   0  0  0  0  0  0  0  0  0  0  0  0
    7.8649  -14.8688   21.3792 C   0  0  0  0  0  0  0  0  0  0  0  0
    9.3339  -15.2101   21.3547 C   0  0  0  0  0  0  0  0  0  0  0  0
    9.6991  -16.0016   20.1289 C   0  0  0  0  0  0  0  0  0  0  0  0
   11.1514  -16.3823   20.0861 C   0  0  2  0  0  0  0  0  0  0  0  0
   11.4869  -17.1575   18.9156 N   0  0  0  0  0  0  0  0  0  0  0  0
   11.5823  -17.1177   21.3036 C   0  0  0  0  0  0  0  0  0  0  0  0
   11.2556  -18.3199   21.4516 O   0  0  0  0  0  0  0  0  0  0  0  0
    6.6653  -13.5067   17.8279 N   0  0  0  0  0  0  0  0  0  0  0  0
   12.3548  -16.4945   22.3040 C   0  0  2  0  0  0  0  0  0  0  0  0
   12.8307  -17.2140   23.5095 C   0  0  0  0  0  0  0  0  0  0  0  0
   14.2962  -16.8887   23.6394 C   0  0  0  0  0  0  0  0  0  0  0  0
   15.0009  -17.5354   24.7755 C   0  0  0  0  0  0  0  0  0  0  0  0
   16.4499  -17.1455   24.7707 O   0  0  0  0  0  0  0  0  0  0  0  0
   16.8838  -16.5366   23.7673 C   0  0  0  0  0  0  0  0  0  0  0  0
   12.0982  -16.7296   24.6960 O   0  0  0  0  0  0  0  0  0  0  0  0
   11.4650  -15.6537   24.6649 O   0  0  0  0  0  0  0  0  0  0  0  0
   17.3062  -17.4319   25.8201 O   0  0  0  0  0  0  0  0  0  0  0  0
  2  1  1  6
  2  3  1  0
  3  4  1  0
  4  8  1  0
  5  4  2  0
  6  2  1  0
  7  6  2  0
 10  9  1  0
 10 12  1  0
 11 10  2  0
 12 13  1  0
 13 14  1  0
 16 15  1  1
 15 14  1  0
 16 17  1  0
 17  6  1  0
 18 20  1  0
 18 16  1  0
 19 18  2  0
 21 26  1  0
 21 20  1  0
 21 22  1  6
 23 22  1  0
 23 24  1  0
 24 25  2  0
 26 29  1  0
 27 26  2  0
 28 24  1  0
M  END
$$$$
