DRE.pdb
     RDKit          3D

 29 28  0  0  1  0  0  0  0  0999 V2000
   10.5604  -18.0713   17.5337 N   0  0  0  0  0  0  0  0  0  0  0  0
   11.7943  -17.4334   17.9384 C   0  0  1  0  0  0  0  0  0  0  0  0
   12.3693  -16.5490   16.8443 C   0  0  0  0  0  0  0  0  0  0  0  0
   11.7821  -16.8427   15.5125 C   0  0  0  0  0  0  0  0  0  0  0  0
   10.6355  -17.3974   15.4117 O   0  0  0  0  0  0  0  0  0  0  0  0
   11.6477  -16.6981   19.2102 C   0  0  0  0  0  0  0  0  0  0  0  0
   12.6995  -16.2580   19.7431 O   0  0  0  0  0  0  0  0  0  0  0  0
   12.4071  -16.5501   14.3313 O   0  0  0  0  0  0  0  0  0  0  0  0
    7.6955  -12.2008   18.7160 N   0  0  0  0  0  0  0  0  0  0  0  0
    7.2387  -13.4935   18.2941 C   0  0  0  0  0  0  0  0  0  0  0  0
    7.1888  -13.7388   17.0312 N   0  0  0  0  0  0  0  0  0  0  0  0
    6.8507  -14.4829   19.2188 N   0  0  0  0  0  0  0  0  0  0  0  0
    7.0360  -14.3461   20.6527 C   0  0  0  0  0  0  0  0  0  0  0  0
    8.4960  -14.2521   21.0192 C   0  0  0  0  0  0  0  0  0  0  0  0
    8.9996  -15.5339   21.6242 C   0  0  0  0  0  0  0  0  0  0  0  0
   10.3854  -15.8936   21.1698 C   0  0  2  0  0  0  0  0  0  0  0  0
   10.4026  -16.4699   19.8465 N   0  0  0  0  0  0  0  0  0  0  0  0
   11.0731  -16.8111   22.1152 C   0  0  0  0  0  0  0  0  0  0  0  0
   10.7521  -18.0234   22.1491 O   0  0  0  0  0  0  0  0  0  0  0  0
    6.8895  -14.6633   16.6875 N   0  0  0  0  0  0  0  0  0  0  0  0
   12.0850  -16.3509   22.9814 C   0  0  1  0  0  0  0  0  0  0  0  0
   12.7702  -17.2380   23.9514 C   0  0  0  0  0  0  0  0  0  0  0  0
   14.2328  -16.8827   23.8823 C   0  0  0  0  0  0  0  0  0  0  0  0
   15.1113  -17.5799   24.8558 C   0  0  0  0  0  0  0  0  0  0  0  0
   16.5287  -17.1146   24.6942 O   0  0  0  0  0  0  0  0  0  0  0  0
   16.7595  -16.2497   23.8198 C   0  0  0  0  0  0  0  0  0  0  0  0
   12.2511  -16.9810   25.3092 O   0  0  0  0  0  0  0  0  0  0  0  0
   11.5657  -15.9659   25.5532 O   0  0  0  0  0  0  0  0  0  0  0  0
   17.5697  -17.6014   25.4663 O   0  0  0  0  0  0  0  0  0  0  0  0
  2  1  1  6
  2  3  1  0
  3  4  1  0
  4  8  1  0
  5  4  2  0
  6  2  1  0
  7  6  2  0
 10  9  1  0
 10 12  1  0
 11 10  2  0
 12 13  1  0
 13 14  1  0
 16 15  1  1
 15 14  1  0
 16 17  1  0
 17  6  1  0
 18 20  1  0
 18 16  1  0
 19 18  2  0
 21 26  1  0
 21 20  1  0
 21 22  1  6
 23 22  1  0
 23 24  1  0
 24 25  2  0
 26 29  1  0
 27 26  2  0
 28 24  1  0
M  END
$$$$
