DRE.pdb
     RDKit          3D

 29 28  0  0  1  0  0  0  0  0999 V2000
   14.4793  -15.4841   15.9384 N   0  0  0  0  0  0  0  0  0  0  0  0
   15.3038  -15.0676   17.0519 C   0  0  1  0  0  0  0  0  0  0  0  0
   16.1332  -13.8370   16.7238 C   0  0  0  0  0  0  0  0  0  0  0  0
   17.0191  -14.0481   15.5510 C   0  0  0  0  0  0  0  0  0  0  0  0
   16.6034  -14.6847   14.5241 O   0  0  0  0  0  0  0  0  0  0  0  0
   14.5155  -14.8780   18.2857 C   0  0  0  0  0  0  0  0  0  0  0  0
   15.1494  -14.5813   19.3317 O   0  0  0  0  0  0  0  0  0  0  0  0
   18.3067  -13.5907   15.4861 O   0  0  0  0  0  0  0  0  0  0  0  0
    6.3565  -12.5911   20.1031 N   0  0  0  0  0  0  0  0  0  0  0  0
    7.4151  -12.7099   19.1422 C   0  0  0  0  0  0  0  0  0  0  0  0
    7.2379  -12.1961   17.9751 N   0  0  0  0  0  0  0  0  0  0  0  0
    8.6241  -13.3662   19.4458 N   0  0  0  0  0  0  0  0  0  0  0  0
    8.7911  -14.2280   20.6027 C   0  0  0  0  0  0  0  0  0  0  0  0
   10.2303  -14.6393   20.7878 C   0  0  0  0  0  0  0  0  0  0  0  0
   10.9417  -14.7773   19.4697 C   0  0  0  0  0  0  0  0  0  0  0  0
   12.4363  -14.8239   19.6105 C   0  0  2  0  0  0  0  0  0  0  0  0
   13.1065  -15.0126   18.3459 N   0  0  0  0  0  0  0  0  0  0  0  0
   12.8849  -15.8699   20.5661 C   0  0  0  0  0  0  0  0  0  0  0  0
   12.6643  -17.0787   20.3129 O   0  0  0  0  0  0  0  0  0  0  0  0
    7.8235  -12.4880   17.1787 N   0  0  0  0  0  0  0  0  0  0  0  0
   13.5571  -15.5363   21.7589 C   0  0  2  0  0  0  0  0  0  0  0  0
   14.0587  -16.5605   22.7060 C   0  0  0  0  0  0  0  0  0  0  0  0
   15.4780  -16.1715   23.0297 C   0  0  0  0  0  0  0  0  0  0  0  0
   16.1613  -17.0145   24.0435 C   0  0  0  0  0  0  0  0  0  0  0  0
   17.5500  -16.5011   24.2875 O   0  0  0  0  0  0  0  0  0  0  0  0
   17.9312  -15.5166   23.6157 C   0  0  0  0  0  0  0  0  0  0  0  0
   13.2378  -16.5442   23.9327 O   0  0  0  0  0  0  0  0  0  0  0  0
   12.5487  -15.5463   24.2311 O   0  0  0  0  0  0  0  0  0  0  0  0
   18.4071  -17.0700   25.2140 O   0  0  0  0  0  0  0  0  0  0  0  0
  2  1  1  6
  2  3  1  0
  3  4  1  0
  4  8  1  0
  5  4  2  0
  6  2  1  0
  7  6  2  0
 10  9  1  0
 10 12  1  0
 11 10  2  0
 12 13  1  0
 13 14  1  0
 16 15  1  6
 15 14  1  0
 16 17  1  0
 17  6  1  0
 18 20  1  0
 18 16  1  0
 19 18  2  0
 21 26  1  0
 21 20  1  0
 21 22  1  6
 23 22  1  0
 23 24  1  0
 24 25  2  0
 26 29  1  0
 27 26  2  0
 28 24  1  0
M  END
$$$$
