DRE.pdb
     RDKit          3D

 29 28  0  0  1  0  0  0  0  0999 V2000
   14.1863  -16.6802   16.8206 N   0  0  0  0  0  0  0  0  0  0  0  0
   14.5887  -15.4240   17.4149 C   0  0  1  0  0  0  0  0  0  0  0  0
   14.4728  -14.2640   16.4396 C   0  0  0  0  0  0  0  0  0  0  0  0
   14.5679  -14.7032   15.0244 C   0  0  0  0  0  0  0  0  0  0  0  0
   14.9678  -15.8808   14.7309 O   0  0  0  0  0  0  0  0  0  0  0  0
   13.8676  -15.1493   18.6735 C   0  0  0  0  0  0  0  0  0  0  0  0
   14.2410  -14.1510   19.3426 O   0  0  0  0  0  0  0  0  0  0  0  0
   14.2446  -13.9033   13.9628 O   0  0  0  0  0  0  0  0  0  0  0  0
    7.7842  -12.3268   20.4376 N   0  0  0  0  0  0  0  0  0  0  0  0
    7.7416  -12.8519   19.1033 C   0  0  0  0  0  0  0  0  0  0  0  0
    7.7080  -12.0187   18.1224 N   0  0  0  0  0  0  0  0  0  0  0  0
    7.7365  -14.2377   18.8498 N   0  0  0  0  0  0  0  0  0  0  0  0
    8.4844  -15.1936   19.6472 C   0  0  0  0  0  0  0  0  0  0  0  0
    9.9572  -14.8693   19.6690 C   0  0  0  0  0  0  0  0  0  0  0  0
   10.7342  -15.8729   20.4761 C   0  0  0  0  0  0  0  0  0  0  0  0
   12.2169  -15.6349   20.4399 C   0  0  2  0  0  0  0  0  0  0  0  0
   12.7962  -15.9422   19.1540 N   0  0  0  0  0  0  0  0  0  0  0  0
   12.9393  -16.3882   21.4978 C   0  0  0  0  0  0  0  0  0  0  0  0
   12.7949  -17.6314   21.5843 O   0  0  0  0  0  0  0  0  0  0  0  0
    7.6779  -12.3552   17.1487 N   0  0  0  0  0  0  0  0  0  0  0  0
   13.7895  -15.7368   22.4137 C   0  0  2  0  0  0  0  0  0  0  0  0
   14.5249  -16.4632   23.4764 C   0  0  0  0  0  0  0  0  0  0  0  0
   15.8977  -15.8447   23.5326 C   0  0  0  0  0  0  0  0  0  0  0  0
   16.6497  -15.8292   22.2522 C   0  0  0  0  0  0  0  0  0  0  0  0
   18.0225  -15.2634   22.4690 O   0  0  0  0  0  0  0  0  0  0  0  0
   18.3082  -14.8577   23.6178 C   0  0  0  0  0  0  0  0  0  0  0  0
   13.8348  -16.2809   24.7685 O   0  0  0  0  0  0  0  0  0  0  0  0
   14.2625  -16.8262   25.8075 O   0  0  0  0  0  0  0  0  0  0  0  0
   18.9654  -15.1771   21.4590 O   0  0  0  0  0  0  0  0  0  0  0  0
  2  1  1  6
  2  3  1  0
  3  4  1  0
  4  8  1  0
  5  4  2  0
  6  2  1  0
  7  6  2  0
 10  9  1  0
 10 12  1  0
 11 10  2  0
 12 13  1  0
 13 14  1  0
 16 15  1  6
 15 14  1  0
 16 17  1  0
 17  6  1  0
 18 20  1  0
 18 16  1  0
 19 18  2  0
 21 26  1  0
 21 20  1  0
 21 22  1  6
 23 22  1  0
 23 24  1  0
 24 25  2  0
 26 29  1  0
 27 26  2  0
 28 24  1  0
M  END
$$$$
