IMW.pdb
     RDKit          3D

 31 32  0  0  1  0  0  0  0  0999 V2000
    2.8182  -18.0975   19.6013 C   0  0  0  0  0  0  0  0  0  0  0  0
    3.8985  -17.8388   20.6293 C   0  0  0  0  0  0  0  0  0  0  0  0
    4.4404  -19.1806   21.0636 C   0  0  2  0  0  0  0  0  0  0  0  0
    3.3495  -20.0263   21.6291 C   0  0  0  0  0  0  0  0  0  0  0  0
    5.6678  -19.0767   21.9008 C   0  0  2  0  0  0  0  0  0  0  0  0
    5.3047  -18.5375   23.1947 N   0  0  0  0  0  0  0  0  0  0  0  0
    6.7238  -18.2037   21.2991 C   0  0  0  0  0  0  0  0  0  0  0  0
    7.2688  -18.5591   20.2386 O   0  0  0  0  0  0  0  0  0  0  0  0
    6.2689  -12.0914   20.3093 C   0  0  0  0  0  0  0  0  0  0  0  0
    8.0598  -12.1816   20.2074 S   0  0  0  0  0  0  0  0  0  0  0  0
    8.7457  -13.7708   20.7391 C   0  0  0  0  0  0  0  0  0  0  0  0
    7.7066  -14.7281   21.1638 C   0  0  0  0  0  0  0  0  0  0  0  0
    8.1225  -16.1111   21.5489 C   0  0  2  0  0  0  0  0  0  0  0  0
    7.0891  -17.0175   21.9140 N   0  0  0  0  0  0  0  0  0  0  0  0
    9.1320  -16.0405   22.6217 C   0  0  0  0  0  0  0  0  0  0  0  0
   10.1993  -15.4153   22.4017 O   0  0  0  0  0  0  0  0  0  0  0  0
    8.9172  -16.6536   23.8673 N   0  0  0  0  0  0  0  0  0  0  0  0
    9.9878  -16.6804   24.8424 C   0  0  1  0  0  0  0  0  0  0  0  0
    9.9612  -15.3842   25.6258 C   0  0  0  0  0  0  0  0  0  0  0  0
    8.5443  -15.0428   25.8881 C   0  0  0  0  0  0  0  0  0  0  0  0
    7.4613  -15.8886   25.8939 C   0  0  0  0  0  0  0  0  0  0  0  0
    6.3572  -15.1695   26.1780 N   0  0  0  0  0  0  0  0  0  0  0  0
    6.7117  -13.8837   26.3539 C   0  0  0  0  0  0  0  0  0  0  0  0
    5.9397  -12.7616   26.6622 C   0  0  0  0  0  0  0  0  0  0  0  0
    6.5436  -11.5418   26.7913 C   0  0  0  0  0  0  0  0  0  0  0  0
    7.9054  -11.4130   26.6196 C   0  0  0  0  0  0  0  0  0  0  0  0
    8.6437  -12.5287   26.3173 C   0  0  0  0  0  0  0  0  0  0  0  0
    8.0817  -13.7820   26.1762 C   0  0  0  0  0  0  0  0  0  0  0  0
    9.7950  -17.8184   25.7987 C   0  0  0  0  0  0  0  0  0  0  0  0
    8.7599  -18.4996   25.7961 O   0  0  0  0  0  0  0  0  0  0  0  0
   10.8091  -18.1057   26.7048 O   0  0  0  0  0  0  0  0  0  0  0  0
  1  2  1  0
  2  3  1  0
  3  4  1  1
  5  3  1  0
  5  6  1  1
  7  8  2  0
  7  5  1  0
  9 10  1  0
 11 10  1  0
 12 11  1  0
 13 12  1  1
 13 14  1  0
 14  7  1  0
 15 16  2  0
 15 13  1  0
 17 15  1  0
 18 17  1  0
 18 19  1  1
 19 20  1  0
 20 28  1  0
 20 21  2  0
 21 22  1  0
 23 22  1  0
 23 24  2  0
 25 24  1  0
 26 25  2  0
 27 28  2  0
 27 26  1  0
 28 23  1  0
 29 18  1  0
 30 29  2  0
 31 29  1  0
M  END
$$$$
