IMW.pdb
     RDKit          3D

 31 32  0  0  1  0  0  0  0  0999 V2000
    7.5373  -11.9273   19.2619 C   0  0  0  0  0  0  0  0  0  0  0  0
    8.0000  -13.2961   18.8112 C   0  0  0  0  0  0  0  0  0  0  0  0
    8.1308  -14.1584   20.0449 C   0  0  2  0  0  0  0  0  0  0  0  0
    8.9590  -13.4708   21.0775 C   0  0  0  0  0  0  0  0  0  0  0  0
    8.5229  -15.5630   19.7424 C   0  0  2  0  0  0  0  0  0  0  0  0
    7.5675  -16.1225   18.8092 N   0  0  0  0  0  0  0  0  0  0  0  0
    8.5747  -16.4384   20.9549 C   0  0  0  0  0  0  0  0  0  0  0  0
    7.5180  -16.9309   21.3895 O   0  0  0  0  0  0  0  0  0  0  0  0
   12.7636  -21.8392   24.8690 C   0  0  0  0  0  0  0  0  0  0  0  0
   12.4908  -20.7361   23.4781 S   0  0  0  0  0  0  0  0  0  0  0  0
   11.3127  -19.4037   23.8186 C   0  0  0  0  0  0  0  0  0  0  0  0
   11.0451  -18.5619   22.6370 C   0  0  0  0  0  0  0  0  0  0  0  0
   10.0253  -17.4751   22.7490 C   0  0  2  0  0  0  0  0  0  0  0  0
    9.7814  -16.6965   21.5841 N   0  0  0  0  0  0  0  0  0  0  0  0
   10.3679  -16.5937   23.8807 C   0  0  0  0  0  0  0  0  0  0  0  0
   11.5535  -16.1934   23.9925 O   0  0  0  0  0  0  0  0  0  0  0  0
    9.3992  -16.2018   24.8197 N   0  0  0  0  0  0  0  0  0  0  0  0
    9.7470  -16.1545   26.2248 C   0  0  1  0  0  0  0  0  0  0  0  0
    8.5028  -16.4386   27.0410 C   0  0  0  0  0  0  0  0  0  0  0  0
    7.4469  -15.4996   26.5983 C   0  0  0  0  0  0  0  0  0  0  0  0
    6.1721  -15.8007   26.1829 C   0  0  0  0  0  0  0  0  0  0  0  0
    5.5407  -14.6518   25.8695 N   0  0  0  0  0  0  0  0  0  0  0  0
    6.3841  -13.6243   26.0758 C   0  0  0  0  0  0  0  0  0  0  0  0
    6.2042  -12.2507   25.9004 C   0  0  0  0  0  0  0  0  0  0  0  0
    7.2308  -11.3938   26.1847 C   0  0  0  0  0  0  0  0  0  0  0  0
    8.4389  -11.8757   26.6420 C   0  0  0  0  0  0  0  0  0  0  0  0
    8.5930  -13.2286   26.8068 C   0  0  0  0  0  0  0  0  0  0  0  0
    7.5876  -14.1348   26.5339 C   0  0  0  0  0  0  0  0  0  0  0  0
   10.7742  -17.1983   26.5442 C   0  0  0  0  0  0  0  0  0  0  0  0
   10.5925  -18.3928   26.2689 O   0  0  0  0  0  0  0  0  0  0  0  0
   11.9539  -16.8037   27.1642 O   0  0  0  0  0  0  0  0  0  0  0  0
  1  2  1  0
  2  3  1  0
  3  4  1  1
  5  3  1  0
  5  6  1  6
  7  8  2  0
  7  5  1  0
  9 10  1  0
 11 10  1  0
 12 11  1  0
 13 12  1  6
 13 14  1  0
 14  7  1  0
 15 16  2  0
 15 13  1  0
 17 15  1  0
 18 17  1  0
 18 19  1  1
 19 20  1  0
 20 28  1  0
 20 21  2  0
 21 22  1  0
 23 22  1  0
 23 24  2  0
 25 24  1  0
 26 25  2  0
 27 28  2  0
 27 26  1  0
 28 23  1  0
 29 18  1  0
 30 29  2  0
 31 29  1  0
M  END
$$$$
