IMW.pdb
     RDKit          3D

 31 32  0  0  1  0  0  0  0  0999 V2000
    8.1460  -11.3004   18.9295 C   0  0  0  0  0  0  0  0  0  0  0  0
    8.6703  -12.6972   18.6747 C   0  0  0  0  0  0  0  0  0  0  0  0
    8.0108  -13.6175   19.6750 C   0  0  2  0  0  0  0  0  0  0  0  0
    8.1176  -13.0547   21.0523 C   0  0  0  0  0  0  0  0  0  0  0  0
    8.4293  -15.0396   19.5315 C   0  0  2  0  0  0  0  0  0  0  0  0
    8.2150  -15.4520   18.1601 N   0  0  0  0  0  0  0  0  0  0  0  0
    7.6819  -15.9716   20.4326 C   0  0  0  0  0  0  0  0  0  0  0  0
    6.4390  -15.9188   20.4587 O   0  0  0  0  0  0  0  0  0  0  0  0
    4.7789  -20.9615   22.0794 C   0  0  0  0  0  0  0  0  0  0  0  0
    5.0231  -19.9189   20.6375 S   0  0  0  0  0  0  0  0  0  0  0  0
    6.6730  -19.1794   20.5379 C   0  0  0  0  0  0  0  0  0  0  0  0
    7.3203  -19.0470   21.8570 C   0  0  0  0  0  0  0  0  0  0  0  0
    7.8536  -17.7107   22.2612 C   0  0  2  0  0  0  0  0  0  0  0  0
    8.3637  -16.8795   21.2260 N   0  0  0  0  0  0  0  0  0  0  0  0
    8.8716  -17.8852   23.3139 C   0  0  0  0  0  0  0  0  0  0  0  0
   10.0367  -18.2102   22.9745 O   0  0  0  0  0  0  0  0  0  0  0  0
    8.5590  -17.6943   24.6702 N   0  0  0  0  0  0  0  0  0  0  0  0
    9.5734  -17.1867   25.5707 C   0  0  1  0  0  0  0  0  0  0  0  0
    9.5988  -15.6755   25.4683 C   0  0  0  0  0  0  0  0  0  0  0  0
    8.2458  -15.1762   25.8039 C   0  0  0  0  0  0  0  0  0  0  0  0
    7.0848  -15.9022   25.9195 C   0  0  0  0  0  0  0  0  0  0  0  0
    6.0823  -15.0597   26.2387 N   0  0  0  0  0  0  0  0  0  0  0  0
    6.5778  -13.8122   26.3295 C   0  0  0  0  0  0  0  0  0  0  0  0
    5.9478  -12.6033   26.6322 C   0  0  0  0  0  0  0  0  0  0  0  0
    6.6808  -11.4497   26.6636 C   0  0  0  0  0  0  0  0  0  0  0  0
    8.0338  -11.4723   26.3992 C   0  0  0  0  0  0  0  0  0  0  0  0
    8.6314  -12.6711   26.1043 C   0  0  0  0  0  0  0  0  0  0  0  0
    7.9356  -13.8629   26.0599 C   0  0  0  0  0  0  0  0  0  0  0  0
    9.2512  -17.5624   26.9855 C   0  0  0  0  0  0  0  0  0  0  0  0
    8.1537  -18.0480   27.2939 O   0  0  0  0  0  0  0  0  0  0  0  0
   10.2152  -17.3556   27.9653 O   0  0  0  0  0  0  0  0  0  0  0  0
  1  2  1  0
  2  3  1  0
  3  4  1  1
  5  3  1  0
  5  6  1  6
  7  8  2  0
  7  5  1  0
  9 10  1  0
 11 10  1  0
 12 11  1  0
 13 12  1  6
 13 14  1  0
 14  7  1  0
 15 16  2  0
 15 13  1  0
 17 15  1  0
 18 17  1  0
 18 19  1  1
 19 20  1  0
 20 28  1  0
 20 21  2  0
 21 22  1  0
 23 22  1  0
 23 24  2  0
 25 24  1  0
 26 25  2  0
 27 28  2  0
 27 26  1  0
 28 23  1  0
 29 18  1  0
 30 29  2  0
 31 29  1  0
M  END
$$$$
