IMW.pdb
     RDKit          3D

 31 32  0  0  1  0  0  0  0  0999 V2000
   10.9889  -20.8801   23.2849 C   0  0  0  0  0  0  0  0  0  0  0  0
   10.5896  -20.1233   22.0365 C   0  0  0  0  0  0  0  0  0  0  0  0
    9.1228  -20.3924   21.7940 C   0  0  2  0  0  0  0  0  0  0  0  0
    8.8493  -21.8586   21.8206 C   0  0  0  0  0  0  0  0  0  0  0  0
    8.5772  -19.6617   20.6166 C   0  0  2  0  0  0  0  0  0  0  0  0
    9.1828  -20.1966   19.4149 N   0  0  0  0  0  0  0  0  0  0  0  0
    8.8309  -18.1877   20.6636 C   0  0  0  0  0  0  0  0  0  0  0  0
    9.8500  -17.7328   20.1135 O   0  0  0  0  0  0  0  0  0  0  0  0
    8.2742  -11.5301   20.1443 C   0  0  0  0  0  0  0  0  0  0  0  0
    7.2559  -12.9941   19.9309 S   0  0  0  0  0  0  0  0  0  0  0  0
    6.6919  -13.7285   21.4870 C   0  0  0  0  0  0  0  0  0  0  0  0
    6.6837  -15.2034   21.4528 C   0  0  0  0  0  0  0  0  0  0  0  0
    7.9919  -15.9254   21.4224 C   0  0  2  0  0  0  0  0  0  0  0  0
    7.9443  -17.3424   21.3101 N   0  0  0  0  0  0  0  0  0  0  0  0
    8.7937  -15.5406   22.5988 C   0  0  0  0  0  0  0  0  0  0  0  0
    9.2418  -14.3686   22.6629 O   0  0  0  0  0  0  0  0  0  0  0  0
    9.0575  -16.4544   23.6328 N   0  0  0  0  0  0  0  0  0  0  0  0
    9.8636  -16.0394   24.7622 C   0  0  1  0  0  0  0  0  0  0  0  0
    9.0801  -16.2909   26.0341 C   0  0  0  0  0  0  0  0  0  0  0  0
    7.8791  -15.4253   26.0047 C   0  0  0  0  0  0  0  0  0  0  0  0
    6.5718  -15.8047   25.8163 C   0  0  0  0  0  0  0  0  0  0  0  0
    5.7952  -14.7040   25.8613 N   0  0  0  0  0  0  0  0  0  0  0  0
    6.5778  -13.6307   26.0743 C   0  0  0  0  0  0  0  0  0  0  0  0
    6.2525  -12.2784   26.1993 C   0  0  0  0  0  0  0  0  0  0  0  0
    7.2443  -11.3630   26.4172 C   0  0  0  0  0  0  0  0  0  0  0  0
    8.5595  -11.7652   26.5140 C   0  0  0  0  0  0  0  0  0  0  0  0
    8.8556  -13.0985   26.3881 C   0  0  0  0  0  0  0  0  0  0  0  0
    7.8910  -14.0615   26.1675 C   0  0  0  0  0  0  0  0  0  0  0  0
   11.1321  -16.8357   24.8193 C   0  0  0  0  0  0  0  0  0  0  0  0
   11.9685  -16.6599   25.7166 O   0  0  0  0  0  0  0  0  0  0  0  0
   11.3636  -17.7907   23.8363 O   0  0  0  0  0  0  0  0  0  0  0  0
  1  2  1  0
  2  3  1  0
  3  4  1  6
  5  3  1  0
  5  6  1  6
  7  8  2  0
  7  5  1  0
  9 10  1  0
 11 10  1  0
 12 11  1  0
 13 12  1  1
 13 14  1  0
 14  7  1  0
 15 16  2  0
 15 13  1  0
 17 15  1  0
 18 17  1  0
 18 19  1  1
 19 20  1  0
 20 28  1  0
 20 21  2  0
 21 22  1  0
 23 22  1  0
 23 24  2  0
 25 24  1  0
 26 25  2  0
 27 28  2  0
 27 26  1  0
 28 23  1  0
 29 18  1  0
 30 29  2  0
 31 29  1  0
M  END
$$$$
