IMW.pdb
     RDKit          3D

 31 32  0  0  1  0  0  0  0  0999 V2000
    9.1738  -21.4882   23.9347 C   0  0  0  0  0  0  0  0  0  0  0  0
    9.0815  -20.6608   22.6707 C   0  0  0  0  0  0  0  0  0  0  0  0
    7.6575  -20.1696   22.5545 C   0  0  2  0  0  0  0  0  0  0  0  0
    6.7013  -21.3096   22.6607 C   0  0  0  0  0  0  0  0  0  0  0  0
    7.4413  -19.2601   21.3950 C   0  0  2  0  0  0  0  0  0  0  0  0
    7.5126  -20.0363   20.1747 N   0  0  0  0  0  0  0  0  0  0  0  0
    8.4441  -18.1523   21.3154 C   0  0  0  0  0  0  0  0  0  0  0  0
    9.4620  -18.3085   20.6172 O   0  0  0  0  0  0  0  0  0  0  0  0
    7.8359  -11.9869   19.5434 C   0  0  0  0  0  0  0  0  0  0  0  0
    6.5460  -12.9915   20.2870 S   0  0  0  0  0  0  0  0  0  0  0  0
    7.1202  -14.6051   20.8748 C   0  0  0  0  0  0  0  0  0  0  0  0
    8.4393  -14.5375   21.5319 C   0  0  0  0  0  0  0  0  0  0  0  0
    9.0561  -15.8044   22.0301 C   0  0  2  0  0  0  0  0  0  0  0  0
    8.2419  -16.9704   22.0087 N   0  0  0  0  0  0  0  0  0  0  0  0
    9.5925  -15.5901   23.3870 C   0  0  0  0  0  0  0  0  0  0  0  0
   10.1551  -14.4967   23.6446 O   0  0  0  0  0  0  0  0  0  0  0  0
    9.4827  -16.5783   24.3795 N   0  0  0  0  0  0  0  0  0  0  0  0
   10.1029  -16.3635   25.6706 C   0  0  1  0  0  0  0  0  0  0  0  0
    9.0404  -16.4844   26.7437 C   0  0  0  0  0  0  0  0  0  0  0  0
    7.9091  -15.6089   26.3614 C   0  0  0  0  0  0  0  0  0  0  0  0
    6.6959  -15.9819   25.8348 C   0  0  0  0  0  0  0  0  0  0  0  0
    5.9570  -14.8729   25.6328 N   0  0  0  0  0  0  0  0  0  0  0  0
    6.6715  -13.8005   26.0189 C   0  0  0  0  0  0  0  0  0  0  0  0
    6.3496  -12.4417   26.0094 C   0  0  0  0  0  0  0  0  0  0  0  0
    7.2613  -11.5290   26.4620 C   0  0  0  0  0  0  0  0  0  0  0  0
    8.4926  -11.9402   26.9263 C   0  0  0  0  0  0  0  0  0  0  0  0
    8.7871  -13.2798   26.9264 C   0  0  0  0  0  0  0  0  0  0  0  0
    7.9014  -14.2405   26.4800 C   0  0  0  0  0  0  0  0  0  0  0  0
   11.1551  -17.4005   25.9238 C   0  0  0  0  0  0  0  0  0  0  0  0
   11.3823  -18.3064   25.1093 O   0  0  0  0  0  0  0  0  0  0  0  0
   11.8859  -17.3331   27.1041 O   0  0  0  0  0  0  0  0  0  0  0  0
  1  2  1  0
  2  3  1  0
  3  4  1  6
  5  3  1  0
  5  6  1  6
  7  8  2  0
  7  5  1  0
  9 10  1  0
 11 10  1  0
 12 11  1  0
 13 12  1  1
 13 14  1  0
 14  7  1  0
 15 16  2  0
 15 13  1  0
 17 15  1  0
 18 17  1  0
 18 19  1  1
 19 20  1  0
 20 28  1  0
 20 21  2  0
 21 22  1  0
 23 22  1  0
 23 24  2  0
 25 24  1  0
 26 25  2  0
 27 28  2  0
 27 26  1  0
 28 23  1  0
 29 18  1  0
 30 29  2  0
 31 29  1  0
M  END
$$$$
