IMW.pdb
     RDKit          3D

 31 32  0  0  1  0  0  0  0  0999 V2000
    9.8825  -20.2994   16.6872 C   0  0  0  0  0  0  0  0  0  0  0  0
    8.8720  -19.2121   16.9827 C   0  0  0  0  0  0  0  0  0  0  0  0
    9.3405  -18.4831   18.2203 C   0  0  2  0  0  0  0  0  0  0  0  0
    9.6847  -19.4537   19.2994 C   0  0  0  0  0  0  0  0  0  0  0  0
    8.4371  -17.3707   18.6256 C   0  0  2  0  0  0  0  0  0  0  0  0
    8.2215  -16.5063   17.4841 N   0  0  0  0  0  0  0  0  0  0  0  0
    8.9784  -16.5476   19.7521 C   0  0  0  0  0  0  0  0  0  0  0  0
   10.0547  -15.9435   19.5954 O   0  0  0  0  0  0  0  0  0  0  0  0
    6.1676  -11.5513   24.4242 C   0  0  0  0  0  0  0  0  0  0  0  0
    6.8588  -13.2046   24.5464 S   0  0  0  0  0  0  0  0  0  0  0  0
    6.8579  -14.1174   22.9825 C   0  0  0  0  0  0  0  0  0  0  0  0
    7.5374  -15.4231   23.0828 C   0  0  0  0  0  0  0  0  0  0  0  0
    8.6401  -15.7313   22.1221 C   0  0  2  0  0  0  0  0  0  0  0  0
    8.2911  -16.4598   20.9515 N   0  0  0  0  0  0  0  0  0  0  0  0
    9.7351  -16.4167   22.8335 C   0  0  0  0  0  0  0  0  0  0  0  0
    9.9319  -17.6355   22.6011 O   0  0  0  0  0  0  0  0  0  0  0  0
   10.5484  -15.7332   23.7528 N   0  0  0  0  0  0  0  0  0  0  0  0
   11.2599  -16.4813   24.7685 C   0  0  1  0  0  0  0  0  0  0  0  0
   10.2517  -17.2462   25.6012 C   0  0  0  0  0  0  0  0  0  0  0  0
    9.4154  -16.2579   26.3199 C   0  0  0  0  0  0  0  0  0  0  0  0
    8.0464  -16.1399   26.3000 C   0  0  0  0  0  0  0  0  0  0  0  0
    7.6934  -15.1088   27.0931 N   0  0  0  0  0  0  0  0  0  0  0  0
    8.8066  -14.5664   27.6188 C   0  0  0  0  0  0  0  0  0  0  0  0
    8.9682  -13.4891   28.4926 C   0  0  0  0  0  0  0  0  0  0  0  0
   10.2246  -13.1243   28.8892 C   0  0  0  0  0  0  0  0  0  0  0  0
   11.3298  -13.8112   28.4334 C   0  0  0  0  0  0  0  0  0  0  0  0
   11.1473  -14.8660   27.5759 C   0  0  0  0  0  0  0  0  0  0  0  0
    9.9000  -15.2734   27.1460 C   0  0  0  0  0  0  0  0  0  0  0  0
   12.1961  -17.4646   24.1333 C   0  0  0  0  0  0  0  0  0  0  0  0
   11.7967  -18.3056   23.3156 O   0  0  0  0  0  0  0  0  0  0  0  0
   13.5418  -17.4213   24.4787 O   0  0  0  0  0  0  0  0  0  0  0  0
  1  2  1  0
  2  3  1  0
  3  4  1  1
  5  3  1  0
  5  6  1  6
  7  8  2  0
  7  5  1  0
  9 10  1  0
 11 10  1  0
 12 11  1  0
 13 12  1  1
 13 14  1  0
 14  7  1  0
 15 16  2  0
 15 13  1  0
 17 15  1  0
 18 17  1  0
 18 19  1  6
 19 20  1  0
 20 28  1  0
 20 21  2  0
 21 22  1  0
 23 22  1  0
 23 24  2  0
 25 24  1  0
 26 25  2  0
 27 28  2  0
 27 26  1  0
 28 23  1  0
 29 18  1  0
 30 29  2  0
 31 29  1  0
M  END
$$$$
