IMW.pdb
     RDKit          3D

 31 32  0  0  1  0  0  0  0  0999 V2000
    8.2071  -11.7719   18.7970 C   0  0  0  0  0  0  0  0  0  0  0  0
    8.4333  -13.2455   18.5361 C   0  0  0  0  0  0  0  0  0  0  0  0
    8.1639  -13.9804   19.8283 C   0  0  2  0  0  0  0  0  0  0  0  0
    8.9111  -13.3486   20.9542 C   0  0  0  0  0  0  0  0  0  0  0  0
    8.3169  -15.4571   19.7086 C   0  0  2  0  0  0  0  0  0  0  0  0
    7.5257  -15.9178   18.5869 N   0  0  0  0  0  0  0  0  0  0  0  0
    7.8852  -16.1992   20.9342 C   0  0  0  0  0  0  0  0  0  0  0  0
    6.6759  -16.2329   21.2250 O   0  0  0  0  0  0  0  0  0  0  0  0
    6.2494  -21.1661   24.3580 C   0  0  0  0  0  0  0  0  0  0  0  0
    7.1248  -21.2824   22.7940 S   0  0  0  0  0  0  0  0  0  0  0  0
    7.6340  -19.6818   22.1176 C   0  0  0  0  0  0  0  0  0  0  0  0
    8.6121  -18.9846   22.9743 C   0  0  0  0  0  0  0  0  0  0  0  0
    8.6190  -17.4901   22.9820 C   0  0  2  0  0  0  0  0  0  0  0  0
    8.8183  -16.8393   21.7331 N   0  0  0  0  0  0  0  0  0  0  0  0
    9.6076  -17.0077   23.9642 C   0  0  0  0  0  0  0  0  0  0  0  0
   10.7870  -16.8076   23.5803 O   0  0  0  0  0  0  0  0  0  0  0  0
    9.2516  -16.7722   25.3026 N   0  0  0  0  0  0  0  0  0  0  0  0
   10.2883  -16.5201   26.2820 C   0  0  1  0  0  0  0  0  0  0  0  0
    9.8955  -15.3077   27.1010 C   0  0  0  0  0  0  0  0  0  0  0  0
    8.4537  -15.0566   26.8752 C   0  0  0  0  0  0  0  0  0  0  0  0
    7.4400  -15.9810   26.7969 C   0  0  0  0  0  0  0  0  0  0  0  0
    6.2803  -15.3284   26.5824 N   0  0  0  0  0  0  0  0  0  0  0  0
    6.5315  -14.0082   26.5223 C   0  0  0  0  0  0  0  0  0  0  0  0
    5.6710  -12.9270   26.3202 C   0  0  0  0  0  0  0  0  0  0  0  0
    6.1763  -11.6568   26.3008 C   0  0  0  0  0  0  0  0  0  0  0  0
    7.5257  -11.4372   26.4789 C   0  0  0  0  0  0  0  0  0  0  0  0
    8.3520  -12.5141   26.6757 C   0  0  0  0  0  0  0  0  0  0  0  0
    7.8912  -13.8154   26.7038 C   0  0  0  0  0  0  0  0  0  0  0  0
   10.4308  -17.6921   27.2054 C   0  0  0  0  0  0  0  0  0  0  0  0
    9.6511  -18.6541   27.1577 O   0  0  0  0  0  0  0  0  0  0  0  0
   11.4663  -17.6872   28.1326 O   0  0  0  0  0  0  0  0  0  0  0  0
  1  2  1  0
  2  3  1  0
  3  4  1  1
  5  3  1  0
  5  6  1  6
  7  8  2  0
  7  5  1  0
  9 10  1  0
 11 10  1  0
 12 11  1  0
 13 12  1  6
 13 14  1  0
 14  7  1  0
 15 16  2  0
 15 13  1  0
 17 15  1  0
 18 17  1  0
 18 19  1  1
 19 20  1  0
 20 28  1  0
 20 21  2  0
 21 22  1  0
 23 22  1  0
 23 24  2  0
 25 24  1  0
 26 25  2  0
 27 28  2  0
 27 26  1  0
 28 23  1  0
 29 18  1  0
 30 29  2  0
 31 29  1  0
M  END
$$$$
