AIH.pdb
     RDKit          3D

 24 24  0  0  1  0  0  0  0  0999 V2000
   13.6437  -14.0105  -14.8596 C   0  0  0  0  0  0  0  0  0  0  0  0
   15.0434  -14.3514  -15.3029 C   0  0  2  0  0  0  0  0  0  0  0  0
   15.3007  -15.7225  -14.9898 N   0  0  0  0  0  0  0  0  0  0  0  0
   16.0195  -13.4372  -14.5993 C   0  0  0  0  0  0  0  0  0  0  0  0
   16.4629  -13.7373  -13.4639 O   0  0  0  0  0  0  0  0  0  0  0  0
   19.9485  -11.4469  -17.7039 C   0  0  0  0  0  0  0  0  0  0  0  0
   19.1922  -11.9113  -16.4689 C   0  0  0  0  0  0  0  0  0  0  0  0
   18.3776  -10.8503  -15.8456 C   0  0  2  0  0  0  0  0  0  0  0  0
   19.3465   -9.8129  -15.2502 C   0  0  0  0  0  0  0  0  0  0  0  0
   17.3954  -11.3026  -14.7949 C   0  0  2  0  0  0  0  0  0  0  0  0
   16.4164  -12.2452  -15.2485 N   0  0  0  0  0  0  0  0  0  0  0  0
   16.7340  -10.1744  -14.1163 C   0  0  0  0  0  0  0  0  0  0  0  0
   15.8935   -9.4476  -14.7032 O   0  0  0  0  0  0  0  0  0  0  0  0
   17.0537   -9.9013  -12.7661 N   0  0  0  0  0  0  0  0  0  0  0  0
   16.4121   -8.7644  -12.1136 C   0  0  1  0  0  0  0  0  0  0  0  0
   16.2810   -9.0499  -10.6295 C   0  0  0  0  0  0  0  0  0  0  0  0
   15.7505   -7.8666   -9.9198 C   0  0  0  0  0  0  0  0  0  0  0  0
   15.3541   -6.6336  -10.3735 C   0  0  0  0  0  0  0  0  0  0  0  0
   14.9514   -5.8762   -9.3305 N   0  0  0  0  0  0  0  0  0  0  0  0
   15.0889   -6.6199   -8.2127 C   0  0  0  0  0  0  0  0  0  0  0  0
   15.5682   -7.8114   -8.5730 N   0  0  0  0  0  0  0  0  0  0  0  0
   17.1423   -7.5172  -12.4061 C   0  0  0  0  0  0  0  0  0  0  0  0
   18.4192   -7.5187  -12.3724 O   0  0  0  0  0  0  0  0  0  0  0  0
   16.5239   -6.3266  -12.7208 O   0  0  0  0  0  0  0  0  0  0  0  0
  2  4  1  0
  2  1  1  1
  2  3  1  0
  4  5  2  0
  6  7  1  0
  7  8  1  0
  8 10  1  0
  8  9  1  1
 10 12  1  0
 10 11  1  6
 11  4  1  0
 12 13  2  0
 12 14  1  0
 14 15  1  0
 15 22  1  0
 15 16  1  1
 17 16  1  0
 17 18  2  0
 19 18  1  0
 20 19  1  0
 21 20  2  0
 21 17  1  0
 22 23  2  0
 22 24  1  0
M  END
$$$$
