AIH.pdb
     RDKit          3D

 24 24  0  0  1  0  0  0  0  0999 V2000
   33.4977  -13.0117  -19.1961 C   0  0  0  0  0  0  0  0  0  0  0  0
   32.3196  -13.8841  -18.8455 C   0  0  2  0  0  0  0  0  0  0  0  0
   32.2447  -14.9530  -19.7920 N   0  0  0  0  0  0  0  0  0  0  0  0
   31.0623  -13.0460  -18.8663 C   0  0  0  0  0  0  0  0  0  0  0  0
   30.5930  -12.6350  -19.9556 O   0  0  0  0  0  0  0  0  0  0  0  0
   27.0928  -14.2317  -15.1919 C   0  0  0  0  0  0  0  0  0  0  0  0
   27.8100  -13.7543  -16.4451 C   0  0  0  0  0  0  0  0  0  0  0  0
   28.3603  -12.3905  -16.3233 C   0  0  2  0  0  0  0  0  0  0  0  0
   27.1715  -11.4231  -16.1807 C   0  0  0  0  0  0  0  0  0  0  0  0
   29.2620  -11.9392  -17.4444 C   0  0  2  0  0  0  0  0  0  0  0  0
   30.4344  -12.7400  -17.6367 N   0  0  0  0  0  0  0  0  0  0  0  0
   29.6337  -10.5178  -17.3337 C   0  0  0  0  0  0  0  0  0  0  0  0
   30.5743  -10.1336  -16.5942 O   0  0  0  0  0  0  0  0  0  0  0  0
   28.9118   -9.5582  -18.0806 N   0  0  0  0  0  0  0  0  0  0  0  0
   29.5005   -8.2366  -18.2722 C   0  0  1  0  0  0  0  0  0  0  0  0
   30.8366   -8.3829  -18.9753 C   0  0  0  0  0  0  0  0  0  0  0  0
   31.3932   -7.0551  -19.3104 C   0  0  0  0  0  0  0  0  0  0  0  0
   30.8815   -6.0092  -20.0367 C   0  0  0  0  0  0  0  0  0  0  0  0
   31.7807   -5.0023  -20.0742 N   0  0  0  0  0  0  0  0  0  0  0  0
   32.8643   -5.4004  -19.3752 C   0  0  0  0  0  0  0  0  0  0  0  0
   32.6255   -6.6313  -18.9203 N   0  0  0  0  0  0  0  0  0  0  0  0
   28.5618   -7.3473  -18.9810 C   0  0  0  0  0  0  0  0  0  0  0  0
   27.7472   -7.8473  -19.8284 O   0  0  0  0  0  0  0  0  0  0  0  0
   28.5047   -5.9848  -18.7836 O   0  0  0  0  0  0  0  0  0  0  0  0
  2  4  1  0
  2  1  1  6
  2  3  1  0
  4  5  2  0
  6  7  1  0
  7  8  1  0
  8 10  1  0
  8  9  1  6
 10 12  1  0
 10 11  1  1
 11  4  1  0
 12 13  2  0
 12 14  1  0
 14 15  1  0
 15 22  1  0
 15 16  1  6
 17 16  1  0
 17 18  2  0
 19 18  1  0
 20 19  1  0
 21 20  2  0
 21 17  1  0
 22 23  2  0
 22 24  1  0
M  END
$$$$
