AIH.pdb
     RDKit          3D

 24 24  0  0  1  0  0  0  0  0999 V2000
   27.7671  -19.4436  -15.0195 C   0  0  0  0  0  0  0  0  0  0  0  0
   28.1966  -20.6309  -14.1960 C   0  0  2  0  0  0  0  0  0  0  0  0
   28.6121  -21.6743  -15.0807 N   0  0  0  0  0  0  0  0  0  0  0  0
   27.0397  -21.0752  -13.3314 C   0  0  0  0  0  0  0  0  0  0  0  0
   26.2275  -21.9346  -13.7526 O   0  0  0  0  0  0  0  0  0  0  0  0
   27.6882  -20.0005   -7.8352 C   0  0  0  0  0  0  0  0  0  0  0  0
   27.3161  -20.7199   -9.1223 C   0  0  0  0  0  0  0  0  0  0  0  0
   26.0625  -20.2302   -9.7275 C   0  0  2  0  0  0  0  0  0  0  0  0
   24.9048  -20.6700   -8.8132 C   0  0  0  0  0  0  0  0  0  0  0  0
   25.7970  -20.6703  -11.1450 C   0  0  2  0  0  0  0  0  0  0  0  0
   26.8979  -20.5019  -12.0464 N   0  0  0  0  0  0  0  0  0  0  0  0
   24.5830  -20.0556  -11.7099 C   0  0  0  0  0  0  0  0  0  0  0  0
   24.6205  -18.9667  -12.3361 O   0  0  0  0  0  0  0  0  0  0  0  0
   23.3401  -20.7090  -11.5431 N   0  0  0  0  0  0  0  0  0  0  0  0
   22.2848  -20.4606  -12.5201 C   0  0  1  0  0  0  0  0  0  0  0  0
   22.7304  -20.9728  -13.8767 C   0  0  0  0  0  0  0  0  0  0  0  0
   21.6867  -20.7216  -14.8930 C   0  0  0  0  0  0  0  0  0  0  0  0
   20.4583  -20.1158  -14.8074 C   0  0  0  0  0  0  0  0  0  0  0  0
   19.8584  -20.1376  -16.0172 N   0  0  0  0  0  0  0  0  0  0  0  0
   20.6981  -20.7546  -16.8748 C   0  0  0  0  0  0  0  0  0  0  0  0
   21.7917  -21.1020  -16.1948 N   0  0  0  0  0  0  0  0  0  0  0  0
   21.0086  -21.0434  -12.0662 C   0  0  0  0  0  0  0  0  0  0  0  0
   21.0263  -22.0668  -11.3021 O   0  0  0  0  0  0  0  0  0  0  0  0
   19.7735  -20.5448  -12.4192 O   0  0  0  0  0  0  0  0  0  0  0  0
  2  4  1  0
  2  1  1  6
  2  3  1  0
  4  5  2  0
  6  7  1  0
  7  8  1  0
  8 10  1  0
  8  9  1  1
 10 12  1  0
 10 11  1  6
 11  4  1  0
 12 13  2  0
 12 14  1  0
 14 15  1  0
 15 22  1  0
 15 16  1  6
 17 16  1  0
 17 18  2  0
 19 18  1  0
 20 19  1  0
 21 20  2  0
 21 17  1  0
 22 23  2  0
 22 24  1  0
M  END
$$$$
