AIH.pdb
     RDKit          3D

 24 24  0  0  1  0  0  0  0  0999 V2000
   20.7740  -22.2156  -14.3196 C   0  0  0  0  0  0  0  0  0  0  0  0
   21.1224  -21.3704  -13.1212 C   0  0  2  0  0  0  0  0  0  0  0  0
   20.1345  -20.3463  -12.9815 N   0  0  0  0  0  0  0  0  0  0  0  0
   22.4990  -20.7791  -13.3187 C   0  0  0  0  0  0  0  0  0  0  0  0
   22.6387  -19.6862  -13.9201 O   0  0  0  0  0  0  0  0  0  0  0  0
   25.8862  -21.4109   -9.1122 C   0  0  0  0  0  0  0  0  0  0  0  0
   25.2659  -20.7996  -10.3589 C   0  0  0  0  0  0  0  0  0  0  0  0
   25.7844  -21.3745  -11.6152 C   0  0  2  0  0  0  0  0  0  0  0  0
   27.2333  -20.8832  -11.7853 C   0  0  0  0  0  0  0  0  0  0  0  0
   24.9871  -21.0723  -12.8587 C   0  0  2  0  0  0  0  0  0  0  0  0
   23.6156  -21.4839  -12.8123 N   0  0  0  0  0  0  0  0  0  0  0  0
   25.6283  -21.5882  -14.0808 C   0  0  0  0  0  0  0  0  0  0  0  0
   25.8202  -22.8170  -14.2612 O   0  0  0  0  0  0  0  0  0  0  0  0
   26.0396  -20.6753  -15.0793 N   0  0  0  0  0  0  0  0  0  0  0  0
   26.6525  -21.2008  -16.2951 C   0  0  1  0  0  0  0  0  0  0  0  0
   26.3028  -20.2958  -17.4613 C   0  0  0  0  0  0  0  0  0  0  0  0
   24.8490  -20.3320  -17.7265 C   0  0  0  0  0  0  0  0  0  0  0  0
   23.9993  -21.3724  -18.0071 C   0  0  0  0  0  0  0  0  0  0  0  0
   22.7477  -20.8981  -18.1865 N   0  0  0  0  0  0  0  0  0  0  0  0
   22.7943  -19.5594  -18.0218 C   0  0  0  0  0  0  0  0  0  0  0  0
   24.0563  -19.2268  -17.7465 N   0  0  0  0  0  0  0  0  0  0  0  0
   28.1043  -21.3799  -16.1098 C   0  0  0  0  0  0  0  0  0  0  0  0
   28.7258  -22.2306  -16.8321 O   0  0  0  0  0  0  0  0  0  0  0  0
   28.8492  -20.6740  -15.1901 O   0  0  0  0  0  0  0  0  0  0  0  0
  2  4  1  0
  2  1  1  6
  2  3  1  0
  4  5  2  0
  6  7  1  0
  7  8  1  0
  8 10  1  0
  8  9  1  6
 10 12  1  0
 10 11  1  1
 11  4  1  0
 12 13  2  0
 12 14  1  0
 14 15  1  0
 15 22  1  0
 15 16  1  6
 17 16  1  0
 17 18  2  0
 19 18  1  0
 20 19  1  0
 21 20  2  0
 21 17  1  0
 22 23  2  0
 22 24  1  0
M  END
$$$$
