AIH.pdb
     RDKit          3D

 24 24  0  0  1  0  0  0  0  0999 V2000
   19.4365  -12.3593  -19.8440 C   0  0  0  0  0  0  0  0  0  0  0  0
   20.2491  -13.0577  -18.7838 C   0  0  2  0  0  0  0  0  0  0  0  0
   19.5593  -14.2459  -18.3882 N   0  0  0  0  0  0  0  0  0  0  0  0
   20.4410  -12.1213  -17.6135 C   0  0  0  0  0  0  0  0  0  0  0  0
   19.4551  -11.7502  -16.9307 O   0  0  0  0  0  0  0  0  0  0  0  0
   25.3390  -12.6110  -14.9805 C   0  0  0  0  0  0  0  0  0  0  0  0
   23.8674  -12.4123  -15.3090 C   0  0  0  0  0  0  0  0  0  0  0  0
   23.5381  -11.0335  -15.7190 C   0  0  2  0  0  0  0  0  0  0  0  0
   23.8040  -10.1160  -14.5119 C   0  0  0  0  0  0  0  0  0  0  0  0
   22.1390  -10.8142  -16.2363 C   0  0  2  0  0  0  0  0  0  0  0  0
   21.7494  -11.6781  -17.3108 N   0  0  0  0  0  0  0  0  0  0  0  0
   21.8843   -9.4093  -16.5999 C   0  0  0  0  0  0  0  0  0  0  0  0
   22.4734   -8.8557  -17.5620 O   0  0  0  0  0  0  0  0  0  0  0  0
   20.9504   -8.6622  -15.8453 N   0  0  0  0  0  0  0  0  0  0  0  0
   20.6742   -7.2855  -16.2430 C   0  0  1  0  0  0  0  0  0  0  0  0
   19.6786   -7.2871  -17.3876 C   0  0  0  0  0  0  0  0  0  0  0  0
   19.3751   -5.9038  -17.8114 C   0  0  0  0  0  0  0  0  0  0  0  0
   20.1552   -4.9377  -18.3956 C   0  0  0  0  0  0  0  0  0  0  0  0
   19.4235   -3.8182  -18.5830 N   0  0  0  0  0  0  0  0  0  0  0  0
   18.1797   -4.0650  -18.1210 C   0  0  0  0  0  0  0  0  0  0  0  0
   18.1576   -5.3164  -17.6600 N   0  0  0  0  0  0  0  0  0  0  0  0
   20.2306   -6.4888  -15.0843 C   0  0  0  0  0  0  0  0  0  0  0  0
   19.6192   -7.0693  -14.1247 O   0  0  0  0  0  0  0  0  0  0  0  0
   20.4380   -5.1316  -14.9668 O   0  0  0  0  0  0  0  0  0  0  0  0
  2  4  1  0
  2  1  1  6
  2  3  1  0
  4  5  2  0
  6  7  1  0
  7  8  1  0
  8 10  1  0
  8  9  1  1
 10 12  1  0
 10 11  1  6
 11  4  1  0
 12 13  2  0
 12 14  1  0
 14 15  1  0
 15 22  1  0
 15 16  1  6
 17 16  1  0
 17 18  2  0
 19 18  1  0
 20 19  1  0
 21 20  2  0
 21 17  1  0
 22 23  2  0
 22 24  1  0
M  END
$$$$
