AIH.pdb
     RDKit          3D

 24 24  0  0  1  0  0  0  0  0999 V2000
   17.3955  -13.8768  -17.9984 C   0  0  0  0  0  0  0  0  0  0  0  0
   18.8541  -14.0360  -17.6534 C   0  0  2  0  0  0  0  0  0  0  0  0
   19.0922  -15.3987  -17.2922 N   0  0  0  0  0  0  0  0  0  0  0  0
   19.1966  -13.1010  -16.5168 C   0  0  0  0  0  0  0  0  0  0  0  0
   18.6702  -13.2567  -15.3879 O   0  0  0  0  0  0  0  0  0  0  0  0
   24.1691  -10.7445  -14.1656 C   0  0  0  0  0  0  0  0  0  0  0  0
   22.7022  -10.4665  -14.4545 C   0  0  0  0  0  0  0  0  0  0  0  0
   22.1151  -11.3848  -15.4494 C   0  0  2  0  0  0  0  0  0  0  0  0
   22.9763  -11.2994  -16.7224 C   0  0  0  0  0  0  0  0  0  0  0  0
   20.6651  -11.1508  -15.7899 C   0  0  2  0  0  0  0  0  0  0  0  0
   20.1178  -12.0552  -16.7570 N   0  0  0  0  0  0  0  0  0  0  0  0
   20.3960   -9.7589  -16.1910 C   0  0  0  0  0  0  0  0  0  0  0  0
   20.7944   -9.2961  -17.2894 O   0  0  0  0  0  0  0  0  0  0  0  0
   19.6689   -8.9194  -15.3157 N   0  0  0  0  0  0  0  0  0  0  0  0
   19.4230   -7.5382  -15.7176 C   0  0  1  0  0  0  0  0  0  0  0  0
   18.0177   -7.1417  -15.3064 C   0  0  0  0  0  0  0  0  0  0  0  0
   17.7338   -5.7485  -15.7109 C   0  0  0  0  0  0  0  0  0  0  0  0
   18.3654   -4.9092  -16.5941 C   0  0  0  0  0  0  0  0  0  0  0  0
   17.7338   -3.7156  -16.6137 N   0  0  0  0  0  0  0  0  0  0  0  0
   16.7020   -3.7889  -15.7470 C   0  0  0  0  0  0  0  0  0  0  0  0
   16.7077   -5.0096  -15.2095 N   0  0  0  0  0  0  0  0  0  0  0  0
   20.4639   -6.6458  -15.1752 C   0  0  0  0  0  0  0  0  0  0  0  0
   20.9029   -6.8452  -13.9924 O   0  0  0  0  0  0  0  0  0  0  0  0
   21.0055   -5.5902  -15.8762 O   0  0  0  0  0  0  0  0  0  0  0  0
  2  4  1  0
  2  1  1  1
  2  3  1  0
  4  5  2  0
  6  7  1  0
  7  8  1  0
  8 10  1  0
  8  9  1  6
 10 12  1  0
 10 11  1  6
 11  4  1  0
 12 13  2  0
 12 14  1  0
 14 15  1  0
 15 22  1  0
 15 16  1  1
 17 16  1  0
 17 18  2  0
 19 18  1  0
 20 19  1  0
 21 20  2  0
 21 17  1  0
 22 23  2  0
 22 24  1  0
M  END
$$$$
