AIH.pdb
     RDKit          3D

 24 24  0  0  1  0  0  0  0  0999 V2000
   17.4596  -12.5917  -17.8742 C   0  0  0  0  0  0  0  0  0  0  0  0
   18.6524  -13.2922  -17.2754 C   0  0  2  0  0  0  0  0  0  0  0  0
   18.2063  -14.4942  -16.6427 N   0  0  0  0  0  0  0  0  0  0  0  0
   19.3205  -12.3678  -16.2842 C   0  0  0  0  0  0  0  0  0  0  0  0
   18.7526  -12.0827  -15.2016 O   0  0  0  0  0  0  0  0  0  0  0  0
   24.6974  -12.7960  -15.2722 C   0  0  0  0  0  0  0  0  0  0  0  0
   23.2034  -12.5169  -15.2170 C   0  0  0  0  0  0  0  0  0  0  0  0
   22.8323  -11.1960  -15.7603 C   0  0  2  0  0  0  0  0  0  0  0  0
   23.5397  -10.1290  -14.9056 C   0  0  0  0  0  0  0  0  0  0  0  0
   21.3551  -10.9030  -15.8337 C   0  0  2  0  0  0  0  0  0  0  0  0
   20.5913  -11.8373  -16.6060 N   0  0  0  0  0  0  0  0  0  0  0  0
   21.0730   -9.5279  -16.2811 C   0  0  0  0  0  0  0  0  0  0  0  0
   21.3862   -9.1265  -17.4300 O   0  0  0  0  0  0  0  0  0  0  0  0
   20.4315   -8.6339  -15.3928 N   0  0  0  0  0  0  0  0  0  0  0  0
   20.1674   -7.2714  -15.8443 C   0  0  1  0  0  0  0  0  0  0  0  0
   18.7073   -6.9397  -15.6013 C   0  0  0  0  0  0  0  0  0  0  0  0
   17.8521   -7.5971  -16.6121 C   0  0  0  0  0  0  0  0  0  0  0  0
   18.1590   -8.2554  -17.7765 C   0  0  0  0  0  0  0  0  0  0  0  0
   17.0218   -8.6758  -18.3712 N   0  0  0  0  0  0  0  0  0  0  0  0
   15.9901   -8.2890  -17.5920 C   0  0  0  0  0  0  0  0  0  0  0  0
   16.4946   -7.6432  -16.5396 N   0  0  0  0  0  0  0  0  0  0  0  0
   21.0964   -6.3223  -15.2036 C   0  0  0  0  0  0  0  0  0  0  0  0
   21.0811   -5.0961  -15.5610 O   0  0  0  0  0  0  0  0  0  0  0  0
   21.9973   -6.6795  -14.2240 O   0  0  0  0  0  0  0  0  0  0  0  0
  2  4  1  0
  2  1  1  1
  2  3  1  0
  4  5  2  0
  6  7  1  0
  7  8  1  0
  8 10  1  0
  8  9  1  1
 10 12  1  0
 10 11  1  6
 11  4  1  0
 12 13  2  0
 12 14  1  0
 14 15  1  0
 15 22  1  0
 15 16  1  1
 17 16  1  0
 17 18  2  0
 19 18  1  0
 20 19  1  0
 21 20  2  0
 21 17  1  0
 22 23  2  0
 22 24  1  0
M  END
$$$$
