AIH.pdb
     RDKit          3D

 24 24  0  0  1  0  0  0  0  0999 V2000
   43.2672  -10.0180   -4.6196 C   0  0  0  0  0  0  0  0  0  0  0  0
   43.0902  -10.7538   -5.9231 C   0  0  2  0  0  0  0  0  0  0  0  0
   44.3808  -11.0068   -6.4840 N   0  0  0  0  0  0  0  0  0  0  0  0
   42.2451   -9.9137   -6.8524 C   0  0  0  0  0  0  0  0  0  0  0  0
   42.7882   -9.1954   -7.7270 O   0  0  0  0  0  0  0  0  0  0  0  0
   37.3500  -11.8498   -8.7224 C   0  0  0  0  0  0  0  0  0  0  0  0
   38.6805  -11.1377   -8.5335 C   0  0  0  0  0  0  0  0  0  0  0  0
   38.5778   -9.9051   -7.7285 C   0  0  2  0  0  0  0  0  0  0  0  0
   37.6035   -8.9592   -8.4533 C   0  0  0  0  0  0  0  0  0  0  0  0
   39.8752   -9.1916   -7.4443 C   0  0  2  0  0  0  0  0  0  0  0  0
   40.8387   -9.9581   -6.7115 N   0  0  0  0  0  0  0  0  0  0  0  0
   39.6713   -7.8842   -6.7962 C   0  0  0  0  0  0  0  0  0  0  0  0
   39.6548   -7.7588   -5.5460 O   0  0  0  0  0  0  0  0  0  0  0  0
   39.4890   -6.7376   -7.6036 N   0  0  0  0  0  0  0  0  0  0  0  0
   39.7997   -5.4290   -7.0371 C   0  0  1  0  0  0  0  0  0  0  0  0
   41.2494   -5.4101   -6.5910 C   0  0  0  0  0  0  0  0  0  0  0  0
   41.5838   -4.1095   -5.9730 C   0  0  0  0  0  0  0  0  0  0  0  0
   40.8412   -3.2471   -5.2062 C   0  0  0  0  0  0  0  0  0  0  0  0
   41.5893   -2.1698   -4.8844 N   0  0  0  0  0  0  0  0  0  0  0  0
   42.8062   -2.3403   -5.4425 C   0  0  0  0  0  0  0  0  0  0  0  0
   42.7961   -3.5045   -6.0933 N   0  0  0  0  0  0  0  0  0  0  0  0
   39.4690   -4.3567   -7.9937 C   0  0  0  0  0  0  0  0  0  0  0  0
   39.6166   -3.1380   -7.6410 O   0  0  0  0  0  0  0  0  0  0  0  0
   39.0026   -4.5890   -9.2694 O   0  0  0  0  0  0  0  0  0  0  0  0
  2  4  1  0
  2  1  1  1
  2  3  1  0
  4  5  2  0
  6  7  1  0
  7  8  1  0
  8 10  1  0
  8  9  1  6
 10 12  1  0
 10 11  1  1
 11  4  1  0
 12 13  2  0
 12 14  1  0
 14 15  1  0
 15 22  1  0
 15 16  1  6
 17 16  1  0
 17 18  2  0
 19 18  1  0
 20 19  1  0
 21 20  2  0
 21 17  1  0
 22 23  2  0
 22 24  1  0
M  END
$$$$
