AIH.pdb
     RDKit          3D

 24 24  0  0  1  0  0  0  0  0999 V2000
   17.8656  -11.5209  -15.3505 C   0  0  0  0  0  0  0  0  0  0  0  0
   16.8337  -10.5931  -15.9391 C   0  0  2  0  0  0  0  0  0  0  0  0
   16.1758  -11.2655  -17.0158 N   0  0  0  0  0  0  0  0  0  0  0  0
   17.5188   -9.3341  -16.4176 C   0  0  0  0  0  0  0  0  0  0  0  0
   18.1542   -9.3309  -17.5001 O   0  0  0  0  0  0  0  0  0  0  0  0
   14.8588   -4.7102  -16.7000 C   0  0  0  0  0  0  0  0  0  0  0  0
   15.9023   -5.8023  -16.8761 C   0  0  0  0  0  0  0  0  0  0  0  0
   16.9887   -5.7429  -15.8791 C   0  0  2  0  0  0  0  0  0  0  0  0
   17.7202   -4.4022  -16.0715 C   0  0  0  0  0  0  0  0  0  0  0  0
   17.9779   -6.8803  -15.9111 C   0  0  2  0  0  0  0  0  0  0  0  0
   17.4257   -8.1699  -15.6200 N   0  0  0  0  0  0  0  0  0  0  0  0
   19.1542   -6.6307  -15.0599 C   0  0  0  0  0  0  0  0  0  0  0  0
   19.0749   -6.6168  -13.8058 O   0  0  0  0  0  0  0  0  0  0  0  0
   20.4085   -6.4002  -15.6709 N   0  0  0  0  0  0  0  0  0  0  0  0
   21.5767   -6.2122  -14.8164 C   0  0  1  0  0  0  0  0  0  0  0  0
   22.7155   -7.0712  -15.3324 C   0  0  0  0  0  0  0  0  0  0  0  0
   22.3675   -8.5047  -15.2356 C   0  0  0  0  0  0  0  0  0  0  0  0
   22.4088   -9.3834  -14.1823 C   0  0  0  0  0  0  0  0  0  0  0  0
   21.9999  -10.6026  -14.5946 N   0  0  0  0  0  0  0  0  0  0  0  0
   21.6977  -10.5065  -15.9064 C   0  0  0  0  0  0  0  0  0  0  0  0
   21.9202   -9.2468  -16.2841 N   0  0  0  0  0  0  0  0  0  0  0  0
   21.9227   -4.7824  -14.7161 C   0  0  0  0  0  0  0  0  0  0  0  0
   21.6708   -4.0085  -15.7006 O   0  0  0  0  0  0  0  0  0  0  0  0
   22.5109   -4.2154  -13.6065 O   0  0  0  0  0  0  0  0  0  0  0  0
  2  4  1  0
  2  1  1  6
  2  3  1  0
  4  5  2  0
  6  7  1  0
  7  8  1  0
  8 10  1  0
  8  9  1  6
 10 12  1  0
 10 11  1  1
 11  4  1  0
 12 13  2  0
 12 14  1  0
 14 15  1  0
 15 22  1  0
 15 16  1  6
 17 16  1  0
 17 18  2  0
 19 18  1  0
 20 19  1  0
 21 20  2  0
 21 17  1  0
 22 23  2  0
 22 24  1  0
M  END
$$$$
