AIH.pdb
     RDKit          3D

 24 24  0  0  1  0  0  0  0  0999 V2000
   24.1803  -20.3913  -19.1713 C   0  0  0  0  0  0  0  0  0  0  0  0
   25.0062  -20.2021  -17.9247 C   0  0  2  0  0  0  0  0  0  0  0  0
   25.1647  -21.4707  -17.2847 N   0  0  0  0  0  0  0  0  0  0  0  0
   24.3097  -19.2148  -17.0173 C   0  0  0  0  0  0  0  0  0  0  0  0
   23.4128  -19.6024  -16.2292 O   0  0  0  0  0  0  0  0  0  0  0  0
   27.1267  -14.2729  -16.0761 C   0  0  0  0  0  0  0  0  0  0  0  0
   26.1485  -15.2563  -16.6997 C   0  0  0  0  0  0  0  0  0  0  0  0
   25.2017  -15.8384  -15.7289 C   0  0  2  0  0  0  0  0  0  0  0  0
   26.0301  -16.5584  -14.6497 C   0  0  0  0  0  0  0  0  0  0  0  0
   24.1662  -16.7759  -16.2965 C   0  0  2  0  0  0  0  0  0  0  0  0
   24.6919  -17.8547  -17.0793 N   0  0  0  0  0  0  0  0  0  0  0  0
   23.1165  -16.0691  -17.0509 C   0  0  0  0  0  0  0  0  0  0  0  0
   23.1988  -15.8881  -18.2917 O   0  0  0  0  0  0  0  0  0  0  0  0
   21.9838  -15.5804  -16.3596 N   0  0  0  0  0  0  0  0  0  0  0  0
   20.9952  -14.8041  -17.1013 C   0  0  1  0  0  0  0  0  0  0  0  0
   19.6552  -14.8997  -16.3967 C   0  0  0  0  0  0  0  0  0  0  0  0
   18.6266  -14.1371  -17.1353 C   0  0  0  0  0  0  0  0  0  0  0  0
   18.3986  -13.9797  -18.4794 C   0  0  0  0  0  0  0  0  0  0  0  0
   17.3348  -13.1691  -18.6655 N   0  0  0  0  0  0  0  0  0  0  0  0
   16.8823  -12.8079  -17.4464 C   0  0  0  0  0  0  0  0  0  0  0  0
   17.6609  -13.3914  -16.5341 N   0  0  0  0  0  0  0  0  0  0  0  0
   21.4584  -13.4170  -17.2896 C   0  0  0  0  0  0  0  0  0  0  0  0
   22.0181  -12.8080  -16.3162 O   0  0  0  0  0  0  0  0  0  0  0  0
   21.3248  -12.7215  -18.4718 O   0  0  0  0  0  0  0  0  0  0  0  0
  2  4  1  0
  2  1  1  6
  2  3  1  0
  4  5  2  0
  6  7  1  0
  7  8  1  0
  8 10  1  0
  8  9  1  1
 10 12  1  0
 10 11  1  6
 11  4  1  0
 12 13  2  0
 12 14  1  0
 14 15  1  0
 15 22  1  0
 15 16  1  1
 17 16  1  0
 17 18  2  0
 19 18  1  0
 20 19  1  0
 21 20  2  0
 21 17  1  0
 22 23  2  0
 22 24  1  0
M  END
$$$$
