MMA.pdb
     RDKit          3D

 22 21  0  0  1  0  0  0  0  0999 V2000
    8.1164  -11.7980   19.3367 C   0  0  0  0  0  0  0  0  0  0  0  0
    7.1390  -13.1180   18.5389 S   0  0  0  0  0  0  0  0  0  0  0  0
    7.5871  -14.7223   19.2994 C   0  0  0  0  0  0  0  0  0  0  0  0
    8.7324  -14.5047   20.2697 C   0  0  0  0  0  0  0  0  0  0  0  0
    8.9833  -15.8176   20.9784 C   0  0  2  0  0  0  0  0  0  0  0  0
    7.8340  -16.6836   20.9188 N   0  0  0  0  0  0  0  0  0  0  0  0
    9.2798  -15.5102   22.4020 C   0  0  0  0  0  0  0  0  0  0  0  0
   10.3665  -15.0385   22.7996 O   0  0  0  0  0  0  0  0  0  0  0  0
    6.8622  -11.6562   27.7077 C   0  0  0  0  0  0  0  0  0  0  0  0
    7.4462  -12.6938   26.3662 S   0  0  0  0  0  0  0  0  0  0  0  0
    7.0415  -14.4331   26.5861 C   0  0  0  0  0  0  0  0  0  0  0  0
    6.9623  -15.1858   25.2710 C   0  0  0  0  0  0  0  0  0  0  0  0
    8.3824  -15.1619   24.7131 C   0  0  2  0  0  0  0  0  0  0  0  0
    8.2762  -15.7636   23.3744 N   0  0  0  0  0  0  0  0  0  0  0  0
    9.3367  -15.8897   25.5382 C   0  0  0  0  0  0  0  0  0  0  0  0
    9.7529  -15.3941   26.6105 O   0  0  0  0  0  0  0  0  0  0  0  0
   12.0513  -17.2084   26.0857 C   0  0  0  0  0  0  0  0  0  0  0  0
   10.7338  -17.9465   25.9590 C   0  0  2  0  0  0  0  0  0  0  0  0
    9.8151  -17.1639   25.1550 N   0  0  0  0  0  0  0  0  0  0  0  0
   10.1931  -18.1517   27.3041 C   0  0  0  0  0  0  0  0  0  0  0  0
   10.9035  -18.8431   28.2888 O   0  0  0  0  0  0  0  0  0  0  0  0
    9.0533  -17.6925   27.5869 O   0  0  0  0  0  0  0  0  0  0  0  0
  1  2  1  0
  3  2  1  0
  4  3  1  0
  5  4  1  0
  5  6  1  1
  7  5  1  0
  8  7  2  0
  9 10  1  0
 11 10  1  0
 12 11  1  0
 13 12  1  1
 13 14  1  0
 14  7  1  0
 15 13  1  0
 15 19  1  0
 16 15  2  0
 18 17  1  1
 18 19  1  0
 18 20  1  0
 20 21  1  0
 22 20  2  0
M  END
$$$$
