MMA.pdb
     RDKit          3D

 22 21  0  0  1  0  0  0  0  0999 V2000
    8.0368  -18.5206   19.8442 C   0  0  0  0  0  0  0  0  0  0  0  0
    7.6953  -17.4107   18.4351 S   0  0  0  0  0  0  0  0  0  0  0  0
    7.3311  -15.7364   19.0807 C   0  0  0  0  0  0  0  0  0  0  0  0
    7.3780  -15.7719   20.5963 C   0  0  0  0  0  0  0  0  0  0  0  0
    7.1104  -14.3678   21.0923 C   0  0  2  0  0  0  0  0  0  0  0  0
    7.5350  -13.3756   20.1384 N   0  0  0  0  0  0  0  0  0  0  0  0
    7.8775  -14.1825   22.3517 C   0  0  0  0  0  0  0  0  0  0  0  0
    8.9453  -13.5376   22.4269 O   0  0  0  0  0  0  0  0  0  0  0  0
    6.8050  -10.4725   27.0412 C   0  0  0  0  0  0  0  0  0  0  0  0
    7.5142  -12.1147   26.9077 S   0  0  0  0  0  0  0  0  0  0  0  0
    6.5132  -13.2427   25.9264 C   0  0  0  0  0  0  0  0  0  0  0  0
    7.0753  -14.6518   25.9009 C   0  0  0  0  0  0  0  0  0  0  0  0
    8.1320  -14.6385   24.8003 C   0  0  2  0  0  0  0  0  0  0  0  0
    7.3762  -14.7684   23.5444 N   0  0  0  0  0  0  0  0  0  0  0  0
    9.1130  -15.7071   24.9319 C   0  0  0  0  0  0  0  0  0  0  0  0
    9.8110  -15.8008   25.9675 O   0  0  0  0  0  0  0  0  0  0  0  0
   10.0403  -18.7015   22.8302 C   0  0  0  0  0  0  0  0  0  0  0  0
   10.2496  -17.7534   23.9938 C   0  0  2  0  0  0  0  0  0  0  0  0
    9.3024  -16.6590   23.9037 N   0  0  0  0  0  0  0  0  0  0  0  0
   11.6232  -17.2505   23.9330 C   0  0  0  0  0  0  0  0  0  0  0  0
   11.9066  -15.8933   23.7605 O   0  0  0  0  0  0  0  0  0  0  0  0
   12.5821  -18.0626   24.0392 O   0  0  0  0  0  0  0  0  0  0  0  0
  1  2  1  0
  3  2  1  0
  4  3  1  0
  5  4  1  0
  5  6  1  6
  7  5  1  0
  8  7  2  0
  9 10  1  0
 11 10  1  0
 12 11  1  0
 13 12  1  1
 13 14  1  0
 14  7  1  0
 15 13  1  0
 15 19  1  0
 16 15  2  0
 18 17  1  6
 18 19  1  0
 18 20  1  0
 20 21  1  0
 22 20  2  0
M  END
$$$$
