MMA.pdb
     RDKit          3D

 22 21  0  0  1  0  0  0  0  0999 V2000
    8.2111  -11.5350   19.1657 C   0  0  0  0  0  0  0  0  0  0  0  0
    7.1462  -12.8020   18.3945 S   0  0  0  0  0  0  0  0  0  0  0  0
    7.2657  -14.3450   19.3732 C   0  0  0  0  0  0  0  0  0  0  0  0
    8.6934  -14.5120   19.8571 C   0  0  0  0  0  0  0  0  0  0  0  0
    8.7458  -15.7726   20.6922 C   0  0  2  0  0  0  0  0  0  0  0  0
    7.4933  -16.4832   20.6635 N   0  0  0  0  0  0  0  0  0  0  0  0
    9.0385  -15.3715   22.0931 C   0  0  0  0  0  0  0  0  0  0  0  0
   10.1257  -14.8782   22.4623 O   0  0  0  0  0  0  0  0  0  0  0  0
    7.4168  -12.1408   28.5564 C   0  0  0  0  0  0  0  0  0  0  0  0
    7.0196  -12.5779   26.8628 S   0  0  0  0  0  0  0  0  0  0  0  0
    7.3408  -14.3067   26.4817 C   0  0  0  0  0  0  0  0  0  0  0  0
    7.0308  -14.6545   25.0377 C   0  0  0  0  0  0  0  0  0  0  0  0
    8.3197  -15.2591   24.4887 C   0  0  2  0  0  0  0  0  0  0  0  0
    8.0306  -15.5555   23.0766 N   0  0  0  0  0  0  0  0  0  0  0  0
    8.7398  -16.4595   25.1985 C   0  0  0  0  0  0  0  0  0  0  0  0
    7.8876  -17.2658   25.6370 O   0  0  0  0  0  0  0  0  0  0  0  0
   12.0528  -18.1473   25.7577 C   0  0  0  0  0  0  0  0  0  0  0  0
   10.5806  -17.9522   26.0600 C   0  0  2  0  0  0  0  0  0  0  0  0
   10.1083  -16.7450   25.4101 N   0  0  0  0  0  0  0  0  0  0  0  0
   10.4212  -17.8505   27.5118 C   0  0  0  0  0  0  0  0  0  0  0  0
   10.0009  -16.6692   28.1283 O   0  0  0  0  0  0  0  0  0  0  0  0
   10.6691  -18.8561   28.2310 O   0  0  0  0  0  0  0  0  0  0  0  0
  1  2  1  0
  3  2  1  0
  4  3  1  0
  5  4  1  0
  5  6  1  1
  7  5  1  0
  8  7  2  0
  9 10  1  0
 11 10  1  0
 12 11  1  0
 13 12  1  1
 13 14  1  0
 14  7  1  0
 15 13  1  0
 15 19  1  0
 16 15  2  0
 18 17  1  1
 18 19  1  0
 18 20  1  0
 20 21  1  0
 22 20  2  0
M  END
$$$$
