MMA.pdb
     RDKit          3D

 22 21  0  0  1  0  0  0  0  0999 V2000
    8.4393  -12.4582   18.2941 C   0  0  0  0  0  0  0  0  0  0  0  0
    7.1725  -12.4722   19.6090 S   0  0  0  0  0  0  0  0  0  0  0  0
    7.4196  -13.9601   20.6472 C   0  0  0  0  0  0  0  0  0  0  0  0
    8.8550  -14.4284   20.5032 C   0  0  0  0  0  0  0  0  0  0  0  0
    8.9978  -15.7074   21.2988 C   0  0  2  0  0  0  0  0  0  0  0  0
    7.7730  -16.4650   21.3143 N   0  0  0  0  0  0  0  0  0  0  0  0
    9.3480  -15.3320   22.6936 C   0  0  0  0  0  0  0  0  0  0  0  0
   10.3959  -14.7285   23.0089 O   0  0  0  0  0  0  0  0  0  0  0  0
    5.8928  -12.2960   27.4759 C   0  0  0  0  0  0  0  0  0  0  0  0
    7.2688  -12.0026   26.3633 S   0  0  0  0  0  0  0  0  0  0  0  0
    7.4267  -13.2572   25.0833 C   0  0  0  0  0  0  0  0  0  0  0  0
    7.4490  -14.6664   25.6454 C   0  0  0  0  0  0  0  0  0  0  0  0
    8.7433  -15.2826   25.1226 C   0  0  2  0  0  0  0  0  0  0  0  0
    8.4459  -15.6745   23.7357 N   0  0  0  0  0  0  0  0  0  0  0  0
    9.1917  -16.4274   25.9036 C   0  0  0  0  0  0  0  0  0  0  0  0
    9.2740  -16.3489   27.1508 O   0  0  0  0  0  0  0  0  0  0  0  0
    9.7677  -20.0556   25.1471 C   0  0  0  0  0  0  0  0  0  0  0  0
    9.9573  -18.8275   26.0146 C   0  0  2  0  0  0  0  0  0  0  0  0
    9.5431  -17.6472   25.2810 N   0  0  0  0  0  0  0  0  0  0  0  0
   11.3731  -18.7371   26.3766 C   0  0  0  0  0  0  0  0  0  0  0  0
   11.9844  -19.6774   27.2100 O   0  0  0  0  0  0  0  0  0  0  0  0
   12.0651  -17.7846   25.9252 O   0  0  0  0  0  0  0  0  0  0  0  0
  1  2  1  0
  3  2  1  0
  4  3  1  0
  5  4  1  0
  5  6  1  1
  7  5  1  0
  8  7  2  0
  9 10  1  0
 11 10  1  0
 12 11  1  0
 13 12  1  1
 13 14  1  0
 14  7  1  0
 15 13  1  0
 15 19  1  0
 16 15  2  0
 18 17  1  6
 18 19  1  0
 18 20  1  0
 20 21  1  0
 22 20  2  0
M  END
$$$$
