MMA.pdb
     RDKit          3D

 22 21  0  0  1  0  0  0  0  0999 V2000
   10.5056  -15.4233   30.3127 C   0  0  0  0  0  0  0  0  0  0  0  0
   11.2569  -17.0800   30.1552 S   0  0  0  0  0  0  0  0  0  0  0  0
   10.1356  -18.1428   29.1724 C   0  0  0  0  0  0  0  0  0  0  0  0
    9.5398  -17.3208   28.0456 C   0  0  0  0  0  0  0  0  0  0  0  0
    8.4996  -18.1782   27.3584 C   0  0  2  0  0  0  0  0  0  0  0  0
    9.0754  -19.3810   26.8141 N   0  0  0  0  0  0  0  0  0  0  0  0
    7.9202  -17.3779   26.2480 C   0  0  0  0  0  0  0  0  0  0  0  0
    7.2942  -17.8737   25.2868 O   0  0  0  0  0  0  0  0  0  0  0  0
    4.5520  -11.1459   26.4363 C   0  0  0  0  0  0  0  0  0  0  0  0
    6.1231  -11.2788   25.5811 S   0  0  0  0  0  0  0  0  0  0  0  0
    6.4541  -12.9338   24.9575 C   0  0  0  0  0  0  0  0  0  0  0  0
    7.3503  -13.7380   25.8808 C   0  0  0  0  0  0  0  0  0  0  0  0
    7.4048  -15.1334   25.2658 C   0  0  2  0  0  0  0  0  0  0  0  0
    8.0821  -15.9672   26.2717 N   0  0  0  0  0  0  0  0  0  0  0  0
    8.1118  -15.1737   23.9930 C   0  0  0  0  0  0  0  0  0  0  0  0
    7.6979  -14.5050   23.0183 O   0  0  0  0  0  0  0  0  0  0  0  0
   11.5132  -15.8747   22.9046 C   0  0  0  0  0  0  0  0  0  0  0  0
   10.0361  -16.0056   22.5917 C   0  0  2  0  0  0  0  0  0  0  0  0
    9.2738  -15.9614   23.8244 N   0  0  0  0  0  0  0  0  0  0  0  0
    9.8256  -17.2801   21.9025 C   0  0  0  0  0  0  0  0  0  0  0  0
   10.3838  -17.5436   20.6490 O   0  0  0  0  0  0  0  0  0  0  0  0
    9.1208  -18.1692   22.4527 O   0  0  0  0  0  0  0  0  0  0  0  0
  1  2  1  0
  3  2  1  0
  4  3  1  0
  5  4  1  0
  5  6  1  6
  7  5  1  0
  8  7  2  0
  9 10  1  0
 11 10  1  0
 12 11  1  0
 13 12  1  1
 13 14  1  0
 14  7  1  0
 15 13  1  0
 15 19  1  0
 16 15  2  0
 18 17  1  1
 18 19  1  0
 18 20  1  0
 20 21  1  0
 22 20  2  0
M  END
$$$$
