MMA.pdb
     RDKit          3D

 22 21  0  0  1  0  0  0  0  0999 V2000
    8.3415  -11.5712   19.2590 C   0  0  0  0  0  0  0  0  0  0  0  0
    7.5672  -12.7982   18.1505 S   0  0  0  0  0  0  0  0  0  0  0  0
    7.7040  -14.4542   18.9199 C   0  0  0  0  0  0  0  0  0  0  0  0
    8.5099  -14.3377   20.1995 C   0  0  0  0  0  0  0  0  0  0  0  0
    8.6599  -15.7307   20.7706 C   0  0  2  0  0  0  0  0  0  0  0  0
    7.4316  -16.4778   20.6829 N   0  0  0  0  0  0  0  0  0  0  0  0
    9.0362  -15.5914   22.2017 C   0  0  0  0  0  0  0  0  0  0  0  0
   10.2142  -15.4781   22.6029 O   0  0  0  0  0  0  0  0  0  0  0  0
    7.8145  -12.1199   28.5394 C   0  0  0  0  0  0  0  0  0  0  0  0
    7.4264  -12.5928   26.8533 S   0  0  0  0  0  0  0  0  0  0  0  0
    7.3814  -14.3747   26.6081 C   0  0  0  0  0  0  0  0  0  0  0  0
    7.0288  -14.7601   25.1835 C   0  0  0  0  0  0  0  0  0  0  0  0
    8.3255  -15.2963   24.5841 C   0  0  2  0  0  0  0  0  0  0  0  0
    8.0043  -15.5855   23.1774 N   0  0  0  0  0  0  0  0  0  0  0  0
    8.8231  -16.4860   25.2610 C   0  0  0  0  0  0  0  0  0  0  0  0
    8.0411  -17.4177   25.5593 O   0  0  0  0  0  0  0  0  0  0  0  0
   12.2225  -17.9075   25.8827 C   0  0  0  0  0  0  0  0  0  0  0  0
   10.7469  -17.8088   26.2140 C   0  0  2  0  0  0  0  0  0  0  0  0
   10.1900  -16.6207   25.5967 N   0  0  0  0  0  0  0  0  0  0  0  0
   10.6083  -17.7446   27.6701 C   0  0  0  0  0  0  0  0  0  0  0  0
   10.1255  -16.6042   28.3171 O   0  0  0  0  0  0  0  0  0  0  0  0
   10.9326  -18.7457   28.3649 O   0  0  0  0  0  0  0  0  0  0  0  0
  1  2  1  0
  3  2  1  0
  4  3  1  0
  5  4  1  0
  5  6  1  1
  7  5  1  0
  8  7  2  0
  9 10  1  0
 11 10  1  0
 12 11  1  0
 13 12  1  1
 13 14  1  0
 14  7  1  0
 15 13  1  0
 15 19  1  0
 16 15  2  0
 18 17  1  1
 18 19  1  0
 18 20  1  0
 20 21  1  0
 22 20  2  0
M  END
$$$$
