KPY.pdb
     RDKit          3D

 29 30  0  0  1  0  0  0  0  0999 V2000
   11.1154  -17.0043   17.9283 N   0  0  0  0  0  0  0  0  0  0  0  0
    9.7350  -16.8289   18.3222 C   0  0  1  0  0  0  0  0  0  0  0  0
    9.0966  -18.1659   18.4935 C   0  0  0  0  0  0  0  0  0  0  0  0
    9.0066  -19.0549   17.3242 C   0  0  0  0  0  0  0  0  0  0  0  0
    8.2833  -20.3416   17.5491 C   0  0  0  0  0  0  0  0  0  0  0  0
    8.4027  -21.2559   16.3180 C   0  0  0  0  0  0  0  0  0  0  0  0
    7.0599  -21.3710   15.7837 N   0  0  0  0  0  0  0  0  0  0  0  0
    9.7045  -16.0910   19.6165 C   0  0  0  0  0  0  0  0  0  0  0  0
   10.7171  -16.1442   20.3499 O   0  0  0  0  0  0  0  0  0  0  0  0
    8.5933  -15.3292   20.0686 N   0  0  0  0  0  0  0  0  0  0  0  0
    7.3216  -15.1075   19.4017 C   0  0  0  0  0  0  0  0  0  0  0  0
    7.0885  -13.6306   19.7386 C   0  0  0  0  0  0  0  0  0  0  0  0
    7.3496  -13.6700   21.2361 C   0  0  0  0  0  0  0  0  0  0  0  0
    8.5349  -14.6044   21.3176 C   0  0  1  0  0  0  0  0  0  0  0  0
    8.2921  -15.5248   22.4691 C   0  0  0  0  0  0  0  0  0  0  0  0
    7.7669  -16.6402   22.2252 O   0  0  0  0  0  0  0  0  0  0  0  0
    5.6441  -10.7448   26.8504 O   0  0  0  0  0  0  0  0  0  0  0  0
    6.4199  -11.8760   26.6866 C   0  0  0  0  0  0  0  0  0  0  0  0
    5.9105  -13.1052   27.0100 C   0  0  0  0  0  0  0  0  0  0  0  0
    6.6559  -14.2438   26.8583 C   0  0  0  0  0  0  0  0  0  0  0  0
    7.9545  -14.1601   26.3677 C   0  0  0  0  0  0  0  0  0  0  0  0
    8.7299  -15.4108   26.2261 C   0  0  0  0  0  0  0  0  0  0  0  0
    8.4427  -16.1271   24.9185 C   0  0  2  0  0  0  0  0  0  0  0  0
    8.6190  -15.2056   23.7929 N   0  0  0  0  0  0  0  0  0  0  0  0
    7.0609  -16.6512   24.8402 C   0  0  0  0  0  0  0  0  0  0  0  0
    6.6918  -17.8149   25.5025 O   0  0  0  0  0  0  0  0  0  0  0  0
    8.4658  -12.9218   26.0429 C   0  0  0  0  0  0  0  0  0  0  0  0
    7.6977  -11.7710   26.2015 C   0  0  0  0  0  0  0  0  0  0  0  0
    6.1524  -16.0780   24.1761 O   0  0  0  0  0  0  0  0  0  0  0  0
  2  1  1  1
  3  4  1  0
  3  2  1  0
  5  4  1  0
  6  5  1  0
  7  6  1  0
  8  2  1  0
  8 10  1  0
  9  8  2  0
 10 14  1  0
 11 12  1  0
 11 10  1  0
 12 13  1  0
 14 13  1  0
 14 15  1  1
 15 16  2  0
 17 18  1  0
 18 28  2  0
 19 18  1  0
 19 20  2  0
 20 21  1  0
 21 27  2  0
 21 22  1  0
 23 22  1  1
 23 25  1  0
 24 15  1  0
 24 23  1  0
 25 26  1  0
 28 27  1  0
 29 25  2  0
M  END
$$$$
