KPY.pdb
     RDKit          3D

 29 30  0  0  1  0  0  0  0  0999 V2000
   10.6010  -17.3092   17.9885 N   0  0  0  0  0  0  0  0  0  0  0  0
    9.3287  -17.2818   18.6753 C   0  0  1  0  0  0  0  0  0  0  0  0
    9.0778  -18.6111   19.3036 C   0  0  0  0  0  0  0  0  0  0  0  0
   10.1102  -19.1745   20.1881 C   0  0  0  0  0  0  0  0  0  0  0  0
    9.6009  -19.9303   21.3708 C   0  0  0  0  0  0  0  0  0  0  0  0
   10.7597  -20.3413   22.2948 C   0  0  0  0  0  0  0  0  0  0  0  0
   10.1460  -21.0457   23.4034 N   0  0  0  0  0  0  0  0  0  0  0  0
    9.3860  -16.2325   19.7317 C   0  0  0  0  0  0  0  0  0  0  0  0
   10.5114  -15.8613   20.1340 O   0  0  0  0  0  0  0  0  0  0  0  0
    8.2381  -15.6267   20.3104 N   0  0  0  0  0  0  0  0  0  0  0  0
    6.8411  -15.8340   19.9691 C   0  0  0  0  0  0  0  0  0  0  0  0
    6.3155  -14.3985   20.0789 C   0  0  0  0  0  0  0  0  0  0  0  0
    6.8868  -14.0247   21.4375 C   0  0  0  0  0  0  0  0  0  0  0  0
    8.2609  -14.6517   21.3769 C   0  0  1  0  0  0  0  0  0  0  0  0
    8.5084  -15.2995   22.7003 C   0  0  0  0  0  0  0  0  0  0  0  0
    8.1015  -16.4779   22.8594 O   0  0  0  0  0  0  0  0  0  0  0  0
   10.7500  -16.5087   31.1235 O   0  0  0  0  0  0  0  0  0  0  0  0
   10.4398  -15.9246   29.9107 C   0  0  0  0  0  0  0  0  0  0  0  0
    9.8344  -16.6658   28.9315 C   0  0  0  0  0  0  0  0  0  0  0  0
    9.5152  -16.1140   27.7196 C   0  0  0  0  0  0  0  0  0  0  0  0
    9.8073  -14.7774   27.4698 C   0  0  0  0  0  0  0  0  0  0  0  0
    9.4547  -14.2207   26.1465 C   0  0  0  0  0  0  0  0  0  0  0  0
    9.3987  -15.2850   25.0650 C   0  0  2  0  0  0  0  0  0  0  0  0
    9.1655  -14.6615   23.7597 N   0  0  0  0  0  0  0  0  0  0  0  0
    8.3126  -16.2672   25.2790 C   0  0  0  0  0  0  0  0  0  0  0  0
    8.5743  -17.5337   25.7855 O   0  0  0  0  0  0  0  0  0  0  0  0
   10.4171  -14.0327   28.4567 C   0  0  0  0  0  0  0  0  0  0  0  0
   10.7367  -14.6054   29.6853 C   0  0  0  0  0  0  0  0  0  0  0  0
    7.1036  -16.0126   25.0168 O   0  0  0  0  0  0  0  0  0  0  0  0
  2  1  1  1
  3  4  1  0
  3  2  1  0
  5  4  1  0
  6  5  1  0
  7  6  1  0
  8  2  1  0
  8 10  1  0
  9  8  2  0
 10 14  1  0
 11 12  1  0
 11 10  1  0
 12 13  1  0
 14 13  1  0
 14 15  1  1
 15 16  2  0
 17 18  1  0
 18 28  2  0
 19 18  1  0
 19 20  2  0
 20 21  1  0
 21 27  2  0
 21 22  1  0
 23 22  1  1
 23 25  1  0
 24 15  1  0
 24 23  1  0
 25 26  1  0
 28 27  1  0
 29 25  2  0
M  END
$$$$
