KPY.pdb
     RDKit          3D

 29 30  0  0  1  0  0  0  0  0999 V2000
    9.8651  -18.0643   17.9991 N   0  0  0  0  0  0  0  0  0  0  0  0
    9.4803  -18.8736   19.1341 C   0  0  1  0  0  0  0  0  0  0  0  0
   10.6547  -19.6697   19.5940 C   0  0  0  0  0  0  0  0  0  0  0  0
   11.8702  -19.6695   18.7644 C   0  0  0  0  0  0  0  0  0  0  0  0
   13.0010  -20.4968   19.2805 C   0  0  0  0  0  0  0  0  0  0  0  0
   14.2134  -20.4104   18.3381 C   0  0  0  0  0  0  0  0  0  0  0  0
   15.2696  -21.1608   18.9886 N   0  0  0  0  0  0  0  0  0  0  0  0
    9.0313  -17.9674   20.2285 C   0  0  0  0  0  0  0  0  0  0  0  0
    9.4573  -16.7907   20.2320 O   0  0  0  0  0  0  0  0  0  0  0  0
    8.1472  -18.3593   21.2697 N   0  0  0  0  0  0  0  0  0  0  0  0
    7.5835  -19.6737   21.5261 C   0  0  0  0  0  0  0  0  0  0  0  0
    6.1590  -19.2862   21.9380 C   0  0  0  0  0  0  0  0  0  0  0  0
    6.4776  -18.2048   22.9583 C   0  0  0  0  0  0  0  0  0  0  0  0
    7.6253  -17.4811   22.2921 C   0  0  1  0  0  0  0  0  0  0  0  0
    8.6468  -17.2088   23.3478 C   0  0  0  0  0  0  0  0  0  0  0  0
    9.4918  -18.1072   23.5890 O   0  0  0  0  0  0  0  0  0  0  0  0
    5.0382  -12.0534   27.2390 O   0  0  0  0  0  0  0  0  0  0  0  0
    6.2068  -12.5760   26.7199 C   0  0  0  0  0  0  0  0  0  0  0  0
    7.2588  -12.8528   27.5515 C   0  0  0  0  0  0  0  0  0  0  0  0
    8.4293  -13.3712   27.0657 C   0  0  0  0  0  0  0  0  0  0  0  0
    8.5613  -13.6245   25.7046 C   0  0  0  0  0  0  0  0  0  0  0  0
    9.8433  -14.1766   25.2178 C   0  0  0  0  0  0  0  0  0  0  0  0
    9.7854  -15.6789   25.0055 C   0  0  2  0  0  0  0  0  0  0  0  0
    8.7055  -16.0121   24.0727 N   0  0  0  0  0  0  0  0  0  0  0  0
    9.5277  -16.4278   26.2557 C   0  0  0  0  0  0  0  0  0  0  0  0
    8.3385  -17.1179   26.4515 O   0  0  0  0  0  0  0  0  0  0  0  0
    7.5012  -13.3451   24.8688 C   0  0  0  0  0  0  0  0  0  0  0  0
    6.3157  -12.8181   25.3751 C   0  0  0  0  0  0  0  0  0  0  0  0
   10.3630  -16.4807   27.2016 O   0  0  0  0  0  0  0  0  0  0  0  0
  2  1  1  6
  3  4  1  0
  3  2  1  0
  5  4  1  0
  6  5  1  0
  7  6  1  0
  8  2  1  0
  8 10  1  0
  9  8  2  0
 10 14  1  0
 11 12  1  0
 11 10  1  0
 12 13  1  0
 14 13  1  0
 14 15  1  1
 15 16  2  0
 17 18  1  0
 18 28  2  0
 19 18  1  0
 19 20  2  0
 20 21  1  0
 21 27  2  0
 21 22  1  0
 23 22  1  1
 23 25  1  0
 24 15  1  0
 24 23  1  0
 25 26  1  0
 28 27  1  0
 29 25  2  0
M  END
$$$$
