KPY.pdb
     RDKit          3D

 29 30  0  0  1  0  0  0  0  0999 V2000
   11.3503  -17.2845   18.8206 N   0  0  0  0  0  0  0  0  0  0  0  0
    9.9570  -17.3443   19.2035 C   0  0  1  0  0  0  0  0  0  0  0  0
    9.5814  -18.7608   19.4812 C   0  0  0  0  0  0  0  0  0  0  0  0
   10.6452  -19.7094   19.8473 C   0  0  0  0  0  0  0  0  0  0  0  0
   10.1982  -21.1122   20.0955 C   0  0  0  0  0  0  0  0  0  0  0  0
   11.3782  -21.9874   20.5506 C   0  0  0  0  0  0  0  0  0  0  0  0
   10.8205  -23.3044   20.7884 N   0  0  0  0  0  0  0  0  0  0  0  0
    9.7716  -16.5273   20.4358 C   0  0  0  0  0  0  0  0  0  0  0  0
   10.7855  -16.2377   21.1097 O   0  0  0  0  0  0  0  0  0  0  0  0
    8.5109  -16.0564   20.8925 N   0  0  0  0  0  0  0  0  0  0  0  0
    7.1956  -16.3144   20.3316 C   0  0  0  0  0  0  0  0  0  0  0  0
    6.5518  -14.9331   20.4944 C   0  0  0  0  0  0  0  0  0  0  0  0
    6.8964  -14.6651   21.9509 C   0  0  0  0  0  0  0  0  0  0  0  0
    8.3092  -15.1959   22.0359 C   0  0  1  0  0  0  0  0  0  0  0  0
    8.4170  -15.9588   23.3160 C   0  0  0  0  0  0  0  0  0  0  0  0
    8.1818  -17.1928   23.2825 O   0  0  0  0  0  0  0  0  0  0  0  0
    5.2377  -10.9488   26.4715 O   0  0  0  0  0  0  0  0  0  0  0  0
    6.1690  -11.9625   26.5876 C   0  0  0  0  0  0  0  0  0  0  0  0
    5.7525  -13.2531   26.7766 C   0  0  0  0  0  0  0  0  0  0  0  0
    6.6524  -14.2783   26.8951 C   0  0  0  0  0  0  0  0  0  0  0  0
    8.0158  -14.0136   26.8236 C   0  0  0  0  0  0  0  0  0  0  0  0
    8.9557  -15.1460   26.9643 C   0  0  0  0  0  0  0  0  0  0  0  0
    8.8803  -16.1119   25.7953 C   0  0  2  0  0  0  0  0  0  0  0  0
    8.7643  -15.3688   24.5377 N   0  0  0  0  0  0  0  0  0  0  0  0
    7.7150  -17.0209   25.8733 C   0  0  0  0  0  0  0  0  0  0  0  0
    6.6324  -16.8818   25.0145 O   0  0  0  0  0  0  0  0  0  0  0  0
    8.4333  -12.7137   26.6335 C   0  0  0  0  0  0  0  0  0  0  0  0
    7.5082  -11.6795   26.5143 C   0  0  0  0  0  0  0  0  0  0  0  0
    7.6405  -17.9610   26.7135 O   0  0  0  0  0  0  0  0  0  0  0  0
  2  1  1  1
  3  4  1  0
  3  2  1  0
  5  4  1  0
  6  5  1  0
  7  6  1  0
  8  2  1  0
  8 10  1  0
  9  8  2  0
 10 14  1  0
 11 12  1  0
 11 10  1  0
 12 13  1  0
 14 13  1  0
 14 15  1  1
 15 16  2  0
 17 18  1  0
 18 28  2  0
 19 18  1  0
 19 20  2  0
 20 21  1  0
 21 27  2  0
 21 22  1  0
 23 22  1  1
 23 25  1  0
 24 15  1  0
 24 23  1  0
 25 26  1  0
 28 27  1  0
 29 25  2  0
M  END
$$$$
