KPY.pdb
     RDKit          3D

 29 30  0  0  1  0  0  0  0  0999 V2000
    7.9411  -18.5179   19.1204 N   0  0  0  0  0  0  0  0  0  0  0  0
    7.1711  -17.4751   19.7616 C   0  0  1  0  0  0  0  0  0  0  0  0
    6.2427  -18.0869   20.7557 C   0  0  0  0  0  0  0  0  0  0  0  0
    6.7001  -19.2648   21.5100 C   0  0  0  0  0  0  0  0  0  0  0  0
    5.7437  -19.7852   22.5317 C   0  0  0  0  0  0  0  0  0  0  0  0
    6.3353  -21.0032   23.2611 C   0  0  0  0  0  0  0  0  0  0  0  0
    5.8321  -20.9295   24.6187 N   0  0  0  0  0  0  0  0  0  0  0  0
    8.1132  -16.5544   20.4582 C   0  0  0  0  0  0  0  0  0  0  0  0
    9.2156  -17.0120   20.8340 O   0  0  0  0  0  0  0  0  0  0  0  0
    7.8348  -15.1859   20.7216 N   0  0  0  0  0  0  0  0  0  0  0  0
    6.6026  -14.4546   20.4812 C   0  0  0  0  0  0  0  0  0  0  0  0
    7.1680  -13.1205   19.9813 C   0  0  0  0  0  0  0  0  0  0  0  0
    8.1972  -12.8600   21.0699 C   0  0  0  0  0  0  0  0  0  0  0  0
    8.7698  -14.2415   21.2894 C   0  0  1  0  0  0  0  0  0  0  0  0
    8.9067  -14.4324   22.7649 C   0  0  0  0  0  0  0  0  0  0  0  0
    8.1297  -13.7866   23.5124 O   0  0  0  0  0  0  0  0  0  0  0  0
    5.8919  -11.1123   27.0619 O   0  0  0  0  0  0  0  0  0  0  0  0
    6.6259  -12.2217   26.6894 C   0  0  0  0  0  0  0  0  0  0  0  0
    5.9995  -13.2886   26.1027 C   0  0  0  0  0  0  0  0  0  0  0  0
    6.7009  -14.4016   25.7229 C   0  0  0  0  0  0  0  0  0  0  0  0
    8.0745  -14.4584   25.9328 C   0  0  0  0  0  0  0  0  0  0  0  0
    8.7949  -15.6803   25.5166 C   0  0  0  0  0  0  0  0  0  0  0  0
   10.0916  -15.3708   24.7898 C   0  0  2  0  0  0  0  0  0  0  0  0
    9.8502  -15.2881   23.3469 N   0  0  0  0  0  0  0  0  0  0  0  0
   11.1301  -16.4042   24.9993 C   0  0  0  0  0  0  0  0  0  0  0  0
   11.7382  -16.5760   26.2361 O   0  0  0  0  0  0  0  0  0  0  0  0
    8.7035  -13.3834   26.5238 C   0  0  0  0  0  0  0  0  0  0  0  0
    7.9791  -12.2570   26.9055 C   0  0  0  0  0  0  0  0  0  0  0  0
   11.5165  -17.1771   24.0781 O   0  0  0  0  0  0  0  0  0  0  0  0
  2  1  1  1
  3  4  1  0
  3  2  1  0
  5  4  1  0
  6  5  1  0
  7  6  1  0
  8  2  1  0
  8 10  1  0
  9  8  2  0
 10 14  1  0
 11 12  1  0
 11 10  1  0
 12 13  1  0
 14 13  1  0
 14 15  1  1
 15 16  2  0
 17 18  1  0
 18 28  2  0
 19 18  1  0
 19 20  2  0
 20 21  1  0
 21 27  2  0
 21 22  1  0
 23 22  1  1
 23 25  1  0
 24 15  1  0
 24 23  1  0
 25 26  1  0
 28 27  1  0
 29 25  2  0
M  END
$$$$
