KPY.pdb
     RDKit          3D

 29 30  0  0  1  0  0  0  0  0999 V2000
    9.0675  -17.8477   17.8425 N   0  0  0  0  0  0  0  0  0  0  0  0
    8.0727  -17.1611   18.6364 C   0  0  1  0  0  0  0  0  0  0  0  0
    7.1854  -18.1647   19.2923 C   0  0  0  0  0  0  0  0  0  0  0  0
    6.6649  -19.2767   18.4810 C   0  0  0  0  0  0  0  0  0  0  0  0
    6.8073  -20.6348   19.0850 C   0  0  0  0  0  0  0  0  0  0  0  0
    6.1925  -21.7058   18.1681 C   0  0  0  0  0  0  0  0  0  0  0  0
    6.5462  -22.9801   18.7622 N   0  0  0  0  0  0  0  0  0  0  0  0
    8.7732  -16.3574   19.6775 C   0  0  0  0  0  0  0  0  0  0  0  0
    9.9100  -16.7302   20.0447 O   0  0  0  0  0  0  0  0  0  0  0  0
    8.2275  -15.1913   20.2790 N   0  0  0  0  0  0  0  0  0  0  0  0
    6.9192  -14.5959   20.0668 C   0  0  0  0  0  0  0  0  0  0  0  0
    7.2897  -13.1087   20.0740 C   0  0  0  0  0  0  0  0  0  0  0  0
    8.1279  -13.0645   21.3419 C   0  0  0  0  0  0  0  0  0  0  0  0
    8.9097  -14.3540   21.2394 C   0  0  1  0  0  0  0  0  0  0  0  0
    8.9130  -14.9766   22.5976 C   0  0  0  0  0  0  0  0  0  0  0  0
    7.9574  -15.7370   22.8942 O   0  0  0  0  0  0  0  0  0  0  0  0
    6.1526  -10.3660   26.9635 O   0  0  0  0  0  0  0  0  0  0  0  0
    6.7217  -11.5657   26.5825 C   0  0  0  0  0  0  0  0  0  0  0  0
    6.0022  -12.4528   25.8273 C   0  0  0  0  0  0  0  0  0  0  0  0
    6.5400  -13.6493   25.4348 C   0  0  0  0  0  0  0  0  0  0  0  0
    7.8395  -13.9781   25.8051 C   0  0  0  0  0  0  0  0  0  0  0  0
    8.3814  -15.2825   25.3689 C   0  0  0  0  0  0  0  0  0  0  0  0
    9.8352  -15.1933   24.9401 C   0  0  2  0  0  0  0  0  0  0  0  0
    9.9203  -14.7543   23.5447 N   0  0  0  0  0  0  0  0  0  0  0  0
   10.5438  -16.4892   25.0332 C   0  0  0  0  0  0  0  0  0  0  0  0
   10.7748  -17.0990   26.2595 O   0  0  0  0  0  0  0  0  0  0  0  0
    8.5624  -13.0840   26.5656 C   0  0  0  0  0  0  0  0  0  0  0  0
    8.0043  -11.8700   26.9584 C   0  0  0  0  0  0  0  0  0  0  0  0
   10.9724  -17.1049   24.0171 O   0  0  0  0  0  0  0  0  0  0  0  0
  2  1  1  1
  3  4  1  0
  3  2  1  0
  5  4  1  0
  6  5  1  0
  7  6  1  0
  8  2  1  0
  8 10  1  0
  9  8  2  0
 10 14  1  0
 11 12  1  0
 11 10  1  0
 12 13  1  0
 14 13  1  0
 14 15  1  1
 15 16  2  0
 17 18  1  0
 18 28  2  0
 19 18  1  0
 19 20  2  0
 20 21  1  0
 21 27  2  0
 21 22  1  0
 23 22  1  6
 23 25  1  0
 24 15  1  0
 24 23  1  0
 25 26  1  0
 28 27  1  0
 29 25  2  0
M  END
$$$$
