SYI.pdb
     RDKit          3D

 27 27  0  0  1  0  0  0  0  0999 V2000
    8.8757  -15.2090   18.9118 O   0  0  0  0  0  0  0  0  0  0  0  0
    9.2860  -16.4191   18.3335 C   0  0  0  0  0  0  0  0  0  0  0  0
    9.8711  -17.2695   19.4416 C   0  0  2  0  0  0  0  0  0  0  0  0
   10.1776  -18.5554   18.8924 N   0  0  0  0  0  0  0  0  0  0  0  0
    8.9523  -17.3959   20.5810 C   0  0  0  0  0  0  0  0  0  0  0  0
    7.8955  -18.0617   20.4518 O   0  0  0  0  0  0  0  0  0  0  0  0
   13.7818  -19.9407   24.7975 O   0  0  0  0  0  0  0  0  0  0  0  0
   12.4939  -19.5521   24.4605 C   0  0  0  0  0  0  0  0  0  0  0  0
   11.9247  -19.8796   23.2291 C   0  0  0  0  0  0  0  0  0  0  0  0
   10.6408  -19.4880   22.9021 C   0  0  0  0  0  0  0  0  0  0  0  0
    9.8942  -18.7570   23.8028 C   0  0  0  0  0  0  0  0  0  0  0  0
    8.5145  -18.3118   23.5093 C   0  0  0  0  0  0  0  0  0  0  0  0
    8.4839  -16.9066   23.0115 C   0  0  2  0  0  0  0  0  0  0  0  0
    9.2785  -16.7561   21.8220 N   0  0  0  0  0  0  0  0  0  0  0  0
    8.9573  -15.9280   24.0344 C   0  0  0  0  0  0  0  0  0  0  0  0
   10.1644  -15.5868   24.0553 O   0  0  0  0  0  0  0  0  0  0  0  0
   10.4481  -18.4299   25.0194 C   0  0  0  0  0  0  0  0  0  0  0  0
   11.7387  -18.8293   25.3358 C   0  0  0  0  0  0  0  0  0  0  0  0
    5.7911  -11.8484   25.4405 C   0  0  0  0  0  0  0  0  0  0  0  0
    6.9785  -12.7321   25.0664 C   0  0  0  0  0  0  0  0  0  0  0  0
    7.5948  -13.3560   26.2887 C   0  0  2  0  0  0  0  0  0  0  0  0
    8.0632  -12.2452   27.1991 C   0  0  0  0  0  0  0  0  0  0  0  0
    8.6405  -14.3359   25.8986 C   0  0  2  0  0  0  0  0  0  0  0  0
    8.1045  -15.3559   24.9960 N   0  0  0  0  0  0  0  0  0  0  0  0
    9.2502  -15.0081   27.0648 C   0  0  0  0  0  0  0  0  0  0  0  0
    8.8086  -16.1513   27.4567 O   0  0  0  0  0  0  0  0  0  0  0  0
   10.2986  -14.5236   27.8202 O   0  0  0  0  0  0  0  0  0  0  0  0
  2  1  1  0
  3  4  1  6
  3  2  1  0
  5  3  1  0
  6  5  2  0
  7  8  1  0
  8 18  2  0
  8  9  1  0
  9 10  2  0
 10 11  1  0
 11 12  1  0
 13 12  1  1
 13 14  1  0
 14  5  1  0
 15 24  1  0
 15 13  1  0
 16 15  2  0
 17 11  2  0
 18 17  1  0
 20 19  1  0
 21 20  1  0
 21 22  1  1
 23 21  1  0
 23 24  1  6
 25 23  1  0
 25 27  1  0
 26 25  2  0
M  END
$$$$
