SYI.pdb
     RDKit          3D

 27 27  0  0  1  0  0  0  0  0999 V2000
   12.2125  -18.9239   21.8860 O   0  0  0  0  0  0  0  0  0  0  0  0
   11.2543  -18.7596   20.8750 C   0  0  0  0  0  0  0  0  0  0  0  0
   11.2646  -17.2972   20.4815 C   0  0  2  0  0  0  0  0  0  0  0  0
   12.5777  -16.9794   20.0086 N   0  0  0  0  0  0  0  0  0  0  0  0
   10.8894  -16.4238   21.6017 C   0  0  0  0  0  0  0  0  0  0  0  0
   11.7579  -15.6840   22.1262 O   0  0  0  0  0  0  0  0  0  0  0  0
    5.9123  -11.7869   27.1346 O   0  0  0  0  0  0  0  0  0  0  0  0
    6.3214  -12.6710   26.1477 C   0  0  0  0  0  0  0  0  0  0  0  0
    6.0224  -14.0328   26.2093 C   0  0  0  0  0  0  0  0  0  0  0  0
    6.4342  -14.9061   25.2213 C   0  0  0  0  0  0  0  0  0  0  0  0
    7.1572  -14.4355   24.1448 C   0  0  0  0  0  0  0  0  0  0  0  0
    7.6231  -15.3222   23.0563 C   0  0  0  0  0  0  0  0  0  0  0  0
    9.0843  -15.6001   23.1603 C   0  0  2  0  0  0  0  0  0  0  0  0
    9.5367  -16.4313   22.0771 N   0  0  0  0  0  0  0  0  0  0  0  0
    9.4514  -16.2506   24.4527 C   0  0  0  0  0  0  0  0  0  0  0  0
    9.6660  -17.4862   24.4869 O   0  0  0  0  0  0  0  0  0  0  0  0
    7.4562  -13.0939   24.0763 C   0  0  0  0  0  0  0  0  0  0  0  0
    7.0368  -12.2271   25.0753 C   0  0  0  0  0  0  0  0  0  0  0  0
   10.5386  -12.9671   28.7482 C   0  0  0  0  0  0  0  0  0  0  0  0
   10.6505  -13.9695   27.6021 C   0  0  0  0  0  0  0  0  0  0  0  0
   10.1440  -15.3241   28.0169 C   0  0  2  0  0  0  0  0  0  0  0  0
   10.9977  -15.8156   29.1622 C   0  0  0  0  0  0  0  0  0  0  0  0
   10.0767  -16.2330   26.8442 C   0  0  2  0  0  0  0  0  0  0  0  0
    9.5719  -15.5374   25.6594 N   0  0  0  0  0  0  0  0  0  0  0  0
    9.2305  -17.4184   27.0943 C   0  0  0  0  0  0  0  0  0  0  0  0
    7.9796  -17.3956   26.7937 O   0  0  0  0  0  0  0  0  0  0  0  0
    9.6538  -18.6130   27.6403 O   0  0  0  0  0  0  0  0  0  0  0  0
  2  1  1  0
  3  4  1  1
  3  2  1  0
  5  3  1  0
  6  5  2  0
  7  8  1  0
  8 18  2  0
  8  9  1  0
  9 10  2  0
 10 11  1  0
 11 12  1  0
 13 12  1  1
 13 14  1  0
 14  5  1  0
 15 24  1  0
 15 13  1  0
 16 15  2  0
 17 11  2  0
 18 17  1  0
 20 19  1  0
 21 20  1  0
 21 22  1  1
 23 21  1  0
 23 24  1  6
 25 23  1  0
 25 27  1  0
 26 25  2  0
M  END
$$$$
