SYI.pdb
     RDKit          3D

 27 27  0  0  1  0  0  0  0  0999 V2000
   11.3697  -19.3283   21.8181 O   0  0  0  0  0  0  0  0  0  0  0  0
   12.0771  -18.6185   20.8369 C   0  0  0  0  0  0  0  0  0  0  0  0
   11.1939  -17.4728   20.3886 C   0  0  2  0  0  0  0  0  0  0  0  0
   11.8907  -16.7568   19.3636 N   0  0  0  0  0  0  0  0  0  0  0  0
   10.8447  -16.5798   21.5018 C   0  0  0  0  0  0  0  0  0  0  0  0
   11.6925  -15.7536   21.9205 O   0  0  0  0  0  0  0  0  0  0  0  0
    5.9141  -11.7424   26.8979 O   0  0  0  0  0  0  0  0  0  0  0  0
    6.3473  -12.6470   25.9401 C   0  0  0  0  0  0  0  0  0  0  0  0
    7.1047  -12.2466   24.8385 C   0  0  0  0  0  0  0  0  0  0  0  0
    7.5318  -13.1551   23.8894 C   0  0  0  0  0  0  0  0  0  0  0  0
    7.2098  -14.4900   24.0211 C   0  0  0  0  0  0  0  0  0  0  0  0
    7.6405  -15.5082   23.0383 C   0  0  0  0  0  0  0  0  0  0  0  0
    9.0997  -15.7947   23.1463 C   0  0  2  0  0  0  0  0  0  0  0  0
    9.5406  -16.6672   22.0913 N   0  0  0  0  0  0  0  0  0  0  0  0
    9.4667  -16.4025   24.4594 C   0  0  0  0  0  0  0  0  0  0  0  0
    9.4399  -17.6494   24.5955 O   0  0  0  0  0  0  0  0  0  0  0  0
    6.4633  -14.8932   25.1046 C   0  0  0  0  0  0  0  0  0  0  0  0
    6.0404  -13.9708   26.0509 C   0  0  0  0  0  0  0  0  0  0  0  0
   10.3789  -13.5745   29.3874 C   0  0  0  0  0  0  0  0  0  0  0  0
    9.8447  -14.5490   28.3407 C   0  0  0  0  0  0  0  0  0  0  0  0
   10.9620  -15.3440   27.7217 C   0  0  2  0  0  0  0  0  0  0  0  0
   11.9820  -14.3743   27.1729 C   0  0  0  0  0  0  0  0  0  0  0  0
   10.4220  -16.3166   26.7377 C   0  0  2  0  0  0  0  0  0  0  0  0
    9.8490  -15.6359   25.5755 N   0  0  0  0  0  0  0  0  0  0  0  0
    9.3941  -17.2026   27.3225 C   0  0  0  0  0  0  0  0  0  0  0  0
    9.6912  -17.9777   28.3056 O   0  0  0  0  0  0  0  0  0  0  0  0
    8.0793  -17.2954   26.9134 O   0  0  0  0  0  0  0  0  0  0  0  0
  2  1  1  0
  3  4  1  6
  3  2  1  0
  5  3  1  0
  6  5  2  0
  7  8  1  0
  8 18  2  0
  8  9  1  0
  9 10  2  0
 10 11  1  0
 11 12  1  0
 13 12  1  1
 13 14  1  0
 14  5  1  0
 15 24  1  0
 15 13  1  0
 16 15  2  0
 17 11  2  0
 18 17  1  0
 20 19  1  0
 21 20  1  0
 21 22  1  6
 23 21  1  0
 23 24  1  6
 25 23  1  0
 25 27  1  0
 26 25  2  0
M  END
$$$$
