SYI.pdb
     RDKit          3D

 27 27  0  0  1  0  0  0  0  0999 V2000
    9.4106  -21.0322   27.8150 O   0  0  0  0  0  0  0  0  0  0  0  0
    8.0626  -21.2935   27.5289 C   0  0  0  0  0  0  0  0  0  0  0  0
    7.6796  -20.4277   26.3469 C   0  0  2  0  0  0  0  0  0  0  0  0
    8.6129  -20.6865   25.2928 N   0  0  0  0  0  0  0  0  0  0  0  0
    7.6676  -18.9997   26.6924 C   0  0  0  0  0  0  0  0  0  0  0  0
    6.8982  -18.5891   27.5959 O   0  0  0  0  0  0  0  0  0  0  0  0
   11.7614  -16.7960   31.7665 O   0  0  0  0  0  0  0  0  0  0  0  0
   11.3327  -16.6735   30.4534 C   0  0  0  0  0  0  0  0  0  0  0  0
   11.5008  -17.7019   29.5251 C   0  0  0  0  0  0  0  0  0  0  0  0
   11.0705  -17.5707   28.2189 C   0  0  0  0  0  0  0  0  0  0  0  0
   10.4599  -16.4032   27.8098 C   0  0  0  0  0  0  0  0  0  0  0  0
    9.9772  -16.2061   26.4255 C   0  0  0  0  0  0  0  0  0  0  0  0
    8.5755  -16.6861   26.2580 C   0  0  2  0  0  0  0  0  0  0  0  0
    8.5352  -18.0990   25.9913 N   0  0  0  0  0  0  0  0  0  0  0  0
    7.8529  -15.9689   25.1663 C   0  0  0  0  0  0  0  0  0  0  0  0
    8.0451  -16.3009   23.9719 O   0  0  0  0  0  0  0  0  0  0  0  0
   10.2902  -15.3842   28.7190 C   0  0  0  0  0  0  0  0  0  0  0  0
   10.7269  -15.5285   30.0281 C   0  0  0  0  0  0  0  0  0  0  0  0
    7.3205  -10.5491   25.8736 C   0  0  0  0  0  0  0  0  0  0  0  0
    7.6191  -11.9248   25.2826 C   0  0  0  0  0  0  0  0  0  0  0  0
    6.3521  -12.6213   24.8665 C   0  0  2  0  0  0  0  0  0  0  0  0
    5.3938  -12.5925   26.0339 C   0  0  0  0  0  0  0  0  0  0  0  0
    6.6560  -13.9733   24.3322 C   0  0  2  0  0  0  0  0  0  0  0  0
    6.9491  -14.9187   25.4105 N   0  0  0  0  0  0  0  0  0  0  0  0
    7.7913  -13.9665   23.3863 C   0  0  0  0  0  0  0  0  0  0  0  0
    8.9771  -14.2512   23.7966 O   0  0  0  0  0  0  0  0  0  0  0  0
    7.7191  -13.6767   22.0389 O   0  0  0  0  0  0  0  0  0  0  0  0
  2  1  1  0
  3  4  1  6
  3  2  1  0
  5  3  1  0
  6  5  2  0
  7  8  1  0
  8 18  2  0
  8  9  1  0
  9 10  2  0
 10 11  1  0
 11 12  1  0
 13 12  1  6
 13 14  1  0
 14  5  1  0
 15 24  1  0
 15 13  1  0
 16 15  2  0
 17 11  2  0
 18 17  1  0
 20 19  1  0
 21 20  1  0
 21 22  1  1
 23 21  1  0
 23 24  1  1
 25 23  1  0
 25 27  1  0
 26 25  2  0
M  END
$$$$
