SYI.pdb
     RDKit          3D

 27 27  0  0  1  0  0  0  0  0999 V2000
   10.1808  -19.4197   21.7625 O   0  0  0  0  0  0  0  0  0  0  0  0
   11.3040  -18.7410   21.2674 C   0  0  0  0  0  0  0  0  0  0  0  0
   10.7979  -17.6439   20.3543 C   0  0  2  0  0  0  0  0  0  0  0  0
   11.8606  -17.2901   19.4630 N   0  0  0  0  0  0  0  0  0  0  0  0
   10.3382  -16.4697   21.1082 C   0  0  0  0  0  0  0  0  0  0  0  0
   11.1749  -15.6159   21.4926 O   0  0  0  0  0  0  0  0  0  0  0  0
    7.9734  -13.0386   16.0911 O   0  0  0  0  0  0  0  0  0  0  0  0
    7.7587  -13.4709   17.3912 C   0  0  0  0  0  0  0  0  0  0  0  0
    7.2818  -14.7522   17.6716 C   0  0  0  0  0  0  0  0  0  0  0  0
    7.0710  -15.1740   18.9701 C   0  0  0  0  0  0  0  0  0  0  0  0
    7.3333  -14.3207   20.0218 C   0  0  0  0  0  0  0  0  0  0  0  0
    7.1288  -14.7172   21.4321 C   0  0  0  0  0  0  0  0  0  0  0  0
    8.4001  -15.1692   22.0666 C   0  0  2  0  0  0  0  0  0  0  0  0
    8.9410  -16.3188   21.3922 N   0  0  0  0  0  0  0  0  0  0  0  0
    8.2321  -15.4942   23.5138 C   0  0  0  0  0  0  0  0  0  0  0  0
    8.8027  -16.5031   23.9939 O   0  0  0  0  0  0  0  0  0  0  0  0
    7.8039  -13.0555   19.7539 C   0  0  0  0  0  0  0  0  0  0  0  0
    8.0114  -12.6438   18.4452 C   0  0  0  0  0  0  0  0  0  0  0  0
    7.4512  -11.6482   28.2491 C   0  0  0  0  0  0  0  0  0  0  0  0
    7.8715  -13.0164   27.7177 C   0  0  0  0  0  0  0  0  0  0  0  0
    7.3712  -13.2288   26.3149 C   0  0  2  0  0  0  0  0  0  0  0  0
    5.8625  -13.1539   26.3366 C   0  0  0  0  0  0  0  0  0  0  0  0
    7.9330  -14.4817   25.7490 C   0  0  2  0  0  0  0  0  0  0  0  0
    7.4520  -14.7133   24.3861 N   0  0  0  0  0  0  0  0  0  0  0  0
    7.6150  -15.6674   26.5717 C   0  0  0  0  0  0  0  0  0  0  0  0
    8.1189  -15.7921   27.7490 O   0  0  0  0  0  0  0  0  0  0  0  0
    6.7916  -16.7110   26.2012 O   0  0  0  0  0  0  0  0  0  0  0  0
  2  1  1  0
  3  4  1  6
  3  2  1  0
  5  3  1  0
  6  5  2  0
  7  8  1  0
  8 18  2  0
  8  9  1  0
  9 10  2  0
 10 11  1  0
 11 12  1  0
 13 12  1  6
 13 14  1  0
 14  5  1  0
 15 24  1  0
 15 13  1  0
 16 15  2  0
 17 11  2  0
 18 17  1  0
 20 19  1  0
 21 20  1  0
 21 22  1  1
 23 21  1  0
 23 24  1  6
 25 23  1  0
 25 27  1  0
 26 25  2  0
M  END
$$$$
