SYI.pdb
     RDKit          3D

 27 27  0  0  1  0  0  0  0  0999 V2000
   12.5117  -18.8723   21.6501 O   0  0  0  0  0  0  0  0  0  0  0  0
   11.4797  -18.6348   20.7305 C   0  0  0  0  0  0  0  0  0  0  0  0
   11.4462  -17.1434   20.4699 C   0  0  2  0  0  0  0  0  0  0  0  0
   12.7478  -16.7462   20.0262 N   0  0  0  0  0  0  0  0  0  0  0  0
   11.0499  -16.3854   21.6645 C   0  0  0  0  0  0  0  0  0  0  0  0
   11.9191  -15.7473   22.3080 O   0  0  0  0  0  0  0  0  0  0  0  0
    5.9783  -11.4739   26.7886 O   0  0  0  0  0  0  0  0  0  0  0  0
    6.3960  -12.4489   25.8951 C   0  0  0  0  0  0  0  0  0  0  0  0
    6.1652  -13.8059   26.1253 C   0  0  0  0  0  0  0  0  0  0  0  0
    6.5851  -14.7700   25.2293 C   0  0  0  0  0  0  0  0  0  0  0  0
    7.2479  -14.3974   24.0782 C   0  0  0  0  0  0  0  0  0  0  0  0
    7.7190  -15.3842   23.0821 C   0  0  0  0  0  0  0  0  0  0  0  0
    9.1900  -15.6070   23.1813 C   0  0  2  0  0  0  0  0  0  0  0  0
    9.6762  -16.3874   22.0753 N   0  0  0  0  0  0  0  0  0  0  0  0
    9.5810  -16.2801   24.4550 C   0  0  0  0  0  0  0  0  0  0  0  0
    9.9223  -17.4872   24.4399 O   0  0  0  0  0  0  0  0  0  0  0  0
    7.4794  -13.0613   23.8437 C   0  0  0  0  0  0  0  0  0  0  0  0
    7.0527  -12.1026   24.7515 C   0  0  0  0  0  0  0  0  0  0  0  0
   10.5068  -13.0957   28.9256 C   0  0  0  0  0  0  0  0  0  0  0  0
   10.6905  -14.0363   27.7371 C   0  0  0  0  0  0  0  0  0  0  0  0
   10.1726  -15.4133   28.0520 C   0  0  2  0  0  0  0  0  0  0  0  0
   10.9325  -15.9404   29.2464 C   0  0  0  0  0  0  0  0  0  0  0  0
   10.2215  -16.2739   26.8425 C   0  0  2  0  0  0  0  0  0  0  0  0
    9.5874  -15.6194   25.6971 N   0  0  0  0  0  0  0  0  0  0  0  0
    9.5769  -17.5865   27.0550 C   0  0  0  0  0  0  0  0  0  0  0  0
    8.3320  -17.7493   26.7733 O   0  0  0  0  0  0  0  0  0  0  0  0
   10.1933  -18.7199   27.5448 O   0  0  0  0  0  0  0  0  0  0  0  0
  2  1  1  0
  3  4  1  1
  3  2  1  0
  5  3  1  0
  6  5  2  0
  7  8  1  0
  8 18  2  0
  8  9  1  0
  9 10  2  0
 10 11  1  0
 11 12  1  0
 13 12  1  6
 13 14  1  0
 14  5  1  0
 15 24  1  0
 15 13  1  0
 16 15  2  0
 17 11  2  0
 18 17  1  0
 20 19  1  0
 21 20  1  0
 21 22  1  1
 23 21  1  0
 23 24  1  6
 25 23  1  0
 25 27  1  0
 26 25  2  0
M  END
$$$$
