SYI.pdb
     RDKit          3D

 27 27  0  0  1  0  0  0  0  0999 V2000
    9.5931  -15.5376   17.2673 O   0  0  0  0  0  0  0  0  0  0  0  0
   10.1606  -15.9367   16.0483 C   0  0  0  0  0  0  0  0  0  0  0  0
   11.4961  -15.2334   15.9244 C   0  0  2  0  0  0  0  0  0  0  0  0
   12.0326  -15.5351   14.6321 N   0  0  0  0  0  0  0  0  0  0  0  0
   12.4308  -15.6380   16.9833 C   0  0  0  0  0  0  0  0  0  0  0  0
   12.9198  -16.7945   16.9670 O   0  0  0  0  0  0  0  0  0  0  0  0
   18.4705  -14.9839   14.8379 O   0  0  0  0  0  0  0  0  0  0  0  0
   17.5888  -14.7748   15.8877 C   0  0  0  0  0  0  0  0  0  0  0  0
   17.5162  -15.6489   16.9732 C   0  0  0  0  0  0  0  0  0  0  0  0
   16.6345  -15.4324   18.0146 C   0  0  0  0  0  0  0  0  0  0  0  0
   15.8022  -14.3324   17.9939 C   0  0  0  0  0  0  0  0  0  0  0  0
   14.8400  -14.0480   19.0806 C   0  0  0  0  0  0  0  0  0  0  0  0
   13.6996  -15.0086   19.0713 C   0  0  2  0  0  0  0  0  0  0  0  0
   12.7687  -14.7046   18.0177 N   0  0  0  0  0  0  0  0  0  0  0  0
   12.9650  -15.0356   20.3705 C   0  0  0  0  0  0  0  0  0  0  0  0
   13.4150  -14.3962   21.3516 O   0  0  0  0  0  0  0  0  0  0  0  0
   15.8676  -13.4655   16.9270 C   0  0  0  0  0  0  0  0  0  0  0  0
   16.7575  -13.6942   15.8873 C   0  0  0  0  0  0  0  0  0  0  0  0
    8.0999  -13.6447   20.5938 C   0  0  0  0  0  0  0  0  0  0  0  0
    9.5582  -14.0083   20.8615 C   0  0  0  0  0  0  0  0  0  0  0  0
    9.6607  -15.2707   21.6734 C   0  0  2  0  0  0  0  0  0  0  0  0
    8.8895  -15.0691   22.9567 C   0  0  0  0  0  0  0  0  0  0  0  0
   11.0832  -15.6611   21.8463 C   0  0  2  0  0  0  0  0  0  0  0  0
   11.7703  -15.7547   20.5573 N   0  0  0  0  0  0  0  0  0  0  0  0
   11.2351  -16.9468   22.5588 C   0  0  0  0  0  0  0  0  0  0  0  0
   11.2389  -18.0537   21.9028 O   0  0  0  0  0  0  0  0  0  0  0  0
   11.3847  -17.1028   23.9218 O   0  0  0  0  0  0  0  0  0  0  0  0
  2  1  1  0
  3  4  1  6
  3  2  1  0
  5  3  1  0
  6  5  2  0
  7  8  1  0
  8 18  2  0
  8  9  1  0
  9 10  2  0
 10 11  1  0
 11 12  1  0
 13 12  1  1
 13 14  1  0
 14  5  1  0
 15 24  1  0
 15 13  1  0
 16 15  2  0
 17 11  2  0
 18 17  1  0
 20 19  1  0
 21 20  1  0
 21 22  1  1
 23 21  1  0
 23 24  1  6
 25 23  1  0
 25 27  1  0
 26 25  2  0
M  END
$$$$
