SYI.pdb
     RDKit          3D

 27 27  0  0  1  0  0  0  0  0999 V2000
    7.4234  -15.5722   20.4403 O   0  0  0  0  0  0  0  0  0  0  0  0
    6.1531  -15.9643   19.9934 C   0  0  0  0  0  0  0  0  0  0  0  0
    5.9204  -17.3766   20.4882 C   0  0  2  0  0  0  0  0  0  0  0  0
    4.6584  -17.8181   19.9771 N   0  0  0  0  0  0  0  0  0  0  0  0
    5.9444  -17.4562   21.9550 C   0  0  0  0  0  0  0  0  0  0  0  0
    4.9228  -17.1301   22.6083 O   0  0  0  0  0  0  0  0  0  0  0  0
    8.4598  -19.1613   30.1656 O   0  0  0  0  0  0  0  0  0  0  0  0
    8.3540  -19.1534   28.7829 C   0  0  0  0  0  0  0  0  0  0  0  0
    9.4506  -18.8858   27.9622 C   0  0  0  0  0  0  0  0  0  0  0  0
    9.3356  -18.8802   26.5855 C   0  0  0  0  0  0  0  0  0  0  0  0
    8.1164  -19.1430   25.9959 C   0  0  0  0  0  0  0  0  0  0  0  0
    7.9332  -19.1527   24.5282 C   0  0  0  0  0  0  0  0  0  0  0  0
    7.2844  -17.8997   24.0463 C   0  0  2  0  0  0  0  0  0  0  0  0
    7.1350  -17.9052   22.6158 N   0  0  0  0  0  0  0  0  0  0  0  0
    8.0384  -16.6754   24.4475 C   0  0  0  0  0  0  0  0  0  0  0  0
    9.0863  -16.3624   23.8327 O   0  0  0  0  0  0  0  0  0  0  0  0
    7.0300  -19.4080   26.7981 C   0  0  0  0  0  0  0  0  0  0  0  0
    7.1586  -19.4106   28.1797 C   0  0  0  0  0  0  0  0  0  0  0  0
    5.6706  -12.0288   25.6842 C   0  0  0  0  0  0  0  0  0  0  0  0
    6.6822  -13.0510   25.1719 C   0  0  0  0  0  0  0  0  0  0  0  0
    7.5758  -13.5312   26.2828 C   0  0  2  0  0  0  0  0  0  0  0  0
    8.3251  -12.3403   26.8325 C   0  0  0  0  0  0  0  0  0  0  0  0
    8.4293  -14.6522   25.8128 C   0  0  2  0  0  0  0  0  0  0  0  0
    7.6282  -15.8366   25.4998 N   0  0  0  0  0  0  0  0  0  0  0  0
    9.4648  -15.0273   26.7980 C   0  0  0  0  0  0  0  0  0  0  0  0
    9.1731  -15.8085   27.7779 O   0  0  0  0  0  0  0  0  0  0  0  0
   10.7816  -14.6146   26.7835 O   0  0  0  0  0  0  0  0  0  0  0  0
  2  1  1  0
  3  4  1  1
  3  2  1  0
  5  3  1  0
  6  5  2  0
  7  8  1  0
  8 18  2  0
  8  9  1  0
  9 10  2  0
 10 11  1  0
 11 12  1  0
 13 12  1  6
 13 14  1  0
 14  5  1  0
 15 24  1  0
 15 13  1  0
 16 15  2  0
 17 11  2  0
 18 17  1  0
 20 19  1  0
 21 20  1  0
 21 22  1  6
 23 21  1  0
 23 24  1  1
 25 23  1  0
 25 27  1  0
 26 25  2  0
M  END
$$$$
