SYI.pdb
     RDKit          3D

 27 27  0  0  1  0  0  0  0  0999 V2000
    9.2349  -14.1875   18.9236 O   0  0  0  0  0  0  0  0  0  0  0  0
    7.9964  -14.1892   19.5818 C   0  0  0  0  0  0  0  0  0  0  0  0
    7.5888  -15.6361   19.7657 C   0  0  2  0  0  0  0  0  0  0  0  0
    6.4620  -15.8855   18.9189 N   0  0  0  0  0  0  0  0  0  0  0  0
    7.2655  -15.9424   21.1658 C   0  0  0  0  0  0  0  0  0  0  0  0
    6.1264  -15.6602   21.6129 O   0  0  0  0  0  0  0  0  0  0  0  0
    7.7395  -19.7973   29.0362 O   0  0  0  0  0  0  0  0  0  0  0  0
    7.9762  -19.4233   27.7220 C   0  0  0  0  0  0  0  0  0  0  0  0
    9.2360  -19.0048   27.2913 C   0  0  0  0  0  0  0  0  0  0  0  0
    9.4623  -18.6341   25.9798 C   0  0  0  0  0  0  0  0  0  0  0  0
    8.4299  -18.6737   25.0657 C   0  0  0  0  0  0  0  0  0  0  0  0
    8.6128  -18.2906   23.6487 C   0  0  0  0  0  0  0  0  0  0  0  0
    7.9970  -16.9653   23.3531 C   0  0  2  0  0  0  0  0  0  0  0  0
    8.2569  -16.5587   21.9981 N   0  0  0  0  0  0  0  0  0  0  0  0
    8.4743  -15.8948   24.2775 C   0  0  0  0  0  0  0  0  0  0  0  0
    9.6210  -15.4091   24.1255 O   0  0  0  0  0  0  0  0  0  0  0  0
    7.1845  -19.0853   25.4823 C   0  0  0  0  0  0  0  0  0  0  0  0
    6.9701  -19.4551   26.8024 C   0  0  0  0  0  0  0  0  0  0  0  0
    5.4655  -11.8079   25.9626 C   0  0  0  0  0  0  0  0  0  0  0  0
    6.6210  -12.6996   25.5149 C   0  0  0  0  0  0  0  0  0  0  0  0
    7.2342  -13.4188   26.6854 C   0  0  2  0  0  0  0  0  0  0  0  0
    7.7195  -12.3834   27.6726 C   0  0  0  0  0  0  0  0  0  0  0  0
    8.2664  -14.3798   26.2197 C   0  0  2  0  0  0  0  0  0  0  0  0
    7.6907  -15.3912   25.3319 N   0  0  0  0  0  0  0  0  0  0  0  0
    8.9490  -15.0638   27.3377 C   0  0  0  0  0  0  0  0  0  0  0  0
    8.4093  -16.0907   27.8942 O   0  0  0  0  0  0  0  0  0  0  0  0
   10.1674  -14.7084   27.8797 O   0  0  0  0  0  0  0  0  0  0  0  0
  2  1  1  0
  3  4  1  6
  3  2  1  0
  5  3  1  0
  6  5  2  0
  7  8  1  0
  8 18  2  0
  8  9  1  0
  9 10  2  0
 10 11  1  0
 11 12  1  0
 13 12  1  1
 13 14  1  0
 14  5  1  0
 15 24  1  0
 15 13  1  0
 16 15  2  0
 17 11  2  0
 18 17  1  0
 20 19  1  0
 21 20  1  0
 21 22  1  1
 23 21  1  0
 23 24  1  6
 25 23  1  0
 25 27  1  0
 26 25  2  0
M  END
$$$$
