SYI.pdb
     RDKit          3D

 27 27  0  0  1  0  0  0  0  0999 V2000
    8.0644  -16.6027   18.2515 O   0  0  0  0  0  0  0  0  0  0  0  0
    7.1423  -16.2847   19.2593 C   0  0  0  0  0  0  0  0  0  0  0  0
    6.7402  -17.5843   19.9249 C   0  0  2  0  0  0  0  0  0  0  0  0
    5.5265  -18.0333   19.3131 N   0  0  0  0  0  0  0  0  0  0  0  0
    6.5650  -17.4279   21.3752 C   0  0  0  0  0  0  0  0  0  0  0  0
    5.4405  -17.1033   21.8303 O   0  0  0  0  0  0  0  0  0  0  0  0
    8.3763  -18.8063   29.8979 O   0  0  0  0  0  0  0  0  0  0  0  0
    8.2714  -18.8460   28.5156 C   0  0  0  0  0  0  0  0  0  0  0  0
    7.0378  -18.9666   27.8741 C   0  0  0  0  0  0  0  0  0  0  0  0
    6.9432  -19.0053   26.4964 C   0  0  0  0  0  0  0  0  0  0  0  0
    8.0846  -18.9240   25.7259 C   0  0  0  0  0  0  0  0  0  0  0  0
    8.0452  -18.9582   24.2476 C   0  0  0  0  0  0  0  0  0  0  0  0
    7.5635  -17.6664   23.6800 C   0  0  2  0  0  0  0  0  0  0  0  0
    7.6819  -17.6488   22.2466 N   0  0  0  0  0  0  0  0  0  0  0  0
    8.2931  -16.4899   24.2383 C   0  0  0  0  0  0  0  0  0  0  0  0
    9.4624  -16.2454   23.8550 O   0  0  0  0  0  0  0  0  0  0  0  0
    9.3051  -18.8049   26.3507 C   0  0  0  0  0  0  0  0  0  0  0  0
    9.3866  -18.7672   27.7353 C   0  0  0  0  0  0  0  0  0  0  0  0
    5.8169  -12.1766   27.0805 C   0  0  0  0  0  0  0  0  0  0  0  0
    6.6033  -13.4608   26.8294 C   0  0  0  0  0  0  0  0  0  0  0  0
    7.6456  -13.2572   25.7638 C   0  0  2  0  0  0  0  0  0  0  0  0
    6.9447  -12.8337   24.4944 C   0  0  0  0  0  0  0  0  0  0  0  0
    8.5019  -14.4642   25.6397 C   0  0  2  0  0  0  0  0  0  0  0  0
    7.7278  -15.6227   25.1910 N   0  0  0  0  0  0  0  0  0  0  0  0
    9.1810  -14.8096   26.9059 C   0  0  0  0  0  0  0  0  0  0  0  0
    8.8483  -15.8729   27.5495 O   0  0  0  0  0  0  0  0  0  0  0  0
   10.1885  -14.0829   27.5071 O   0  0  0  0  0  0  0  0  0  0  0  0
  2  1  1  0
  3  4  1  6
  3  2  1  0
  5  3  1  0
  6  5  2  0
  7  8  1  0
  8 18  2  0
  8  9  1  0
  9 10  2  0
 10 11  1  0
 11 12  1  0
 13 12  1  1
 13 14  1  0
 14  5  1  0
 15 24  1  0
 15 13  1  0
 16 15  2  0
 17 11  2  0
 18 17  1  0
 20 19  1  0
 21 20  1  0
 21 22  1  6
 23 21  1  0
 23 24  1  1
 25 23  1  0
 25 27  1  0
 26 25  2  0
M  END
$$$$
