TGM.pdb
     RDKit          3D

 20 19  0  0  1  0  0  0  0  0999 V2000
    7.1986  -12.7863   17.3359 C   0  0  0  0  0  0  0  0  0  0  0  0
    7.4185  -13.9434   18.3148 C   0  0  1  0  0  0  0  0  0  0  0  0
    8.0762  -15.0008   17.6688 O   0  0  0  0  0  0  0  0  0  0  0  0
    8.3279  -13.4588   19.4045 C   0  0  2  0  0  0  0  0  0  0  0  0
    9.6461  -13.1392   18.9228 N   0  0  0  0  0  0  0  0  0  0  0  0
    8.4369  -14.5275   20.4320 C   0  0  0  0  0  0  0  0  0  0  0  0
    7.4269  -14.8320   21.1560 O   0  0  0  0  0  0  0  0  0  0  0  0
    9.6640  -15.2109   20.6100 N   0  0  0  0  0  0  0  0  0  0  0  0
    9.7930  -16.2744   21.5702 C   0  0  0  0  0  0  0  0  0  0  0  0
    9.7868  -15.7122   22.9525 C   0  0  0  0  0  0  0  0  0  0  0  0
   10.7864  -15.0593   23.3951 O   0  0  0  0  0  0  0  0  0  0  0  0
    6.4780  -11.3640   28.2856 C   0  0  0  0  0  0  0  0  0  0  0  0
    6.2288  -12.3075   26.7639 S   0  0  0  0  0  0  0  0  0  0  0  0
    7.5181  -13.5619   26.5738 C   0  0  0  0  0  0  0  0  0  0  0  0
    7.5061  -14.1919   25.1826 C   0  0  0  0  0  0  0  0  0  0  0  0
    8.5863  -15.2354   25.1160 C   0  0  2  0  0  0  0  0  0  0  0  0
    8.6815  -15.8739   23.8320 N   0  0  0  0  0  0  0  0  0  0  0  0
    8.4532  -16.2102   26.2280 C   0  0  0  0  0  0  0  0  0  0  0  0
    7.9281  -17.3220   26.0384 O   0  0  0  0  0  0  0  0  0  0  0  0
    8.9137  -15.8852   27.4834 O   0  0  0  0  0  0  0  0  0  0  0  0
  2  1  1  6
  2  3  1  0
  4  6  1  0
  4  2  1  0
  4  5  1  6
  6  8  1  0
  7  6  2  0
  8  9  1  0
  9 10  1  0
 10 17  1  0
 10 11  2  0
 12 13  1  0
 13 14  1  0
 14 15  1  0
 16 15  1  6
 16 18  1  0
 17 16  1  0
 18 19  2  0
 18 20  1  0
M  END
$$$$
