TGM.pdb
     RDKit          3D

 20 19  0  0  1  0  0  0  0  0999 V2000
    9.3546  -13.6998   17.4053 C   0  0  0  0  0  0  0  0  0  0  0  0
    9.1483  -14.1931   18.8405 C   0  0  1  0  0  0  0  0  0  0  0  0
    9.7843  -13.3271   19.7423 O   0  0  0  0  0  0  0  0  0  0  0  0
    7.6796  -14.1399   19.1395 C   0  0  2  0  0  0  0  0  0  0  0  0
    7.1373  -12.8128   19.0108 N   0  0  0  0  0  0  0  0  0  0  0  0
    7.4690  -14.6129   20.5329 C   0  0  0  0  0  0  0  0  0  0  0  0
    7.2150  -13.7762   21.4669 O   0  0  0  0  0  0  0  0  0  0  0  0
    7.5502  -15.9953   20.8273 N   0  0  0  0  0  0  0  0  0  0  0  0
    7.1444  -16.5104   22.1079 C   0  0  0  0  0  0  0  0  0  0  0  0
    8.0789  -16.0283   23.1668 C   0  0  0  0  0  0  0  0  0  0  0  0
    9.3272  -15.9267   22.9375 O   0  0  0  0  0  0  0  0  0  0  0  0
    5.4907  -10.8355   26.5014 C   0  0  0  0  0  0  0  0  0  0  0  0
    6.5360  -12.1114   27.2412 S   0  0  0  0  0  0  0  0  0  0  0  0
    6.8872  -13.4207   26.0436 C   0  0  0  0  0  0  0  0  0  0  0  0
    7.7776  -14.5134   26.6314 C   0  0  0  0  0  0  0  0  0  0  0  0
    8.5037  -15.2005   25.5085 C   0  0  2  0  0  0  0  0  0  0  0  0
    7.6300  -15.6632   24.4654 N   0  0  0  0  0  0  0  0  0  0  0  0
    9.3901  -16.2732   26.0262 C   0  0  0  0  0  0  0  0  0  0  0  0
    9.0773  -17.4708   25.9014 O   0  0  0  0  0  0  0  0  0  0  0  0
   10.5710  -15.9445   26.6516 O   0  0  0  0  0  0  0  0  0  0  0  0
  2  1  1  6
  2  3  1  0
  4  6  1  0
  4  2  1  0
  4  5  1  1
  6  8  1  0
  7  6  2  0
  8  9  1  0
  9 10  1  0
 10 17  1  0
 10 11  2  0
 12 13  1  0
 13 14  1  0
 14 15  1  0
 16 15  1  1
 16 18  1  0
 17 16  1  0
 18 19  2  0
 18 20  1  0
M  END
$$$$
