TGM.pdb
     RDKit          3D

 20 19  0  0  1  0  0  0  0  0999 V2000
   10.7403  -15.1479   19.2070 C   0  0  0  0  0  0  0  0  0  0  0  0
   10.2830  -13.6944   19.0528 C   0  0  1  0  0  0  0  0  0  0  0  0
   10.7438  -13.1725   17.8350 O   0  0  0  0  0  0  0  0  0  0  0  0
    8.7844  -13.6862   18.9969 C   0  0  2  0  0  0  0  0  0  0  0  0
    8.2545  -12.4204   18.5624 N   0  0  0  0  0  0  0  0  0  0  0  0
    8.2644  -13.9842   20.3573 C   0  0  0  0  0  0  0  0  0  0  0  0
    8.1819  -13.0561   21.2341 O   0  0  0  0  0  0  0  0  0  0  0  0
    7.8591  -15.3008   20.6837 N   0  0  0  0  0  0  0  0  0  0  0  0
    7.1460  -15.5816   21.9013 C   0  0  0  0  0  0  0  0  0  0  0  0
    8.0804  -15.5131   23.0627 C   0  0  0  0  0  0  0  0  0  0  0  0
    9.3284  -15.7130   22.9079 O   0  0  0  0  0  0  0  0  0  0  0  0
    5.8655  -10.5874   26.4632 C   0  0  0  0  0  0  0  0  0  0  0  0
    6.1169  -12.3073   26.9595 S   0  0  0  0  0  0  0  0  0  0  0  0
    7.6381  -12.9639   26.2336 C   0  0  0  0  0  0  0  0  0  0  0  0
    7.9136  -14.3991   26.6772 C   0  0  0  0  0  0  0  0  0  0  0  0
    8.5044  -15.1567   25.5209 C   0  0  2  0  0  0  0  0  0  0  0  0
    7.6320  -15.2252   24.3808 N   0  0  0  0  0  0  0  0  0  0  0  0
    8.9846  -16.4942   25.9513 C   0  0  0  0  0  0  0  0  0  0  0  0
    8.4620  -17.5307   25.5040 O   0  0  0  0  0  0  0  0  0  0  0  0
   10.0182  -16.5935   26.8544 O   0  0  0  0  0  0  0  0  0  0  0  0
  2  1  1  6
  2  3  1  0
  4  6  1  0
  4  2  1  0
  4  5  1  1
  6  8  1  0
  7  6  2  0
  8  9  1  0
  9 10  1  0
 10 17  1  0
 10 11  2  0
 12 13  1  0
 13 14  1  0
 14 15  1  0
 16 15  1  1
 16 18  1  0
 17 16  1  0
 18 19  2  0
 18 20  1  0
M  END
$$$$
