TGM.pdb
     RDKit          3D

 20 19  0  0  1  0  0  0  0  0999 V2000
    8.0299  -12.1582   17.7718 C   0  0  0  0  0  0  0  0  0  0  0  0
    7.7551  -13.2892   18.7673 C   0  0  1  0  0  0  0  0  0  0  0  0
    7.5292  -14.4905   18.0793 O   0  0  0  0  0  0  0  0  0  0  0  0
    8.9889  -13.4821   19.5978 C   0  0  2  0  0  0  0  0  0  0  0  0
   10.0771  -14.0512   18.8467 N   0  0  0  0  0  0  0  0  0  0  0  0
    8.6556  -14.3910   20.7259 C   0  0  0  0  0  0  0  0  0  0  0  0
    7.7668  -14.0562   21.5832 O   0  0  0  0  0  0  0  0  0  0  0  0
    9.3251  -15.6321   20.8519 N   0  0  0  0  0  0  0  0  0  0  0  0
    8.9320  -16.5939   21.8470 C   0  0  0  0  0  0  0  0  0  0  0  0
    9.1708  -16.0378   23.2111 C   0  0  0  0  0  0  0  0  0  0  0  0
   10.3428  -16.0115   23.7082 O   0  0  0  0  0  0  0  0  0  0  0  0
    5.9597  -11.4624   26.7790 C   0  0  0  0  0  0  0  0  0  0  0  0
    7.4878  -12.2114   27.3887 S   0  0  0  0  0  0  0  0  0  0  0  0
    7.3589  -14.0157   27.3840 C   0  0  0  0  0  0  0  0  0  0  0  0
    7.0287  -14.5646   25.9977 C   0  0  0  0  0  0  0  0  0  0  0  0
    8.2901  -15.0962   25.3760 C   0  0  2  0  0  0  0  0  0  0  0  0
    8.1185  -15.5166   24.0124 N   0  0  0  0  0  0  0  0  0  0  0  0
    8.8974  -16.1520   26.2251 C   0  0  0  0  0  0  0  0  0  0  0  0
    8.4875  -17.3253   26.1696 O   0  0  0  0  0  0  0  0  0  0  0  0
    9.9244  -15.8345   27.0842 O   0  0  0  0  0  0  0  0  0  0  0  0
  2  1  1  6
  2  3  1  0
  4  6  1  0
  4  2  1  0
  4  5  1  6
  6  8  1  0
  7  6  2  0
  8  9  1  0
  9 10  1  0
 10 17  1  0
 10 11  2  0
 12 13  1  0
 13 14  1  0
 14 15  1  0
 16 15  1  1
 16 18  1  0
 17 16  1  0
 18 19  2  0
 18 20  1  0
M  END
$$$$
