TGM.pdb
     RDKit          3D

 20 19  0  0  1  0  0  0  0  0999 V2000
    7.9831  -13.0127   17.3583 C   0  0  0  0  0  0  0  0  0  0  0  0
    7.9670  -14.0653   18.4707 C   0  0  1  0  0  0  0  0  0  0  0  0
    9.2566  -14.5838   18.6600 O   0  0  0  0  0  0  0  0  0  0  0  0
    7.5751  -13.3815   19.7466 C   0  0  2  0  0  0  0  0  0  0  0  0
    8.5598  -12.4289   20.1881 N   0  0  0  0  0  0  0  0  0  0  0  0
    7.4026  -14.4179   20.7983 C   0  0  0  0  0  0  0  0  0  0  0  0
    6.3022  -14.5037   21.4453 O   0  0  0  0  0  0  0  0  0  0  0  0
    8.4611  -15.3133   21.0851 N   0  0  0  0  0  0  0  0  0  0  0  0
    8.3163  -16.3465   22.0758 C   0  0  0  0  0  0  0  0  0  0  0  0
    8.0639  -15.7340   23.4130 C   0  0  0  0  0  0  0  0  0  0  0  0
    6.8784  -15.4713   23.7963 O   0  0  0  0  0  0  0  0  0  0  0  0
    5.8843  -11.4874   27.0040 C   0  0  0  0  0  0  0  0  0  0  0  0
    7.4704  -12.2392   27.4361 S   0  0  0  0  0  0  0  0  0  0  0  0
    7.3637  -14.0431   27.3549 C   0  0  0  0  0  0  0  0  0  0  0  0
    7.4707  -14.5611   25.9222 C   0  0  0  0  0  0  0  0  0  0  0  0
    8.9045  -14.9170   25.6434 C   0  0  2  0  0  0  0  0  0  0  0  0
    9.1177  -15.4180   24.3134 N   0  0  0  0  0  0  0  0  0  0  0  0
    9.4389  -15.8277   26.6873 C   0  0  0  0  0  0  0  0  0  0  0  0
    9.4056  -15.5056   27.8885 O   0  0  0  0  0  0  0  0  0  0  0  0
    9.9779  -17.0417   26.3274 O   0  0  0  0  0  0  0  0  0  0  0  0
  2  1  1  6
  2  3  1  0
  4  6  1  0
  4  2  1  0
  4  5  1  1
  6  8  1  0
  7  6  2  0
  8  9  1  0
  9 10  1  0
 10 17  1  0
 10 11  2  0
 12 13  1  0
 13 14  1  0
 14 15  1  0
 16 15  1  1
 16 18  1  0
 17 16  1  0
 18 19  2  0
 18 20  1  0
M  END
$$$$
