TGM.pdb
     RDKit          3D

 20 19  0  0  1  0  0  0  0  0999 V2000
    7.5541  -12.6947   18.7570 C   0  0  0  0  0  0  0  0  0  0  0  0
    8.3476  -13.8593   19.3566 C   0  0  1  0  0  0  0  0  0  0  0  0
    9.2759  -13.3773   20.2913 O   0  0  0  0  0  0  0  0  0  0  0  0
    7.3863  -14.7364   20.1022 C   0  0  2  0  0  0  0  0  0  0  0  0
    6.7084  -14.0373   21.1621 N   0  0  0  0  0  0  0  0  0  0  0  0
    8.1464  -15.8734   20.6846 C   0  0  0  0  0  0  0  0  0  0  0  0
    8.7536  -16.7019   19.9218 O   0  0  0  0  0  0  0  0  0  0  0  0
    8.1981  -16.0400   22.0896 N   0  0  0  0  0  0  0  0  0  0  0  0
    9.0148  -17.0608   22.6902 C   0  0  0  0  0  0  0  0  0  0  0  0
    9.7206  -16.5080   23.8832 C   0  0  0  0  0  0  0  0  0  0  0  0
   10.9060  -16.0533   23.7866 O   0  0  0  0  0  0  0  0  0  0  0  0
    5.8192  -12.5770   27.2171 C   0  0  0  0  0  0  0  0  0  0  0  0
    7.5137  -11.9492   27.2690 S   0  0  0  0  0  0  0  0  0  0  0  0
    8.7005  -13.3126   27.2015 C   0  0  0  0  0  0  0  0  0  0  0  0
    8.3311  -14.3439   26.1374 C   0  0  0  0  0  0  0  0  0  0  0  0
    9.3733  -15.4274   26.1328 C   0  0  2  0  0  0  0  0  0  0  0  0
    9.1146  -16.4610   25.1684 N   0  0  0  0  0  0  0  0  0  0  0  0
    9.5872  -15.9651   27.5002 C   0  0  0  0  0  0  0  0  0  0  0  0
   10.0398  -15.2400   28.4041 O   0  0  0  0  0  0  0  0  0  0  0  0
    9.2834  -17.2788   27.7755 O   0  0  0  0  0  0  0  0  0  0  0  0
  2  1  1  1
  2  3  1  0
  4  6  1  0
  4  2  1  0
  4  5  1  1
  6  8  1  0
  7  6  2  0
  8  9  1  0
  9 10  1  0
 10 17  1  0
 10 11  2  0
 12 13  1  0
 13 14  1  0
 14 15  1  0
 16 15  1  1
 16 18  1  0
 17 16  1  0
 18 19  2  0
 18 20  1  0
M  END
$$$$
