TGM.pdb
     RDKit          3D

 20 19  0  0  1  0  0  0  0  0999 V2000
    9.7249  -12.8148   19.8056 C   0  0  0  0  0  0  0  0  0  0  0  0
    8.5655  -13.1430   18.8604 C   0  0  1  0  0  0  0  0  0  0  0  0
    8.7520  -12.4975   17.6290 O   0  0  0  0  0  0  0  0  0  0  0  0
    8.5923  -14.6185   18.5930 C   0  0  2  0  0  0  0  0  0  0  0  0
    7.6468  -15.0142   17.5824 N   0  0  0  0  0  0  0  0  0  0  0  0
    8.2696  -15.3287   19.8585 C   0  0  0  0  0  0  0  0  0  0  0  0
    7.0699  -15.3422   20.3030 O   0  0  0  0  0  0  0  0  0  0  0  0
    9.2947  -15.9925   20.5747 N   0  0  0  0  0  0  0  0  0  0  0  0
    8.9980  -16.7887   21.7357 C   0  0  0  0  0  0  0  0  0  0  0  0
    9.1479  -15.9617   22.9688 C   0  0  0  0  0  0  0  0  0  0  0  0
   10.2160  -15.3034   23.1862 O   0  0  0  0  0  0  0  0  0  0  0  0
    6.1072  -10.6639   26.9799 C   0  0  0  0  0  0  0  0  0  0  0  0
    5.8301  -12.2476   26.1534 S   0  0  0  0  0  0  0  0  0  0  0  0
    7.2062  -13.3790   26.4665 C   0  0  0  0  0  0  0  0  0  0  0  0
    6.9882  -14.7430   25.8152 C   0  0  0  0  0  0  0  0  0  0  0  0
    8.2861  -15.2028   25.2117 C   0  0  2  0  0  0  0  0  0  0  0  0
    8.1217  -15.8676   23.9482 N   0  0  0  0  0  0  0  0  0  0  0  0
    9.0674  -16.0101   26.1824 C   0  0  0  0  0  0  0  0  0  0  0  0
    9.3327  -15.5625   27.3124 O   0  0  0  0  0  0  0  0  0  0  0  0
    9.5051  -17.2672   25.8333 O   0  0  0  0  0  0  0  0  0  0  0  0
  2  1  1  1
  2  3  1  0
  4  6  1  0
  4  2  1  0
  4  5  1  6
  6  8  1  0
  7  6  2  0
  8  9  1  0
  9 10  1  0
 10 17  1  0
 10 11  2  0
 12 13  1  0
 13 14  1  0
 14 15  1  0
 16 15  1  1
 16 18  1  0
 17 16  1  0
 18 19  2  0
 18 20  1  0
M  END
$$$$
