TGM.pdb
     RDKit          3D

 20 19  0  0  1  0  0  0  0  0999 V2000
   10.3709  -15.6261   18.9157 C   0  0  0  0  0  0  0  0  0  0  0  0
   10.1008  -14.1277   18.7497 C   0  0  1  0  0  0  0  0  0  0  0  0
   10.4671  -13.7136   17.4604 O   0  0  0  0  0  0  0  0  0  0  0  0
    8.6229  -13.9086   18.8798 C   0  0  2  0  0  0  0  0  0  0  0  0
    8.2221  -12.5879   18.4712 N   0  0  0  0  0  0  0  0  0  0  0  0
    8.2446  -14.1075   20.3035 C   0  0  0  0  0  0  0  0  0  0  0  0
    8.3638  -13.1493   21.1429 O   0  0  0  0  0  0  0  0  0  0  0  0
    7.7506  -15.3632   20.7322 N   0  0  0  0  0  0  0  0  0  0  0  0
    7.0924  -15.5114   22.0029 C   0  0  0  0  0  0  0  0  0  0  0  0
    8.0994  -15.4656   23.1033 C   0  0  0  0  0  0  0  0  0  0  0  0
    9.3415  -15.5964   22.8558 O   0  0  0  0  0  0  0  0  0  0  0  0
    5.2956  -11.7196   26.2843 C   0  0  0  0  0  0  0  0  0  0  0  0
    6.8504  -11.9087   27.1869 S   0  0  0  0  0  0  0  0  0  0  0  0
    8.0467  -12.8458   26.2057 C   0  0  0  0  0  0  0  0  0  0  0  0
    8.1633  -14.2951   26.6727 C   0  0  0  0  0  0  0  0  0  0  0  0
    8.6771  -15.1298   25.5327 C   0  0  2  0  0  0  0  0  0  0  0  0
    7.7290  -15.2761   24.4627 N   0  0  0  0  0  0  0  0  0  0  0  0
    9.1925  -16.4346   26.0192 C   0  0  0  0  0  0  0  0  0  0  0  0
    8.5649  -17.4863   25.8010 O   0  0  0  0  0  0  0  0  0  0  0  0
   10.3761  -16.4862   26.7192 O   0  0  0  0  0  0  0  0  0  0  0  0
  2  1  1  6
  2  3  1  0
  4  6  1  0
  4  2  1  0
  4  5  1  1
  6  8  1  0
  7  6  2  0
  8  9  1  0
  9 10  1  0
 10 17  1  0
 10 11  2  0
 12 13  1  0
 13 14  1  0
 14 15  1  0
 16 15  1  1
 16 18  1  0
 17 16  1  0
 18 19  2  0
 18 20  1  0
M  END
$$$$
