TGM.pdb
     RDKit          3D

 20 19  0  0  1  0  0  0  0  0999 V2000
    4.7775  -19.4254   23.0172 C   0  0  0  0  0  0  0  0  0  0  0  0
    5.8138  -18.3293   22.7524 C   0  0  1  0  0  0  0  0  0  0  0  0
    7.0129  -18.6318   23.4145 O   0  0  0  0  0  0  0  0  0  0  0  0
    6.1116  -18.3219   21.2825 C   0  0  2  0  0  0  0  0  0  0  0  0
    6.5164  -19.6140   20.7942 N   0  0  0  0  0  0  0  0  0  0  0  0
    7.2066  -17.3482   21.0324 C   0  0  0  0  0  0  0  0  0  0  0  0
    8.4133  -17.7533   20.9032 O   0  0  0  0  0  0  0  0  0  0  0  0
    6.9125  -15.9666   20.9374 N   0  0  0  0  0  0  0  0  0  0  0  0
    7.9563  -14.9921   20.7622 C   0  0  0  0  0  0  0  0  0  0  0  0
    8.5785  -14.6738   22.0807 C   0  0  0  0  0  0  0  0  0  0  0  0
    9.6025  -13.9205   22.1533 O   0  0  0  0  0  0  0  0  0  0  0  0
    6.3038  -10.4957   26.7239 C   0  0  0  0  0  0  0  0  0  0  0  0
    6.3365  -12.3028   26.7576 S   0  0  0  0  0  0  0  0  0  0  0  0
    7.5255  -12.9410   25.5530 C   0  0  0  0  0  0  0  0  0  0  0  0
    7.6437  -14.4625   25.6128 C   0  0  0  0  0  0  0  0  0  0  0  0
    8.6492  -14.9092   24.5884 C   0  0  2  0  0  0  0  0  0  0  0  0
    8.0673  -15.1870   23.3040 N   0  0  0  0  0  0  0  0  0  0  0  0
    9.4639  -16.0398   25.1009 C   0  0  0  0  0  0  0  0  0  0  0  0
   10.1323  -15.9196   26.1432 O   0  0  0  0  0  0  0  0  0  0  0  0
    9.4834  -17.2351   24.4193 O   0  0  0  0  0  0  0  0  0  0  0  0
  2  1  1  6
  2  3  1  0
  4  6  1  0
  4  2  1  0
  4  5  1  1
  6  8  1  0
  7  6  2  0
  8  9  1  0
  9 10  1  0
 10 17  1  0
 10 11  2  0
 12 13  1  0
 13 14  1  0
 14 15  1  0
 16 15  1  1
 16 18  1  0
 17 16  1  0
 18 19  2  0
 18 20  1  0
M  END
$$$$
