TGM.pdb
     RDKit          3D

 20 19  0  0  1  0  0  0  0  0999 V2000
    8.3062  -12.1876   17.8840 C   0  0  0  0  0  0  0  0  0  0  0  0
    7.9854  -13.3961   18.7684 C   0  0  1  0  0  0  0  0  0  0  0  0
    8.1624  -14.5832   18.0424 O   0  0  0  0  0  0  0  0  0  0  0  0
    8.9740  -13.4174   19.8960 C   0  0  2  0  0  0  0  0  0  0  0  0
   10.3150  -13.6904   19.4500 N   0  0  0  0  0  0  0  0  0  0  0  0
    8.5625  -14.4730   20.8584 C   0  0  0  0  0  0  0  0  0  0  0  0
    7.4396  -14.3900   21.4660 O   0  0  0  0  0  0  0  0  0  0  0  0
    9.4174  -15.5746   21.1035 N   0  0  0  0  0  0  0  0  0  0  0  0
    9.0471  -16.6155   22.0251 C   0  0  0  0  0  0  0  0  0  0  0  0
    9.3037  -16.1672   23.4251 C   0  0  0  0  0  0  0  0  0  0  0  0
   10.4933  -16.0254   23.8564 O   0  0  0  0  0  0  0  0  0  0  0  0
    6.6458  -10.9891   27.3118 C   0  0  0  0  0  0  0  0  0  0  0  0
    5.9547  -12.4244   26.4573 S   0  0  0  0  0  0  0  0  0  0  0  0
    7.2729  -13.4356   25.7418 C   0  0  0  0  0  0  0  0  0  0  0  0
    7.3216  -14.8336   26.3545 C   0  0  0  0  0  0  0  0  0  0  0  0
    8.4559  -15.5959   25.7282 C   0  0  2  0  0  0  0  0  0  0  0  0
    8.2494  -15.8795   24.3345 N   0  0  0  0  0  0  0  0  0  0  0  0
    8.7771  -16.8133   26.5153 C   0  0  0  0  0  0  0  0  0  0  0  0
    8.4308  -17.9387   26.1138 O   0  0  0  0  0  0  0  0  0  0  0  0
    9.4647  -16.7008   27.7020 O   0  0  0  0  0  0  0  0  0  0  0  0
  2  1  1  6
  2  3  1  0
  4  6  1  0
  4  2  1  0
  4  5  1  6
  6  8  1  0
  7  6  2  0
  8  9  1  0
  9 10  1  0
 10 17  1  0
 10 11  2  0
 12 13  1  0
 13 14  1  0
 14 15  1  0
 16 15  1  1
 16 18  1  0
 17 16  1  0
 18 19  2  0
 18 20  1  0
M  END
$$$$
