TGM.pdb
     RDKit          3D

 20 19  0  0  1  0  0  0  0  0999 V2000
   10.5965  -19.6165   17.9546 C   0  0  0  0  0  0  0  0  0  0  0  0
   10.0757  -18.2066   18.2487 C   0  0  1  0  0  0  0  0  0  0  0  0
    8.8044  -18.0359   17.6808 O   0  0  0  0  0  0  0  0  0  0  0  0
    9.9162  -18.0747   19.7341 C   0  0  2  0  0  0  0  0  0  0  0  0
    8.9393  -18.9870   20.2682 N   0  0  0  0  0  0  0  0  0  0  0  0
    9.4910  -16.6828   20.0367 C   0  0  0  0  0  0  0  0  0  0  0  0
   10.2492  -15.6968   19.7368 O   0  0  0  0  0  0  0  0  0  0  0  0
    8.2417  -16.4477   20.6599 N   0  0  0  0  0  0  0  0  0  0  0  0
    7.8310  -15.1195   21.0301 C   0  0  0  0  0  0  0  0  0  0  0  0
    7.5810  -15.0580   22.5000 C   0  0  0  0  0  0  0  0  0  0  0  0
    6.9368  -15.9838   23.0909 O   0  0  0  0  0  0  0  0  0  0  0  0
    7.2948  -11.0172   28.0383 C   0  0  0  0  0  0  0  0  0  0  0  0
    5.9434  -11.6447   27.0148 S   0  0  0  0  0  0  0  0  0  0  0  0
    6.2391  -13.3693   26.5566 C   0  0  0  0  0  0  0  0  0  0  0  0
    6.3647  -13.5489   25.0452 C   0  0  0  0  0  0  0  0  0  0  0  0
    7.7945  -13.8759   24.7150 C   0  0  2  0  0  0  0  0  0  0  0  0
    8.0426  -13.9796   23.3032 N   0  0  0  0  0  0  0  0  0  0  0  0
    8.2522  -15.0740   25.4630 C   0  0  0  0  0  0  0  0  0  0  0  0
    9.2669  -15.0249   26.1811 O   0  0  0  0  0  0  0  0  0  0  0  0
    7.5503  -16.2536   25.3641 O   0  0  0  0  0  0  0  0  0  0  0  0
  2  1  1  1
  2  3  1  0
  4  6  1  0
  4  2  1  0
  4  5  1  6
  6  8  1  0
  7  6  2  0
  8  9  1  0
  9 10  1  0
 10 17  1  0
 10 11  2  0
 12 13  1  0
 13 14  1  0
 14 15  1  0
 16 15  1  6
 16 18  1  0
 17 16  1  0
 18 19  2  0
 18 20  1  0
M  END
$$$$
