TGM.pdb
     RDKit          3D

 20 19  0  0  1  0  0  0  0  0999 V2000
    9.2871  -14.4222   16.8987 C   0  0  0  0  0  0  0  0  0  0  0  0
    9.0488  -14.7279   18.3804 C   0  0  1  0  0  0  0  0  0  0  0  0
   10.1468  -14.3006   19.1417 O   0  0  0  0  0  0  0  0  0  0  0  0
    7.8624  -13.9287   18.8308 C   0  0  2  0  0  0  0  0  0  0  0  0
    8.0601  -12.5113   18.6766 N   0  0  0  0  0  0  0  0  0  0  0  0
    7.6157  -14.2269   20.2661 C   0  0  0  0  0  0  0  0  0  0  0  0
    7.9212  -13.3694   21.1651 O   0  0  0  0  0  0  0  0  0  0  0  0
    7.0405  -15.4656   20.6393 N   0  0  0  0  0  0  0  0  0  0  0  0
    6.5574  -15.6911   21.9756 C   0  0  0  0  0  0  0  0  0  0  0  0
    7.6857  -15.5853   22.9466 C   0  0  0  0  0  0  0  0  0  0  0  0
    8.8676  -15.9197   22.6113 O   0  0  0  0  0  0  0  0  0  0  0  0
    5.7717  -10.7427   26.8045 C   0  0  0  0  0  0  0  0  0  0  0  0
    6.0927  -12.5192   26.8976 S   0  0  0  0  0  0  0  0  0  0  0  0
    7.7585  -12.8976   26.3026 C   0  0  0  0  0  0  0  0  0  0  0  0
    8.1302  -14.3616   26.5276 C   0  0  0  0  0  0  0  0  0  0  0  0
    8.5733  -14.9538   25.2187 C   0  0  2  0  0  0  0  0  0  0  0  0
    7.5014  -15.1124   24.2746 N   0  0  0  0  0  0  0  0  0  0  0  0
    9.3329  -16.2113   25.4341 C   0  0  0  0  0  0  0  0  0  0  0  0
   10.5746  -16.1980   25.5096 O   0  0  0  0  0  0  0  0  0  0  0  0
    8.6611  -17.4065   25.5519 O   0  0  0  0  0  0  0  0  0  0  0  0
  2  1  1  6
  2  3  1  0
  4  6  1  0
  4  2  1  0
  4  5  1  1
  6  8  1  0
  7  6  2  0
  8  9  1  0
  9 10  1  0
 10 17  1  0
 10 11  2  0
 12 13  1  0
 13 14  1  0
 14 15  1  0
 16 15  1  1
 16 18  1  0
 17 16  1  0
 18 19  2  0
 18 20  1  0
M  END
$$$$
