LHE.pdb
     RDKit          3D

 28 28  0  0  1  0  0  0  0  0999 V2000
    7.9516  -12.1602   19.1024 C   0  0  0  0  0  0  0  0  0  0  0  0
    7.9309  -13.3722   19.9976 C   0  0  2  0  0  0  0  0  0  0  0  0
    7.4474  -13.0455   21.3873 C   0  0  0  0  0  0  0  0  0  0  0  0
    9.2310  -14.1076   19.9858 C   0  0  0  0  0  0  0  0  0  0  0  0
    9.7638  -14.4242   18.6261 C   0  0  2  0  0  0  0  0  0  0  0  0
    8.8549  -15.2718   17.9098 N   0  0  0  0  0  0  0  0  0  0  0  0
   11.1003  -15.0696   18.7986 C   0  0  0  0  0  0  0  0  0  0  0  0
   11.1861  -16.2594   19.2400 O   0  0  0  0  0  0  0  0  0  0  0  0
   12.3224  -14.4313   18.4958 N   0  0  0  0  0  0  0  0  0  0  0  0
   13.6130  -15.0163   18.7479 C   0  0  1  0  0  0  0  0  0  0  0  0
   14.5790  -14.4798   17.6991 C   0  0  0  0  0  0  0  0  0  0  0  0
   14.6001  -15.3944   16.5310 C   0  0  0  0  0  0  0  0  0  0  0  0
   13.5840  -16.2266   16.1076 C   0  0  0  0  0  0  0  0  0  0  0  0
   14.0094  -16.8728   15.0265 N   0  0  0  0  0  0  0  0  0  0  0  0
   15.2620  -16.4687   14.7616 C   0  0  0  0  0  0  0  0  0  0  0  0
   15.6513  -15.5562   15.6749 N   0  0  0  0  0  0  0  0  0  0  0  0
   14.0939  -14.8302   20.1110 C   0  0  0  0  0  0  0  0  0  0  0  0
   14.1644  -13.6371   20.5703 O   0  0  0  0  0  0  0  0  0  0  0  0
   14.4993  -15.8557   20.9996 N   0  0  0  0  0  0  0  0  0  0  0  0
   14.9731  -15.5957   22.3592 C   0  0  1  0  0  0  0  0  0  0  0  0
   14.7162  -16.7572   23.2503 C   0  0  0  0  0  0  0  0  0  0  0  0
   13.2784  -17.0958   23.4097 C   0  0  0  0  0  0  0  0  0  0  0  0
   13.0840  -18.2748   24.3216 C   0  0  0  0  0  0  0  0  0  0  0  0
   13.6989  -19.3181   23.9833 O   0  0  0  0  0  0  0  0  0  0  0  0
   16.3703  -15.1790   22.3829 C   0  0  0  0  0  0  0  0  0  0  0  0
   16.9945  -14.6937   23.4965 O   0  0  0  0  0  0  0  0  0  0  0  0
   12.3052  -18.2611   25.4478 O   0  0  0  0  0  0  0  0  0  0  0  0
   17.0642  -15.2638   21.3065 O   0  0  0  0  0  0  0  0  0  0  0  0
  2  1  1  6
  2  3  1  0
  4  2  1  0
  5  4  1  0
  5  6  1  1
  7  8  2  0
  7  5  1  0
  9  7  1  0
 10  9  1  0
 11 12  1  0
 10 11  1  6
 12 16  1  0
 13 12  2  0
 13 14  1  0
 14 15  1  0
 16 15  2  0
 17 10  1  0
 17 18  2  0
 19 17  1  0
 20 19  1  0
 20 21  1  1
 22 21  1  0
 23 22  1  0
 24 23  2  0
 25 20  1  0
 26 25  1  0
 27 23  1  0
 28 25  2  0
M  END
$$$$
