LHE.pdb
     RDKit          3D

 28 28  0  0  1  0  0  0  0  0999 V2000
    8.7863  -12.9037   18.5454 C   0  0  0  0  0  0  0  0  0  0  0  0
    7.8144  -13.3508   19.6067 C   0  0  2  0  0  0  0  0  0  0  0  0
    6.9345  -12.2240   20.0842 C   0  0  0  0  0  0  0  0  0  0  0  0
    8.4889  -14.0821   20.7209 C   0  0  0  0  0  0  0  0  0  0  0  0
    9.3579  -15.2199   20.2931 C   0  0  2  0  0  0  0  0  0  0  0  0
    8.6605  -16.0736   19.3753 N   0  0  0  0  0  0  0  0  0  0  0  0
    9.7800  -15.9585   21.5215 C   0  0  0  0  0  0  0  0  0  0  0  0
   10.0474  -15.3246   22.5913 O   0  0  0  0  0  0  0  0  0  0  0  0
    9.9086  -17.3629   21.5846 N   0  0  0  0  0  0  0  0  0  0  0  0
   10.3579  -18.0720   22.7536 C   0  0  1  0  0  0  0  0  0  0  0  0
    9.6025  -19.3937   22.8140 C   0  0  0  0  0  0  0  0  0  0  0  0
    8.1449  -19.1280   22.8932 C   0  0  0  0  0  0  0  0  0  0  0  0
    7.4785  -18.4329   23.8817 C   0  0  0  0  0  0  0  0  0  0  0  0
    6.1855  -18.4237   23.5733 N   0  0  0  0  0  0  0  0  0  0  0  0
    6.0240  -19.0927   22.4206 C   0  0  0  0  0  0  0  0  0  0  0  0
    7.2177  -19.5382   21.9789 N   0  0  0  0  0  0  0  0  0  0  0  0
   11.8036  -18.2403   22.8276 C   0  0  0  0  0  0  0  0  0  0  0  0
   12.3370  -19.1929   22.1587 O   0  0  0  0  0  0  0  0  0  0  0  0
   12.6989  -17.4407   23.5790 N   0  0  0  0  0  0  0  0  0  0  0  0
   14.1458  -17.6573   23.5942 C   0  0  1  0  0  0  0  0  0  0  0  0
   14.8676  -16.5167   22.9718 C   0  0  0  0  0  0  0  0  0  0  0  0
   16.3474  -16.6463   22.9970 C   0  0  0  0  0  0  0  0  0  0  0  0
   17.0210  -15.4197   22.4482 C   0  0  0  0  0  0  0  0  0  0  0  0
   17.8238  -14.8551   23.2342 O   0  0  0  0  0  0  0  0  0  0  0  0
   14.6408  -17.9612   24.9317 C   0  0  0  0  0  0  0  0  0  0  0  0
   13.9798  -17.6198   26.0770 O   0  0  0  0  0  0  0  0  0  0  0  0
   16.8082  -14.9172   21.1924 O   0  0  0  0  0  0  0  0  0  0  0  0
   15.7583  -18.5800   25.0568 O   0  0  0  0  0  0  0  0  0  0  0  0
  2  1  1  6
  2  3  1  0
  4  2  1  0
  5  4  1  0
  5  6  1  6
  7  8  2  0
  7  5  1  0
  9  7  1  0
 10  9  1  0
 11 12  1  0
 10 11  1  6
 12 16  1  0
 13 12  2  0
 13 14  1  0
 14 15  1  0
 16 15  2  0
 17 10  1  0
 17 18  2  0
 19 17  1  0
 20 19  1  0
 20 21  1  1
 22 21  1  0
 23 22  1  0
 24 23  2  0
 25 20  1  0
 26 25  1  0
 27 23  1  0
 28 25  2  0
M  END
$$$$
