LHE.pdb
     RDKit          3D

 28 28  0  0  1  0  0  0  0  0999 V2000
    8.3476  -11.8457   19.4992 C   0  0  0  0  0  0  0  0  0  0  0  0
    8.0651  -13.2528   19.0397 C   0  0  2  0  0  0  0  0  0  0  0  0
    6.5915  -13.5692   19.0469 C   0  0  0  0  0  0  0  0  0  0  0  0
    8.8865  -14.2634   19.7713 C   0  0  0  0  0  0  0  0  0  0  0  0
   10.3387  -13.9310   19.8871 C   0  0  2  0  0  0  0  0  0  0  0  0
   10.8063  -13.2792   18.6979 N   0  0  0  0  0  0  0  0  0  0  0  0
   11.0787  -15.2030   20.1463 C   0  0  0  0  0  0  0  0  0  0  0  0
   10.6042  -16.0696   20.9473 O   0  0  0  0  0  0  0  0  0  0  0  0
   12.3136  -15.5264   19.5438 N   0  0  0  0  0  0  0  0  0  0  0  0
   13.0221  -16.7559   19.7845 C   0  0  1  0  0  0  0  0  0  0  0  0
   14.0189  -16.9476   18.6484 C   0  0  0  0  0  0  0  0  0  0  0  0
   13.3095  -17.4515   17.4466 C   0  0  0  0  0  0  0  0  0  0  0  0
   12.3908  -18.4798   17.3930 C   0  0  0  0  0  0  0  0  0  0  0  0
   11.9963  -18.6093   16.1301 N   0  0  0  0  0  0  0  0  0  0  0  0
   12.6415  -17.6916   15.3925 C   0  0  0  0  0  0  0  0  0  0  0  0
   13.4585  -16.9634   16.1803 N   0  0  0  0  0  0  0  0  0  0  0  0
   13.6397  -16.8380   21.1018 C   0  0  0  0  0  0  0  0  0  0  0  0
   14.3936  -15.8739   21.4779 O   0  0  0  0  0  0  0  0  0  0  0  0
   13.4877  -17.8971   22.0296 N   0  0  0  0  0  0  0  0  0  0  0  0
   14.0814  -17.8813   23.3668 C   0  0  1  0  0  0  0  0  0  0  0  0
   13.2881  -18.7028   24.3180 C   0  0  0  0  0  0  0  0  0  0  0  0
   13.8146  -18.7039   25.7072 C   0  0  0  0  0  0  0  0  0  0  0  0
   13.0209  -19.6159   26.6005 C   0  0  0  0  0  0  0  0  0  0  0  0
   11.8606  -19.2167   26.8748 O   0  0  0  0  0  0  0  0  0  0  0  0
   15.4886  -18.2631   23.3467 C   0  0  0  0  0  0  0  0  0  0  0  0
   16.3836  -17.8986   24.3118 O   0  0  0  0  0  0  0  0  0  0  0  0
   13.4848  -20.8025   27.1023 O   0  0  0  0  0  0  0  0  0  0  0  0
   15.9265  -18.9779   22.3747 O   0  0  0  0  0  0  0  0  0  0  0  0
  2  1  1  1
  2  3  1  0
  4  2  1  0
  5  4  1  0
  5  6  1  6
  7  8  2  0
  7  5  1  0
  9  7  1  0
 10  9  1  0
 11 12  1  0
 10 11  1  6
 12 16  1  0
 13 12  2  0
 13 14  1  0
 14 15  1  0
 16 15  2  0
 17 10  1  0
 17 18  2  0
 19 17  1  0
 20 19  1  0
 20 21  1  1
 22 21  1  0
 23 22  1  0
 24 23  2  0
 25 20  1  0
 26 25  1  0
 27 23  1  0
 28 25  2  0
M  END
$$$$
