LHE.pdb
     RDKit          3D

 28 28  0  0  1  0  0  0  0  0999 V2000
    6.1415  -20.3689   17.5465 C   0  0  0  0  0  0  0  0  0  0  0  0
    6.6417  -18.9954   17.1805 C   0  0  2  0  0  0  0  0  0  0  0  0
    6.5650  -18.7379   15.6974 C   0  0  0  0  0  0  0  0  0  0  0  0
    7.9900  -18.7111   17.7571 C   0  0  0  0  0  0  0  0  0  0  0  0
    8.0961  -18.9007   19.2355 C   0  0  2  0  0  0  0  0  0  0  0  0
    6.8001  -18.8480   19.8480 N   0  0  0  0  0  0  0  0  0  0  0  0
    9.0015  -17.8381   19.7680 C   0  0  0  0  0  0  0  0  0  0  0  0
   10.2274  -17.8109   19.4299 O   0  0  0  0  0  0  0  0  0  0  0  0
    8.5800  -16.8222   20.6529 N   0  0  0  0  0  0  0  0  0  0  0  0
    9.4441  -15.7809   21.1433 C   0  0  1  0  0  0  0  0  0  0  0  0
    8.6149  -14.5089   21.2664 C   0  0  0  0  0  0  0  0  0  0  0  0
    8.1784  -14.0696   19.9181 C   0  0  0  0  0  0  0  0  0  0  0  0
    7.1066  -13.2549   19.6150 C   0  0  0  0  0  0  0  0  0  0  0  0
    7.0664  -13.1077   18.2944 N   0  0  0  0  0  0  0  0  0  0  0  0
    8.0820  -13.8066   17.7629 C   0  0  0  0  0  0  0  0  0  0  0  0
    8.7845  -14.4102   18.7430 N   0  0  0  0  0  0  0  0  0  0  0  0
   10.1470  -16.1220   22.3735 C   0  0  0  0  0  0  0  0  0  0  0  0
    9.4506  -16.4288   23.4032 O   0  0  0  0  0  0  0  0  0  0  0  0
   11.5517  -16.1505   22.5509 N   0  0  0  0  0  0  0  0  0  0  0  0
   12.1965  -16.6892   23.7487 C   0  0  1  0  0  0  0  0  0  0  0  0
   12.6681  -18.0812   23.5266 C   0  0  0  0  0  0  0  0  0  0  0  0
   13.2488  -18.7268   24.7321 C   0  0  0  0  0  0  0  0  0  0  0  0
   13.7308  -20.1197   24.4375 C   0  0  0  0  0  0  0  0  0  0  0  0
   12.8361  -21.0032   24.4289 O   0  0  0  0  0  0  0  0  0  0  0  0
   13.2575  -15.8177   24.2396 C   0  0  0  0  0  0  0  0  0  0  0  0
   13.7755  -15.8956   25.5009 O   0  0  0  0  0  0  0  0  0  0  0  0
   15.0366  -20.4500   24.1908 O   0  0  0  0  0  0  0  0  0  0  0  0
   13.7396  -14.9215   23.4574 O   0  0  0  0  0  0  0  0  0  0  0  0
  2  1  1  6
  2  3  1  0
  4  2  1  0
  5  4  1  0
  5  6  1  1
  7  8  2  0
  7  5  1  0
  9  7  1  0
 10  9  1  0
 11 12  1  0
 10 11  1  1
 12 16  1  0
 13 12  2  0
 13 14  1  0
 14 15  1  0
 16 15  2  0
 17 10  1  0
 17 18  2  0
 19 17  1  0
 20 19  1  0
 20 21  1  6
 22 21  1  0
 23 22  1  0
 24 23  2  0
 25 20  1  0
 26 25  1  0
 27 23  1  0
 28 25  2  0
M  END
$$$$
