LHE.pdb
     RDKit          3D

 28 28  0  0  1  0  0  0  0  0999 V2000
    5.3488  -12.1580   26.3255 C   0  0  0  0  0  0  0  0  0  0  0  0
    6.5608  -12.7367   27.0090 C   0  0  2  0  0  0  0  0  0  0  0  0
    7.4960  -11.6670   27.5119 C   0  0  0  0  0  0  0  0  0  0  0  0
    7.2441  -13.7687   26.1729 C   0  0  0  0  0  0  0  0  0  0  0  0
    6.3420  -14.8109   25.5958 C   0  0  2  0  0  0  0  0  0  0  0  0
    5.9081  -15.7254   26.6122 N   0  0  0  0  0  0  0  0  0  0  0  0
    7.0901  -15.5100   24.5076 C   0  0  0  0  0  0  0  0  0  0  0  0
    7.7150  -16.5909   24.7504 O   0  0  0  0  0  0  0  0  0  0  0  0
    7.1568  -15.0410   23.1778 N   0  0  0  0  0  0  0  0  0  0  0  0
    7.9755  -15.6430   22.1586 C   0  0  1  0  0  0  0  0  0  0  0  0
    7.7340  -14.8835   20.8602 C   0  0  0  0  0  0  0  0  0  0  0  0
    8.3946  -15.5963   19.7391 C   0  0  0  0  0  0  0  0  0  0  0  0
    9.1851  -16.7245   19.8211 C   0  0  0  0  0  0  0  0  0  0  0  0
    9.5760  -17.0393   18.5902 N   0  0  0  0  0  0  0  0  0  0  0  0
    9.0529  -16.1409   17.7407 C   0  0  0  0  0  0  0  0  0  0  0  0
    8.3190  -15.2388   18.4235 N   0  0  0  0  0  0  0  0  0  0  0  0
    9.3872  -15.7360   22.5081 C   0  0  0  0  0  0  0  0  0  0  0  0
   10.0058  -14.6590   22.8193 O   0  0  0  0  0  0  0  0  0  0  0  0
   10.1620  -16.9209   22.5405 N   0  0  0  0  0  0  0  0  0  0  0  0
   11.5784  -16.9414   22.9066 C   0  0  1  0  0  0  0  0  0  0  0  0
   11.8427  -17.9343   23.9806 C   0  0  0  0  0  0  0  0  0  0  0  0
   11.0629  -17.7073   25.2247 C   0  0  0  0  0  0  0  0  0  0  0  0
   11.3790  -18.7371   26.2731 C   0  0  0  0  0  0  0  0  0  0  0  0
   11.5808  -19.8988   25.8362 O   0  0  0  0  0  0  0  0  0  0  0  0
   12.4417  -17.1374   21.7478 C   0  0  0  0  0  0  0  0  0  0  0  0
   13.7997  -16.9981   21.7860 O   0  0  0  0  0  0  0  0  0  0  0  0
   11.4526  -18.4765   27.6154 O   0  0  0  0  0  0  0  0  0  0  0  0
   11.9119  -17.4555   20.6229 O   0  0  0  0  0  0  0  0  0  0  0  0
  2  1  1  6
  2  3  1  0
  4  2  1  0
  5  4  1  0
  5  6  1  1
  7  8  2  0
  7  5  1  0
  9  7  1  0
 10  9  1  0
 11 12  1  0
 10 11  1  6
 12 16  1  0
 13 12  2  0
 13 14  1  0
 14 15  1  0
 16 15  2  0
 17 10  1  0
 17 18  2  0
 19 17  1  0
 20 19  1  0
 20 21  1  1
 22 21  1  0
 23 22  1  0
 24 23  2  0
 25 20  1  0
 26 25  1  0
 27 23  1  0
 28 25  2  0
M  END
$$$$
