LHE.pdb
     RDKit          3D

 28 28  0  0  1  0  0  0  0  0999 V2000
    7.5476  -14.2985   18.1998 C   0  0  0  0  0  0  0  0  0  0  0  0
    7.2141  -13.4666   19.4112 C   0  0  2  0  0  0  0  0  0  0  0  0
    6.8877  -12.0401   19.0501 C   0  0  0  0  0  0  0  0  0  0  0  0
    8.2523  -13.5793   20.4792 C   0  0  0  0  0  0  0  0  0  0  0  0
    8.5172  -14.9703   20.9566 C   0  0  2  0  0  0  0  0  0  0  0  0
    7.2879  -15.6865   21.1398 N   0  0  0  0  0  0  0  0  0  0  0  0
    9.2954  -14.8757   22.2286 C   0  0  0  0  0  0  0  0  0  0  0  0
   10.4827  -14.4196   22.2222 O   0  0  0  0  0  0  0  0  0  0  0  0
    8.7899  -15.2705   23.4862 N   0  0  0  0  0  0  0  0  0  0  0  0
    9.5350  -15.1709   24.7135 C   0  0  1  0  0  0  0  0  0  0  0  0
    8.5341  -15.0774   25.8582 C   0  0  0  0  0  0  0  0  0  0  0  0
    9.2519  -14.7717   27.1203 C   0  0  0  0  0  0  0  0  0  0  0  0
   10.6085  -14.5751   27.2791 C   0  0  0  0  0  0  0  0  0  0  0  0
   10.8369  -14.3251   28.5646 N   0  0  0  0  0  0  0  0  0  0  0  0
    9.6625  -14.3595   29.2142 C   0  0  0  0  0  0  0  0  0  0  0  0
    8.6673  -14.6331   28.3463 N   0  0  0  0  0  0  0  0  0  0  0  0
   10.5154  -16.2326   24.9016 C   0  0  0  0  0  0  0  0  0  0  0  0
   10.1271  -17.4454   24.7680 O   0  0  0  0  0  0  0  0  0  0  0  0
   11.8834  -16.0573   25.2231 N   0  0  0  0  0  0  0  0  0  0  0  0
   12.8450  -17.1594   25.2585 C   0  0  1  0  0  0  0  0  0  0  0  0
   14.1950  -16.7102   24.8287 C   0  0  0  0  0  0  0  0  0  0  0  0
   15.2402  -17.7632   24.9063 C   0  0  0  0  0  0  0  0  0  0  0  0
   16.4795  -17.3714   24.1511 C   0  0  0  0  0  0  0  0  0  0  0  0
   16.6910  -16.1341   24.0782 O   0  0  0  0  0  0  0  0  0  0  0  0
   12.8705  -17.8236   26.5564 C   0  0  0  0  0  0  0  0  0  0  0  0
   13.3422  -19.0911   26.7467 O   0  0  0  0  0  0  0  0  0  0  0  0
   17.3436  -18.2600   23.5692 O   0  0  0  0  0  0  0  0  0  0  0  0
   12.4264  -17.1979   27.5853 O   0  0  0  0  0  0  0  0  0  0  0  0
  2  1  1  6
  2  3  1  0
  4  2  1  0
  5  4  1  0
  5  6  1  1
  7  8  2  0
  7  5  1  0
  9  7  1  0
 10  9  1  0
 11 12  1  0
 10 11  1  1
 12 16  1  0
 13 12  2  0
 13 14  1  0
 14 15  1  0
 16 15  2  0
 17 10  1  0
 17 18  2  0
 19 17  1  0
 20 19  1  0
 20 21  1  1
 22 21  1  0
 23 22  1  0
 24 23  2  0
 25 20  1  0
 26 25  1  0
 27 23  1  0
 28 25  2  0
M  END
$$$$
