LHE.pdb
     RDKit          3D

 28 28  0  0  1  0  0  0  0  0999 V2000
    8.4751  -14.0011   18.5632 C   0  0  0  0  0  0  0  0  0  0  0  0
    7.9238  -13.1933   19.7096 C   0  0  2  0  0  0  0  0  0  0  0  0
    7.9911  -11.7108   19.4460 C   0  0  0  0  0  0  0  0  0  0  0  0
    8.5253  -13.5848   21.0196 C   0  0  0  0  0  0  0  0  0  0  0  0
    8.3935  -15.0323   21.3663 C   0  0  2  0  0  0  0  0  0  0  0  0
    7.0473  -15.4827   21.1604 N   0  0  0  0  0  0  0  0  0  0  0  0
    8.8205  -15.2017   22.7881 C   0  0  0  0  0  0  0  0  0  0  0  0
    9.9924  -14.8655   23.1506 O   0  0  0  0  0  0  0  0  0  0  0  0
    7.9863  -15.7276   23.7982 N   0  0  0  0  0  0  0  0  0  0  0  0
    8.4057  -15.9180   25.1618 C   0  0  1  0  0  0  0  0  0  0  0  0
    7.2109  -15.6252   26.0604 C   0  0  0  0  0  0  0  0  0  0  0  0
    6.9374  -14.1669   26.0615 C   0  0  0  0  0  0  0  0  0  0  0  0
    7.8655  -13.1463   26.0218 C   0  0  0  0  0  0  0  0  0  0  0  0
    7.2047  -11.9930   26.0373 N   0  0  0  0  0  0  0  0  0  0  0  0
    5.8904  -12.2626   26.0854 C   0  0  0  0  0  0  0  0  0  0  0  0
    5.6973  -13.5971   26.1012 N   0  0  0  0  0  0  0  0  0  0  0  0
    9.0070  -17.2196   25.4224 C   0  0  0  0  0  0  0  0  0  0  0  0
    8.2816  -18.2633   25.2676 O   0  0  0  0  0  0  0  0  0  0  0  0
   10.3404  -17.4543   25.8376 N   0  0  0  0  0  0  0  0  0  0  0  0
   10.8858  -18.7937   26.0595 C   0  0  1  0  0  0  0  0  0  0  0  0
   12.0854  -19.0333   25.2153 C   0  0  0  0  0  0  0  0  0  0  0  0
   12.8783  -17.8112   24.9235 C   0  0  0  0  0  0  0  0  0  0  0  0
   14.0354  -18.1056   24.0103 C   0  0  0  0  0  0  0  0  0  0  0  0
   14.6297  -19.1908   24.2349 O   0  0  0  0  0  0  0  0  0  0  0  0
   11.1420  -19.0547   27.4711 C   0  0  0  0  0  0  0  0  0  0  0  0
   11.6158  -20.2448   27.9448 O   0  0  0  0  0  0  0  0  0  0  0  0
   14.4483  -17.2838   22.9959 O   0  0  0  0  0  0  0  0  0  0  0  0
   10.9122  -18.1272   28.3280 O   0  0  0  0  0  0  0  0  0  0  0  0
  2  1  1  6
  2  3  1  0
  4  2  1  0
  5  4  1  0
  5  6  1  1
  7  8  2  0
  7  5  1  0
  9  7  1  0
 10  9  1  0
 11 12  1  0
 10 11  1  1
 12 16  1  0
 13 12  2  0
 13 14  1  0
 14 15  1  0
 16 15  2  0
 17 10  1  0
 17 18  2  0
 19 17  1  0
 20 19  1  0
 20 21  1  6
 22 21  1  0
 23 22  1  0
 24 23  2  0
 25 20  1  0
 26 25  1  0
 27 23  1  0
 28 25  2  0
M  END
$$$$
