LHE.pdb
     RDKit          3D

 28 28  0  0  1  0  0  0  0  0999 V2000
    7.6196  -14.1026   18.5735 C   0  0  0  0  0  0  0  0  0  0  0  0
    7.1824  -13.2595   19.7434 C   0  0  2  0  0  0  0  0  0  0  0  0
    7.6767  -11.8394   19.6383 C   0  0  0  0  0  0  0  0  0  0  0  0
    7.5056  -13.8983   21.0544 C   0  0  0  0  0  0  0  0  0  0  0  0
    6.8871  -15.2413   21.2707 C   0  0  2  0  0  0  0  0  0  0  0  0
    5.4625  -15.1745   21.1161 N   0  0  0  0  0  0  0  0  0  0  0  0
    7.2724  -15.7063   22.6374 C   0  0  0  0  0  0  0  0  0  0  0  0
    7.7175  -14.8791   23.4949 O   0  0  0  0  0  0  0  0  0  0  0  0
    7.1747  -17.0485   23.0636 N   0  0  0  0  0  0  0  0  0  0  0  0
    7.6297  -17.5141   24.3472 C   0  0  1  0  0  0  0  0  0  0  0  0
    6.6538  -18.5812   24.8268 C   0  0  0  0  0  0  0  0  0  0  0  0
    7.0531  -19.0463   26.1780 C   0  0  0  0  0  0  0  0  0  0  0  0
    8.0808  -18.5551   26.9569 C   0  0  0  0  0  0  0  0  0  0  0  0
    8.0986  -19.2463   28.0923 N   0  0  0  0  0  0  0  0  0  0  0  0
    7.1118  -20.1554   28.0460 C   0  0  0  0  0  0  0  0  0  0  0  0
    6.4505  -20.0537   26.8752 N   0  0  0  0  0  0  0  0  0  0  0  0
    9.0153  -17.9652   24.3589 C   0  0  0  0  0  0  0  0  0  0  0  0
    9.3792  -18.8252   23.4829 O   0  0  0  0  0  0  0  0  0  0  0  0
   10.0231  -17.5404   25.2586 N   0  0  0  0  0  0  0  0  0  0  0  0
   11.3920  -18.0561   25.2288 C   0  0  1  0  0  0  0  0  0  0  0  0
   12.3083  -17.1116   24.5378 C   0  0  0  0  0  0  0  0  0  0  0  0
   13.7178  -17.5753   24.4638 C   0  0  0  0  0  0  0  0  0  0  0  0
   14.5899  -16.5866   23.7418 C   0  0  0  0  0  0  0  0  0  0  0  0
   14.4492  -15.3896   24.1003 O   0  0  0  0  0  0  0  0  0  0  0  0
   11.8707  -18.4184   26.5577 C   0  0  0  0  0  0  0  0  0  0  0  0
   12.9421  -19.2365   26.7770 O   0  0  0  0  0  0  0  0  0  0  0  0
   15.4854  -16.9177   22.7603 O   0  0  0  0  0  0  0  0  0  0  0  0
   11.2615  -17.9541   27.5875 O   0  0  0  0  0  0  0  0  0  0  0  0
  2  1  1  6
  2  3  1  0
  4  2  1  0
  5  4  1  0
  5  6  1  1
  7  8  2  0
  7  5  1  0
  9  7  1  0
 10  9  1  0
 11 12  1  0
 10 11  1  6
 12 16  1  0
 13 12  2  0
 13 14  1  0
 14 15  1  0
 16 15  2  0
 17 10  1  0
 17 18  2  0
 19 17  1  0
 20 19  1  0
 20 21  1  1
 22 21  1  0
 23 22  1  0
 24 23  2  0
 25 20  1  0
 26 25  1  0
 27 23  1  0
 28 25  2  0
M  END
$$$$
