LHE.pdb
     RDKit          3D

 28 28  0  0  1  0  0  0  0  0999 V2000
    7.6730  -12.9311   18.9828 C   0  0  0  0  0  0  0  0  0  0  0  0
    7.4415  -13.4881   20.3637 C   0  0  2  0  0  0  0  0  0  0  0  0
    7.4456  -12.4126   21.4197 C   0  0  0  0  0  0  0  0  0  0  0  0
    8.3599  -14.6234   20.6781 C   0  0  0  0  0  0  0  0  0  0  0  0
    8.3175  -15.7565   19.7048 C   0  0  2  0  0  0  0  0  0  0  0  0
    7.0087  -16.3423   19.6651 N   0  0  0  0  0  0  0  0  0  0  0  0
    9.3544  -16.7505   20.1164 C   0  0  0  0  0  0  0  0  0  0  0  0
    9.0902  -17.6238   21.0026 O   0  0  0  0  0  0  0  0  0  0  0  0
   10.6564  -16.7936   19.5726 N   0  0  0  0  0  0  0  0  0  0  0  0
   11.6947  -17.6660   20.0544 C   0  0  1  0  0  0  0  0  0  0  0  0
   12.7236  -17.8220   18.9418 C   0  0  0  0  0  0  0  0  0  0  0  0
   12.2653  -18.8594   17.9850 C   0  0  0  0  0  0  0  0  0  0  0  0
   11.5722  -20.0155   18.2804 C   0  0  0  0  0  0  0  0  0  0  0  0
   11.3563  -20.6644   17.1405 N   0  0  0  0  0  0  0  0  0  0  0  0
   11.8940  -19.9476   16.1408 C   0  0  0  0  0  0  0  0  0  0  0  0
   12.4616  -18.8283   16.6342 N   0  0  0  0  0  0  0  0  0  0  0  0
   12.2849  -17.2459   21.3189 C   0  0  0  0  0  0  0  0  0  0  0  0
   12.6930  -16.0369   21.4242 O   0  0  0  0  0  0  0  0  0  0  0  0
   12.4566  -18.0547   22.4687 N   0  0  0  0  0  0  0  0  0  0  0  0
   13.1045  -17.5802   23.6917 C   0  0  1  0  0  0  0  0  0  0  0  0
   12.7820  -18.4577   24.8472 C   0  0  0  0  0  0  0  0  0  0  0  0
   13.4984  -18.1029   26.0994 C   0  0  0  0  0  0  0  0  0  0  0  0
   13.1628  -19.0497   27.2178 C   0  0  0  0  0  0  0  0  0  0  0  0
   12.6327  -18.5176   28.2262 O   0  0  0  0  0  0  0  0  0  0  0  0
   14.5411  -17.4012   23.5173 C   0  0  0  0  0  0  0  0  0  0  0  0
   15.2751  -18.0617   22.5738 O   0  0  0  0  0  0  0  0  0  0  0  0
   13.3981  -20.3982   27.1860 O   0  0  0  0  0  0  0  0  0  0  0  0
   15.1651  -16.5845   24.2861 O   0  0  0  0  0  0  0  0  0  0  0  0
  2  1  1  6
  2  3  1  0
  4  2  1  0
  5  4  1  0
  5  6  1  1
  7  8  2  0
  7  5  1  0
  9  7  1  0
 10  9  1  0
 11 12  1  0
 10 11  1  6
 12 16  1  0
 13 12  2  0
 13 14  1  0
 14 15  1  0
 16 15  2  0
 17 10  1  0
 17 18  2  0
 19 17  1  0
 20 19  1  0
 20 21  1  1
 22 21  1  0
 23 22  1  0
 24 23  2  0
 25 20  1  0
 26 25  1  0
 27 23  1  0
 28 25  2  0
M  END
$$$$
