LHE.pdb
     RDKit          3D

 28 28  0  0  1  0  0  0  0  0999 V2000
    9.3645  -12.4336   19.4458 C   0  0  0  0  0  0  0  0  0  0  0  0
    8.1590  -12.9670   20.1759 C   0  0  2  0  0  0  0  0  0  0  0  0
    7.4576  -11.8981   20.9741 C   0  0  0  0  0  0  0  0  0  0  0  0
    8.4760  -14.1864   20.9782 C   0  0  0  0  0  0  0  0  0  0  0  0
    9.2132  -15.2544   20.2373 C   0  0  2  0  0  0  0  0  0  0  0  0
    8.4147  -15.7700   19.1630 N   0  0  0  0  0  0  0  0  0  0  0  0
    9.5754  -16.3226   21.2173 C   0  0  0  0  0  0  0  0  0  0  0  0
    8.8428  -16.5348   22.2352 O   0  0  0  0  0  0  0  0  0  0  0  0
   10.7152  -17.1459   21.0916 N   0  0  0  0  0  0  0  0  0  0  0  0
   10.9849  -18.2724   21.9458 C   0  0  1  0  0  0  0  0  0  0  0  0
   11.6750  -19.3386   21.1044 C   0  0  0  0  0  0  0  0  0  0  0  0
   11.9176  -20.5444   21.9342 C   0  0  0  0  0  0  0  0  0  0  0  0
   11.5166  -20.7512   23.2384 C   0  0  0  0  0  0  0  0  0  0  0  0
   11.9339  -21.9583   23.6071 N   0  0  0  0  0  0  0  0  0  0  0  0
   12.5841  -22.5124   22.5714 C   0  0  0  0  0  0  0  0  0  0  0  0
   12.5888  -21.6609   21.5257 N   0  0  0  0  0  0  0  0  0  0  0  0
   11.7246  -17.9371   23.1558 C   0  0  0  0  0  0  0  0  0  0  0  0
   12.7403  -17.1647   23.0498 O   0  0  0  0  0  0  0  0  0  0  0  0
   11.4288  -18.3868   24.4657 N   0  0  0  0  0  0  0  0  0  0  0  0
   12.1712  -17.9507   25.6486 C   0  0  1  0  0  0  0  0  0  0  0  0
   11.4104  -18.2286   26.8948 C   0  0  0  0  0  0  0  0  0  0  0  0
   12.1246  -17.8501   28.1413 C   0  0  0  0  0  0  0  0  0  0  0  0
   11.2894  -18.1173   29.3622 C   0  0  0  0  0  0  0  0  0  0  0  0
   10.1584  -18.6179   29.1358 O   0  0  0  0  0  0  0  0  0  0  0  0
   13.5181  -18.5082   25.6872 C   0  0  0  0  0  0  0  0  0  0  0  0
   13.8065  -19.8072   25.3793 O   0  0  0  0  0  0  0  0  0  0  0  0
   11.6883  -17.8522   30.6450 O   0  0  0  0  0  0  0  0  0  0  0  0
   14.4963  -17.7512   26.0298 O   0  0  0  0  0  0  0  0  0  0  0  0
  2  1  1  1
  2  3  1  0
  4  2  1  0
  5  4  1  0
  5  6  1  6
  7  8  2  0
  7  5  1  0
  9  7  1  0
 10  9  1  0
 11 12  1  0
 10 11  1  6
 12 16  1  0
 13 12  2  0
 13 14  1  0
 14 15  1  0
 16 15  2  0
 17 10  1  0
 17 18  2  0
 19 17  1  0
 20 19  1  0
 20 21  1  1
 22 21  1  0
 23 22  1  0
 24 23  2  0
 25 20  1  0
 26 25  1  0
 27 23  1  0
 28 25  2  0
M  END
$$$$
