TGL.pdb
     RDKit          3D

 20 19  0  0  1  0  0  0  0  0999 V2000
   17.2712  -12.4168  -18.4353 C   0  0  0  0  0  0  0  0  0  0  0  0
   17.8121  -11.8071  -17.1687 C   0  0  1  0  0  0  0  0  0  0  0  0
   18.0678  -12.7889  -16.2141 O   0  0  0  0  0  0  0  0  0  0  0  0
   19.0943  -11.0542  -17.4572 C   0  0  2  0  0  0  0  0  0  0  0  0
   20.1588  -11.9130  -17.8692 N   0  0  0  0  0  0  0  0  0  0  0  0
   19.5132  -10.2789  -16.2790 C   0  0  0  0  0  0  0  0  0  0  0  0
   18.7134   -9.5157  -15.7087 O   0  0  0  0  0  0  0  0  0  0  0  0
   20.8322  -10.4065  -15.7979 N   0  0  0  0  0  0  0  0  0  0  0  0
   21.3075   -9.6720  -14.6476 C   0  0  0  0  0  0  0  0  0  0  0  0
   21.4470   -8.2346  -15.0705 C   0  0  0  0  0  0  0  0  0  0  0  0
   21.7810   -7.9400  -16.2671 O   0  0  0  0  0  0  0  0  0  0  0  0
   20.7971   -3.6727  -16.8165 C   0  0  0  0  0  0  0  0  0  0  0  0
   20.0901   -3.8007  -15.4341 C   0  0  1  0  0  0  0  0  0  0  0  0
   18.6491   -3.3552  -15.6574 C   0  0  0  0  0  0  0  0  0  0  0  0
   20.1769   -5.2159  -14.9906 C   0  0  0  0  0  0  0  0  0  0  0  0
   21.5070   -5.7624  -14.6079 C   0  0  2  0  0  0  0  0  0  0  0  0
   21.2149   -7.1765  -14.1653 N   0  0  0  0  0  0  0  0  0  0  0  0
   22.2991   -5.1124  -13.5884 C   0  0  0  0  0  0  0  0  0  0  0  0
   22.9144   -4.0245  -13.9073 O   0  0  0  0  0  0  0  0  0  0  0  0
   22.4912   -5.4955  -12.2786 O   0  0  0  0  0  0  0  0  0  0  0  0
  2  1  1  6
  2  4  1  0
  3  2  1  0
  4  5  1  1
  6  4  1  0
  6  7  2  0
  8  6  1  0
  9  8  1  0
  9 10  1  0
 10 11  2  0
 10 17  1  0
 13 15  1  0
 13 14  1  6
 13 12  1  0
 16 15  1  1
 16 18  1  0
 17 16  1  0
 18 19  2  0
 18 20  1  0
M  END
$$$$
