TGL.pdb
     RDKit          3D

 20 19  0  0  1  0  0  0  0  0999 V2000
   15.1951  -12.6197  -17.9121 C   0  0  0  0  0  0  0  0  0  0  0  0
   15.7776  -11.2479  -18.1299 C   0  0  1  0  0  0  0  0  0  0  0  0
   15.0576  -10.2847  -17.4267 O   0  0  0  0  0  0  0  0  0  0  0  0
   17.2215  -11.2148  -17.6737 C   0  0  2  0  0  0  0  0  0  0  0  0
   17.3744  -11.5652  -16.2974 N   0  0  0  0  0  0  0  0  0  0  0  0
   17.8074   -9.8866  -17.9130 C   0  0  0  0  0  0  0  0  0  0  0  0
   17.8321   -9.4048  -19.0597 O   0  0  0  0  0  0  0  0  0  0  0  0
   18.3433   -9.1595  -16.8305 N   0  0  0  0  0  0  0  0  0  0  0  0
   18.9367   -7.8525  -16.9982 C   0  0  0  0  0  0  0  0  0  0  0  0
   19.3206   -7.3646  -15.6274 C   0  0  0  0  0  0  0  0  0  0  0  0
   18.6492   -7.7196  -14.6010 O   0  0  0  0  0  0  0  0  0  0  0  0
   22.8063   -9.9934  -13.2019 C   0  0  0  0  0  0  0  0  0  0  0  0
   21.5866   -9.0294  -13.3019 C   0  0  1  0  0  0  0  0  0  0  0  0
   21.4006   -8.4426  -11.9070 C   0  0  0  0  0  0  0  0  0  0  0  0
   21.8938   -7.9851  -14.3129 C   0  0  0  0  0  0  0  0  0  0  0  0
   21.2490   -6.6509  -14.1779 C   0  0  2  0  0  0  0  0  0  0  0  0
   20.4252   -6.5068  -15.4355 N   0  0  0  0  0  0  0  0  0  0  0  0
   22.0549   -5.4622  -14.0135 C   0  0  0  0  0  0  0  0  0  0  0  0
   22.5460   -4.9170  -15.0745 O   0  0  0  0  0  0  0  0  0  0  0  0
   22.3779   -4.8003  -12.8487 O   0  0  0  0  0  0  0  0  0  0  0  0
  2  1  1  1
  2  4  1  0
  3  2  1  0
  4  5  1  1
  6  4  1  0
  6  7  2  0
  8  6  1  0
  9  8  1  0
  9 10  1  0
 10 11  2  0
 10 17  1  0
 13 15  1  0
 13 14  1  1
 13 12  1  0
 16 15  1  6
 16 18  1  0
 17 16  1  0
 18 19  2  0
 18 20  1  0
M  END
$$$$
