TGL.pdb
     RDKit          3D

 20 19  0  0  1  0  0  0  0  0999 V2000
   26.1895  -22.2784  -18.5480 C   0  0  0  0  0  0  0  0  0  0  0  0
   26.3078  -21.2795  -17.4268 C   0  0  1  0  0  0  0  0  0  0  0  0
   25.0614  -21.0133  -16.8646 O   0  0  0  0  0  0  0  0  0  0  0  0
   27.2314  -21.8096  -16.3498 C   0  0  2  0  0  0  0  0  0  0  0  0
   26.7716  -23.0373  -15.7826 N   0  0  0  0  0  0  0  0  0  0  0  0
   27.4093  -20.8099  -15.2852 C   0  0  0  0  0  0  0  0  0  0  0  0
   27.8498  -19.6771  -15.5503 O   0  0  0  0  0  0  0  0  0  0  0  0
   27.0761  -21.1444  -13.9568 N   0  0  0  0  0  0  0  0  0  0  0  0
   27.1366  -20.1813  -12.8811 C   0  0  0  0  0  0  0  0  0  0  0  0
   26.3692  -20.7640  -11.7252 C   0  0  0  0  0  0  0  0  0  0  0  0
   25.7593  -21.8791  -11.8479 O   0  0  0  0  0  0  0  0  0  0  0  0
   27.7361  -18.8859   -6.8034 C   0  0  0  0  0  0  0  0  0  0  0  0
   27.4894  -19.8260   -8.0210 C   0  0  1  0  0  0  0  0  0  0  0  0
   28.2778  -21.0991   -7.7342 C   0  0  0  0  0  0  0  0  0  0  0  0
   26.0301  -20.0827   -8.1290 C   0  0  0  0  0  0  0  0  0  0  0  0
   25.5109  -20.7371   -9.3604 C   0  0  2  0  0  0  0  0  0  0  0  0
   26.3003  -20.1018  -10.4804 N   0  0  0  0  0  0  0  0  0  0  0  0
   24.1048  -20.6683   -9.6881 C   0  0  0  0  0  0  0  0  0  0  0  0
   23.2870  -21.3698   -8.9789 O   0  0  0  0  0  0  0  0  0  0  0  0
   23.4904  -19.9301  -10.6764 O   0  0  0  0  0  0  0  0  0  0  0  0
  2  1  1  6
  2  4  1  0
  3  2  1  0
  4  5  1  1
  6  4  1  0
  6  7  2  0
  8  6  1  0
  9  8  1  0
  9 10  1  0
 10 11  2  0
 10 17  1  0
 13 15  1  0
 13 14  1  1
 13 12  1  0
 16 15  1  1
 16 18  1  0
 17 16  1  0
 18 19  2  0
 18 20  1  0
M  END
$$$$
