TGL.pdb
     RDKit          3D

 20 19  0  0  1  0  0  0  0  0999 V2000
   15.6888  -10.5775  -17.2743 C   0  0  0  0  0  0  0  0  0  0  0  0
   15.8991  -10.3426  -15.8014 C   0  0  1  0  0  0  0  0  0  0  0  0
   14.8892  -10.9431  -15.0531 O   0  0  0  0  0  0  0  0  0  0  0  0
   17.2361  -10.9069  -15.3678 C   0  0  2  0  0  0  0  0  0  0  0  0
   17.3866  -12.2882  -15.6992 N   0  0  0  0  0  0  0  0  0  0  0  0
   17.4288  -10.7225  -13.9209 C   0  0  0  0  0  0  0  0  0  0  0  0
   17.4151  -11.7008  -13.1526 O   0  0  0  0  0  0  0  0  0  0  0  0
   17.6300   -9.4250  -13.4078 N   0  0  0  0  0  0  0  0  0  0  0  0
   17.9360   -9.1854  -12.0159 C   0  0  0  0  0  0  0  0  0  0  0  0
   16.8576   -8.2847  -11.4770 C   0  0  0  0  0  0  0  0  0  0  0  0
   16.0302   -7.7188  -12.2678 O   0  0  0  0  0  0  0  0  0  0  0  0
   12.5390   -7.1281   -9.0119 C   0  0  0  0  0  0  0  0  0  0  0  0
   13.7034   -7.2244   -7.9813 C   0  0  1  0  0  0  0  0  0  0  0  0
   13.1672   -8.0531   -6.8193 C   0  0  0  0  0  0  0  0  0  0  0  0
   14.8649   -7.8725   -8.6430 C   0  0  0  0  0  0  0  0  0  0  0  0
   15.6616   -7.0813   -9.6195 C   0  0  2  0  0  0  0  0  0  0  0  0
   16.7284   -8.0398  -10.0928 N   0  0  0  0  0  0  0  0  0  0  0  0
   16.2948   -5.8460   -9.2166 C   0  0  0  0  0  0  0  0  0  0  0  0
   17.4307   -5.9222   -8.6101 O   0  0  0  0  0  0  0  0  0  0  0  0
   15.8491   -4.5549   -9.4007 O   0  0  0  0  0  0  0  0  0  0  0  0
  2  1  1  6
  2  4  1  0
  3  2  1  0
  4  5  1  1
  6  4  1  0
  6  7  2  0
  8  6  1  0
  9  8  1  0
  9 10  1  0
 10 11  2  0
 10 17  1  0
 13 15  1  0
 13 14  1  1
 13 12  1  0
 16 15  1  1
 16 18  1  0
 17 16  1  0
 18 19  2  0
 18 20  1  0
M  END
$$$$
