TGL.pdb
     RDKit          3D

 20 19  0  0  1  0  0  0  0  0999 V2000
   27.2890  -22.3741  -16.4227 C   0  0  0  0  0  0  0  0  0  0  0  0
   27.2846  -22.1623  -14.9315 C   0  0  1  0  0  0  0  0  0  0  0  0
   28.5838  -22.1343  -14.4295 O   0  0  0  0  0  0  0  0  0  0  0  0
   26.5962  -20.8569  -14.5910 C   0  0  2  0  0  0  0  0  0  0  0  0
   27.1197  -19.7484  -15.3241 N   0  0  0  0  0  0  0  0  0  0  0  0
   26.6922  -20.5843  -13.1484 C   0  0  0  0  0  0  0  0  0  0  0  0
   27.5032  -19.7454  -12.7172 O   0  0  0  0  0  0  0  0  0  0  0  0
   25.8560  -21.2824  -12.2534 N   0  0  0  0  0  0  0  0  0  0  0  0
   25.3936  -20.6978  -11.0153 C   0  0  0  0  0  0  0  0  0  0  0  0
   23.8895  -20.7357  -11.0457 C   0  0  0  0  0  0  0  0  0  0  0  0
   23.2074  -20.1346  -10.1492 O   0  0  0  0  0  0  0  0  0  0  0  0
   22.5260  -18.1416  -15.4867 C   0  0  0  0  0  0  0  0  0  0  0  0
   21.6883  -18.9105  -14.4216 C   0  0  1  0  0  0  0  0  0  0  0  0
   20.5505  -19.5786  -15.1855 C   0  0  0  0  0  0  0  0  0  0  0  0
   22.5718  -19.9002  -13.7530 C   0  0  0  0  0  0  0  0  0  0  0  0
   21.9921  -20.7741  -12.6973 C   0  0  2  0  0  0  0  0  0  0  0  0
   23.1923  -21.4307  -12.0574 N   0  0  0  0  0  0  0  0  0  0  0  0
   21.0323  -21.7986  -13.0413 C   0  0  0  0  0  0  0  0  0  0  0  0
   21.4840  -22.9163  -13.5003 O   0  0  0  0  0  0  0  0  0  0  0  0
   19.6587  -21.7553  -12.9381 O   0  0  0  0  0  0  0  0  0  0  0  0
  2  1  1  6
  2  4  1  0
  3  2  1  0
  4  5  1  6
  6  4  1  0
  6  7  2  0
  8  6  1  0
  9  8  1  0
  9 10  1  0
 10 11  2  0
 10 17  1  0
 13 15  1  0
 13 14  1  6
 13 12  1  0
 16 15  1  6
 16 18  1  0
 17 16  1  0
 18 19  2  0
 18 20  1  0
M  END
$$$$
