KQY.pdb
     RDKit          3D

 31 31  0  0  1  0  0  0  0  0999 V2000
    6.4902  -16.9195   20.1867 N   0  0  0  0  0  0  0  0  0  0  0  0
    7.2122  -16.2793   21.2193 C   0  0  1  0  0  0  0  0  0  0  0  0
    7.1886  -14.7882   21.2580 C   0  0  0  0  0  0  0  0  0  0  0  0
    7.5475  -14.0836   20.0123 C   0  0  0  0  0  0  0  0  0  0  0  0
    8.6108  -13.0484   20.0736 C   0  0  0  0  0  0  0  0  0  0  0  0
    8.8150  -12.2559   18.8198 C   0  0  0  0  0  0  0  0  0  0  0  0
    9.0100  -13.0296   17.6308 N   0  0  0  0  0  0  0  0  0  0  0  0
    6.8129  -16.8282   22.5483 C   0  0  0  0  0  0  0  0  0  0  0  0
    5.5818  -17.1100   22.7030 O   0  0  0  0  0  0  0  0  0  0  0  0
    9.8886  -19.5806   27.3384 N   0  0  0  0  0  0  0  0  0  0  0  0
    8.5008  -19.7776   27.6403 C   0  0  0  0  0  0  0  0  0  0  0  0
    8.0948  -20.6308   28.4368 O   0  0  0  0  0  0  0  0  0  0  0  0
    7.5600  -18.8792   26.9251 C   0  0  0  0  0  0  0  0  0  0  0  0
    8.0364  -18.3920   25.6056 C   0  0  0  0  0  0  0  0  0  0  0  0
    7.0646  -17.5067   24.9062 C   0  0  2  0  0  0  0  0  0  0  0  0
    7.6679  -17.0569   23.6298 N   0  0  0  0  0  0  0  0  0  0  0  0
    6.8531  -16.2611   25.6691 C   0  0  0  0  0  0  0  0  0  0  0  0
    6.0901  -16.2612   26.7022 O   0  0  0  0  0  0  0  0  0  0  0  0
   11.3798  -16.4054   30.0850 O   0  0  0  0  0  0  0  0  0  0  0  0
   10.6400  -15.6064   29.2207 C   0  0  0  0  0  0  0  0  0  0  0  0
   10.8272  -15.7904   27.8605 C   0  0  0  0  0  0  0  0  0  0  0  0
   10.1142  -15.0201   26.9888 C   0  0  0  0  0  0  0  0  0  0  0  0
    9.2199  -14.0722   27.4829 C   0  0  0  0  0  0  0  0  0  0  0  0
    8.4894  -13.2641   26.5124 C   0  0  0  0  0  0  0  0  0  0  0  0
    7.1137  -13.8569   26.1728 C   0  0  2  0  0  0  0  0  0  0  0  0
    7.4549  -15.0315   25.3364 N   0  0  0  0  0  0  0  0  0  0  0  0
    6.3856  -12.8436   25.3816 C   0  0  0  0  0  0  0  0  0  0  0  0
    6.1788  -12.9148   24.1635 O   0  0  0  0  0  0  0  0  0  0  0  0
    9.0210  -13.8753   28.8318 C   0  0  0  0  0  0  0  0  0  0  0  0
    9.7601  -14.6735   29.6966 C   0  0  0  0  0  0  0  0  0  0  0  0
    5.8921  -11.7263   26.0393 O   0  0  0  0  0  0  0  0  0  0  0  0
  2  1  1  6
  3  4  1  0
  3  2  1  0
  5  4  1  0
  6  5  1  0
  7  6  1  0
  8  9  2  0
  8  2  1  0
 10 11  1  0
 11 12  2  0
 13 11  1  0
 13 14  1  0
 15 14  1  1
 15 17  1  0
 15 16  1  0
 16  8  1  0
 17 26  1  0
 18 17  2  0
 19 20  1  0
 20 30  2  0
 20 21  1  0
 21 22  2  0
 22 23  1  0
 23 24  1  0
 25 24  1  6
 25 27  1  0
 26 25  1  0
 27 28  2  0
 27 31  1  0
 29 23  2  0
 30 29  1  0
M  END
$$$$
