VKC.pdb
     RDKit          3D

 23 22  0  0  1  0  0  0  0  0999 V2000
    6.2889  -14.3834   19.9045 C   0  0  0  0  0  0  0  0  0  0  0  0
    7.5312  -13.4825   19.9542 C   0  0  2  0  0  0  0  0  0  0  0  0
    7.9223  -13.2305   18.5166 C   0  0  0  0  0  0  0  0  0  0  0  0
    8.5668  -14.2457   20.7398 C   0  0  2  0  0  0  0  0  0  0  0  0
    8.7991  -15.4810   19.9614 N   0  0  0  0  0  0  0  0  0  0  0  0
    8.1723  -14.6219   22.0914 C   0  0  0  0  0  0  0  0  0  0  0  0
    7.8451  -13.6695   22.8935 O   0  0  0  0  0  0  0  0  0  0  0  0
    8.0978  -15.9048   22.6453 N   0  0  0  0  0  0  0  0  0  0  0  0
    7.6426  -16.1714   24.0136 C   0  0  1  0  0  0  0  0  0  0  0  0
    7.7254  -17.6659   24.1656 C   0  0  0  0  0  0  0  0  0  0  0  0
    7.3497  -18.1441   25.5307 C   0  0  0  0  0  0  0  0  0  0  0  0
    7.4885  -19.6586   25.6396 C   0  0  0  0  0  0  0  0  0  0  0  0
    7.1366  -20.0077   27.0772 C   0  0  0  0  0  0  0  0  0  0  0  0
    7.3524  -21.4370   27.2839 N   0  0  0  0  0  0  0  0  0  0  0  0
    8.4128  -15.4737   25.0247 C   0  0  0  0  0  0  0  0  0  0  0  0
    9.6789  -15.5912   25.0630 O   0  0  0  0  0  0  0  0  0  0  0  0
    7.8879  -14.6199   26.0424 N   0  0  0  0  0  0  0  0  0  0  0  0
    8.7482  -13.8755   26.9446 C   0  0  1  0  0  0  0  0  0  0  0  0
    8.0257  -12.7218   27.5939 C   0  0  0  0  0  0  0  0  0  0  0  0
    6.4296  -12.3974   26.7656 S   0  0  0  0  0  0  0  0  0  0  0  0
    9.2308  -14.8151   27.9821 C   0  0  0  0  0  0  0  0  0  0  0  0
   10.1151  -14.4612   28.9893 O   0  0  0  0  0  0  0  0  0  0  0  0
    8.8190  -15.9992   27.9509 O   0  0  0  0  0  0  0  0  0  0  0  0
  2  1  1  6
  3  2  1  0
  4  6  1  0
  4  5  1  6
  4  2  1  0
  6  7  2  0
  8  9  1  0
  8  6  1  0
  9 15  1  0
 10 11  1  0
  9 10  1  1
 12 11  1  0
 13 14  1  0
 13 12  1  0
 15 17  1  0
 15 16  2  0
 17 18  1  0
 18 21  1  0
 18 19  1  1
 20 19  1  0
 21 23  2  0
 21 22  1  0
M  END
$$$$
