VKC.pdb
     RDKit          3D

 23 22  0  0  1  0  0  0  0  0999 V2000
    7.8842  -12.7747   27.3527 C   0  0  0  0  0  0  0  0  0  0  0  0
    7.0290  -12.0557   26.2994 C   0  0  2  0  0  0  0  0  0  0  0  0
    6.1091  -11.1343   27.0662 C   0  0  0  0  0  0  0  0  0  0  0  0
    6.3072  -13.1393   25.5401 C   0  0  2  0  0  0  0  0  0  0  0  0
    5.6218  -13.9381   26.5783 N   0  0  0  0  0  0  0  0  0  0  0  0
    7.1595  -14.0304   24.7632 C   0  0  0  0  0  0  0  0  0  0  0  0
    7.5307  -15.1266   25.3273 O   0  0  0  0  0  0  0  0  0  0  0  0
    7.6367  -13.8525   23.4598 N   0  0  0  0  0  0  0  0  0  0  0  0
    8.4968  -14.8212   22.7725 C   0  0  1  0  0  0  0  0  0  0  0  0
    9.0589  -14.0732   21.5943 C   0  0  0  0  0  0  0  0  0  0  0  0
    8.0090  -13.5623   20.6615 C   0  0  0  0  0  0  0  0  0  0  0  0
    8.3537  -13.8918   19.2133 C   0  0  0  0  0  0  0  0  0  0  0  0
    7.2292  -13.3070   18.3731 C   0  0  0  0  0  0  0  0  0  0  0  0
    7.4951  -13.5872   16.9649 N   0  0  0  0  0  0  0  0  0  0  0  0
    9.5368  -15.3726   23.6191 C   0  0  0  0  0  0  0  0  0  0  0  0
   10.4215  -14.6131   24.1276 O   0  0  0  0  0  0  0  0  0  0  0  0
    9.6950  -16.7479   23.9706 N   0  0  0  0  0  0  0  0  0  0  0  0
   10.8273  -17.2208   24.7467 C   0  0  1  0  0  0  0  0  0  0  0  0
   10.3958  -17.9102   26.0168 C   0  0  0  0  0  0  0  0  0  0  0  0
    9.3391  -16.8170   27.0303 S   0  0  0  0  0  0  0  0  0  0  0  0
   11.5917  -18.1625   23.8976 C   0  0  0  0  0  0  0  0  0  0  0  0
   12.7871  -18.7493   24.2828 O   0  0  0  0  0  0  0  0  0  0  0  0
   11.1354  -18.4474   22.7648 O   0  0  0  0  0  0  0  0  0  0  0  0
  2  1  1  1
  3  2  1  0
  4  6  1  0
  4  5  1  1
  4  2  1  0
  6  7  2  0
  8  9  1  0
  8  6  1  0
  9 15  1  0
 10 11  1  0
  9 10  1  6
 12 11  1  0
 13 14  1  0
 13 12  1  0
 15 17  1  0
 15 16  2  0
 17 18  1  0
 18 21  1  0
 18 19  1  1
 20 19  1  0
 21 23  2  0
 21 22  1  0
M  END
$$$$
