VKC.pdb
     RDKit          3D

 23 22  0  0  1  0  0  0  0  0999 V2000
    8.1783  -13.4573   18.3529 C   0  0  0  0  0  0  0  0  0  0  0  0
    7.4758  -13.6406   19.7058 C   0  0  2  0  0  0  0  0  0  0  0  0
    8.0724  -12.6048   20.6301 C   0  0  0  0  0  0  0  0  0  0  0  0
    7.7514  -15.0611   20.1280 C   0  0  2  0  0  0  0  0  0  0  0  0
    6.9807  -15.8947   19.1810 N   0  0  0  0  0  0  0  0  0  0  0  0
    7.3355  -15.4011   21.4828 C   0  0  0  0  0  0  0  0  0  0  0  0
    6.0700  -15.4323   21.7175 O   0  0  0  0  0  0  0  0  0  0  0  0
    8.1424  -15.7063   22.5845 N   0  0  0  0  0  0  0  0  0  0  0  0
    7.6163  -15.9507   23.9313 C   0  0  1  0  0  0  0  0  0  0  0  0
    8.0322  -17.3586   24.2605 C   0  0  0  0  0  0  0  0  0  0  0  0
    7.6017  -17.8003   25.6217 C   0  0  0  0  0  0  0  0  0  0  0  0
    8.0872  -19.2148   25.9192 C   0  0  0  0  0  0  0  0  0  0  0  0
    7.6045  -19.5348   27.3252 C   0  0  0  0  0  0  0  0  0  0  0  0
    8.0252  -20.8889   27.6738 N   0  0  0  0  0  0  0  0  0  0  0  0
    8.0851  -14.9958   24.9165 C   0  0  0  0  0  0  0  0  0  0  0  0
    9.3169  -14.6832   24.9733 O   0  0  0  0  0  0  0  0  0  0  0  0
    7.2808  -14.3247   25.8875 N   0  0  0  0  0  0  0  0  0  0  0  0
    7.8148  -13.2802   26.7431 C   0  0  1  0  0  0  0  0  0  0  0  0
    6.7236  -12.4800   27.4092 C   0  0  0  0  0  0  0  0  0  0  0  0
    5.3759  -12.1030   26.2344 S   0  0  0  0  0  0  0  0  0  0  0  0
    8.6609  -13.9297   27.7698 C   0  0  0  0  0  0  0  0  0  0  0  0
    8.8402  -15.3010   27.8643 O   0  0  0  0  0  0  0  0  0  0  0  0
    9.2501  -13.2012   28.6035 O   0  0  0  0  0  0  0  0  0  0  0  0
  2  1  1  6
  3  2  1  0
  4  6  1  0
  4  5  1  6
  4  2  1  0
  6  7  2  0
  8  9  1  0
  8  6  1  0
  9 15  1  0
 10 11  1  0
  9 10  1  1
 12 11  1  0
 13 14  1  0
 13 12  1  0
 15 17  1  0
 15 16  2  0
 17 18  1  0
 18 21  1  0
 18 19  1  1
 20 19  1  0
 21 23  2  0
 21 22  1  0
M  END
$$$$
