VKC.pdb
     RDKit          3D

 23 22  0  0  1  0  0  0  0  0999 V2000
    7.5700  -13.1006   18.9301 C   0  0  0  0  0  0  0  0  0  0  0  0
    7.4894  -13.5554   20.3944 C   0  0  2  0  0  0  0  0  0  0  0  0
    8.4325  -12.6591   21.1628 C   0  0  0  0  0  0  0  0  0  0  0  0
    7.8923  -15.0078   20.4012 C   0  0  2  0  0  0  0  0  0  0  0  0
    6.8145  -15.7039   19.6666 N   0  0  0  0  0  0  0  0  0  0  0  0
    8.0154  -15.6150   21.7203 C   0  0  0  0  0  0  0  0  0  0  0  0
    6.9242  -15.8521   22.3611 O   0  0  0  0  0  0  0  0  0  0  0  0
    9.1832  -15.9843   22.3970 N   0  0  0  0  0  0  0  0  0  0  0  0
    9.1988  -16.4700   23.7806 C   0  0  1  0  0  0  0  0  0  0  0  0
   10.1226  -17.6574   23.7644 C   0  0  0  0  0  0  0  0  0  0  0  0
   10.2613  -18.3181   25.0977 C   0  0  0  0  0  0  0  0  0  0  0  0
   11.0601  -19.6123   24.9888 C   0  0  0  0  0  0  0  0  0  0  0  0
   11.0169  -20.2469   26.3700 C   0  0  0  0  0  0  0  0  0  0  0  0
   11.5704  -21.5957   26.2891 N   0  0  0  0  0  0  0  0  0  0  0  0
    9.6135  -15.4656   24.7406 C   0  0  0  0  0  0  0  0  0  0  0  0
   10.7570  -14.9169   24.6434 O   0  0  0  0  0  0  0  0  0  0  0  0
    8.8451  -14.9910   25.8472 N   0  0  0  0  0  0  0  0  0  0  0  0
    9.3827  -14.0490   26.8125 C   0  0  1  0  0  0  0  0  0  0  0  0
    8.3241  -13.1148   27.3428 C   0  0  0  0  0  0  0  0  0  0  0  0
    7.3722  -12.3592   25.9783 S   0  0  0  0  0  0  0  0  0  0  0  0
    9.9673  -14.8309   27.9254 C   0  0  0  0  0  0  0  0  0  0  0  0
   10.6799  -14.2660   28.9717 O   0  0  0  0  0  0  0  0  0  0  0  0
    9.8116  -16.0753   27.9249 O   0  0  0  0  0  0  0  0  0  0  0  0
  2  1  1  6
  3  2  1  0
  4  6  1  0
  4  5  1  6
  4  2  1  0
  6  7  2  0
  8  9  1  0
  8  6  1  0
  9 15  1  0
 10 11  1  0
  9 10  1  6
 12 11  1  0
 13 14  1  0
 13 12  1  0
 15 17  1  0
 15 16  2  0
 17 18  1  0
 18 21  1  0
 18 19  1  1
 20 19  1  0
 21 23  2  0
 21 22  1  0
M  END
$$$$
