VKC.pdb
     RDKit          3D

 23 22  0  0  1  0  0  0  0  0999 V2000
    8.8291  -19.6413   14.0498 C   0  0  0  0  0  0  0  0  0  0  0  0
    8.3798  -20.2375   12.7080 C   0  0  2  0  0  0  0  0  0  0  0  0
    7.4745  -19.2066   12.0749 C   0  0  0  0  0  0  0  0  0  0  0  0
    7.6846  -21.5328   13.0409 C   0  0  2  0  0  0  0  0  0  0  0  0
    6.4798  -21.1329   13.7986 N   0  0  0  0  0  0  0  0  0  0  0  0
    8.4543  -22.4617   13.8587 C   0  0  0  0  0  0  0  0  0  0  0  0
    8.3069  -22.3803   15.1351 O   0  0  0  0  0  0  0  0  0  0  0  0
    9.3482  -23.4513   13.4350 N   0  0  0  0  0  0  0  0  0  0  0  0
   10.1273  -24.2870   14.3544 C   0  0  1  0  0  0  0  0  0  0  0  0
   10.3722  -25.5667   13.6022 C   0  0  0  0  0  0  0  0  0  0  0  0
    9.1711  -26.4534   13.5351 C   0  0  0  0  0  0  0  0  0  0  0  0
    9.4607  -27.7097   12.7212 C   0  0  0  0  0  0  0  0  0  0  0  0
    8.1377  -28.4515   12.6133 C   0  0  0  0  0  0  0  0  0  0  0  0
    8.3081  -29.5972   11.7241 N   0  0  0  0  0  0  0  0  0  0  0  0
   11.3607  -23.6652   14.7953 C   0  0  0  0  0  0  0  0  0  0  0  0
   11.6815  -22.5070   14.3784 O   0  0  0  0  0  0  0  0  0  0  0  0
   12.3142  -24.2321   15.6952 N   0  0  0  0  0  0  0  0  0  0  0  0
   13.5161  -23.5218   16.0941 C   0  0  1  0  0  0  0  0  0  0  0  0
   13.2022  -22.2005   16.7501 C   0  0  0  0  0  0  0  0  0  0  0  0
   14.7238  -21.3914   17.3573 S   0  0  0  0  0  0  0  0  0  0  0  0
   14.2576  -24.3887   17.0378 C   0  0  0  0  0  0  0  0  0  0  0  0
   13.6836  -25.4485   17.7225 O   0  0  0  0  0  0  0  0  0  0  0  0
   15.4741  -24.1537   17.2317 O   0  0  0  0  0  0  0  0  0  0  0  0
  2  1  1  1
  3  2  1  0
  4  6  1  0
  4  5  1  1
  4  2  1  0
  6  7  2  0
  8  9  1  0
  8  6  1  0
  9 15  1  0
 10 11  1  0
  9 10  1  6
 12 11  1  0
 13 14  1  0
 13 12  1  0
 15 17  1  0
 15 16  2  0
 17 18  1  0
 18 21  1  0
 18 19  1  1
 20 19  1  0
 21 23  2  0
 21 22  1  0
M  END
$$$$
