VKC.pdb
     RDKit          3D

 23 22  0  0  1  0  0  0  0  0999 V2000
    8.0351  -12.0730   20.3218 C   0  0  0  0  0  0  0  0  0  0  0  0
    8.3264  -13.4177   19.6403 C   0  0  2  0  0  0  0  0  0  0  0  0
    7.0258  -14.1867   19.6602 C   0  0  0  0  0  0  0  0  0  0  0  0
    9.4248  -14.0626   20.4462 C   0  0  2  0  0  0  0  0  0  0  0  0
    9.9451  -15.1434   19.5819 N   0  0  0  0  0  0  0  0  0  0  0  0
    9.0070  -14.6489   21.7134 C   0  0  0  0  0  0  0  0  0  0  0  0
    8.4139  -13.8724   22.5517 O   0  0  0  0  0  0  0  0  0  0  0  0
    9.1649  -15.9691   22.1496 N   0  0  0  0  0  0  0  0  0  0  0  0
    8.6599  -16.4639   23.4344 C   0  0  1  0  0  0  0  0  0  0  0  0
    8.6547  -17.9622   23.2980 C   0  0  0  0  0  0  0  0  0  0  0  0
    7.6698  -18.4618   22.2912 C   0  0  0  0  0  0  0  0  0  0  0  0
    6.6489  -19.3924   22.9365 C   0  0  0  0  0  0  0  0  0  0  0  0
    5.7010  -19.8088   21.8228 C   0  0  0  0  0  0  0  0  0  0  0  0
    4.6529  -20.6561   22.3848 N   0  0  0  0  0  0  0  0  0  0  0  0
    9.4416  -16.0194   24.5718 C   0  0  0  0  0  0  0  0  0  0  0  0
   10.7104  -16.1075   24.5536 O   0  0  0  0  0  0  0  0  0  0  0  0
    8.9256  -15.4613   25.7812 N   0  0  0  0  0  0  0  0  0  0  0  0
    9.7927  -15.0223   26.8599 C   0  0  1  0  0  0  0  0  0  0  0  0
    9.1537  -13.9428   27.6971 C   0  0  0  0  0  0  0  0  0  0  0  0
   10.2506  -13.4410   29.0696 S   0  0  0  0  0  0  0  0  0  0  0  0
   10.0929  -16.2017   27.7030 C   0  0  0  0  0  0  0  0  0  0  0  0
   11.2994  -16.3921   28.3585 O   0  0  0  0  0  0  0  0  0  0  0  0
    9.2081  -17.0807   27.8337 O   0  0  0  0  0  0  0  0  0  0  0  0
  2  1  1  1
  3  2  1  0
  4  6  1  0
  4  5  1  6
  4  2  1  0
  6  7  2  0
  8  9  1  0
  8  6  1  0
  9 15  1  0
 10 11  1  0
  9 10  1  6
 12 11  1  0
 13 14  1  0
 13 12  1  0
 15 17  1  0
 15 16  2  0
 17 18  1  0
 18 21  1  0
 18 19  1  1
 20 19  1  0
 21 23  2  0
 21 22  1  0
M  END
$$$$
