VKC.pdb
     RDKit          3D

 23 22  0  0  1  0  0  0  0  0999 V2000
    5.9334  -11.6157   27.3131 C   0  0  0  0  0  0  0  0  0  0  0  0
    6.8213  -12.5913   26.5275 C   0  0  2  0  0  0  0  0  0  0  0  0
    7.9067  -11.7517   25.8949 C   0  0  0  0  0  0  0  0  0  0  0  0
    5.9157  -13.2649   25.5285 C   0  0  2  0  0  0  0  0  0  0  0  0
    5.0779  -14.1801   26.3326 N   0  0  0  0  0  0  0  0  0  0  0  0
    6.5921  -14.0455   24.5003 C   0  0  0  0  0  0  0  0  0  0  0  0
    6.9905  -15.2255   24.8268 O   0  0  0  0  0  0  0  0  0  0  0  0
    6.8707  -13.6788   23.1790 N   0  0  0  0  0  0  0  0  0  0  0  0
    7.6668  -14.4996   22.2609 C   0  0  1  0  0  0  0  0  0  0  0  0
    7.6702  -13.7380   20.9635 C   0  0  0  0  0  0  0  0  0  0  0  0
    8.3703  -14.4573   19.8563 C   0  0  0  0  0  0  0  0  0  0  0  0
    8.2075  -13.7188   18.5323 C   0  0  0  0  0  0  0  0  0  0  0  0
    8.8242  -14.6194   17.4735 C   0  0  0  0  0  0  0  0  0  0  0  0
    8.5259  -14.0712   16.1533 N   0  0  0  0  0  0  0  0  0  0  0  0
    9.0077  -14.7690   22.7423 C   0  0  0  0  0  0  0  0  0  0  0  0
    9.6621  -13.8693   23.3591 O   0  0  0  0  0  0  0  0  0  0  0  0
    9.7230  -15.9969   22.5979 N   0  0  0  0  0  0  0  0  0  0  0  0
   10.9998  -16.2275   23.2497 C   0  0  1  0  0  0  0  0  0  0  0  0
   10.8802  -16.2095   24.7530 C   0  0  0  0  0  0  0  0  0  0  0  0
    9.5432  -17.3193   25.3183 S   0  0  0  0  0  0  0  0  0  0  0  0
   11.5016  -17.5460   22.8004 C   0  0  0  0  0  0  0  0  0  0  0  0
   10.7932  -18.3947   21.9641 O   0  0  0  0  0  0  0  0  0  0  0  0
   12.6309  -17.9199   23.1973 O   0  0  0  0  0  0  0  0  0  0  0  0
  2  1  1  1
  3  2  1  0
  4  6  1  0
  4  5  1  1
  4  2  1  0
  6  7  2  0
  8  9  1  0
  8  6  1  0
  9 15  1  0
 10 11  1  0
  9 10  1  6
 12 11  1  0
 13 14  1  0
 13 12  1  0
 15 17  1  0
 15 16  2  0
 17 18  1  0
 18 21  1  0
 18 19  1  1
 20 19  1  0
 21 23  2  0
 21 22  1  0
M  END
$$$$
