VKC.pdb
     RDKit          3D

 23 22  0  0  1  0  0  0  0  0999 V2000
    8.7906  -19.0665   25.8623 C   0  0  0  0  0  0  0  0  0  0  0  0
    7.3698  -18.5557   26.1415 C   0  0  2  0  0  0  0  0  0  0  0  0
    6.7895  -19.4835   27.1834 C   0  0  0  0  0  0  0  0  0  0  0  0
    6.6457  -18.5985   24.8202 C   0  0  2  0  0  0  0  0  0  0  0  0
    6.7021  -20.0156   24.4025 N   0  0  0  0  0  0  0  0  0  0  0  0
    7.2297  -17.7841   23.7621 C   0  0  0  0  0  0  0  0  0  0  0  0
    8.2000  -18.3009   23.0919 O   0  0  0  0  0  0  0  0  0  0  0  0
    6.8694  -16.4910   23.3670 N   0  0  0  0  0  0  0  0  0  0  0  0
    7.6644  -15.6746   22.4440 C   0  0  1  0  0  0  0  0  0  0  0  0
    6.8184  -14.4603   22.1733 C   0  0  0  0  0  0  0  0  0  0  0  0
    7.4346  -13.5160   21.1925 C   0  0  0  0  0  0  0  0  0  0  0  0
    7.3981  -14.0898   19.7803 C   0  0  0  0  0  0  0  0  0  0  0  0
    8.0491  -13.0445   18.8881 C   0  0  0  0  0  0  0  0  0  0  0  0
    8.0628  -13.5373   17.5136 N   0  0  0  0  0  0  0  0  0  0  0  0
    8.9734  -15.3268   22.9616 C   0  0  0  0  0  0  0  0  0  0  0  0
    9.0846  -14.7283   24.0785 O   0  0  0  0  0  0  0  0  0  0  0  0
   10.2263  -15.5923   22.3293 N   0  0  0  0  0  0  0  0  0  0  0  0
   11.4732  -15.6297   23.0724 C   0  0  1  0  0  0  0  0  0  0  0  0
   11.4577  -16.6820   24.1528 C   0  0  0  0  0  0  0  0  0  0  0  0
   11.5884  -15.9231   25.8098 S   0  0  0  0  0  0  0  0  0  0  0  0
   12.5614  -15.9130   22.1094 C   0  0  0  0  0  0  0  0  0  0  0  0
   13.9032  -15.6908   22.3773 O   0  0  0  0  0  0  0  0  0  0  0  0
   12.2560  -16.3801   20.9863 O   0  0  0  0  0  0  0  0  0  0  0  0
  2  1  1  6
  3  2  1  0
  4  6  1  0
  4  5  1  6
  4  2  1  0
  6  7  2  0
  8  9  1  0
  8  6  1  0
  9 15  1  0
 10 11  1  0
  9 10  1  1
 12 11  1  0
 13 14  1  0
 13 12  1  0
 15 17  1  0
 15 16  2  0
 17 18  1  0
 18 21  1  0
 18 19  1  1
 20 19  1  0
 21 23  2  0
 21 22  1  0
M  END
$$$$
