VKC.pdb
     RDKit          3D

 23 22  0  0  1  0  0  0  0  0999 V2000
    7.6019  -12.8257   20.2763 C   0  0  0  0  0  0  0  0  0  0  0  0
    8.5293  -13.6693   19.3898 C   0  0  2  0  0  0  0  0  0  0  0  0
    8.3192  -13.1758   17.9770 C   0  0  0  0  0  0  0  0  0  0  0  0
    8.1138  -15.1028   19.5997 C   0  0  2  0  0  0  0  0  0  0  0  0
    6.8706  -15.2565   18.8145 N   0  0  0  0  0  0  0  0  0  0  0  0
    7.8339  -15.4755   20.9806 C   0  0  0  0  0  0  0  0  0  0  0  0
    6.6614  -15.2010   21.4360 O   0  0  0  0  0  0  0  0  0  0  0  0
    8.6842  -16.1059   21.8958 N   0  0  0  0  0  0  0  0  0  0  0  0
    8.3054  -16.4049   23.2806 C   0  0  1  0  0  0  0  0  0  0  0  0
    8.7246  -17.8334   23.4974 C   0  0  0  0  0  0  0  0  0  0  0  0
    8.3598  -18.3591   24.8480 C   0  0  0  0  0  0  0  0  0  0  0  0
    8.8470  -19.7925   25.0293 C   0  0  0  0  0  0  0  0  0  0  0  0
    8.2348  -20.2797   26.3332 C   0  0  0  0  0  0  0  0  0  0  0  0
    8.6536  -21.6589   26.5670 N   0  0  0  0  0  0  0  0  0  0  0  0
    8.9013  -15.5054   24.2492 C   0  0  0  0  0  0  0  0  0  0  0  0
    9.7204  -14.6076   23.8737 O   0  0  0  0  0  0  0  0  0  0  0  0
    8.6634  -15.5078   25.6576 N   0  0  0  0  0  0  0  0  0  0  0  0
    8.6358  -14.2834   26.4376 C   0  0  1  0  0  0  0  0  0  0  0  0
    7.5038  -13.3753   26.0272 C   0  0  0  0  0  0  0  0  0  0  0  0
    7.3938  -11.9235   27.1312 S   0  0  0  0  0  0  0  0  0  0  0  0
    8.4869  -14.6614   27.8613 C   0  0  0  0  0  0  0  0  0  0  0  0
    8.1320  -15.9319   28.2872 O   0  0  0  0  0  0  0  0  0  0  0  0
    8.6922  -13.7850   28.7345 O   0  0  0  0  0  0  0  0  0  0  0  0
  2  1  1  1
  3  2  1  0
  4  6  1  0
  4  5  1  6
  4  2  1  0
  6  7  2  0
  8  9  1  0
  8  6  1  0
  9 15  1  0
 10 11  1  0
  9 10  1  1
 12 11  1  0
 13 14  1  0
 13 12  1  0
 15 17  1  0
 15 16  2  0
 17 18  1  0
 18 21  1  0
 18 19  1  6
 20 19  1  0
 21 23  2  0
 21 22  1  0
M  END
$$$$
