VKC.pdb
     RDKit          3D

 23 22  0  0  1  0  0  0  0  0999 V2000
   11.0505  -29.1667   16.1590 C   0  0  0  0  0  0  0  0  0  0  0  0
   11.2971  -28.8163   14.6845 C   0  0  2  0  0  0  0  0  0  0  0  0
   12.6656  -28.1779   14.6301 C   0  0  0  0  0  0  0  0  0  0  0  0
   10.1785  -27.8885   14.2851 C   0  0  2  0  0  0  0  0  0  0  0  0
   10.3803  -27.6509   12.8399 N   0  0  0  0  0  0  0  0  0  0  0  0
   10.1644  -26.5994   14.9649 C   0  0  0  0  0  0  0  0  0  0  0  0
   10.9388  -25.6822   14.4993 O   0  0  0  0  0  0  0  0  0  0  0  0
    9.4060  -26.2158   16.0765 N   0  0  0  0  0  0  0  0  0  0  0  0
    9.4036  -24.8561   16.6258 C   0  0  1  0  0  0  0  0  0  0  0  0
    7.9538  -24.5411   16.8752 C   0  0  0  0  0  0  0  0  0  0  0  0
    7.2838  -23.8782   15.7155 C   0  0  0  0  0  0  0  0  0  0  0  0
    5.8043  -23.6410   15.9981 C   0  0  0  0  0  0  0  0  0  0  0  0
    5.2440  -22.9698   14.7540 C   0  0  0  0  0  0  0  0  0  0  0  0
    3.8068  -22.7778   14.9260 N   0  0  0  0  0  0  0  0  0  0  0  0
   10.2093  -24.7156   17.8231 C   0  0  0  0  0  0  0  0  0  0  0  0
   10.2485  -25.6506   18.6848 O   0  0  0  0  0  0  0  0  0  0  0  0
   11.0114  -23.5859   18.1701 N   0  0  0  0  0  0  0  0  0  0  0  0
   11.7759  -23.5318   19.4033 C   0  0  1  0  0  0  0  0  0  0  0  0
   13.0715  -22.7784   19.2344 C   0  0  0  0  0  0  0  0  0  0  0  0
   13.9675  -22.6496   20.8217 S   0  0  0  0  0  0  0  0  0  0  0  0
   10.9355  -22.8653   20.4237 C   0  0  0  0  0  0  0  0  0  0  0  0
   10.9795  -23.1698   21.7753 O   0  0  0  0  0  0  0  0  0  0  0  0
   10.1368  -21.9745   20.0478 O   0  0  0  0  0  0  0  0  0  0  0  0
  2  1  1  1
  3  2  1  0
  4  6  1  0
  4  5  1  6
  4  2  1  0
  6  7  2  0
  8  9  1  0
  8  6  1  0
  9 15  1  0
 10 11  1  0
  9 10  1  1
 12 11  1  0
 13 14  1  0
 13 12  1  0
 15 17  1  0
 15 16  2  0
 17 18  1  0
 18 21  1  0
 18 19  1  6
 20 19  1  0
 21 23  2  0
 21 22  1  0
M  END
$$$$
