VKC.pdb
     RDKit          3D

 23 22  0  0  1  0  0  0  0  0999 V2000
    8.1924  -13.3850   18.7003 C   0  0  0  0  0  0  0  0  0  0  0  0
    7.5457  -13.6003   20.0762 C   0  0  2  0  0  0  0  0  0  0  0  0
    8.2547  -12.6599   21.0229 C   0  0  0  0  0  0  0  0  0  0  0  0
    7.7455  -15.0575   20.4057 C   0  0  2  0  0  0  0  0  0  0  0  0
    6.8844  -15.7844   19.4487 N   0  0  0  0  0  0  0  0  0  0  0  0
    7.3639  -15.4496   21.7565 C   0  0  0  0  0  0  0  0  0  0  0  0
    6.1308  -15.2858   22.0886 O   0  0  0  0  0  0  0  0  0  0  0  0
    8.1729  -15.9930   22.7606 N   0  0  0  0  0  0  0  0  0  0  0  0
    7.7276  -16.1852   24.1446 C   0  0  1  0  0  0  0  0  0  0  0  0
    8.0362  -17.6246   24.4549 C   0  0  0  0  0  0  0  0  0  0  0  0
    7.6674  -18.0225   25.8474 C   0  0  0  0  0  0  0  0  0  0  0  0
    8.0618  -19.4683   26.1281 C   0  0  0  0  0  0  0  0  0  0  0  0
    7.5819  -19.7652   27.5402 C   0  0  0  0  0  0  0  0  0  0  0  0
    7.7518  -21.1905   27.8083 N   0  0  0  0  0  0  0  0  0  0  0  0
    8.3535  -15.2752   25.0841 C   0  0  0  0  0  0  0  0  0  0  0  0
    9.5984  -15.0260   25.0055 O   0  0  0  0  0  0  0  0  0  0  0  0
    7.6996  -14.5848   26.1499 N   0  0  0  0  0  0  0  0  0  0  0  0
    8.3884  -13.6075   26.9736 C   0  0  1  0  0  0  0  0  0  0  0  0
    7.4302  -12.6551   27.6441 C   0  0  0  0  0  0  0  0  0  0  0  0
    6.3767  -11.8095   26.4138 S   0  0  0  0  0  0  0  0  0  0  0  0
    9.1612  -14.3475   27.9969 C   0  0  0  0  0  0  0  0  0  0  0  0
    9.9801  -13.7365   28.9338 O   0  0  0  0  0  0  0  0  0  0  0  0
    9.0730  -15.5983   28.0202 O   0  0  0  0  0  0  0  0  0  0  0  0
  2  1  1  6
  3  2  1  0
  4  6  1  0
  4  5  1  6
  4  2  1  0
  6  7  2  0
  8  9  1  0
  8  6  1  0
  9 15  1  0
 10 11  1  0
  9 10  1  1
 12 11  1  0
 13 14  1  0
 13 12  1  0
 15 17  1  0
 15 16  2  0
 17 18  1  0
 18 21  1  0
 18 19  1  1
 20 19  1  0
 21 23  2  0
 21 22  1  0
M  END
$$$$
