IRD.pdb
     RDKit          3D

 28 27  0  0  1  0  0  0  0  0999 V2000
   16.4578  -14.0182  -16.1366 C   0  0  0  0  0  0  0  0  0  0  0  0
   17.3693  -13.1442  -16.9397 C   0  0  0  0  0  0  0  0  0  0  0  0
   18.0879  -12.1859  -16.0380 C   0  0  2  0  0  0  0  0  0  0  0  0
   17.1392  -11.4663  -15.1517 C   0  0  0  0  0  0  0  0  0  0  0  0
   18.9348  -11.2936  -16.9259 C   0  0  2  0  0  0  0  0  0  0  0  0
   19.7196  -12.1362  -17.8143 N   0  0  0  0  0  0  0  0  0  0  0  0
   19.8890  -10.5399  -16.0559 C   0  0  0  0  0  0  0  0  0  0  0  0
   19.3876   -9.8420  -15.1471 O   0  0  0  0  0  0  0  0  0  0  0  0
   28.3556  -11.4935  -16.6314 N   0  0  0  0  0  0  0  0  0  0  0  0
   27.4267  -10.5643  -17.1766 C   0  0  0  0  0  0  0  0  0  0  0  0
   27.6907  -10.0284  -18.3216 N   0  0  0  0  0  0  0  0  0  0  0  0
   26.2309  -10.1914  -16.5469 N   0  0  0  0  0  0  0  0  0  0  0  0
   26.0333  -10.4587  -15.1427 C   0  0  0  0  0  0  0  0  0  0  0  0
   24.6403   -9.9026  -14.7839 C   0  0  0  0  0  0  0  0  0  0  0  0
   23.6020  -10.4883  -15.6760 C   0  0  0  0  0  0  0  0  0  0  0  0
   22.2364   -9.9662  -15.3986 C   0  0  2  0  0  0  0  0  0  0  0  0
   21.2674  -10.6386  -16.2807 N   0  0  0  0  0  0  0  0  0  0  0  0
   22.1189   -8.5296  -15.6194 C   0  0  0  0  0  0  0  0  0  0  0  0
   22.3621   -8.0575  -16.7827 O   0  0  0  0  0  0  0  0  0  0  0  0
   27.0847   -9.2934  -18.7545 N   0  0  0  0  0  0  0  0  0  0  0  0
   21.7360   -7.6336  -14.5922 C   0  0  1  0  0  0  0  0  0  0  0  0
   21.6261   -6.2185  -14.8967 C   0  0  0  0  0  0  0  0  0  0  0  0
   20.1306   -5.8999  -14.7351 C   0  0  0  0  0  0  0  0  0  0  0  0
   19.4038   -6.1899  -15.9719 O   0  0  0  0  0  0  0  0  0  0  0  0
   20.0377   -6.4640  -17.0028 C   0  0  0  0  0  0  0  0  0  0  0  0
   22.4660   -5.4366  -13.9804 O   0  0  0  0  0  0  0  0  0  0  0  0
   22.5698   -4.0467  -14.1595 O   0  0  0  0  0  0  0  0  0  0  0  0
   18.0045   -6.1492  -15.9532 O   0  0  0  0  0  0  0  0  0  0  0  0
  1  2  1  0
  3  4  1  6
  3  5  1  0
  3  2  1  0
  5  6  1  6
  7  5  1  0
  7 17  1  0
  8  7  2  0
  9 10  1  0
 10 11  2  0
 12 10  1  0
 12 13  1  0
 13 14  1  0
 16 15  1  6
 15 14  1  0
 16 17  1  0
 18 16  1  0
 19 18  2  0
 20 18  1  0
 21 22  1  1
 21 20  1  0
 23 27  1  0
 23 22  1  0
 24 23  2  0
 25 21  1  0
 26 25  1  0
 28 25  2  0
M  END
$$$$
