IRD.pdb
     RDKit          3D

 28 27  0  0  1  0  0  0  0  0999 V2000
   28.7058  -20.4204  -11.4854 C   0  0  0  0  0  0  0  0  0  0  0  0
   27.5741  -21.1821  -12.1010 C   0  0  0  0  0  0  0  0  0  0  0  0
   26.2724  -20.7409  -11.5022 C   0  0  2  0  0  0  0  0  0  0  0  0
   26.2471  -20.9753  -10.0367 C   0  0  0  0  0  0  0  0  0  0  0  0
   25.1700  -21.4357  -12.2793 C   0  0  2  0  0  0  0  0  0  0  0  0
   25.4295  -21.2674  -13.7004 N   0  0  0  0  0  0  0  0  0  0  0  0
   23.8777  -20.7502  -11.9703 C   0  0  0  0  0  0  0  0  0  0  0  0
   23.8885  -19.4996  -11.9866 O   0  0  0  0  0  0  0  0  0  0  0  0
   19.1901  -18.4374  -17.3547 N   0  0  0  0  0  0  0  0  0  0  0  0
   19.0137  -19.7233  -16.7727 C   0  0  0  0  0  0  0  0  0  0  0  0
   18.5986  -20.6883  -17.5239 N   0  0  0  0  0  0  0  0  0  0  0  0
   19.2664  -20.0142  -15.4247 N   0  0  0  0  0  0  0  0  0  0  0  0
   19.6426  -18.9626  -14.5110 C   0  0  0  0  0  0  0  0  0  0  0  0
   19.8155  -19.6255  -13.1293 C   0  0  0  0  0  0  0  0  0  0  0  0
   21.1606  -20.2545  -13.0200 C   0  0  0  0  0  0  0  0  0  0  0  0
   21.3926  -20.9036  -11.7012 C   0  0  2  0  0  0  0  0  0  0  0  0
   22.7357  -21.5077  -11.6832 N   0  0  0  0  0  0  0  0  0  0  0  0
   20.4265  -21.9547  -11.4046 C   0  0  0  0  0  0  0  0  0  0  0  0
   20.3732  -22.9824  -12.1638 O   0  0  0  0  0  0  0  0  0  0  0  0
   18.3791  -21.6408  -17.1504 N   0  0  0  0  0  0  0  0  0  0  0  0
   19.5460  -21.8848  -10.2981 C   0  0  1  0  0  0  0  0  0  0  0  0
   18.7106  -23.0312   -9.9892 C   0  0  0  0  0  0  0  0  0  0  0  0
   18.5262  -22.9795   -8.4635 C   0  0  0  0  0  0  0  0  0  0  0  0
   19.3429  -24.0027   -7.8094 O   0  0  0  0  0  0  0  0  0  0  0  0
   19.9779  -24.8126   -8.5025 C   0  0  0  0  0  0  0  0  0  0  0  0
   17.4344  -22.9364  -10.7095 O   0  0  0  0  0  0  0  0  0  0  0  0
   16.8223  -24.1102  -11.1813 O   0  0  0  0  0  0  0  0  0  0  0  0
   19.3832  -24.0358   -6.4103 O   0  0  0  0  0  0  0  0  0  0  0  0
  1  2  1  0
  3  4  1  1
  3  5  1  0
  3  2  1  0
  5  6  1  6
  7  5  1  0
  7 17  1  0
  8  7  2  0
  9 10  1  0
 10 11  2  0
 12 10  1  0
 12 13  1  0
 13 14  1  0
 16 15  1  6
 15 14  1  0
 16 17  1  0
 18 16  1  0
 19 18  2  0
 20 18  1  0
 21 22  1  1
 21 20  1  0
 23 27  1  0
 23 22  1  0
 24 23  2  0
 25 21  1  0
 26 25  1  0
 28 25  2  0
M  END
$$$$
