IRD.pdb
     RDKit          3D

 28 27  0  0  1  0  0  0  0  0999 V2000
   23.3607   -9.8961  -13.6282 C   0  0  0  0  0  0  0  0  0  0  0  0
   23.2036   -9.0686  -12.3912 C   0  0  0  0  0  0  0  0  0  0  0  0
   21.7961   -9.1654  -11.8840 C   0  0  2  0  0  0  0  0  0  0  0  0
   21.4241  -10.5727  -11.5937 C   0  0  0  0  0  0  0  0  0  0  0  0
   20.9111   -8.4672  -12.8995 C   0  0  2  0  0  0  0  0  0  0  0  0
   21.2961   -7.0662  -12.9626 N   0  0  0  0  0  0  0  0  0  0  0  0
   19.5001   -8.5278  -12.4089 C   0  0  0  0  0  0  0  0  0  0  0  0
   18.9518   -9.6520  -12.4161 O   0  0  0  0  0  0  0  0  0  0  0  0
   14.8783   -4.3626   -6.0930 N   0  0  0  0  0  0  0  0  0  0  0  0
   13.9934   -5.0505   -6.9689 C   0  0  0  0  0  0  0  0  0  0  0  0
   12.7302   -5.0418   -6.7008 N   0  0  0  0  0  0  0  0  0  0  0  0
   14.4075   -5.7413   -8.1165 N   0  0  0  0  0  0  0  0  0  0  0  0
   15.8022   -5.7691   -8.4860 C   0  0  0  0  0  0  0  0  0  0  0  0
   15.8845   -6.5326   -9.8235 C   0  0  0  0  0  0  0  0  0  0  0  0
   17.2941   -6.5961  -10.2990 C   0  0  0  0  0  0  0  0  0  0  0  0
   17.4472   -7.3719  -11.5596 C   0  0  2  0  0  0  0  0  0  0  0  0
   18.8613   -7.3613  -11.9714 N   0  0  0  0  0  0  0  0  0  0  0  0
   16.6576   -6.8332  -12.6608 C   0  0  0  0  0  0  0  0  0  0  0  0
   17.1338   -5.8701  -13.3542 O   0  0  0  0  0  0  0  0  0  0  0  0
   12.0119   -5.4371   -7.3509 N   0  0  0  0  0  0  0  0  0  0  0  0
   15.3808   -7.3434  -12.9987 C   0  0  2  0  0  0  0  0  0  0  0  0
   14.6482   -6.7378  -14.0959 C   0  0  0  0  0  0  0  0  0  0  0  0
   15.5587   -6.9217  -15.3212 C   0  0  0  0  0  0  0  0  0  0  0  0
   15.2377   -8.1660  -16.0215 O   0  0  0  0  0  0  0  0  0  0  0  0
   14.2570   -8.2040  -16.7807 C   0  0  0  0  0  0  0  0  0  0  0  0
   13.3476   -7.3990  -14.2623 O   0  0  0  0  0  0  0  0  0  0  0  0
   12.4594   -6.9316  -15.2459 O   0  0  0  0  0  0  0  0  0  0  0  0
   16.0541   -9.2838  -15.8118 O   0  0  0  0  0  0  0  0  0  0  0  0
  1  2  1  0
  3  4  1  6
  3  5  1  0
  3  2  1  0
  5  6  1  1
  7  5  1  0
  7 17  1  0
  8  7  2  0
  9 10  1  0
 10 11  2  0
 12 10  1  0
 12 13  1  0
 13 14  1  0
 16 15  1  1
 15 14  1  0
 16 17  1  0
 18 16  1  0
 19 18  2  0
 20 18  1  0
 21 22  1  1
 21 20  1  0
 23 27  1  0
 23 22  1  0
 24 23  2  0
 25 21  1  0
 26 25  1  0
 28 25  2  0
M  END
$$$$
