IRD.pdb
     RDKit          3D

 28 27  0  0  1  0  0  0  0  0999 V2000
   17.8873  -16.0024  -17.5446 C   0  0  0  0  0  0  0  0  0  0  0  0
   18.9126  -15.1657  -18.2434 C   0  0  0  0  0  0  0  0  0  0  0  0
   19.3652  -14.0528  -17.3464 C   0  0  2  0  0  0  0  0  0  0  0  0
   18.2129  -13.2604  -16.8485 C   0  0  0  0  0  0  0  0  0  0  0  0
   20.4020  -13.2574  -18.1172 C   0  0  2  0  0  0  0  0  0  0  0  0
   21.3361  -14.1878  -18.7310 N   0  0  0  0  0  0  0  0  0  0  0  0
   21.1688  -12.4221  -17.1427 C   0  0  0  0  0  0  0  0  0  0  0  0
   20.5037  -11.6350  -16.4338 O   0  0  0  0  0  0  0  0  0  0  0  0
   28.5530  -11.1619  -18.6095 N   0  0  0  0  0  0  0  0  0  0  0  0
   28.7535  -10.4404  -17.4001 C   0  0  0  0  0  0  0  0  0  0  0  0
   29.5628   -9.4340  -17.4095 N   0  0  0  0  0  0  0  0  0  0  0  0
   28.1214  -10.7523  -16.1882 N   0  0  0  0  0  0  0  0  0  0  0  0
   27.1813  -11.8448  -16.1173 C   0  0  0  0  0  0  0  0  0  0  0  0
   25.7750  -11.2118  -16.1186 C   0  0  0  0  0  0  0  0  0  0  0  0
   24.7299  -12.2687  -16.0310 C   0  0  0  0  0  0  0  0  0  0  0  0
   23.3470  -11.7266  -16.1212 C   0  0  2  0  0  0  0  0  0  0  0  0
   22.5608  -12.5463  -17.0589 N   0  0  0  0  0  0  0  0  0  0  0  0
   23.3043  -10.3467  -16.5906 C   0  0  0  0  0  0  0  0  0  0  0  0
   23.6027  -10.0948  -17.8082 O   0  0  0  0  0  0  0  0  0  0  0  0
   29.7229   -8.8299  -16.5703 N   0  0  0  0  0  0  0  0  0  0  0  0
   22.9354   -9.2704  -15.7479 C   0  0  1  0  0  0  0  0  0  0  0  0
   22.7323   -7.9568  -16.3313 C   0  0  0  0  0  0  0  0  0  0  0  0
   21.5256   -8.1288  -17.2687 C   0  0  0  0  0  0  0  0  0  0  0  0
   21.1973   -6.8631  -17.9260 O   0  0  0  0  0  0  0  0  0  0  0  0
   21.9864   -5.9092  -17.8431 C   0  0  0  0  0  0  0  0  0  0  0  0
   22.4829   -6.9669  -15.2757 O   0  0  0  0  0  0  0  0  0  0  0  0
   22.8435   -5.6259  -15.4913 O   0  0  0  0  0  0  0  0  0  0  0  0
   19.9934   -6.7673  -18.6341 O   0  0  0  0  0  0  0  0  0  0  0  0
  1  2  1  0
  3  4  1  6
  3  5  1  0
  3  2  1  0
  5  6  1  1
  7  5  1  0
  7 17  1  0
  8  7  2  0
  9 10  1  0
 10 11  2  0
 12 10  1  0
 12 13  1  0
 13 14  1  0
 16 15  1  6
 15 14  1  0
 16 17  1  0
 18 16  1  0
 19 18  2  0
 20 18  1  0
 21 22  1  1
 21 20  1  0
 23 27  1  0
 23 22  1  0
 24 23  2  0
 25 21  1  0
 26 25  1  0
 28 25  2  0
M  END
$$$$
