IRD.pdb
     RDKit          3D

 28 27  0  0  1  0  0  0  0  0999 V2000
   25.4918  -20.2449   -8.8089 C   0  0  0  0  0  0  0  0  0  0  0  0
   25.9842  -20.0190  -10.2040 C   0  0  0  0  0  0  0  0  0  0  0  0
   26.4944  -21.3045  -10.7829 C   0  0  2  0  0  0  0  0  0  0  0  0
   27.5783  -21.8786   -9.9469 C   0  0  0  0  0  0  0  0  0  0  0  0
   26.8809  -21.0189  -12.2220 C   0  0  2  0  0  0  0  0  0  0  0  0
   28.0289  -20.1260  -12.2239 N   0  0  0  0  0  0  0  0  0  0  0  0
   25.7455  -20.2988  -12.8761 C   0  0  0  0  0  0  0  0  0  0  0  0
   25.6747  -19.0659  -12.6774 O   0  0  0  0  0  0  0  0  0  0  0  0
   27.8747  -20.8918  -17.9403 N   0  0  0  0  0  0  0  0  0  0  0  0
   27.4680  -19.6104  -18.4053 C   0  0  0  0  0  0  0  0  0  0  0  0
   28.3684  -18.8074  -18.8658 N   0  0  0  0  0  0  0  0  0  0  0  0
   26.1404  -19.1600  -18.3985 N   0  0  0  0  0  0  0  0  0  0  0  0
   25.0850  -20.0117  -17.9053 C   0  0  0  0  0  0  0  0  0  0  0  0
   24.9661  -19.7293  -16.3938 C   0  0  0  0  0  0  0  0  0  0  0  0
   23.8365  -20.5029  -15.8086 C   0  0  0  0  0  0  0  0  0  0  0  0
   23.7113  -20.3240  -14.3366 C   0  0  2  0  0  0  0  0  0  0  0  0
   24.8300  -21.0065  -13.6643 N   0  0  0  0  0  0  0  0  0  0  0  0
   22.4694  -20.8672  -13.7992 C   0  0  0  0  0  0  0  0  0  0  0  0
   22.4351  -22.0905  -13.4284 O   0  0  0  0  0  0  0  0  0  0  0  0
   28.1609  -17.8153  -19.1260 N   0  0  0  0  0  0  0  0  0  0  0  0
   21.2963  -20.0861  -13.6638 C   0  0  2  0  0  0  0  0  0  0  0  0
   20.1200  -20.6815  -13.0562 C   0  0  0  0  0  0  0  0  0  0  0  0
   19.1925  -19.4926  -12.7552 C   0  0  0  0  0  0  0  0  0  0  0  0
   17.8962  -19.9602  -12.2624 O   0  0  0  0  0  0  0  0  0  0  0  0
   16.9644  -20.1325  -13.0634 C   0  0  0  0  0  0  0  0  0  0  0  0
   19.5083  -21.6477  -13.9774 O   0  0  0  0  0  0  0  0  0  0  0  0
   19.6607  -21.4684  -15.3629 O   0  0  0  0  0  0  0  0  0  0  0  0
   17.7467  -20.2011  -10.8914 O   0  0  0  0  0  0  0  0  0  0  0  0
  1  2  1  0
  3  4  1  1
  3  5  1  0
  3  2  1  0
  5  6  1  1
  7  5  1  0
  7 17  1  0
  8  7  2  0
  9 10  1  0
 10 11  2  0
 12 10  1  0
 12 13  1  0
 13 14  1  0
 16 15  1  6
 15 14  1  0
 16 17  1  0
 18 16  1  0
 19 18  2  0
 20 18  1  0
 21 22  1  1
 21 20  1  0
 23 27  1  0
 23 22  1  0
 24 23  2  0
 25 21  1  0
 26 25  1  0
 28 25  2  0
M  END
$$$$
