IRD.pdb
     RDKit          3D

 28 27  0  0  1  0  0  0  0  0999 V2000
   15.9328  -21.9906  -13.6819 C   0  0  0  0  0  0  0  0  0  0  0  0
   17.1328  -22.5096  -14.4102 C   0  0  0  0  0  0  0  0  0  0  0  0
   18.1042  -21.3950  -14.6591 C   0  0  2  0  0  0  0  0  0  0  0  0
   17.4415  -20.2399  -15.3149 C   0  0  0  0  0  0  0  0  0  0  0  0
   19.2680  -21.9869  -15.4318 C   0  0  2  0  0  0  0  0  0  0  0  0
   19.8446  -23.0655  -14.6449 N   0  0  0  0  0  0  0  0  0  0  0  0
   20.3131  -20.9287  -15.5848 C   0  0  0  0  0  0  0  0  0  0  0  0
   19.9608  -19.8705  -16.1509 O   0  0  0  0  0  0  0  0  0  0  0  0
   26.7085  -21.3783  -10.3807 N   0  0  0  0  0  0  0  0  0  0  0  0
   25.3038  -21.1550  -10.4047 C   0  0  0  0  0  0  0  0  0  0  0  0
   24.7105  -20.8406   -9.3016 N   0  0  0  0  0  0  0  0  0  0  0  0
   24.5151  -21.2523  -11.5598 N   0  0  0  0  0  0  0  0  0  0  0  0
   25.0768  -21.7712  -12.7835 C   0  0  0  0  0  0  0  0  0  0  0  0
   23.9565  -21.7044  -13.8412 C   0  0  0  0  0  0  0  0  0  0  0  0
   23.6894  -20.2910  -14.2259 C   0  0  0  0  0  0  0  0  0  0  0  0
   22.6831  -20.1660  -15.3151 C   0  0  2  0  0  0  0  0  0  0  0  0
   21.6090  -21.1513  -15.1037 N   0  0  0  0  0  0  0  0  0  0  0  0
   23.2454  -20.3961  -16.6407 C   0  0  0  0  0  0  0  0  0  0  0  0
   22.8135  -21.3777  -17.3372 O   0  0  0  0  0  0  0  0  0  0  0  0
   23.6768  -20.6910   -9.2387 N   0  0  0  0  0  0  0  0  0  0  0  0
   24.2504  -19.5654  -17.1925 C   0  0  1  0  0  0  0  0  0  0  0  0
   24.2141  -19.2640  -18.6120 C   0  0  0  0  0  0  0  0  0  0  0  0
   22.7212  -19.0877  -18.9351 C   0  0  0  0  0  0  0  0  0  0  0  0
   22.5349  -18.7409  -20.3447 O   0  0  0  0  0  0  0  0  0  0  0  0
   22.9033  -17.6290  -20.7539 C   0  0  0  0  0  0  0  0  0  0  0  0
   24.9932  -18.0512  -18.8923 O   0  0  0  0  0  0  0  0  0  0  0  0
   25.6824  -17.9432  -20.1122 O   0  0  0  0  0  0  0  0  0  0  0  0
   21.9426  -19.6825  -21.1948 O   0  0  0  0  0  0  0  0  0  0  0  0
  1  2  1  0
  3  4  1  6
  3  5  1  0
  3  2  1  0
  5  6  1  1
  7  5  1  0
  7 17  1  0
  8  7  2  0
  9 10  1  0
 10 11  2  0
 12 10  1  0
 12 13  1  0
 13 14  1  0
 16 15  1  1
 15 14  1  0
 16 17  1  0
 18 16  1  0
 19 18  2  0
 20 18  1  0
 21 22  1  6
 21 20  1  0
 23 27  1  0
 23 22  1  0
 24 23  2  0
 25 21  1  0
 26 25  1  0
 28 25  2  0
M  END
$$$$
