IRD.pdb
     RDKit          3D

 28 27  0  0  1  0  0  0  0  0999 V2000
   28.3850  -15.5710  -18.8565 C   0  0  0  0  0  0  0  0  0  0  0  0
   27.5277  -15.4037  -17.6412 C   0  0  0  0  0  0  0  0  0  0  0  0
   26.3240  -16.2925  -17.7357 C   0  0  2  0  0  0  0  0  0  0  0  0
   25.5921  -16.0739  -19.0084 C   0  0  0  0  0  0  0  0  0  0  0  0
   25.5045  -16.0621  -16.4798 C   0  0  2  0  0  0  0  0  0  0  0  0
   26.4132  -15.7771  -15.3806 N   0  0  0  0  0  0  0  0  0  0  0  0
   24.7829  -17.3304  -16.1541 C   0  0  0  0  0  0  0  0  0  0  0  0
   23.8816  -17.6820  -16.9468 O   0  0  0  0  0  0  0  0  0  0  0  0
   26.9641  -20.8229   -9.8627 N   0  0  0  0  0  0  0  0  0  0  0  0
   25.5572  -20.9594   -9.7031 C   0  0  0  0  0  0  0  0  0  0  0  0
   25.0288  -20.6195   -8.5748 N   0  0  0  0  0  0  0  0  0  0  0  0
   24.6988  -21.4408  -10.7017 N   0  0  0  0  0  0  0  0  0  0  0  0
   25.2322  -21.8977  -11.9623 C   0  0  0  0  0  0  0  0  0  0  0  0
   24.4105  -21.1977  -13.0638 C   0  0  0  0  0  0  0  0  0  0  0  0
   25.0987  -19.9570  -13.5155 C   0  0  0  0  0  0  0  0  0  0  0  0
   24.3637  -19.2461  -14.5966 C   0  0  2  0  0  0  0  0  0  0  0  0
   25.1304  -18.0584  -15.0097 N   0  0  0  0  0  0  0  0  0  0  0  0
   23.0369  -18.8007  -14.1872 C   0  0  0  0  0  0  0  0  0  0  0  0
   22.9115  -17.6627  -13.6177 O   0  0  0  0  0  0  0  0  0  0  0  0
   23.9968  -20.6438   -8.4041 N   0  0  0  0  0  0  0  0  0  0  0  0
   21.8750  -19.5801  -14.4045 C   0  0  1  0  0  0  0  0  0  0  0  0
   20.5789  -19.0226  -14.0631 C   0  0  0  0  0  0  0  0  0  0  0  0
   20.4452  -17.7745  -14.9512 C   0  0  0  0  0  0  0  0  0  0  0  0
   19.1805  -17.0865  -14.6886 O   0  0  0  0  0  0  0  0  0  0  0  0
   18.5558  -17.3339  -13.6454 C   0  0  0  0  0  0  0  0  0  0  0  0
   19.5204  -20.0073  -14.3206 O   0  0  0  0  0  0  0  0  0  0  0  0
   18.4163  -20.0726  -13.4537 O   0  0  0  0  0  0  0  0  0  0  0  0
   18.7112  -16.1625  -15.6299 O   0  0  0  0  0  0  0  0  0  0  0  0
  1  2  1  0
  3  4  1  6
  3  5  1  0
  3  2  1  0
  5  6  1  1
  7  5  1  0
  7 17  1  0
  8  7  2  0
  9 10  1  0
 10 11  2  0
 12 10  1  0
 12 13  1  0
 13 14  1  0
 16 15  1  1
 15 14  1  0
 16 17  1  0
 18 16  1  0
 19 18  2  0
 20 18  1  0
 21 22  1  1
 21 20  1  0
 23 27  1  0
 23 22  1  0
 24 23  2  0
 25 21  1  0
 26 25  1  0
 28 25  2  0
M  END
$$$$
