IRD.pdb
     RDKit          3D

 28 27  0  0  1  0  0  0  0  0999 V2000
   27.8162  -20.6654  -20.7924 C   0  0  0  0  0  0  0  0  0  0  0  0
   28.3656  -21.1898  -19.5029 C   0  0  0  0  0  0  0  0  0  0  0  0
   27.3088  -21.1493  -18.4401 C   0  0  2  0  0  0  0  0  0  0  0  0
   26.7114  -19.7952  -18.3265 C   0  0  0  0  0  0  0  0  0  0  0  0
   27.9421  -21.6770  -17.1664 C   0  0  2  0  0  0  0  0  0  0  0  0
   28.3783  -23.0447  -17.3992 N   0  0  0  0  0  0  0  0  0  0  0  0
   26.8921  -21.7111  -16.1026 C   0  0  0  0  0  0  0  0  0  0  0  0
   26.1111  -22.6879  -16.1167 O   0  0  0  0  0  0  0  0  0  0  0  0
   24.3740  -22.2220  -10.2099 N   0  0  0  0  0  0  0  0  0  0  0  0
   24.5415  -21.2500   -9.1848 C   0  0  0  0  0  0  0  0  0  0  0  0
   23.7379  -21.2750   -8.1742 N   0  0  0  0  0  0  0  0  0  0  0  0
   25.5335  -20.2594   -9.1996 N   0  0  0  0  0  0  0  0  0  0  0  0
   26.4755  -20.1884  -10.2905 C   0  0  0  0  0  0  0  0  0  0  0  0
   25.6799  -20.4955  -11.5754 C   0  0  0  0  0  0  0  0  0  0  0  0
   26.5794  -20.4694  -12.7616 C   0  0  0  0  0  0  0  0  0  0  0  0
   25.8634  -20.7333  -14.0392 C   0  0  2  0  0  0  0  0  0  0  0  0
   26.8217  -20.6815  -15.1564 N   0  0  0  0  0  0  0  0  0  0  0  0
   24.8072  -19.7656  -14.3119 C   0  0  0  0  0  0  0  0  0  0  0  0
   25.1052  -18.6688  -14.8980 O   0  0  0  0  0  0  0  0  0  0  0  0
   23.7894  -20.5795   -7.3941 N   0  0  0  0  0  0  0  0  0  0  0  0
   23.4561  -19.9983  -13.9584 C   0  0  1  0  0  0  0  0  0  0  0  0
   22.4115  -19.6623  -14.9087 C   0  0  0  0  0  0  0  0  0  0  0  0
   22.8245  -20.3713  -16.2091 C   0  0  0  0  0  0  0  0  0  0  0  0
   21.8124  -20.1763  -17.2480 O   0  0  0  0  0  0  0  0  0  0  0  0
   21.3186  -19.0504  -17.4159 C   0  0  0  0  0  0  0  0  0  0  0  0
   21.1081  -20.1215  -14.4119 O   0  0  0  0  0  0  0  0  0  0  0  0
   19.9431  -19.7794  -15.1194 O   0  0  0  0  0  0  0  0  0  0  0  0
   21.4300  -21.2749  -18.0269 O   0  0  0  0  0  0  0  0  0  0  0  0
  1  2  1  0
  3  4  1  1
  3  5  1  0
  3  2  1  0
  5  6  1  6
  7  5  1  0
  7 17  1  0
  8  7  2  0
  9 10  1  0
 10 11  2  0
 12 10  1  0
 12 13  1  0
 13 14  1  0
 16 15  1  1
 15 14  1  0
 16 17  1  0
 18 16  1  0
 19 18  2  0
 20 18  1  0
 21 22  1  6
 21 20  1  0
 23 27  1  0
 23 22  1  0
 24 23  2  0
 25 21  1  0
 26 25  1  0
 28 25  2  0
M  END
$$$$
