IRD.pdb
     RDKit          3D

 28 27  0  0  1  0  0  0  0  0999 V2000
   27.1364  -19.0689   -7.2308 C   0  0  0  0  0  0  0  0  0  0  0  0
   27.4551  -20.1728   -8.1897 C   0  0  0  0  0  0  0  0  0  0  0  0
   26.4677  -20.1739   -9.3179 C   0  0  2  0  0  0  0  0  0  0  0  0
   25.0852  -20.3911   -8.8230 C   0  0  0  0  0  0  0  0  0  0  0  0
   26.9523  -21.1962  -10.3287 C   0  0  2  0  0  0  0  0  0  0  0  0
   28.3007  -20.8376  -10.7390 N   0  0  0  0  0  0  0  0  0  0  0  0
   26.0739  -21.1120  -11.5356 C   0  0  0  0  0  0  0  0  0  0  0  0
   26.1772  -20.0790  -12.2333 O   0  0  0  0  0  0  0  0  0  0  0  0
   24.1203  -24.3521  -18.4749 N   0  0  0  0  0  0  0  0  0  0  0  0
   25.3529  -24.5915  -17.8064 C   0  0  0  0  0  0  0  0  0  0  0  0
   26.4504  -24.4783  -18.4776 N   0  0  0  0  0  0  0  0  0  0  0  0
   25.4544  -24.9426  -16.4529 N   0  0  0  0  0  0  0  0  0  0  0  0
   24.2658  -25.0942  -15.6489 C   0  0  0  0  0  0  0  0  0  0  0  0
   23.9726  -23.7091  -15.0372 C   0  0  0  0  0  0  0  0  0  0  0  0
   24.7431  -23.5248  -13.7765 C   0  0  0  0  0  0  0  0  0  0  0  0
   24.4799  -22.2148  -13.1214 C   0  0  2  0  0  0  0  0  0  0  0  0
   25.1943  -22.1595  -11.8346 N   0  0  0  0  0  0  0  0  0  0  0  0
   23.0648  -21.9832  -12.8566 C   0  0  0  0  0  0  0  0  0  0  0  0
   22.5218  -22.5448  -11.8441 O   0  0  0  0  0  0  0  0  0  0  0  0
   27.3908  -24.6646  -18.0584 N   0  0  0  0  0  0  0  0  0  0  0  0
   22.2665  -21.1499  -13.6769 C   0  0  2  0  0  0  0  0  0  0  0  0
   20.8500  -21.0234  -13.3856 C   0  0  0  0  0  0  0  0  0  0  0  0
   20.4277  -19.7108  -14.0660 C   0  0  0  0  0  0  0  0  0  0  0  0
   20.2187  -18.6574  -13.0719 O   0  0  0  0  0  0  0  0  0  0  0  0
   20.3432  -18.9221  -11.8661 C   0  0  0  0  0  0  0  0  0  0  0  0
   20.1197  -22.1845  -13.9099 O   0  0  0  0  0  0  0  0  0  0  0  0
   20.6170  -22.8571  -15.0392 O   0  0  0  0  0  0  0  0  0  0  0  0
   19.8825  -17.3729  -13.5159 O   0  0  0  0  0  0  0  0  0  0  0  0
  1  2  1  0
  3  4  1  1
  3  5  1  0
  3  2  1  0
  5  6  1  6
  7  5  1  0
  7 17  1  0
  8  7  2  0
  9 10  1  0
 10 11  2  0
 12 10  1  0
 12 13  1  0
 13 14  1  0
 16 15  1  1
 15 14  1  0
 16 17  1  0
 18 16  1  0
 19 18  2  0
 20 18  1  0
 21 22  1  1
 21 20  1  0
 23 27  1  0
 23 22  1  0
 24 23  2  0
 25 21  1  0
 26 25  1  0
 28 25  2  0
M  END
$$$$
