THN.pdb
     RDKit          3D

 26 26  0  0  1  0  0  0  0  0999 V2000
   18.9882  -12.3605  -20.0644 C   0  0  0  0  0  0  0  0  0  0  0  0
   18.6792  -13.5405  -19.1719 C   0  0  1  0  0  0  0  0  0  0  0  0
   17.8445  -14.3907  -19.8795 O   0  0  0  0  0  0  0  0  0  0  0  0
   19.9873  -14.1892  -18.8183 C   0  0  2  0  0  0  0  0  0  0  0  0
   19.7150  -15.4584  -18.1636 N   0  0  0  0  0  0  0  0  0  0  0  0
   20.8537  -13.3280  -17.9700 C   0  0  0  0  0  0  0  0  0  0  0  0
   20.3677  -12.8692  -16.9125 O   0  0  0  0  0  0  0  0  0  0  0  0
   22.1788  -13.0076  -18.2949 N   0  0  0  0  0  0  0  0  0  0  0  0
   23.0322  -12.1323  -17.5654 C   0  0  1  0  0  0  0  0  0  0  0  0
   24.4804  -12.1891  -17.9733 C   0  0  0  0  0  0  0  0  0  0  0  0
   25.2928  -11.2714  -17.1313 C   0  0  0  0  0  0  0  0  0  0  0  0
   25.7385  -10.0017  -17.4363 C   0  0  0  0  0  0  0  0  0  0  0  0
   26.4519   -9.5098  -16.3830 N   0  0  0  0  0  0  0  0  0  0  0  0
   26.4479  -10.4634  -15.4378 C   0  0  0  0  0  0  0  0  0  0  0  0
   25.7528  -11.5152  -15.8912 N   0  0  0  0  0  0  0  0  0  0  0  0
   22.5425  -10.7430  -17.7170 C   0  0  0  0  0  0  0  0  0  0  0  0
   22.2218  -10.3331  -18.8534 O   0  0  0  0  0  0  0  0  0  0  0  0
   20.8518   -6.0652  -16.8438 N   0  0  0  0  0  0  0  0  0  0  0  0
   19.9592   -7.1536  -16.6863 C   0  0  0  0  0  0  0  0  0  0  0  0
   18.7260   -6.9060  -16.6808 O   0  0  0  0  0  0  0  0  0  0  0  0
   20.4475   -8.5333  -16.5333 C   0  0  0  0  0  0  0  0  0  0  0  0
   21.9621   -8.5702  -16.7181 C   0  0  2  0  0  0  0  0  0  0  0  0
   22.4529   -9.9208  -16.5660 N   0  0  0  0  0  0  0  0  0  0  0  0
   22.6406   -7.7131  -15.7301 C   0  0  0  0  0  0  0  0  0  0  0  0
   23.0893   -6.4282  -16.0196 O   0  0  0  0  0  0  0  0  0  0  0  0
   22.8366   -8.1366  -14.5636 O   0  0  0  0  0  0  0  0  0  0  0  0
  2  1  1  6
  2  4  1  0
  3  2  1  0
  4  6  1  0
  4  5  1  1
  6  7  2  0
  8  6  1  0
  8  9  1  0
  9 10  1  6
 10 11  1  0
 11 15  1  0
 12 13  1  0
 12 11  2  0
 13 14  1  0
 14 15  2  0
 16 17  2  0
 16  9  1  0
 19 18  1  0
 19 20  2  0
 22 21  1  1
 21 19  1  0
 22 23  1  0
 23 16  1  0
 24 25  1  0
 24 22  1  0
 26 24  2  0
M  END
$$$$
