THN.pdb
     RDKit          3D

 26 26  0  0  1  0  0  0  0  0999 V2000
   26.9716  -35.6311   -2.7111 C   0  0  0  0  0  0  0  0  0  0  0  0
   26.9818  -34.6059   -3.8217 C   0  0  1  0  0  0  0  0  0  0  0  0
   27.1241  -35.2896   -5.0185 O   0  0  0  0  0  0  0  0  0  0  0  0
   25.6850  -33.8512   -3.7464 C   0  0  2  0  0  0  0  0  0  0  0  0
   25.4759  -33.1592   -5.0078 N   0  0  0  0  0  0  0  0  0  0  0  0
   25.6294  -32.9017   -2.6030 C   0  0  0  0  0  0  0  0  0  0  0  0
   26.3933  -31.9112   -2.6264 O   0  0  0  0  0  0  0  0  0  0  0  0
   24.7692  -33.0610   -1.5083 N   0  0  0  0  0  0  0  0  0  0  0  0
   24.7429  -32.2503   -0.3383 C   0  0  1  0  0  0  0  0  0  0  0  0
   23.3681  -32.0198    0.2307 C   0  0  0  0  0  0  0  0  0  0  0  0
   22.6642  -30.9532   -0.5296 C   0  0  0  0  0  0  0  0  0  0  0  0
   22.5556  -30.8089   -1.8975 C   0  0  0  0  0  0  0  0  0  0  0  0
   21.8240  -29.6918   -2.1757 N   0  0  0  0  0  0  0  0  0  0  0  0
   21.4842  -29.1515   -0.9946 C   0  0  0  0  0  0  0  0  0  0  0  0
   21.9897  -29.9106   -0.0131 N   0  0  0  0  0  0  0  0  0  0  0  0
   25.5964  -32.8724    0.6997 C   0  0  0  0  0  0  0  0  0  0  0  0
   26.1553  -33.9627    0.4526 O   0  0  0  0  0  0  0  0  0  0  0  0
   30.3796  -32.9839    3.2958 N   0  0  0  0  0  0  0  0  0  0  0  0
   29.0252  -33.3976    3.2733 C   0  0  0  0  0  0  0  0  0  0  0  0
   28.6526  -34.2357    4.1340 O   0  0  0  0  0  0  0  0  0  0  0  0
   28.0760  -32.8708    2.2800 C   0  0  0  0  0  0  0  0  0  0  0  0
   26.6874  -32.7522    2.9022 C   0  0  2  0  0  0  0  0  0  0  0  0
   25.7527  -32.2098    1.9428 N   0  0  0  0  0  0  0  0  0  0  0  0
   26.7062  -31.8725    4.0841 C   0  0  0  0  0  0  0  0  0  0  0  0
   25.9419  -30.7138    4.1813 O   0  0  0  0  0  0  0  0  0  0  0  0
   27.4376  -32.1575    5.0652 O   0  0  0  0  0  0  0  0  0  0  0  0
  2  1  1  1
  2  4  1  0
  3  2  1  0
  4  6  1  0
  4  5  1  6
  6  7  2  0
  8  6  1  0
  8  9  1  0
  9 10  1  1
 10 11  1  0
 11 15  1  0
 12 13  1  0
 12 11  2  0
 13 14  1  0
 14 15  2  0
 16 17  2  0
 16  9  1  0
 19 18  1  0
 19 20  2  0
 22 21  1  6
 21 19  1  0
 22 23  1  0
 23 16  1  0
 24 25  1  0
 24 22  1  0
 26 24  2  0
M  END
$$$$
