THN.pdb
     RDKit          3D

 26 26  0  0  1  0  0  0  0  0999 V2000
   20.9027  -14.3783  -18.6764 C   0  0  0  0  0  0  0  0  0  0  0  0
   21.1602  -13.4386  -17.5209 C   0  0  1  0  0  0  0  0  0  0  0  0
   21.4089  -14.2146  -16.4002 O   0  0  0  0  0  0  0  0  0  0  0  0
   22.3365  -12.5818  -17.8940 C   0  0  2  0  0  0  0  0  0  0  0  0
   23.5210  -13.4220  -17.9613 N   0  0  0  0  0  0  0  0  0  0  0  0
   22.5451  -11.4415  -16.9622 C   0  0  0  0  0  0  0  0  0  0  0  0
   22.5095  -11.6750  -15.7337 O   0  0  0  0  0  0  0  0  0  0  0  0
   22.7782  -10.1275  -17.3900 N   0  0  0  0  0  0  0  0  0  0  0  0
   22.9228   -8.9864  -16.5511 C   0  0  1  0  0  0  0  0  0  0  0  0
   24.2388   -8.2691  -16.6946 C   0  0  0  0  0  0  0  0  0  0  0  0
   25.3580   -9.1470  -16.2613 C   0  0  0  0  0  0  0  0  0  0  0  0
   26.3200   -9.7533  -17.0429 C   0  0  0  0  0  0  0  0  0  0  0  0
   27.1601  -10.4732  -16.2451 N   0  0  0  0  0  0  0  0  0  0  0  0
   26.7234  -10.3144  -14.9855 C   0  0  0  0  0  0  0  0  0  0  0  0
   25.6448   -9.5199  -15.0013 N   0  0  0  0  0  0  0  0  0  0  0  0
   21.8224   -8.0366  -16.8337 C   0  0  0  0  0  0  0  0  0  0  0  0
   21.5178   -7.7966  -18.0218 O   0  0  0  0  0  0  0  0  0  0  0  0
   18.5490   -8.6332  -17.0988 N   0  0  0  0  0  0  0  0  0  0  0  0
   18.0930   -8.1026  -15.8672 C   0  0  0  0  0  0  0  0  0  0  0  0
   17.0478   -8.5922  -15.3677 O   0  0  0  0  0  0  0  0  0  0  0  0
   18.8109   -7.0139  -15.1856 C   0  0  0  0  0  0  0  0  0  0  0  0
   20.0114   -6.5811  -16.0228 C   0  0  2  0  0  0  0  0  0  0  0  0
   21.1482   -7.4289  -15.7451 N   0  0  0  0  0  0  0  0  0  0  0  0
   20.3879   -5.1861  -15.7335 C   0  0  0  0  0  0  0  0  0  0  0  0
   19.8205   -4.0952  -16.3847 O   0  0  0  0  0  0  0  0  0  0  0  0
   21.2596   -4.9407  -14.8626 O   0  0  0  0  0  0  0  0  0  0  0  0
  2  1  1  6
  2  4  1  0
  3  2  1  0
  4  6  1  0
  4  5  1  1
  6  7  2  0
  8  6  1  0
  8  9  1  0
  9 10  1  6
 10 11  1  0
 11 15  1  0
 12 13  1  0
 12 11  2  0
 13 14  1  0
 14 15  2  0
 16 17  2  0
 16  9  1  0
 19 18  1  0
 19 20  2  0
 22 21  1  1
 21 19  1  0
 22 23  1  0
 23 16  1  0
 24 25  1  0
 24 22  1  0
 26 24  2  0
M  END
$$$$
