THN.pdb
     RDKit          3D

 26 26  0  0  1  0  0  0  0  0999 V2000
   24.3422  -12.7212  -19.7626 C   0  0  0  0  0  0  0  0  0  0  0  0
   23.2914  -11.7087  -19.3687 C   0  0  1  0  0  0  0  0  0  0  0  0
   22.6117  -11.3445  -20.5199 O   0  0  0  0  0  0  0  0  0  0  0  0
   22.3931  -12.3652  -18.3593 C   0  0  2  0  0  0  0  0  0  0  0  0
   21.7025  -13.4717  -19.0014 N   0  0  0  0  0  0  0  0  0  0  0  0
   21.4248  -11.4210  -17.7404 C   0  0  0  0  0  0  0  0  0  0  0  0
   20.4132  -11.1013  -18.4033 O   0  0  0  0  0  0  0  0  0  0  0  0
   21.5890  -10.8757  -16.4599 N   0  0  0  0  0  0  0  0  0  0  0  0
   20.7386   -9.9151  -15.8428 C   0  0  1  0  0  0  0  0  0  0  0  0
   19.8857  -10.4609  -14.7286 C   0  0  0  0  0  0  0  0  0  0  0  0
   18.8047  -11.3222  -15.2771 C   0  0  0  0  0  0  0  0  0  0  0  0
   17.7234  -10.9488  -16.0485 C   0  0  0  0  0  0  0  0  0  0  0  0
   16.9742  -12.0514  -16.3373 N   0  0  0  0  0  0  0  0  0  0  0  0
   17.5843  -13.0942  -15.7519 C   0  0  0  0  0  0  0  0  0  0  0  0
   18.6791  -12.6519  -15.1189 N   0  0  0  0  0  0  0  0  0  0  0  0
   21.5655   -8.8046  -15.3176 C   0  0  0  0  0  0  0  0  0  0  0  0
   22.5777   -9.0719  -14.6348 O   0  0  0  0  0  0  0  0  0  0  0  0
   23.6496   -4.2367  -14.6369 N   0  0  0  0  0  0  0  0  0  0  0  0
   22.7299   -4.0826  -15.7030 C   0  0  0  0  0  0  0  0  0  0  0  0
   22.6840   -2.9672  -16.2825 O   0  0  0  0  0  0  0  0  0  0  0  0
   21.8519   -5.1846  -16.1272 C   0  0  0  0  0  0  0  0  0  0  0  0
   22.0728   -6.3983  -15.2284 C   0  0  2  0  0  0  0  0  0  0  0  0
   21.1818   -7.4712  -15.6069 N   0  0  0  0  0  0  0  0  0  0  0  0
   21.8282   -6.0656  -13.8140 C   0  0  0  0  0  0  0  0  0  0  0  0
   22.8470   -5.7508  -12.9201 O   0  0  0  0  0  0  0  0  0  0  0  0
   20.6541   -6.0579  -13.3666 O   0  0  0  0  0  0  0  0  0  0  0  0
  2  1  1  6
  2  4  1  0
  3  2  1  0
  4  6  1  0
  4  5  1  6
  6  7  2  0
  8  6  1  0
  8  9  1  0
  9 10  1  1
 10 11  1  0
 11 15  1  0
 12 13  1  0
 12 11  2  0
 13 14  1  0
 14 15  2  0
 16 17  2  0
 16  9  1  0
 19 18  1  0
 19 20  2  0
 22 21  1  6
 21 19  1  0
 22 23  1  0
 23 16  1  0
 24 25  1  0
 24 22  1  0
 26 24  2  0
M  END
$$$$
