THN.pdb
     RDKit          3D

 26 26  0  0  1  0  0  0  0  0999 V2000
   21.8685  -11.1299  -18.1180 C   0  0  0  0  0  0  0  0  0  0  0  0
   21.3352   -9.8502  -17.5160 C   0  0  1  0  0  0  0  0  0  0  0  0
   20.6728   -9.1620  -18.5199 O   0  0  0  0  0  0  0  0  0  0  0  0
   20.4205  -10.2332  -16.3875 C   0  0  2  0  0  0  0  0  0  0  0  0
   19.2832  -10.9544  -16.9351 N   0  0  0  0  0  0  0  0  0  0  0  0
   19.9726   -9.0674  -15.5799 C   0  0  0  0  0  0  0  0  0  0  0  0
   19.0364   -8.3691  -16.0283 O   0  0  0  0  0  0  0  0  0  0  0  0
   20.5437   -8.7153  -14.3495 N   0  0  0  0  0  0  0  0  0  0  0  0
   20.1946   -7.5858  -13.5563 C   0  0  1  0  0  0  0  0  0  0  0  0
   20.0577   -7.8747  -12.0850 C   0  0  0  0  0  0  0  0  0  0  0  0
   18.7662   -8.5579  -11.8085 C   0  0  0  0  0  0  0  0  0  0  0  0
   17.7507   -8.8560  -12.6938 C   0  0  0  0  0  0  0  0  0  0  0  0
   16.7424   -9.4871  -12.0263 N   0  0  0  0  0  0  0  0  0  0  0  0
   17.1292   -9.5785  -10.7439 C   0  0  0  0  0  0  0  0  0  0  0  0
   18.3410   -9.0209  -10.6195 N   0  0  0  0  0  0  0  0  0  0  0  0
   21.2131   -6.5280  -13.7474 C   0  0  0  0  0  0  0  0  0  0  0  0
   22.4236   -6.8349  -13.6979 O   0  0  0  0  0  0  0  0  0  0  0  0
   23.4873   -3.5910  -17.7489 N   0  0  0  0  0  0  0  0  0  0  0  0
   23.1850   -3.6472  -16.3662 C   0  0  0  0  0  0  0  0  0  0  0  0
   23.6877   -2.7692  -15.6189 O   0  0  0  0  0  0  0  0  0  0  0  0
   22.3124   -4.6940  -15.8113 C   0  0  0  0  0  0  0  0  0  0  0  0
   21.7415   -4.2363  -14.4719 C   0  0  2  0  0  0  0  0  0  0  0  0
   20.7814   -5.1984  -13.9810 N   0  0  0  0  0  0  0  0  0  0  0  0
   21.0712   -2.9301  -14.5966 C   0  0  0  0  0  0  0  0  0  0  0  0
   19.6979   -2.7632  -14.4471 O   0  0  0  0  0  0  0  0  0  0  0  0
   21.7467   -1.9013  -14.8494 O   0  0  0  0  0  0  0  0  0  0  0  0
  2  1  1  6
  2  4  1  0
  3  2  1  0
  4  6  1  0
  4  5  1  6
  6  7  2  0
  8  6  1  0
  8  9  1  0
  9 10  1  1
 10 11  1  0
 11 15  1  0
 12 13  1  0
 12 11  2  0
 13 14  1  0
 14 15  2  0
 16 17  2  0
 16  9  1  0
 19 18  1  0
 19 20  2  0
 22 21  1  6
 21 19  1  0
 22 23  1  0
 23 16  1  0
 24 25  1  0
 24 22  1  0
 26 24  2  0
M  END
$$$$
