THN.pdb
     RDKit          3D

 26 26  0  0  1  0  0  0  0  0999 V2000
   26.2359  -21.6413  -10.0928 C   0  0  0  0  0  0  0  0  0  0  0  0
   25.4893  -21.1009  -11.2907 C   0  0  1  0  0  0  0  0  0  0  0  0
   24.6457  -20.0988  -10.8386 O   0  0  0  0  0  0  0  0  0  0  0  0
   26.5135  -20.5889  -12.2632 C   0  0  2  0  0  0  0  0  0  0  0  0
   27.4046  -19.6780  -11.5634 N   0  0  0  0  0  0  0  0  0  0  0  0
   25.9094  -19.9328  -13.4534 C   0  0  0  0  0  0  0  0  0  0  0  0
   25.8880  -18.6823  -13.4851 O   0  0  0  0  0  0  0  0  0  0  0  0
   25.3670  -20.6417  -14.5337 N   0  0  0  0  0  0  0  0  0  0  0  0
   24.7855  -20.0728  -15.7020 C   0  0  1  0  0  0  0  0  0  0  0  0
   25.1928  -20.7386  -16.9896 C   0  0  0  0  0  0  0  0  0  0  0  0
   24.6728  -19.9756  -18.1552 C   0  0  0  0  0  0  0  0  0  0  0  0
   25.3707  -19.1619  -19.0238 C   0  0  0  0  0  0  0  0  0  0  0  0
   24.5114  -18.6537  -19.9532 N   0  0  0  0  0  0  0  0  0  0  0  0
   23.2968  -19.1469  -19.6634 C   0  0  0  0  0  0  0  0  0  0  0  0
   23.3994  -19.9373  -18.5865 N   0  0  0  0  0  0  0  0  0  0  0  0
   23.3105  -20.1208  -15.5798 C   0  0  0  0  0  0  0  0  0  0  0  0
   22.7788  -21.1095  -15.0303 O   0  0  0  0  0  0  0  0  0  0  0  0
   20.2953  -18.9220  -13.3139 N   0  0  0  0  0  0  0  0  0  0  0  0
   20.2231  -17.7290  -14.0740 C   0  0  0  0  0  0  0  0  0  0  0  0
   19.8242  -16.6864  -13.4944 O   0  0  0  0  0  0  0  0  0  0  0  0
   20.6002  -17.6986  -15.4960 C   0  0  0  0  0  0  0  0  0  0  0  0
   21.1119  -19.0708  -15.9257 C   0  0  2  0  0  0  0  0  0  0  0  0
   22.5472  -19.0415  -16.0910 N   0  0  0  0  0  0  0  0  0  0  0  0
   20.5039  -19.4913  -17.2003 C   0  0  0  0  0  0  0  0  0  0  0  0
   19.2472  -20.0828  -17.2843 O   0  0  0  0  0  0  0  0  0  0  0  0
   21.1269  -19.3198  -18.2778 O   0  0  0  0  0  0  0  0  0  0  0  0
  2  1  1  1
  2  4  1  0
  3  2  1  0
  4  6  1  0
  4  5  1  1
  6  7  2  0
  8  6  1  0
  8  9  1  0
  9 10  1  6
 10 11  1  0
 11 15  1  0
 12 13  1  0
 12 11  2  0
 13 14  1  0
 14 15  2  0
 16 17  2  0
 16  9  1  0
 19 18  1  0
 19 20  2  0
 22 21  1  6
 21 19  1  0
 22 23  1  0
 23 16  1  0
 24 25  1  0
 24 22  1  0
 26 24  2  0
M  END
$$$$
