THN.pdb
     RDKit          3D

 26 26  0  0  1  0  0  0  0  0999 V2000
   27.8237  -12.7394  -15.3952 C   0  0  0  0  0  0  0  0  0  0  0  0
   26.7438  -11.7349  -15.7258 C   0  0  1  0  0  0  0  0  0  0  0  0
   27.1215  -11.0851  -16.8899 O   0  0  0  0  0  0  0  0  0  0  0  0
   25.4588  -12.4959  -15.8884 C   0  0  2  0  0  0  0  0  0  0  0  0
   25.6314  -13.4793  -16.9452 N   0  0  0  0  0  0  0  0  0  0  0  0
   24.2921  -11.6162  -16.1656 C   0  0  0  0  0  0  0  0  0  0  0  0
   23.9659  -11.4347  -17.3596 O   0  0  0  0  0  0  0  0  0  0  0  0
   23.5454  -10.9849  -15.1617 N   0  0  0  0  0  0  0  0  0  0  0  0
   22.4006  -10.1624  -15.3607 C   0  0  1  0  0  0  0  0  0  0  0  0
   21.1727  -10.6102  -14.6133 C   0  0  0  0  0  0  0  0  0  0  0  0
   20.5122  -11.7349  -15.3274 C   0  0  0  0  0  0  0  0  0  0  0  0
   20.8869  -12.3311  -16.5140 C   0  0  0  0  0  0  0  0  0  0  0  0
   20.0051  -13.3271  -16.8155 N   0  0  0  0  0  0  0  0  0  0  0  0
   19.0960  -13.3469  -15.8278 C   0  0  0  0  0  0  0  0  0  0  0  0
   19.4045  -12.3920  -14.9402 N   0  0  0  0  0  0  0  0  0  0  0  0
   22.7281   -8.7742  -14.9625 C   0  0  0  0  0  0  0  0  0  0  0  0
   23.3979   -8.5824  -13.9248 O   0  0  0  0  0  0  0  0  0  0  0  0
   23.0976   -3.7198  -14.8129 N   0  0  0  0  0  0  0  0  0  0  0  0
   22.8414   -4.0437  -16.1677 C   0  0  0  0  0  0  0  0  0  0  0  0
   22.8507   -3.1073  -17.0074 O   0  0  0  0  0  0  0  0  0  0  0  0
   22.5720   -5.4272  -16.5904 C   0  0  0  0  0  0  0  0  0  0  0  0
   22.5894   -6.3524  -15.3768 C   0  0  2  0  0  0  0  0  0  0  0  0
   22.2707   -7.7051  -15.7729 N   0  0  0  0  0  0  0  0  0  0  0  0
   21.6111   -5.9203  -14.3631 C   0  0  0  0  0  0  0  0  0  0  0  0
   21.8493   -4.8776  -13.4730 O   0  0  0  0  0  0  0  0  0  0  0  0
   20.5014   -6.5028  -14.2756 O   0  0  0  0  0  0  0  0  0  0  0  0
  2  1  1  6
  2  4  1  0
  3  2  1  0
  4  6  1  0
  4  5  1  6
  6  7  2  0
  8  6  1  0
  8  9  1  0
  9 10  1  1
 10 11  1  0
 11 15  1  0
 12 13  1  0
 12 11  2  0
 13 14  1  0
 14 15  2  0
 16 17  2  0
 16  9  1  0
 19 18  1  0
 19 20  2  0
 22 21  1  6
 21 19  1  0
 22 23  1  0
 23 16  1  0
 24 25  1  0
 24 22  1  0
 26 24  2  0
M  END
$$$$
