HWF.pdb
     RDKit          3D

 36 39  0  0  1  0  0  0  0  0999 V2000
   10.4670  -17.9743   18.9158 N   0  0  0  0  0  0  0  0  0  0  0  0
   10.0405  -18.5543   20.2132 C   0  0  1  0  0  0  0  0  0  0  0  0
   11.1611  -19.4699   20.6314 C   0  0  0  0  0  0  0  0  0  0  0  0
   12.4961  -18.9379   20.3315 C   0  0  0  0  0  0  0  0  0  0  0  0
   12.6868  -17.6562   19.8404 C   0  0  0  0  0  0  0  0  0  0  0  0
   14.0013  -17.4406   19.6612 N   0  0  0  0  0  0  0  0  0  0  0  0
   14.6153  -18.5641   20.0330 C   0  0  0  0  0  0  0  0  0  0  0  0
   13.7143  -19.4812   20.4419 N   0  0  0  0  0  0  0  0  0  0  0  0
    9.8370  -17.4320   21.1802 C   0  0  0  0  0  0  0  0  0  0  0  0
   10.4486  -16.3630   21.1057 O   0  0  0  0  0  0  0  0  0  0  0  0
    8.8987  -17.5351   22.2774 N   0  0  0  0  0  0  0  0  0  0  0  0
    8.6198  -16.4321   23.1406 C   0  0  1  0  0  0  0  0  0  0  0  0
    7.1964  -16.3785   23.5552 C   0  0  0  0  0  0  0  0  0  0  0  0
    6.8702  -15.3779   24.5950 C   0  0  0  0  0  0  0  0  0  0  0  0
    6.1903  -15.6606   25.7911 C   0  0  0  0  0  0  0  0  0  0  0  0
    6.0857  -14.5365   26.5127 N   0  0  0  0  0  0  0  0  0  0  0  0
    6.6623  -13.5002   25.8639 C   0  0  0  0  0  0  0  0  0  0  0  0
    6.8079  -12.1576   26.1796 C   0  0  0  0  0  0  0  0  0  0  0  0
    7.4428  -11.2944   25.3163 C   0  0  0  0  0  0  0  0  0  0  0  0
    7.9189  -11.8283   24.1391 C   0  0  0  0  0  0  0  0  0  0  0  0
    7.7743  -13.1736   23.8208 C   0  0  0  0  0  0  0  0  0  0  0  0
    7.1454  -14.0300   24.6767 C   0  0  0  0  0  0  0  0  0  0  0  0
    9.5527  -16.3767   24.3056 C   0  0  0  0  0  0  0  0  0  0  0  0
    9.5649  -15.3804   25.0675 O   0  0  0  0  0  0  0  0  0  0  0  0
   10.4521  -17.4375   24.5943 N   0  0  0  0  0  0  0  0  0  0  0  0
   11.3056  -17.4811   25.7387 C   0  0  1  0  0  0  0  0  0  0  0  0
   10.5491  -17.6119   27.0717 C   0  0  0  0  0  0  0  0  0  0  0  0
   10.2246  -16.2889   27.6198 C   0  0  0  0  0  0  0  0  0  0  0  0
    9.7314  -16.1464   28.8820 C   0  0  0  0  0  0  0  0  0  0  0  0
    9.4025  -14.8893   29.4106 C   0  0  0  0  0  0  0  0  0  0  0  0
    9.5816  -13.7645   28.6377 C   0  0  0  0  0  0  0  0  0  0  0  0
   10.0751  -13.8703   27.3672 C   0  0  0  0  0  0  0  0  0  0  0  0
   10.3869  -15.1186   26.8797 C   0  0  0  0  0  0  0  0  0  0  0  0
   12.4251  -18.4081   25.6257 C   0  0  0  0  0  0  0  0  0  0  0  0
   12.5773  -19.1386   24.5947 O   0  0  0  0  0  0  0  0  0  0  0  0
   13.3755  -18.5439   26.6243 O   0  0  0  0  0  0  0  0  0  0  0  0
  2  1  1  6
  3  2  1  0
  4  5  2  0
  4  3  1  0
  6  5  1  0
  7  8  2  0
  7  6  1  0
  8  4  1  0
  9  2  1  0
 10  9  2  0
 11  9  1  0
 12 13  1  1
 12 11  1  0
 13 14  1  0
 14 22  1  0
 14 15  2  0
 15 16  1  0
 17 16  1  0
 17 18  2  0
 19 18  1  0
 20 19  2  0
 21 20  1  0
 21 22  2  0
 22 17  1  0
 23 12  1  0
 24 23  2  0
 25 23  1  0
 26 25  1  0
 26 27  1  1
 27 28  1  0
 28 33  1  0
 29 28  2  0
 29 30  1  0
 30 31  2  0
 31 32  1  0
 33 32  2  0
 34 36  1  0
 34 26  1  0
 35 34  2  0
M  END
$$$$
