HWF.pdb
     RDKit          3D

 36 39  0  0  1  0  0  0  0  0999 V2000
    9.7782  -19.2336   19.0557 N   0  0  0  0  0  0  0  0  0  0  0  0
    8.9773  -19.3976   20.2940 C   0  0  1  0  0  0  0  0  0  0  0  0
    9.4598  -20.6814   20.9169 C   0  0  0  0  0  0  0  0  0  0  0  0
    8.9019  -21.8847   20.2877 C   0  0  0  0  0  0  0  0  0  0  0  0
    7.9795  -21.8179   19.2557 C   0  0  0  0  0  0  0  0  0  0  0  0
    7.6469  -23.0637   18.8764 N   0  0  0  0  0  0  0  0  0  0  0  0
    8.3475  -23.8879   19.6557 C   0  0  0  0  0  0  0  0  0  0  0  0
    9.1132  -23.1863   20.5168 N   0  0  0  0  0  0  0  0  0  0  0  0
    9.2299  -18.2137   21.1718 C   0  0  0  0  0  0  0  0  0  0  0  0
   10.3353  -17.6741   21.2688 O   0  0  0  0  0  0  0  0  0  0  0  0
    8.1786  -17.6232   21.9723 N   0  0  0  0  0  0  0  0  0  0  0  0
    8.4268  -16.5361   22.8645 C   0  0  1  0  0  0  0  0  0  0  0  0
    7.2865  -15.5904   22.9420 C   0  0  0  0  0  0  0  0  0  0  0  0
    7.5934  -14.2643   23.5215 C   0  0  0  0  0  0  0  0  0  0  0  0
    8.4647  -13.3236   22.9482 C   0  0  0  0  0  0  0  0  0  0  0  0
    8.4925  -12.2259   23.7161 N   0  0  0  0  0  0  0  0  0  0  0  0
    7.6809  -12.3747   24.7869 C   0  0  0  0  0  0  0  0  0  0  0  0
    7.3752  -11.5467   25.8566 C   0  0  0  0  0  0  0  0  0  0  0  0
    6.5040  -11.9565   26.8398 C   0  0  0  0  0  0  0  0  0  0  0  0
    5.9601  -13.2150   26.7057 C   0  0  0  0  0  0  0  0  0  0  0  0
    6.2649  -14.0463   25.6342 C   0  0  0  0  0  0  0  0  0  0  0  0
    7.1282  -13.6402   24.6588 C   0  0  0  0  0  0  0  0  0  0  0  0
    8.8704  -17.0019   24.2125 C   0  0  0  0  0  0  0  0  0  0  0  0
    8.1463  -16.8221   25.2208 O   0  0  0  0  0  0  0  0  0  0  0  0
   10.1146  -17.6597   24.4043 N   0  0  0  0  0  0  0  0  0  0  0  0
   11.1718  -17.1606   25.2248 C   0  0  1  0  0  0  0  0  0  0  0  0
   11.2193  -15.6254   25.3089 C   0  0  0  0  0  0  0  0  0  0  0  0
   10.8179  -15.1630   26.6435 C   0  0  0  0  0  0  0  0  0  0  0  0
   10.6159  -13.8408   26.9043 C   0  0  0  0  0  0  0  0  0  0  0  0
   10.2481  -13.3856   28.1791 C   0  0  0  0  0  0  0  0  0  0  0  0
   10.0844  -14.2952   29.1991 C   0  0  0  0  0  0  0  0  0  0  0  0
   10.2781  -15.6294   28.9730 C   0  0  0  0  0  0  0  0  0  0  0  0
   10.6388  -16.0417   27.7109 C   0  0  0  0  0  0  0  0  0  0  0  0
   11.2858  -17.8063   26.5269 C   0  0  0  0  0  0  0  0  0  0  0  0
   12.2463  -17.5365   27.3170 O   0  0  0  0  0  0  0  0  0  0  0  0
   10.3642  -18.7401   26.9715 O   0  0  0  0  0  0  0  0  0  0  0  0
  2  1  1  6
  3  2  1  0
  4  5  2  0
  4  3  1  0
  6  5  1  0
  7  8  2  0
  7  6  1  0
  8  4  1  0
  9  2  1  0
 10  9  2  0
 11  9  1  0
 12 13  1  1
 12 11  1  0
 13 14  1  0
 14 22  1  0
 14 15  2  0
 15 16  1  0
 17 16  1  0
 17 18  2  0
 19 18  1  0
 20 19  2  0
 21 20  1  0
 21 22  2  0
 22 17  1  0
 23 12  1  0
 24 23  2  0
 25 23  1  0
 26 25  1  0
 26 27  1  1
 27 28  1  0
 28 33  1  0
 29 28  2  0
 29 30  1  0
 30 31  2  0
 31 32  1  0
 33 32  2  0
 34 36  1  0
 34 26  1  0
 35 34  2  0
M  END
$$$$
