HWF.pdb
     RDKit          3D

 36 39  0  0  1  0  0  0  0  0999 V2000
    7.7498  -18.8437   18.5958 N   0  0  0  0  0  0  0  0  0  0  0  0
    7.9707  -17.4335   18.1905 C   0  0  1  0  0  0  0  0  0  0  0  0
    6.9137  -17.1425   17.1575 C   0  0  0  0  0  0  0  0  0  0  0  0
    7.2267  -17.6837   15.8293 C   0  0  0  0  0  0  0  0  0  0  0  0
    7.8796  -16.9357   14.8625 C   0  0  0  0  0  0  0  0  0  0  0  0
    8.0333  -17.6803   13.7541 N   0  0  0  0  0  0  0  0  0  0  0  0
    7.4878  -18.8662   14.0256 C   0  0  0  0  0  0  0  0  0  0  0  0
    6.9944  -18.8824   15.2811 N   0  0  0  0  0  0  0  0  0  0  0  0
    7.8268  -16.5724   19.4045 C   0  0  0  0  0  0  0  0  0  0  0  0
    7.8403  -15.3395   19.3579 O   0  0  0  0  0  0  0  0  0  0  0  0
    7.6623  -17.1419   20.7248 N   0  0  0  0  0  0  0  0  0  0  0  0
    7.7705  -16.3509   21.9089 C   0  0  1  0  0  0  0  0  0  0  0  0
    7.2597  -17.0526   23.1120 C   0  0  0  0  0  0  0  0  0  0  0  0
    6.7111  -16.1826   24.1754 C   0  0  0  0  0  0  0  0  0  0  0  0
    5.4435  -16.3374   24.7602 C   0  0  0  0  0  0  0  0  0  0  0  0
    5.2777  -15.4001   25.7031 N   0  0  0  0  0  0  0  0  0  0  0  0
    6.3734  -14.6128   25.7881 C   0  0  0  0  0  0  0  0  0  0  0  0
    6.6870  -13.5214   26.5842 C   0  0  0  0  0  0  0  0  0  0  0  0
    7.8978  -12.8801   26.4575 C   0  0  0  0  0  0  0  0  0  0  0  0
    8.7686  -13.3737   25.5111 C   0  0  0  0  0  0  0  0  0  0  0  0
    8.4564  -14.4676   24.7124 C   0  0  0  0  0  0  0  0  0  0  0  0
    7.2562  -15.1042   24.8380 C   0  0  0  0  0  0  0  0  0  0  0  0
    9.1512  -15.8167   22.1070 C   0  0  0  0  0  0  0  0  0  0  0  0
    9.6695  -15.0545   21.2563 O   0  0  0  0  0  0  0  0  0  0  0  0
    9.9231  -16.1461   23.2530 N   0  0  0  0  0  0  0  0  0  0  0  0
   11.2317  -15.6380   23.5162 C   0  0  1  0  0  0  0  0  0  0  0  0
   11.3256  -14.1039   23.4526 C   0  0  0  0  0  0  0  0  0  0  0  0
   10.3923  -13.5647   22.4555 C   0  0  0  0  0  0  0  0  0  0  0  0
   10.5760  -13.7816   21.1228 C   0  0  0  0  0  0  0  0  0  0  0  0
    9.7003  -13.2580   20.1600 C   0  0  0  0  0  0  0  0  0  0  0  0
    8.6231  -12.5039   20.5669 C   0  0  0  0  0  0  0  0  0  0  0  0
    8.4078  -12.2669   21.8960 C   0  0  0  0  0  0  0  0  0  0  0  0
    9.2865  -12.7949   22.8136 C   0  0  0  0  0  0  0  0  0  0  0  0
   11.8743  -16.1996   24.6982 C   0  0  0  0  0  0  0  0  0  0  0  0
   13.0545  -15.8610   25.0331 O   0  0  0  0  0  0  0  0  0  0  0  0
   11.2421  -17.1236   25.5139 O   0  0  0  0  0  0  0  0  0  0  0  0
  2  1  1  1
  3  2  1  0
  4  5  2  0
  4  3  1  0
  6  5  1  0
  7  8  2  0
  7  6  1  0
  8  4  1  0
  9  2  1  0
 10  9  2  0
 11  9  1  0
 12 13  1  1
 12 11  1  0
 13 14  1  0
 14 22  1  0
 14 15  2  0
 15 16  1  0
 17 16  1  0
 17 18  2  0
 19 18  1  0
 20 19  2  0
 21 20  1  0
 21 22  2  0
 22 17  1  0
 23 12  1  0
 24 23  2  0
 25 23  1  0
 26 25  1  0
 26 27  1  1
 27 28  1  0
 28 33  1  0
 29 28  2  0
 29 30  1  0
 30 31  2  0
 31 32  1  0
 33 32  2  0
 34 36  1  0
 34 26  1  0
 35 34  2  0
M  END
$$$$
