HWF.pdb
     RDKit          3D

 36 39  0  0  1  0  0  0  0  0999 V2000
    9.7046  -19.1815   19.7703 N   0  0  0  0  0  0  0  0  0  0  0  0
    9.0471  -18.9144   21.0734 C   0  0  1  0  0  0  0  0  0  0  0  0
    9.3864  -20.0960   21.9439 C   0  0  0  0  0  0  0  0  0  0  0  0
    9.0287  -21.3877   21.3450 C   0  0  0  0  0  0  0  0  0  0  0  0
    7.8646  -21.5657   20.6146 C   0  0  0  0  0  0  0  0  0  0  0  0
    7.7981  -22.8388   20.1889 N   0  0  0  0  0  0  0  0  0  0  0  0
    8.8974  -23.4400   20.6446 C   0  0  0  0  0  0  0  0  0  0  0  0
    9.6532  -22.5715   21.3478 N   0  0  0  0  0  0  0  0  0  0  0  0
    9.5966  -17.6349   21.6183 C   0  0  0  0  0  0  0  0  0  0  0  0
   10.7058  -17.1941   21.3057 O   0  0  0  0  0  0  0  0  0  0  0  0
    8.8503  -16.8270   22.5591 N   0  0  0  0  0  0  0  0  0  0  0  0
    9.3509  -15.5840   23.0529 C   0  0  1  0  0  0  0  0  0  0  0  0
    8.4226  -14.4548   22.8000 C   0  0  0  0  0  0  0  0  0  0  0  0
    7.7952  -14.4301   21.4605 C   0  0  0  0  0  0  0  0  0  0  0  0
    6.6184  -15.1153   21.1162 C   0  0  0  0  0  0  0  0  0  0  0  0
    6.3173  -14.8551   19.8369 N   0  0  0  0  0  0  0  0  0  0  0  0
    7.2346  -14.0246   19.2925 C   0  0  0  0  0  0  0  0  0  0  0  0
    7.3722  -13.4772   18.0257 C   0  0  0  0  0  0  0  0  0  0  0  0
    8.4305  -12.6506   17.7252 C   0  0  0  0  0  0  0  0  0  0  0  0
    9.3323  -12.4001   18.7359 C   0  0  0  0  0  0  0  0  0  0  0  0
    9.1961  -12.9474   20.0063 C   0  0  0  0  0  0  0  0  0  0  0  0
    8.1467  -13.7666   20.3049 C   0  0  0  0  0  0  0  0  0  0  0  0
    9.7625  -15.6703   24.4861 C   0  0  0  0  0  0  0  0  0  0  0  0
   10.6163  -14.8797   24.9543 O   0  0  0  0  0  0  0  0  0  0  0  0
    9.2098  -16.6390   25.3657 N   0  0  0  0  0  0  0  0  0  0  0  0
    9.4210  -16.6583   26.7782 C   0  0  1  0  0  0  0  0  0  0  0  0
    8.2023  -16.1937   27.5937 C   0  0  0  0  0  0  0  0  0  0  0  0
    7.7788  -14.8500   27.1800 C   0  0  0  0  0  0  0  0  0  0  0  0
    6.5827  -14.6433   26.5606 C   0  0  0  0  0  0  0  0  0  0  0  0
    6.1746  -13.3667   26.1464 C   0  0  0  0  0  0  0  0  0  0  0  0
    7.0007  -12.2887   26.3698 C   0  0  0  0  0  0  0  0  0  0  0  0
    8.2074  -12.4593   26.9891 C   0  0  0  0  0  0  0  0  0  0  0  0
    8.5771  -13.7250   27.3821 C   0  0  0  0  0  0  0  0  0  0  0  0
   10.0105  -17.8908   27.2868 C   0  0  0  0  0  0  0  0  0  0  0  0
   10.2171  -18.8887   26.5244 O   0  0  0  0  0  0  0  0  0  0  0  0
   10.3746  -18.0424   28.6147 O   0  0  0  0  0  0  0  0  0  0  0  0
  2  1  1  6
  3  2  1  0
  4  5  2  0
  4  3  1  0
  6  5  1  0
  7  8  2  0
  7  6  1  0
  8  4  1  0
  9  2  1  0
 10  9  2  0
 11  9  1  0
 12 13  1  1
 12 11  1  0
 13 14  1  0
 14 22  1  0
 14 15  2  0
 15 16  1  0
 17 16  1  0
 17 18  2  0
 19 18  1  0
 20 19  2  0
 21 20  1  0
 21 22  2  0
 22 17  1  0
 23 12  1  0
 24 23  2  0
 25 23  1  0
 26 25  1  0
 26 27  1  1
 27 28  1  0
 28 33  1  0
 29 28  2  0
 29 30  1  0
 30 31  2  0
 31 32  1  0
 33 32  2  0
 34 36  1  0
 34 26  1  0
 35 34  2  0
M  END
$$$$
