HWF.pdb
     RDKit          3D

 36 39  0  0  1  0  0  0  0  0999 V2000
   10.0359  -17.4311   18.8931 N   0  0  0  0  0  0  0  0  0  0  0  0
   11.0472  -17.0266   19.9008 C   0  0  1  0  0  0  0  0  0  0  0  0
   11.8962  -15.9842   19.2214 C   0  0  0  0  0  0  0  0  0  0  0  0
   12.8747  -16.5458   18.2822 C   0  0  0  0  0  0  0  0  0  0  0  0
   14.0367  -17.1675   18.7106 C   0  0  0  0  0  0  0  0  0  0  0  0
   14.7378  -17.5829   17.6419 N   0  0  0  0  0  0  0  0  0  0  0  0
   14.0272  -17.2273   16.5713 C   0  0  0  0  0  0  0  0  0  0  0  0
   12.8944  -16.5970   16.9449 N   0  0  0  0  0  0  0  0  0  0  0  0
   10.3254  -16.4797   21.0908 C   0  0  0  0  0  0  0  0  0  0  0  0
    9.6309  -15.4610   21.0444 O   0  0  0  0  0  0  0  0  0  0  0  0
   10.4010  -17.1210   22.3862 N   0  0  0  0  0  0  0  0  0  0  0  0
    9.6287  -16.6705   23.4997 C   0  0  1  0  0  0  0  0  0  0  0  0
    8.2178  -16.3884   23.1381 C   0  0  0  0  0  0  0  0  0  0  0  0
    7.3691  -15.8670   24.2318 C   0  0  0  0  0  0  0  0  0  0  0  0
    6.4444  -16.6329   24.9607 C   0  0  0  0  0  0  0  0  0  0  0  0
    5.8680  -15.8581   25.8895 N   0  0  0  0  0  0  0  0  0  0  0  0
    6.3564  -14.5991   25.8275 C   0  0  0  0  0  0  0  0  0  0  0  0
    6.0832  -13.4484   26.5518 C   0  0  0  0  0  0  0  0  0  0  0  0
    6.7306  -12.2672   26.2707 C   0  0  0  0  0  0  0  0  0  0  0  0
    7.6510  -12.2894   25.2460 C   0  0  0  0  0  0  0  0  0  0  0  0
    7.9265  -13.4416   24.5190 C   0  0  0  0  0  0  0  0  0  0  0  0
    7.2853  -14.6132   24.7978 C   0  0  0  0  0  0  0  0  0  0  0  0
    9.7413  -17.5875   24.6732 C   0  0  0  0  0  0  0  0  0  0  0  0
    9.6351  -18.8288   24.5265 O   0  0  0  0  0  0  0  0  0  0  0  0
    9.9710  -17.0969   25.9862 N   0  0  0  0  0  0  0  0  0  0  0  0
   10.3814  -17.9070   27.0887 C   0  0  1  0  0  0  0  0  0  0  0  0
   10.3176  -17.1856   28.4458 C   0  0  0  0  0  0  0  0  0  0  0  0
   10.1401  -15.7398   28.2606 C   0  0  0  0  0  0  0  0  0  0  0  0
    8.9451  -15.1348   28.5109 C   0  0  0  0  0  0  0  0  0  0  0  0
    8.7589  -13.7573   28.3222 C   0  0  0  0  0  0  0  0  0  0  0  0
    9.8094  -12.9899   27.8726 C   0  0  0  0  0  0  0  0  0  0  0  0
   11.0227  -13.5635   27.6122 C   0  0  0  0  0  0  0  0  0  0  0  0
   11.1706  -14.9174   27.8074 C   0  0  0  0  0  0  0  0  0  0  0  0
    9.7828  -19.2359   27.1212 C   0  0  0  0  0  0  0  0  0  0  0  0
    8.7053  -19.4913   26.4939 O   0  0  0  0  0  0  0  0  0  0  0  0
   10.3480  -20.2835   27.8297 O   0  0  0  0  0  0  0  0  0  0  0  0
  2  1  1  6
  3  2  1  0
  4  5  2  0
  4  3  1  0
  6  5  1  0
  7  8  2  0
  7  6  1  0
  8  4  1  0
  9  2  1  0
 10  9  2  0
 11  9  1  0
 12 13  1  6
 12 11  1  0
 13 14  1  0
 14 22  1  0
 14 15  2  0
 15 16  1  0
 17 16  1  0
 17 18  2  0
 19 18  1  0
 20 19  2  0
 21 20  1  0
 21 22  2  0
 22 17  1  0
 23 12  1  0
 24 23  2  0
 25 23  1  0
 26 25  1  0
 26 27  1  1
 27 28  1  0
 28 33  1  0
 29 28  2  0
 29 30  1  0
 30 31  2  0
 31 32  1  0
 33 32  2  0
 34 36  1  0
 34 26  1  0
 35 34  2  0
M  END
$$$$
