HWF.pdb
     RDKit          3D

 36 39  0  0  1  0  0  0  0  0999 V2000
   10.5094  -18.4418   19.3743 N   0  0  0  0  0  0  0  0  0  0  0  0
   10.6746  -18.7214   20.8221 C   0  0  1  0  0  0  0  0  0  0  0  0
   12.0158  -19.3948   20.9504 C   0  0  0  0  0  0  0  0  0  0  0  0
   11.9910  -20.8218   20.6067 C   0  0  0  0  0  0  0  0  0  0  0  0
   10.8224  -21.5661   20.6282 C   0  0  0  0  0  0  0  0  0  0  0  0
   11.0960  -22.8324   20.2704 N   0  0  0  0  0  0  0  0  0  0  0  0
   12.4069  -22.8750   20.0313 C   0  0  0  0  0  0  0  0  0  0  0  0
   12.9628  -21.6621   20.2315 N   0  0  0  0  0  0  0  0  0  0  0  0
   10.6233  -17.4196   21.5562 C   0  0  0  0  0  0  0  0  0  0  0  0
   11.3426  -16.4590   21.2696 O   0  0  0  0  0  0  0  0  0  0  0  0
    9.7154  -17.2068   22.6631 N   0  0  0  0  0  0  0  0  0  0  0  0
    9.6609  -15.9667   23.3693 C   0  0  1  0  0  0  0  0  0  0  0  0
    8.2729  -15.4771   23.5552 C   0  0  0  0  0  0  0  0  0  0  0  0
    7.5404  -15.1439   22.3138 C   0  0  0  0  0  0  0  0  0  0  0  0
    6.4481  -15.8697   21.8109 C   0  0  0  0  0  0  0  0  0  0  0  0
    6.0092  -15.2817   20.6898 N   0  0  0  0  0  0  0  0  0  0  0  0
    6.7520  -14.1889   20.4045 C   0  0  0  0  0  0  0  0  0  0  0  0
    6.7063  -13.2650   19.3711 C   0  0  0  0  0  0  0  0  0  0  0  0
    7.6087  -12.2280   19.3112 C   0  0  0  0  0  0  0  0  0  0  0  0
    8.5460  -12.1583   20.3183 C   0  0  0  0  0  0  0  0  0  0  0  0
    8.5933  -13.0829   21.3551 C   0  0  0  0  0  0  0  0  0  0  0  0
    7.6984  -14.1110   21.4153 C   0  0  0  0  0  0  0  0  0  0  0  0
   10.4227  -16.0139   24.6531 C   0  0  0  0  0  0  0  0  0  0  0  0
   11.5922  -15.5653   24.7189 O   0  0  0  0  0  0  0  0  0  0  0  0
    9.8601  -16.5617   25.8367 N   0  0  0  0  0  0  0  0  0  0  0  0
   10.4334  -16.4279   27.1380 C   0  0  1  0  0  0  0  0  0  0  0  0
   10.5257  -14.9727   27.6282 C   0  0  0  0  0  0  0  0  0  0  0  0
    9.2246  -14.3011   27.5177 C   0  0  0  0  0  0  0  0  0  0  0  0
    9.0450  -13.0263   27.9643 C   0  0  0  0  0  0  0  0  0  0  0  0
    7.8029  -12.3801   27.8790 C   0  0  0  0  0  0  0  0  0  0  0  0
    6.7318  -13.0471   27.3289 C   0  0  0  0  0  0  0  0  0  0  0  0
    6.8761  -14.3267   26.8700 C   0  0  0  0  0  0  0  0  0  0  0  0
    8.1081  -14.9310   26.9696 C   0  0  0  0  0  0  0  0  0  0  0  0
    9.8826  -17.3326   28.1397 C   0  0  0  0  0  0  0  0  0  0  0  0
   10.3257  -17.3471   29.3327 O   0  0  0  0  0  0  0  0  0  0  0  0
    8.8568  -18.2177   27.8512 O   0  0  0  0  0  0  0  0  0  0  0  0
  2  1  1  6
  3  2  1  0
  4  5  2  0
  4  3  1  0
  6  5  1  0
  7  8  2  0
  7  6  1  0
  8  4  1  0
  9  2  1  0
 10  9  2  0
 11  9  1  0
 12 13  1  1
 12 11  1  0
 13 14  1  0
 14 22  1  0
 14 15  2  0
 15 16  1  0
 17 16  1  0
 17 18  2  0
 19 18  1  0
 20 19  2  0
 21 20  1  0
 21 22  2  0
 22 17  1  0
 23 12  1  0
 24 23  2  0
 25 23  1  0
 26 25  1  0
 26 27  1  1
 27 28  1  0
 28 33  1  0
 29 28  2  0
 29 30  1  0
 30 31  2  0
 31 32  1  0
 33 32  2  0
 34 36  1  0
 34 26  1  0
 35 34  2  0
M  END
$$$$
