HWF.pdb
     RDKit          3D

 36 39  0  0  1  0  0  0  0  0999 V2000
    9.4456  -17.4615   18.1133 N   0  0  0  0  0  0  0  0  0  0  0  0
   10.5401  -17.4588   19.1151 C   0  0  1  0  0  0  0  0  0  0  0  0
   11.6977  -16.7682   18.4431 C   0  0  0  0  0  0  0  0  0  0  0  0
   12.2468  -17.5162   17.3055 C   0  0  0  0  0  0  0  0  0  0  0  0
   13.3807  -18.3047   17.4186 C   0  0  0  0  0  0  0  0  0  0  0  0
   13.6504  -18.8678   16.2284 N   0  0  0  0  0  0  0  0  0  0  0  0
   12.7044  -18.4387   15.3925 C   0  0  0  0  0  0  0  0  0  0  0  0
   11.8461  -17.6178   16.0325 N   0  0  0  0  0  0  0  0  0  0  0  0
   10.0635  -16.7171   20.3229 C   0  0  0  0  0  0  0  0  0  0  0  0
   10.1198  -15.4885   20.4212 O   0  0  0  0  0  0  0  0  0  0  0  0
    9.5015  -17.4061   21.4650 N   0  0  0  0  0  0  0  0  0  0  0  0
    9.1097  -16.7118   22.6499 C   0  0  1  0  0  0  0  0  0  0  0  0
    7.6388  -16.5507   22.7562 C   0  0  0  0  0  0  0  0  0  0  0  0
    7.1529  -15.9166   24.0013 C   0  0  0  0  0  0  0  0  0  0  0  0
    6.5360  -16.6032   25.0600 C   0  0  0  0  0  0  0  0  0  0  0  0
    6.2463  -15.7337   26.0374 N   0  0  0  0  0  0  0  0  0  0  0  0
    6.6366  -14.4858   25.6941 C   0  0  0  0  0  0  0  0  0  0  0  0
    6.5547  -13.2633   26.3439 C   0  0  0  0  0  0  0  0  0  0  0  0
    7.0307  -12.1161   25.7518 C   0  0  0  0  0  0  0  0  0  0  0  0
    7.5848  -12.2458   24.4973 C   0  0  0  0  0  0  0  0  0  0  0  0
    7.6682  -13.4701   23.8444 C   0  0  0  0  0  0  0  0  0  0  0  0
    7.1968  -14.6080   24.4313 C   0  0  0  0  0  0  0  0  0  0  0  0
    9.7050  -17.3140   23.8802 C   0  0  0  0  0  0  0  0  0  0  0  0
    9.5021  -18.5188   24.1643 O   0  0  0  0  0  0  0  0  0  0  0  0
   10.5153  -16.5558   24.7669 N   0  0  0  0  0  0  0  0  0  0  0  0
   11.1844  -17.0955   25.9075 C   0  0  1  0  0  0  0  0  0  0  0  0
   12.0374  -16.0672   26.6700 C   0  0  0  0  0  0  0  0  0  0  0  0
   11.1869  -15.1572   27.4474 C   0  0  0  0  0  0  0  0  0  0  0  0
   10.6811  -14.0173   26.8981 C   0  0  0  0  0  0  0  0  0  0  0  0
    9.8809  -13.1321   27.6355 C   0  0  0  0  0  0  0  0  0  0  0  0
    9.5945  -13.4179   28.9512 C   0  0  0  0  0  0  0  0  0  0  0  0
   10.0847  -14.5530   29.5344 C   0  0  0  0  0  0  0  0  0  0  0  0
   10.8668  -15.3992   28.7826 C   0  0  0  0  0  0  0  0  0  0  0  0
   10.3388  -17.8964   26.7844 C   0  0  0  0  0  0  0  0  0  0  0  0
    9.0744  -17.7522   26.7963 O   0  0  0  0  0  0  0  0  0  0  0  0
   10.8597  -18.8491   27.6446 O   0  0  0  0  0  0  0  0  0  0  0  0
  2  1  1  6
  3  2  1  0
  4  5  2  0
  4  3  1  0
  6  5  1  0
  7  8  2  0
  7  6  1  0
  8  4  1  0
  9  2  1  0
 10  9  2  0
 11  9  1  0
 12 13  1  1
 12 11  1  0
 13 14  1  0
 14 22  1  0
 14 15  2  0
 15 16  1  0
 17 16  1  0
 17 18  2  0
 19 18  1  0
 20 19  2  0
 21 20  1  0
 21 22  2  0
 22 17  1  0
 23 12  1  0
 24 23  2  0
 25 23  1  0
 26 25  1  0
 26 27  1  1
 27 28  1  0
 28 33  1  0
 29 28  2  0
 29 30  1  0
 30 31  2  0
 31 32  1  0
 33 32  2  0
 34 36  1  0
 34 26  1  0
 35 34  2  0
M  END
$$$$
