HWF.pdb
     RDKit          3D

 36 39  0  0  1  0  0  0  0  0999 V2000
   -1.8158  -63.6628  -22.3876 N   0  0  0  0  0  0  0  0  0  0  0  0
   -1.5439  -62.7295  -23.5086 C   0  0  1  0  0  0  0  0  0  0  0  0
   -2.4618  -63.1612  -24.6220 C   0  0  0  0  0  0  0  0  0  0  0  0
   -3.8646  -62.7875  -24.4040 C   0  0  0  0  0  0  0  0  0  0  0  0
   -4.2244  -61.6239  -23.7430 C   0  0  0  0  0  0  0  0  0  0  0  0
   -5.5648  -61.5394  -23.6907 N   0  0  0  0  0  0  0  0  0  0  0  0
   -6.0290  -62.6273  -24.3062 C   0  0  0  0  0  0  0  0  0  0  0  0
   -5.0086  -63.3935  -24.7438 N   0  0  0  0  0  0  0  0  0  0  0  0
   -1.8387  -61.3405  -23.0397 C   0  0  0  0  0  0  0  0  0  0  0  0
   -2.9336  -60.7955  -23.2029 O   0  0  0  0  0  0  0  0  0  0  0  0
   -0.8429  -60.5410  -22.3584 N   0  0  0  0  0  0  0  0  0  0  0  0
   -0.9111  -59.1150  -22.3247 C   0  0  1  0  0  0  0  0  0  0  0  0
    0.0520  -58.4760  -23.2548 C   0  0  0  0  0  0  0  0  0  0  0  0
   -0.5470  -57.6785  -24.3474 C   0  0  0  0  0  0  0  0  0  0  0  0
   -1.7395  -56.9442  -24.2401 C   0  0  0  0  0  0  0  0  0  0  0  0
   -1.9777  -56.3216  -25.4024 N   0  0  0  0  0  0  0  0  0  0  0  0
   -1.0031  -56.5978  -26.2975 C   0  0  0  0  0  0  0  0  0  0  0  0
   -0.7993  -56.2118  -27.6140 C   0  0  0  0  0  0  0  0  0  0  0  0
    0.2964  -56.6557  -28.3180 C   0  0  0  0  0  0  0  0  0  0  0  0
    1.1670  -57.4918  -27.6542 C   0  0  0  0  0  0  0  0  0  0  0  0
    0.9649  -57.8796  -26.3348 C   0  0  0  0  0  0  0  0  0  0  0  0
   -0.1212  -57.4392  -25.6361 C   0  0  0  0  0  0  0  0  0  0  0  0
   -2.3042  -58.6115  -22.5161 C   0  0  0  0  0  0  0  0  0  0  0  0
   -2.5119  -57.4289  -22.8788 O   0  0  0  0  0  0  0  0  0  0  0  0
   -3.4358  -59.4418  -22.2983 N   0  0  0  0  0  0  0  0  0  0  0  0
   -3.4988  -60.4764  -21.3155 C   0  0  1  0  0  0  0  0  0  0  0  0
   -2.9297  -61.8226  -21.7952 C   0  0  0  0  0  0  0  0  0  0  0  0
   -3.6033  -62.9425  -21.1258 C   0  0  0  0  0  0  0  0  0  0  0  0
   -4.9145  -62.8658  -20.7625 C   0  0  0  0  0  0  0  0  0  0  0  0
   -5.5642  -63.9228  -20.1081 C   0  0  0  0  0  0  0  0  0  0  0  0
   -4.8632  -65.0725  -19.8227 C   0  0  0  0  0  0  0  0  0  0  0  0
   -3.5466  -65.1841  -20.1733 C   0  0  0  0  0  0  0  0  0  0  0  0
   -2.9399  -64.1283  -20.8136 C   0  0  0  0  0  0  0  0  0  0  0  0
   -3.0135  -60.0904  -19.9962 C   0  0  0  0  0  0  0  0  0  0  0  0
   -2.4415  -60.9305  -19.2301 O   0  0  0  0  0  0  0  0  0  0  0  0
   -3.1470  -58.8009  -19.5081 O   0  0  0  0  0  0  0  0  0  0  0  0
  2  1  1  1
  3  2  1  0
  4  5  2  0
  4  3  1  0
  6  5  1  0
  7  8  2  0
  7  6  1  0
  8  4  1  0
  9  2  1  0
 10  9  2  0
 11  9  1  0
 12 13  1  6
 12 11  1  0
 13 14  1  0
 14 22  1  0
 14 15  2  0
 15 16  1  0
 17 16  1  0
 17 18  2  0
 19 18  1  0
 20 19  2  0
 21 20  1  0
 21 22  2  0
 22 17  1  0
 23 12  1  0
 24 23  2  0
 25 23  1  0
 26 25  1  0
 26 27  1  6
 27 28  1  0
 28 33  1  0
 29 28  2  0
 29 30  1  0
 30 31  2  0
 31 32  1  0
 33 32  2  0
 34 36  1  0
 34 26  1  0
 35 34  2  0
M  END
$$$$
