LYQ.pdb
     RDKit          3D

 30 30  0  0  1  0  0  0  0  0999 V2000
    7.4210  -11.9645   19.0372 C   0  0  0  0  0  0  0  0  0  0  0  0
    7.5346  -13.4139   19.4375 C   0  0  1  0  0  0  0  0  0  0  0  0
    7.5521  -14.2293   18.1611 C   0  0  0  0  0  0  0  0  0  0  0  0
    8.7401  -13.6788   20.3050 C   0  0  0  0  0  0  0  0  0  0  0  0
    8.7865  -15.0965   20.7993 C   0  0  2  0  0  0  0  0  0  0  0  0
    7.4203  -15.5446   20.9742 N   0  0  0  0  0  0  0  0  0  0  0  0
    9.4580  -15.1460   22.0991 C   0  0  0  0  0  0  0  0  0  0  0  0
   10.6858  -14.8857   22.2167 O   0  0  0  0  0  0  0  0  0  0  0  0
   10.9136  -15.2830   30.8359 O   0  0  0  0  0  0  0  0  0  0  0  0
   10.3192  -15.2293   29.5809 C   0  0  0  0  0  0  0  0  0  0  0  0
    9.8203  -16.3661   28.9673 C   0  0  0  0  0  0  0  0  0  0  0  0
    9.2296  -16.3194   27.7228 C   0  0  0  0  0  0  0  0  0  0  0  0
    9.1068  -15.1305   27.0251 C   0  0  0  0  0  0  0  0  0  0  0  0
    8.4790  -15.0528   25.6870 C   0  0  0  0  0  0  0  0  0  0  0  0
    9.4223  -15.4635   24.6102 C   0  0  2  0  0  0  0  0  0  0  0  0
    8.7808  -15.4865   23.3012 N   0  0  0  0  0  0  0  0  0  0  0  0
   10.1578  -16.7218   24.8644 C   0  0  0  0  0  0  0  0  0  0  0  0
    9.6217  -17.8550   24.9303 O   0  0  0  0  0  0  0  0  0  0  0  0
    9.6164  -14.0025   27.6643 C   0  0  0  0  0  0  0  0  0  0  0  0
   10.2083  -14.0341   28.9059 C   0  0  0  0  0  0  0  0  0  0  0  0
   14.6146  -16.4168   21.8757 N   0  0  0  0  0  0  0  0  0  0  0  0
   15.1046  -16.1884   23.1887 C   0  0  0  0  0  0  0  0  0  0  0  0
   16.1378  -15.4920   23.3028 O   0  0  0  0  0  0  0  0  0  0  0  0
   14.4417  -16.7357   24.3704 C   0  0  0  0  0  0  0  0  0  0  0  0
   13.5276  -17.8932   24.1248 C   0  0  0  0  0  0  0  0  0  0  0  0
   12.3411  -17.9675   25.0427 C   0  0  2  0  0  0  0  0  0  0  0  0
   11.5883  -16.7257   25.0594 N   0  0  0  0  0  0  0  0  0  0  0  0
   12.8279  -18.2093   26.4319 C   0  0  0  0  0  0  0  0  0  0  0  0
   12.6490  -17.2789   27.4520 O   0  0  0  0  0  0  0  0  0  0  0  0
   13.4167  -19.2739   26.7078 O   0  0  0  0  0  0  0  0  0  0  0  0
  2  1  1  6
  2  3  1  0
  4  2  1  0
  5  4  1  0
  5  6  1  1
  7  5  1  0
  7  8  2  0
  9 10  1  0
 10 11  2  0
 11 12  1  0
 13 12  2  0
 13 14  1  0
 15 14  1  1
 15 16  1  0
 16  7  1  0
 17 15  1  0
 18 17  2  0
 19 13  1  0
 20 10  1  0
 20 19  2  0
 21 22  1  0
 22 23  2  0
 22 24  1  0
 24 25  1  0
 26 25  1  6
 26 27  1  0
 27 17  1  0
 28 29  1  0
 28 26  1  0
 30 28  2  0
M  END
$$$$
