LYQ.pdb
     RDKit          3D

 30 30  0  0  1  0  0  0  0  0999 V2000
    7.3283  -11.8146   19.3988 C   0  0  0  0  0  0  0  0  0  0  0  0
    7.4539  -13.3132   19.5087 C   0  0  1  0  0  0  0  0  0  0  0  0
    7.3200  -13.8759   18.1087 C   0  0  0  0  0  0  0  0  0  0  0  0
    8.7386  -13.7358   20.1773 C   0  0  0  0  0  0  0  0  0  0  0  0
    8.6443  -15.1098   20.7768 C   0  0  2  0  0  0  0  0  0  0  0  0
    7.2393  -15.4203   20.9424 N   0  0  0  0  0  0  0  0  0  0  0  0
    9.2772  -15.1188   22.0967 C   0  0  0  0  0  0  0  0  0  0  0  0
   10.5069  -14.8813   22.2393 O   0  0  0  0  0  0  0  0  0  0  0  0
   10.7759  -15.3053   30.8063 O   0  0  0  0  0  0  0  0  0  0  0  0
   10.1908  -15.1863   29.5514 C   0  0  0  0  0  0  0  0  0  0  0  0
    9.5330  -16.2495   28.9560 C   0  0  0  0  0  0  0  0  0  0  0  0
    8.9507  -16.1379   27.7117 C   0  0  0  0  0  0  0  0  0  0  0  0
    8.9960  -14.9542   26.9960 C   0  0  0  0  0  0  0  0  0  0  0  0
    8.3811  -14.8080   25.6576 C   0  0  0  0  0  0  0  0  0  0  0  0
    9.1929  -15.4739   24.6016 C   0  0  2  0  0  0  0  0  0  0  0  0
    8.5582  -15.3923   23.2916 N   0  0  0  0  0  0  0  0  0  0  0  0
    9.6063  -16.8612   24.9070 C   0  0  0  0  0  0  0  0  0  0  0  0
    8.8158  -17.8322   24.9988 O   0  0  0  0  0  0  0  0  0  0  0  0
    9.6633  -13.9008   27.6171 C   0  0  0  0  0  0  0  0  0  0  0  0
   10.2490  -13.9978   28.8584 C   0  0  0  0  0  0  0  0  0  0  0  0
   13.2147  -19.4603   21.5809 N   0  0  0  0  0  0  0  0  0  0  0  0
   13.8764  -18.5908   22.4878 C   0  0  0  0  0  0  0  0  0  0  0  0
   14.8947  -17.9944   22.0719 O   0  0  0  0  0  0  0  0  0  0  0  0
   13.4011  -18.3876   23.8545 C   0  0  0  0  0  0  0  0  0  0  0  0
   12.1724  -19.1500   24.2351 C   0  0  0  0  0  0  0  0  0  0  0  0
   11.3978  -18.5683   25.3829 C   0  0  2  0  0  0  0  0  0  0  0  0
   10.9931  -17.1975   25.1263 N   0  0  0  0  0  0  0  0  0  0  0  0
   12.2743  -18.5531   26.5900 C   0  0  0  0  0  0  0  0  0  0  0  0
   12.6574  -19.7220   27.2419 O   0  0  0  0  0  0  0  0  0  0  0  0
   12.6873  -17.4674   27.0447 O   0  0  0  0  0  0  0  0  0  0  0  0
  2  1  1  6
  2  3  1  0
  4  2  1  0
  5  4  1  0
  5  6  1  1
  7  5  1  0
  7  8  2  0
  9 10  1  0
 10 11  2  0
 11 12  1  0
 13 12  2  0
 13 14  1  0
 15 14  1  1
 15 16  1  0
 16  7  1  0
 17 15  1  0
 18 17  2  0
 19 13  1  0
 20 10  1  0
 20 19  2  0
 21 22  1  0
 22 23  2  0
 22 24  1  0
 24 25  1  0
 26 25  1  6
 26 27  1  0
 27 17  1  0
 28 29  1  0
 28 26  1  0
 30 28  2  0
M  END
$$$$
