LYQ.pdb
     RDKit          3D

 30 30  0  0  1  0  0  0  0  0999 V2000
    7.7642  -14.7588   16.1053 C   0  0  0  0  0  0  0  0  0  0  0  0
    8.1796  -15.7858   17.1283 C   0  0  1  0  0  0  0  0  0  0  0  0
    8.9892  -16.8388   16.4001 C   0  0  0  0  0  0  0  0  0  0  0  0
    8.9360  -15.1757   18.2822 C   0  0  0  0  0  0  0  0  0  0  0  0
    9.2232  -16.1740   19.3673 C   0  0  2  0  0  0  0  0  0  0  0  0
    8.0931  -17.0766   19.4426 N   0  0  0  0  0  0  0  0  0  0  0  0
    9.3498  -15.4853   20.6528 C   0  0  0  0  0  0  0  0  0  0  0  0
   10.3061  -14.6982   20.8872 O   0  0  0  0  0  0  0  0  0  0  0  0
    7.0159  -11.6367   28.2884 O   0  0  0  0  0  0  0  0  0  0  0  0
    7.0226  -12.3224   27.0797 C   0  0  0  0  0  0  0  0  0  0  0  0
    7.3764  -11.6978   25.8955 C   0  0  0  0  0  0  0  0  0  0  0  0
    7.3851  -12.3723   24.6935 C   0  0  0  0  0  0  0  0  0  0  0  0
    7.0395  -13.7101   24.6128 C   0  0  0  0  0  0  0  0  0  0  0  0
    7.0384  -14.4573   23.3351 C   0  0  0  0  0  0  0  0  0  0  0  0
    8.4169  -14.8309   22.9132 C   0  0  2  0  0  0  0  0  0  0  0  0
    8.4158  -15.6549   21.7103 N   0  0  0  0  0  0  0  0  0  0  0  0
    9.2567  -15.4348   23.9710 C   0  0  0  0  0  0  0  0  0  0  0  0
    9.5737  -14.8576   25.0398 O   0  0  0  0  0  0  0  0  0  0  0  0
    6.6880  -14.3143   25.8177 C   0  0  0  0  0  0  0  0  0  0  0  0
    6.6749  -13.6537   27.0246 C   0  0  0  0  0  0  0  0  0  0  0  0
   10.3584  -19.3287   28.7540 N   0  0  0  0  0  0  0  0  0  0  0  0
    9.9913  -19.7981   27.4651 C   0  0  0  0  0  0  0  0  0  0  0  0
    8.9442  -20.4775   27.3784 O   0  0  0  0  0  0  0  0  0  0  0  0
   10.7911  -19.5083   26.2770 C   0  0  0  0  0  0  0  0  0  0  0  0
   10.0754  -18.8071   25.1672 C   0  0  0  0  0  0  0  0  0  0  0  0
   10.5249  -17.3959   24.9173 C   0  0  2  0  0  0  0  0  0  0  0  0
    9.7827  -16.7724   23.8360 N   0  0  0  0  0  0  0  0  0  0  0  0
   11.9611  -17.4178   24.5143 C   0  0  0  0  0  0  0  0  0  0  0  0
   12.9724  -17.7890   25.3962 O   0  0  0  0  0  0  0  0  0  0  0  0
   12.2860  -17.0963   23.3536 O   0  0  0  0  0  0  0  0  0  0  0  0
  2  1  1  6
  2  3  1  0
  4  2  1  0
  5  4  1  0
  5  6  1  1
  7  5  1  0
  7  8  2  0
  9 10  1  0
 10 11  2  0
 11 12  1  0
 13 12  2  0
 13 14  1  0
 15 14  1  1
 15 16  1  0
 16  7  1  0
 17 15  1  0
 18 17  2  0
 19 13  1  0
 20 10  1  0
 20 19  2  0
 21 22  1  0
 22 23  2  0
 22 24  1  0
 24 25  1  0
 26 25  1  6
 26 27  1  0
 27 17  1  0
 28 29  1  0
 28 26  1  0
 30 28  2  0
M  END
$$$$
