LYQ.pdb
     RDKit          3D

 30 30  0  0  1  0  0  0  0  0999 V2000
    6.9829  -12.1724   19.4058 C   0  0  0  0  0  0  0  0  0  0  0  0
    7.3218  -13.6136   19.6920 C   0  0  1  0  0  0  0  0  0  0  0  0
    7.2667  -14.3553   18.3725 C   0  0  0  0  0  0  0  0  0  0  0  0
    8.6552  -13.7655   20.3813 C   0  0  0  0  0  0  0  0  0  0  0  0
    8.8849  -15.1649   20.8765 C   0  0  2  0  0  0  0  0  0  0  0  0
    7.5882  -15.7837   21.0588 N   0  0  0  0  0  0  0  0  0  0  0  0
    9.5637  -15.1263   22.1728 C   0  0  0  0  0  0  0  0  0  0  0  0
   10.7760  -14.7953   22.2722 O   0  0  0  0  0  0  0  0  0  0  0  0
   11.1673  -15.1854   30.8892 O   0  0  0  0  0  0  0  0  0  0  0  0
   10.5424  -15.1812   29.6480 C   0  0  0  0  0  0  0  0  0  0  0  0
   10.3794  -14.0121   28.9239 C   0  0  0  0  0  0  0  0  0  0  0  0
    9.7605  -14.0014   27.6924 C   0  0  0  0  0  0  0  0  0  0  0  0
    9.2710  -15.1622   27.1192 C   0  0  0  0  0  0  0  0  0  0  0  0
    8.6006  -15.1783   25.7997 C   0  0  0  0  0  0  0  0  0  0  0  0
    9.5710  -15.3911   24.6903 C   0  0  2  0  0  0  0  0  0  0  0  0
    8.9112  -15.4549   23.3918 N   0  0  0  0  0  0  0  0  0  0  0  0
   10.4961  -16.5310   24.8736 C   0  0  0  0  0  0  0  0  0  0  0  0
   11.1324  -16.7643   25.9304 O   0  0  0  0  0  0  0  0  0  0  0  0
    9.4477  -16.3236   27.8679 C   0  0  0  0  0  0  0  0  0  0  0  0
   10.0634  -16.3493   29.0981 C   0  0  0  0  0  0  0  0  0  0  0  0
   11.6223  -21.4457   20.6640 N   0  0  0  0  0  0  0  0  0  0  0  0
   12.3011  -21.7581   21.8715 C   0  0  0  0  0  0  0  0  0  0  0  0
   12.9170  -22.8462   21.9188 O   0  0  0  0  0  0  0  0  0  0  0  0
   12.2924  -20.8571   23.0218 C   0  0  0  0  0  0  0  0  0  0  0  0
   11.5413  -19.5772   22.8388 C   0  0  0  0  0  0  0  0  0  0  0  0
   11.5104  -18.6843   24.0462 C   0  0  2  0  0  0  0  0  0  0  0  0
   10.7336  -17.4800   23.8118 N   0  0  0  0  0  0  0  0  0  0  0  0
   12.9053  -18.2580   24.3592 C   0  0  0  0  0  0  0  0  0  0  0  0
   13.5695  -17.2898   23.6109 O   0  0  0  0  0  0  0  0  0  0  0  0
   13.5128  -18.7744   25.3186 O   0  0  0  0  0  0  0  0  0  0  0  0
  2  1  1  6
  2  3  1  0
  4  2  1  0
  5  4  1  0
  5  6  1  1
  7  5  1  0
  7  8  2  0
  9 10  1  0
 10 11  2  0
 11 12  1  0
 13 12  2  0
 13 14  1  0
 15 14  1  1
 15 16  1  0
 16  7  1  0
 17 15  1  0
 18 17  2  0
 19 13  1  0
 20 10  1  0
 20 19  2  0
 21 22  1  0
 22 23  2  0
 22 24  1  0
 24 25  1  0
 26 25  1  6
 26 27  1  0
 27 17  1  0
 28 29  1  0
 28 26  1  0
 30 28  2  0
M  END
$$$$
