LYQ.pdb
     RDKit          3D

 30 30  0  0  1  0  0  0  0  0999 V2000
    6.5421  -10.6630   25.5045 C   0  0  0  0  0  0  0  0  0  0  0  0
    6.5789  -12.0920   25.9843 C   0  0  1  0  0  0  0  0  0  0  0  0
    5.5813  -12.2077   27.1182 C   0  0  0  0  0  0  0  0  0  0  0  0
    6.3060  -13.0786   24.8760 C   0  0  0  0  0  0  0  0  0  0  0  0
    6.4873  -14.5016   25.3219 C   0  0  2  0  0  0  0  0  0  0  0  0
    7.2889  -14.4842   26.5281 N   0  0  0  0  0  0  0  0  0  0  0  0
    7.2133  -15.2531   24.2967 C   0  0  0  0  0  0  0  0  0  0  0  0
    6.6194  -16.0443   23.5154 O   0  0  0  0  0  0  0  0  0  0  0  0
    6.6792  -12.9295   18.0882 O   0  0  0  0  0  0  0  0  0  0  0  0
    7.5087  -13.4374   19.0807 C   0  0  0  0  0  0  0  0  0  0  0  0
    7.6222  -14.7998   19.3017 C   0  0  0  0  0  0  0  0  0  0  0  0
    8.4431  -15.3098   20.2845 C   0  0  0  0  0  0  0  0  0  0  0  0
    9.1952  -14.4820   21.0997 C   0  0  0  0  0  0  0  0  0  0  0  0
   10.0827  -15.0033   22.1634 C   0  0  0  0  0  0  0  0  0  0  0  0
    9.3511  -15.8967   23.1037 C   0  0  2  0  0  0  0  0  0  0  0  0
    8.6184  -15.1436   24.1145 N   0  0  0  0  0  0  0  0  0  0  0  0
   10.1686  -16.9628   23.7232 C   0  0  0  0  0  0  0  0  0  0  0  0
   11.0880  -17.5830   23.1348 O   0  0  0  0  0  0  0  0  0  0  0  0
    9.0629  -13.1167   20.8566 C   0  0  0  0  0  0  0  0  0  0  0  0
    8.2477  -12.5935   19.8795 C   0  0  0  0  0  0  0  0  0  0  0  0
   11.5597  -14.1406   27.9847 N   0  0  0  0  0  0  0  0  0  0  0  0
   10.9788  -15.2609   28.6358 C   0  0  0  0  0  0  0  0  0  0  0  0
   10.7869  -15.1723   29.8690 O   0  0  0  0  0  0  0  0  0  0  0  0
   10.6126  -16.4756   27.9108 C   0  0  0  0  0  0  0  0  0  0  0  0
   11.5818  -16.9249   26.8647 C   0  0  0  0  0  0  0  0  0  0  0  0
   11.0362  -17.9241   25.8850 C   0  0  2  0  0  0  0  0  0  0  0  0
    9.9532  -17.3713   25.0911 N   0  0  0  0  0  0  0  0  0  0  0  0
   10.4825  -19.0825   26.6446 C   0  0  0  0  0  0  0  0  0  0  0  0
   11.2864  -19.9094   27.4244 O   0  0  0  0  0  0  0  0  0  0  0  0
    9.2619  -19.3343   26.5917 O   0  0  0  0  0  0  0  0  0  0  0  0
  2  1  1  6
  2  3  1  0
  4  2  1  0
  5  4  1  0
  5  6  1  1
  7  5  1  0
  7  8  2  0
  9 10  1  0
 10 11  2  0
 11 12  1  0
 13 12  2  0
 13 14  1  0
 15 14  1  1
 15 16  1  0
 16  7  1  0
 17 15  1  0
 18 17  2  0
 19 13  1  0
 20 10  1  0
 20 19  2  0
 21 22  1  0
 22 23  2  0
 22 24  1  0
 24 25  1  0
 26 25  1  1
 26 27  1  0
 27 17  1  0
 28 29  1  0
 28 26  1  0
 30 28  2  0
M  END
$$$$
