LYQ.pdb
     RDKit          3D

 30 30  0  0  1  0  0  0  0  0999 V2000
    7.0110  -12.6467   18.8765 C   0  0  0  0  0  0  0  0  0  0  0  0
    7.5801  -13.9688   19.3258 C   0  0  1  0  0  0  0  0  0  0  0  0
    8.0524  -14.6964   18.0840 C   0  0  0  0  0  0  0  0  0  0  0  0
    8.6774  -13.8057   20.3482 C   0  0  0  0  0  0  0  0  0  0  0  0
    9.1526  -15.1237   20.8899 C   0  0  2  0  0  0  0  0  0  0  0  0
    7.9917  -15.9736   21.0559 N   0  0  0  0  0  0  0  0  0  0  0  0
    9.7707  -14.9260   22.2020 C   0  0  0  0  0  0  0  0  0  0  0  0
   10.7599  -14.1599   22.3556 O   0  0  0  0  0  0  0  0  0  0  0  0
   11.1480  -14.7822   30.9447 O   0  0  0  0  0  0  0  0  0  0  0  0
   10.5909  -14.8593   29.6739 C   0  0  0  0  0  0  0  0  0  0  0  0
   10.3345  -13.7224   28.9261 C   0  0  0  0  0  0  0  0  0  0  0  0
    9.7821  -13.7921   27.6652 C   0  0  0  0  0  0  0  0  0  0  0  0
    9.4565  -15.0057   27.0849 C   0  0  0  0  0  0  0  0  0  0  0  0
    8.8606  -15.1087   25.7339 C   0  0  0  0  0  0  0  0  0  0  0  0
    9.8946  -15.3618   24.6925 C   0  0  2  0  0  0  0  0  0  0  0  0
    9.3041  -15.5755   23.3767 N   0  0  0  0  0  0  0  0  0  0  0  0
   10.8681  -16.4272   25.0183 C   0  0  0  0  0  0  0  0  0  0  0  0
   11.5498  -16.4661   26.0718 O   0  0  0  0  0  0  0  0  0  0  0  0
    9.7244  -16.1333   27.8577 C   0  0  0  0  0  0  0  0  0  0  0  0
   10.2754  -16.0787   29.1173 C   0  0  0  0  0  0  0  0  0  0  0  0
    9.9691  -22.3753   24.6440 N   0  0  0  0  0  0  0  0  0  0  0  0
    9.9666  -21.4897   25.7539 C   0  0  0  0  0  0  0  0  0  0  0  0
    9.3331  -21.8470   26.7720 O   0  0  0  0  0  0  0  0  0  0  0  0
   10.6707  -20.2095   25.7265 C   0  0  0  0  0  0  0  0  0  0  0  0
   11.4505  -19.9235   24.4833 C   0  0  0  0  0  0  0  0  0  0  0  0
   12.0758  -18.5589   24.4293 C   0  0  2  0  0  0  0  0  0  0  0  0
   11.1035  -17.5275   24.1138 N   0  0  0  0  0  0  0  0  0  0  0  0
   13.1014  -18.5475   23.3460 C   0  0  0  0  0  0  0  0  0  0  0  0
   12.9875  -17.7272   22.2268 O   0  0  0  0  0  0  0  0  0  0  0  0
   14.1003  -19.2901   23.4276 O   0  0  0  0  0  0  0  0  0  0  0  0
  2  1  1  6
  2  3  1  0
  4  2  1  0
  5  4  1  0
  5  6  1  1
  7  5  1  0
  7  8  2  0
  9 10  1  0
 10 11  2  0
 11 12  1  0
 13 12  2  0
 13 14  1  0
 15 14  1  1
 15 16  1  0
 16  7  1  0
 17 15  1  0
 18 17  2  0
 19 13  1  0
 20 10  1  0
 20 19  2  0
 21 22  1  0
 22 23  2  0
 22 24  1  0
 24 25  1  0
 26 25  1  6
 26 27  1  0
 27 17  1  0
 28 29  1  0
 28 26  1  0
 30 28  2  0
M  END
$$$$
