LYQ.pdb
     RDKit          3D

 30 30  0  0  1  0  0  0  0  0999 V2000
    6.8126  -11.9160   18.8589 C   0  0  0  0  0  0  0  0  0  0  0  0
    7.1416  -13.3469   19.2024 C   0  0  1  0  0  0  0  0  0  0  0  0
    7.5640  -14.0285   17.9174 C   0  0  0  0  0  0  0  0  0  0  0  0
    8.1911  -13.4532   20.2810 C   0  0  0  0  0  0  0  0  0  0  0  0
    8.4135  -14.8718   20.7223 C   0  0  2  0  0  0  0  0  0  0  0  0
    7.1140  -15.4669   20.9560 N   0  0  0  0  0  0  0  0  0  0  0  0
    9.1610  -14.8875   21.9807 C   0  0  0  0  0  0  0  0  0  0  0  0
   10.3691  -14.5313   22.0340 O   0  0  0  0  0  0  0  0  0  0  0  0
   11.3159  -15.4534   30.5507 O   0  0  0  0  0  0  0  0  0  0  0  0
   10.6138  -15.3682   29.3545 C   0  0  0  0  0  0  0  0  0  0  0  0
   10.0190  -16.4808   28.7837 C   0  0  0  0  0  0  0  0  0  0  0  0
    9.3213  -16.4028   27.5976 C   0  0  0  0  0  0  0  0  0  0  0  0
    9.1816  -15.2049   26.9186 C   0  0  0  0  0  0  0  0  0  0  0  0
    8.4397  -15.0938   25.6426 C   0  0  0  0  0  0  0  0  0  0  0  0
    9.3239  -15.3299   24.4678 C   0  0  2  0  0  0  0  0  0  0  0  0
    8.5837  -15.2999   23.2120 N   0  0  0  0  0  0  0  0  0  0  0  0
   10.1764  -16.5359   24.5543 C   0  0  0  0  0  0  0  0  0  0  0  0
    9.7735  -17.7053   24.3395 O   0  0  0  0  0  0  0  0  0  0  0  0
    9.7889  -14.1016   27.5139 C   0  0  0  0  0  0  0  0  0  0  0  0
   10.4882  -14.1646   28.6972 C   0  0  0  0  0  0  0  0  0  0  0  0
   16.7937  -19.0938   22.7456 N   0  0  0  0  0  0  0  0  0  0  0  0
   15.9589  -18.0856   23.2960 C   0  0  0  0  0  0  0  0  0  0  0  0
   16.3510  -16.9011   23.2021 O   0  0  0  0  0  0  0  0  0  0  0  0
   14.6896  -18.4000   23.9483 C   0  0  0  0  0  0  0  0  0  0  0  0
   13.7162  -17.2700   24.0542 C   0  0  0  0  0  0  0  0  0  0  0  0
   12.4510  -17.5931   24.7963 C   0  0  2  0  0  0  0  0  0  0  0  0
   11.5740  -16.4406   24.9032 N   0  0  0  0  0  0  0  0  0  0  0  0
   12.8059  -18.0102   26.1840 C   0  0  0  0  0  0  0  0  0  0  0  0
   13.0485  -19.3396   26.5187 O   0  0  0  0  0  0  0  0  0  0  0  0
   12.8930  -17.1543   27.0873 O   0  0  0  0  0  0  0  0  0  0  0  0
  2  1  1  6
  2  3  1  0
  4  2  1  0
  5  4  1  0
  5  6  1  1
  7  5  1  0
  7  8  2  0
  9 10  1  0
 10 11  2  0
 11 12  1  0
 13 12  2  0
 13 14  1  0
 15 14  1  1
 15 16  1  0
 16  7  1  0
 17 15  1  0
 18 17  2  0
 19 13  1  0
 20 10  1  0
 20 19  2  0
 21 22  1  0
 22 23  2  0
 22 24  1  0
 24 25  1  0
 26 25  1  6
 26 27  1  0
 27 17  1  0
 28 29  1  0
 28 26  1  0
 30 28  2  0
M  END
$$$$
