LYQ.pdb
     RDKit          3D

 30 30  0  0  1  0  0  0  0  0999 V2000
    7.9361  -12.7193   17.1699 C   0  0  0  0  0  0  0  0  0  0  0  0
    8.0394  -14.1211   17.7158 C   0  0  1  0  0  0  0  0  0  0  0  0
    7.9980  -15.0651   16.5319 C   0  0  0  0  0  0  0  0  0  0  0  0
    9.2702  -14.3188   18.5655 C   0  0  0  0  0  0  0  0  0  0  0  0
    9.1812  -15.5510   19.4201 C   0  0  2  0  0  0  0  0  0  0  0  0
    7.8919  -16.1631   19.1737 N   0  0  0  0  0  0  0  0  0  0  0  0
    9.2525  -15.1791   20.8341 C   0  0  0  0  0  0  0  0  0  0  0  0
   10.3299  -14.7883   21.3591 O   0  0  0  0  0  0  0  0  0  0  0  0
    7.5205  -12.5563   29.0350 O   0  0  0  0  0  0  0  0  0  0  0  0
    7.4068  -12.9217   27.6991 C   0  0  0  0  0  0  0  0  0  0  0  0
    6.7092  -14.0549   27.3158 C   0  0  0  0  0  0  0  0  0  0  0  0
    6.5928  -14.4226   25.9925 C   0  0  0  0  0  0  0  0  0  0  0  0
    7.1694  -13.6745   24.9809 C   0  0  0  0  0  0  0  0  0  0  0  0
    7.0615  -14.0479   23.5527 C   0  0  0  0  0  0  0  0  0  0  0  0
    8.1985  -14.9065   23.1194 C   0  0  2  0  0  0  0  0  0  0  0  0
    8.1271  -15.2326   21.7002 N   0  0  0  0  0  0  0  0  0  0  0  0
    8.4154  -16.1220   23.9344 C   0  0  0  0  0  0  0  0  0  0  0  0
    7.8117  -17.2088   23.7602 O   0  0  0  0  0  0  0  0  0  0  0  0
    7.8650  -12.5402   25.3933 C   0  0  0  0  0  0  0  0  0  0  0  0
    7.9894  -12.1610   26.7100 C   0  0  0  0  0  0  0  0  0  0  0  0
   11.8333  -20.1666   23.1684 N   0  0  0  0  0  0  0  0  0  0  0  0
   12.3810  -18.8897   23.4618 C   0  0  0  0  0  0  0  0  0  0  0  0
   13.4912  -18.6115   22.9563 O   0  0  0  0  0  0  0  0  0  0  0  0
   11.6898  -17.9268   24.3163 C   0  0  0  0  0  0  0  0  0  0  0  0
   10.3641  -18.3662   24.8501 C   0  0  0  0  0  0  0  0  0  0  0  0
    9.6733  -17.3641   25.7302 C   0  0  2  0  0  0  0  0  0  0  0  0
    9.3681  -16.1353   25.0190 N   0  0  0  0  0  0  0  0  0  0  0  0
   10.5859  -17.0098   26.8558 C   0  0  0  0  0  0  0  0  0  0  0  0
   11.0394  -17.9583   27.7684 O   0  0  0  0  0  0  0  0  0  0  0  0
   10.9659  -15.8305   27.0004 O   0  0  0  0  0  0  0  0  0  0  0  0
  2  1  1  6
  2  3  1  0
  4  2  1  0
  5  4  1  0
  5  6  1  1
  7  5  1  0
  7  8  2  0
  9 10  1  0
 10 11  2  0
 11 12  1  0
 13 12  2  0
 13 14  1  0
 15 14  1  1
 15 16  1  0
 16  7  1  0
 17 15  1  0
 18 17  2  0
 19 13  1  0
 20 10  1  0
 20 19  2  0
 21 22  1  0
 22 23  2  0
 22 24  1  0
 24 25  1  0
 26 25  1  6
 26 27  1  0
 27 17  1  0
 28 29  1  0
 28 26  1  0
 30 28  2  0
M  END
$$$$
