PIG.pdb
     RDKit          3D

 20 20  0  0  1  0  0  0  0  0999 V2000
    7.1809  -15.0021   21.2360 N   0  0  0  0  0  0  0  0  0  0  0  0
    6.3641  -14.2470   20.3378 C   0  0  0  0  0  0  0  0  0  0  0  0
    7.3189  -13.3500   19.5778 C   0  0  0  0  0  0  0  0  0  0  0  0
    8.3361  -13.0193   20.6519 C   0  0  0  0  0  0  0  0  0  0  0  0
    8.4577  -14.3828   21.3453 C   0  0  1  0  0  0  0  0  0  0  0  0
    8.8897  -14.1163   22.7252 C   0  0  0  0  0  0  0  0  0  0  0  0
   10.0280  -13.6089   22.9291 O   0  0  0  0  0  0  0  0  0  0  0  0
    5.8195  -11.5371   25.9793 C   0  0  0  0  0  0  0  0  0  0  0  0
    7.0609  -12.1517   25.3522 C   0  0  0  0  0  0  0  0  0  0  0  0
    7.3321  -13.5207   25.8728 C   0  0  2  0  0  0  0  0  0  0  0  0
    7.4736  -13.5374   27.3876 C   0  0  0  0  0  0  0  0  0  0  0  0
    8.4452  -14.2594   25.2010 C   0  0  2  0  0  0  0  0  0  0  0  0
    8.0414  -14.4252   23.7921 N   0  0  0  0  0  0  0  0  0  0  0  0
    8.7892  -15.5538   25.7877 C   0  0  0  0  0  0  0  0  0  0  0  0
    9.2133  -15.6379   26.9563 O   0  0  0  0  0  0  0  0  0  0  0  0
    8.6439  -16.7408   25.0289 N   0  0  0  0  0  0  0  0  0  0  0  0
    8.8206  -18.0602   25.5624 C   0  0  0  0  0  0  0  0  0  0  0  0
   10.2188  -18.4897   25.5965 C   0  0  0  0  0  0  0  0  0  0  0  0
   10.9052  -18.6068   26.7906 O   0  0  0  0  0  0  0  0  0  0  0  0
   10.8191  -18.7599   24.5311 O   0  0  0  0  0  0  0  0  0  0  0  0
  1  2  1  0
  3  2  1  0
  4  5  1  0
  4  3  1  0
  5  1  1  0
  5  6  1  1
  7  6  2  0
  9  8  1  0
  9 10  1  0
 10 12  1  0
 10 11  1  1
 12 13  1  6
 13  6  1  0
 14 15  2  0
 14 12  1  0
 16 14  1  0
 17 16  1  0
 18 17  1  0
 18 19  1  0
 20 18  2  0
M  END
$$$$
