PIG.pdb
     RDKit          3D

 20 20  0  0  1  0  0  0  0  0999 V2000
    7.0704  -14.7865   20.8361 N   0  0  0  0  0  0  0  0  0  0  0  0
    6.3276  -13.9115   19.9837 C   0  0  0  0  0  0  0  0  0  0  0  0
    7.3627  -13.0789   19.2560 C   0  0  0  0  0  0  0  0  0  0  0  0
    8.4149  -12.9033   20.3329 C   0  0  0  0  0  0  0  0  0  0  0  0
    8.4036  -14.3038   20.9600 C   0  0  1  0  0  0  0  0  0  0  0  0
    8.8692  -14.1483   22.3458 C   0  0  0  0  0  0  0  0  0  0  0  0
   10.0518  -13.7609   22.5605 O   0  0  0  0  0  0  0  0  0  0  0  0
    5.8929  -11.7141   25.7492 C   0  0  0  0  0  0  0  0  0  0  0  0
    7.0760  -12.3393   25.0270 C   0  0  0  0  0  0  0  0  0  0  0  0
    7.4331  -13.6727   25.5868 C   0  0  2  0  0  0  0  0  0  0  0  0
    7.7843  -13.5953   27.0651 C   0  0  0  0  0  0  0  0  0  0  0  0
    8.4503  -14.4479   24.8121 C   0  0  2  0  0  0  0  0  0  0  0  0
    8.0035  -14.4290   23.4066 N   0  0  0  0  0  0  0  0  0  0  0  0
    8.6706  -15.8230   25.2579 C   0  0  0  0  0  0  0  0  0  0  0  0
    7.7163  -16.6080   25.4176 O   0  0  0  0  0  0  0  0  0  0  0  0
    9.9839  -16.2858   25.5170 N   0  0  0  0  0  0  0  0  0  0  0  0
   10.3160  -17.6590   25.7639 C   0  0  0  0  0  0  0  0  0  0  0  0
   10.4227  -17.9831   27.1865 C   0  0  0  0  0  0  0  0  0  0  0  0
   10.7886  -19.2473   27.6096 O   0  0  0  0  0  0  0  0  0  0  0  0
   10.1809  -17.1088   28.0499 O   0  0  0  0  0  0  0  0  0  0  0  0
  1  2  1  0
  3  2  1  0
  4  5  1  0
  4  3  1  0
  5  1  1  0
  5  6  1  1
  7  6  2  0
  9  8  1  0
  9 10  1  0
 10 12  1  0
 10 11  1  1
 12 13  1  6
 13  6  1  0
 14 15  2  0
 14 12  1  0
 16 14  1  0
 17 16  1  0
 18 17  1  0
 18 19  1  0
 20 18  2  0
M  END
$$$$
