PIG.pdb
     RDKit          3D

 20 20  0  0  1  0  0  0  0  0999 V2000
    7.1504  -14.8723   20.8215 N   0  0  0  0  0  0  0  0  0  0  0  0
    6.4568  -13.9813   19.9445 C   0  0  0  0  0  0  0  0  0  0  0  0
    7.5216  -13.0759   19.3608 C   0  0  0  0  0  0  0  0  0  0  0  0
    8.4594  -12.9190   20.5413 C   0  0  0  0  0  0  0  0  0  0  0  0
    8.4454  -14.3496   21.0964 C   0  0  1  0  0  0  0  0  0  0  0  0
    8.7712  -14.2495   22.5265 C   0  0  0  0  0  0  0  0  0  0  0  0
    9.9206  -13.8568   22.8722 O   0  0  0  0  0  0  0  0  0  0  0  0
    6.0460  -11.4291   25.5871 C   0  0  0  0  0  0  0  0  0  0  0  0
    7.0935  -12.3148   24.9311 C   0  0  0  0  0  0  0  0  0  0  0  0
    7.1781  -13.6544   25.5768 C   0  0  2  0  0  0  0  0  0  0  0  0
    7.4189  -13.5512   27.0755 C   0  0  0  0  0  0  0  0  0  0  0  0
    8.1104  -14.6271   24.9283 C   0  0  2  0  0  0  0  0  0  0  0  0
    7.8115  -14.5880   23.4844 N   0  0  0  0  0  0  0  0  0  0  0  0
    8.0378  -16.0000   25.4262 C   0  0  0  0  0  0  0  0  0  0  0  0
    6.9432  -16.5820   25.5506 O   0  0  0  0  0  0  0  0  0  0  0  0
    9.2217  -16.6936   25.7776 N   0  0  0  0  0  0  0  0  0  0  0  0
    9.2524  -18.0627   26.2036 C   0  0  0  0  0  0  0  0  0  0  0  0
    9.5644  -18.2213   27.6241 C   0  0  0  0  0  0  0  0  0  0  0  0
    9.6151  -19.4709   28.2131 O   0  0  0  0  0  0  0  0  0  0  0  0
    9.7923  -17.2147   28.3335 O   0  0  0  0  0  0  0  0  0  0  0  0
  1  2  1  0
  3  2  1  0
  4  5  1  0
  4  3  1  0
  5  1  1  0
  5  6  1  1
  7  6  2  0
  9  8  1  0
  9 10  1  0
 10 12  1  0
 10 11  1  1
 12 13  1  6
 13  6  1  0
 14 15  2  0
 14 12  1  0
 16 14  1  0
 17 16  1  0
 18 17  1  0
 18 19  1  0
 20 18  2  0
M  END
$$$$
