PIG.pdb
     RDKit          3D

 20 20  0  0  1  0  0  0  0  0999 V2000
    7.3501  -15.2411   21.2775 N   0  0  0  0  0  0  0  0  0  0  0  0
    6.4350  -14.5873   20.3948 C   0  0  0  0  0  0  0  0  0  0  0  0
    7.2726  -13.6169   19.5879 C   0  0  0  0  0  0  0  0  0  0  0  0
    8.2863  -13.1673   20.6214 C   0  0  0  0  0  0  0  0  0  0  0  0
    8.5630  -14.4983   21.3332 C   0  0  1  0  0  0  0  0  0  0  0  0
    9.0106  -14.1634   22.6929 C   0  0  0  0  0  0  0  0  0  0  0  0
   10.1008  -13.5456   22.8498 O   0  0  0  0  0  0  0  0  0  0  0  0
    5.8169  -11.7123   25.8249 C   0  0  0  0  0  0  0  0  0  0  0  0
    7.1094  -12.2550   25.2357 C   0  0  0  0  0  0  0  0  0  0  0  0
    7.4923  -13.5636   25.8355 C   0  0  2  0  0  0  0  0  0  0  0  0
    7.6669  -13.4705   27.3440 C   0  0  0  0  0  0  0  0  0  0  0  0
    8.6424  -14.2621   25.1834 C   0  0  2  0  0  0  0  0  0  0  0  0
    8.2300  -14.5299   23.7928 N   0  0  0  0  0  0  0  0  0  0  0  0
    9.0809  -15.4974   25.8313 C   0  0  0  0  0  0  0  0  0  0  0  0
    9.4787  -15.4983   27.0120 O   0  0  0  0  0  0  0  0  0  0  0  0
    9.0597  -16.7214   25.1189 N   0  0  0  0  0  0  0  0  0  0  0  0
    9.3320  -17.9988   25.7114 C   0  0  0  0  0  0  0  0  0  0  0  0
   10.7567  -18.2399   25.9406 C   0  0  0  0  0  0  0  0  0  0  0  0
   11.3699  -19.3965   25.4966 O   0  0  0  0  0  0  0  0  0  0  0  0
   11.4475  -17.3911   26.5495 O   0  0  0  0  0  0  0  0  0  0  0  0
  1  2  1  0
  3  2  1  0
  4  5  1  0
  4  3  1  0
  5  1  1  0
  5  6  1  1
  7  6  2  0
  9  8  1  0
  9 10  1  0
 10 12  1  0
 10 11  1  1
 12 13  1  6
 13  6  1  0
 14 15  2  0
 14 12  1  0
 16 14  1  0
 17 16  1  0
 18 17  1  0
 18 19  1  0
 20 18  2  0
M  END
$$$$
