PIG.pdb
     RDKit          3D

 20 20  0  0  1  0  0  0  0  0999 V2000
    6.9543  -14.9034   21.2760 N   0  0  0  0  0  0  0  0  0  0  0  0
    6.1943  -14.0045   20.4647 C   0  0  0  0  0  0  0  0  0  0  0  0
    7.2111  -13.2486   19.6347 C   0  0  0  0  0  0  0  0  0  0  0  0
    8.3566  -13.1123   20.6181 C   0  0  0  0  0  0  0  0  0  0  0  0
    8.3183  -14.4965   21.2792 C   0  0  1  0  0  0  0  0  0  0  0  0
    8.9042  -14.3398   22.6185 C   0  0  0  0  0  0  0  0  0  0  0  0
   10.1075  -13.9721   22.7271 O   0  0  0  0  0  0  0  0  0  0  0  0
    5.7408  -11.7495   25.8192 C   0  0  0  0  0  0  0  0  0  0  0  0
    6.9956  -12.3036   25.1633 C   0  0  0  0  0  0  0  0  0  0  0  0
    7.4354  -13.5829   25.7869 C   0  0  2  0  0  0  0  0  0  0  0  0
    7.6573  -13.4404   27.2853 C   0  0  0  0  0  0  0  0  0  0  0  0
    8.5827  -14.2684   25.1163 C   0  0  2  0  0  0  0  0  0  0  0  0
    8.1287  -14.5977   23.7522 N   0  0  0  0  0  0  0  0  0  0  0  0
    9.0839  -15.4659   25.7892 C   0  0  0  0  0  0  0  0  0  0  0  0
    9.5233  -15.4130   26.9538 O   0  0  0  0  0  0  0  0  0  0  0  0
    9.0770  -16.7142   25.1200 N   0  0  0  0  0  0  0  0  0  0  0  0
    9.3749  -17.9656   25.7542 C   0  0  0  0  0  0  0  0  0  0  0  0
   10.8064  -18.2623   25.8080 C   0  0  0  0  0  0  0  0  0  0  0  0
   11.7463  -17.3485   25.3691 O   0  0  0  0  0  0  0  0  0  0  0  0
   11.2038  -19.3615   26.2578 O   0  0  0  0  0  0  0  0  0  0  0  0
  1  2  1  0
  3  2  1  0
  4  5  1  0
  4  3  1  0
  5  1  1  0
  5  6  1  1
  7  6  2  0
  9  8  1  0
  9 10  1  0
 10 12  1  0
 10 11  1  1
 12 13  1  6
 13  6  1  0
 14 15  2  0
 14 12  1  0
 16 14  1  0
 17 16  1  0
 18 17  1  0
 18 19  1  0
 20 18  2  0
M  END
$$$$
