PIG.pdb
     RDKit          3D

 20 20  0  0  1  0  0  0  0  0999 V2000
    7.9593  -14.6464   20.0825 N   0  0  0  0  0  0  0  0  0  0  0  0
    7.9195  -15.7748   19.2054 C   0  0  0  0  0  0  0  0  0  0  0  0
    6.8308  -16.6750   19.7517 C   0  0  0  0  0  0  0  0  0  0  0  0
    6.9965  -16.4712   21.2446 C   0  0  0  0  0  0  0  0  0  0  0  0
    7.2712  -14.9621   21.2878 C   0  0  1  0  0  0  0  0  0  0  0  0
    8.0424  -14.7095   22.5138 C   0  0  0  0  0  0  0  0  0  0  0  0
    9.3030  -14.6667   22.4529 O   0  0  0  0  0  0  0  0  0  0  0  0
    5.8410  -11.4537   26.1116 C   0  0  0  0  0  0  0  0  0  0  0  0
    6.8657  -12.1953   25.2678 C   0  0  0  0  0  0  0  0  0  0  0  0
    7.2490  -13.5017   25.8721 C   0  0  2  0  0  0  0  0  0  0  0  0
    7.8398  -13.3349   27.2642 C   0  0  0  0  0  0  0  0  0  0  0  0
    8.0904  -14.3899   25.0125 C   0  0  2  0  0  0  0  0  0  0  0  0
    7.3769  -14.5203   23.7281 N   0  0  0  0  0  0  0  0  0  0  0  0
    8.3861  -15.7102   25.5670 C   0  0  0  0  0  0  0  0  0  0  0  0
    7.4716  -16.5028   25.8633 O   0  0  0  0  0  0  0  0  0  0  0  0
    9.7285  -16.1098   25.7772 N   0  0  0  0  0  0  0  0  0  0  0  0
   10.1216  -17.4409   26.1385 C   0  0  0  0  0  0  0  0  0  0  0  0
   10.2728  -17.6295   27.5814 C   0  0  0  0  0  0  0  0  0  0  0  0
   10.6741  -18.8426   28.1090 O   0  0  0  0  0  0  0  0  0  0  0  0
   10.0378  -16.6827   28.3668 O   0  0  0  0  0  0  0  0  0  0  0  0
  1  2  1  0
  3  2  1  0
  4  5  1  0
  4  3  1  0
  5  1  1  0
  5  6  1  1
  7  6  2  0
  9  8  1  0
  9 10  1  0
 10 12  1  0
 10 11  1  1
 12 13  1  6
 13  6  1  0
 14 15  2  0
 14 12  1  0
 16 14  1  0
 17 16  1  0
 18 17  1  0
 18 19  1  0
 20 18  2  0
M  END
$$$$
