PIG.pdb
     RDKit          3D

 20 20  0  0  1  0  0  0  0  0999 V2000
    7.0630  -14.7142   20.8981 N   0  0  0  0  0  0  0  0  0  0  0  0
    6.4091  -13.7839   20.0316 C   0  0  0  0  0  0  0  0  0  0  0  0
    7.5125  -12.9194   19.4576 C   0  0  0  0  0  0  0  0  0  0  0  0
    8.4563  -12.8171   20.6394 C   0  0  0  0  0  0  0  0  0  0  0  0
    8.3797  -14.2519   21.1782 C   0  0  1  0  0  0  0  0  0  0  0  0
    8.7096  -14.1824   22.6092 C   0  0  0  0  0  0  0  0  0  0  0  0
    9.8881  -13.8919   22.9581 O   0  0  0  0  0  0  0  0  0  0  0  0
    6.0431  -11.2718   25.7264 C   0  0  0  0  0  0  0  0  0  0  0  0
    7.1180  -12.1533   25.1103 C   0  0  0  0  0  0  0  0  0  0  0  0
    7.1026  -13.5321   25.6737 C   0  0  2  0  0  0  0  0  0  0  0  0
    7.2755  -13.5327   27.1853 C   0  0  0  0  0  0  0  0  0  0  0  0
    8.0142  -14.5129   25.0081 C   0  0  2  0  0  0  0  0  0  0  0  0
    7.7217  -14.4368   23.5645 N   0  0  0  0  0  0  0  0  0  0  0  0
    7.9075  -15.8936   25.4772 C   0  0  0  0  0  0  0  0  0  0  0  0
    6.8132  -16.4894   25.4794 O   0  0  0  0  0  0  0  0  0  0  0  0
    9.0571  -16.5793   25.9402 N   0  0  0  0  0  0  0  0  0  0  0  0
    9.0574  -17.9498   26.3629 C   0  0  0  0  0  0  0  0  0  0  0  0
   10.3677  -18.4166   26.8163 C   0  0  0  0  0  0  0  0  0  0  0  0
   10.5322  -19.6765   27.3610 O   0  0  0  0  0  0  0  0  0  0  0  0
   11.3694  -17.6717   26.7155 O   0  0  0  0  0  0  0  0  0  0  0  0
  1  2  1  0
  3  2  1  0
  4  5  1  0
  4  3  1  0
  5  1  1  0
  5  6  1  1
  7  6  2  0
  9  8  1  0
  9 10  1  0
 10 12  1  0
 10 11  1  1
 12 13  1  6
 13  6  1  0
 14 15  2  0
 14 12  1  0
 16 14  1  0
 17 16  1  0
 18 17  1  0
 18 19  1  0
 20 18  2  0
M  END
$$$$
