PIG.pdb
     RDKit          3D

 20 20  0  0  1  0  0  0  0  0999 V2000
    7.1212  -14.9224   20.9847 N   0  0  0  0  0  0  0  0  0  0  0  0
    6.3097  -14.0732   20.1696 C   0  0  0  0  0  0  0  0  0  0  0  0
    7.2787  -13.1752   19.4289 C   0  0  0  0  0  0  0  0  0  0  0  0
    8.3509  -12.9630   20.4792 C   0  0  0  0  0  0  0  0  0  0  0  0
    8.4305  -14.3726   21.0804 C   0  0  1  0  0  0  0  0  0  0  0  0
    8.9269  -14.2165   22.4554 C   0  0  0  0  0  0  0  0  0  0  0  0
   10.0879  -13.7571   22.6446 O   0  0  0  0  0  0  0  0  0  0  0  0
    6.0377  -11.7622   25.7972 C   0  0  0  0  0  0  0  0  0  0  0  0
    7.2052  -12.4189   25.0778 C   0  0  0  0  0  0  0  0  0  0  0  0
    7.5750  -13.7266   25.6878 C   0  0  2  0  0  0  0  0  0  0  0  0
    7.9476  -13.5861   27.1562 C   0  0  0  0  0  0  0  0  0  0  0  0
    8.5835  -14.5309   24.9315 C   0  0  2  0  0  0  0  0  0  0  0  0
    8.1140  -14.5758   23.5339 N   0  0  0  0  0  0  0  0  0  0  0  0
    8.8178  -15.8840   25.4336 C   0  0  0  0  0  0  0  0  0  0  0  0
    7.8835  -16.7013   25.5400 O   0  0  0  0  0  0  0  0  0  0  0  0
   10.1221  -16.2879   25.8099 N   0  0  0  0  0  0  0  0  0  0  0  0
   10.4641  -17.6219   26.2105 C   0  0  0  0  0  0  0  0  0  0  0  0
   10.1074  -17.9204   27.5976 C   0  0  0  0  0  0  0  0  0  0  0  0
   10.7034  -17.2537   28.6518 O   0  0  0  0  0  0  0  0  0  0  0  0
    9.2470  -18.7945   27.8508 O   0  0  0  0  0  0  0  0  0  0  0  0
  1  2  1  0
  3  2  1  0
  4  5  1  0
  4  3  1  0
  5  1  1  0
  5  6  1  1
  7  6  2  0
  9  8  1  0
  9 10  1  0
 10 12  1  0
 10 11  1  1
 12 13  1  6
 13  6  1  0
 14 15  2  0
 14 12  1  0
 16 14  1  0
 17 16  1  0
 18 17  1  0
 18 19  1  0
 20 18  2  0
M  END
$$$$
