PIG.pdb
     RDKit          3D

 20 20  0  0  1  0  0  0  0  0999 V2000
    9.4787  -18.1074   17.0777 N   0  0  0  0  0  0  0  0  0  0  0  0
    9.7241  -19.4984   16.8562 C   0  0  0  0  0  0  0  0  0  0  0  0
    8.7793  -20.2302   17.7868 C   0  0  0  0  0  0  0  0  0  0  0  0
    8.7767  -19.3112   18.9922 C   0  0  0  0  0  0  0  0  0  0  0  0
    8.7615  -17.9437   18.2961 C   0  0  1  0  0  0  0  0  0  0  0  0
    9.3651  -16.9867   19.2348 C   0  0  0  0  0  0  0  0  0  0  0  0
   10.5429  -16.5797   19.0300 O   0  0  0  0  0  0  0  0  0  0  0  0
    6.5071  -12.7049   20.0538 C   0  0  0  0  0  0  0  0  0  0  0  0
    7.7611  -13.5624   19.9889 C   0  0  0  0  0  0  0  0  0  0  0  0
    7.9009  -14.4414   21.1833 C   0  0  2  0  0  0  0  0  0  0  0  0
    7.8427  -13.6520   22.4826 C   0  0  0  0  0  0  0  0  0  0  0  0
    9.0582  -15.3879   21.1577 C   0  0  2  0  0  0  0  0  0  0  0  0
    8.6341  -16.5389   20.3386 N   0  0  0  0  0  0  0  0  0  0  0  0
    9.5334  -15.8404   22.4644 C   0  0  0  0  0  0  0  0  0  0  0  0
   10.0443  -15.0433   23.2743 O   0  0  0  0  0  0  0  0  0  0  0  0
    9.4188  -17.2037   22.8308 N   0  0  0  0  0  0  0  0  0  0  0  0
    9.7118  -17.7093   24.1405 C   0  0  0  0  0  0  0  0  0  0  0  0
   11.1393  -17.9322   24.3702 C   0  0  0  0  0  0  0  0  0  0  0  0
   11.6090  -18.3805   25.5906 O   0  0  0  0  0  0  0  0  0  0  0  0
   11.9644  -17.7172   23.4529 O   0  0  0  0  0  0  0  0  0  0  0  0
  1  2  1  0
  3  2  1  0
  4  5  1  0
  4  3  1  0
  5  1  1  0
  5  6  1  1
  7  6  2  0
  9  8  1  0
  9 10  1  0
 10 12  1  0
 10 11  1  1
 12 13  1  6
 13  6  1  0
 14 15  2  0
 14 12  1  0
 16 14  1  0
 17 16  1  0
 18 17  1  0
 18 19  1  0
 20 18  2  0
M  END
$$$$
