WLH.pdb
     RDKit          3D

 33 35  0  0  1  0  0  0  0  0999 V2000
   26.1730  -21.8178  -13.1738 N   0  0  0  0  0  0  0  0  0  0  0  0
   25.6963  -20.5923  -12.6747 C   0  0  1  0  0  0  0  0  0  0  0  0
   26.7022  -19.5957  -12.2155 C   0  0  0  0  0  0  0  0  0  0  0  0
   27.6958  -20.1051  -11.2721 C   0  0  0  0  0  0  0  0  0  0  0  0
   28.9852  -20.5271  -11.4677 C   0  0  0  0  0  0  0  0  0  0  0  0
   29.5002  -20.9983  -10.3256 N   0  0  0  0  0  0  0  0  0  0  0  0
   28.5680  -20.8912   -9.3919 C   0  0  0  0  0  0  0  0  0  0  0  0
   28.5448  -21.1917   -8.0321 C   0  0  0  0  0  0  0  0  0  0  0  0
   27.4522  -20.9662   -7.2310 C   0  0  0  0  0  0  0  0  0  0  0  0
   26.3023  -20.4129   -7.7814 C   0  0  0  0  0  0  0  0  0  0  0  0
   26.3421  -20.1243   -9.1161 C   0  0  0  0  0  0  0  0  0  0  0  0
   27.4245  -20.3391   -9.9418 C   0  0  0  0  0  0  0  0  0  0  0  0
   24.6971  -19.9646  -13.5941 C   0  0  0  0  0  0  0  0  0  0  0  0
   24.1225  -18.8958  -13.3135 O   0  0  0  0  0  0  0  0  0  0  0  0
   24.1906  -17.5979  -17.0271 C   0  0  0  0  0  0  0  0  0  0  0  0
   25.0190  -18.8863  -17.2130 C   0  0  2  0  0  0  0  0  0  0  0  0
   25.7307  -18.7721  -18.5352 C   0  0  0  0  0  0  0  0  0  0  0  0
   24.0665  -20.0165  -17.0995 C   0  0  0  0  0  0  0  0  0  0  0  0
   23.3938  -20.1920  -15.7759 C   0  0  2  0  0  0  0  0  0  0  0  0
   24.3850  -20.6000  -14.8324 N   0  0  0  0  0  0  0  0  0  0  0  0
   22.2019  -21.0283  -15.8842 C   0  0  0  0  0  0  0  0  0  0  0  0
   22.3187  -22.0213  -16.6807 O   0  0  0  0  0  0  0  0  0  0  0  0
   20.9979  -20.8355  -15.2176 N   0  0  0  0  0  0  0  0  0  0  0  0
   20.2909  -21.9502  -14.5606 C   0  0  1  0  0  0  0  0  0  0  0  0
   21.1659  -22.4752  -13.4375 C   0  0  0  0  0  0  0  0  0  0  0  0
   22.0708  -23.5321  -13.9061 C   0  0  0  0  0  0  0  0  0  0  0  0
   22.0484  -24.0519  -15.2108 C   0  0  0  0  0  0  0  0  0  0  0  0
   22.9960  -24.9908  -15.3130 N   0  0  0  0  0  0  0  0  0  0  0  0
   23.6271  -25.0938  -14.1208 C   0  0  0  0  0  0  0  0  0  0  0  0
   23.0561  -24.2113  -13.2967 N   0  0  0  0  0  0  0  0  0  0  0  0
   19.0817  -21.3398  -13.9167 C   0  0  0  0  0  0  0  0  0  0  0  0
   18.2025  -22.0880  -13.3687 O   0  0  0  0  0  0  0  0  0  0  0  0
   18.8145  -19.9997  -13.8559 O   0  0  0  0  0  0  0  0  0  0  0  0
  2  1  1  6
  3  2  1  0
  4  3  1  0
  4  5  2  0
  6  5  1  0
  7  6  1  0
  8  7  2  0
  9  8  1  0
 10  9  2  0
 10 11  1  0
 11 12  2  0
 12  7  1  0
 12  4  1  0
 13  2  1  0
 13 14  2  0
 16 15  1  6
 16 17  1  0
 19 18  1  6
 18 16  1  0
 19 20  1  0
 20 13  1  0
 21 19  1  0
 22 21  2  0
 23 21  1  0
 24 25  1  1
 24 23  1  0
 25 26  1  0
 26 27  2  0
 27 28  1  0
 29 28  1  0
 30 26  1  0
 30 29  2  0
 31 24  1  0
 32 31  2  0
 33 31  1  0
M  END
$$$$
