WLH.pdb
     RDKit          3D

 33 35  0  0  1  0  0  0  0  0999 V2000
   29.3370  -36.0241   -9.2408 N   0  0  0  0  0  0  0  0  0  0  0  0
   29.4366  -35.4133   -7.9778 C   0  0  1  0  0  0  0  0  0  0  0  0
   28.1729  -34.9938   -7.3123 C   0  0  0  0  0  0  0  0  0  0  0  0
   27.3945  -33.9888   -8.0339 C   0  0  0  0  0  0  0  0  0  0  0  0
   27.2461  -33.7636   -9.3779 C   0  0  0  0  0  0  0  0  0  0  0  0
   26.5025  -32.6709   -9.5886 N   0  0  0  0  0  0  0  0  0  0  0  0
   26.1662  -32.1813   -8.4056 C   0  0  0  0  0  0  0  0  0  0  0  0
   25.3917  -31.0927   -8.0121 C   0  0  0  0  0  0  0  0  0  0  0  0
   25.1463  -30.7811   -6.6970 C   0  0  0  0  0  0  0  0  0  0  0  0
   25.6867  -31.5754   -5.6929 C   0  0  0  0  0  0  0  0  0  0  0  0
   26.4436  -32.6387   -6.0964 C   0  0  0  0  0  0  0  0  0  0  0  0
   26.7043  -32.9742   -7.4075 C   0  0  0  0  0  0  0  0  0  0  0  0
   30.3025  -36.1978   -7.0438 C   0  0  0  0  0  0  0  0  0  0  0  0
   30.1114  -37.4094   -6.8276 O   0  0  0  0  0  0  0  0  0  0  0  0
   35.3716  -34.7503   -3.9635 C   0  0  0  0  0  0  0  0  0  0  0  0
   34.2113  -35.7599   -4.0873 C   0  0  2  0  0  0  0  0  0  0  0  0
   34.7767  -37.0167   -4.6946 C   0  0  0  0  0  0  0  0  0  0  0  0
   33.1556  -35.0890   -4.8828 C   0  0  0  0  0  0  0  0  0  0  0  0
   31.8787  -35.8441   -5.0687 C   0  0  2  0  0  0  0  0  0  0  0  0
   31.3828  -35.5496   -6.3750 N   0  0  0  0  0  0  0  0  0  0  0  0
   30.9617  -35.6348   -3.9519 C   0  0  0  0  0  0  0  0  0  0  0  0
   29.9854  -34.8493   -4.2046 O   0  0  0  0  0  0  0  0  0  0  0  0
   31.0647  -36.1983   -2.6858 N   0  0  0  0  0  0  0  0  0  0  0  0
   30.0653  -35.9283   -1.6358 C   0  0  1  0  0  0  0  0  0  0  0  0
   28.7667  -36.6095   -2.0257 C   0  0  0  0  0  0  0  0  0  0  0  0
   27.7881  -36.5745   -0.9318 C   0  0  0  0  0  0  0  0  0  0  0  0
   27.1751  -35.3961   -0.4753 C   0  0  0  0  0  0  0  0  0  0  0  0
   26.3381  -35.7081    0.5207 N   0  0  0  0  0  0  0  0  0  0  0  0
   26.3909  -37.0449    0.7215 C   0  0  0  0  0  0  0  0  0  0  0  0
   27.2644  -37.5401   -0.1593 N   0  0  0  0  0  0  0  0  0  0  0  0
   30.5682  -36.6277   -0.4082 C   0  0  0  0  0  0  0  0  0  0  0  0
   31.3907  -37.5996   -0.5174 O   0  0  0  0  0  0  0  0  0  0  0  0
   30.2167  -36.3140    0.8760 O   0  0  0  0  0  0  0  0  0  0  0  0
  2  1  1  6
  3  2  1  0
  4  3  1  0
  4  5  2  0
  6  5  1  0
  7  6  1  0
  8  7  2  0
  9  8  1  0
 10  9  2  0
 10 11  1  0
 11 12  2  0
 12  7  1  0
 12  4  1  0
 13  2  1  0
 13 14  2  0
 16 15  1  6
 16 17  1  0
 19 18  1  1
 18 16  1  0
 19 20  1  0
 20 13  1  0
 21 19  1  0
 22 21  2  0
 23 21  1  0
 24 25  1  6
 24 23  1  0
 25 26  1  0
 26 27  2  0
 27 28  1  0
 29 28  1  0
 30 26  1  0
 30 29  2  0
 31 24  1  0
 32 31  2  0
 33 31  1  0
M  END
$$$$
