WLH.pdb
     RDKit          3D

 33 35  0  0  1  0  0  0  0  0999 V2000
   25.2270  -19.3164  -19.5249 N   0  0  0  0  0  0  0  0  0  0  0  0
   24.6143  -18.7335  -18.4011 C   0  0  1  0  0  0  0  0  0  0  0  0
   23.3761  -17.9380  -18.6249 C   0  0  0  0  0  0  0  0  0  0  0  0
   23.5298  -16.7851  -19.5103 C   0  0  0  0  0  0  0  0  0  0  0  0
   23.2862  -16.6453  -20.8520 C   0  0  0  0  0  0  0  0  0  0  0  0
   23.6548  -15.4280  -21.2687 N   0  0  0  0  0  0  0  0  0  0  0  0
   24.1347  -14.7748  -20.2221 C   0  0  0  0  0  0  0  0  0  0  0  0
   24.6320  -13.4850  -20.0521 C   0  0  0  0  0  0  0  0  0  0  0  0
   25.0586  -12.9975  -18.8410 C   0  0  0  0  0  0  0  0  0  0  0  0
   25.0015  -13.8122  -17.7166 C   0  0  0  0  0  0  0  0  0  0  0  0
   24.5112  -15.0739  -17.9010 C   0  0  0  0  0  0  0  0  0  0  0  0
   24.0758  -15.5874  -19.1037 C   0  0  0  0  0  0  0  0  0  0  0  0
   24.4281  -19.7190  -17.2914 C   0  0  0  0  0  0  0  0  0  0  0  0
   23.9283  -20.8434  -17.4844 O   0  0  0  0  0  0  0  0  0  0  0  0
   27.3117  -21.2892  -14.4834 C   0  0  0  0  0  0  0  0  0  0  0  0
   27.0376  -19.8007  -14.1828 C   0  0  2  0  0  0  0  0  0  0  0  0
   28.0419  -19.3621  -13.1499 C   0  0  0  0  0  0  0  0  0  0  0  0
   25.6177  -19.7123  -13.7663 C   0  0  0  0  0  0  0  0  0  0  0  0
   24.5983  -20.1266  -14.7784 C   0  0  2  0  0  0  0  0  0  0  0  0
   24.8314  -19.3720  -15.9680 N   0  0  0  0  0  0  0  0  0  0  0  0
   23.2466  -20.0895  -14.2275 C   0  0  0  0  0  0  0  0  0  0  0  0
   23.0194  -19.1091  -13.4394 O   0  0  0  0  0  0  0  0  0  0  0  0
   22.2292  -21.0016  -14.4812 N   0  0  0  0  0  0  0  0  0  0  0  0
   20.9303  -20.9235  -13.7877 C   0  0  1  0  0  0  0  0  0  0  0  0
   19.8708  -20.5313  -14.8006 C   0  0  0  0  0  0  0  0  0  0  0  0
   19.9239  -19.0972  -15.1108 C   0  0  0  0  0  0  0  0  0  0  0  0
   20.2044  -18.5889  -16.3898 C   0  0  0  0  0  0  0  0  0  0  0  0
   20.1720  -17.2526  -16.3350 N   0  0  0  0  0  0  0  0  0  0  0  0
   19.8810  -16.8829  -15.0666 C   0  0  0  0  0  0  0  0  0  0  0  0
   19.7369  -18.0035  -14.3542 N   0  0  0  0  0  0  0  0  0  0  0  0
   20.6168  -22.3249  -13.3555 C   0  0  0  0  0  0  0  0  0  0  0  0
   21.2733  -23.3068  -13.8435 O   0  0  0  0  0  0  0  0  0  0  0  0
   19.6528  -22.6720  -12.4493 O   0  0  0  0  0  0  0  0  0  0  0  0
  2  1  1  6
  3  2  1  0
  4  3  1  0
  4  5  2  0
  6  5  1  0
  7  6  1  0
  8  7  2  0
  9  8  1  0
 10  9  2  0
 10 11  1  0
 11 12  2  0
 12  7  1  0
 12  4  1  0
 13  2  1  0
 13 14  2  0
 16 15  1  1
 16 17  1  0
 19 18  1  1
 18 16  1  0
 19 20  1  0
 20 13  1  0
 21 19  1  0
 22 21  2  0
 23 21  1  0
 24 25  1  6
 24 23  1  0
 25 26  1  0
 26 27  2  0
 27 28  1  0
 29 28  1  0
 30 26  1  0
 30 29  2  0
 31 24  1  0
 32 31  2  0
 33 31  1  0
M  END
$$$$
