WLH.pdb
     RDKit          3D

 33 35  0  0  1  0  0  0  0  0999 V2000
   18.6775  -19.5180    6.0225 N   0  0  0  0  0  0  0  0  0  0  0  0
   18.9001  -19.4671    7.4103 C   0  0  1  0  0  0  0  0  0  0  0  0
   18.4587  -20.6332    8.2234 C   0  0  0  0  0  0  0  0  0  0  0  0
   17.0701  -21.0425    8.0203 C   0  0  0  0  0  0  0  0  0  0  0  0
   16.5222  -21.9654    7.1676 C   0  0  0  0  0  0  0  0  0  0  0  0
   15.1870  -21.9494    7.2582 N   0  0  0  0  0  0  0  0  0  0  0  0
   14.8574  -21.0317    8.1535 C   0  0  0  0  0  0  0  0  0  0  0  0
   13.6376  -20.6016    8.6699 C   0  0  0  0  0  0  0  0  0  0  0  0
   13.5306  -19.6318    9.6367 C   0  0  0  0  0  0  0  0  0  0  0  0
   14.6813  -19.0359   10.1388 C   0  0  0  0  0  0  0  0  0  0  0  0
   15.8689  -19.4694    9.6214 C   0  0  0  0  0  0  0  0  0  0  0  0
   16.0045  -20.4405    8.6529 C   0  0  0  0  0  0  0  0  0  0  0  0
   20.3088  -19.0849    7.7372 C   0  0  0  0  0  0  0  0  0  0  0  0
   21.2745  -19.4800    7.0571 O   0  0  0  0  0  0  0  0  0  0  0  0
   22.6204  -14.2251   10.3952 C   0  0  0  0  0  0  0  0  0  0  0  0
   22.9917  -15.6958   10.1124 C   0  0  2  0  0  0  0  0  0  0  0  0
   24.1809  -15.6858    9.1885 C   0  0  0  0  0  0  0  0  0  0  0  0
   21.7712  -16.3390    9.5704 C   0  0  0  0  0  0  0  0  0  0  0  0
   21.8444  -17.8127    9.3291 C   0  0  2  0  0  0  0  0  0  0  0  0
   20.5664  -18.2429    8.8593 N   0  0  0  0  0  0  0  0  0  0  0  0
   22.3967  -18.5202   10.4807 C   0  0  0  0  0  0  0  0  0  0  0  0
   23.6450  -18.3263   10.6763 O   0  0  0  0  0  0  0  0  0  0  0  0
   21.6998  -19.3563   11.3447 N   0  0  0  0  0  0  0  0  0  0  0  0
   22.2623  -19.7669   12.6443 C   0  0  1  0  0  0  0  0  0  0  0  0
   23.6447  -19.1565   12.7810 C   0  0  0  0  0  0  0  0  0  0  0  0
   24.6892  -20.1874   12.8227 C   0  0  0  0  0  0  0  0  0  0  0  0
   24.4579  -21.5402   12.5237 C   0  0  0  0  0  0  0  0  0  0  0  0
   25.6098  -22.2088   12.6505 N   0  0  0  0  0  0  0  0  0  0  0  0
   26.5738  -21.3347   13.0205 C   0  0  0  0  0  0  0  0  0  0  0  0
   25.9985  -20.1331   13.1163 N   0  0  0  0  0  0  0  0  0  0  0  0
   21.3984  -19.1165   13.6835 C   0  0  0  0  0  0  0  0  0  0  0  0
   20.9830  -19.7932   14.6848 O   0  0  0  0  0  0  0  0  0  0  0  0
   20.9919  -17.8106   13.6640 O   0  0  0  0  0  0  0  0  0  0  0  0
  2  1  1  6
  3  2  1  0
  4  3  1  0
  4  5  2  0
  6  5  1  0
  7  6  1  0
  8  7  2  0
  9  8  1  0
 10  9  2  0
 10 11  1  0
 11 12  2  0
 12  7  1  0
 12  4  1  0
 13  2  1  0
 13 14  2  0
 16 15  1  6
 16 17  1  0
 19 18  1  1
 18 16  1  0
 19 20  1  0
 20 13  1  0
 21 19  1  0
 22 21  2  0
 23 21  1  0
 24 25  1  6
 24 23  1  0
 25 26  1  0
 26 27  2  0
 27 28  1  0
 29 28  1  0
 30 26  1  0
 30 29  2  0
 31 24  1  0
 32 31  2  0
 33 31  1  0
M  END
$$$$
