WLH.pdb
     RDKit          3D

 33 35  0  0  1  0  0  0  0  0999 V2000
   27.5346  -20.2275  -17.3100 N   0  0  0  0  0  0  0  0  0  0  0  0
   26.7838  -19.6109  -16.2930 C   0  0  1  0  0  0  0  0  0  0  0  0
   25.7350  -18.6374  -16.7029 C   0  0  0  0  0  0  0  0  0  0  0  0
   26.2272  -17.4497  -17.3985 C   0  0  0  0  0  0  0  0  0  0  0  0
   26.3623  -17.1851  -18.7367 C   0  0  0  0  0  0  0  0  0  0  0  0
   26.9429  -15.9932  -18.9203 N   0  0  0  0  0  0  0  0  0  0  0  0
   27.1886  -15.4792  -17.7254 C   0  0  0  0  0  0  0  0  0  0  0  0
   27.7441  -14.2734  -17.3046 C   0  0  0  0  0  0  0  0  0  0  0  0
   27.8793  -13.9291  -15.9818 C   0  0  0  0  0  0  0  0  0  0  0  0
   27.4487  -14.8106  -14.9976 C   0  0  0  0  0  0  0  0  0  0  0  0
   26.9064  -15.9884  -15.4276 C   0  0  0  0  0  0  0  0  0  0  0  0
   26.7581  -16.3580  -16.7471 C   0  0  0  0  0  0  0  0  0  0  0  0
   26.2429  -20.6057  -15.3156 C   0  0  0  0  0  0  0  0  0  0  0  0
   25.8011  -21.7127  -15.6770 O   0  0  0  0  0  0  0  0  0  0  0  0
   25.6787  -20.1610   -9.1889 C   0  0  0  0  0  0  0  0  0  0  0  0
   25.0335  -20.8160  -10.4281 C   0  0  2  0  0  0  0  0  0  0  0  0
   25.0724  -22.3064  -10.2158 C   0  0  0  0  0  0  0  0  0  0  0  0
   25.7888  -20.3216  -11.6039 C   0  0  0  0  0  0  0  0  0  0  0  0
   25.3215  -20.7929  -12.9436 C   0  0  2  0  0  0  0  0  0  0  0  0
   26.2276  -20.2883  -13.9251 N   0  0  0  0  0  0  0  0  0  0  0  0
   23.9033  -20.5125  -13.1485 C   0  0  0  0  0  0  0  0  0  0  0  0
   23.6143  -19.2709  -13.2434 O   0  0  0  0  0  0  0  0  0  0  0  0
   22.8838  -21.4522  -13.2424 N   0  0  0  0  0  0  0  0  0  0  0  0
   21.4770  -21.0507  -13.4264 C   0  0  1  0  0  0  0  0  0  0  0  0
   20.8162  -22.0424  -14.3658 C   0  0  0  0  0  0  0  0  0  0  0  0
   20.8182  -21.5581  -15.7518 C   0  0  0  0  0  0  0  0  0  0  0  0
   21.2337  -20.2689  -16.1236 C   0  0  0  0  0  0  0  0  0  0  0  0
   21.1177  -20.1489  -17.4510 N   0  0  0  0  0  0  0  0  0  0  0  0
   20.6424  -21.3146  -17.9465 C   0  0  0  0  0  0  0  0  0  0  0  0
   20.4719  -22.1409  -16.9111 N   0  0  0  0  0  0  0  0  0  0  0  0
   20.8269  -21.2261  -12.0864 C   0  0  0  0  0  0  0  0  0  0  0  0
   21.2095  -22.1643  -11.3077 O   0  0  0  0  0  0  0  0  0  0  0  0
   19.8180  -20.4453  -11.5929 O   0  0  0  0  0  0  0  0  0  0  0  0
  2  1  1  6
  3  2  1  0
  4  3  1  0
  4  5  2  0
  6  5  1  0
  7  6  1  0
  8  7  2  0
  9  8  1  0
 10  9  2  0
 10 11  1  0
 11 12  2  0
 12  7  1  0
 12  4  1  0
 13  2  1  0
 13 14  2  0
 16 15  1  1
 16 17  1  0
 19 18  1  1
 18 16  1  0
 19 20  1  0
 20 13  1  0
 21 19  1  0
 22 21  2  0
 23 21  1  0
 24 25  1  6
 24 23  1  0
 25 26  1  0
 26 27  2  0
 27 28  1  0
 29 28  1  0
 30 26  1  0
 30 29  2  0
 31 24  1  0
 32 31  2  0
 33 31  1  0
M  END
$$$$
