WLH.pdb
     RDKit          3D

 33 35  0  0  1  0  0  0  0  0999 V2000
   26.7896  -21.9030   -9.8167 N   0  0  0  0  0  0  0  0  0  0  0  0
   26.4032  -20.5542   -9.7185 C   0  0  1  0  0  0  0  0  0  0  0  0
   27.4043  -19.5858   -9.1932 C   0  0  0  0  0  0  0  0  0  0  0  0
   28.3260  -20.1250   -8.1949 C   0  0  0  0  0  0  0  0  0  0  0  0
   29.5406  -20.7443   -8.3369 C   0  0  0  0  0  0  0  0  0  0  0  0
   29.9960  -21.1563   -7.1477 N   0  0  0  0  0  0  0  0  0  0  0  0
   29.0985  -20.8170   -6.2358 C   0  0  0  0  0  0  0  0  0  0  0  0
   29.0478  -20.9610   -4.8514 C   0  0  0  0  0  0  0  0  0  0  0  0
   28.0067  -20.4969   -4.0850 C   0  0  0  0  0  0  0  0  0  0  0  0
   26.9408  -19.8495   -4.6982 C   0  0  0  0  0  0  0  0  0  0  0  0
   27.0066  -19.7168   -6.0563 C   0  0  0  0  0  0  0  0  0  0  0  0
   28.0387  -20.1717   -6.8483 C   0  0  0  0  0  0  0  0  0  0  0  0
   25.7853  -20.0557  -10.9862 C   0  0  0  0  0  0  0  0  0  0  0  0
   25.1425  -18.9899  -11.0324 O   0  0  0  0  0  0  0  0  0  0  0  0
   27.8151  -18.9134  -14.3985 C   0  0  0  0  0  0  0  0  0  0  0  0
   27.8695  -20.4521  -14.2965 C   0  0  2  0  0  0  0  0  0  0  0  0
   28.8597  -20.9325  -15.3244 C   0  0  0  0  0  0  0  0  0  0  0  0
   26.4794  -20.9332  -14.4797 C   0  0  0  0  0  0  0  0  0  0  0  0
   25.4702  -20.4518  -13.4871 C   0  0  2  0  0  0  0  0  0  0  0  0
   25.9301  -20.8150  -12.1849 N   0  0  0  0  0  0  0  0  0  0  0  0
   24.1181  -20.8671  -13.8492 C   0  0  0  0  0  0  0  0  0  0  0  0
   23.7735  -20.5746  -15.0449 O   0  0  0  0  0  0  0  0  0  0  0  0
   23.2121  -21.5269  -13.0277 N   0  0  0  0  0  0  0  0  0  0  0  0
   21.8407  -21.8306  -13.4763 C   0  0  1  0  0  0  0  0  0  0  0  0
   21.4870  -23.2326  -13.0163 C   0  0  0  0  0  0  0  0  0  0  0  0
   22.2389  -24.2513  -13.7596 C   0  0  0  0  0  0  0  0  0  0  0  0
   23.0798  -23.9578  -14.8457 C   0  0  0  0  0  0  0  0  0  0  0  0
   23.6148  -25.0997  -15.2926 N   0  0  0  0  0  0  0  0  0  0  0  0
   23.1480  -26.1173  -14.5332 C   0  0  0  0  0  0  0  0  0  0  0  0
   22.3278  -25.5844  -13.6236 N   0  0  0  0  0  0  0  0  0  0  0  0
   20.9495  -20.8904  -12.7206 C   0  0  0  0  0  0  0  0  0  0  0  0
   19.6970  -20.8554  -12.9717 O   0  0  0  0  0  0  0  0  0  0  0  0
   21.3643  -20.0264  -11.7446 O   0  0  0  0  0  0  0  0  0  0  0  0
  2  1  1  6
  3  2  1  0
  4  3  1  0
  4  5  2  0
  6  5  1  0
  7  6  1  0
  8  7  2  0
  9  8  1  0
 10  9  2  0
 10 11  1  0
 11 12  2  0
 12  7  1  0
 12  4  1  0
 13  2  1  0
 13 14  2  0
 16 15  1  6
 16 17  1  0
 19 18  1  6
 18 16  1  0
 19 20  1  0
 20 13  1  0
 21 19  1  0
 22 21  2  0
 23 21  1  0
 24 25  1  1
 24 23  1  0
 25 26  1  0
 26 27  2  0
 27 28  1  0
 29 28  1  0
 30 26  1  0
 30 29  2  0
 31 24  1  0
 32 31  2  0
 33 31  1  0
M  END
$$$$
