WLH.pdb
     RDKit          3D

 33 35  0  0  1  0  0  0  0  0999 V2000
   19.9634  -13.4091  -17.0377 N   0  0  0  0  0  0  0  0  0  0  0  0
   19.6431  -12.1148  -17.4854 C   0  0  1  0  0  0  0  0  0  0  0  0
   18.3145  -11.9152  -18.1264 C   0  0  0  0  0  0  0  0  0  0  0  0
   18.0655  -12.7369  -19.3094 C   0  0  0  0  0  0  0  0  0  0  0  0
   17.5714  -14.0098  -19.4301 C   0  0  0  0  0  0  0  0  0  0  0  0
   17.5960  -14.4005  -20.7100 N   0  0  0  0  0  0  0  0  0  0  0  0
   18.0984  -13.4047  -21.4229 C   0  0  0  0  0  0  0  0  0  0  0  0
   18.3320  -13.2336  -22.7852 C   0  0  0  0  0  0  0  0  0  0  0  0
   18.8466  -12.0780  -23.3203 C   0  0  0  0  0  0  0  0  0  0  0  0
   19.1576  -11.0145  -22.4815 C   0  0  0  0  0  0  0  0  0  0  0  0
   18.9223  -11.1991  -21.1486 C   0  0  0  0  0  0  0  0  0  0  0  0
   18.4062  -12.3466  -20.5860 C   0  0  0  0  0  0  0  0  0  0  0  0
   19.8946  -11.0810  -16.4340 C   0  0  0  0  0  0  0  0  0  0  0  0
   19.2430  -11.0467  -15.3731 O   0  0  0  0  0  0  0  0  0  0  0  0
   22.5841  -10.0544  -13.4078 C   0  0  0  0  0  0  0  0  0  0  0  0
   23.2383  -10.0941  -14.8047 C   0  0  2  0  0  0  0  0  0  0  0  0
   24.7297  -10.0565  -14.5999 C   0  0  0  0  0  0  0  0  0  0  0  0
   22.6723   -8.9541  -15.5647 C   0  0  0  0  0  0  0  0  0  0  0  0
   21.1968   -8.9789  -15.8048 C   0  0  2  0  0  0  0  0  0  0  0  0
   20.9088  -10.0997  -16.6413 N   0  0  0  0  0  0  0  0  0  0  0  0
   20.7016   -7.6792  -16.2489 C   0  0  0  0  0  0  0  0  0  0  0  0
   21.0386   -7.3595  -17.4399 O   0  0  0  0  0  0  0  0  0  0  0  0
   19.9255   -6.7969  -15.5070 N   0  0  0  0  0  0  0  0  0  0  0  0
   19.3666   -5.5695  -16.1032 C   0  0  1  0  0  0  0  0  0  0  0  0
   17.8900   -5.5014  -15.7605 C   0  0  0  0  0  0  0  0  0  0  0  0
   17.1233   -6.5368  -16.4645 C   0  0  0  0  0  0  0  0  0  0  0  0
   17.0041   -6.5993  -17.8627 C   0  0  0  0  0  0  0  0  0  0  0  0
   16.2484   -7.6567  -18.1802 N   0  0  0  0  0  0  0  0  0  0  0  0
   15.8771   -8.2766  -17.0365 C   0  0  0  0  0  0  0  0  0  0  0  0
   16.4129   -7.5882  -16.0249 N   0  0  0  0  0  0  0  0  0  0  0  0
   20.0296   -4.4320  -15.3851 C   0  0  0  0  0  0  0  0  0  0  0  0
   20.8595   -4.6675  -14.4424 O   0  0  0  0  0  0  0  0  0  0  0  0
   19.8236   -3.1062  -15.6515 O   0  0  0  0  0  0  0  0  0  0  0  0
  2  1  1  1
  3  2  1  0
  4  3  1  0
  4  5  2  0
  6  5  1  0
  7  6  1  0
  8  7  2  0
  9  8  1  0
 10  9  2  0
 10 11  1  0
 11 12  2  0
 12  7  1  0
 12  4  1  0
 13  2  1  0
 13 14  2  0
 16 15  1  1
 16 17  1  0
 19 18  1  6
 18 16  1  0
 19 20  1  0
 20 13  1  0
 21 19  1  0
 22 21  2  0
 23 21  1  0
 24 25  1  1
 24 23  1  0
 25 26  1  0
 26 27  2  0
 27 28  1  0
 29 28  1  0
 30 26  1  0
 30 29  2  0
 31 24  1  0
 32 31  2  0
 33 31  1  0
M  END
$$$$
