WLH.pdb
     RDKit          3D

 33 35  0  0  1  0  0  0  0  0999 V2000
   25.5920  -19.1539  -10.8671 N   0  0  0  0  0  0  0  0  0  0  0  0
   25.7931  -20.5306  -11.0728 C   0  0  1  0  0  0  0  0  0  0  0  0
   26.0575  -21.3760   -9.8765 C   0  0  0  0  0  0  0  0  0  0  0  0
   26.6561  -20.6764   -8.7411 C   0  0  0  0  0  0  0  0  0  0  0  0
   26.0828  -19.9373   -7.7391 C   0  0  0  0  0  0  0  0  0  0  0  0
   27.0268  -19.4030   -6.9550 N   0  0  0  0  0  0  0  0  0  0  0  0
   28.2031  -19.7806   -7.4303 C   0  0  0  0  0  0  0  0  0  0  0  0
   29.5134  -19.5556   -7.0154 C   0  0  0  0  0  0  0  0  0  0  0  0
   30.6067  -20.0821   -7.6591 C   0  0  0  0  0  0  0  0  0  0  0  0
   30.4214  -20.8805   -8.7813 C   0  0  0  0  0  0  0  0  0  0  0  0
   29.1302  -21.0910   -9.1745 C   0  0  0  0  0  0  0  0  0  0  0  0
   28.0163  -20.5763   -8.5469 C   0  0  0  0  0  0  0  0  0  0  0  0
   24.7242  -21.1301  -11.9304 C   0  0  0  0  0  0  0  0  0  0  0  0
   24.7856  -22.3062  -12.3358 O   0  0  0  0  0  0  0  0  0  0  0  0
   20.2666  -21.6453  -11.5729 C   0  0  0  0  0  0  0  0  0  0  0  0
   20.7033  -20.1656  -11.5485 C   0  0  2  0  0  0  0  0  0  0  0  0
   19.4778  -19.3438  -11.2473 C   0  0  0  0  0  0  0  0  0  0  0  0
   21.3430  -19.8961  -12.8583 C   0  0  0  0  0  0  0  0  0  0  0  0
   22.5467  -20.7167  -13.1946 C   0  0  2  0  0  0  0  0  0  0  0  0
   23.5955  -20.3409  -12.3013 N   0  0  0  0  0  0  0  0  0  0  0  0
   22.8479  -20.6710  -14.6225 C   0  0  0  0  0  0  0  0  0  0  0  0
   23.2014  -19.5214  -15.0557 O   0  0  0  0  0  0  0  0  0  0  0  0
   22.7806  -21.7363  -15.5123 N   0  0  0  0  0  0  0  0  0  0  0  0
   23.1933  -21.5945  -16.9207 C   0  0  1  0  0  0  0  0  0  0  0  0
   23.5193  -22.9731  -17.4643 C   0  0  0  0  0  0  0  0  0  0  0  0
   24.8365  -23.4359  -17.0098 C   0  0  0  0  0  0  0  0  0  0  0  0
   25.5859  -22.7891  -16.0134 C   0  0  0  0  0  0  0  0  0  0  0  0
   26.7278  -23.4623  -15.8330 N   0  0  0  0  0  0  0  0  0  0  0  0
   26.7401  -24.5189  -16.6776 C   0  0  0  0  0  0  0  0  0  0  0  0
   25.5985  -24.4814  -17.3700 N   0  0  0  0  0  0  0  0  0  0  0  0
   21.9749  -21.1181  -17.6540 C   0  0  0  0  0  0  0  0  0  0  0  0
   20.8112  -21.3532  -17.1813 O   0  0  0  0  0  0  0  0  0  0  0  0
   21.9868  -20.4256  -18.8336 O   0  0  0  0  0  0  0  0  0  0  0  0
  2  1  1  1
  3  2  1  0
  4  3  1  0
  4  5  2  0
  6  5  1  0
  7  6  1  0
  8  7  2  0
  9  8  1  0
 10  9  2  0
 10 11  1  0
 11 12  2  0
 12  7  1  0
 12  4  1  0
 13  2  1  0
 13 14  2  0
 16 15  1  6
 16 17  1  0
 19 18  1  6
 18 16  1  0
 19 20  1  0
 20 13  1  0
 21 19  1  0
 22 21  2  0
 23 21  1  0
 24 25  1  6
 24 23  1  0
 25 26  1  0
 26 27  2  0
 27 28  1  0
 29 28  1  0
 30 26  1  0
 30 29  2  0
 31 24  1  0
 32 31  2  0
 33 31  1  0
M  END
$$$$
