WLH.pdb
     RDKit          3D

 33 35  0  0  1  0  0  0  0  0999 V2000
   26.8506  -20.8671  -16.7481 N   0  0  0  0  0  0  0  0  0  0  0  0
   26.3007  -20.0095  -15.7784 C   0  0  1  0  0  0  0  0  0  0  0  0
   25.7316  -18.7153  -16.2446 C   0  0  0  0  0  0  0  0  0  0  0  0
   26.5749  -17.9640  -17.1725 C   0  0  0  0  0  0  0  0  0  0  0  0
   26.2846  -17.3838  -18.3801 C   0  0  0  0  0  0  0  0  0  0  0  0
   27.3922  -16.8711  -18.9296 N   0  0  0  0  0  0  0  0  0  0  0  0
   28.3970  -17.1088  -18.1013 C   0  0  0  0  0  0  0  0  0  0  0  0
   29.7523  -16.7898  -18.1338 C   0  0  0  0  0  0  0  0  0  0  0  0
   30.6266  -17.1196  -17.1271 C   0  0  0  0  0  0  0  0  0  0  0  0
   30.1596  -17.8056  -16.0124 C   0  0  0  0  0  0  0  0  0  0  0  0
   28.8281  -18.1105  -15.9966 C   0  0  0  0  0  0  0  0  0  0  0  0
   27.9297  -17.7908  -16.9917 C   0  0  0  0  0  0  0  0  0  0  0  0
   25.3450  -20.7244  -14.8767 C   0  0  0  0  0  0  0  0  0  0  0  0
   24.7038  -21.7233  -15.2537 O   0  0  0  0  0  0  0  0  0  0  0  0
   26.6077  -21.9746  -11.0941 C   0  0  0  0  0  0  0  0  0  0  0  0
   26.2400  -20.4795  -10.9924 C   0  0  2  0  0  0  0  0  0  0  0  0
   26.7198  -19.9925   -9.6506 C   0  0  0  0  0  0  0  0  0  0  0  0
   24.7769  -20.3921  -11.2142 C   0  0  0  0  0  0  0  0  0  0  0  0
   24.2796  -20.8128  -12.5599 C   0  0  2  0  0  0  0  0  0  0  0  0
   25.1542  -20.2574  -13.5425 N   0  0  0  0  0  0  0  0  0  0  0  0
   22.8536  -20.5408  -12.7163 C   0  0  0  0  0  0  0  0  0  0  0  0
   22.4965  -19.3606  -12.3790 O   0  0  0  0  0  0  0  0  0  0  0  0
   21.8925  -21.4298  -13.1822 N   0  0  0  0  0  0  0  0  0  0  0  0
   20.4742  -21.0437  -13.2988 C   0  0  1  0  0  0  0  0  0  0  0  0
   20.0102  -21.3499  -14.7107 C   0  0  0  0  0  0  0  0  0  0  0  0
   20.5834  -20.4116  -15.6836 C   0  0  0  0  0  0  0  0  0  0  0  0
   20.7023  -19.0309  -15.4543 C   0  0  0  0  0  0  0  0  0  0  0  0
   21.2657  -18.4664  -16.5285 N   0  0  0  0  0  0  0  0  0  0  0  0
   21.5134  -19.4343  -17.4406 C   0  0  0  0  0  0  0  0  0  0  0  0
   21.0970  -20.5881  -16.9119 N   0  0  0  0  0  0  0  0  0  0  0  0
   19.7257  -21.9705  -12.3877 C   0  0  0  0  0  0  0  0  0  0  0  0
   18.4623  -21.8438  -12.2438 O   0  0  0  0  0  0  0  0  0  0  0  0
   20.2880  -22.9843  -11.6617 O   0  0  0  0  0  0  0  0  0  0  0  0
  2  1  1  6
  3  2  1  0
  4  3  1  0
  4  5  2  0
  6  5  1  0
  7  6  1  0
  8  7  2  0
  9  8  1  0
 10  9  2  0
 10 11  1  0
 11 12  2  0
 12  7  1  0
 12  4  1  0
 13  2  1  0
 13 14  2  0
 16 15  1  1
 16 17  1  0
 19 18  1  1
 18 16  1  0
 19 20  1  0
 20 13  1  0
 21 19  1  0
 22 21  2  0
 23 21  1  0
 24 25  1  6
 24 23  1  0
 25 26  1  0
 26 27  2  0
 27 28  1  0
 29 28  1  0
 30 26  1  0
 30 29  2  0
 31 24  1  0
 32 31  2  0
 33 31  1  0
M  END
$$$$
