WLH.pdb
     RDKit          3D

 33 35  0  0  1  0  0  0  0  0999 V2000
   27.3509  -21.7322  -10.5151 N   0  0  0  0  0  0  0  0  0  0  0  0
   26.3387  -20.9232   -9.9681 C   0  0  1  0  0  0  0  0  0  0  0  0
   26.4433  -20.5669   -8.5266 C   0  0  0  0  0  0  0  0  0  0  0  0
   27.7952  -20.6102   -7.9723 C   0  0  0  0  0  0  0  0  0  0  0  0
   28.9710  -21.0665   -8.5092 C   0  0  0  0  0  0  0  0  0  0  0  0
   29.9560  -20.9924   -7.6061 N   0  0  0  0  0  0  0  0  0  0  0  0
   29.4411  -20.4974   -6.4916 C   0  0  0  0  0  0  0  0  0  0  0  0
   29.9876  -20.1787   -5.2509 C   0  0  0  0  0  0  0  0  0  0  0  0
   29.2550  -19.6355   -4.2239 C   0  0  0  0  0  0  0  0  0  0  0  0
   27.9008  -19.3833   -4.4079 C   0  0  0  0  0  0  0  0  0  0  0  0
   27.3810  -19.7018   -5.6304 C   0  0  0  0  0  0  0  0  0  0  0  0
   28.0931  -20.2460   -6.6774 C   0  0  0  0  0  0  0  0  0  0  0  0
   26.0779  -19.7112  -10.8050 C   0  0  0  0  0  0  0  0  0  0  0  0
   26.6764  -18.6358  -10.6134 O   0  0  0  0  0  0  0  0  0  0  0  0
   27.6501  -18.4911  -13.7968 C   0  0  0  0  0  0  0  0  0  0  0  0
   27.7766  -20.0264  -13.8856 C   0  0  2  0  0  0  0  0  0  0  0  0
   28.3900  -20.3466  -15.2231 C   0  0  0  0  0  0  0  0  0  0  0  0
   26.4164  -20.5720  -13.6632 C   0  0  0  0  0  0  0  0  0  0  0  0
   25.3637  -19.5933  -13.2517 C   0  0  2  0  0  0  0  0  0  0  0  0
   25.1172  -19.7768  -11.8572 N   0  0  0  0  0  0  0  0  0  0  0  0
   24.2052  -19.6436  -14.1389 C   0  0  0  0  0  0  0  0  0  0  0  0
   24.4650  -19.4071  -15.3680 O   0  0  0  0  0  0  0  0  0  0  0  0
   22.8943  -19.9154  -13.7661 N   0  0  0  0  0  0  0  0  0  0  0  0
   22.3229  -21.2698  -13.8811 C   0  0  1  0  0  0  0  0  0  0  0  0
   23.1316  -22.2057  -13.0021 C   0  0  0  0  0  0  0  0  0  0  0  0
   23.7287  -23.2978  -13.7809 C   0  0  0  0  0  0  0  0  0  0  0  0
   23.5740  -23.4361  -15.1701 C   0  0  0  0  0  0  0  0  0  0  0  0
   24.2423  -24.5245  -15.5681 N   0  0  0  0  0  0  0  0  0  0  0  0
   24.8214  -25.0915  -14.4849 C   0  0  0  0  0  0  0  0  0  0  0  0
   24.4998  -24.3394  -13.4289 N   0  0  0  0  0  0  0  0  0  0  0  0
   20.9534  -21.1846  -13.2758 C   0  0  0  0  0  0  0  0  0  0  0  0
   20.6685  -20.2351  -12.4693 O   0  0  0  0  0  0  0  0  0  0  0  0
   19.9324  -22.0636  -13.5121 O   0  0  0  0  0  0  0  0  0  0  0  0
  2  1  1  6
  3  2  1  0
  4  3  1  0
  4  5  2  0
  6  5  1  0
  7  6  1  0
  8  7  2  0
  9  8  1  0
 10  9  2  0
 10 11  1  0
 11 12  2  0
 12  7  1  0
 12  4  1  0
 13  2  1  0
 13 14  2  0
 16 15  1  6
 16 17  1  0
 19 18  1  6
 18 16  1  0
 19 20  1  0
 20 13  1  0
 21 19  1  0
 22 21  2  0
 23 21  1  0
 24 25  1  1
 24 23  1  0
 25 26  1  0
 26 27  2  0
 27 28  1  0
 29 28  1  0
 30 26  1  0
 30 29  2  0
 31 24  1  0
 32 31  2  0
 33 31  1  0
M  END
$$$$
