NTF.pdb
     RDKit          3D

 27 27  0  0  1  0  0  0  0  0999 V2000
   18.3133  -15.3787  -15.4851 N   0  0  0  0  0  0  0  0  0  0  0  0
   17.9665  -13.9997  -15.5057 C   0  0  0  0  0  0  0  0  0  0  0  0
   16.8214  -13.6901  -15.0866 O   0  0  0  0  0  0  0  0  0  0  0  0
   18.8404  -12.9215  -15.9766 C   0  0  0  0  0  0  0  0  0  0  0  0
   18.2565  -12.1349  -17.1201 C   0  0  2  0  0  0  0  0  0  0  0  0
   18.1780  -12.8515  -18.3409 N   0  0  0  0  0  0  0  0  0  0  0  0
   19.0427  -10.8917  -17.2642 C   0  0  0  0  0  0  0  0  0  0  0  0
   20.1510  -10.9152  -17.8803 O   0  0  0  0  0  0  0  0  0  0  0  0
   18.0188   -7.6450  -18.7240 C   0  0  0  0  0  0  0  0  0  0  0  0
   18.5533   -7.2970  -17.3351 C   0  0  1  0  0  0  0  0  0  0  0  0
   17.4959   -7.1758  -16.4387 O   0  0  0  0  0  0  0  0  0  0  0  0
   19.4390   -8.4559  -16.8919 C   0  0  2  0  0  0  0  0  0  0  0  0
   18.6366   -9.6320  -16.7476 N   0  0  0  0  0  0  0  0  0  0  0  0
   20.1255   -8.0605  -15.6324 C   0  0  0  0  0  0  0  0  0  0  0  0
   19.7911   -8.4783  -14.5090 O   0  0  0  0  0  0  0  0  0  0  0  0
   21.2137   -7.1616  -15.7330 N   0  0  0  0  0  0  0  0  0  0  0  0
   21.9066   -6.6746  -14.5412 C   0  0  1  0  0  0  0  0  0  0  0  0
   23.3174   -7.1347  -14.5247 C   0  0  0  0  0  0  0  0  0  0  0  0
   24.0792   -6.7523  -15.7054 C   0  0  0  0  0  0  0  0  0  0  0  0
   24.6768   -5.5022  -15.7899 C   0  0  0  0  0  0  0  0  0  0  0  0
   25.4089   -5.1432  -16.8818 C   0  0  0  0  0  0  0  0  0  0  0  0
   25.5959   -5.9924  -17.9541 C   0  0  0  0  0  0  0  0  0  0  0  0
   25.0038   -7.2498  -17.8862 C   0  0  0  0  0  0  0  0  0  0  0  0
   24.2640   -7.6096  -16.7801 C   0  0  0  0  0  0  0  0  0  0  0  0
   21.8284   -5.2094  -14.4293 C   0  0  0  0  0  0  0  0  0  0  0  0
   22.2036   -4.5276  -13.2989 O   0  0  0  0  0  0  0  0  0  0  0  0
   21.3834   -4.5764  -15.4525 O   0  0  0  0  0  0  0  0  0  0  0  0
  2  1  1  0
  3  2  2  0
  4  2  1  0
  5  6  1  6
  5  4  1  0
  7  5  1  0
  7  8  2  0
 10  9  1  6
 10 12  1  0
 11 10  1  0
 12 13  1  1
 12 14  1  0
 13  7  1  0
 14 16  1  0
 15 14  2  0
 16 17  1  0
 17 25  1  0
 18 19  1  0
 17 18  1  6
 19 24  2  0
 20 21  2  0
 20 19  1  0
 21 22  1  0
 22 23  2  0
 24 23  1  0
 25 27  2  0
 25 26  1  0
M  END
$$$$
