NTF.pdb
     RDKit          3D

 27 27  0  0  1  0  0  0  0  0999 V2000
   17.3535  -15.3815  -16.3837 N   0  0  0  0  0  0  0  0  0  0  0  0
   17.2291  -14.1064  -15.7665 C   0  0  0  0  0  0  0  0  0  0  0  0
   16.6948  -14.0701  -14.6281 O   0  0  0  0  0  0  0  0  0  0  0  0
   17.6751  -12.8412  -16.3566 C   0  0  0  0  0  0  0  0  0  0  0  0
   16.6682  -11.7300  -16.2203 C   0  0  2  0  0  0  0  0  0  0  0  0
   15.5647  -11.8313  -17.1046 N   0  0  0  0  0  0  0  0  0  0  0  0
   17.3835  -10.4468  -16.3817 C   0  0  0  0  0  0  0  0  0  0  0  0
   17.7143  -10.0514  -17.5404 O   0  0  0  0  0  0  0  0  0  0  0  0
   16.5664   -6.9542  -15.5998 C   0  0  0  0  0  0  0  0  0  0  0  0
   17.8455   -7.2389  -14.8133 C   0  0  1  0  0  0  0  0  0  0  0  0
   17.5272   -7.5955  -13.5065 O   0  0  0  0  0  0  0  0  0  0  0  0
   18.5336   -8.4200  -15.4882 C   0  0  2  0  0  0  0  0  0  0  0  0
   17.7396   -9.5959  -15.3011 N   0  0  0  0  0  0  0  0  0  0  0  0
   19.9035   -8.5455  -14.9211 C   0  0  0  0  0  0  0  0  0  0  0  0
   20.2971   -9.5457  -14.2943 O   0  0  0  0  0  0  0  0  0  0  0  0
   20.7942   -7.4627  -15.1127 N   0  0  0  0  0  0  0  0  0  0  0  0
   22.2177   -7.5891  -14.8036 C   0  0  1  0  0  0  0  0  0  0  0  0
   22.8516   -8.6313  -15.6488 C   0  0  0  0  0  0  0  0  0  0  0  0
   24.2769   -8.8050  -15.4059 C   0  0  0  0  0  0  0  0  0  0  0  0
   25.2144   -8.1064  -16.1543 C   0  0  0  0  0  0  0  0  0  0  0  0
   26.5495   -8.2468  -15.9204 C   0  0  0  0  0  0  0  0  0  0  0  0
   27.0406   -9.0821  -14.9370 C   0  0  0  0  0  0  0  0  0  0  0  0
   26.1147   -9.7903  -14.1770 C   0  0  0  0  0  0  0  0  0  0  0  0
   24.7648   -9.6458  -14.4164 C   0  0  0  0  0  0  0  0  0  0  0  0
   22.9182   -6.3022  -14.9390 C   0  0  0  0  0  0  0  0  0  0  0  0
   23.9672   -5.9367  -14.1331 O   0  0  0  0  0  0  0  0  0  0  0  0
   22.5008   -5.5130  -15.8603 O   0  0  0  0  0  0  0  0  0  0  0  0
  2  1  1  0
  3  2  2  0
  4  2  1  0
  5  6  1  6
  5  4  1  0
  7  5  1  0
  7  8  2  0
 10  9  1  6
 10 12  1  0
 11 10  1  0
 12 13  1  1
 12 14  1  0
 13  7  1  0
 14 16  1  0
 15 14  2  0
 16 17  1  0
 17 25  1  0
 18 19  1  0
 17 18  1  6
 19 24  2  0
 20 21  2  0
 20 19  1  0
 21 22  1  0
 22 23  2  0
 24 23  1  0
 25 27  2  0
 25 26  1  0
M  END
$$$$
