NTF.pdb
     RDKit          3D

 27 27  0  0  1  0  0  0  0  0999 V2000
   13.3044  -10.8511  -17.6702 N   0  0  0  0  0  0  0  0  0  0  0  0
   13.4222   -9.8973  -16.6220 C   0  0  0  0  0  0  0  0  0  0  0  0
   12.5684   -8.9739  -16.5883 O   0  0  0  0  0  0  0  0  0  0  0  0
   14.4589   -9.9123  -15.5862 C   0  0  0  0  0  0  0  0  0  0  0  0
   15.4295  -11.0547  -15.7283 C   0  0  2  0  0  0  0  0  0  0  0  0
   14.9969  -12.2652  -15.1302 N   0  0  0  0  0  0  0  0  0  0  0  0
   16.7329  -10.6128  -15.1895 C   0  0  0  0  0  0  0  0  0  0  0  0
   16.9101  -10.5580  -13.9350 O   0  0  0  0  0  0  0  0  0  0  0  0
   19.9668  -12.1121  -15.5931 C   0  0  0  0  0  0  0  0  0  0  0  0
   20.2067  -10.6687  -16.0344 C   0  0  1  0  0  0  0  0  0  0  0  0
   20.1371  -10.5810  -17.4214 O   0  0  0  0  0  0  0  0  0  0  0  0
   19.0882   -9.8243  -15.4347 C   0  0  2  0  0  0  0  0  0  0  0  0
   17.8376  -10.2326  -15.9981 N   0  0  0  0  0  0  0  0  0  0  0  0
   19.4011   -8.3917  -15.6873 C   0  0  0  0  0  0  0  0  0  0  0  0
   18.8258   -7.7064  -16.5520 O   0  0  0  0  0  0  0  0  0  0  0  0
   20.4079   -7.7910  -14.8951 N   0  0  0  0  0  0  0  0  0  0  0  0
   20.8326   -6.4114  -15.1280 C   0  0  1  0  0  0  0  0  0  0  0  0
   20.6079   -5.5780  -13.9208 C   0  0  0  0  0  0  0  0  0  0  0  0
   20.9998   -4.1847  -14.0812 C   0  0  0  0  0  0  0  0  0  0  0  0
   20.0521   -3.2085  -14.3570 C   0  0  0  0  0  0  0  0  0  0  0  0
   20.4065   -1.8992  -14.4882 C   0  0  0  0  0  0  0  0  0  0  0  0
   21.7131   -1.4736  -14.3560 C   0  0  0  0  0  0  0  0  0  0  0  0
   22.6764   -2.4391  -14.0794 C   0  0  0  0  0  0  0  0  0  0  0  0
   22.3143   -3.7626  -13.9473 C   0  0  0  0  0  0  0  0  0  0  0  0
   22.2368   -6.3424  -15.5626 C   0  0  0  0  0  0  0  0  0  0  0  0
   22.6863   -5.4340  -16.4880 O   0  0  0  0  0  0  0  0  0  0  0  0
   23.0460   -7.1851  -15.0328 O   0  0  0  0  0  0  0  0  0  0  0  0
  2  1  1  0
  3  2  2  0
  4  2  1  0
  5  6  1  1
  5  4  1  0
  7  5  1  0
  7  8  2  0
 10  9  1  6
 10 12  1  0
 11 10  1  0
 12 13  1  6
 12 14  1  0
 13  7  1  0
 14 16  1  0
 15 14  2  0
 16 17  1  0
 17 25  1  0
 18 19  1  0
 17 18  1  1
 19 24  2  0
 20 21  2  0
 20 19  1  0
 21 22  1  0
 22 23  2  0
 24 23  1  0
 25 27  2  0
 25 26  1  0
M  END
$$$$
