NTF.pdb
     RDKit          3D

 27 27  0  0  1  0  0  0  0  0999 V2000
   18.5078  -22.6788  -12.6113 N   0  0  0  0  0  0  0  0  0  0  0  0
   19.2578  -22.3986  -11.4360 C   0  0  0  0  0  0  0  0  0  0  0  0
   18.7673  -22.7734  -10.3398 O   0  0  0  0  0  0  0  0  0  0  0  0
   20.5513  -21.7100  -11.4101 C   0  0  0  0  0  0  0  0  0  0  0  0
   20.9739  -21.1809  -12.7550 C   0  0  2  0  0  0  0  0  0  0  0  0
   20.9513  -22.1449  -13.7942 N   0  0  0  0  0  0  0  0  0  0  0  0
   22.3115  -20.5706  -12.6029 C   0  0  0  0  0  0  0  0  0  0  0  0
   22.5269  -19.7527  -11.6579 O   0  0  0  0  0  0  0  0  0  0  0  0
   25.8072  -21.7789  -12.1033 C   0  0  0  0  0  0  0  0  0  0  0  0
   25.8107  -21.0278  -13.4343 C   0  0  1  0  0  0  0  0  0  0  0  0
   25.6489  -21.9265  -14.4844 O   0  0  0  0  0  0  0  0  0  0  0  0
   24.6188  -20.0776  -13.4164 C   0  0  2  0  0  0  0  0  0  0  0  0
   23.4090  -20.8405  -13.4638 N   0  0  0  0  0  0  0  0  0  0  0  0
   24.7588  -19.1354  -14.5595 C   0  0  0  0  0  0  0  0  0  0  0  0
   23.9796  -19.1136  -15.5295 O   0  0  0  0  0  0  0  0  0  0  0  0
   25.8392  -18.2222  -14.5280 N   0  0  0  0  0  0  0  0  0  0  0  0
   26.0070  -17.2110  -15.5707 C   0  0  1  0  0  0  0  0  0  0  0  0
   26.9396  -16.1448  -15.1280 C   0  0  0  0  0  0  0  0  0  0  0  0
   27.2035  -15.1308  -16.1394 C   0  0  0  0  0  0  0  0  0  0  0  0
   28.2872  -15.2510  -16.9985 C   0  0  0  0  0  0  0  0  0  0  0  0
   28.5301  -14.3180  -17.9615 C   0  0  0  0  0  0  0  0  0  0  0  0
   27.7217  -13.2125  -18.1359 C   0  0  0  0  0  0  0  0  0  0  0  0
   26.6305  -13.0762  -17.2832 C   0  0  0  0  0  0  0  0  0  0  0  0
   26.3878  -14.0220  -16.3102 C   0  0  0  0  0  0  0  0  0  0  0  0
   26.4535  -17.8089  -16.8390 C   0  0  0  0  0  0  0  0  0  0  0  0
   26.0267  -17.3616  -18.0643 O   0  0  0  0  0  0  0  0  0  0  0  0
   27.2757  -18.7900  -16.7556 O   0  0  0  0  0  0  0  0  0  0  0  0
  2  1  1  0
  3  2  2  0
  4  2  1  0
  5  6  1  6
  5  4  1  0
  7  5  1  0
  7  8  2  0
 10  9  1  1
 10 12  1  0
 11 10  1  0
 12 13  1  6
 12 14  1  0
 13  7  1  0
 14 16  1  0
 15 14  2  0
 16 17  1  0
 17 25  1  0
 18 19  1  0
 17 18  1  1
 19 24  2  0
 20 21  2  0
 20 19  1  0
 21 22  1  0
 22 23  2  0
 24 23  1  0
 25 27  2  0
 25 26  1  0
M  END
$$$$
