NTF.pdb
     RDKit          3D

 27 27  0  0  1  0  0  0  0  0999 V2000
   26.0200  -34.5119  -10.9548 N   0  0  0  0  0  0  0  0  0  0  0  0
   25.3738  -33.8041   -9.9041 C   0  0  0  0  0  0  0  0  0  0  0  0
   25.3846  -32.5477   -9.9676 O   0  0  0  0  0  0  0  0  0  0  0  0
   24.7011  -34.4284   -8.7614 C   0  0  0  0  0  0  0  0  0  0  0  0
   24.5886  -35.9253   -8.8786 C   0  0  2  0  0  0  0  0  0  0  0  0
   23.5596  -36.3665   -9.7484 N   0  0  0  0  0  0  0  0  0  0  0  0
   24.4285  -36.4767   -7.5167 C   0  0  0  0  0  0  0  0  0  0  0  0
   23.3166  -36.3623   -6.9175 O   0  0  0  0  0  0  0  0  0  0  0  0
   24.4995  -39.8592   -6.2813 C   0  0  0  0  0  0  0  0  0  0  0  0
   25.5917  -39.1531   -5.4787 C   0  0  1  0  0  0  0  0  0  0  0  0
   26.8258  -39.3402   -6.0937 O   0  0  0  0  0  0  0  0  0  0  0  0
   25.2628  -37.6645   -5.4864 C   0  0  2  0  0  0  0  0  0  0  0  0
   25.4602  -37.1466   -6.8058 N   0  0  0  0  0  0  0  0  0  0  0  0
   26.1128  -36.9957   -4.4646 C   0  0  0  0  0  0  0  0  0  0  0  0
   27.2711  -36.6001   -4.6886 O   0  0  0  0  0  0  0  0  0  0  0  0
   25.5615  -36.8064   -3.1752 N   0  0  0  0  0  0  0  0  0  0  0  0
   26.3303  -36.1656   -2.1093 C   0  0  1  0  0  0  0  0  0  0  0  0
   25.7237  -34.8659   -1.7280 C   0  0  0  0  0  0  0  0  0  0  0  0
   25.7996  -33.8489   -2.7675 C   0  0  0  0  0  0  0  0  0  0  0  0
   26.8729  -32.9704   -2.8235 C   0  0  0  0  0  0  0  0  0  0  0  0
   26.9629  -32.0290   -3.8047 C   0  0  0  0  0  0  0  0  0  0  0  0
   26.0029  -31.8967   -4.7879 C   0  0  0  0  0  0  0  0  0  0  0  0
   24.9197  -32.7694   -4.7471 C   0  0  0  0  0  0  0  0  0  0  0  0
   24.8320  -33.7204   -3.7531 C   0  0  0  0  0  0  0  0  0  0  0  0
   26.4714  -37.0454   -0.9383 C   0  0  0  0  0  0  0  0  0  0  0  0
   27.2589  -36.7293    0.1404 O   0  0  0  0  0  0  0  0  0  0  0  0
   25.8164  -38.1481   -0.9638 O   0  0  0  0  0  0  0  0  0  0  0  0
  2  1  1  0
  3  2  2  0
  4  2  1  0
  5  6  1  6
  5  4  1  0
  7  5  1  0
  7  8  2  0
 10  9  1  6
 10 12  1  0
 11 10  1  0
 12 13  1  6
 12 14  1  0
 13  7  1  0
 14 16  1  0
 15 14  2  0
 16 17  1  0
 17 25  1  0
 18 19  1  0
 17 18  1  1
 19 24  2  0
 20 21  2  0
 20 19  1  0
 21 22  1  0
 22 23  2  0
 24 23  1  0
 25 27  2  0
 25 26  1  0
M  END
$$$$
