NTF.pdb
     RDKit          3D

 27 27  0  0  1  0  0  0  0  0999 V2000
   19.1631  -12.7197  -18.0299 N   0  0  0  0  0  0  0  0  0  0  0  0
   20.5026  -12.2743  -17.8575 C   0  0  0  0  0  0  0  0  0  0  0  0
   21.4024  -13.1534  -17.8468 O   0  0  0  0  0  0  0  0  0  0  0  0
   20.9072  -10.8753  -17.6928 C   0  0  0  0  0  0  0  0  0  0  0  0
   19.7503   -9.9117  -17.7158 C   0  0  2  0  0  0  0  0  0  0  0  0
   19.3798   -9.4764  -19.0131 N   0  0  0  0  0  0  0  0  0  0  0  0
   20.0879   -8.7758  -16.8325 C   0  0  0  0  0  0  0  0  0  0  0  0
   20.9583   -7.9295  -17.1995 O   0  0  0  0  0  0  0  0  0  0  0  0
   18.7387   -5.9104  -16.3362 C   0  0  0  0  0  0  0  0  0  0  0  0
   18.7474   -6.3672  -14.8778 C   0  0  1  0  0  0  0  0  0  0  0  0
   17.5215   -6.9409  -14.5550 O   0  0  0  0  0  0  0  0  0  0  0  0
   19.8333   -7.4291  -14.7467 C   0  0  2  0  0  0  0  0  0  0  0  0
   19.4912   -8.5541  -15.5623 N   0  0  0  0  0  0  0  0  0  0  0  0
   19.9736   -7.7747  -13.3063 C   0  0  0  0  0  0  0  0  0  0  0  0
   19.4962   -8.8057  -12.7989 O   0  0  0  0  0  0  0  0  0  0  0  0
   20.6901   -6.8742  -12.4827 N   0  0  0  0  0  0  0  0  0  0  0  0
   20.8519   -7.1222  -11.0509 C   0  0  1  0  0  0  0  0  0  0  0  0
   22.2623   -6.9208  -10.6355 C   0  0  0  0  0  0  0  0  0  0  0  0
   22.5203   -7.2422   -9.2388 C   0  0  0  0  0  0  0  0  0  0  0  0
   22.9714   -8.5029   -8.8726 C   0  0  0  0  0  0  0  0  0  0  0  0
   23.2354   -8.8064   -7.5706 C   0  0  0  0  0  0  0  0  0  0  0  0
   23.0712   -7.8880   -6.5529 C   0  0  0  0  0  0  0  0  0  0  0  0
   22.6197   -6.6189   -6.9021 C   0  0  0  0  0  0  0  0  0  0  0  0
   22.3537   -6.3154   -8.2202 C   0  0  0  0  0  0  0  0  0  0  0  0
   19.9420   -6.2880  -10.2499 C   0  0  0  0  0  0  0  0  0  0  0  0
   19.3912   -6.7114   -9.0662 O   0  0  0  0  0  0  0  0  0  0  0  0
   19.6738   -5.1214  -10.7110 O   0  0  0  0  0  0  0  0  0  0  0  0
  2  1  1  0
  3  2  2  0
  4  2  1  0
  5  6  1  6
  5  4  1  0
  7  5  1  0
  7  8  2  0
 10  9  1  6
 10 12  1  0
 11 10  1  0
 12 13  1  6
 12 14  1  0
 13  7  1  0
 14 16  1  0
 15 14  2  0
 16 17  1  0
 17 25  1  0
 18 19  1  0
 17 18  1  1
 19 24  2  0
 20 21  2  0
 20 19  1  0
 21 22  1  0
 22 23  2  0
 24 23  1  0
 25 27  2  0
 25 26  1  0
M  END
$$$$
