EPK.pdb
     RDKit          3D

 26 26  0  0  1  0  0  0  0  0999 V2000
    8.7138  -17.4857   16.6833 N   0  0  0  0  0  0  0  0  0  0  0  0
    7.9868  -17.0254   17.8146 C   0  0  1  0  0  0  0  0  0  0  0  0
    7.2082  -18.2105   18.3687 C   0  0  0  0  0  0  0  0  0  0  0  0
    6.5579  -17.7641   19.6450 C   0  0  0  0  0  0  0  0  0  0  0  0
    5.8216  -18.8470   20.3240 C   0  0  0  0  0  0  0  0  0  0  0  0
    5.8114  -19.9806   19.7836 O   0  0  0  0  0  0  0  0  0  0  0  0
    8.7450  -16.3220   18.8456 C   0  0  0  0  0  0  0  0  0  0  0  0
    9.9439  -16.7461   19.0215 O   0  0  0  0  0  0  0  0  0  0  0  0
    5.1401  -18.6932   21.5208 O   0  0  0  0  0  0  0  0  0  0  0  0
    8.3119  -15.2496   19.6521 N   0  0  0  0  0  0  0  0  0  0  0  0
    7.0295  -14.6144   19.8339 C   0  0  0  0  0  0  0  0  0  0  0  0
    7.4221  -13.1393   19.6535 C   0  0  0  0  0  0  0  0  0  0  0  0
    8.6586  -13.0776   20.5235 C   0  0  0  0  0  0  0  0  0  0  0  0
    9.1869  -14.4975   20.5570 C   0  0  1  0  0  0  0  0  0  0  0  0
    9.1115  -15.0523   21.9349 C   0  0  0  0  0  0  0  0  0  0  0  0
    8.0041  -15.3751   22.3831 O   0  0  0  0  0  0  0  0  0  0  0  0
   10.2470  -15.2284   22.7576 N   0  0  0  0  0  0  0  0  0  0  0  0
   10.3936  -16.2381   23.7550 C   0  0  1  0  0  0  0  0  0  0  0  0
   10.8855  -17.5562   23.2432 C   0  0  0  0  0  0  0  0  0  0  0  0
   11.0379  -18.5875   24.3340 C   0  0  0  0  0  0  0  0  0  0  0  0
   11.4281  -19.9225   23.7399 C   0  0  0  0  0  0  0  0  0  0  0  0
   11.6156  -20.9926   24.7761 C   0  0  0  0  0  0  0  0  0  0  0  0
   11.9689  -22.2278   24.0600 N   0  0  0  0  0  0  0  0  0  0  0  0
   11.3198  -15.8178   24.8530 C   0  0  0  0  0  0  0  0  0  0  0  0
   11.1771  -16.3199   25.9910 O   0  0  0  0  0  0  0  0  0  0  0  0
   12.3315  -14.8998   24.6817 O   0  0  0  0  0  0  0  0  0  0  0  0
  2  1  1  6
  2  7  1  0
  3  2  1  0
  4  3  1  0
  5  4  1  0
  6  5  2  0
  7 10  1  0
  8  7  2  0
  9  5  1  0
 10 11  1  0
 10 14  1  0
 11 12  1  0
 12 13  1  0
 14 13  1  0
 15 16  2  0
 14 15  1  1
 17 15  1  0
 18 17  1  0
 18 19  1  6
 20 19  1  0
 21 20  1  0
 22 21  1  0
 23 22  1  0
 24 18  1  0
 25 24  2  0
 26 24  1  0
M  END
$$$$
