EPK.pdb
     RDKit          3D

 26 26  0  0  1  0  0  0  0  0999 V2000
    7.9675  -18.2172   17.2533 N   0  0  0  0  0  0  0  0  0  0  0  0
    7.3878  -17.2057   18.0664 C   0  0  1  0  0  0  0  0  0  0  0  0
    6.2657  -17.8522   18.8669 C   0  0  0  0  0  0  0  0  0  0  0  0
    6.1650  -19.2827   18.4256 C   0  0  0  0  0  0  0  0  0  0  0  0
    5.1489  -20.0451   19.1755 C   0  0  0  0  0  0  0  0  0  0  0  0
    3.9396  -19.8267   18.9166 O   0  0  0  0  0  0  0  0  0  0  0  0
    8.2977  -16.4292   18.9039 C   0  0  0  0  0  0  0  0  0  0  0  0
    9.5043  -16.8659   18.9436 O   0  0  0  0  0  0  0  0  0  0  0  0
    5.4439  -20.9874   20.1478 O   0  0  0  0  0  0  0  0  0  0  0  0
    8.0008  -15.2754   19.6580 N   0  0  0  0  0  0  0  0  0  0  0  0
    6.7823  -14.5363   19.8817 C   0  0  0  0  0  0  0  0  0  0  0  0
    7.2608  -13.1099   19.5670 C   0  0  0  0  0  0  0  0  0  0  0  0
    8.5601  -13.0808   20.3421 C   0  0  0  0  0  0  0  0  0  0  0  0
    8.9905  -14.5302   20.4424 C   0  0  1  0  0  0  0  0  0  0  0  0
    8.9801  -14.9831   21.8591 C   0  0  0  0  0  0  0  0  0  0  0  0
    7.9003  -15.3083   22.3686 O   0  0  0  0  0  0  0  0  0  0  0  0
   10.1475  -15.0596   22.6519 N   0  0  0  0  0  0  0  0  0  0  0  0
   10.4642  -16.1199   23.5526 C   0  0  1  0  0  0  0  0  0  0  0  0
   10.6639  -17.4538   22.9031 C   0  0  0  0  0  0  0  0  0  0  0  0
   10.9101  -18.5592   23.9002 C   0  0  0  0  0  0  0  0  0  0  0  0
   11.0074  -19.8910   23.1902 C   0  0  0  0  0  0  0  0  0  0  0  0
   11.2587  -21.0373   24.1266 C   0  0  0  0  0  0  0  0  0  0  0  0
   11.4945  -22.2279   23.2959 N   0  0  0  0  0  0  0  0  0  0  0  0
   11.6942  -15.8315   24.3552 C   0  0  0  0  0  0  0  0  0  0  0  0
   11.7323  -16.1886   25.5545 O   0  0  0  0  0  0  0  0  0  0  0  0
   12.7991  -15.1882   23.8444 O   0  0  0  0  0  0  0  0  0  0  0  0
  2  1  1  1
  2  7  1  0
  3  2  1  0
  4  3  1  0
  5  4  1  0
  6  5  2  0
  7 10  1  0
  8  7  2  0
  9  5  1  0
 10 11  1  0
 10 14  1  0
 11 12  1  0
 12 13  1  0
 14 13  1  0
 15 16  2  0
 14 15  1  1
 17 15  1  0
 18 17  1  0
 18 19  1  6
 20 19  1  0
 21 20  1  0
 22 21  1  0
 23 22  1  0
 24 18  1  0
 25 24  2  0
 26 24  1  0
M  END
$$$$
