EPK.pdb
     RDKit          3D

 26 26  0  0  1  0  0  0  0  0999 V2000
    9.6521  -17.2004   16.4985 N   0  0  0  0  0  0  0  0  0  0  0  0
    8.6627  -16.6848   17.3792 C   0  0  1  0  0  0  0  0  0  0  0  0
    7.7399  -17.8369   17.7521 C   0  0  0  0  0  0  0  0  0  0  0  0
    7.2144  -18.4235   16.4751 C   0  0  0  0  0  0  0  0  0  0  0  0
    6.3220  -19.5769   16.6972 C   0  0  0  0  0  0  0  0  0  0  0  0
    5.1550  -19.3488   17.1013 O   0  0  0  0  0  0  0  0  0  0  0  0
    9.1374  -15.9470   18.5465 C   0  0  0  0  0  0  0  0  0  0  0  0
   10.3578  -16.1753   18.8730 O   0  0  0  0  0  0  0  0  0  0  0  0
    6.6895  -20.8966   16.4882 O   0  0  0  0  0  0  0  0  0  0  0  0
    8.4155  -15.0299   19.3376 N   0  0  0  0  0  0  0  0  0  0  0  0
    7.0618  -14.5350   19.2769 C   0  0  0  0  0  0  0  0  0  0  0  0
    7.3158  -13.0210   19.3543 C   0  0  0  0  0  0  0  0  0  0  0  0
    8.3093  -12.9689   20.4945 C   0  0  0  0  0  0  0  0  0  0  0  0
    8.9733  -14.3311   20.4997 C   0  0  1  0  0  0  0  0  0  0  0  0
    8.6524  -15.0657   21.7525 C   0  0  0  0  0  0  0  0  0  0  0  0
    7.5397  -15.5967   21.8587 O   0  0  0  0  0  0  0  0  0  0  0  0
    9.5601  -15.1859   22.8290 N   0  0  0  0  0  0  0  0  0  0  0  0
    9.3445  -15.9628   24.0062 C   0  0  1  0  0  0  0  0  0  0  0  0
   10.5767  -16.5989   24.5703 C   0  0  0  0  0  0  0  0  0  0  0  0
   10.2944  -17.4416   25.7896 C   0  0  0  0  0  0  0  0  0  0  0  0
   11.5668  -18.0978   26.2772 C   0  0  0  0  0  0  0  0  0  0  0  0
   11.3409  -19.0254   27.4358 C   0  0  0  0  0  0  0  0  0  0  0  0
   12.6546  -19.5666   27.8163 N   0  0  0  0  0  0  0  0  0  0  0  0
    8.7187  -15.1623   25.1051 C   0  0  0  0  0  0  0  0  0  0  0  0
    8.9158  -13.9265   25.1419 O   0  0  0  0  0  0  0  0  0  0  0  0
    7.9294  -15.7133   26.0895 O   0  0  0  0  0  0  0  0  0  0  0  0
  2  1  1  1
  2  7  1  0
  3  2  1  0
  4  3  1  0
  5  4  1  0
  6  5  2  0
  7 10  1  0
  8  7  2  0
  9  5  1  0
 10 11  1  0
 10 14  1  0
 11 12  1  0
 12 13  1  0
 14 13  1  0
 15 16  2  0
 14 15  1  1
 17 15  1  0
 18 17  1  0
 18 19  1  1
 20 19  1  0
 21 20  1  0
 22 21  1  0
 23 22  1  0
 24 18  1  0
 25 24  2  0
 26 24  1  0
M  END
$$$$
