EPK.pdb
     RDKit          3D

 26 26  0  0  1  0  0  0  0  0999 V2000
    7.9937  -15.0454   21.3767 N   0  0  0  0  0  0  0  0  0  0  0  0
    7.2686  -14.7815   22.5704 C   0  0  1  0  0  0  0  0  0  0  0  0
    6.4745  -16.0358   22.9077 C   0  0  0  0  0  0  0  0  0  0  0  0
    7.4609  -17.1351   23.1716 C   0  0  0  0  0  0  0  0  0  0  0  0
    6.8242  -18.3744   23.6561 C   0  0  0  0  0  0  0  0  0  0  0  0
    6.1202  -19.0290   22.8480 O   0  0  0  0  0  0  0  0  0  0  0  0
    8.0316  -14.2785   23.7093 C   0  0  0  0  0  0  0  0  0  0  0  0
    9.3041  -14.2536   23.5412 O   0  0  0  0  0  0  0  0  0  0  0  0
    6.9533  -18.8624   24.9466 O   0  0  0  0  0  0  0  0  0  0  0  0
    7.5325  -13.8264   24.9481 N   0  0  0  0  0  0  0  0  0  0  0  0
    6.1972  -13.6888   25.4765 C   0  0  0  0  0  0  0  0  0  0  0  0
    6.2502  -12.2417   25.9919 C   0  0  0  0  0  0  0  0  0  0  0  0
    7.5763  -12.2599   26.7205 C   0  0  0  0  0  0  0  0  0  0  0  0
    8.3768  -13.3593   26.0522 C   0  0  1  0  0  0  0  0  0  0  0  0
    8.6446  -14.4673   27.0076 C   0  0  0  0  0  0  0  0  0  0  0  0
    7.6822  -15.0630   27.5079 O   0  0  0  0  0  0  0  0  0  0  0  0
    9.9487  -14.8724   27.3715 N   0  0  0  0  0  0  0  0  0  0  0  0
   10.2609  -15.9321   28.2745 C   0  0  1  0  0  0  0  0  0  0  0  0
   11.4301  -16.7748   27.8696 C   0  0  0  0  0  0  0  0  0  0  0  0
   11.3717  -17.2004   26.4231 C   0  0  0  0  0  0  0  0  0  0  0  0
   12.7104  -17.7523   25.9865 C   0  0  0  0  0  0  0  0  0  0  0  0
   12.7142  -18.2200   24.5599 C   0  0  0  0  0  0  0  0  0  0  0  0
   14.0923  -18.6254   24.2436 N   0  0  0  0  0  0  0  0  0  0  0  0
   10.5350  -15.4332   29.6586 C   0  0  0  0  0  0  0  0  0  0  0  0
   10.7819  -16.2624   30.5634 O   0  0  0  0  0  0  0  0  0  0  0  0
   10.5309  -14.0989   29.9982 O   0  0  0  0  0  0  0  0  0  0  0  0
  2  1  1  6
  2  7  1  0
  3  2  1  0
  4  3  1  0
  5  4  1  0
  6  5  2  0
  7 10  1  0
  8  7  2  0
  9  5  1  0
 10 11  1  0
 10 14  1  0
 11 12  1  0
 12 13  1  0
 14 13  1  0
 15 16  2  0
 14 15  1  1
 17 15  1  0
 18 17  1  0
 18 19  1  6
 20 19  1  0
 21 20  1  0
 22 21  1  0
 23 22  1  0
 24 18  1  0
 25 24  2  0
 26 24  1  0
M  END
$$$$
