EPK.pdb
     RDKit          3D

 26 26  0  0  1  0  0  0  0  0999 V2000
    8.4643  -17.3269   16.2583 N   0  0  0  0  0  0  0  0  0  0  0  0
    7.8272  -16.6779   17.3507 C   0  0  1  0  0  0  0  0  0  0  0  0
    6.9865  -17.7216   18.0730 C   0  0  0  0  0  0  0  0  0  0  0  0
    6.0910  -18.3618   17.0536 C   0  0  0  0  0  0  0  0  0  0  0  0
    5.6735  -19.7253   17.4310 C   0  0  0  0  0  0  0  0  0  0  0  0
    5.8711  -20.6509   16.6055 O   0  0  0  0  0  0  0  0  0  0  0  0
    8.6833  -15.9212   18.2600 C   0  0  0  0  0  0  0  0  0  0  0  0
    9.9389  -16.1671   18.1536 O   0  0  0  0  0  0  0  0  0  0  0  0
    5.0769  -20.0501   18.6388 O   0  0  0  0  0  0  0  0  0  0  0  0
    8.2885  -14.9693   19.2224 N   0  0  0  0  0  0  0  0  0  0  0  0
    7.0151  -14.3763   19.5506 C   0  0  0  0  0  0  0  0  0  0  0  0
    7.3936  -12.8865   19.5483 C   0  0  0  0  0  0  0  0  0  0  0  0
    8.6725  -12.9286   20.3560 C   0  0  0  0  0  0  0  0  0  0  0  0
    9.2060  -14.3352   20.1743 C   0  0  1  0  0  0  0  0  0  0  0  0
    9.2023  -15.0684   21.4684 C   0  0  0  0  0  0  0  0  0  0  0  0
    8.1141  -15.3698   21.9746 O   0  0  0  0  0  0  0  0  0  0  0  0
   10.3851  -15.4374   22.1481 N   0  0  0  0  0  0  0  0  0  0  0  0
   10.4838  -16.4665   23.1315 C   0  0  1  0  0  0  0  0  0  0  0  0
   11.1214  -17.7326   22.6502 C   0  0  0  0  0  0  0  0  0  0  0  0
   11.1665  -18.8050   23.7107 C   0  0  0  0  0  0  0  0  0  0  0  0
   11.8719  -20.0336   23.1817 C   0  0  0  0  0  0  0  0  0  0  0  0
   11.7482  -21.2190   24.0946 C   0  0  0  0  0  0  0  0  0  0  0  0
   12.4433  -22.3391   23.4422 N   0  0  0  0  0  0  0  0  0  0  0  0
   11.2447  -16.0215   24.3410 C   0  0  0  0  0  0  0  0  0  0  0  0
   11.2004  -16.7236   25.3766 O   0  0  0  0  0  0  0  0  0  0  0  0
   11.9993  -14.8706   24.3809 O   0  0  0  0  0  0  0  0  0  0  0  0
  2  1  1  6
  2  7  1  0
  3  2  1  0
  4  3  1  0
  5  4  1  0
  6  5  2  0
  7 10  1  0
  8  7  2  0
  9  5  1  0
 10 11  1  0
 10 14  1  0
 11 12  1  0
 12 13  1  0
 14 13  1  0
 15 16  2  0
 14 15  1  1
 17 15  1  0
 18 17  1  0
 18 19  1  6
 20 19  1  0
 21 20  1  0
 22 21  1  0
 23 22  1  0
 24 18  1  0
 25 24  2  0
 26 24  1  0
M  END
$$$$
