EPK.pdb
     RDKit          3D

 26 26  0  0  1  0  0  0  0  0999 V2000
    9.2742  -16.6488   15.8577 N   0  0  0  0  0  0  0  0  0  0  0  0
    8.4311  -16.0369   16.8248 C   0  0  1  0  0  0  0  0  0  0  0  0
    7.2659  -16.9836   17.0774 C   0  0  0  0  0  0  0  0  0  0  0  0
    7.8318  -18.2516   17.6458 C   0  0  0  0  0  0  0  0  0  0  0  0
    6.7922  -19.2340   18.0062 C   0  0  0  0  0  0  0  0  0  0  0  0
    7.1530  -20.2847   18.5919 O   0  0  0  0  0  0  0  0  0  0  0  0
    9.0634  -15.5847   18.0609 C   0  0  0  0  0  0  0  0  0  0  0  0
   10.2947  -15.9223   18.1953 O   0  0  0  0  0  0  0  0  0  0  0  0
    5.4421  -19.0714   17.7395 O   0  0  0  0  0  0  0  0  0  0  0  0
    8.4803  -14.8327   19.1014 N   0  0  0  0  0  0  0  0  0  0  0  0
    7.1280  -14.4035   19.3626 C   0  0  0  0  0  0  0  0  0  0  0  0
    7.3578  -12.9068   19.6269 C   0  0  0  0  0  0  0  0  0  0  0  0
    8.5441  -12.9741   20.5638 C   0  0  0  0  0  0  0  0  0  0  0  0
    9.2280  -14.2866   20.2383 C   0  0  1  0  0  0  0  0  0  0  0  0
    9.1618  -15.2141   21.3990 C   0  0  0  0  0  0  0  0  0  0  0  0
    8.1088  -15.8309   21.6044 O   0  0  0  0  0  0  0  0  0  0  0  0
   10.2466  -15.4245   22.2800 N   0  0  0  0  0  0  0  0  0  0  0  0
   10.2962  -16.4163   23.3044 C   0  0  1  0  0  0  0  0  0  0  0  0
   11.4852  -17.3236   23.2396 C   0  0  0  0  0  0  0  0  0  0  0  0
   11.4880  -18.3637   24.3328 C   0  0  0  0  0  0  0  0  0  0  0  0
   12.6706  -19.2918   24.1679 C   0  0  0  0  0  0  0  0  0  0  0  0
   12.6504  -20.4434   25.1309 C   0  0  0  0  0  0  0  0  0  0  0  0
   13.7182  -21.3674   24.7192 N   0  0  0  0  0  0  0  0  0  0  0  0
   10.2742  -15.8152   24.6749 C   0  0  0  0  0  0  0  0  0  0  0  0
   10.7134  -14.6537   24.8338 O   0  0  0  0  0  0  0  0  0  0  0  0
    9.7931  -16.4739   25.7840 O   0  0  0  0  0  0  0  0  0  0  0  0
  2  1  1  6
  2  7  1  0
  3  2  1  0
  4  3  1  0
  5  4  1  0
  6  5  2  0
  7 10  1  0
  8  7  2  0
  9  5  1  0
 10 11  1  0
 10 14  1  0
 11 12  1  0
 12 13  1  0
 14 13  1  0
 15 16  2  0
 14 15  1  1
 17 15  1  0
 18 17  1  0
 18 19  1  6
 20 19  1  0
 21 20  1  0
 22 21  1  0
 23 22  1  0
 24 18  1  0
 25 24  2  0
 26 24  1  0
M  END
$$$$
