EPK.pdb
     RDKit          3D

 26 26  0  0  1  0  0  0  0  0999 V2000
    9.5458  -15.6076   14.8285 N   0  0  0  0  0  0  0  0  0  0  0  0
    8.6528  -15.3278   15.8984 C   0  0  1  0  0  0  0  0  0  0  0  0
    7.6484  -16.4700   15.9639 C   0  0  0  0  0  0  0  0  0  0  0  0
    8.3865  -17.6920   16.4252 C   0  0  0  0  0  0  0  0  0  0  0  0
    7.4924  -18.8303   16.7094 C   0  0  0  0  0  0  0  0  0  0  0  0
    8.0066  -19.8851   17.1568 O   0  0  0  0  0  0  0  0  0  0  0  0
    9.2505  -15.0323   17.1976 C   0  0  0  0  0  0  0  0  0  0  0  0
   10.5090  -15.2712   17.2826 O   0  0  0  0  0  0  0  0  0  0  0  0
    6.1206  -18.8098   16.5142 O   0  0  0  0  0  0  0  0  0  0  0  0
    8.6084  -14.5235   18.3451 N   0  0  0  0  0  0  0  0  0  0  0  0
    7.2267  -14.2481   18.6552 C   0  0  0  0  0  0  0  0  0  0  0  0
    7.3424  -12.8101   19.1860 C   0  0  0  0  0  0  0  0  0  0  0  0
    8.5267  -12.9572   20.1163 C   0  0  0  0  0  0  0  0  0  0  0  0
    9.3085  -14.1365   19.5740 C   0  0  1  0  0  0  0  0  0  0  0  0
    9.3074  -15.2592   20.5495 C   0  0  0  0  0  0  0  0  0  0  0  0
    8.3286  -16.0158   20.5800 O   0  0  0  0  0  0  0  0  0  0  0  0
   10.3734  -15.5029   21.4448 N   0  0  0  0  0  0  0  0  0  0  0  0
   10.4429  -16.5887   22.3678 C   0  0  1  0  0  0  0  0  0  0  0  0
   11.8318  -17.0105   22.7340 C   0  0  0  0  0  0  0  0  0  0  0  0
   11.8577  -18.2246   23.6296 C   0  0  0  0  0  0  0  0  0  0  0  0
   13.2848  -18.5957   23.9655 C   0  0  0  0  0  0  0  0  0  0  0  0
   13.3828  -19.7980   24.8592 C   0  0  0  0  0  0  0  0  0  0  0  0
   14.8141  -20.0507   25.0853 N   0  0  0  0  0  0  0  0  0  0  0  0
    9.7207  -16.2924   23.6447 C   0  0  0  0  0  0  0  0  0  0  0  0
    9.4958  -17.2288   24.4447 O   0  0  0  0  0  0  0  0  0  0  0  0
    9.2841  -15.0343   23.9944 O   0  0  0  0  0  0  0  0  0  0  0  0
  2  1  1  6
  2  7  1  0
  3  2  1  0
  4  3  1  0
  5  4  1  0
  6  5  2  0
  7 10  1  0
  8  7  2  0
  9  5  1  0
 10 11  1  0
 10 14  1  0
 11 12  1  0
 12 13  1  0
 14 13  1  0
 15 16  2  0
 14 15  1  1
 17 15  1  0
 18 17  1  0
 18 19  1  1
 20 19  1  0
 21 20  1  0
 22 21  1  0
 23 22  1  0
 24 18  1  0
 25 24  2  0
 26 24  1  0
M  END
$$$$
