EPK.pdb
     RDKit          3D

 26 26  0  0  1  0  0  0  0  0999 V2000
    7.8790  -14.4860   21.1648 N   0  0  0  0  0  0  0  0  0  0  0  0
    7.1740  -14.3117   22.3867 C   0  0  1  0  0  0  0  0  0  0  0  0
    6.1978  -15.4724   22.5188 C   0  0  0  0  0  0  0  0  0  0  0  0
    7.0066  -16.7337   22.5964 C   0  0  0  0  0  0  0  0  0  0  0  0
    6.1779  -17.9358   22.8064 C   0  0  0  0  0  0  0  0  0  0  0  0
    6.7595  -19.0049   23.1160 O   0  0  0  0  0  0  0  0  0  0  0  0
    7.9770  -14.1155   23.5905 C   0  0  0  0  0  0  0  0  0  0  0  0
    9.2425  -14.2573   23.4274 O   0  0  0  0  0  0  0  0  0  0  0  0
    4.7978  -17.9605   22.6838 O   0  0  0  0  0  0  0  0  0  0  0  0
    7.5225  -13.7937   24.8858 N   0  0  0  0  0  0  0  0  0  0  0  0
    6.2050  -13.6592   25.4579 C   0  0  0  0  0  0  0  0  0  0  0  0
    6.3377  -12.2890   26.1417 C   0  0  0  0  0  0  0  0  0  0  0  0
    7.6739  -12.4566   26.8317 C   0  0  0  0  0  0  0  0  0  0  0  0
    8.4079  -13.5032   26.0180 C   0  0  1  0  0  0  0  0  0  0  0  0
    8.6380  -14.7298   26.8271 C   0  0  0  0  0  0  0  0  0  0  0  0
    7.6894  -15.5023   27.0138 O   0  0  0  0  0  0  0  0  0  0  0  0
    9.8911  -15.0549   27.3939 N   0  0  0  0  0  0  0  0  0  0  0  0
   10.2161  -16.2956   28.0190 C   0  0  1  0  0  0  0  0  0  0  0  0
   11.5110  -16.9003   27.5733 C   0  0  0  0  0  0  0  0  0  0  0  0
   11.5896  -17.0779   26.0769 C   0  0  0  0  0  0  0  0  0  0  0  0
   12.9092  -17.7101   25.6945 C   0  0  0  0  0  0  0  0  0  0  0  0
   12.9775  -18.0918   24.2441 C   0  0  0  0  0  0  0  0  0  0  0  0
   14.2912  -18.7159   24.0247 N   0  0  0  0  0  0  0  0  0  0  0  0
   10.2734  -16.1795   29.5100 C   0  0  0  0  0  0  0  0  0  0  0  0
   10.1958  -15.0445   30.0325 O   0  0  0  0  0  0  0  0  0  0  0  0
   10.4085  -17.2620   30.3501 O   0  0  0  0  0  0  0  0  0  0  0  0
  2  1  1  6
  2  7  1  0
  3  2  1  0
  4  3  1  0
  5  4  1  0
  6  5  2  0
  7 10  1  0
  8  7  2  0
  9  5  1  0
 10 11  1  0
 10 14  1  0
 11 12  1  0
 12 13  1  0
 14 13  1  0
 15 16  2  0
 14 15  1  1
 17 15  1  0
 18 17  1  0
 18 19  1  6
 20 19  1  0
 21 20  1  0
 22 21  1  0
 23 22  1  0
 24 18  1  0
 25 24  2  0
 26 24  1  0
M  END
$$$$
