EPK.pdb
     RDKit          3D

 26 26  0  0  1  0  0  0  0  0999 V2000
    7.9227  -13.9856   20.8915 N   0  0  0  0  0  0  0  0  0  0  0  0
    7.1730  -13.9430   22.0984 C   0  0  1  0  0  0  0  0  0  0  0  0
    6.2272  -15.1360   22.0894 C   0  0  0  0  0  0  0  0  0  0  0  0
    7.0653  -16.3752   22.2041 C   0  0  0  0  0  0  0  0  0  0  0  0
    6.2616  -17.6117   22.2338 C   0  0  0  0  0  0  0  0  0  0  0  0
    5.0553  -17.5378   21.8924 O   0  0  0  0  0  0  0  0  0  0  0  0
    7.9297  -13.8376   23.3428 C   0  0  0  0  0  0  0  0  0  0  0  0
    9.1939  -14.0288   23.2267 O   0  0  0  0  0  0  0  0  0  0  0  0
    6.7530  -18.8502   22.6144 O   0  0  0  0  0  0  0  0  0  0  0  0
    7.4328  -13.5543   24.6315 N   0  0  0  0  0  0  0  0  0  0  0  0
    6.1018  -13.3372   25.1437 C   0  0  0  0  0  0  0  0  0  0  0  0
    6.3131  -12.0274   25.9200 C   0  0  0  0  0  0  0  0  0  0  0  0
    7.5893  -12.3543   26.6644 C   0  0  0  0  0  0  0  0  0  0  0  0
    8.2751  -13.4119   25.8232 C   0  0  1  0  0  0  0  0  0  0  0  0
    8.3534  -14.7001   26.5625 C   0  0  0  0  0  0  0  0  0  0  0  0
    7.3316  -15.3919   26.6560 O   0  0  0  0  0  0  0  0  0  0  0  0
    9.5419  -15.1719   27.1643 N   0  0  0  0  0  0  0  0  0  0  0  0
    9.8788  -16.5446   27.3584 C   0  0  1  0  0  0  0  0  0  0  0  0
   10.8955  -17.0808   26.3992 C   0  0  0  0  0  0  0  0  0  0  0  0
   11.2740  -18.5128   26.6875 C   0  0  0  0  0  0  0  0  0  0  0  0
   12.3103  -18.9893   25.6944 C   0  0  0  0  0  0  0  0  0  0  0  0
   12.7069  -20.4221   25.9035 C   0  0  0  0  0  0  0  0  0  0  0  0
   13.7364  -20.7345   24.9005 N   0  0  0  0  0  0  0  0  0  0  0  0
   10.3912  -16.8113   28.7391 C   0  0  0  0  0  0  0  0  0  0  0  0
   10.9615  -15.8873   29.3623 O   0  0  0  0  0  0  0  0  0  0  0  0
   10.2701  -18.0287   29.3707 O   0  0  0  0  0  0  0  0  0  0  0  0
  2  1  1  6
  2  7  1  0
  3  2  1  0
  4  3  1  0
  5  4  1  0
  6  5  2  0
  7 10  1  0
  8  7  2  0
  9  5  1  0
 10 11  1  0
 10 14  1  0
 11 12  1  0
 12 13  1  0
 14 13  1  0
 15 16  2  0
 14 15  1  1
 17 15  1  0
 18 17  1  0
 18 19  1  6
 20 19  1  0
 21 20  1  0
 22 21  1  0
 23 22  1  0
 24 18  1  0
 25 24  2  0
 26 24  1  0
M  END
$$$$
