EPK.pdb
     RDKit          3D

 26 26  0  0  1  0  0  0  0  0999 V2000
    8.6189  -17.0294   16.1211 N   0  0  0  0  0  0  0  0  0  0  0  0
    7.9105  -16.3757   17.1657 C   0  0  1  0  0  0  0  0  0  0  0  0
    6.8235  -17.3280   17.6444 C   0  0  0  0  0  0  0  0  0  0  0  0
    7.4981  -18.5896   18.0964 C   0  0  0  0  0  0  0  0  0  0  0  0
    6.5594  -19.5650   18.6824 C   0  0  0  0  0  0  0  0  0  0  0  0
    5.9233  -20.3131   17.8996 O   0  0  0  0  0  0  0  0  0  0  0  0
    8.7051  -15.8348   18.2649 C   0  0  0  0  0  0  0  0  0  0  0  0
    9.9495  -16.1498   18.2410 O   0  0  0  0  0  0  0  0  0  0  0  0
    6.3347  -19.7084   20.0423 O   0  0  0  0  0  0  0  0  0  0  0  0
    8.2630  -15.0207   19.3279 N   0  0  0  0  0  0  0  0  0  0  0  0
    6.9623  -14.5282   19.7109 C   0  0  0  0  0  0  0  0  0  0  0  0
    7.2719  -13.0327   19.8858 C   0  0  0  0  0  0  0  0  0  0  0  0
    8.5480  -13.1112   20.6953 C   0  0  0  0  0  0  0  0  0  0  0  0
    9.1463  -14.4614   20.3559 C   0  0  1  0  0  0  0  0  0  0  0  0
    9.1709  -15.3402   21.5556 C   0  0  0  0  0  0  0  0  0  0  0  0
    8.1617  -16.0045   21.8234 O   0  0  0  0  0  0  0  0  0  0  0  0
   10.2944  -15.4523   22.4056 N   0  0  0  0  0  0  0  0  0  0  0  0
   10.7260  -16.6512   23.0476 C   0  0  1  0  0  0  0  0  0  0  0  0
   11.8486  -17.3612   22.3571 C   0  0  0  0  0  0  0  0  0  0  0  0
   12.2517  -18.6366   23.0554 C   0  0  0  0  0  0  0  0  0  0  0  0
   13.3405  -19.3380   22.2746 C   0  0  0  0  0  0  0  0  0  0  0  0
   13.7753  -20.6291   22.9056 C   0  0  0  0  0  0  0  0  0  0  0  0
   14.9472  -21.1025   22.1535 N   0  0  0  0  0  0  0  0  0  0  0  0
   11.1579  -16.4119   24.4604 C   0  0  0  0  0  0  0  0  0  0  0  0
   11.3979  -17.3966   25.1953 O   0  0  0  0  0  0  0  0  0  0  0  0
   11.3082  -15.1562   25.0049 O   0  0  0  0  0  0  0  0  0  0  0  0
  2  1  1  6
  2  7  1  0
  3  2  1  0
  4  3  1  0
  5  4  1  0
  6  5  2  0
  7 10  1  0
  8  7  2  0
  9  5  1  0
 10 11  1  0
 10 14  1  0
 11 12  1  0
 12 13  1  0
 14 13  1  0
 15 16  2  0
 14 15  1  1
 17 15  1  0
 18 17  1  0
 18 19  1  6
 20 19  1  0
 21 20  1  0
 22 21  1  0
 23 22  1  0
 24 18  1  0
 25 24  2  0
 26 24  1  0
M  END
$$$$
