EPK.pdb
     RDKit          3D

 26 26  0  0  1  0  0  0  0  0999 V2000
    8.2133  -14.4866   20.9963 N   0  0  0  0  0  0  0  0  0  0  0  0
    7.4211  -14.2485   22.1522 C   0  0  1  0  0  0  0  0  0  0  0  0
    6.2998  -15.2783   22.1559 C   0  0  0  0  0  0  0  0  0  0  0  0
    6.9178  -16.6150   22.4430 C   0  0  0  0  0  0  0  0  0  0  0  0
    5.9210  -17.6964   22.5566 C   0  0  0  0  0  0  0  0  0  0  0  0
    6.1256  -18.5985   23.4060 O   0  0  0  0  0  0  0  0  0  0  0  0
    8.1226  -14.1798   23.4311 C   0  0  0  0  0  0  0  0  0  0  0  0
    9.3613  -14.5149   23.3890 O   0  0  0  0  0  0  0  0  0  0  0  0
    4.7726  -17.7802   21.7855 O   0  0  0  0  0  0  0  0  0  0  0  0
    7.5979  -13.7932   24.6814 N   0  0  0  0  0  0  0  0  0  0  0  0
    6.2913  -13.3496   25.1021 C   0  0  0  0  0  0  0  0  0  0  0  0
    6.6665  -12.0776   25.8791 C   0  0  0  0  0  0  0  0  0  0  0  0
    7.8206  -12.5955   26.7095 C   0  0  0  0  0  0  0  0  0  0  0  0
    8.3741  -13.7680   25.9251 C   0  0  1  0  0  0  0  0  0  0  0  0
    8.1904  -15.0366   26.6794 C   0  0  0  0  0  0  0  0  0  0  0  0
    7.1190  -15.6447   26.5626 O   0  0  0  0  0  0  0  0  0  0  0  0
    9.1835  -15.5810   27.5247 N   0  0  0  0  0  0  0  0  0  0  0  0
    9.6007  -16.9455   27.5340 C   0  0  1  0  0  0  0  0  0  0  0  0
   10.5718  -17.3100   26.4545 C   0  0  0  0  0  0  0  0  0  0  0  0
    9.9347  -18.0964   25.3354 C   0  0  0  0  0  0  0  0  0  0  0  0
   10.9621  -18.4209   24.2741 C   0  0  0  0  0  0  0  0  0  0  0  0
   10.4332  -19.3340   23.2062 C   0  0  0  0  0  0  0  0  0  0  0  0
   11.4869  -19.4610   22.1879 N   0  0  0  0  0  0  0  0  0  0  0  0
   10.2224  -17.3377   28.8376 C   0  0  0  0  0  0  0  0  0  0  0  0
   10.7585  -16.4534   29.5433 O   0  0  0  0  0  0  0  0  0  0  0  0
   10.2390  -18.6305   29.3111 O   0  0  0  0  0  0  0  0  0  0  0  0
  2  1  1  6
  2  7  1  0
  3  2  1  0
  4  3  1  0
  5  4  1  0
  6  5  2  0
  7 10  1  0
  8  7  2  0
  9  5  1  0
 10 11  1  0
 10 14  1  0
 11 12  1  0
 12 13  1  0
 14 13  1  0
 15 16  2  0
 14 15  1  1
 17 15  1  0
 18 17  1  0
 18 19  1  6
 20 19  1  0
 21 20  1  0
 22 21  1  0
 23 22  1  0
 24 18  1  0
 25 24  2  0
 26 24  1  0
M  END
$$$$
