EPK.pdb
     RDKit          3D

 26 26  0  0  1  0  0  0  0  0999 V2000
    7.6749  -14.9350   21.1495 N   0  0  0  0  0  0  0  0  0  0  0  0
    7.0258  -14.6731   22.3866 C   0  0  1  0  0  0  0  0  0  0  0  0
    6.0988  -15.8465   22.6720 C   0  0  0  0  0  0  0  0  0  0  0  0
    6.9450  -17.0841   22.7308 C   0  0  0  0  0  0  0  0  0  0  0  0
    6.1874  -18.2788   23.1488 C   0  0  0  0  0  0  0  0  0  0  0  0
    5.9330  -18.4164   24.3709 O   0  0  0  0  0  0  0  0  0  0  0  0
    7.8803  -14.3447   23.5243 C   0  0  0  0  0  0  0  0  0  0  0  0
    9.1410  -14.4385   23.3007 O   0  0  0  0  0  0  0  0  0  0  0  0
    5.7384  -19.2593   22.2786 O   0  0  0  0  0  0  0  0  0  0  0  0
    7.4790  -13.9440   24.8152 N   0  0  0  0  0  0  0  0  0  0  0  0
    6.1917  -13.8627   25.4613 C   0  0  0  0  0  0  0  0  0  0  0  0
    6.2490  -12.4301   26.0154 C   0  0  0  0  0  0  0  0  0  0  0  0
    7.6337  -12.4285   26.6254 C   0  0  0  0  0  0  0  0  0  0  0  0
    8.4032  -13.4832   25.8562 C   0  0  1  0  0  0  0  0  0  0  0  0
    8.7847  -14.6094   26.7495 C   0  0  0  0  0  0  0  0  0  0  0  0
    7.9241  -15.4483   27.0446 O   0  0  0  0  0  0  0  0  0  0  0  0
   10.0858  -14.7668   27.2782 N   0  0  0  0  0  0  0  0  0  0  0  0
   10.5433  -15.8967   28.0196 C   0  0  1  0  0  0  0  0  0  0  0  0
   11.9928  -16.2216   27.8338 C   0  0  0  0  0  0  0  0  0  0  0  0
   12.4342  -17.4137   28.6467 C   0  0  0  0  0  0  0  0  0  0  0  0
   12.4958  -18.6473   27.7740 C   0  0  0  0  0  0  0  0  0  0  0  0
   12.8136  -19.8955   28.5454 C   0  0  0  0  0  0  0  0  0  0  0  0
   12.6180  -21.0292   27.6289 N   0  0  0  0  0  0  0  0  0  0  0  0
   10.3112  -15.7400   29.4898 C   0  0  0  0  0  0  0  0  0  0  0  0
   10.1577  -14.5897   29.9594 O   0  0  0  0  0  0  0  0  0  0  0  0
   10.2562  -16.8006   30.3659 O   0  0  0  0  0  0  0  0  0  0  0  0
  2  1  1  6
  2  7  1  0
  3  2  1  0
  4  3  1  0
  5  4  1  0
  6  5  2  0
  7 10  1  0
  8  7  2  0
  9  5  1  0
 10 11  1  0
 10 14  1  0
 11 12  1  0
 12 13  1  0
 14 13  1  0
 15 16  2  0
 14 15  1  1
 17 15  1  0
 18 17  1  0
 18 19  1  1
 20 19  1  0
 21 20  1  0
 22 21  1  0
 23 22  1  0
 24 18  1  0
 25 24  2  0
 26 24  1  0
M  END
$$$$
