TMT.pdb
     RDKit          3D

 23 22  0  0  1  0  0  0  0  0999 V2000
    7.3793  -15.9148   19.6651 C   0  0  0  0  0  0  0  0  0  0  0  0
    8.3067  -14.8522   19.1158 C   0  0  1  0  0  0  0  0  0  0  0  0
    8.1055  -14.7823   17.7376 O   0  0  0  0  0  0  0  0  0  0  0  0
    8.0091  -13.5188   19.7643 C   0  0  2  0  0  0  0  0  0  0  0  0
    8.5160  -12.4169   18.9849 N   0  0  0  0  0  0  0  0  0  0  0  0
    8.4360  -13.4805   21.1795 C   0  0  0  0  0  0  0  0  0  0  0  0
    9.5533  -13.0284   21.4555 O   0  0  0  0  0  0  0  0  0  0  0  0
    6.6832  -10.8944   27.6610 C   0  0  0  0  0  0  0  0  0  0  0  0
    6.0140  -12.4820   27.0407 S   0  0  0  0  0  0  0  0  0  0  0  0
    7.2743  -13.1915   25.9872 C   0  0  0  0  0  0  0  0  0  0  0  0
    6.9706  -13.2668   24.5506 C   0  0  0  0  0  0  0  0  0  0  0  0
    7.9914  -13.8273   23.6366 C   0  0  2  0  0  0  0  0  0  0  0  0
    7.6034  -13.9488   22.2547 N   0  0  0  0  0  0  0  0  0  0  0  0
    8.5098  -15.1445   24.1148 C   0  0  0  0  0  0  0  0  0  0  0  0
    8.6078  -15.4213   25.3370 O   0  0  0  0  0  0  0  0  0  0  0  0
    7.6457  -18.6364   22.1922 C   0  0  0  0  0  0  0  0  0  0  0  0
    9.1171  -18.4279   22.4645 C   0  0  1  0  0  0  0  0  0  0  0  0
    9.7667  -17.9960   21.3300 O   0  0  0  0  0  0  0  0  0  0  0  0
    9.3420  -17.4724   23.6172 C   0  0  2  0  0  0  0  0  0  0  0  0
    8.9143  -16.1403   23.1919 N   0  0  0  0  0  0  0  0  0  0  0  0
   10.7969  -17.3715   23.9069 C   0  0  0  0  0  0  0  0  0  0  0  0
   11.5414  -18.4186   24.4346 O   0  0  0  0  0  0  0  0  0  0  0  0
   11.4087  -16.2968   23.6724 O   0  0  0  0  0  0  0  0  0  0  0  0
  2  1  1  1
  3  2  1  0
  4  2  1  0
  4  6  1  0
  4  5  1  6
  6  7  2  0
  9  8  1  0
  9 10  1  0
 10 11  1  0
 12 11  1  1
 13 12  1  0
 13  6  1  0
 14 12  1  0
 14 15  2  0
 17 16  1  6
 17 19  1  0
 18 17  1  0
 19 20  1  6
 19 21  1  0
 20 14  1  0
 21 22  1  0
 23 21  2  0
M  END
$$$$
