TMT.pdb
     RDKit          3D

 23 22  0  0  1  0  0  0  0  0999 V2000
    4.1273  -19.4817   23.0228 C   0  0  0  0  0  0  0  0  0  0  0  0
    5.4120  -18.6876   23.1232 C   0  0  1  0  0  0  0  0  0  0  0  0
    6.4728  -19.5629   22.8925 O   0  0  0  0  0  0  0  0  0  0  0  0
    5.4127  -17.5715   22.1027 C   0  0  2  0  0  0  0  0  0  0  0  0
    5.1313  -18.0573   20.7747 N   0  0  0  0  0  0  0  0  0  0  0  0
    6.6395  -16.7494   22.1778 C   0  0  0  0  0  0  0  0  0  0  0  0
    7.5389  -16.9396   21.3509 O   0  0  0  0  0  0  0  0  0  0  0  0
    6.3557  -12.3118   27.6969 C   0  0  0  0  0  0  0  0  0  0  0  0
    7.3856  -12.1029   26.1974 S   0  0  0  0  0  0  0  0  0  0  0  0
    7.2291  -13.6155   25.2545 C   0  0  0  0  0  0  0  0  0  0  0  0
    7.9648  -13.6822   23.9833 C   0  0  0  0  0  0  0  0  0  0  0  0
    8.0586  -14.9834   23.2836 C   0  0  2  0  0  0  0  0  0  0  0  0
    6.8330  -15.7327   23.1766 N   0  0  0  0  0  0  0  0  0  0  0  0
    9.1165  -15.8606   23.8698 C   0  0  0  0  0  0  0  0  0  0  0  0
    8.9327  -16.5156   24.9267 O   0  0  0  0  0  0  0  0  0  0  0  0
   10.5984  -18.8462   22.3419 C   0  0  0  0  0  0  0  0  0  0  0  0
   11.7271  -17.8738   22.5928 C   0  0  1  0  0  0  0  0  0  0  0  0
   12.0466  -17.1896   21.4415 O   0  0  0  0  0  0  0  0  0  0  0  0
   11.4009  -16.9181   23.7208 C   0  0  2  0  0  0  0  0  0  0  0  0
   10.3812  -15.9850   23.2438 N   0  0  0  0  0  0  0  0  0  0  0  0
   12.5986  -16.0987   24.0446 C   0  0  0  0  0  0  0  0  0  0  0  0
   13.7240  -16.6133   24.6754 O   0  0  0  0  0  0  0  0  0  0  0  0
   12.6209  -14.8767   23.7437 O   0  0  0  0  0  0  0  0  0  0  0  0
  2  1  1  6
  3  2  1  0
  4  2  1  0
  4  6  1  0
  4  5  1  6
  6  7  2  0
  9  8  1  0
  9 10  1  0
 10 11  1  0
 12 11  1  1
 13 12  1  0
 13  6  1  0
 14 12  1  0
 14 15  2  0
 17 16  1  6
 17 19  1  0
 18 17  1  0
 19 20  1  6
 19 21  1  0
 20 14  1  0
 21 22  1  0
 23 21  2  0
M  END
$$$$
