TMT.pdb
     RDKit          3D

 23 22  0  0  1  0  0  0  0  0999 V2000
    7.5165  -17.7511   20.6320 C   0  0  0  0  0  0  0  0  0  0  0  0
    8.1838  -16.6817   19.7941 C   0  0  1  0  0  0  0  0  0  0  0  0
    7.6890  -16.7883   18.4946 O   0  0  0  0  0  0  0  0  0  0  0  0
    7.8848  -15.3137   20.3655 C   0  0  2  0  0  0  0  0  0  0  0  0
    8.2487  -14.2587   19.4528 N   0  0  0  0  0  0  0  0  0  0  0  0
    8.4541  -15.1394   21.7191 C   0  0  0  0  0  0  0  0  0  0  0  0
    9.6657  -14.9217   21.8353 O   0  0  0  0  0  0  0  0  0  0  0  0
    6.7936  -10.8382   27.0506 C   0  0  0  0  0  0  0  0  0  0  0  0
    6.4181  -12.6236   26.8949 S   0  0  0  0  0  0  0  0  0  0  0  0
    7.3962  -13.2346   25.5268 C   0  0  0  0  0  0  0  0  0  0  0  0
    7.4111  -14.6904   25.3221 C   0  0  0  0  0  0  0  0  0  0  0  0
    8.2402  -15.2461   24.2287 C   0  0  2  0  0  0  0  0  0  0  0  0
    7.6552  -15.2127   22.9129 N   0  0  0  0  0  0  0  0  0  0  0  0
    8.6979  -16.6375   24.5234 C   0  0  0  0  0  0  0  0  0  0  0  0
    7.9214  -17.6241   24.4635 O   0  0  0  0  0  0  0  0  0  0  0  0
   11.2713  -18.6072   22.8276 C   0  0  0  0  0  0  0  0  0  0  0  0
   11.6980  -18.5353   24.2751 C   0  0  1  0  0  0  0  0  0  0  0  0
   12.7017  -17.6077   24.4423 O   0  0  0  0  0  0  0  0  0  0  0  0
   10.5272  -18.2406   25.1887 C   0  0  2  0  0  0  0  0  0  0  0  0
   10.0431  -16.8946   24.8856 N   0  0  0  0  0  0  0  0  0  0  0  0
   10.9902  -18.2098   26.6014 C   0  0  0  0  0  0  0  0  0  0  0  0
   11.5192  -19.3169   27.2523 O   0  0  0  0  0  0  0  0  0  0  0  0
   10.9104  -17.1421   27.2631 O   0  0  0  0  0  0  0  0  0  0  0  0
  2  1  1  1
  3  2  1  0
  4  2  1  0
  4  6  1  0
  4  5  1  6
  6  7  2  0
  9  8  1  0
  9 10  1  0
 10 11  1  0
 12 11  1  1
 13 12  1  0
 13  6  1  0
 14 12  1  0
 14 15  2  0
 17 16  1  6
 17 19  1  0
 18 17  1  0
 19 20  1  6
 19 21  1  0
 20 14  1  0
 21 22  1  0
 23 21  2  0
M  END
$$$$
