TMT.pdb
     RDKit          3D

 23 22  0  0  1  0  0  0  0  0999 V2000
    6.8342  -15.9081   20.0478 C   0  0  0  0  0  0  0  0  0  0  0  0
    7.8115  -14.8896   19.5015 C   0  0  1  0  0  0  0  0  0  0  0  0
    7.4519  -14.6198   18.1814 O   0  0  0  0  0  0  0  0  0  0  0  0
    7.7641  -13.6275   20.3334 C   0  0  2  0  0  0  0  0  0  0  0  0
    8.3770  -12.5130   19.6546 N   0  0  0  0  0  0  0  0  0  0  0  0
    8.2882  -13.8413   21.6995 C   0  0  0  0  0  0  0  0  0  0  0  0
    9.5119  -13.8506   21.8763 O   0  0  0  0  0  0  0  0  0  0  0  0
    7.2499  -11.5158   27.9051 C   0  0  0  0  0  0  0  0  0  0  0  0
    6.0252  -11.3958   26.5491 S   0  0  0  0  0  0  0  0  0  0  0  0
    6.7698  -12.1688   25.1175 C   0  0  0  0  0  0  0  0  0  0  0  0
    7.1648  -13.5781   25.2567 C   0  0  0  0  0  0  0  0  0  0  0  0
    7.9505  -14.2067   24.1709 C   0  0  2  0  0  0  0  0  0  0  0  0
    7.4314  -14.0399   22.8376 N   0  0  0  0  0  0  0  0  0  0  0  0
    8.1916  -15.6598   24.4217 C   0  0  0  0  0  0  0  0  0  0  0  0
    7.2626  -16.5061   24.3978 O   0  0  0  0  0  0  0  0  0  0  0  0
   10.1926  -17.9374   22.4458 C   0  0  0  0  0  0  0  0  0  0  0  0
   10.7881  -17.9784   23.8337 C   0  0  1  0  0  0  0  0  0  0  0  0
   11.9244  -17.2038   23.9001 O   0  0  0  0  0  0  0  0  0  0  0  0
    9.7826  -17.5605   24.8856 C   0  0  2  0  0  0  0  0  0  0  0  0
    9.4956  -16.1389   24.6990 N   0  0  0  0  0  0  0  0  0  0  0  0
   10.3889  -17.6905   26.2370 C   0  0  0  0  0  0  0  0  0  0  0  0
   10.6564  -16.6027   27.0582 O   0  0  0  0  0  0  0  0  0  0  0  0
   10.6841  -18.8297   26.6836 O   0  0  0  0  0  0  0  0  0  0  0  0
  2  1  1  1
  3  2  1  0
  4  2  1  0
  4  6  1  0
  4  5  1  6
  6  7  2  0
  9  8  1  0
  9 10  1  0
 10 11  1  0
 12 11  1  1
 13 12  1  0
 13  6  1  0
 14 12  1  0
 14 15  2  0
 17 16  1  6
 17 19  1  0
 18 17  1  0
 19 20  1  6
 19 21  1  0
 20 14  1  0
 21 22  1  0
 23 21  2  0
M  END
$$$$
