TMT.pdb
     RDKit          3D

 23 22  0  0  1  0  0  0  0  0999 V2000
    7.0259  -17.0154   19.0572 C   0  0  0  0  0  0  0  0  0  0  0  0
    7.5404  -16.8187   20.4671 C   0  0  1  0  0  0  0  0  0  0  0  0
    8.3987  -17.8784   20.7589 O   0  0  0  0  0  0  0  0  0  0  0  0
    8.2710  -15.4988   20.5729 C   0  0  2  0  0  0  0  0  0  0  0  0
    9.3349  -15.3943   19.6056 N   0  0  0  0  0  0  0  0  0  0  0  0
    8.7074  -15.2137   21.9567 C   0  0  0  0  0  0  0  0  0  0  0  0
    9.8984  -15.3663   22.2520 O   0  0  0  0  0  0  0  0  0  0  0  0
    6.2052  -10.9684   26.3397 C   0  0  0  0  0  0  0  0  0  0  0  0
    6.6677  -12.3189   27.4865 S   0  0  0  0  0  0  0  0  0  0  0  0
    7.7161  -13.4372   26.5635 C   0  0  0  0  0  0  0  0  0  0  0  0
    7.3874  -13.6325   25.1439 C   0  0  0  0  0  0  0  0  0  0  0  0
    8.2225  -14.5543   24.3411 C   0  0  2  0  0  0  0  0  0  0  0  0
    7.8017  -14.7640   22.9795 N   0  0  0  0  0  0  0  0  0  0  0  0
    8.3942  -15.8803   25.0078 C   0  0  0  0  0  0  0  0  0  0  0  0
    7.4282  -16.6597   25.2061 O   0  0  0  0  0  0  0  0  0  0  0  0
   10.5642  -18.6438   23.8331 C   0  0  0  0  0  0  0  0  0  0  0  0
   11.0020  -18.3071   25.2394 C   0  0  1  0  0  0  0  0  0  0  0  0
   12.1394  -17.5313   25.2236 O   0  0  0  0  0  0  0  0  0  0  0  0
    9.8952  -17.6340   26.0230 C   0  0  2  0  0  0  0  0  0  0  0  0
    9.6714  -16.3095   25.4453 N   0  0  0  0  0  0  0  0  0  0  0  0
   10.3395  -17.4090   27.4241 C   0  0  0  0  0  0  0  0  0  0  0  0
   10.5354  -18.4397   28.3343 O   0  0  0  0  0  0  0  0  0  0  0  0
   10.5559  -16.2380   27.8317 O   0  0  0  0  0  0  0  0  0  0  0  0
  2  1  1  6
  3  2  1  0
  4  2  1  0
  4  6  1  0
  4  5  1  6
  6  7  2  0
  9  8  1  0
  9 10  1  0
 10 11  1  0
 12 11  1  1
 13 12  1  0
 13  6  1  0
 14 12  1  0
 14 15  2  0
 17 16  1  6
 17 19  1  0
 18 17  1  0
 19 20  1  6
 19 21  1  0
 20 14  1  0
 21 22  1  0
 23 21  2  0
M  END
$$$$
