RNR.pdb
     RDKit          3D

 31 30  0  0  1  0  0  0  0  0999 V2000
   22.1507  -24.4535  -13.5621 N   0  0  0  0  0  0  0  0  0  0  0  0
   21.2171  -25.5291  -13.6725 C   0  0  0  0  0  0  0  0  0  0  0  0
   21.6377  -26.6262  -14.2388 N   0  0  0  0  0  0  0  0  0  0  0  0
   19.8976  -25.4500  -13.2108 N   0  0  0  0  0  0  0  0  0  0  0  0
   19.4382  -24.3489  -12.4031 C   0  0  0  0  0  0  0  0  0  0  0  0
   18.3718  -24.8358  -11.4543 C   0  0  0  0  0  0  0  0  0  0  0  0
   18.8950  -24.8458  -10.0314 C   0  0  0  0  0  0  0  0  0  0  0  0
   19.2637  -26.2180   -9.5696 C   0  0  2  0  0  0  0  0  0  0  0  0
   19.3483  -27.1724  -10.6594 N   0  0  0  0  0  0  0  0  0  0  0  0
   18.2331  -26.6378   -8.5707 C   0  0  0  0  0  0  0  0  0  0  0  0
   17.0298  -26.4147   -8.8398 O   0  0  0  0  0  0  0  0  0  0  0  0
   20.9930  -27.4403  -14.3876 N   0  0  0  0  0  0  0  0  0  0  0  0
   18.3982  -30.8935   -7.6543 C   0  0  0  0  0  0  0  0  0  0  0  0
   17.4408  -30.0547   -7.0181 O   0  0  0  0  0  0  0  0  0  0  0  0
   16.2211  -30.1385   -7.3447 C   0  0  0  0  0  0  0  0  0  0  0  0
   17.8805  -29.0882   -5.9729 C   0  0  2  0  0  0  0  0  0  0  0  0
   17.5168  -27.6547   -6.4078 N   0  0  0  0  0  0  0  0  0  0  0  0
   18.5569  -27.2679   -7.3502 C   0  0  0  0  0  0  0  0  0  0  0  0
   17.4983  -26.8190   -5.2127 O   0  0  0  0  0  0  0  0  0  0  0  0
   18.5827  -26.5768   -4.6072 N   0  0  0  0  0  0  0  0  0  0  0  0
   12.2292  -21.0017   -3.7400 C   0  0  0  0  0  0  0  0  0  0  0  0
   12.0392  -21.7469   -2.5499 N   0  0  0  0  0  0  0  0  0  0  0  0
   11.0561  -21.4728   -1.7333 N   0  0  0  0  0  0  0  0  0  0  0  0
   12.8959  -22.8155   -2.1897 C   0  0  0  0  0  0  0  0  0  0  0  0
   14.3321  -22.7395   -2.3681 C   0  0  0  0  0  0  0  0  0  0  0  0
   14.8439  -24.1353   -1.9718 C   0  0  0  0  0  0  0  0  0  0  0  0
   14.9357  -24.9310   -3.2332 C   0  0  1  0  0  0  0  0  0  0  0  0
   16.3408  -25.4277   -3.4659 N   0  0  0  0  0  0  0  0  0  0  0  0
   16.3118  -26.2533   -4.6835 C   0  0  0  0  0  0  0  0  0  0  0  0
   16.6997  -26.2854   -2.3067 O   0  0  0  0  0  0  0  0  0  0  0  0
   17.3721  -25.7244   -1.2045 O   0  0  0  0  0  0  0  0  0  0  0  0
  1  2  1  0
  2  4  1  0
  2  3  2  0
  4  5  1  0
  6  7  1  0
  6  5  1  0
  8  9  1  6
  8  7  1  0
 10  8  1  0
 10 11  2  0
 13 15  1  0
 13 12  1  0
 14 13  2  0
 16 15  1  6
 16 18  1  0
 16 17  1  0
 17 10  1  0
 18 19  2  0
 20 21  1  0
 21 22  2  0
 23 21  1  0
 23 24  1  0
 24 25  1  0
 26 25  1  0
 27 26  1  6
 28 27  1  0
 28 18  1  0
 29 27  1  0
 30 29  1  0
 31 29  2  0
M  END
$$$$
