RNR.pdb
     RDKit          3D

 31 30  0  0  1  0  0  0  0  0999 V2000
   26.0674  -24.5335  -15.4485 N   0  0  0  0  0  0  0  0  0  0  0  0
   24.9796  -23.9786  -16.1897 C   0  0  0  0  0  0  0  0  0  0  0  0
   25.2238  -23.6054  -17.4154 N   0  0  0  0  0  0  0  0  0  0  0  0
   23.6930  -23.8197  -15.6607 N   0  0  0  0  0  0  0  0  0  0  0  0
   23.3143  -24.3925  -14.3941 C   0  0  0  0  0  0  0  0  0  0  0  0
   22.5205  -25.6524  -14.6327 C   0  0  0  0  0  0  0  0  0  0  0  0
   22.0665  -26.2485  -13.3147 C   0  0  0  0  0  0  0  0  0  0  0  0
   21.2097  -27.4581  -13.5015 C   0  0  2  0  0  0  0  0  0  0  0  0
   20.8190  -27.6603  -14.8843 N   0  0  0  0  0  0  0  0  0  0  0  0
   20.0090  -27.2860  -12.6269 C   0  0  0  0  0  0  0  0  0  0  0  0
   19.0569  -26.5997  -13.0656 O   0  0  0  0  0  0  0  0  0  0  0  0
   24.4665  -23.2041  -18.0203 N   0  0  0  0  0  0  0  0  0  0  0  0
   15.8363  -28.5299   -9.5038 C   0  0  0  0  0  0  0  0  0  0  0  0
   17.1561  -28.7368   -9.0134 O   0  0  0  0  0  0  0  0  0  0  0  0
   17.3633  -28.7560   -7.7652 C   0  0  0  0  0  0  0  0  0  0  0  0
   18.2807  -28.9314   -9.9712 C   0  0  1  0  0  0  0  0  0  0  0  0
   18.7722  -27.5608  -10.4775 N   0  0  0  0  0  0  0  0  0  0  0  0
   19.9056  -27.8588  -11.3413 C   0  0  0  0  0  0  0  0  0  0  0  0
   19.1432  -26.7642   -9.3135 O   0  0  0  0  0  0  0  0  0  0  0  0
   20.2704  -26.9478   -8.7687 N   0  0  0  0  0  0  0  0  0  0  0  0
   13.9248  -21.3986  -10.1603 C   0  0  0  0  0  0  0  0  0  0  0  0
   13.7112  -21.7471   -8.8035 N   0  0  0  0  0  0  0  0  0  0  0  0
   12.6639  -21.3126   -8.1532 N   0  0  0  0  0  0  0  0  0  0  0  0
   14.6125  -22.5757   -8.0916 C   0  0  0  0  0  0  0  0  0  0  0  0
   15.7872  -23.1466   -8.7195 C   0  0  0  0  0  0  0  0  0  0  0  0
   16.4928  -23.9158   -7.5890 C   0  0  0  0  0  0  0  0  0  0  0  0
   17.9540  -23.6367   -7.7291 C   0  0  1  0  0  0  0  0  0  0  0  0
   18.7631  -24.9077   -7.6595 N   0  0  0  0  0  0  0  0  0  0  0  0
   18.2958  -25.7784   -8.7497 C   0  0  0  0  0  0  0  0  0  0  0  0
   18.4538  -25.5529   -6.3570 O   0  0  0  0  0  0  0  0  0  0  0  0
   19.1234  -25.1319   -5.1926 O   0  0  0  0  0  0  0  0  0  0  0  0
  1  2  1  0
  2  4  1  0
  2  3  2  0
  4  5  1  0
  6  7  1  0
  6  5  1  0
  8  9  1  6
  8  7  1  0
 10  8  1  0
 10 11  2  0
 13 15  1  0
 13 12  1  0
 14 13  2  0
 16 15  1  6
 16 18  1  0
 16 17  1  0
 17 10  1  0
 18 19  2  0
 20 21  1  0
 21 22  2  0
 23 21  1  0
 23 24  1  0
 24 25  1  0
 26 25  1  0
 27 26  1  6
 28 27  1  0
 28 18  1  0
 29 27  1  0
 30 29  1  0
 31 29  2  0
M  END
$$$$
