RNR.pdb
     RDKit          3D

 31 30  0  0  1  0  0  0  0  0999 V2000
   26.2321  -17.0681  -19.6304 N   0  0  0  0  0  0  0  0  0  0  0  0
   27.3118  -17.9639  -19.3611 C   0  0  0  0  0  0  0  0  0  0  0  0
   28.2237  -18.0913  -20.2849 N   0  0  0  0  0  0  0  0  0  0  0  0
   27.4226  -18.6963  -18.1729 N   0  0  0  0  0  0  0  0  0  0  0  0
   26.3335  -18.7949  -17.2348 C   0  0  0  0  0  0  0  0  0  0  0  0
   25.4201  -19.9223  -17.6462 C   0  0  0  0  0  0  0  0  0  0  0  0
   24.2958  -20.0847  -16.6421 C   0  0  0  0  0  0  0  0  0  0  0  0
   24.7854  -20.5457  -15.3081 C   0  0  2  0  0  0  0  0  0  0  0  0
   25.7280  -21.6447  -15.4060 N   0  0  0  0  0  0  0  0  0  0  0  0
   23.5837  -20.9420  -14.5113 C   0  0  0  0  0  0  0  0  0  0  0  0
   23.2185  -22.1399  -14.5564 O   0  0  0  0  0  0  0  0  0  0  0  0
   29.0250  -18.7580  -20.1665 N   0  0  0  0  0  0  0  0  0  0  0  0
   19.7826  -21.0787  -11.1109 C   0  0  0  0  0  0  0  0  0  0  0  0
   20.4395  -19.8318  -10.9146 O   0  0  0  0  0  0  0  0  0  0  0  0
   20.1172  -19.1033   -9.9313 C   0  0  0  0  0  0  0  0  0  0  0  0
   21.5013  -19.3958  -11.8645 C   0  0  2  0  0  0  0  0  0  0  0  0
   21.6915  -20.4681  -12.9557 N   0  0  0  0  0  0  0  0  0  0  0  0
   22.8517  -20.0319  -13.7192 C   0  0  0  0  0  0  0  0  0  0  0  0
   20.4723  -20.5095  -13.7550 O   0  0  0  0  0  0  0  0  0  0  0  0
   20.2778  -19.6240  -14.6378 N   0  0  0  0  0  0  0  0  0  0  0  0
   14.7969  -25.9836  -12.0163 C   0  0  0  0  0  0  0  0  0  0  0  0
   14.3766  -24.6716  -12.3475 N   0  0  0  0  0  0  0  0  0  0  0  0
   13.2458  -24.1931  -11.8994 N   0  0  0  0  0  0  0  0  0  0  0  0
   15.1534  -23.8213  -13.1719 C   0  0  0  0  0  0  0  0  0  0  0  0
   15.5952  -24.2278  -14.4909 C   0  0  0  0  0  0  0  0  0  0  0  0
   16.3685  -23.0117  -15.0298 C   0  0  0  0  0  0  0  0  0  0  0  0
   17.5142  -22.7862  -14.0976 C   0  0  2  0  0  0  0  0  0  0  0  0
   18.3283  -21.5857  -14.5113 N   0  0  0  0  0  0  0  0  0  0  0  0
   19.4765  -21.5047  -13.5948 C   0  0  0  0  0  0  0  0  0  0  0  0
   17.4699  -20.3877  -14.3205 O   0  0  0  0  0  0  0  0  0  0  0  0
   16.7265  -19.8816  -15.4034 O   0  0  0  0  0  0  0  0  0  0  0  0
  1  2  1  0
  2  4  1  0
  2  3  2  0
  4  5  1  0
  6  7  1  0
  6  5  1  0
  8  9  1  6
  8  7  1  0
 10  8  1  0
 10 11  2  0
 13 15  1  0
 13 12  1  0
 14 13  2  0
 16 15  1  1
 16 18  1  0
 16 17  1  0
 17 10  1  0
 18 19  2  0
 20 21  1  0
 21 22  2  0
 23 21  1  0
 23 24  1  0
 24 25  1  0
 26 25  1  0
 27 26  1  6
 28 27  1  0
 28 18  1  0
 29 27  1  0
 30 29  1  0
 31 29  2  0
M  END
$$$$
