RNR.pdb
     RDKit          3D

 31 30  0  0  1  0  0  0  0  0999 V2000
   31.3629  -21.6819   -9.6440 N   0  0  0  0  0  0  0  0  0  0  0  0
   31.5522  -22.3915  -10.8694 C   0  0  0  0  0  0  0  0  0  0  0  0
   32.7035  -22.9787  -11.0451 N   0  0  0  0  0  0  0  0  0  0  0  0
   30.5732  -22.4741  -11.8669 N   0  0  0  0  0  0  0  0  0  0  0  0
   29.2342  -21.9829  -11.6624 C   0  0  0  0  0  0  0  0  0  0  0  0
   29.1831  -20.5145  -12.0024 C   0  0  0  0  0  0  0  0  0  0  0  0
   27.7736  -20.1099  -12.3870 C   0  0  0  0  0  0  0  0  0  0  0  0
   26.8248  -21.2638  -12.3700 C   0  0  2  0  0  0  0  0  0  0  0  0
   26.9449  -22.1056  -13.5458 N   0  0  0  0  0  0  0  0  0  0  0  0
   25.4454  -20.6975  -12.2571 C   0  0  0  0  0  0  0  0  0  0  0  0
   25.2087  -19.9129  -11.3092 O   0  0  0  0  0  0  0  0  0  0  0  0
   32.9197  -23.4913  -11.9345 N   0  0  0  0  0  0  0  0  0  0  0  0
   20.7204  -19.0829  -13.0127 C   0  0  0  0  0  0  0  0  0  0  0  0
   21.4475  -19.0553  -14.2356 O   0  0  0  0  0  0  0  0  0  0  0  0
   20.9861  -18.4121  -15.2229 C   0  0  0  0  0  0  0  0  0  0  0  0
   22.7449  -19.7801  -14.3430 C   0  0  2  0  0  0  0  0  0  0  0  0
   23.0748  -20.4529  -12.9957 N   0  0  0  0  0  0  0  0  0  0  0  0
   24.4102  -21.0075  -13.1648 C   0  0  0  0  0  0  0  0  0  0  0  0
   22.0649  -21.4762  -12.7513 O   0  0  0  0  0  0  0  0  0  0  0  0
   22.0827  -22.5421  -13.4331 N   0  0  0  0  0  0  0  0  0  0  0  0
   18.5027  -24.9507   -6.0212 C   0  0  0  0  0  0  0  0  0  0  0  0
   17.8662  -25.4281   -7.1936 N   0  0  0  0  0  0  0  0  0  0  0  0
   17.3845  -26.6419   -7.2520 N   0  0  0  0  0  0  0  0  0  0  0  0
   17.7207  -24.6220   -8.3489 C   0  0  0  0  0  0  0  0  0  0  0  0
   18.8323  -23.8812   -8.9110 C   0  0  0  0  0  0  0  0  0  0  0  0
   18.2032  -23.0326  -10.0297 C   0  0  0  0  0  0  0  0  0  0  0  0
   19.2041  -21.9807  -10.3827 C   0  0  2  0  0  0  0  0  0  0  0  0
   20.0812  -22.4221  -11.5276 N   0  0  0  0  0  0  0  0  0  0  0  0
   21.0474  -21.3402  -11.7745 C   0  0  0  0  0  0  0  0  0  0  0  0
   19.2049  -22.5710  -12.7184 O   0  0  0  0  0  0  0  0  0  0  0  0
   18.8678  -23.8570  -13.1811 O   0  0  0  0  0  0  0  0  0  0  0  0
  1  2  1  0
  2  4  1  0
  2  3  2  0
  4  5  1  0
  6  7  1  0
  6  5  1  0
  8  9  1  6
  8  7  1  0
 10  8  1  0
 10 11  2  0
 13 15  1  0
 13 12  1  0
 14 13  2  0
 16 15  1  1
 16 18  1  0
 16 17  1  0
 17 10  1  0
 18 19  2  0
 20 21  1  0
 21 22  2  0
 23 21  1  0
 23 24  1  0
 24 25  1  0
 26 25  1  0
 27 26  1  1
 28 27  1  0
 28 18  1  0
 29 27  1  0
 30 29  1  0
 31 29  2  0
M  END
$$$$
