RNR.pdb
     RDKit          3D

 31 30  0  0  1  0  0  0  0  0999 V2000
   29.8611  -22.6166  -17.1946 N   0  0  0  0  0  0  0  0  0  0  0  0
   29.6661  -21.8141  -18.3602 C   0  0  0  0  0  0  0  0  0  0  0  0
   29.7728  -22.4084  -19.5163 N   0  0  0  0  0  0  0  0  0  0  0  0
   29.3765  -20.4452  -18.3093 N   0  0  0  0  0  0  0  0  0  0  0  0
   28.6615  -19.8586  -17.2044 C   0  0  0  0  0  0  0  0  0  0  0  0
   27.2273  -20.3241  -17.2336 C   0  0  0  0  0  0  0  0  0  0  0  0
   26.5353  -19.9859  -15.9278 C   0  0  0  0  0  0  0  0  0  0  0  0
   26.9859  -20.8580  -14.8015 C   0  0  2  0  0  0  0  0  0  0  0  0
   27.6788  -22.0488  -15.2572 N   0  0  0  0  0  0  0  0  0  0  0  0
   25.7693  -21.2179  -14.0100 C   0  0  0  0  0  0  0  0  0  0  0  0
   24.9744  -22.0523  -14.5021 O   0  0  0  0  0  0  0  0  0  0  0  0
   29.7794  -21.8581  -20.4095 N   0  0  0  0  0  0  0  0  0  0  0  0
   26.2493  -22.1628  -10.4952 C   0  0  0  0  0  0  0  0  0  0  0  0
   25.5731  -21.0616   -9.8992 O   0  0  0  0  0  0  0  0  0  0  0  0
   25.9396  -20.6441   -8.7622 C   0  0  0  0  0  0  0  0  0  0  0  0
   24.4432  -20.4085  -10.6181 C   0  0  2  0  0  0  0  0  0  0  0  0
   24.2825  -21.0426  -12.0140 N   0  0  0  0  0  0  0  0  0  0  0  0
   25.4828  -20.6621  -12.7448 C   0  0  0  0  0  0  0  0  0  0  0  0
   23.0646  -20.5043  -12.6089 O   0  0  0  0  0  0  0  0  0  0  0  0
   23.0650  -19.3238  -13.0645 N   0  0  0  0  0  0  0  0  0  0  0  0
   15.9175  -20.7966  -16.1873 C   0  0  0  0  0  0  0  0  0  0  0  0
   16.7556  -21.7255  -16.8524 N   0  0  0  0  0  0  0  0  0  0  0  0
   16.7589  -21.8165  -18.1564 N   0  0  0  0  0  0  0  0  0  0  0  0
   17.6233  -22.5928  -16.1447 C   0  0  0  0  0  0  0  0  0  0  0  0
   17.6807  -22.6047  -14.6967 C   0  0  0  0  0  0  0  0  0  0  0  0
   18.4935  -21.3498  -14.3331 C   0  0  0  0  0  0  0  0  0  0  0  0
   19.7814  -21.8296  -13.7469 C   0  0  1  0  0  0  0  0  0  0  0  0
   20.6688  -20.6742  -13.3559 N   0  0  0  0  0  0  0  0  0  0  0  0
   21.8599  -21.2439  -12.7067 C   0  0  0  0  0  0  0  0  0  0  0  0
   19.9178  -19.8614  -12.3642 O   0  0  0  0  0  0  0  0  0  0  0  0
   19.0846  -18.8161  -12.8054 O   0  0  0  0  0  0  0  0  0  0  0  0
  1  2  1  0
  2  4  1  0
  2  3  2  0
  4  5  1  0
  6  7  1  0
  6  5  1  0
  8  9  1  6
  8  7  1  0
 10  8  1  0
 10 11  2  0
 13 15  1  0
 13 12  1  0
 14 13  2  0
 16 15  1  1
 16 18  1  0
 16 17  1  0
 17 10  1  0
 18 19  2  0
 20 21  1  0
 21 22  2  0
 23 21  1  0
 23 24  1  0
 24 25  1  0
 26 25  1  0
 27 26  1  6
 28 27  1  0
 28 18  1  0
 29 27  1  0
 30 29  1  0
 31 29  2  0
M  END
$$$$
