RNR.pdb
     RDKit          3D

 31 30  0  0  1  0  0  0  0  0999 V2000
   24.2248  -26.3439  -15.3752 N   0  0  0  0  0  0  0  0  0  0  0  0
   25.3702  -25.5112  -15.5637 C   0  0  0  0  0  0  0  0  0  0  0  0
   26.1664  -25.8098  -16.5526 N   0  0  0  0  0  0  0  0  0  0  0  0
   25.6655  -24.4157  -14.7433 N   0  0  0  0  0  0  0  0  0  0  0  0
   25.4652  -23.0586  -15.1838 C   0  0  0  0  0  0  0  0  0  0  0  0
   25.7417  -22.1157  -14.0396 C   0  0  0  0  0  0  0  0  0  0  0  0
   24.9911  -20.8131  -14.2351 C   0  0  0  0  0  0  0  0  0  0  0  0
   23.7234  -20.9958  -15.0043 C   0  0  2  0  0  0  0  0  0  0  0  0
   23.5997  -20.0647  -16.1104 N   0  0  0  0  0  0  0  0  0  0  0  0
   22.5945  -20.8300  -14.0378 C   0  0  0  0  0  0  0  0  0  0  0  0
   22.7856  -20.1103  -13.0300 O   0  0  0  0  0  0  0  0  0  0  0  0
   27.0266  -25.2411  -16.7459 N   0  0  0  0  0  0  0  0  0  0  0  0
   20.4271  -18.6693  -14.0549 C   0  0  0  0  0  0  0  0  0  0  0  0
   19.2085  -19.3366  -14.3625 O   0  0  0  0  0  0  0  0  0  0  0  0
   18.2641  -18.6941  -14.9073 C   0  0  0  0  0  0  0  0  0  0  0  0
   19.0551  -20.7840  -14.0440 C   0  0  2  0  0  0  0  0  0  0  0  0
   20.2737  -21.2672  -13.2328 N   0  0  0  0  0  0  0  0  0  0  0  0
   21.3362  -21.4446  -14.2122 C   0  0  0  0  0  0  0  0  0  0  0  0
   19.9016  -22.5126  -12.5714 O   0  0  0  0  0  0  0  0  0  0  0  0
   20.1519  -23.6159  -13.1381 N   0  0  0  0  0  0  0  0  0  0  0  0
   18.5143  -25.5946   -4.7762 C   0  0  0  0  0  0  0  0  0  0  0  0
   17.8168  -26.3960   -5.7138 N   0  0  0  0  0  0  0  0  0  0  0  0
   17.5868  -27.6612   -5.4794 N   0  0  0  0  0  0  0  0  0  0  0  0
   17.3383  -25.8714   -6.9392 C   0  0  0  0  0  0  0  0  0  0  0  0
   18.2184  -25.2229   -7.8906 C   0  0  0  0  0  0  0  0  0  0  0  0
   17.2850  -24.7505   -9.0188 C   0  0  0  0  0  0  0  0  0  0  0  0
   17.8945  -23.5101   -9.5868 C   0  0  1  0  0  0  0  0  0  0  0  0
   18.8526  -23.8340  -10.7058 N   0  0  0  0  0  0  0  0  0  0  0  0
   19.2643  -22.5555  -11.3066 C   0  0  0  0  0  0  0  0  0  0  0  0
   18.0978  -24.6229  -11.7139 O   0  0  0  0  0  0  0  0  0  0  0  0
   18.2691  -26.0186  -11.7793 O   0  0  0  0  0  0  0  0  0  0  0  0
  1  2  1  0
  2  4  1  0
  2  3  2  0
  4  5  1  0
  6  7  1  0
  6  5  1  0
  8  9  1  6
  8  7  1  0
 10  8  1  0
 10 11  2  0
 13 15  1  0
 13 12  1  0
 14 13  2  0
 16 15  1  1
 16 18  1  0
 16 17  1  0
 17 10  1  0
 18 19  2  0
 20 21  1  0
 21 22  2  0
 23 21  1  0
 23 24  1  0
 24 25  1  0
 26 25  1  0
 27 26  1  1
 28 27  1  0
 28 18  1  0
 29 27  1  0
 30 29  1  0
 31 29  2  0
M  END
$$$$
