RNR.pdb
     RDKit          3D

 31 30  0  0  1  0  0  0  0  0999 V2000
   29.9033  -22.2950  -12.7570 N   0  0  0  0  0  0  0  0  0  0  0  0
   29.6680  -21.2230  -11.8426 C   0  0  0  0  0  0  0  0  0  0  0  0
   30.6344  -20.3639  -11.6717 N   0  0  0  0  0  0  0  0  0  0  0  0
   28.4692  -21.0665  -11.1363 N   0  0  0  0  0  0  0  0  0  0  0  0
   27.4495  -22.0844  -11.1319 C   0  0  0  0  0  0  0  0  0  0  0  0
   26.5384  -21.8844  -12.3170 C   0  0  0  0  0  0  0  0  0  0  0  0
   25.0985  -21.7551  -11.8606 C   0  0  0  0  0  0  0  0  0  0  0  0
   24.7902  -20.3946  -11.3258 C   0  0  2  0  0  0  0  0  0  0  0  0
   24.2901  -20.4277   -9.9640 N   0  0  0  0  0  0  0  0  0  0  0  0
   23.7886  -19.7760  -12.2478 C   0  0  0  0  0  0  0  0  0  0  0  0
   22.5735  -19.9304  -11.9833 O   0  0  0  0  0  0  0  0  0  0  0  0
   30.5185  -19.5382  -11.0349 N   0  0  0  0  0  0  0  0  0  0  0  0
   23.4186  -16.3913  -17.4354 C   0  0  0  0  0  0  0  0  0  0  0  0
   22.9791  -16.8813  -16.1737 O   0  0  0  0  0  0  0  0  0  0  0  0
   21.7824  -16.6880  -15.8105 C   0  0  0  0  0  0  0  0  0  0  0  0
   23.9283  -17.6188  -15.2934 C   0  0  2  0  0  0  0  0  0  0  0  0
   23.1394  -18.4242  -14.2419 N   0  0  0  0  0  0  0  0  0  0  0  0
   24.1519  -19.0335  -13.3916 C   0  0  0  0  0  0  0  0  0  0  0  0
   22.3307  -19.4088  -14.9515 O   0  0  0  0  0  0  0  0  0  0  0  0
   22.8389  -20.5269  -15.2560 N   0  0  0  0  0  0  0  0  0  0  0  0
   17.9160  -23.2305  -11.0419 C   0  0  0  0  0  0  0  0  0  0  0  0
   17.7642  -24.1754  -12.0867 N   0  0  0  0  0  0  0  0  0  0  0  0
   16.7379  -24.9843  -12.1195 N   0  0  0  0  0  0  0  0  0  0  0  0
   18.7069  -24.2892  -13.1375 C   0  0  0  0  0  0  0  0  0  0  0  0
   19.8080  -23.3583  -13.2828 C   0  0  0  0  0  0  0  0  0  0  0  0
   19.3119  -22.3333  -14.3175 C   0  0  0  0  0  0  0  0  0  0  0  0
   20.4386  -21.3796  -14.5489 C   0  0  1  0  0  0  0  0  0  0  0  0
   20.0473  -20.2960  -15.5224 N   0  0  0  0  0  0  0  0  0  0  0  0
   20.9833  -19.1781  -15.3246 C   0  0  0  0  0  0  0  0  0  0  0  0
   18.6773  -19.8521  -15.1559 O   0  0  0  0  0  0  0  0  0  0  0  0
   17.5695  -20.6501  -15.4987 O   0  0  0  0  0  0  0  0  0  0  0  0
  1  2  1  0
  2  4  1  0
  2  3  2  0
  4  5  1  0
  6  7  1  0
  6  5  1  0
  8  9  1  1
  8  7  1  0
 10  8  1  0
 10 11  2  0
 13 15  1  0
 13 12  1  0
 14 13  2  0
 16 15  1  1
 16 18  1  0
 16 17  1  0
 17 10  1  0
 18 19  2  0
 20 21  1  0
 21 22  2  0
 23 21  1  0
 23 24  1  0
 24 25  1  0
 26 25  1  0
 27 26  1  6
 28 27  1  0
 28 18  1  0
 29 27  1  0
 30 29  1  0
 31 29  2  0
M  END
$$$$
