HLY.pdb
     RDKit          3D

 31 32  0  0  1  0  0  0  0  0999 V2000
   26.0299  -20.8963  -20.2120 N   0  0  0  0  0  0  0  0  0  0  0  0
   25.2145  -19.9693  -19.4536 C   0  0  1  0  0  0  0  0  0  0  0  0
   23.9009  -19.8021  -20.1790 C   0  0  0  0  0  0  0  0  0  0  0  0
   24.1775  -18.9922  -21.3983 C   0  0  0  0  0  0  0  0  0  0  0  0
   24.1814  -19.4470  -22.7004 C   0  0  0  0  0  0  0  0  0  0  0  0
   24.4789  -18.3975  -23.5194 N   0  0  0  0  0  0  0  0  0  0  0  0
   24.6561  -17.3145  -22.7455 C   0  0  0  0  0  0  0  0  0  0  0  0
   24.4736  -17.6817  -21.4801 N   0  0  0  0  0  0  0  0  0  0  0  0
   25.0543  -20.4639  -18.0756 C   0  0  0  0  0  0  0  0  0  0  0  0
   24.7027  -21.6369  -17.8801 O   0  0  0  0  0  0  0  0  0  0  0  0
   28.6778  -19.2789  -14.1251 C   0  0  0  0  0  0  0  0  0  0  0  0
   27.6562  -19.9317  -15.0282 C   0  0  1  0  0  0  0  0  0  0  0  0
   27.8266  -21.3983  -15.1843 C   0  0  0  0  0  0  0  0  0  0  0  0
   26.2383  -19.5863  -14.6755 C   0  0  0  0  0  0  0  0  0  0  0  0
   25.2104  -20.1078  -15.5965 C   0  0  2  0  0  0  0  0  0  0  0  0
   25.2948  -19.6220  -16.9425 N   0  0  0  0  0  0  0  0  0  0  0  0
   23.8174  -19.9168  -15.1119 C   0  0  0  0  0  0  0  0  0  0  0  0
   23.4212  -18.7479  -14.9213 O   0  0  0  0  0  0  0  0  0  0  0  0
   15.4637  -21.8624  -12.9043 O   0  0  0  0  0  0  0  0  0  0  0  0
   16.7860  -21.9143  -13.3016 C   0  0  0  0  0  0  0  0  0  0  0  0
   17.1190  -21.4697  -14.5596 C   0  0  0  0  0  0  0  0  0  0  0  0
   18.4188  -21.5004  -15.0016 C   0  0  0  0  0  0  0  0  0  0  0  0
   19.4116  -21.9882  -14.1645 C   0  0  0  0  0  0  0  0  0  0  0  0
   20.8057  -22.0116  -14.6620 C   0  0  0  0  0  0  0  0  0  0  0  0
   21.5831  -20.7958  -14.2829 C   0  0  2  0  0  0  0  0  0  0  0  0
   22.9209  -20.9591  -14.8550 N   0  0  0  0  0  0  0  0  0  0  0  0
   21.6178  -20.4740  -12.8628 C   0  0  0  0  0  0  0  0  0  0  0  0
   20.7372  -19.5430  -12.3376 O   0  0  0  0  0  0  0  0  0  0  0  0
   19.0614  -22.4304  -12.9058 C   0  0  0  0  0  0  0  0  0  0  0  0
   17.7652  -22.4070  -12.4467 C   0  0  0  0  0  0  0  0  0  0  0  0
   22.4281  -21.0078  -12.0524 O   0  0  0  0  0  0  0  0  0  0  0  0
  2  3  1  0
  2  1  1  6
  3  4  1  0
  4  5  2  0
  5  6  1  0
  7  6  1  0
  8  4  1  0
  8  7  2  0
  9 16  1  0
  9  2  1  0
 10  9  2  0
 12 11  1  1
 12 13  1  0
 12 14  1  0
 15 14  1  1
 15 16  1  0
 17 18  2  0
 17 15  1  0
 19 20  1  0
 20 21  2  0
 21 22  1  0
 23 24  1  0
 23 22  2  0
 25 26  1  0
 25 24  1  1
 26 17  1  0
 27 25  1  0
 28 27  1  0
 29 23  1  0
 30 29  2  0
 30 20  1  0
 31 27  2  0
M  END
$$$$
