HLY.pdb
     RDKit          3D

 31 32  0  0  1  0  0  0  0  0999 V2000
   12.1741  -22.9653   -4.2931 N   0  0  0  0  0  0  0  0  0  0  0  0
   12.9096  -22.2298   -3.2844 C   0  0  1  0  0  0  0  0  0  0  0  0
   12.0237  -21.1159   -2.7803 C   0  0  0  0  0  0  0  0  0  0  0  0
   11.8338  -20.1657   -3.9117 C   0  0  0  0  0  0  0  0  0  0  0  0
   12.8026  -19.3660   -4.4814 C   0  0  0  0  0  0  0  0  0  0  0  0
   12.2262  -18.6454   -5.4860 N   0  0  0  0  0  0  0  0  0  0  0  0
   10.9290  -18.9881   -5.5407 C   0  0  0  0  0  0  0  0  0  0  0  0
   10.7059  -19.8971   -4.5955 N   0  0  0  0  0  0  0  0  0  0  0  0
   13.3433  -23.1497   -2.2190 C   0  0  0  0  0  0  0  0  0  0  0  0
   12.5265  -23.9336   -1.7131 O   0  0  0  0  0  0  0  0  0  0  0  0
   17.0862  -26.6878   -2.6890 C   0  0  0  0  0  0  0  0  0  0  0  0
   15.8923  -25.8896   -2.2171 C   0  0  1  0  0  0  0  0  0  0  0  0
   14.6788  -26.7030   -1.9528 C   0  0  0  0  0  0  0  0  0  0  0  0
   16.1983  -24.9829   -1.0600 C   0  0  0  0  0  0  0  0  0  0  0  0
   15.1254  -24.0392   -0.6926 C   0  0  2  0  0  0  0  0  0  0  0  0
   14.6943  -23.1663   -1.7446 N   0  0  0  0  0  0  0  0  0  0  0  0
   15.4343  -23.2165    0.5072 C   0  0  0  0  0  0  0  0  0  0  0  0
   15.8637  -23.8036    1.5223 O   0  0  0  0  0  0  0  0  0  0  0  0
   16.6571  -16.0155    5.5288 O   0  0  0  0  0  0  0  0  0  0  0  0
   16.5231  -16.9314    4.5030 C   0  0  0  0  0  0  0  0  0  0  0  0
   15.3532  -16.9521    3.7803 C   0  0  0  0  0  0  0  0  0  0  0  0
   15.1710  -17.8430    2.7514 C   0  0  0  0  0  0  0  0  0  0  0  0
   16.1843  -18.7365    2.4364 C   0  0  0  0  0  0  0  0  0  0  0  0
   15.9659  -19.6876    1.3232 C   0  0  0  0  0  0  0  0  0  0  0  0
   15.4675  -21.0181    1.7792 C   0  0  2  0  0  0  0  0  0  0  0  0
   15.2761  -21.8285    0.5749 N   0  0  0  0  0  0  0  0  0  0  0  0
   14.2894  -21.0023    2.6355 C   0  0  0  0  0  0  0  0  0  0  0  0
   13.0362  -21.2513    2.1012 O   0  0  0  0  0  0  0  0  0  0  0  0
   17.3515  -18.7031    3.1706 C   0  0  0  0  0  0  0  0  0  0  0  0
   17.5512  -17.8179    4.2041 C   0  0  0  0  0  0  0  0  0  0  0  0
   14.3399  -20.7672    3.8767 O   0  0  0  0  0  0  0  0  0  0  0  0
  2  3  1  0
  2  1  1  6
  3  4  1  0
  4  5  2  0
  5  6  1  0
  7  6  1  0
  8  4  1  0
  8  7  2  0
  9 16  1  0
  9  2  1  0
 10  9  2  0
 12 11  1  1
 12 13  1  0
 12 14  1  0
 15 14  1  6
 15 16  1  0
 17 18  2  0
 17 15  1  0
 19 20  1  0
 20 21  2  0
 21 22  1  0
 23 24  1  0
 23 22  2  0
 25 26  1  0
 25 24  1  6
 26 17  1  0
 27 25  1  0
 28 27  1  0
 29 23  1  0
 30 29  2  0
 30 20  1  0
 31 27  2  0
M  END
$$$$
