HLY.pdb
     RDKit          3D

 31 32  0  0  1  0  0  0  0  0999 V2000
   25.5837  -19.2934  -17.1829 N   0  0  0  0  0  0  0  0  0  0  0  0
   24.8095  -18.6661  -16.1309 C   0  0  1  0  0  0  0  0  0  0  0  0
   23.7666  -17.7879  -16.7795 C   0  0  0  0  0  0  0  0  0  0  0  0
   24.4943  -16.6885  -17.4730 C   0  0  0  0  0  0  0  0  0  0  0  0
   24.7436  -16.5973  -18.8265 C   0  0  0  0  0  0  0  0  0  0  0  0
   25.4346  -15.4440  -19.0576 N   0  0  0  0  0  0  0  0  0  0  0  0
   25.6114  -14.8315  -17.8758 C   0  0  0  0  0  0  0  0  0  0  0  0
   25.0455  -15.5840  -16.9362 N   0  0  0  0  0  0  0  0  0  0  0  0
   24.2307  -19.7015  -15.2578 C   0  0  0  0  0  0  0  0  0  0  0  0
   23.8077  -20.7571  -15.7525 O   0  0  0  0  0  0  0  0  0  0  0  0
   26.1461  -20.9076  -10.1447 C   0  0  0  0  0  0  0  0  0  0  0  0
   25.5749  -20.9792  -11.5425 C   0  0  1  0  0  0  0  0  0  0  0  0
   25.8056  -22.2738  -12.2317 C   0  0  0  0  0  0  0  0  0  0  0  0
   24.1310  -20.5749  -11.6202 C   0  0  0  0  0  0  0  0  0  0  0  0
   23.5615  -20.5140  -12.9799 C   0  0  2  0  0  0  0  0  0  0  0  0
   24.1405  -19.5241  -13.8398 N   0  0  0  0  0  0  0  0  0  0  0  0
   22.0830  -20.3552  -13.0051 C   0  0  0  0  0  0  0  0  0  0  0  0
   21.5880  -19.4008  -12.3698 O   0  0  0  0  0  0  0  0  0  0  0  0
   13.9871  -20.0283  -16.2838 O   0  0  0  0  0  0  0  0  0  0  0  0
   15.3355  -20.1396  -16.0038 C   0  0  0  0  0  0  0  0  0  0  0  0
   15.9839  -21.3113  -16.3169 C   0  0  0  0  0  0  0  0  0  0  0  0
   17.3231  -21.4714  -16.0587 C   0  0  0  0  0  0  0  0  0  0  0  0
   18.0328  -20.4336  -15.4723 C   0  0  0  0  0  0  0  0  0  0  0  0
   19.4754  -20.6286  -15.2035 C   0  0  0  0  0  0  0  0  0  0  0  0
   19.7604  -21.0178  -13.7915 C   0  0  2  0  0  0  0  0  0  0  0  0
   21.2093  -21.2036  -13.6928 N   0  0  0  0  0  0  0  0  0  0  0  0
   19.0142  -22.1583  -13.2777 C   0  0  0  0  0  0  0  0  0  0  0  0
   17.8400  -21.9612  -12.5704 O   0  0  0  0  0  0  0  0  0  0  0  0
   17.3680  -19.2650  -15.1644 C   0  0  0  0  0  0  0  0  0  0  0  0
   16.0276  -19.0872  -15.4158 C   0  0  0  0  0  0  0  0  0  0  0  0
   19.3831  -23.3564  -13.4413 O   0  0  0  0  0  0  0  0  0  0  0  0
  2  3  1  0
  2  1  1  6
  3  4  1  0
  4  5  2  0
  5  6  1  0
  7  6  1  0
  8  4  1  0
  8  7  2  0
  9 16  1  0
  9  2  1  0
 10  9  2  0
 12 11  1  1
 12 13  1  0
 12 14  1  0
 15 14  1  1
 15 16  1  0
 17 18  2  0
 17 15  1  0
 19 20  1  0
 20 21  2  0
 21 22  1  0
 23 24  1  0
 23 22  2  0
 25 26  1  0
 25 24  1  6
 26 17  1  0
 27 25  1  0
 28 27  1  0
 29 23  1  0
 30 29  2  0
 30 20  1  0
 31 27  2  0
M  END
$$$$
