HEF.pdb
     RDKit          3D

 31 32  0  0  1  0  0  0  0  0999 V2000
    8.4252  -16.1024   20.3695 N   0  0  0  0  0  0  0  0  0  0  0  0
    8.2878  -14.8154   21.0001 C   0  0  1  0  0  0  0  0  0  0  0  0
    7.1090  -14.1049   20.4115 C   0  0  0  0  0  0  0  0  0  0  0  0
    7.4355  -13.8106   18.9922 C   0  0  0  0  0  0  0  0  0  0  0  0
    8.1946  -12.7782   18.4820 C   0  0  0  0  0  0  0  0  0  0  0  0
    8.2233  -12.9100   17.1280 N   0  0  0  0  0  0  0  0  0  0  0  0
    7.5067  -13.9882   16.7971 C   0  0  0  0  0  0  0  0  0  0  0  0
    7.0343  -14.5275   17.9249 N   0  0  0  0  0  0  0  0  0  0  0  0
    8.2111  -14.9631   22.4783 C   0  0  0  0  0  0  0  0  0  0  0  0
    8.7245  -14.0927   23.2212 O   0  0  0  0  0  0  0  0  0  0  0  0
    7.5723  -16.0644   23.0680 N   0  0  0  0  0  0  0  0  0  0  0  0
    8.2094  -17.1455   23.7662 C   0  0  1  0  0  0  0  0  0  0  0  0
    8.3596  -18.3462   22.8658 C   0  0  0  0  0  0  0  0  0  0  0  0
    8.9182  -19.5479   23.5937 C   0  0  0  0  0  0  0  0  0  0  0  0
    8.2736  -20.7604   23.0549 C   0  0  0  0  0  0  0  0  0  0  0  0
    8.8843  -21.4777   22.2381 O   0  0  0  0  0  0  0  0  0  0  0  0
    9.5872  -16.7580   24.2220 C   0  0  0  0  0  0  0  0  0  0  0  0
   10.6020  -17.3883   23.8120 O   0  0  0  0  0  0  0  0  0  0  0  0
    6.9959  -21.0735   23.4721 O   0  0  0  0  0  0  0  0  0  0  0  0
    9.7842  -15.6778   25.1229 N   0  0  0  0  0  0  0  0  0  0  0  0
    9.3744  -15.8058   26.5340 C   0  0  1  0  0  0  0  0  0  0  0  0
    7.8840  -15.7196   26.5330 C   0  0  0  0  0  0  0  0  0  0  0  0
    7.4754  -14.2964   26.5519 C   0  0  0  0  0  0  0  0  0  0  0  0
    8.4001  -13.2981   26.8639 C   0  0  0  0  0  0  0  0  0  0  0  0
    8.0675  -11.9584   26.8918 C   0  0  0  0  0  0  0  0  0  0  0  0
    6.7556  -11.6231   26.5937 C   0  0  0  0  0  0  0  0  0  0  0  0
    5.8084  -12.5621   26.2813 C   0  0  0  0  0  0  0  0  0  0  0  0
    6.1823  -13.8855   26.2651 C   0  0  0  0  0  0  0  0  0  0  0  0
    9.9337  -17.0512   27.0697 C   0  0  0  0  0  0  0  0  0  0  0  0
   10.6468  -17.9639   26.3059 O   0  0  0  0  0  0  0  0  0  0  0  0
    9.7728  -17.3318   28.2815 O   0  0  0  0  0  0  0  0  0  0  0  0
  2  1  1  6
  2  3  1  0
  3  4  1  0
  4  8  1  0
  4  5  2  0
  5  6  1  0
  7  6  1  0
  8  7  2  0
  9  2  1  0
  9 11  1  0
 10  9  2  0
 12 11  1  0
 12 13  1  6
 14 13  1  0
 15 14  1  0
 16 15  2  0
 17 12  1  0
 18 17  2  0
 19 15  1  0
 20 17  1  0
 21 20  1  0
 21 22  1  6
 23 22  1  0
 24 23  2  0
 25 24  1  0
 26 27  1  0
 26 25  2  0
 27 28  2  0
 28 23  1  0
 29 21  1  0
 30 29  1  0
 31 29  2  0
M  END
$$$$
