HEF.pdb
     RDKit          3D

 31 32  0  0  1  0  0  0  0  0999 V2000
    9.7761  -18.8096   18.6592 N   0  0  0  0  0  0  0  0  0  0  0  0
    9.0365  -18.9457   19.8869 C   0  0  1  0  0  0  0  0  0  0  0  0
    9.4376  -20.2202   20.5618 C   0  0  0  0  0  0  0  0  0  0  0  0
    8.5038  -21.2780   20.0967 C   0  0  0  0  0  0  0  0  0  0  0  0
    7.1506  -21.1802   19.8483 C   0  0  0  0  0  0  0  0  0  0  0  0
    6.7116  -22.4010   19.4381 N   0  0  0  0  0  0  0  0  0  0  0  0
    7.7525  -23.2388   19.4290 C   0  0  0  0  0  0  0  0  0  0  0  0
    8.8305  -22.5564   19.8265 N   0  0  0  0  0  0  0  0  0  0  0  0
    9.2169  -17.7419   20.7420 C   0  0  0  0  0  0  0  0  0  0  0  0
   10.3504  -17.4665   21.2030 O   0  0  0  0  0  0  0  0  0  0  0  0
    8.1385  -16.8986   21.0493 N   0  0  0  0  0  0  0  0  0  0  0  0
    8.1839  -15.7233   21.8734 C   0  0  1  0  0  0  0  0  0  0  0  0
    6.8997  -14.9408   21.7567 C   0  0  0  0  0  0  0  0  0  0  0  0
    6.6675  -14.4171   20.3576 C   0  0  0  0  0  0  0  0  0  0  0  0
    7.9620  -13.9764   19.8041 C   0  0  0  0  0  0  0  0  0  0  0  0
    8.6524  -13.1448   20.4256 O   0  0  0  0  0  0  0  0  0  0  0  0
    8.3533  -16.0841   23.3217 C   0  0  0  0  0  0  0  0  0  0  0  0
    7.9235  -17.1858   23.7653 O   0  0  0  0  0  0  0  0  0  0  0  0
    8.3807  -14.5007   18.5981 O   0  0  0  0  0  0  0  0  0  0  0  0
    8.9975  -15.1992   24.2267 N   0  0  0  0  0  0  0  0  0  0  0  0
    9.2917  -15.6339   25.6051 C   0  0  1  0  0  0  0  0  0  0  0  0
    9.4929  -14.3810   26.3913 C   0  0  0  0  0  0  0  0  0  0  0  0
    8.2676  -13.5527   26.3155 C   0  0  0  0  0  0  0  0  0  0  0  0
    8.1920  -12.4798   25.4255 C   0  0  0  0  0  0  0  0  0  0  0  0
    7.0711  -11.6811   25.3168 C   0  0  0  0  0  0  0  0  0  0  0  0
    5.9947  -11.9816   26.1373 C   0  0  0  0  0  0  0  0  0  0  0  0
    6.0159  -13.0222   27.0281 C   0  0  0  0  0  0  0  0  0  0  0  0
    7.1525  -13.7927   27.1042 C   0  0  0  0  0  0  0  0  0  0  0  0
    8.1986  -16.4976   26.0638 C   0  0  0  0  0  0  0  0  0  0  0  0
    7.0184  -16.6827   25.3583 O   0  0  0  0  0  0  0  0  0  0  0  0
    8.3103  -17.1140   27.1503 O   0  0  0  0  0  0  0  0  0  0  0  0
  2  1  1  6
  2  3  1  0
  3  4  1  0
  4  8  1  0
  4  5  2  0
  5  6  1  0
  7  6  1  0
  8  7  2  0
  9  2  1  0
  9 11  1  0
 10  9  2  0
 12 11  1  0
 12 13  1  1
 14 13  1  0
 15 14  1  0
 16 15  2  0
 17 12  1  0
 18 17  2  0
 19 15  1  0
 20 17  1  0
 21 20  1  0
 21 22  1  1
 23 22  1  0
 24 23  2  0
 25 24  1  0
 26 27  1  0
 26 25  2  0
 27 28  2  0
 28 23  1  0
 29 21  1  0
 30 29  1  0
 31 29  2  0
M  END
$$$$
