HEF.pdb
     RDKit          3D

 31 32  0  0  1  0  0  0  0  0999 V2000
    7.0757  -16.8194   19.9841 N   0  0  0  0  0  0  0  0  0  0  0  0
    7.8284  -16.0155   20.9115 C   0  0  1  0  0  0  0  0  0  0  0  0
    7.2272  -14.6460   20.9727 C   0  0  0  0  0  0  0  0  0  0  0  0
    7.7714  -13.8741   19.8257 C   0  0  0  0  0  0  0  0  0  0  0  0
    8.6687  -14.2855   18.8625 C   0  0  0  0  0  0  0  0  0  0  0  0
    8.8747  -13.2442   18.0112 N   0  0  0  0  0  0  0  0  0  0  0  0
    8.1328  -12.2126   18.4244 C   0  0  0  0  0  0  0  0  0  0  0  0
    7.4693  -12.5980   19.5186 N   0  0  0  0  0  0  0  0  0  0  0  0
    7.9097  -16.6850   22.2374 C   0  0  0  0  0  0  0  0  0  0  0  0
    6.8738  -17.1567   22.7644 O   0  0  0  0  0  0  0  0  0  0  0  0
    9.1296  -16.8022   22.9205 N   0  0  0  0  0  0  0  0  0  0  0  0
    9.3455  -17.4785   24.1688 C   0  0  1  0  0  0  0  0  0  0  0  0
   10.3553  -18.5872   24.0065 C   0  0  0  0  0  0  0  0  0  0  0  0
   11.2387  -18.3911   22.7952 C   0  0  0  0  0  0  0  0  0  0  0  0
   12.1466  -19.5488   22.6882 C   0  0  0  0  0  0  0  0  0  0  0  0
   11.7685  -20.5826   22.1026 O   0  0  0  0  0  0  0  0  0  0  0  0
    9.8838  -16.5372   25.2083 C   0  0  0  0  0  0  0  0  0  0  0  0
   10.7724  -15.6901   24.9114 O   0  0  0  0  0  0  0  0  0  0  0  0
   13.4056  -19.4583   23.2462 O   0  0  0  0  0  0  0  0  0  0  0  0
    9.4105  -16.5754   26.5467 N   0  0  0  0  0  0  0  0  0  0  0  0
    9.9359  -15.6261   27.5458 C   0  0  1  0  0  0  0  0  0  0  0  0
    8.7382  -15.0278   28.2062 C   0  0  0  0  0  0  0  0  0  0  0  0
    8.0700  -14.1020   27.2632 C   0  0  0  0  0  0  0  0  0  0  0  0
    6.8621  -14.4560   26.6593 C   0  0  0  0  0  0  0  0  0  0  0  0
    6.2006  -13.6261   25.7762 C   0  0  0  0  0  0  0  0  0  0  0  0
    6.7842  -12.3995   25.4983 C   0  0  0  0  0  0  0  0  0  0  0  0
    7.9676  -12.0025   26.0626 C   0  0  0  0  0  0  0  0  0  0  0  0
    8.5935  -12.8599   26.9369 C   0  0  0  0  0  0  0  0  0  0  0  0
   10.8524  -16.3470   28.4355 C   0  0  0  0  0  0  0  0  0  0  0  0
   11.6698  -15.7218   29.3660 O   0  0  0  0  0  0  0  0  0  0  0  0
   10.9214  -17.5976   28.3724 O   0  0  0  0  0  0  0  0  0  0  0  0
  2  1  1  6
  2  3  1  0
  3  4  1  0
  4  8  1  0
  4  5  2  0
  5  6  1  0
  7  6  1  0
  8  7  2  0
  9  2  1  0
  9 11  1  0
 10  9  2  0
 12 11  1  0
 12 13  1  6
 14 13  1  0
 15 14  1  0
 16 15  2  0
 17 12  1  0
 18 17  2  0
 19 15  1  0
 20 17  1  0
 21 20  1  0
 21 22  1  1
 23 22  1  0
 24 23  2  0
 25 24  1  0
 26 27  1  0
 26 25  2  0
 27 28  2  0
 28 23  1  0
 29 21  1  0
 30 29  1  0
 31 29  2  0
M  END
$$$$
