HEF.pdb
     RDKit          3D

 31 32  0  0  1  0  0  0  0  0999 V2000
    9.6512  -15.0388   20.2326 N   0  0  0  0  0  0  0  0  0  0  0  0
    8.4991  -14.7515   21.0467 C   0  0  1  0  0  0  0  0  0  0  0  0
    7.2590  -15.0094   20.2490 C   0  0  0  0  0  0  0  0  0  0  0  0
    7.4528  -14.3800   18.9172 C   0  0  0  0  0  0  0  0  0  0  0  0
    8.1459  -13.2294   18.6040 C   0  0  0  0  0  0  0  0  0  0  0  0
    8.0563  -13.0403   17.2595 N   0  0  0  0  0  0  0  0  0  0  0  0
    7.3314  -14.0374   16.7440 C   0  0  0  0  0  0  0  0  0  0  0  0
    6.9705  -14.8424   17.7478 N   0  0  0  0  0  0  0  0  0  0  0  0
    8.5535  -15.5197   22.3194 C   0  0  0  0  0  0  0  0  0  0  0  0
    7.5826  -15.4851   23.1127 O   0  0  0  0  0  0  0  0  0  0  0  0
    9.6766  -16.2896   22.6579 N   0  0  0  0  0  0  0  0  0  0  0  0
    9.8070  -17.1496   23.8005 C   0  0  1  0  0  0  0  0  0  0  0  0
   10.9519  -18.1137   23.6139 C   0  0  0  0  0  0  0  0  0  0  0  0
   10.7434  -19.0366   22.4346 C   0  0  0  0  0  0  0  0  0  0  0  0
   11.9468  -19.8761   22.2813 C   0  0  0  0  0  0  0  0  0  0  0  0
   12.5850  -19.8570   21.2104 O   0  0  0  0  0  0  0  0  0  0  0  0
   10.0929  -16.3573   25.0443 C   0  0  0  0  0  0  0  0  0  0  0  0
   11.0251  -15.5055   25.0650 O   0  0  0  0  0  0  0  0  0  0  0  0
   12.3399  -20.6713   23.3385 O   0  0  0  0  0  0  0  0  0  0  0  0
    9.3263  -16.5452   26.2250 N   0  0  0  0  0  0  0  0  0  0  0  0
    9.6456  -15.7807   27.4453 C   0  0  1  0  0  0  0  0  0  0  0  0
    8.3389  -15.2759   27.9613 C   0  0  0  0  0  0  0  0  0  0  0  0
    7.9162  -14.1034   27.1616 C   0  0  0  0  0  0  0  0  0  0  0  0
    8.7865  -13.0299   26.9641 C   0  0  0  0  0  0  0  0  0  0  0  0
    8.4391  -11.9168   26.2247 C   0  0  0  0  0  0  0  0  0  0  0  0
    7.1688  -11.8940   25.6695 C   0  0  0  0  0  0  0  0  0  0  0  0
    6.2756  -12.9198   25.8323 C   0  0  0  0  0  0  0  0  0  0  0  0
    6.6624  -14.0097   26.5763 C   0  0  0  0  0  0  0  0  0  0  0  0
   10.3900  -16.6532   28.3594 C   0  0  0  0  0  0  0  0  0  0  0  0
   11.0543  -16.1949   29.4880 O   0  0  0  0  0  0  0  0  0  0  0  0
   10.4460  -17.8853   28.1319 O   0  0  0  0  0  0  0  0  0  0  0  0
  2  1  1  6
  2  3  1  0
  3  4  1  0
  4  8  1  0
  4  5  2  0
  5  6  1  0
  7  6  1  0
  8  7  2  0
  9  2  1  0
  9 11  1  0
 10  9  2  0
 12 11  1  0
 12 13  1  6
 14 13  1  0
 15 14  1  0
 16 15  2  0
 17 12  1  0
 18 17  2  0
 19 15  1  0
 20 17  1  0
 21 20  1  0
 21 22  1  1
 23 22  1  0
 24 23  2  0
 25 24  1  0
 26 27  1  0
 26 25  2  0
 27 28  2  0
 28 23  1  0
 29 21  1  0
 30 29  1  0
 31 29  2  0
M  END
$$$$
