HEF.pdb
     RDKit          3D

 31 32  0  0  1  0  0  0  0  0999 V2000
    7.8406  -17.6664   15.4508 N   0  0  0  0  0  0  0  0  0  0  0  0
    8.8291  -16.9091   16.1734 C   0  0  1  0  0  0  0  0  0  0  0  0
    8.5801  -15.4487   15.9594 C   0  0  0  0  0  0  0  0  0  0  0  0
    8.8444  -15.1620   14.5257 C   0  0  0  0  0  0  0  0  0  0  0  0
   10.0572  -15.1021   13.8715 C   0  0  0  0  0  0  0  0  0  0  0  0
    9.8133  -14.8119   12.5647 N   0  0  0  0  0  0  0  0  0  0  0  0
    8.4924  -14.6927   12.4019 C   0  0  0  0  0  0  0  0  0  0  0  0
    7.9131  -14.9052   13.5873 N   0  0  0  0  0  0  0  0  0  0  0  0
    8.8430  -17.3023   17.6080 C   0  0  0  0  0  0  0  0  0  0  0  0
    7.7757  -17.3016   18.2670 O   0  0  0  0  0  0  0  0  0  0  0  0
   10.0335  -17.6770   18.2489 N   0  0  0  0  0  0  0  0  0  0  0  0
   10.1652  -18.1259   19.6067 C   0  0  1  0  0  0  0  0  0  0  0  0
   11.2817  -19.1327   19.7290 C   0  0  0  0  0  0  0  0  0  0  0  0
   11.3235  -19.7861   21.0918 C   0  0  0  0  0  0  0  0  0  0  0  0
   12.4759  -20.7062   21.1324 C   0  0  0  0  0  0  0  0  0  0  0  0
   13.2485  -20.6911   22.1109 O   0  0  0  0  0  0  0  0  0  0  0  0
   10.4957  -16.9837   20.5246 C   0  0  0  0  0  0  0  0  0  0  0  0
   11.4428  -16.1933   20.2537 O   0  0  0  0  0  0  0  0  0  0  0  0
   12.6730  -21.5696   20.0739 O   0  0  0  0  0  0  0  0  0  0  0  0
    9.7556  -16.7640   21.7167 N   0  0  0  0  0  0  0  0  0  0  0  0
   10.0525  -15.5973   22.5688 C   0  0  1  0  0  0  0  0  0  0  0  0
    8.7312  -14.9775   22.8828 C   0  0  0  0  0  0  0  0  0  0  0  0
    8.1788  -14.3546   21.6581 C   0  0  0  0  0  0  0  0  0  0  0  0
    8.7465  -13.1902   21.1378 C   0  0  0  0  0  0  0  0  0  0  0  0
    8.2687  -12.5746   19.9981 C   0  0  0  0  0  0  0  0  0  0  0  0
    7.1810  -13.1598   19.3683 C   0  0  0  0  0  0  0  0  0  0  0  0
    6.5858  -14.3015   19.8362 C   0  0  0  0  0  0  0  0  0  0  0  0
    7.0935  -14.8823   20.9747 C   0  0  0  0  0  0  0  0  0  0  0  0
   10.8267  -16.0530   23.7281 C   0  0  0  0  0  0  0  0  0  0  0  0
   11.5665  -15.2045   24.5391 O   0  0  0  0  0  0  0  0  0  0  0  0
   10.8388  -17.2715   24.0249 O   0  0  0  0  0  0  0  0  0  0  0  0
  2  1  1  6
  2  3  1  0
  3  4  1  0
  4  8  1  0
  4  5  2  0
  5  6  1  0
  7  6  1  0
  8  7  2  0
  9  2  1  0
  9 11  1  0
 10  9  2  0
 12 11  1  0
 12 13  1  6
 14 13  1  0
 15 14  1  0
 16 15  2  0
 17 12  1  0
 18 17  2  0
 19 15  1  0
 20 17  1  0
 21 20  1  0
 21 22  1  1
 23 22  1  0
 24 23  2  0
 25 24  1  0
 26 27  1  0
 26 25  2  0
 27 28  2  0
 28 23  1  0
 29 21  1  0
 30 29  1  0
 31 29  2  0
M  END
$$$$
