YIY.pdb
     RDKit          3D

 33 34  0  0  1  0  0  0  0  0999 V2000
   28.1654  -31.0630  -18.5054 O   0  0  0  0  0  0  0  0  0  0  0  0
   27.8628  -29.7965  -17.9850 C   0  0  0  0  0  0  0  0  0  0  0  0
   28.2852  -29.4148  -16.7305 C   0  0  0  0  0  0  0  0  0  0  0  0
   27.9724  -28.1536  -16.2368 C   0  0  0  0  0  0  0  0  0  0  0  0
   27.2372  -27.2511  -16.9766 C   0  0  0  0  0  0  0  0  0  0  0  0
   26.9340  -25.9380  -16.4144 C   0  0  0  0  0  0  0  0  0  0  0  0
   27.8033  -24.8310  -16.9552 C   0  0  2  0  0  0  0  0  0  0  0  0
   29.1644  -24.9348  -16.4635 N   0  0  0  0  0  0  0  0  0  0  0  0
   27.2520  -23.5494  -16.3894 C   0  0  0  0  0  0  0  0  0  0  0  0
   27.8868  -23.0550  -15.4157 O   0  0  0  0  0  0  0  0  0  0  0  0
   26.8312  -27.6669  -18.2274 C   0  0  0  0  0  0  0  0  0  0  0  0
   27.1360  -28.9161  -18.7272 C   0  0  0  0  0  0  0  0  0  0  0  0
   27.5442  -19.3457  -18.9429 C   0  0  0  0  0  0  0  0  0  0  0  0
   27.2889  -20.3230  -17.8570 C   0  0  0  0  0  0  0  0  0  0  0  0
   25.9150  -20.6030  -17.4349 C   0  0  2  0  0  0  0  0  0  0  0  0
   25.2666  -19.2388  -17.1060 C   0  0  0  0  0  0  0  0  0  0  0  0
   25.6571  -21.5885  -16.3859 C   0  0  2  0  0  0  0  0  0  0  0  0
   26.1192  -22.9231  -16.8826 N   0  0  0  0  0  0  0  0  0  0  0  0
   24.2726  -21.8153  -16.0173 C   0  0  0  0  0  0  0  0  0  0  0  0
   23.4537  -22.3173  -16.8828 O   0  0  0  0  0  0  0  0  0  0  0  0
   16.5101  -22.8983  -11.9911 O   0  0  0  0  0  0  0  0  0  0  0  0
   17.8552  -22.7355  -12.2465 C   0  0  0  0  0  0  0  0  0  0  0  0
   18.8362  -22.9974  -11.3047 C   0  0  0  0  0  0  0  0  0  0  0  0
   20.1776  -22.8300  -11.5745 C   0  0  0  0  0  0  0  0  0  0  0  0
   20.5861  -22.3934  -12.7993 C   0  0  0  0  0  0  0  0  0  0  0  0
   22.0080  -22.1944  -13.1355 C   0  0  0  0  0  0  0  0  0  0  0  0
   22.2309  -21.7677  -14.5878 C   0  0  2  0  0  0  0  0  0  0  0  0
   23.6583  -21.5587  -14.7504 N   0  0  0  0  0  0  0  0  0  0  0  0
   21.4559  -20.5807  -14.8845 C   0  0  0  0  0  0  0  0  0  0  0  0
   21.7679  -19.4393  -14.4942 O   0  0  0  0  0  0  0  0  0  0  0  0
   19.6392  -22.1230  -13.7607 C   0  0  0  0  0  0  0  0  0  0  0  0
   18.2866  -22.2903  -13.4935 C   0  0  0  0  0  0  0  0  0  0  0  0
   20.2848  -20.6550  -15.6476 O   0  0  0  0  0  0  0  0  0  0  0  0
  2 12  2  0
  2  1  1  0
  3  2  1  0
  4  5  1  0
  4  3  2  0
  5 11  2  0
  6  5  1  0
  7  6  1  0
  7  8  1  1
  9  7  1  0
 10  9  2  0
 11 12  1  0
 13 14  1  0
 14 15  1  0
 15 17  1  0
 15 16  1  1
 17 19  1  0
 17 18  1  6
 18  9  1  0
 19 28  1  0
 20 19  2  0
 22 21  1  0
 23 22  2  0
 24 23  1  0
 25 24  2  0
 25 31  1  0
 26 25  1  0
 27 29  1  0
 27 26  1  1
 28 27  1  0
 29 30  2  0
 29 33  1  0
 31 32  2  0
 32 22  1  0
M  END
$$$$
