YIY.pdb
     RDKit          3D

 33 34  0  0  1  0  0  0  0  0999 V2000
   18.0348  -14.9310  -16.5283 O   0  0  0  0  0  0  0  0  0  0  0  0
   19.0689  -15.8212  -16.2048 C   0  0  0  0  0  0  0  0  0  0  0  0
   18.8502  -17.1790  -16.1246 C   0  0  0  0  0  0  0  0  0  0  0  0
   19.8920  -18.0411  -15.8021 C   0  0  0  0  0  0  0  0  0  0  0  0
   21.1654  -17.5730  -15.5543 C   0  0  0  0  0  0  0  0  0  0  0  0
   22.2267  -18.5183  -15.2193 C   0  0  0  0  0  0  0  0  0  0  0  0
   23.1748  -18.7949  -16.3587 C   0  0  2  0  0  0  0  0  0  0  0  0
   22.5215  -19.5241  -17.4294 N   0  0  0  0  0  0  0  0  0  0  0  0
   24.2322  -19.7163  -15.8111 C   0  0  0  0  0  0  0  0  0  0  0  0
   24.0022  -20.9531  -15.9241 O   0  0  0  0  0  0  0  0  0  0  0  0
   21.3477  -16.2087  -15.6436 C   0  0  0  0  0  0  0  0  0  0  0  0
   20.3212  -15.3442  -15.9627 C   0  0  0  0  0  0  0  0  0  0  0  0
   29.0648  -19.9095  -17.5947 C   0  0  0  0  0  0  0  0  0  0  0  0
   27.7733  -20.0947  -16.8896 C   0  0  0  0  0  0  0  0  0  0  0  0
   27.6974  -19.8958  -15.4408 C   0  0  2  0  0  0  0  0  0  0  0  0
   28.9093  -20.6351  -14.8288 C   0  0  0  0  0  0  0  0  0  0  0  0
   26.4610  -20.2023  -14.7228 C   0  0  2  0  0  0  0  0  0  0  0  0
   25.3987  -19.2685  -15.2133 N   0  0  0  0  0  0  0  0  0  0  0  0
   26.4634  -20.0019  -13.2861 C   0  0  0  0  0  0  0  0  0  0  0  0
   26.6754  -18.8208  -12.8048 O   0  0  0  0  0  0  0  0  0  0  0  0
   19.9615  -20.9770  -11.6385 O   0  0  0  0  0  0  0  0  0  0  0  0
   21.2647  -20.6112  -11.3754 C   0  0  0  0  0  0  0  0  0  0  0  0
   21.7681  -20.4959  -10.0905 C   0  0  0  0  0  0  0  0  0  0  0  0
   23.0735  -20.1291   -9.8426 C   0  0  0  0  0  0  0  0  0  0  0  0
   23.9237  -19.8639  -10.8743 C   0  0  0  0  0  0  0  0  0  0  0  0
   25.3271  -19.4639  -10.6614 C   0  0  0  0  0  0  0  0  0  0  0  0
   26.3197  -20.6089  -10.8726 C   0  0  2  0  0  0  0  0  0  0  0  0
   26.2355  -20.9858  -12.2720 N   0  0  0  0  0  0  0  0  0  0  0  0
   26.0129  -21.7072   -9.9796 C   0  0  0  0  0  0  0  0  0  0  0  0
   26.0072  -21.6042   -8.7379 O   0  0  0  0  0  0  0  0  0  0  0  0
   23.4586  -19.9683  -12.1653 C   0  0  0  0  0  0  0  0  0  0  0  0
   22.1441  -20.3375  -12.4199 C   0  0  0  0  0  0  0  0  0  0  0  0
   25.6965  -22.9762  -10.4782 O   0  0  0  0  0  0  0  0  0  0  0  0
  2 12  2  0
  2  1  1  0
  3  2  1  0
  4  5  1  0
  4  3  2  0
  5 11  2  0
  6  5  1  0
  7  6  1  0
  7  8  1  6
  9  7  1  0
 10  9  2  0
 11 12  1  0
 13 14  1  0
 14 15  1  0
 15 17  1  0
 15 16  1  1
 17 19  1  0
 17 18  1  6
 18  9  1  0
 19 28  1  0
 20 19  2  0
 22 21  1  0
 23 22  2  0
 24 23  1  0
 25 24  2  0
 25 31  1  0
 26 25  1  0
 27 29  1  0
 27 26  1  6
 28 27  1  0
 29 30  2  0
 29 33  1  0
 31 32  2  0
 32 22  1  0
M  END
$$$$
