YIY.pdb
     RDKit          3D

 33 34  0  0  1  0  0  0  0  0999 V2000
   30.0136  -19.9578   -3.5326 O   0  0  0  0  0  0  0  0  0  0  0  0
   29.1252  -19.9575   -4.6176 C   0  0  0  0  0  0  0  0  0  0  0  0
   28.0260  -20.7875   -4.6473 C   0  0  0  0  0  0  0  0  0  0  0  0
   27.1600  -20.7687   -5.7345 C   0  0  0  0  0  0  0  0  0  0  0  0
   27.3682  -19.9287   -6.8084 C   0  0  0  0  0  0  0  0  0  0  0  0
   26.4301  -19.9455   -7.9272 C   0  0  0  0  0  0  0  0  0  0  0  0
   26.7875  -20.9390   -9.0039 C   0  0  2  0  0  0  0  0  0  0  0  0
   28.2224  -21.0108   -9.2064 N   0  0  0  0  0  0  0  0  0  0  0  0
   26.2121  -20.3956  -10.2847 C   0  0  0  0  0  0  0  0  0  0  0  0
   26.4334  -19.1740  -10.5174 O   0  0  0  0  0  0  0  0  0  0  0  0
   28.4779  -19.1121   -6.7447 C   0  0  0  0  0  0  0  0  0  0  0  0
   29.3439  -19.1226   -5.6709 C   0  0  0  0  0  0  0  0  0  0  0  0
   28.1780  -21.5012  -14.5756 C   0  0  0  0  0  0  0  0  0  0  0  0
   27.3018  -20.8914  -13.5461 C   0  0  0  0  0  0  0  0  0  0  0  0
   25.8681  -21.1890  -13.5384 C   0  0  2  0  0  0  0  0  0  0  0  0
   25.3390  -20.8532  -14.9516 C   0  0  0  0  0  0  0  0  0  0  0  0
   25.0092  -20.6303  -12.4952 C   0  0  2  0  0  0  0  0  0  0  0  0
   25.4794  -21.1611  -11.1767 N   0  0  0  0  0  0  0  0  0  0  0  0
   23.6041  -20.9887  -12.5328 C   0  0  0  0  0  0  0  0  0  0  0  0
   23.2413  -22.1903  -12.2227 O   0  0  0  0  0  0  0  0  0  0  0  0
   20.5146  -15.7689  -16.9513 O   0  0  0  0  0  0  0  0  0  0  0  0
   20.4226  -16.6891  -15.9286 C   0  0  0  0  0  0  0  0  0  0  0  0
   19.5954  -17.7982  -15.9876 C   0  0  0  0  0  0  0  0  0  0  0  0
   19.5138  -18.7100  -14.9571 C   0  0  0  0  0  0  0  0  0  0  0  0
   20.2586  -18.5440  -13.8279 C   0  0  0  0  0  0  0  0  0  0  0  0
   20.2037  -19.4884  -12.6966 C   0  0  0  0  0  0  0  0  0  0  0  0
   21.1520  -20.6783  -12.8570 C   0  0  2  0  0  0  0  0  0  0  0  0
   22.5010  -20.1420  -12.8711 N   0  0  0  0  0  0  0  0  0  0  0  0
   20.8315  -21.4137  -14.0629 C   0  0  0  0  0  0  0  0  0  0  0  0
   19.7759  -22.0575  -14.2168 O   0  0  0  0  0  0  0  0  0  0  0  0
   21.0924  -17.4532  -13.7335 C   0  0  0  0  0  0  0  0  0  0  0  0
   21.1781  -16.5319  -14.7693 C   0  0  0  0  0  0  0  0  0  0  0  0
   21.7139  -21.4391  -15.1491 O   0  0  0  0  0  0  0  0  0  0  0  0
  2 12  2  0
  2  1  1  0
  3  2  1  0
  4  5  1  0
  4  3  2  0
  5 11  2  0
  6  5  1  0
  7  6  1  0
  7  8  1  6
  9  7  1  0
 10  9  2  0
 11 12  1  0
 13 14  1  0
 14 15  1  0
 15 17  1  0
 15 16  1  6
 17 19  1  0
 17 18  1  1
 18  9  1  0
 19 28  1  0
 20 19  2  0
 22 21  1  0
 23 22  2  0
 24 23  1  0
 25 24  2  0
 25 31  1  0
 26 25  1  0
 27 29  1  0
 27 26  1  6
 28 27  1  0
 29 30  2  0
 29 33  1  0
 31 32  2  0
 32 22  1  0
M  END
$$$$
