YIY.pdb
     RDKit          3D

 33 34  0  0  1  0  0  0  0  0999 V2000
   17.5319  -13.6746  -22.0476 O   0  0  0  0  0  0  0  0  0  0  0  0
   18.4345  -13.3080  -21.0390 C   0  0  0  0  0  0  0  0  0  0  0  0
   19.6371  -12.7044  -21.3347 C   0  0  0  0  0  0  0  0  0  0  0  0
   20.5151  -12.3503  -20.3170 C   0  0  0  0  0  0  0  0  0  0  0  0
   20.2168  -12.5879  -18.9915 C   0  0  0  0  0  0  0  0  0  0  0  0
   21.1717  -12.1976  -17.9581 C   0  0  0  0  0  0  0  0  0  0  0  0
   22.3595  -13.1203  -17.8499 C   0  0  2  0  0  0  0  0  0  0  0  0
   21.9601  -14.4574  -17.4527 N   0  0  0  0  0  0  0  0  0  0  0  0
   23.2054  -12.5861  -16.7248 C   0  0  0  0  0  0  0  0  0  0  0  0
   22.8445  -12.9094  -15.5583 O   0  0  0  0  0  0  0  0  0  0  0  0
   19.0049  -13.1934  -18.7326 C   0  0  0  0  0  0  0  0  0  0  0  0
   18.1261  -13.5490  -19.7348 C   0  0  0  0  0  0  0  0  0  0  0  0
   27.2130  -13.7967  -15.2410 C   0  0  0  0  0  0  0  0  0  0  0  0
   27.0741  -12.8581  -16.3808 C   0  0  0  0  0  0  0  0  0  0  0  0
   26.5679  -11.5030  -16.1531 C   0  0  2  0  0  0  0  0  0  0  0  0
   27.5243  -10.8387  -15.1364 C   0  0  0  0  0  0  0  0  0  0  0  0
   25.1669  -11.2956  -15.7894 C   0  0  2  0  0  0  0  0  0  0  0  0
   24.3187  -11.7858  -16.9213 N   0  0  0  0  0  0  0  0  0  0  0  0
   24.7297   -9.9261  -15.5954 C   0  0  0  0  0  0  0  0  0  0  0  0
   25.4568   -8.9531  -16.0383 O   0  0  0  0  0  0  0  0  0  0  0  0
   20.9944   -2.3873  -16.9782 O   0  0  0  0  0  0  0  0  0  0  0  0
   21.5262   -3.6507  -16.8296 C   0  0  0  0  0  0  0  0  0  0  0  0
   22.8611   -3.8747  -16.5369 C   0  0  0  0  0  0  0  0  0  0  0  0
   23.3787   -5.1439  -16.3911 C   0  0  0  0  0  0  0  0  0  0  0  0
   22.5771   -6.2369  -16.5335 C   0  0  0  0  0  0  0  0  0  0  0  0
   23.0835   -7.6146  -16.3916 C   0  0  0  0  0  0  0  0  0  0  0  0
   23.2093   -8.0644  -14.9347 C   0  0  2  0  0  0  0  0  0  0  0  0
   23.5284   -9.4804  -14.9578 N   0  0  0  0  0  0  0  0  0  0  0  0
   21.9840   -7.7804  -14.2164 C   0  0  0  0  0  0  0  0  0  0  0  0
   21.6629   -6.6416  -13.8259 O   0  0  0  0  0  0  0  0  0  0  0  0
   21.2446   -6.0531  -16.8245 C   0  0  0  0  0  0  0  0  0  0  0  0
   20.7185   -4.7762  -16.9722 C   0  0  0  0  0  0  0  0  0  0  0  0
   21.0705   -8.7976  -13.9167 O   0  0  0  0  0  0  0  0  0  0  0  0
  2 12  2  0
  2  1  1  0
  3  2  1  0
  4  5  1  0
  4  3  2  0
  5 11  2  0
  6  5  1  0
  7  6  1  0
  7  8  1  1
  9  7  1  0
 10  9  2  0
 11 12  1  0
 13 14  1  0
 14 15  1  0
 15 17  1  0
 15 16  1  1
 17 19  1  0
 17 18  1  6
 18  9  1  0
 19 28  1  0
 20 19  2  0
 22 21  1  0
 23 22  2  0
 24 23  1  0
 25 24  2  0
 25 31  1  0
 26 25  1  0
 27 29  1  0
 27 26  1  6
 28 27  1  0
 29 30  2  0
 29 33  1  0
 31 32  2  0
 32 22  1  0
M  END
$$$$
