YIY.pdb
     RDKit          3D

 33 34  0  0  1  0  0  0  0  0999 V2000
   29.9085  -16.1434  -19.0823 O   0  0  0  0  0  0  0  0  0  0  0  0
   29.1348  -16.9283  -18.2152 C   0  0  0  0  0  0  0  0  0  0  0  0
   28.5993  -18.1317  -18.6192 C   0  0  0  0  0  0  0  0  0  0  0  0
   27.8357  -18.8917  -17.7409 C   0  0  0  0  0  0  0  0  0  0  0  0
   27.5903  -18.4728  -16.4500 C   0  0  0  0  0  0  0  0  0  0  0  0
   26.7819  -19.3065  -15.5647 C   0  0  0  0  0  0  0  0  0  0  0  0
   27.5937  -20.2322  -14.6943 C   0  0  2  0  0  0  0  0  0  0  0  0
   28.2572  -21.2558  -15.4799 N   0  0  0  0  0  0  0  0  0  0  0  0
   26.6078  -20.9548  -13.8153 C   0  0  0  0  0  0  0  0  0  0  0  0
   26.0600  -21.9753  -14.3193 O   0  0  0  0  0  0  0  0  0  0  0  0
   28.1417  -17.2639  -16.0800 C   0  0  0  0  0  0  0  0  0  0  0  0
   28.9010  -16.5017  -16.9434 C   0  0  0  0  0  0  0  0  0  0  0  0
   26.9464  -20.5617   -8.2724 C   0  0  0  0  0  0  0  0  0  0  0  0
   26.6809  -21.1417   -9.6113 C   0  0  0  0  0  0  0  0  0  0  0  0
   25.4344  -20.8235  -10.3107 C   0  0  2  0  0  0  0  0  0  0  0  0
   24.2819  -21.3260   -9.4113 C   0  0  0  0  0  0  0  0  0  0  0  0
   25.2495  -21.2334  -11.7020 C   0  0  2  0  0  0  0  0  0  0  0  0
   26.2966  -20.5521  -12.5270 N   0  0  0  0  0  0  0  0  0  0  0  0
   24.0035  -20.8573  -12.3424 C   0  0  0  0  0  0  0  0  0  0  0  0
   23.8674  -19.6671  -12.8290 O   0  0  0  0  0  0  0  0  0  0  0  0
   16.8308  -20.2572  -17.2909 O   0  0  0  0  0  0  0  0  0  0  0  0
   18.0053  -20.5726  -16.6411 C   0  0  0  0  0  0  0  0  0  0  0  0
   19.1677  -19.8346  -16.7892 C   0  0  0  0  0  0  0  0  0  0  0  0
   20.3349  -20.1620  -16.1329 C   0  0  0  0  0  0  0  0  0  0  0  0
   20.3805  -21.2422  -15.3031 C   0  0  0  0  0  0  0  0  0  0  0  0
   21.6051  -21.6361  -14.5822 C   0  0  0  0  0  0  0  0  0  0  0  0
   21.6575  -21.1072  -13.1475 C   0  0  2  0  0  0  0  0  0  0  0  0
   22.8442  -21.6746  -12.5331 N   0  0  0  0  0  0  0  0  0  0  0  0
   20.4423  -21.4571  -12.4413 C   0  0  0  0  0  0  0  0  0  0  0  0
   20.2930  -22.5231  -11.8139 O   0  0  0  0  0  0  0  0  0  0  0  0
   19.2442  -21.9994  -15.1312 C   0  0  0  0  0  0  0  0  0  0  0  0
   18.0660  -21.6734  -15.7903 C   0  0  0  0  0  0  0  0  0  0  0  0
   19.3423  -20.5916  -12.4245 O   0  0  0  0  0  0  0  0  0  0  0  0
  2 12  2  0
  2  1  1  0
  3  2  1  0
  4  5  1  0
  4  3  2  0
  5 11  2  0
  6  5  1  0
  7  6  1  0
  7  8  1  6
  9  7  1  0
 10  9  2  0
 11 12  1  0
 13 14  1  0
 14 15  1  0
 15 17  1  0
 15 16  1  1
 17 19  1  0
 17 18  1  6
 18  9  1  0
 19 28  1  0
 20 19  2  0
 22 21  1  0
 23 22  2  0
 24 23  1  0
 25 24  2  0
 25 31  1  0
 26 25  1  0
 27 29  1  0
 27 26  1  6
 28 27  1  0
 29 30  2  0
 29 33  1  0
 31 32  2  0
 32 22  1  0
M  END
$$$$
