YIY.pdb
     RDKit          3D

 33 34  0  0  1  0  0  0  0  0999 V2000
   33.2339  -37.2523  -21.6022 O   0  0  0  0  0  0  0  0  0  0  0  0
   33.4657  -35.9535  -21.1271 C   0  0  0  0  0  0  0  0  0  0  0  0
   32.5185  -35.2777  -20.3895 C   0  0  0  0  0  0  0  0  0  0  0  0
   32.7722  -33.9907  -19.9296 C   0  0  0  0  0  0  0  0  0  0  0  0
   33.9665  -33.3529  -20.1925 C   0  0  0  0  0  0  0  0  0  0  0  0
   34.1860  -32.0004  -19.6877 C   0  0  0  0  0  0  0  0  0  0  0  0
   35.1460  -31.9344  -18.5267 C   0  0  2  0  0  0  0  0  0  0  0  0
   34.4973  -32.2913  -17.2790 N   0  0  0  0  0  0  0  0  0  0  0  0
   35.5432  -30.4885  -18.3917 C   0  0  0  0  0  0  0  0  0  0  0  0
   34.8977  -29.8135  -17.5412 O   0  0  0  0  0  0  0  0  0  0  0  0
   34.8911  -34.0591  -20.9333 C   0  0  0  0  0  0  0  0  0  0  0  0
   34.6499  -35.3366  -21.3946 C   0  0  0  0  0  0  0  0  0  0  0  0
   40.7498  -28.9813  -19.0362 C   0  0  0  0  0  0  0  0  0  0  0  0
   39.3305  -29.0384  -18.6101 C   0  0  0  0  0  0  0  0  0  0  0  0
   38.3133  -28.2966  -19.3579 C   0  0  2  0  0  0  0  0  0  0  0  0
   38.7450  -26.8124  -19.3391 C   0  0  0  0  0  0  0  0  0  0  0  0
   36.8987  -28.4501  -19.0210 C   0  0  2  0  0  0  0  0  0  0  0  0
   36.5509  -29.9014  -19.1390 N   0  0  0  0  0  0  0  0  0  0  0  0
   35.9377  -27.7912  -19.8850 C   0  0  0  0  0  0  0  0  0  0  0  0
   35.3464  -28.4654  -20.8164 O   0  0  0  0  0  0  0  0  0  0  0  0
   29.2709  -25.0661  -24.3216 O   0  0  0  0  0  0  0  0  0  0  0  0
   30.2636  -25.4744  -23.4561 C   0  0  0  0  0  0  0  0  0  0  0  0
   31.2776  -26.3402  -23.8302 C   0  0  0  0  0  0  0  0  0  0  0  0
   32.2636  -26.7399  -22.9537 C   0  0  0  0  0  0  0  0  0  0  0  0
   32.2700  -26.2864  -21.6685 C   0  0  0  0  0  0  0  0  0  0  0  0
   33.2997  -26.6875  -20.6920 C   0  0  0  0  0  0  0  0  0  0  0  0
   34.6097  -25.9117  -20.8433 C   0  0  2  0  0  0  0  0  0  0  0  0
   35.5201  -26.4232  -19.8348 N   0  0  0  0  0  0  0  0  0  0  0  0
   34.3674  -24.4903  -20.7066 C   0  0  0  0  0  0  0  0  0  0  0  0
   34.4499  -23.8786  -19.6242 O   0  0  0  0  0  0  0  0  0  0  0  0
   31.2778  -25.4242  -21.2608 C   0  0  0  0  0  0  0  0  0  0  0  0
   30.2823  -25.0188  -22.1403 C   0  0  0  0  0  0  0  0  0  0  0  0
   34.0201  -23.7073  -21.8136 O   0  0  0  0  0  0  0  0  0  0  0  0
  2 12  2  0
  2  1  1  0
  3  2  1  0
  4  5  1  0
  4  3  2  0
  5 11  2  0
  6  5  1  0
  7  6  1  0
  7  8  1  1
  9  7  1  0
 10  9  2  0
 11 12  1  0
 13 14  1  0
 14 15  1  0
 15 17  1  0
 15 16  1  1
 17 19  1  0
 17 18  1  6
 18  9  1  0
 19 28  1  0
 20 19  2  0
 22 21  1  0
 23 22  2  0
 24 23  1  0
 25 24  2  0
 25 31  1  0
 26 25  1  0
 27 29  1  0
 27 26  1  1
 28 27  1  0
 29 30  2  0
 29 33  1  0
 31 32  2  0
 32 22  1  0
M  END
$$$$
