YIY.pdb
     RDKit          3D

 33 34  0  0  1  0  0  0  0  0999 V2000
   17.0485  -17.1082  -15.1151 O   0  0  0  0  0  0  0  0  0  0  0  0
   17.4903  -15.8001  -15.3602 C   0  0  0  0  0  0  0  0  0  0  0  0
   18.8238  -15.5167  -15.5586 C   0  0  0  0  0  0  0  0  0  0  0  0
   19.2369  -14.2115  -15.7998 C   0  0  0  0  0  0  0  0  0  0  0  0
   18.3372  -13.1673  -15.8484 C   0  0  0  0  0  0  0  0  0  0  0  0
   18.8200  -11.8133  -16.1049 C   0  0  0  0  0  0  0  0  0  0  0  0
   18.3931  -11.2599  -17.4411 C   0  0  2  0  0  0  0  0  0  0  0  0
   19.0587  -11.9404  -18.5360 N   0  0  0  0  0  0  0  0  0  0  0  0
   18.8773   -9.8348  -17.4797 C   0  0  0  0  0  0  0  0  0  0  0  0
   20.0505   -9.6596  -17.9137 O   0  0  0  0  0  0  0  0  0  0  0  0
   17.0112  -13.4877  -15.6454 C   0  0  0  0  0  0  0  0  0  0  0  0
   16.5902  -14.7793  -15.4052 C   0  0  0  0  0  0  0  0  0  0  0  0
   15.3699   -6.7343  -19.0462 C   0  0  0  0  0  0  0  0  0  0  0  0
   16.8392   -6.6071  -18.8901 C   0  0  0  0  0  0  0  0  0  0  0  0
   17.4258   -6.5138  -17.5517 C   0  0  2  0  0  0  0  0  0  0  0  0
   17.7001   -5.0146  -17.2925 C   0  0  0  0  0  0  0  0  0  0  0  0
   18.5784   -7.3410  -17.1973 C   0  0  2  0  0  0  0  0  0  0  0  0
   18.1090   -8.7570  -17.0715 N   0  0  0  0  0  0  0  0  0  0  0  0
   19.2185   -7.0727  -15.9236 C   0  0  0  0  0  0  0  0  0  0  0  0
   18.5844   -7.3187  -14.8240 O   0  0  0  0  0  0  0  0  0  0  0  0
   26.1858   -5.2733  -17.9910 O   0  0  0  0  0  0  0  0  0  0  0  0
   25.2544   -5.6597  -17.0506 C   0  0  0  0  0  0  0  0  0  0  0  0
   24.9814   -4.9174  -15.9139 C   0  0  0  0  0  0  0  0  0  0  0  0
   24.0472   -5.3164  -14.9822 C   0  0  0  0  0  0  0  0  0  0  0  0
   23.3513   -6.4754  -15.1551 C   0  0  0  0  0  0  0  0  0  0  0  0
   22.3453   -6.9475  -14.1857 C   0  0  0  0  0  0  0  0  0  0  0  0
   20.9822   -6.2732  -14.3537 C   0  0  2  0  0  0  0  0  0  0  0  0
   20.5360   -6.5578  -15.7055 N   0  0  0  0  0  0  0  0  0  0  0  0
   21.0911   -4.8533  -14.0895 C   0  0  0  0  0  0  0  0  0  0  0  0
   20.8736   -3.9749  -14.9460 O   0  0  0  0  0  0  0  0  0  0  0  0
   23.5959   -7.2395  -16.2733 C   0  0  0  0  0  0  0  0  0  0  0  0
   24.5362   -6.8415  -17.2148 C   0  0  0  0  0  0  0  0  0  0  0  0
   21.4546   -4.3803  -12.8233 O   0  0  0  0  0  0  0  0  0  0  0  0
  2 12  2  0
  2  1  1  0
  3  2  1  0
  4  5  1  0
  4  3  2  0
  5 11  2  0
  6  5  1  0
  7  6  1  0
  7  8  1  6
  9  7  1  0
 10  9  2  0
 11 12  1  0
 13 14  1  0
 14 15  1  0
 15 17  1  0
 15 16  1  6
 17 19  1  0
 17 18  1  1
 18  9  1  0
 19 28  1  0
 20 19  2  0
 22 21  1  0
 23 22  2  0
 24 23  1  0
 25 24  2  0
 25 31  1  0
 26 25  1  0
 27 29  1  0
 27 26  1  6
 28 27  1  0
 29 30  2  0
 29 33  1  0
 31 32  2  0
 32 22  1  0
M  END
$$$$
