YIY.pdb
     RDKit          3D

 33 34  0  0  1  0  0  0  0  0999 V2000
   14.5636  -12.7539  -20.2193 O   0  0  0  0  0  0  0  0  0  0  0  0
   15.1788  -12.2364  -19.0703 C   0  0  0  0  0  0  0  0  0  0  0  0
   15.3034  -10.8790  -18.8706 C   0  0  0  0  0  0  0  0  0  0  0  0
   15.9175  -10.3906  -17.7231 C   0  0  0  0  0  0  0  0  0  0  0  0
   16.4173  -11.2375  -16.7561 C   0  0  0  0  0  0  0  0  0  0  0  0
   17.0540  -10.6763  -15.5679 C   0  0  0  0  0  0  0  0  0  0  0  0
   18.4987  -10.2974  -15.7753 C   0  0  2  0  0  0  0  0  0  0  0  0
   19.3390  -11.4698  -15.9319 N   0  0  0  0  0  0  0  0  0  0  0  0
   18.9454   -9.6312  -14.5012 C   0  0  0  0  0  0  0  0  0  0  0  0
   19.2189  -10.4024  -13.5389 O   0  0  0  0  0  0  0  0  0  0  0  0
   16.2752  -12.5895  -16.9891 C   0  0  0  0  0  0  0  0  0  0  0  0
   15.6676  -13.0850  -18.1241 C   0  0  0  0  0  0  0  0  0  0  0  0
   22.6665   -8.2027  -13.5870 C   0  0  0  0  0  0  0  0  0  0  0  0
   21.8758   -7.1063  -14.1973 C   0  0  0  0  0  0  0  0  0  0  0  0
   20.6416   -6.6509  -13.5543 C   0  0  2  0  0  0  0  0  0  0  0  0
   21.0645   -5.7251  -12.3908 C   0  0  0  0  0  0  0  0  0  0  0  0
   19.6345   -7.6226  -13.1303 C   0  0  2  0  0  0  0  0  0  0  0  0
   19.0606   -8.2583  -14.3582 N   0  0  0  0  0  0  0  0  0  0  0  0
   18.4729   -7.1086  -12.4300 C   0  0  0  0  0  0  0  0  0  0  0  0
   17.6665   -6.2994  -13.0355 O   0  0  0  0  0  0  0  0  0  0  0  0
   11.1831   -6.1407   -7.6316 O   0  0  0  0  0  0  0  0  0  0  0  0
   12.3759   -6.5718   -8.1725 C   0  0  0  0  0  0  0  0  0  0  0  0
   13.5670   -6.5667   -7.4661 C   0  0  0  0  0  0  0  0  0  0  0  0
   14.7521   -7.0008   -8.0201 C   0  0  0  0  0  0  0  0  0  0  0  0
   14.7877   -7.4566   -9.3041 C   0  0  0  0  0  0  0  0  0  0  0  0
   16.0304   -7.9276   -9.9433 C   0  0  0  0  0  0  0  0  0  0  0  0
   16.8609   -6.7971  -10.5541 C   0  0  2  0  0  0  0  0  0  0  0  0
   18.0666   -7.4030  -11.0896 N   0  0  0  0  0  0  0  0  0  0  0  0
   17.1410   -5.7866   -9.5550 C   0  0  0  0  0  0  0  0  0  0  0  0
   16.3808   -4.8299   -9.3113 O   0  0  0  0  0  0  0  0  0  0  0  0
   13.6231   -7.4765  -10.0371 C   0  0  0  0  0  0  0  0  0  0  0  0
   12.4266   -7.0402   -9.4831 C   0  0  0  0  0  0  0  0  0  0  0  0
   18.3112   -5.8339   -8.7885 O   0  0  0  0  0  0  0  0  0  0  0  0
  2 12  2  0
  2  1  1  0
  3  2  1  0
  4  5  1  0
  4  3  2  0
  5 11  2  0
  6  5  1  0
  7  6  1  0
  7  8  1  1
  9  7  1  0
 10  9  2  0
 11 12  1  0
 13 14  1  0
 14 15  1  0
 15 17  1  0
 15 16  1  1
 17 19  1  0
 17 18  1  6
 18  9  1  0
 19 28  1  0
 20 19  2  0
 22 21  1  0
 23 22  2  0
 24 23  1  0
 25 24  2  0
 25 31  1  0
 26 25  1  0
 27 29  1  0
 27 26  1  1
 28 27  1  0
 29 30  2  0
 29 33  1  0
 31 32  2  0
 32 22  1  0
M  END
$$$$
