KTS.pdb
     RDKit          3D

 23 22  0  0  1  0  0  0  0  0999 V2000
   24.5136  -20.2671  -15.4184 N   0  0  0  0  0  0  0  0  0  0  0  0
   23.9589  -19.2302  -16.2676 C   0  0  1  0  0  0  0  0  0  0  0  0
   22.6022  -19.6530  -16.7202 C   0  0  0  0  0  0  0  0  0  0  0  0
   22.6065  -21.0739  -17.1894 C   0  0  0  0  0  0  0  0  0  0  0  0
   21.3374  -21.4572  -17.8869 C   0  0  0  0  0  0  0  0  0  0  0  0
   21.4020  -22.9333  -18.2730 C   0  0  0  0  0  0  0  0  0  0  0  0
   20.2127  -23.3762  -18.9364 N   0  0  0  0  0  0  0  0  0  0  0  0
   23.9468  -17.9676  -15.5025 C   0  0  0  0  0  0  0  0  0  0  0  0
   23.6790  -17.9068  -14.2740 O   0  0  0  0  0  0  0  0  0  0  0  0
   26.6258  -15.8868  -14.6608 C   0  0  0  0  0  0  0  0  0  0  0  0
   25.7584  -15.0078  -15.5323 C   0  0  1  0  0  0  0  0  0  0  0  0
   26.1726  -15.1216  -16.8487 O   0  0  0  0  0  0  0  0  0  0  0  0
   24.3181  -15.4802  -15.4262 C   0  0  2  0  0  0  0  0  0  0  0  0
   24.2453  -16.7513  -16.1490 N   0  0  0  0  0  0  0  0  0  0  0  0
   23.4065  -14.5267  -16.0943 C   0  0  0  0  0  0  0  0  0  0  0  0
   23.0873  -14.6917  -17.2946 O   0  0  0  0  0  0  0  0  0  0  0  0
   19.9734  -11.2654  -15.8065 O   0  0  0  0  0  0  0  0  0  0  0  0
   20.8694  -12.0998  -15.1389 C   0  0  0  0  0  0  0  0  0  0  0  0
   21.9216  -12.5381  -16.1330 C   0  0  2  0  0  0  0  0  0  0  0  0
   22.8550  -13.3956  -15.4245 N   0  0  0  0  0  0  0  0  0  0  0  0
   22.6530  -11.3641  -16.6679 C   0  0  0  0  0  0  0  0  0  0  0  0
   23.7635  -11.0220  -16.1793 O   0  0  0  0  0  0  0  0  0  0  0  0
   22.1271  -10.6244  -17.7134 O   0  0  0  0  0  0  0  0  0  0  0  0
  2  1  1  1
  2  3  1  0
  2  8  1  0
  4  3  1  0
  5  4  1  0
  5  6  1  0
  6  7  1  0
  8  9  2  0
 11 10  1  1
 11 13  1  0
 12 11  1  0
 13 15  1  0
 13 14  1  6
 14  8  1  0
 15 20  1  0
 15 16  2  0
 18 17  1  0
 19 18  1  1
 19 21  1  0
 20 19  1  0
 21 22  2  0
 21 23  1  0
M  END
$$$$
