KTS.pdb
     RDKit          3D

 23 22  0  0  1  0  0  0  0  0999 V2000
   17.8888  -26.8084   -6.0458 N   0  0  0  0  0  0  0  0  0  0  0  0
   17.5231  -25.4271   -5.7966 C   0  0  1  0  0  0  0  0  0  0  0  0
   18.3257  -24.5470   -6.6940 C   0  0  0  0  0  0  0  0  0  0  0  0
   18.1040  -24.8944   -8.1325 C   0  0  0  0  0  0  0  0  0  0  0  0
   18.9724  -24.1010   -9.0602 C   0  0  0  0  0  0  0  0  0  0  0  0
   18.5889  -24.4196  -10.5036 C   0  0  0  0  0  0  0  0  0  0  0  0
   19.3615  -23.6735  -11.4507 N   0  0  0  0  0  0  0  0  0  0  0  0
   16.0675  -25.2928   -6.0042 C   0  0  0  0  0  0  0  0  0  0  0  0
   15.3789  -26.1369   -6.6349 O   0  0  0  0  0  0  0  0  0  0  0  0
   13.5989  -24.1431   -3.1497 C   0  0  0  0  0  0  0  0  0  0  0  0
   13.4862  -23.2503   -4.3641 C   0  0  1  0  0  0  0  0  0  0  0  0
   14.3183  -22.1553   -4.2030 O   0  0  0  0  0  0  0  0  0  0  0  0
   13.9306  -24.0309   -5.5898 C   0  0  2  0  0  0  0  0  0  0  0  0
   15.3836  -24.1759   -5.4835 N   0  0  0  0  0  0  0  0  0  0  0  0
   13.6406  -23.2710   -6.8248 C   0  0  0  0  0  0  0  0  0  0  0  0
   14.5647  -22.6965   -7.4458 O   0  0  0  0  0  0  0  0  0  0  0  0
   11.3575  -22.5299  -10.7769 O   0  0  0  0  0  0  0  0  0  0  0  0
   11.5599  -23.2827   -9.6207 C   0  0  0  0  0  0  0  0  0  0  0  0
   12.1174  -22.3599   -8.5598 C   0  0  2  0  0  0  0  0  0  0  0  0
   12.3254  -23.1542   -7.3622 N   0  0  0  0  0  0  0  0  0  0  0  0
   11.1550  -21.2726   -8.2584 C   0  0  0  0  0  0  0  0  0  0  0  0
   10.2318  -21.4466   -7.4179 O   0  0  0  0  0  0  0  0  0  0  0  0
   11.2553  -20.0477   -8.8961 O   0  0  0  0  0  0  0  0  0  0  0  0
  2  1  1  6
  2  3  1  0
  2  8  1  0
  4  3  1  0
  5  4  1  0
  5  6  1  0
  6  7  1  0
  8  9  2  0
 11 10  1  1
 11 13  1  0
 12 11  1  0
 13 15  1  0
 13 14  1  1
 14  8  1  0
 15 20  1  0
 15 16  2  0
 18 17  1  0
 19 18  1  6
 19 21  1  0
 20 19  1  0
 21 22  2  0
 21 23  1  0
M  END
$$$$
