KTS.pdb
     RDKit          3D

 23 22  0  0  1  0  0  0  0  0999 V2000
   17.2328  -12.7491  -16.9973 N   0  0  0  0  0  0  0  0  0  0  0  0
   17.0936  -11.3422  -16.6729 C   0  0  1  0  0  0  0  0  0  0  0  0
   16.4058  -11.2175  -15.3554 C   0  0  0  0  0  0  0  0  0  0  0  0
   15.0308  -11.8056  -15.4049 C   0  0  0  0  0  0  0  0  0  0  0  0
   14.2092  -11.4592  -14.2011 C   0  0  0  0  0  0  0  0  0  0  0  0
   12.7674  -11.9070  -14.4306 C   0  0  0  0  0  0  0  0  0  0  0  0
   11.9448  -11.7111  -13.2748 N   0  0  0  0  0  0  0  0  0  0  0  0
   18.4384  -10.7330  -16.6841 C   0  0  0  0  0  0  0  0  0  0  0  0
   19.4847  -11.3631  -16.3791 O   0  0  0  0  0  0  0  0  0  0  0  0
   20.0251   -9.0148  -19.5516 C   0  0  0  0  0  0  0  0  0  0  0  0
   19.9661   -7.9987  -18.4342 C   0  0  1  0  0  0  0  0  0  0  0  0
   18.8214   -7.2324  -18.5756 O   0  0  0  0  0  0  0  0  0  0  0  0
   19.9063   -8.7335  -17.1055 C   0  0  2  0  0  0  0  0  0  0  0  0
   18.5944   -9.3809  -17.0494 N   0  0  0  0  0  0  0  0  0  0  0  0
   19.9891   -7.7797  -15.9785 C   0  0  0  0  0  0  0  0  0  0  0  0
   18.9611   -7.1900  -15.5720 O   0  0  0  0  0  0  0  0  0  0  0  0
   22.2574   -6.2304  -12.0982 O   0  0  0  0  0  0  0  0  0  0  0  0
   22.2272   -7.1086  -13.1809 C   0  0  0  0  0  0  0  0  0  0  0  0
   21.2001   -6.5943  -14.1650 C   0  0  2  0  0  0  0  0  0  0  0  0
   21.2137   -7.4871  -15.3100 N   0  0  0  0  0  0  0  0  0  0  0  0
   21.5502   -5.2252  -14.6144 C   0  0  0  0  0  0  0  0  0  0  0  0
   22.2375   -5.0472  -15.6561 O   0  0  0  0  0  0  0  0  0  0  0  0
   21.1275   -4.1195  -13.8964 O   0  0  0  0  0  0  0  0  0  0  0  0
  2  1  1  1
  2  3  1  0
  2  8  1  0
  4  3  1  0
  5  4  1  0
  5  6  1  0
  6  7  1  0
  8  9  2  0
 11 10  1  6
 11 13  1  0
 12 11  1  0
 13 15  1  0
 13 14  1  1
 14  8  1  0
 15 20  1  0
 15 16  2  0
 18 17  1  0
 19 18  1  1
 19 21  1  0
 20 19  1  0
 21 22  2  0
 21 23  1  0
M  END
$$$$
