KTS.pdb
     RDKit          3D

 23 22  0  0  1  0  0  0  0  0999 V2000
   14.1970  -13.5974  -12.2063 N   0  0  0  0  0  0  0  0  0  0  0  0
   13.8075  -12.2008  -12.2500 C   0  0  1  0  0  0  0  0  0  0  0  0
   12.4869  -12.0478  -11.5741 C   0  0  0  0  0  0  0  0  0  0  0  0
   11.4415  -12.8935  -12.2308 C   0  0  0  0  0  0  0  0  0  0  0  0
   10.6148  -13.6612  -11.2453 C   0  0  0  0  0  0  0  0  0  0  0  0
    9.5076  -14.4048  -11.9891 C   0  0  0  0  0  0  0  0  0  0  0  0
    8.6815  -15.1753  -11.1091 N   0  0  0  0  0  0  0  0  0  0  0  0
   14.8779  -11.4054  -11.6166 C   0  0  0  0  0  0  0  0  0  0  0  0
   15.6007  -11.8401  -10.6821 O   0  0  0  0  0  0  0  0  0  0  0  0
   17.9128  -10.2331  -12.8593 C   0  0  0  0  0  0  0  0  0  0  0  0
   17.1787   -8.9545  -12.5264 C   0  0  1  0  0  0  0  0  0  0  0  0
   16.5193   -8.5007  -13.6563 O   0  0  0  0  0  0  0  0  0  0  0  0
   16.1550   -9.2447  -11.4415 C   0  0  2  0  0  0  0  0  0  0  0  0
   15.1297  -10.0901  -12.0558 N   0  0  0  0  0  0  0  0  0  0  0  0
   15.5028   -7.9955  -10.9931 C   0  0  0  0  0  0  0  0  0  0  0  0
   14.4384   -7.6097  -11.5297 O   0  0  0  0  0  0  0  0  0  0  0  0
   16.7903   -6.0707   -7.7486 O   0  0  0  0  0  0  0  0  0  0  0  0
   15.4905   -5.7388   -8.1293 C   0  0  0  0  0  0  0  0  0  0  0  0
   15.3847   -5.9272   -9.6263 C   0  0  2  0  0  0  0  0  0  0  0  0
   16.0375   -7.1828   -9.9511 N   0  0  0  0  0  0  0  0  0  0  0  0
   16.0740   -4.8245  -10.3392 C   0  0  0  0  0  0  0  0  0  0  0  0
   17.1186   -5.0467  -11.0088 O   0  0  0  0  0  0  0  0  0  0  0  0
   15.5807   -3.5322  -10.2806 O   0  0  0  0  0  0  0  0  0  0  0  0
  2  1  1  1
  2  3  1  0
  2  8  1  0
  4  3  1  0
  5  4  1  0
  5  6  1  0
  6  7  1  0
  8  9  2  0
 11 10  1  6
 11 13  1  0
 12 11  1  0
 13 15  1  0
 13 14  1  6
 14  8  1  0
 15 20  1  0
 15 16  2  0
 18 17  1  0
 19 18  1  1
 19 21  1  0
 20 19  1  0
 21 22  2  0
 21 23  1  0
M  END
$$$$
