KTS.pdb
     RDKit          3D

 23 22  0  0  1  0  0  0  0  0999 V2000
   23.1042  -17.1341  -16.8139 N   0  0  0  0  0  0  0  0  0  0  0  0
   21.8784  -16.5259  -16.3329 C   0  0  1  0  0  0  0  0  0  0  0  0
   21.1013  -17.5459  -15.5713 C   0  0  0  0  0  0  0  0  0  0  0  0
   20.7160  -18.6970  -16.4462 C   0  0  0  0  0  0  0  0  0  0  0  0
   19.9786  -19.7682  -15.7025 C   0  0  0  0  0  0  0  0  0  0  0  0
   19.4923  -20.8241  -16.6927 C   0  0  0  0  0  0  0  0  0  0  0  0
   18.8942  -21.9496  -16.0400 N   0  0  0  0  0  0  0  0  0  0  0  0
   22.2386  -15.3470  -15.5204 C   0  0  0  0  0  0  0  0  0  0  0  0
   21.9685  -15.2437  -14.2953 O   0  0  0  0  0  0  0  0  0  0  0  0
   25.5564  -13.9882  -14.8166 C   0  0  0  0  0  0  0  0  0  0  0  0
   24.8181  -12.9155  -15.5838 C   0  0  1  0  0  0  0  0  0  0  0  0
   25.0809  -13.0599  -16.9357 O   0  0  0  0  0  0  0  0  0  0  0  0
   23.3261  -13.0844  -15.3509 C   0  0  2  0  0  0  0  0  0  0  0  0
   22.9193  -14.2654  -16.1146 N   0  0  0  0  0  0  0  0  0  0  0  0
   22.5810  -11.9228  -15.8824 C   0  0  0  0  0  0  0  0  0  0  0  0
   22.0998  -11.9552  -17.0387 O   0  0  0  0  0  0  0  0  0  0  0  0
   20.7359   -9.3585  -13.5273 O   0  0  0  0  0  0  0  0  0  0  0  0
   21.3094   -8.6632  -14.5913 C   0  0  0  0  0  0  0  0  0  0  0  0
   21.5856   -9.6567  -15.6978 C   0  0  2  0  0  0  0  0  0  0  0  0
   22.3752  -10.7325  -15.1255 N   0  0  0  0  0  0  0  0  0  0  0  0
   22.3584   -9.0172  -16.7901 C   0  0  0  0  0  0  0  0  0  0  0  0
   23.5499   -9.3590  -17.0193 O   0  0  0  0  0  0  0  0  0  0  0  0
   21.7829   -8.0335  -17.5764 O   0  0  0  0  0  0  0  0  0  0  0  0
  2  1  1  1
  2  3  1  0
  2  8  1  0
  4  3  1  0
  5  4  1  0
  5  6  1  0
  6  7  1  0
  8  9  2  0
 11 10  1  1
 11 13  1  0
 12 11  1  0
 13 15  1  0
 13 14  1  6
 14  8  1  0
 15 20  1  0
 15 16  2  0
 18 17  1  0
 19 18  1  1
 19 21  1  0
 20 19  1  0
 21 22  2  0
 21 23  1  0
M  END
$$$$
