KTS.pdb
     RDKit          3D

 23 22  0  0  1  0  0  0  0  0999 V2000
   19.7781  -13.6070  -16.0824 N   0  0  0  0  0  0  0  0  0  0  0  0
   19.2858  -12.3146  -16.5198 C   0  0  1  0  0  0  0  0  0  0  0  0
   17.7950  -12.3504  -16.5446 C   0  0  0  0  0  0  0  0  0  0  0  0
   17.2933  -13.6754  -17.0259 C   0  0  0  0  0  0  0  0  0  0  0  0
   15.8091  -13.6938  -17.2285 C   0  0  0  0  0  0  0  0  0  0  0  0
   15.3933  -15.0572  -17.7765 C   0  0  0  0  0  0  0  0  0  0  0  0
   13.9815  -15.1486  -17.9978 N   0  0  0  0  0  0  0  0  0  0  0  0
   19.8253  -11.2854  -15.6091 C   0  0  0  0  0  0  0  0  0  0  0  0
   19.7495  -11.3644  -14.3551 O   0  0  0  0  0  0  0  0  0  0  0  0
   23.0064  -10.4469  -14.7451 C   0  0  0  0  0  0  0  0  0  0  0  0
   22.5278   -9.1808  -15.4177 C   0  0  1  0  0  0  0  0  0  0  0  0
   22.8552   -9.2278  -16.7623 O   0  0  0  0  0  0  0  0  0  0  0  0
   21.0169   -9.0938  -15.2812 C   0  0  2  0  0  0  0  0  0  0  0  0
   20.4630  -10.1447  -16.1368 N   0  0  0  0  0  0  0  0  0  0  0  0
   20.5224   -7.7937  -15.7832 C   0  0  0  0  0  0  0  0  0  0  0  0
   20.4139   -7.5910  -17.0148 O   0  0  0  0  0  0  0  0  0  0  0  0
   17.8548   -3.9887  -15.3774 O   0  0  0  0  0  0  0  0  0  0  0  0
   18.3358   -5.1777  -14.8301 C   0  0  0  0  0  0  0  0  0  0  0  0
   19.6645   -5.4839  -15.4847 C   0  0  2  0  0  0  0  0  0  0  0  0
   20.1514   -6.7269  -14.9136 N   0  0  0  0  0  0  0  0  0  0  0  0
   20.6434   -4.4058  -15.2039 C   0  0  0  0  0  0  0  0  0  0  0  0
   21.4561   -4.5098  -14.2459 O   0  0  0  0  0  0  0  0  0  0  0  0
   20.6802   -3.2668  -15.9902 O   0  0  0  0  0  0  0  0  0  0  0  0
  2  1  1  1
  2  3  1  0
  2  8  1  0
  4  3  1  0
  5  4  1  0
  5  6  1  0
  6  7  1  0
  8  9  2  0
 11 10  1  1
 11 13  1  0
 12 11  1  0
 13 15  1  0
 13 14  1  6
 14  8  1  0
 15 20  1  0
 15 16  2  0
 18 17  1  0
 19 18  1  1
 19 21  1  0
 20 19  1  0
 21 22  2  0
 21 23  1  0
M  END
$$$$
