KTS.pdb
     RDKit          3D

 23 22  0  0  1  0  0  0  0  0999 V2000
   22.0004  -21.2390   -9.4654 N   0  0  0  0  0  0  0  0  0  0  0  0
   21.6014  -21.6577  -10.7956 C   0  0  1  0  0  0  0  0  0  0  0  0
   20.4729  -22.6256  -10.6776 C   0  0  0  0  0  0  0  0  0  0  0  0
   19.9060  -22.6299   -9.2928 C   0  0  0  0  0  0  0  0  0  0  0  0
   18.7499  -23.5707   -9.1433 C   0  0  0  0  0  0  0  0  0  0  0  0
   18.1007  -23.3566   -7.7777 C   0  0  0  0  0  0  0  0  0  0  0  0
   18.3114  -24.4635   -6.8940 N   0  0  0  0  0  0  0  0  0  0  0  0
   21.2509  -20.4513  -11.5711 C   0  0  0  0  0  0  0  0  0  0  0  0
   21.0287  -19.3307  -11.0424 O   0  0  0  0  0  0  0  0  0  0  0  0
   23.2219  -18.7778  -14.1389 C   0  0  0  0  0  0  0  0  0  0  0  0
   21.9610  -19.2480  -14.8271 C   0  0  1  0  0  0  0  0  0  0  0  0
   22.1814  -20.5003  -15.3752 O   0  0  0  0  0  0  0  0  0  0  0  0
   20.8485  -19.3496  -13.7970 C   0  0  2  0  0  0  0  0  0  0  0  0
   21.1518  -20.5226  -12.9751 N   0  0  0  0  0  0  0  0  0  0  0  0
   19.5465  -19.5841  -14.4578 C   0  0  0  0  0  0  0  0  0  0  0  0
   19.1808  -20.7488  -14.7397 O   0  0  0  0  0  0  0  0  0  0  0  0
   17.3013  -16.4912  -15.3162 O   0  0  0  0  0  0  0  0  0  0  0  0
   16.5042  -17.6353  -15.3235 C   0  0  0  0  0  0  0  0  0  0  0  0
   17.4148  -18.8324  -15.4829 C   0  0  2  0  0  0  0  0  0  0  0  0
   18.6588  -18.5229  -14.8011 N   0  0  0  0  0  0  0  0  0  0  0  0
   17.6980  -19.0831  -16.9168 C   0  0  0  0  0  0  0  0  0  0  0  0
   18.8370  -18.8394  -17.3988 O   0  0  0  0  0  0  0  0  0  0  0  0
   16.7149  -19.5894  -17.7500 O   0  0  0  0  0  0  0  0  0  0  0  0
  2  1  1  1
  2  3  1  0
  2  8  1  0
  4  3  1  0
  5  4  1  0
  5  6  1  0
  6  7  1  0
  8  9  2  0
 11 10  1  1
 11 13  1  0
 12 11  1  0
 13 15  1  0
 13 14  1  1
 14  8  1  0
 15 20  1  0
 15 16  2  0
 18 17  1  0
 19 18  1  6
 19 21  1  0
 20 19  1  0
 21 22  2  0
 21 23  1  0
M  END
$$$$
