PPH.pdb
     RDKit          3D

 25 27  0  0  1  0  0  0  0  0999 V2000
   28.5305  -20.7267  -14.8032 N   0  0  0  0  0  0  0  0  0  0  0  0
   27.7554  -19.9490  -15.7346 C   0  0  0  0  0  0  0  0  0  0  0  0
   27.1859  -18.7871  -14.9838 C   0  0  0  0  0  0  0  0  0  0  0  0
   27.8302  -18.9236  -13.5947 C   0  0  0  0  0  0  0  0  0  0  0  0
   27.9799  -20.4267  -13.4951 C   0  0  1  0  0  0  0  0  0  0  0  0
   26.6430  -21.0686  -13.3057 C   0  0  0  0  0  0  0  0  0  0  0  0
   26.2947  -21.9194  -14.2071 O   0  0  0  0  0  0  0  0  0  0  0  0
   25.7990  -20.7802  -12.2193 N   0  0  0  0  0  0  0  0  0  0  0  0
   25.9949  -19.7101  -11.2715 C   0  0  0  0  0  0  0  0  0  0  0  0
   25.7700  -20.4873   -9.9636 C   0  0  0  0  0  0  0  0  0  0  0  0
   24.6952  -21.4895  -10.3248 C   0  0  0  0  0  0  0  0  0  0  0  0
   24.5905  -21.4391  -11.8401 C   0  0  1  0  0  0  0  0  0  0  0  0
   23.3709  -20.7124  -12.2949 C   0  0  0  0  0  0  0  0  0  0  0  0
   23.3509  -19.4669  -12.1145 O   0  0  0  0  0  0  0  0  0  0  0  0
   22.2499  -21.3039  -12.9037 N   0  0  0  0  0  0  0  0  0  0  0  0
   21.1493  -20.5473  -13.4750 C   0  0  1  0  0  0  0  0  0  0  0  0
   20.8913  -20.9823  -14.9122 C   0  0  0  0  0  0  0  0  0  0  0  0
   22.1077  -20.9379  -15.7500 C   0  0  0  0  0  0  0  0  0  0  0  0
   22.7218  -19.8236  -16.2603 C   0  0  0  0  0  0  0  0  0  0  0  0
   23.7920  -20.1827  -16.9722 N   0  0  0  0  0  0  0  0  0  0  0  0
   23.8726  -21.5117  -16.9257 C   0  0  0  0  0  0  0  0  0  0  0  0
   22.8499  -21.9825  -16.1826 N   0  0  0  0  0  0  0  0  0  0  0  0
   19.9513  -20.5751  -12.6310 C   0  0  0  0  0  0  0  0  0  0  0  0
   19.7929  -21.3109  -11.4934 O   0  0  0  0  0  0  0  0  0  0  0  0
   18.9723  -19.8446  -12.9977 O   0  0  0  0  0  0  0  0  0  0  0  0
  1  2  1  0
  2  3  1  0
  4  3  1  0
  5  1  1  0
  5  4  1  0
  6  7  2  0
  5  6  1  6
  8  6  1  0
  9  8  1  0
  9 10  1  0
 11 10  1  0
 12  8  1  0
 12 11  1  0
 12 13  1  1
 14 13  2  0
 15 13  1  0
 16 15  1  0
 17 18  1  0
 16 17  1  6
 18 22  1  0
 19 20  1  0
 19 18  2  0
 20 21  1  0
 21 22  2  0
 23 16  1  0
 23 24  1  0
 25 23  2  0
M  END
$$$$
