PPH.pdb
     RDKit          3D

 25 27  0  0  1  0  0  0  0  0999 V2000
   28.1469  -20.9659  -14.5153 N   0  0  0  0  0  0  0  0  0  0  0  0
   27.2421  -20.1605  -15.2935 C   0  0  0  0  0  0  0  0  0  0  0  0
   27.0433  -18.8724  -14.5591 C   0  0  0  0  0  0  0  0  0  0  0  0
   28.0254  -18.9902  -13.3822 C   0  0  0  0  0  0  0  0  0  0  0  0
   28.0184  -20.4864  -13.1522 C   0  0  1  0  0  0  0  0  0  0  0  0
   26.7198  -20.9107  -12.5449 C   0  0  0  0  0  0  0  0  0  0  0  0
   26.0022  -21.7110  -13.2537 O   0  0  0  0  0  0  0  0  0  0  0  0
   26.2855  -20.4787  -11.2798 N   0  0  0  0  0  0  0  0  0  0  0  0
   26.9216  -19.4579  -10.4829 C   0  0  0  0  0  0  0  0  0  0  0  0
   26.9580  -20.1826   -9.1269 C   0  0  0  0  0  0  0  0  0  0  0  0
   25.6737  -20.9830   -9.1160 C   0  0  0  0  0  0  0  0  0  0  0  0
   25.1460  -20.9169  -10.5397 C   0  0  1  0  0  0  0  0  0  0  0  0
   23.9855  -19.9897  -10.6660 C   0  0  0  0  0  0  0  0  0  0  0  0
   24.2411  -18.7573  -10.6772 O   0  0  0  0  0  0  0  0  0  0  0  0
   22.6388  -20.3800  -10.7717 N   0  0  0  0  0  0  0  0  0  0  0  0
   21.8302  -20.1739  -11.9608 C   0  0  1  0  0  0  0  0  0  0  0  0
   22.5338  -20.7367  -13.1894 C   0  0  0  0  0  0  0  0  0  0  0  0
   21.7901  -20.4824  -14.4407 C   0  0  0  0  0  0  0  0  0  0  0  0
   20.6033  -19.8101  -14.5769 C   0  0  0  0  0  0  0  0  0  0  0  0
   20.2401  -19.7887  -15.8610 N   0  0  0  0  0  0  0  0  0  0  0  0
   21.1775  -20.4378  -16.5500 C   0  0  0  0  0  0  0  0  0  0  0  0
   22.1278  -20.8653  -15.6932 N   0  0  0  0  0  0  0  0  0  0  0  0
   20.4576  -20.6615  -11.7976 C   0  0  0  0  0  0  0  0  0  0  0  0
   19.3297  -19.8949  -11.8229 O   0  0  0  0  0  0  0  0  0  0  0  0
   20.3105  -21.9152  -11.6154 O   0  0  0  0  0  0  0  0  0  0  0  0
  1  2  1  0
  2  3  1  0
  4  3  1  0
  5  1  1  0
  5  4  1  0
  6  7  2  0
  5  6  1  6
  8  6  1  0
  9  8  1  0
  9 10  1  0
 11 10  1  0
 12  8  1  0
 12 11  1  0
 12 13  1  1
 14 13  2  0
 15 13  1  0
 16 15  1  0
 17 18  1  0
 16 17  1  6
 18 22  1  0
 19 20  1  0
 19 18  2  0
 20 21  1  0
 21 22  2  0
 23 16  1  0
 23 24  1  0
 25 23  2  0
M  END
$$$$
