PPH.pdb
     RDKit          3D

 25 27  0  0  1  0  0  0  0  0999 V2000
   21.2268  -11.7764  -16.2896 N   0  0  0  0  0  0  0  0  0  0  0  0
   19.8076  -11.5674  -16.4127 C   0  0  0  0  0  0  0  0  0  0  0  0
   19.5832  -10.7115  -17.6190 C   0  0  0  0  0  0  0  0  0  0  0  0
   20.9922  -10.5866  -18.2212 C   0  0  0  0  0  0  0  0  0  0  0  0
   21.8445  -10.6552  -16.9720 C   0  0  1  0  0  0  0  0  0  0  0  0
   21.7078   -9.3934  -16.1820 C   0  0  0  0  0  0  0  0  0  0  0  0
   20.9934   -9.4730  -15.1139 O   0  0  0  0  0  0  0  0  0  0  0  0
   22.3121   -8.1815  -16.5588 N   0  0  0  0  0  0  0  0  0  0  0  0
   22.9390   -7.9221  -17.8321 C   0  0  0  0  0  0  0  0  0  0  0  0
   24.2470   -7.2780  -17.3428 C   0  0  0  0  0  0  0  0  0  0  0  0
   23.8237   -6.4994  -16.1161 C   0  0  0  0  0  0  0  0  0  0  0  0
   22.4135   -6.9730  -15.8052 C   0  0  1  0  0  0  0  0  0  0  0  0
   21.3848   -5.9654  -16.1910 C   0  0  0  0  0  0  0  0  0  0  0  0
   21.0100   -5.9670  -17.3925 O   0  0  0  0  0  0  0  0  0  0  0  0
   20.8057   -5.0205  -15.3257 N   0  0  0  0  0  0  0  0  0  0  0  0
   19.7195   -4.1351  -15.7088 C   0  0  1  0  0  0  0  0  0  0  0  0
   18.4632   -4.4532  -14.9078 C   0  0  0  0  0  0  0  0  0  0  0  0
   17.8064   -5.7021  -15.3464 C   0  0  0  0  0  0  0  0  0  0  0  0
   18.2138   -6.5445  -16.3481 C   0  0  0  0  0  0  0  0  0  0  0  0
   17.3620   -7.5665  -16.4544 N   0  0  0  0  0  0  0  0  0  0  0  0
   16.4142   -7.3910  -15.5347 C   0  0  0  0  0  0  0  0  0  0  0  0
   16.6757   -6.2566  -14.8531 N   0  0  0  0  0  0  0  0  0  0  0  0
   20.1036   -2.7215  -15.6586 C   0  0  0  0  0  0  0  0  0  0  0  0
   19.3809   -1.6795  -16.1611 O   0  0  0  0  0  0  0  0  0  0  0  0
   21.2137   -2.4468  -15.0940 O   0  0  0  0  0  0  0  0  0  0  0  0
  1  2  1  0
  2  3  1  0
  4  3  1  0
  5  1  1  0
  5  4  1  0
  6  7  2  0
  5  6  1  1
  8  6  1  0
  9  8  1  0
  9 10  1  0
 11 10  1  0
 12  8  1  0
 12 11  1  0
 12 13  1  6
 14 13  2  0
 15 13  1  0
 16 15  1  0
 17 18  1  0
 16 17  1  1
 18 22  1  0
 19 20  1  0
 19 18  2  0
 20 21  1  0
 21 22  2  0
 23 16  1  0
 23 24  1  0
 25 23  2  0
M  END
$$$$
