PPH.pdb
     RDKit          3D

 25 27  0  0  1  0  0  0  0  0999 V2000
   27.9034   -9.1582  -20.1393 N   0  0  0  0  0  0  0  0  0  0  0  0
   27.4838   -7.7809  -20.1403 C   0  0  0  0  0  0  0  0  0  0  0  0
   27.8037   -7.2136  -18.7934 C   0  0  0  0  0  0  0  0  0  0  0  0
   28.5591   -8.3621  -18.1050 C   0  0  0  0  0  0  0  0  0  0  0  0
   27.8991   -9.5639  -18.7466 C   0  0  1  0  0  0  0  0  0  0  0  0
   26.5056   -9.7263  -18.2301 C   0  0  0  0  0  0  0  0  0  0  0  0
   25.5618   -9.4620  -19.0651 O   0  0  0  0  0  0  0  0  0  0  0  0
   26.2154  -10.1416  -16.9190 N   0  0  0  0  0  0  0  0  0  0  0  0
   27.1728  -10.2417  -15.8442 C   0  0  0  0  0  0  0  0  0  0  0  0
   26.8068  -11.6364  -15.3094 C   0  0  0  0  0  0  0  0  0  0  0  0
   25.3060  -11.7053  -15.4912 C   0  0  0  0  0  0  0  0  0  0  0  0
   24.9519  -10.5173  -16.3704 C   0  0  1  0  0  0  0  0  0  0  0  0
   24.3100   -9.4170  -15.5959 C   0  0  0  0  0  0  0  0  0  0  0  0
   25.0104   -8.3953  -15.3726 O   0  0  0  0  0  0  0  0  0  0  0  0
   22.9950   -9.4310  -15.0983 N   0  0  0  0  0  0  0  0  0  0  0  0
   22.0748   -8.3134  -15.2196 C   0  0  1  0  0  0  0  0  0  0  0  0
   22.1008   -7.7512  -16.6354 C   0  0  0  0  0  0  0  0  0  0  0  0
   21.1633   -6.6241  -16.8202 C   0  0  0  0  0  0  0  0  0  0  0  0
   20.3387   -6.0692  -15.8762 C   0  0  0  0  0  0  0  0  0  0  0  0
   19.6356   -5.0730  -16.4187 N   0  0  0  0  0  0  0  0  0  0  0  0
   19.9979   -4.9813  -17.6975 C   0  0  0  0  0  0  0  0  0  0  0  0
   20.9295   -5.9230  -17.9530 N   0  0  0  0  0  0  0  0  0  0  0  0
   20.7276   -8.6416  -14.7447 C   0  0  0  0  0  0  0  0  0  0  0  0
   20.0515   -7.9954  -13.7518 O   0  0  0  0  0  0  0  0  0  0  0  0
   20.1396   -9.6199  -15.3138 O   0  0  0  0  0  0  0  0  0  0  0  0
  1  2  1  0
  2  3  1  0
  4  3  1  0
  5  1  1  0
  5  4  1  0
  6  7  2  0
  5  6  1  1
  8  6  1  0
  9  8  1  0
  9 10  1  0
 11 10  1  0
 12  8  1  0
 12 11  1  0
 12 13  1  1
 14 13  2  0
 15 13  1  0
 16 15  1  0
 17 18  1  0
 16 17  1  6
 18 22  1  0
 19 20  1  0
 19 18  2  0
 20 21  1  0
 21 22  2  0
 23 16  1  0
 23 24  1  0
 25 23  2  0
M  END
$$$$
