PPH.pdb
     RDKit          3D

 25 27  0  0  1  0  0  0  0  0999 V2000
   18.8781  -11.8054  -15.9396 N   0  0  0  0  0  0  0  0  0  0  0  0
   17.4638  -11.9494  -15.7111 C   0  0  0  0  0  0  0  0  0  0  0  0
   16.8326  -10.6144  -15.9508 C   0  0  0  0  0  0  0  0  0  0  0  0
   18.0062   -9.7640  -16.4634 C   0  0  0  0  0  0  0  0  0  0  0  0
   19.1645  -10.3997  -15.7246 C   0  0  1  0  0  0  0  0  0  0  0  0
   19.1083  -10.0475  -14.2728 C   0  0  0  0  0  0  0  0  0  0  0  0
   18.7516  -10.9950  -13.4774 O   0  0  0  0  0  0  0  0  0  0  0  0
   19.4214   -8.7690  -13.7794 N   0  0  0  0  0  0  0  0  0  0  0  0
   19.6020   -7.5852  -14.5842 C   0  0  0  0  0  0  0  0  0  0  0  0
   20.9090   -7.0584  -13.9683 C   0  0  0  0  0  0  0  0  0  0  0  0
   20.7822   -7.4161  -12.5033 C   0  0  0  0  0  0  0  0  0  0  0  0
   19.5977   -8.3648  -12.4215 C   0  0  1  0  0  0  0  0  0  0  0  0
   18.3872   -7.7042  -11.8552 C   0  0  0  0  0  0  0  0  0  0  0  0
   17.7154   -6.9822  -12.6371 O   0  0  0  0  0  0  0  0  0  0  0  0
   17.9411   -7.8225  -10.5270 N   0  0  0  0  0  0  0  0  0  0  0  0
   16.6032   -7.4622  -10.0904 C   0  0  1  0  0  0  0  0  0  0  0  0
   15.9790   -8.5977   -9.2890 C   0  0  0  0  0  0  0  0  0  0  0  0
   14.5975   -8.3002   -8.8568 C   0  0  0  0  0  0  0  0  0  0  0  0
   14.2100   -7.4923   -7.8194 C   0  0  0  0  0  0  0  0  0  0  0  0
   12.8784   -7.4739   -7.7332 N   0  0  0  0  0  0  0  0  0  0  0  0
   12.4066   -8.2588   -8.7008 C   0  0  0  0  0  0  0  0  0  0  0  0
   13.4470   -8.7680   -9.3923 N   0  0  0  0  0  0  0  0  0  0  0  0
   16.5671   -6.1697   -9.4002 C   0  0  0  0  0  0  0  0  0  0  0  0
   15.5494   -5.2631   -9.4557 O   0  0  0  0  0  0  0  0  0  0  0  0
   17.5803   -5.8708   -8.6857 O   0  0  0  0  0  0  0  0  0  0  0  0
  1  2  1  0
  2  3  1  0
  4  3  1  0
  5  1  1  0
  5  4  1  0
  6  7  2  0
  5  6  1  1
  8  6  1  0
  9  8  1  0
  9 10  1  0
 11 10  1  0
 12  8  1  0
 12 11  1  0
 12 13  1  6
 14 13  2  0
 15 13  1  0
 16 15  1  0
 17 18  1  0
 16 17  1  1
 18 22  1  0
 19 20  1  0
 19 18  2  0
 20 21  1  0
 21 22  2  0
 23 16  1  0
 23 24  1  0
 25 23  2  0
M  END
$$$$
