PPH.pdb
     RDKit          3D

 25 27  0  0  1  0  0  0  0  0999 V2000
   18.2546  -12.1166    4.7072 N   0  0  0  0  0  0  0  0  0  0  0  0
   17.5689  -12.6112    3.5417 C   0  0  0  0  0  0  0  0  0  0  0  0
   16.1744  -12.9599    3.9561 C   0  0  0  0  0  0  0  0  0  0  0  0
   16.1182  -12.4834    5.4166 C   0  0  0  0  0  0  0  0  0  0  0  0
   17.5563  -12.6917    5.8411 C   0  0  1  0  0  0  0  0  0  0  0  0
   17.8491  -14.1512    5.9790 C   0  0  0  0  0  0  0  0  0  0  0  0
   18.7254  -14.6285    5.1653 O   0  0  0  0  0  0  0  0  0  0  0  0
   17.2219  -14.9744    6.9302 N   0  0  0  0  0  0  0  0  0  0  0  0
   16.1498  -14.5696    7.8067 C   0  0  0  0  0  0  0  0  0  0  0  0
   16.6864  -15.1272    9.1358 C   0  0  0  0  0  0  0  0  0  0  0  0
   17.3871  -16.4053    8.7290 C   0  0  0  0  0  0  0  0  0  0  0  0
   17.4766  -16.3505    7.2129 C   0  0  1  0  0  0  0  0  0  0  0  0
   16.4966  -17.2640    6.5590 C   0  0  0  0  0  0  0  0  0  0  0  0
   15.4943  -16.7289    6.0177 O   0  0  0  0  0  0  0  0  0  0  0  0
   16.6024  -18.6649    6.5008 N   0  0  0  0  0  0  0  0  0  0  0  0
   16.0733  -19.4692    5.4130 C   0  0  1  0  0  0  0  0  0  0  0  0
   16.4723  -18.8767    4.0674 C   0  0  0  0  0  0  0  0  0  0  0  0
   15.9425  -19.6476    2.9235 C   0  0  0  0  0  0  0  0  0  0  0  0
   14.6721  -20.1405    2.7741 C   0  0  0  0  0  0  0  0  0  0  0  0
   14.5716  -20.7876    1.6112 N   0  0  0  0  0  0  0  0  0  0  0  0
   15.7597  -20.7164    1.0128 C   0  0  0  0  0  0  0  0  0  0  0  0
   16.6035  -20.0230    1.8048 N   0  0  0  0  0  0  0  0  0  0  0  0
   16.4093  -20.8894    5.5501 C   0  0  0  0  0  0  0  0  0  0  0  0
   17.5540  -21.3897    6.0977 O   0  0  0  0  0  0  0  0  0  0  0  0
   15.5514  -21.7278    5.1168 O   0  0  0  0  0  0  0  0  0  0  0  0
  1  2  1  0
  2  3  1  0
  4  3  1  0
  5  1  1  0
  5  4  1  0
  6  7  2  0
  5  6  1  6
  8  6  1  0
  9  8  1  0
  9 10  1  0
 11 10  1  0
 12  8  1  0
 12 11  1  0
 12 13  1  6
 14 13  2  0
 15 13  1  0
 16 15  1  0
 17 18  1  0
 16 17  1  6
 18 22  1  0
 19 20  1  0
 19 18  2  0
 20 21  1  0
 21 22  2  0
 23 16  1  0
 23 24  1  0
 25 23  2  0
M  END
$$$$
