PPH.pdb
     RDKit          3D

 25 27  0  0  1  0  0  0  0  0999 V2000
   29.2068  -21.7520  -13.0397 N   0  0  0  0  0  0  0  0  0  0  0  0
   28.3944  -21.0513  -14.0000 C   0  0  0  0  0  0  0  0  0  0  0  0
   28.1920  -19.6608  -13.4865 C   0  0  0  0  0  0  0  0  0  0  0  0
   29.0786  -19.6232  -12.2312 C   0  0  0  0  0  0  0  0  0  0  0  0
   28.9961  -21.0656  -11.7792 C   0  0  1  0  0  0  0  0  0  0  0  0
   27.6405  -21.3561  -11.2199 C   0  0  0  0  0  0  0  0  0  0  0  0
   27.0084  -22.3396  -11.7590 O   0  0  0  0  0  0  0  0  0  0  0  0
   27.0680  -20.6176  -10.1697 N   0  0  0  0  0  0  0  0  0  0  0  0
   27.6299  -19.4238   -9.5860 C   0  0  0  0  0  0  0  0  0  0  0  0
   27.4828  -19.7780   -8.0966 C   0  0  0  0  0  0  0  0  0  0  0  0
   26.1859  -20.5559   -8.0417 C   0  0  0  0  0  0  0  0  0  0  0  0
   25.8361  -20.8584   -9.4893 C   0  0  1  0  0  0  0  0  0  0  0  0
   24.7244  -20.0003   -9.9896 C   0  0  0  0  0  0  0  0  0  0  0  0
   25.0471  -18.9149  -10.5391 O   0  0  0  0  0  0  0  0  0  0  0  0
   23.3549  -20.3049   -9.8957 N   0  0  0  0  0  0  0  0  0  0  0  0
   22.4795  -20.4472  -11.0462 C   0  0  1  0  0  0  0  0  0  0  0  0
   23.0618  -21.4440  -12.0404 C   0  0  0  0  0  0  0  0  0  0  0  0
   23.5174  -20.8036  -13.2918 C   0  0  0  0  0  0  0  0  0  0  0  0
   23.4326  -19.4756  -13.6211 C   0  0  0  0  0  0  0  0  0  0  0  0
   23.9444  -19.2775  -14.8377 N   0  0  0  0  0  0  0  0  0  0  0  0
   24.3561  -20.4599  -15.2930 C   0  0  0  0  0  0  0  0  0  0  0  0
   24.1003  -21.3979  -14.3577 N   0  0  0  0  0  0  0  0  0  0  0  0
   21.0951  -20.7413  -10.6651 C   0  0  0  0  0  0  0  0  0  0  0  0
   20.0052  -19.9778  -10.9644 O   0  0  0  0  0  0  0  0  0  0  0  0
   20.8976  -21.8074   -9.9934 O   0  0  0  0  0  0  0  0  0  0  0  0
  1  2  1  0
  2  3  1  0
  4  3  1  0
  5  1  1  0
  5  4  1  0
  6  7  2  0
  5  6  1  6
  8  6  1  0
  9  8  1  0
  9 10  1  0
 11 10  1  0
 12  8  1  0
 12 11  1  0
 12 13  1  6
 14 13  2  0
 15 13  1  0
 16 15  1  0
 17 18  1  0
 16 17  1  6
 18 22  1  0
 19 20  1  0
 19 18  2  0
 20 21  1  0
 21 22  2  0
 23 16  1  0
 23 24  1  0
 25 23  2  0
M  END
$$$$
