PPH.pdb
     RDKit          3D

 25 27  0  0  1  0  0  0  0  0999 V2000
   26.5629  -19.7137   -8.8478 N   0  0  0  0  0  0  0  0  0  0  0  0
   25.2210  -19.7955   -8.3324 C   0  0  0  0  0  0  0  0  0  0  0  0
   24.6728  -21.1327   -8.7190 C   0  0  0  0  0  0  0  0  0  0  0  0
   25.8803  -21.8261   -9.3708 C   0  0  0  0  0  0  0  0  0  0  0  0
   26.6063  -20.6381   -9.9649 C   0  0  1  0  0  0  0  0  0  0  0  0
   25.8531  -20.1068  -11.1420 C   0  0  0  0  0  0  0  0  0  0  0  0
   25.1522  -19.0478  -10.9300 O   0  0  0  0  0  0  0  0  0  0  0  0
   25.8910  -20.7062  -12.4129 N   0  0  0  0  0  0  0  0  0  0  0  0
   26.4780  -21.9896  -12.7130 C   0  0  0  0  0  0  0  0  0  0  0  0
   27.2941  -21.6084  -13.9595 C   0  0  0  0  0  0  0  0  0  0  0  0
   26.4293  -20.5761  -14.6498 C   0  0  0  0  0  0  0  0  0  0  0  0
   25.3541  -20.2111  -13.6396 C   0  0  1  0  0  0  0  0  0  0  0  0
   24.0356  -20.8188  -13.9784 C   0  0  0  0  0  0  0  0  0  0  0  0
   23.6937  -21.8372  -13.3225 O   0  0  0  0  0  0  0  0  0  0  0  0
   23.1516  -20.3485  -14.9655 N   0  0  0  0  0  0  0  0  0  0  0  0
   21.7576  -20.0273  -14.7130 C   0  0  1  0  0  0  0  0  0  0  0  0
   21.6321  -19.1031  -13.5083 C   0  0  0  0  0  0  0  0  0  0  0  0
   21.2823  -19.8255  -12.2675 C   0  0  0  0  0  0  0  0  0  0  0  0
   21.2094  -21.1830  -12.0920 C   0  0  0  0  0  0  0  0  0  0  0  0
   20.8577  -21.4585  -10.8344 N   0  0  0  0  0  0  0  0  0  0  0  0
   20.7042  -20.2964  -10.2011 C   0  0  0  0  0  0  0  0  0  0  0  0
   20.9609  -19.2937  -11.0663 N   0  0  0  0  0  0  0  0  0  0  0  0
   21.0714  -19.5278  -15.9080 C   0  0  0  0  0  0  0  0  0  0  0  0
   20.0146  -20.1251  -16.5301 O   0  0  0  0  0  0  0  0  0  0  0  0
   21.5055  -18.4373  -16.4069 O   0  0  0  0  0  0  0  0  0  0  0  0
  1  2  1  0
  2  3  1  0
  4  3  1  0
  5  1  1  0
  5  4  1  0
  6  7  2  0
  5  6  1  6
  8  6  1  0
  9  8  1  0
  9 10  1  0
 11 10  1  0
 12  8  1  0
 12 11  1  0
 12 13  1  6
 14 13  2  0
 15 13  1  0
 16 15  1  0
 17 18  1  0
 16 17  1  1
 18 22  1  0
 19 20  1  0
 19 18  2  0
 20 21  1  0
 21 22  2  0
 23 16  1  0
 23 24  1  0
 25 23  2  0
M  END
$$$$
