NNR.pdb
     RDKit          3D

 28 27  0  0  1  0  0  0  0  0999 V2000
   14.5648  -13.7658  -14.1885 N   0  0  0  0  0  0  0  0  0  0  0  0
   13.5539  -12.8989  -13.7043 C   0  0  0  0  0  0  0  0  0  0  0  0
   12.3673  -13.3683  -13.6643 O   0  0  0  0  0  0  0  0  0  0  0  0
   13.8688  -11.5298  -13.2727 C   0  0  0  0  0  0  0  0  0  0  0  0
   15.3471  -11.1913  -13.3489 C   0  0  2  0  0  0  0  0  0  0  0  0
   16.0170  -12.0429  -12.3854 N   0  0  0  0  0  0  0  0  0  0  0  0
   15.5485   -9.7471  -13.0146 C   0  0  0  0  0  0  0  0  0  0  0  0
   15.0225   -8.8378  -13.7025 O   0  0  0  0  0  0  0  0  0  0  0  0
   15.0293   -6.2580   -9.8836 N   0  0  0  0  0  0  0  0  0  0  0  0
   16.1551   -6.9120   -9.3325 C   0  0  0  0  0  0  0  0  0  0  0  0
   16.3756   -6.6855   -8.1113 O   0  0  0  0  0  0  0  0  0  0  0  0
   17.0035   -7.8037  -10.1708 C   0  0  0  0  0  0  0  0  0  0  0  0
   16.4896   -7.9283  -11.5932 C   0  0  2  0  0  0  0  0  0  0  0  0
   16.3535   -9.3388  -11.8912 N   0  0  0  0  0  0  0  0  0  0  0  0
   17.3711   -7.2370  -12.5570 C   0  0  0  0  0  0  0  0  0  0  0  0
   18.5422   -7.6624  -12.6922 O   0  0  0  0  0  0  0  0  0  0  0  0
   18.0366   -7.1429  -20.5684 N   0  0  0  0  0  0  0  0  0  0  0  0
   18.3426   -7.7325  -19.2918 C   0  0  0  0  0  0  0  0  0  0  0  0
   18.4921   -9.0045  -19.1709 N   0  0  0  0  0  0  0  0  0  0  0  0
   18.4896   -6.9279  -18.1296 N   0  0  0  0  0  0  0  0  0  0  0  0
   18.1432   -5.5240  -18.0952 C   0  0  0  0  0  0  0  0  0  0  0  0
   18.4743   -5.0592  -16.6613 C   0  0  0  0  0  0  0  0  0  0  0  0
   17.6344   -5.7891  -15.6661 C   0  0  0  0  0  0  0  0  0  0  0  0
   17.9406   -5.4595  -14.2420 C   0  0  2  0  0  0  0  0  0  0  0  0
   16.9786   -6.1221  -13.3397 N   0  0  0  0  0  0  0  0  0  0  0  0
   17.8005   -4.0067  -14.0262 C   0  0  0  0  0  0  0  0  0  0  0  0
   16.9005   -3.4910  -13.2961 O   0  0  0  0  0  0  0  0  0  0  0  0
   18.7222   -3.1564  -14.6705 O   0  0  0  0  0  0  0  0  0  0  0  0
  1  2  1  0
  2  3  2  0
  4  2  1  0
  4  5  1  0
  5  6  1  1
  7  5  1  0
  7  8  2  0
  9 10  1  0
 10 12  1  0
 11 10  2  0
 13 12  1  1
 13 14  1  0
 14  7  1  0
 15 13  1  0
 16 15  2  0
 18 17  1  0
 19 18  2  0
 20 18  1  0
 21 22  1  0
 21 20  1  0
 22 23  1  0
 24 23  1  6
 24 25  1  0
 24 26  1  0
 25 15  1  0
 26 28  1  0
 27 26  2  0
M  END
$$$$
