NNR.pdb
     RDKit          3D

 28 27  0  0  1  0  0  0  0  0999 V2000
   26.1947  -21.5414   -9.7747 N   0  0  0  0  0  0  0  0  0  0  0  0
   25.0351  -21.1703  -10.4996 C   0  0  0  0  0  0  0  0  0  0  0  0
   23.9117  -21.5044   -9.9936 O   0  0  0  0  0  0  0  0  0  0  0  0
   25.1344  -20.4373  -11.7696 C   0  0  0  0  0  0  0  0  0  0  0  0
   24.2658  -21.0119  -12.8747 C   0  0  2  0  0  0  0  0  0  0  0  0
   24.8199  -22.3107  -13.2038 N   0  0  0  0  0  0  0  0  0  0  0  0
   24.2983  -20.1021  -14.0619 C   0  0  0  0  0  0  0  0  0  0  0  0
   25.2929  -20.0621  -14.8272 O   0  0  0  0  0  0  0  0  0  0  0  0
   22.3889  -20.7604  -17.0533 N   0  0  0  0  0  0  0  0  0  0  0  0
   21.4453  -19.7168  -16.9146 C   0  0  0  0  0  0  0  0  0  0  0  0
   20.3265  -19.9147  -17.4627 O   0  0  0  0  0  0  0  0  0  0  0  0
   21.7859  -18.4774  -16.1626 C   0  0  0  0  0  0  0  0  0  0  0  0
   23.2037  -18.4952  -15.6219 C   0  0  2  0  0  0  0  0  0  0  0  0
   23.1917  -19.2343  -14.3767 N   0  0  0  0  0  0  0  0  0  0  0  0
   23.7439  -17.1298  -15.4551 C   0  0  0  0  0  0  0  0  0  0  0  0
   23.2184  -16.3915  -14.5893 O   0  0  0  0  0  0  0  0  0  0  0  0
   30.7979  -13.4720  -18.9477 N   0  0  0  0  0  0  0  0  0  0  0  0
   30.2728  -14.4744  -18.0586 C   0  0  0  0  0  0  0  0  0  0  0  0
   30.9206  -15.5630  -17.8347 N   0  0  0  0  0  0  0  0  0  0  0  0
   29.0259  -14.2906  -17.4021 N   0  0  0  0  0  0  0  0  0  0  0  0
   28.0892  -13.2510  -17.7683 C   0  0  0  0  0  0  0  0  0  0  0  0
   26.8657  -13.4659  -16.8523 C   0  0  0  0  0  0  0  0  0  0  0  0
   26.4060  -14.8847  -16.9152 C   0  0  0  0  0  0  0  0  0  0  0  0
   25.2008  -15.1791  -16.0839 C   0  0  2  0  0  0  0  0  0  0  0  0
   24.8190  -16.5992  -16.2115 N   0  0  0  0  0  0  0  0  0  0  0  0
   24.0565  -14.3824  -16.5666 C   0  0  0  0  0  0  0  0  0  0  0  0
   23.3152  -14.7362  -17.5331 O   0  0  0  0  0  0  0  0  0  0  0  0
   23.7820  -13.1651  -15.9104 O   0  0  0  0  0  0  0  0  0  0  0  0
  1  2  1  0
  2  3  2  0
  4  2  1  0
  4  5  1  0
  5  6  1  6
  7  5  1  0
  7  8  2  0
  9 10  1  0
 10 12  1  0
 11 10  2  0
 13 12  1  1
 13 14  1  0
 14  7  1  0
 15 13  1  0
 16 15  2  0
 18 17  1  0
 19 18  2  0
 20 18  1  0
 21 22  1  0
 21 20  1  0
 22 23  1  0
 24 23  1  6
 24 25  1  0
 24 26  1  0
 25 15  1  0
 26 28  1  0
 27 26  2  0
M  END
$$$$
