NNR.pdb
     RDKit          3D

 28 27  0  0  1  0  0  0  0  0999 V2000
   15.7899   -9.0849   11.1759 N   0  0  0  0  0  0  0  0  0  0  0  0
   15.1111   -9.2458    9.9425 C   0  0  0  0  0  0  0  0  0  0  0  0
   13.8416   -9.3687    9.9989 O   0  0  0  0  0  0  0  0  0  0  0  0
   15.8437   -9.2682    8.6686 C   0  0  0  0  0  0  0  0  0  0  0  0
   17.3500   -9.1629    8.8295 C   0  0  2  0  0  0  0  0  0  0  0  0
   17.7137   -7.8126    8.4468 N   0  0  0  0  0  0  0  0  0  0  0  0
   18.0198  -10.1664    7.9451 C   0  0  0  0  0  0  0  0  0  0  0  0
   17.8469  -10.1595    6.7014 O   0  0  0  0  0  0  0  0  0  0  0  0
   21.4693  -10.2766    6.8134 N   0  0  0  0  0  0  0  0  0  0  0  0
   21.8885  -11.3468    7.6368 C   0  0  0  0  0  0  0  0  0  0  0  0
   23.1099  -11.3484    7.9519 O   0  0  0  0  0  0  0  0  0  0  0  0
   20.9215  -12.3875    8.0837 C   0  0  0  0  0  0  0  0  0  0  0  0
   19.5134  -12.1286    7.5807 C   0  0  2  0  0  0  0  0  0  0  0  0
   18.8900  -11.1820    8.4819 N   0  0  0  0  0  0  0  0  0  0  0  0
   18.7357  -13.3796    7.4604 C   0  0  0  0  0  0  0  0  0  0  0  0
   18.1712  -13.8219    8.4883 O   0  0  0  0  0  0  0  0  0  0  0  0
   16.6569  -20.4059    2.2100 N   0  0  0  0  0  0  0  0  0  0  0  0
   15.5175  -19.5997    2.5603 C   0  0  0  0  0  0  0  0  0  0  0  0
   14.3208  -20.0490    2.4144 N   0  0  0  0  0  0  0  0  0  0  0  0
   15.6806  -18.2863    3.0781 N   0  0  0  0  0  0  0  0  0  0  0  0
   16.9749  -17.6652    3.2552 C   0  0  0  0  0  0  0  0  0  0  0  0
   17.0073  -17.2074    4.7287 C   0  0  0  0  0  0  0  0  0  0  0  0
   17.6168  -15.8494    4.8428 C   0  0  0  0  0  0  0  0  0  0  0  0
   17.8683  -15.4031    6.2456 C   0  0  2  0  0  0  0  0  0  0  0  0
   18.5864  -14.1136    6.2569 N   0  0  0  0  0  0  0  0  0  0  0  0
   18.7334  -16.3818    6.9317 C   0  0  0  0  0  0  0  0  0  0  0  0
   19.9983  -16.3853    6.8371 O   0  0  0  0  0  0  0  0  0  0  0  0
   18.1095  -17.3600    7.7327 O   0  0  0  0  0  0  0  0  0  0  0  0
  1  2  1  0
  2  3  2  0
  4  2  1  0
  4  5  1  0
  5  6  1  6
  7  5  1  0
  7  8  2  0
  9 10  1  0
 10 12  1  0
 11 10  2  0
 13 12  1  1
 13 14  1  0
 14  7  1  0
 15 13  1  0
 16 15  2  0
 18 17  1  0
 19 18  2  0
 20 18  1  0
 21 22  1  0
 21 20  1  0
 22 23  1  0
 24 23  1  6
 24 25  1  0
 24 26  1  0
 25 15  1  0
 26 28  1  0
 27 26  2  0
M  END
$$$$
