NNR.pdb
     RDKit          3D

 28 27  0  0  1  0  0  0  0  0999 V2000
   28.8411  -23.7388  -19.5515 N   0  0  0  0  0  0  0  0  0  0  0  0
   27.7442  -24.3865  -18.9309 C   0  0  0  0  0  0  0  0  0  0  0  0
   27.3179  -25.4528  -19.4887 O   0  0  0  0  0  0  0  0  0  0  0  0
   27.1364  -23.8473  -17.7062 C   0  0  0  0  0  0  0  0  0  0  0  0
   27.8005  -22.5774  -17.2039 C   0  0  2  0  0  0  0  0  0  0  0  0
   29.0896  -22.9686  -16.6677 N   0  0  0  0  0  0  0  0  0  0  0  0
   26.9497  -21.9524  -16.1440 C   0  0  0  0  0  0  0  0  0  0  0  0
   26.7191  -22.5418  -15.0596 O   0  0  0  0  0  0  0  0  0  0  0  0
   27.9672  -18.9275  -14.4507 N   0  0  0  0  0  0  0  0  0  0  0  0
   26.9704  -18.0546  -14.9439 C   0  0  0  0  0  0  0  0  0  0  0  0
   27.2898  -16.8355  -14.9993 O   0  0  0  0  0  0  0  0  0  0  0  0
   25.6398  -18.5769  -15.3615 C   0  0  0  0  0  0  0  0  0  0  0  0
   25.5497  -20.0884  -15.2613 C   0  0  2  0  0  0  0  0  0  0  0  0
   26.3594  -20.6499  -16.3224 N   0  0  0  0  0  0  0  0  0  0  0  0
   24.1499  -20.5590  -15.3190 C   0  0  0  0  0  0  0  0  0  0  0  0
   23.6457  -20.7666  -16.4475 O   0  0  0  0  0  0  0  0  0  0  0  0
   19.7438  -25.8583  -11.3355 N   0  0  0  0  0  0  0  0  0  0  0  0
   18.5505  -25.1685  -11.7492 C   0  0  0  0  0  0  0  0  0  0  0  0
   17.4740  -25.8174  -12.0231 N   0  0  0  0  0  0  0  0  0  0  0  0
   18.5261  -23.7523  -11.8659 N   0  0  0  0  0  0  0  0  0  0  0  0
   19.6909  -22.9240  -11.6435 C   0  0  0  0  0  0  0  0  0  0  0  0
   20.1030  -22.4189  -13.0424 C   0  0  0  0  0  0  0  0  0  0  0  0
   21.4453  -21.7678  -12.9907 C   0  0  0  0  0  0  0  0  0  0  0  0
   21.9863  -21.3649  -14.3231 C   0  0  2  0  0  0  0  0  0  0  0  0
   23.3387  -20.7911  -14.1799 N   0  0  0  0  0  0  0  0  0  0  0  0
   21.1338  -20.3128  -14.9089 C   0  0  0  0  0  0  0  0  0  0  0  0
   20.0833  -20.5544  -15.5775 O   0  0  0  0  0  0  0  0  0  0  0  0
   21.5170  -18.9710  -14.7075 O   0  0  0  0  0  0  0  0  0  0  0  0
  1  2  1  0
  2  3  2  0
  4  2  1  0
  4  5  1  0
  5  6  1  1
  7  5  1  0
  7  8  2  0
  9 10  1  0
 10 12  1  0
 11 10  2  0
 13 12  1  6
 13 14  1  0
 14  7  1  0
 15 13  1  0
 16 15  2  0
 18 17  1  0
 19 18  2  0
 20 18  1  0
 21 22  1  0
 21 20  1  0
 22 23  1  0
 24 23  1  1
 24 25  1  0
 24 26  1  0
 25 15  1  0
 26 28  1  0
 27 26  2  0
M  END
$$$$
