NNR.pdb
     RDKit          3D

 28 27  0  0  1  0  0  0  0  0999 V2000
   27.6497  -18.3330  -19.1963 N   0  0  0  0  0  0  0  0  0  0  0  0
   26.5129  -18.3698  -18.3511 C   0  0  0  0  0  0  0  0  0  0  0  0
   25.5353  -17.6143  -18.6726 O   0  0  0  0  0  0  0  0  0  0  0  0
   26.4739  -19.2388  -17.1666 C   0  0  0  0  0  0  0  0  0  0  0  0
   27.7235  -20.0829  -16.9881 C   0  0  2  0  0  0  0  0  0  0  0  0
   27.6460  -21.1493  -17.9674 N   0  0  0  0  0  0  0  0  0  0  0  0
   27.7601  -20.6365  -15.5988 C   0  0  0  0  0  0  0  0  0  0  0  0
   26.9747  -21.5471  -15.2376 O   0  0  0  0  0  0  0  0  0  0  0  0
   29.2401  -21.9851  -10.8562 N   0  0  0  0  0  0  0  0  0  0  0  0
   30.2010  -21.0687  -11.3418 C   0  0  0  0  0  0  0  0  0  0  0  0
   31.2626  -20.9803  -10.6662 O   0  0  0  0  0  0  0  0  0  0  0  0
   29.9415  -20.2755  -12.5752 C   0  0  0  0  0  0  0  0  0  0  0  0
   28.6599  -20.6889  -13.2747 C   0  0  2  0  0  0  0  0  0  0  0  0
   28.6963  -20.1489  -14.6178 N   0  0  0  0  0  0  0  0  0  0  0  0
   27.4621  -20.2493  -12.5289 C   0  0  0  0  0  0  0  0  0  0  0  0
   27.2095  -19.0223  -12.4932 O   0  0  0  0  0  0  0  0  0  0  0  0
   19.6362  -21.4152  -13.9394 N   0  0  0  0  0  0  0  0  0  0  0  0
   20.8349  -20.6625  -14.1991 C   0  0  0  0  0  0  0  0  0  0  0  0
   21.0330  -20.1106  -15.3442 N   0  0  0  0  0  0  0  0  0  0  0  0
   21.8327  -20.5061  -13.1994 N   0  0  0  0  0  0  0  0  0  0  0  0
   21.6510  -20.9391  -11.8313 C   0  0  0  0  0  0  0  0  0  0  0  0
   22.9180  -20.4701  -11.0852 C   0  0  0  0  0  0  0  0  0  0  0  0
   24.1465  -20.9446  -11.7881 C   0  0  0  0  0  0  0  0  0  0  0  0
   25.4243  -20.5971  -11.0975 C   0  0  2  0  0  0  0  0  0  0  0  0
   26.5789  -21.1258  -11.8498 N   0  0  0  0  0  0  0  0  0  0  0  0
   25.4565  -21.2273   -9.7638 C   0  0  0  0  0  0  0  0  0  0  0  0
   26.1770  -22.2324   -9.4816 O   0  0  0  0  0  0  0  0  0  0  0  0
   24.6390  -20.6737   -8.7573 O   0  0  0  0  0  0  0  0  0  0  0  0
  1  2  1  0
  2  3  2  0
  4  2  1  0
  4  5  1  0
  5  6  1  6
  7  5  1  0
  7  8  2  0
  9 10  1  0
 10 12  1  0
 11 10  2  0
 13 12  1  1
 13 14  1  0
 14  7  1  0
 15 13  1  0
 16 15  2  0
 18 17  1  0
 19 18  2  0
 20 18  1  0
 21 22  1  0
 21 20  1  0
 22 23  1  0
 24 23  1  6
 24 25  1  0
 24 26  1  0
 25 15  1  0
 26 28  1  0
 27 26  2  0
M  END
$$$$
