NNR.pdb
     RDKit          3D

 28 27  0  0  1  0  0  0  0  0999 V2000
   28.8461  -18.0962  -16.4948 N   0  0  0  0  0  0  0  0  0  0  0  0
   28.3348  -17.7874  -17.7798 C   0  0  0  0  0  0  0  0  0  0  0  0
   29.1802  -17.4027  -18.6557 O   0  0  0  0  0  0  0  0  0  0  0  0
   26.9005  -17.9082  -18.0767 C   0  0  0  0  0  0  0  0  0  0  0  0
   26.0729  -18.3936  -16.8996 C   0  0  2  0  0  0  0  0  0  0  0  0
   26.8112  -19.4865  -16.2972 N   0  0  0  0  0  0  0  0  0  0  0  0
   24.7356  -18.8569  -17.3843 C   0  0  0  0  0  0  0  0  0  0  0  0
   24.1066  -18.2253  -18.2686 O   0  0  0  0  0  0  0  0  0  0  0  0
   20.5720  -21.4056  -18.7514 N   0  0  0  0  0  0  0  0  0  0  0  0
   21.7366  -21.1699  -19.5174 C   0  0  0  0  0  0  0  0  0  0  0  0
   21.6187  -21.3474  -20.7608 O   0  0  0  0  0  0  0  0  0  0  0  0
   23.0040  -20.7408  -18.8636 C   0  0  0  0  0  0  0  0  0  0  0  0
   22.8303  -20.4642  -17.3817 C   0  0  2  0  0  0  0  0  0  0  0  0
   24.1135  -20.0453  -16.8577 N   0  0  0  0  0  0  0  0  0  0  0  0
   22.2911  -21.6385  -16.6644 C   0  0  0  0  0  0  0  0  0  0  0  0
   23.0064  -22.6654  -16.5969 O   0  0  0  0  0  0  0  0  0  0  0  0
   26.2107  -21.3966  -12.6260 N   0  0  0  0  0  0  0  0  0  0  0  0
   25.5391  -21.1348  -11.3805 C   0  0  0  0  0  0  0  0  0  0  0  0
   26.0011  -21.5954  -10.2717 N   0  0  0  0  0  0  0  0  0  0  0  0
   24.3485  -20.3600  -11.3389 N   0  0  0  0  0  0  0  0  0  0  0  0
   23.7042  -19.8427  -12.5261 C   0  0  0  0  0  0  0  0  0  0  0  0
   22.6711  -20.9165  -12.9279 C   0  0  0  0  0  0  0  0  0  0  0  0
   21.8841  -20.4691  -14.1149 C   0  0  0  0  0  0  0  0  0  0  0  0
   20.8750  -21.4603  -14.5942 C   0  0  2  0  0  0  0  0  0  0  0  0
   21.0157  -21.6798  -16.0470 N   0  0  0  0  0  0  0  0  0  0  0  0
   19.5150  -20.9343  -14.3696 C   0  0  0  0  0  0  0  0  0  0  0  0
   18.8211  -20.3784  -15.2744 O   0  0  0  0  0  0  0  0  0  0  0  0
   18.9679  -21.0624  -13.0766 O   0  0  0  0  0  0  0  0  0  0  0  0
  1  2  1  0
  2  3  2  0
  4  2  1  0
  4  5  1  0
  5  6  1  6
  7  5  1  0
  7  8  2  0
  9 10  1  0
 10 12  1  0
 11 10  2  0
 13 12  1  6
 13 14  1  0
 14  7  1  0
 15 13  1  0
 16 15  2  0
 18 17  1  0
 19 18  2  0
 20 18  1  0
 21 22  1  0
 21 20  1  0
 22 23  1  0
 24 23  1  6
 24 25  1  0
 24 26  1  0
 25 15  1  0
 26 28  1  0
 27 26  2  0
M  END
$$$$
