NNR.pdb
     RDKit          3D

 28 27  0  0  1  0  0  0  0  0999 V2000
   11.1391  -22.1778   -6.7959 N   0  0  0  0  0  0  0  0  0  0  0  0
   11.4756  -23.4919   -6.3862 C   0  0  0  0  0  0  0  0  0  0  0  0
   10.6941  -24.4279   -6.7646 O   0  0  0  0  0  0  0  0  0  0  0  0
   12.6676  -23.7511   -5.5665 C   0  0  0  0  0  0  0  0  0  0  0  0
   13.4346  -22.4953   -5.1916 C   0  0  2  0  0  0  0  0  0  0  0  0
   14.2929  -22.1828   -6.3176 N   0  0  0  0  0  0  0  0  0  0  0  0
   14.2437  -22.7513   -3.9596 C   0  0  0  0  0  0  0  0  0  0  0  0
   15.3596  -23.3239   -4.0182 O   0  0  0  0  0  0  0  0  0  0  0  0
   16.1646  -22.4954    0.8433 N   0  0  0  0  0  0  0  0  0  0  0  0
   15.1900  -21.4818    0.6958 C   0  0  0  0  0  0  0  0  0  0  0  0
   15.1224  -20.6468    1.6390 O   0  0  0  0  0  0  0  0  0  0  0  0
   14.3167  -21.4350   -0.5095 C   0  0  0  0  0  0  0  0  0  0  0  0
   14.6448  -22.5283   -1.5094 C   0  0  2  0  0  0  0  0  0  0  0  0
   13.7774  -22.3527   -2.6556 N   0  0  0  0  0  0  0  0  0  0  0  0
   14.5150  -23.8739   -0.9124 C   0  0  0  0  0  0  0  0  0  0  0  0
   13.3613  -24.3058   -0.6816 O   0  0  0  0  0  0  0  0  0  0  0  0
   19.0962  -31.6417   -1.3419 N   0  0  0  0  0  0  0  0  0  0  0  0
   17.8755  -31.7797   -0.5923 C   0  0  0  0  0  0  0  0  0  0  0  0
   17.4413  -32.9400   -0.2454 N   0  0  0  0  0  0  0  0  0  0  0  0
   17.1159  -30.6401   -0.2130 N   0  0  0  0  0  0  0  0  0  0  0  0
   17.3701  -29.3154   -0.7352 C   0  0  0  0  0  0  0  0  0  0  0  0
   16.2817  -28.4170   -0.1106 C   0  0  0  0  0  0  0  0  0  0  0  0
   16.4096  -27.0152   -0.6075 C   0  0  0  0  0  0  0  0  0  0  0  0
   15.3894  -26.0720   -0.0599 C   0  0  2  0  0  0  0  0  0  0  0  0
   15.6116  -24.7096   -0.5828 N   0  0  0  0  0  0  0  0  0  0  0  0
   15.5201  -25.9947    1.4077 C   0  0  0  0  0  0  0  0  0  0  0  0
   15.1469  -26.9180    2.1934 O   0  0  0  0  0  0  0  0  0  0  0  0
   16.0923  -24.8278    1.9543 O   0  0  0  0  0  0  0  0  0  0  0  0
  1  2  1  0
  2  3  2  0
  4  2  1  0
  4  5  1  0
  5  6  1  6
  7  5  1  0
  7  8  2  0
  9 10  1  0
 10 12  1  0
 11 10  2  0
 13 12  1  1
 13 14  1  0
 14  7  1  0
 15 13  1  0
 16 15  2  0
 18 17  1  0
 19 18  2  0
 20 18  1  0
 21 22  1  0
 21 20  1  0
 22 23  1  0
 24 23  1  6
 24 25  1  0
 24 26  1  0
 25 15  1  0
 26 28  1  0
 27 26  2  0
M  END
$$$$
