NNR.pdb
     RDKit          3D

 28 27  0  0  1  0  0  0  0  0999 V2000
   30.0168  -19.1597  -17.4959 N   0  0  0  0  0  0  0  0  0  0  0  0
   28.6844  -18.6875  -17.5943 C   0  0  0  0  0  0  0  0  0  0  0  0
   28.4783  -17.7173  -18.3981 O   0  0  0  0  0  0  0  0  0  0  0  0
   27.6028  -19.2931  -16.8049 C   0  0  0  0  0  0  0  0  0  0  0  0
   28.0533  -20.4661  -15.9523 C   0  0  2  0  0  0  0  0  0  0  0  0
   28.3798  -21.5420  -16.8677 N   0  0  0  0  0  0  0  0  0  0  0  0
   26.9470  -20.8688  -15.0293 C   0  0  0  0  0  0  0  0  0  0  0  0
   25.9991  -21.5924  -15.4223 O   0  0  0  0  0  0  0  0  0  0  0  0
   25.2300  -20.6714   -9.0593 N   0  0  0  0  0  0  0  0  0  0  0  0
   25.1939  -21.1092  -10.4031 C   0  0  0  0  0  0  0  0  0  0  0  0
   24.2227  -21.8535  -10.7098 O   0  0  0  0  0  0  0  0  0  0  0  0
   26.2525  -20.6980  -11.3665 C   0  0  0  0  0  0  0  0  0  0  0  0
   25.8094  -20.8332  -12.8115 C   0  0  2  0  0  0  0  0  0  0  0  0
   26.9221  -20.4439  -13.6524 N   0  0  0  0  0  0  0  0  0  0  0  0
   24.5952  -20.0379  -13.0892 C   0  0  0  0  0  0  0  0  0  0  0  0
   24.6927  -18.7886  -13.0656 O   0  0  0  0  0  0  0  0  0  0  0  0
   17.2159  -17.4972  -16.4694 N   0  0  0  0  0  0  0  0  0  0  0  0
   18.1829  -18.0557  -17.3771 C   0  0  0  0  0  0  0  0  0  0  0  0
   18.1171  -17.8187  -18.6398 N   0  0  0  0  0  0  0  0  0  0  0  0
   19.2378  -18.8830  -16.9056 N   0  0  0  0  0  0  0  0  0  0  0  0
   19.4111  -19.2185  -15.5093 C   0  0  0  0  0  0  0  0  0  0  0  0
   20.6781  -18.4584  -15.0634 C   0  0  0  0  0  0  0  0  0  0  0  0
   21.8209  -19.4023  -14.8856 C   0  0  0  0  0  0  0  0  0  0  0  0
   22.1267  -19.7383  -13.4630 C   0  0  2  0  0  0  0  0  0  0  0  0
   23.3251  -20.5961  -13.3805 N   0  0  0  0  0  0  0  0  0  0  0  0
   21.0089  -20.5061  -12.8816 C   0  0  0  0  0  0  0  0  0  0  0  0
   20.9289  -21.7711  -12.9295 O   0  0  0  0  0  0  0  0  0  0  0  0
   19.9812  -19.7844  -12.2408 O   0  0  0  0  0  0  0  0  0  0  0  0
  1  2  1  0
  2  3  2  0
  4  2  1  0
  4  5  1  0
  5  6  1  6
  7  5  1  0
  7  8  2  0
  9 10  1  0
 10 12  1  0
 11 10  2  0
 13 12  1  1
 13 14  1  0
 14  7  1  0
 15 13  1  0
 16 15  2  0
 18 17  1  0
 19 18  2  0
 20 18  1  0
 21 22  1  0
 21 20  1  0
 22 23  1  0
 24 23  1  6
 24 25  1  0
 24 26  1  0
 25 15  1  0
 26 28  1  0
 27 26  2  0
M  END
$$$$
