NNR.pdb
     RDKit          3D

 28 27  0  0  1  0  0  0  0  0999 V2000
   29.1353  -18.9997  -17.3464 N   0  0  0  0  0  0  0  0  0  0  0  0
   27.8340  -19.3519  -17.7828 C   0  0  0  0  0  0  0  0  0  0  0  0
   27.7592  -20.1701  -18.7599 O   0  0  0  0  0  0  0  0  0  0  0  0
   26.6380  -18.7960  -17.1344 C   0  0  0  0  0  0  0  0  0  0  0  0
   25.3346  -19.2470  -17.7696 C   0  0  2  0  0  0  0  0  0  0  0  0
   25.2243  -18.5433  -19.0325 N   0  0  0  0  0  0  0  0  0  0  0  0
   24.1921  -18.9042  -16.8668 C   0  0  0  0  0  0  0  0  0  0  0  0
   24.1766  -17.8339  -16.2104 O   0  0  0  0  0  0  0  0  0  0  0  0
   18.2254  -19.5759  -16.1819 N   0  0  0  0  0  0  0  0  0  0  0  0
   19.4959  -19.0384  -15.8726 C   0  0  0  0  0  0  0  0  0  0  0  0
   19.5284  -18.2375  -14.8986 O   0  0  0  0  0  0  0  0  0  0  0  0
   20.6967  -19.4165  -16.6682 C   0  0  0  0  0  0  0  0  0  0  0  0
   21.9715  -19.3936  -15.8454 C   0  0  2  0  0  0  0  0  0  0  0  0
   23.0631  -19.7863  -16.7120 N   0  0  0  0  0  0  0  0  0  0  0  0
   21.8686  -20.2580  -14.6511 C   0  0  0  0  0  0  0  0  0  0  0  0
   21.8781  -21.4996  -14.8216 O   0  0  0  0  0  0  0  0  0  0  0  0
   26.8551  -22.4695  -11.0355 N   0  0  0  0  0  0  0  0  0  0  0  0
   27.0841  -21.1335  -11.5189 C   0  0  0  0  0  0  0  0  0  0  0  0
   27.9889  -20.8970  -12.4023 N   0  0  0  0  0  0  0  0  0  0  0  0
   26.3179  -20.0383  -11.0360 N   0  0  0  0  0  0  0  0  0  0  0  0
   25.0201  -20.1976  -10.4175 C   0  0  0  0  0  0  0  0  0  0  0  0
   24.0562  -20.5302  -11.5760 C   0  0  0  0  0  0  0  0  0  0  0  0
   22.6371  -20.3950  -11.1329 C   0  0  0  0  0  0  0  0  0  0  0  0
   21.6294  -20.7101  -12.1891 C   0  0  2  0  0  0  0  0  0  0  0  0
   21.7591  -19.7742  -13.3231 N   0  0  0  0  0  0  0  0  0  0  0  0
   20.2685  -20.5391  -11.6454 C   0  0  0  0  0  0  0  0  0  0  0  0
   19.8034  -21.2335  -10.6912 O   0  0  0  0  0  0  0  0  0  0  0  0
   19.4509  -19.5474  -12.2250 O   0  0  0  0  0  0  0  0  0  0  0  0
  1  2  1  0
  2  3  2  0
  4  2  1  0
  4  5  1  0
  5  6  1  6
  7  5  1  0
  7  8  2  0
  9 10  1  0
 10 12  1  0
 11 10  2  0
 13 12  1  6
 13 14  1  0
 14  7  1  0
 15 13  1  0
 16 15  2  0
 18 17  1  0
 19 18  2  0
 20 18  1  0
 21 22  1  0
 21 20  1  0
 22 23  1  0
 24 23  1  1
 24 25  1  0
 24 26  1  0
 25 15  1  0
 26 28  1  0
 27 26  2  0
M  END
$$$$
