HLT.pdb
     RDKit          3D

 26 26  0  0  1  0  0  0  0  0999 V2000
    9.3883  -15.9258   20.2717 N   0  0  0  0  0  0  0  0  0  0  0  0
    8.5651  -16.4839   21.3302 C   0  0  1  0  0  0  0  0  0  0  0  0
    8.6366  -17.9965   21.3246 C   0  0  0  0  0  0  0  0  0  0  0  0
    8.2302  -18.5956   20.0482 C   0  0  0  0  0  0  0  0  0  0  0  0
    7.0500  -18.4100   19.3611 C   0  0  0  0  0  0  0  0  0  0  0  0
    7.0752  -19.1487   18.2212 N   0  0  0  0  0  0  0  0  0  0  0  0
    8.2453  -19.7747   18.2076 C   0  0  0  0  0  0  0  0  0  0  0  0
    8.9558  -19.4414   19.3206 N   0  0  0  0  0  0  0  0  0  0  0  0
    8.9563  -15.8960   22.6232 C   0  0  0  0  0  0  0  0  0  0  0  0
   10.1609  -15.8406   22.9705 O   0  0  0  0  0  0  0  0  0  0  0  0
    8.4547  -12.3761   26.8446 C   0  0  0  0  0  0  0  0  0  0  0  0
    7.3253  -13.2920   26.5781 C   0  0  1  0  0  0  0  0  0  0  0  0
    6.0221  -12.4657   26.7197 C   0  0  0  0  0  0  0  0  0  0  0  0
    7.2722  -13.9175   25.2513 C   0  0  0  0  0  0  0  0  0  0  0  0
    8.3242  -14.8799   24.8544 C   0  0  2  0  0  0  0  0  0  0  0  0
    7.9732  -15.3760   23.5104 N   0  0  0  0  0  0  0  0  0  0  0  0
    8.5758  -16.0026   25.7659 C   0  0  0  0  0  0  0  0  0  0  0  0
    7.5783  -16.7651   26.0338 O   0  0  0  0  0  0  0  0  0  0  0  0
   10.3307  -19.0300   25.2084 C   0  0  0  0  0  0  0  0  0  0  0  0
   10.8915  -18.5049   26.5017 C   0  0  1  0  0  0  0  0  0  0  0  0
   12.0769  -17.8055   26.2023 O   0  0  0  0  0  0  0  0  0  0  0  0
    9.9458  -17.5227   27.1675 C   0  0  2  0  0  0  0  0  0  0  0  0
    9.8252  -16.3122   26.3677 N   0  0  0  0  0  0  0  0  0  0  0  0
   10.4973  -17.1832   28.4941 C   0  0  0  0  0  0  0  0  0  0  0  0
   10.7316  -18.1100   29.4872 O   0  0  0  0  0  0  0  0  0  0  0  0
   10.7790  -15.9811   28.7598 O   0  0  0  0  0  0  0  0  0  0  0  0
  2  1  1  6
  3  2  1  0
  4  3  1  0
  5  4  2  0
  6  7  1  0
  6  5  1  0
  7  8  2  0
  8  4  1  0
  9 16  1  0
  9  2  1  0
 10  9  2  0
 12 11  1  6
 12 14  1  0
 12 13  1  0
 15 14  1  1
 15 17  1  0
 15 16  1  0
 17 18  2  0
 20 19  1  6
 20 22  1  0
 21 20  1  0
 22 24  1  0
 22 23  1  6
 23 17  1  0
 24 25  1  0
 26 24  2  0
M  END
$$$$
