HLT.pdb
     RDKit          3D

 26 26  0  0  1  0  0  0  0  0999 V2000
    8.7302  -15.5674   20.1830 N   0  0  0  0  0  0  0  0  0  0  0  0
    7.9902  -16.1294   21.2992 C   0  0  1  0  0  0  0  0  0  0  0  0
    8.0157  -17.6427   21.2524 C   0  0  0  0  0  0  0  0  0  0  0  0
    7.4074  -18.1999   20.0388 C   0  0  0  0  0  0  0  0  0  0  0  0
    6.1860  -17.8881   19.4816 C   0  0  0  0  0  0  0  0  0  0  0  0
    6.0038  -18.6311   18.3589 N   0  0  0  0  0  0  0  0  0  0  0  0
    7.0894  -19.3832   18.2286 C   0  0  0  0  0  0  0  0  0  0  0  0
    7.9508  -19.1249   19.2512 N   0  0  0  0  0  0  0  0  0  0  0  0
    8.5143  -15.5857   22.5641 C   0  0  0  0  0  0  0  0  0  0  0  0
    9.7467  -15.5714   22.8005 O   0  0  0  0  0  0  0  0  0  0  0  0
    8.4058  -12.0865   26.8996 C   0  0  0  0  0  0  0  0  0  0  0  0
    7.2820  -13.0246   26.6932 C   0  0  1  0  0  0  0  0  0  0  0  0
    5.9751  -12.2454   26.9863 C   0  0  0  0  0  0  0  0  0  0  0  0
    7.1269  -13.5948   25.3496 C   0  0  0  0  0  0  0  0  0  0  0  0
    8.1234  -14.5680   24.8493 C   0  0  2  0  0  0  0  0  0  0  0  0
    7.6316  -15.0628   23.5496 N   0  0  0  0  0  0  0  0  0  0  0  0
    8.4567  -15.6917   25.7330 C   0  0  0  0  0  0  0  0  0  0  0  0
    7.4990  -16.4892   26.0411 O   0  0  0  0  0  0  0  0  0  0  0  0
   10.2311  -18.6142   24.9874 C   0  0  0  0  0  0  0  0  0  0  0  0
   10.8615  -18.1380   26.2675 C   0  0  1  0  0  0  0  0  0  0  0  0
   12.0235  -17.4168   25.9307 O   0  0  0  0  0  0  0  0  0  0  0  0
    9.9492  -17.1923   27.0262 C   0  0  2  0  0  0  0  0  0  0  0  0
    9.7442  -15.9668   26.2675 N   0  0  0  0  0  0  0  0  0  0  0  0
   10.5925  -16.8711   28.3155 C   0  0  0  0  0  0  0  0  0  0  0  0
   10.8861  -17.8101   29.2810 O   0  0  0  0  0  0  0  0  0  0  0  0
   10.9015  -15.6739   28.5735 O   0  0  0  0  0  0  0  0  0  0  0  0
  2  1  1  6
  3  2  1  0
  4  3  1  0
  5  4  2  0
  6  7  1  0
  6  5  1  0
  7  8  2  0
  8  4  1  0
  9 16  1  0
  9  2  1  0
 10  9  2  0
 12 11  1  6
 12 14  1  0
 12 13  1  0
 15 14  1  1
 15 17  1  0
 15 16  1  0
 17 18  2  0
 20 19  1  6
 20 22  1  0
 21 20  1  0
 22 24  1  0
 22 23  1  6
 23 17  1  0
 24 25  1  0
 26 24  2  0
M  END
$$$$
