HLT.pdb
     RDKit          3D

 26 26  0  0  1  0  0  0  0  0999 V2000
    9.7454  -15.3551   20.6964 N   0  0  0  0  0  0  0  0  0  0  0  0
    8.5803  -15.7871   21.4484 C   0  0  1  0  0  0  0  0  0  0  0  0
    8.2272  -17.2211   21.1138 C   0  0  0  0  0  0  0  0  0  0  0  0
    7.8106  -17.4099   19.7195 C   0  0  0  0  0  0  0  0  0  0  0  0
    7.8731  -16.5019   18.6846 C   0  0  0  0  0  0  0  0  0  0  0  0
    7.3868  -17.0777   17.5543 N   0  0  0  0  0  0  0  0  0  0  0  0
    7.0331  -18.3129   17.8869 C   0  0  0  0  0  0  0  0  0  0  0  0
    7.2892  -18.5225   19.2078 N   0  0  0  0  0  0  0  0  0  0  0  0
    8.8137  -15.5746   22.8874 C   0  0  0  0  0  0  0  0  0  0  0  0
    9.9524  -15.7377   23.3889 O   0  0  0  0  0  0  0  0  0  0  0  0
    5.6483  -12.0001   25.9138 C   0  0  0  0  0  0  0  0  0  0  0  0
    6.8392  -12.7632   25.4840 C   0  0  1  0  0  0  0  0  0  0  0  0
    8.0468  -12.2190   26.2881 C   0  0  0  0  0  0  0  0  0  0  0  0
    6.8183  -14.2139   25.7068 C   0  0  0  0  0  0  0  0  0  0  0  0
    7.9325  -15.0469   25.2016 C   0  0  2  0  0  0  0  0  0  0  0  0
    7.7492  -15.1783   23.7439 N   0  0  0  0  0  0  0  0  0  0  0  0
    8.1070  -16.3677   25.8176 C   0  0  0  0  0  0  0  0  0  0  0  0
    7.0708  -17.1240   25.8682 O   0  0  0  0  0  0  0  0  0  0  0  0
    9.2832  -19.4687   24.8648 C   0  0  0  0  0  0  0  0  0  0  0  0
   10.0319  -19.1996   26.1415 C   0  0  1  0  0  0  0  0  0  0  0  0
   11.2852  -18.6570   25.7972 O   0  0  0  0  0  0  0  0  0  0  0  0
    9.3204  -18.1754   27.0059 C   0  0  2  0  0  0  0  0  0  0  0  0
    9.3215  -16.8731   26.3550 N   0  0  0  0  0  0  0  0  0  0  0  0
   10.0389  -18.0832   28.2921 C   0  0  0  0  0  0  0  0  0  0  0  0
   10.0908  -19.1045   29.2165 O   0  0  0  0  0  0  0  0  0  0  0  0
   10.6493  -17.0175   28.5870 O   0  0  0  0  0  0  0  0  0  0  0  0
  2  1  1  6
  3  2  1  0
  4  3  1  0
  5  4  2  0
  6  7  1  0
  6  5  1  0
  7  8  2  0
  8  4  1  0
  9 16  1  0
  9  2  1  0
 10  9  2  0
 12 11  1  1
 12 14  1  0
 12 13  1  0
 15 14  1  1
 15 17  1  0
 15 16  1  0
 17 18  2  0
 20 19  1  6
 20 22  1  0
 21 20  1  0
 22 24  1  0
 22 23  1  6
 23 17  1  0
 24 25  1  0
 26 24  2  0
M  END
$$$$
