HLT.pdb
     RDKit          3D

 26 26  0  0  1  0  0  0  0  0999 V2000
    8.7078  -15.0361   20.5278 N   0  0  0  0  0  0  0  0  0  0  0  0
    7.9965  -15.9229   21.4317 C   0  0  1  0  0  0  0  0  0  0  0  0
    8.1999  -17.3699   21.0342 C   0  0  0  0  0  0  0  0  0  0  0  0
    7.7329  -17.6739   19.6767 C   0  0  0  0  0  0  0  0  0  0  0  0
    6.4380  -17.8751   19.2498 C   0  0  0  0  0  0  0  0  0  0  0  0
    6.4416  -18.1302   17.9154 N   0  0  0  0  0  0  0  0  0  0  0  0
    7.7108  -18.0867   17.5303 C   0  0  0  0  0  0  0  0  0  0  0  0
    8.5049  -17.8085   18.6010 N   0  0  0  0  0  0  0  0  0  0  0  0
    8.4054  -15.6464   22.8197 C   0  0  0  0  0  0  0  0  0  0  0  0
    9.6106  -15.7097   23.1637 O   0  0  0  0  0  0  0  0  0  0  0  0
    5.6830  -11.9189   25.9308 C   0  0  0  0  0  0  0  0  0  0  0  0
    6.7898  -12.7493   25.4106 C   0  0  1  0  0  0  0  0  0  0  0  0
    8.1096  -12.1469   25.9550 C   0  0  0  0  0  0  0  0  0  0  0  0
    6.7975  -14.1665   25.7929 C   0  0  0  0  0  0  0  0  0  0  0  0
    7.8131  -15.0741   25.2139 C   0  0  2  0  0  0  0  0  0  0  0  0
    7.4394  -15.3004   23.8050 N   0  0  0  0  0  0  0  0  0  0  0  0
    8.0283  -16.3542   25.8992 C   0  0  0  0  0  0  0  0  0  0  0  0
    6.9803  -16.9856   26.2881 O   0  0  0  0  0  0  0  0  0  0  0  0
    9.6067  -19.4857   24.5953 C   0  0  0  0  0  0  0  0  0  0  0  0
   10.2162  -19.1966   25.9399 C   0  0  1  0  0  0  0  0  0  0  0  0
   11.4396  -18.5334   25.7223 O   0  0  0  0  0  0  0  0  0  0  0  0
    9.3432  -18.2703   26.7660 C   0  0  2  0  0  0  0  0  0  0  0  0
    9.2928  -16.9469   26.1615 N   0  0  0  0  0  0  0  0  0  0  0  0
    9.9297  -18.1722   28.1171 C   0  0  0  0  0  0  0  0  0  0  0  0
   10.4122  -17.0009   28.6605 O   0  0  0  0  0  0  0  0  0  0  0  0
   10.0056  -19.2070   28.8373 O   0  0  0  0  0  0  0  0  0  0  0  0
  2  1  1  6
  3  2  1  0
  4  3  1  0
  5  4  2  0
  6  7  1  0
  6  5  1  0
  7  8  2  0
  8  4  1  0
  9 16  1  0
  9  2  1  0
 10  9  2  0
 12 11  1  1
 12 14  1  0
 12 13  1  0
 15 14  1  1
 15 17  1  0
 15 16  1  0
 17 18  2  0
 20 19  1  6
 20 22  1  0
 21 20  1  0
 22 24  1  0
 22 23  1  6
 23 17  1  0
 24 25  1  0
 26 24  2  0
M  END
$$$$
