HLT.pdb
     RDKit          3D

 26 26  0  0  1  0  0  0  0  0999 V2000
   14.0909  -14.3803   18.0796 N   0  0  0  0  0  0  0  0  0  0  0  0
   12.8615  -15.1523   18.1237 C   0  0  1  0  0  0  0  0  0  0  0  0
   13.1320  -16.6102   17.8165 C   0  0  0  0  0  0  0  0  0  0  0  0
   13.5606  -16.8458   16.4329 C   0  0  0  0  0  0  0  0  0  0  0  0
   13.7363  -15.9179   15.4292 C   0  0  0  0  0  0  0  0  0  0  0  0
   14.1422  -16.5531   14.2989 N   0  0  0  0  0  0  0  0  0  0  0  0
   14.2145  -17.8433   14.6011 C   0  0  0  0  0  0  0  0  0  0  0  0
   13.8606  -18.0292   15.9029 N   0  0  0  0  0  0  0  0  0  0  0  0
   12.1990  -14.9535   19.4244 C   0  0  0  0  0  0  0  0  0  0  0  0
   12.8685  -14.8136   20.4766 O   0  0  0  0  0  0  0  0  0  0  0  0
    7.2004  -12.6151   19.2661 C   0  0  0  0  0  0  0  0  0  0  0  0
    8.5785  -13.0747   19.5398 C   0  0  1  0  0  0  0  0  0  0  0  0
    9.3490  -11.8757   20.1481 C   0  0  0  0  0  0  0  0  0  0  0  0
    8.7358  -14.1859   20.4859 C   0  0  0  0  0  0  0  0  0  0  0  0
   10.0909  -14.6903   20.8018 C   0  0  2  0  0  0  0  0  0  0  0  0
   10.7799  -14.9158   19.5171 N   0  0  0  0  0  0  0  0  0  0  0  0
   10.1739  -15.8886   21.6454 C   0  0  0  0  0  0  0  0  0  0  0  0
    9.3211  -16.8198   21.4133 O   0  0  0  0  0  0  0  0  0  0  0  0
   12.8798  -18.3474   21.8287 C   0  0  0  0  0  0  0  0  0  0  0  0
   12.5315  -18.0082   23.2523 C   0  0  1  0  0  0  0  0  0  0  0  0
   13.4565  -17.0461   23.7024 O   0  0  0  0  0  0  0  0  0  0  0  0
   11.1502  -17.3898   23.3616 C   0  0  2  0  0  0  0  0  0  0  0  0
   11.1166  -16.0999   22.6874 N   0  0  0  0  0  0  0  0  0  0  0  0
   10.8431  -17.2048   24.7936 C   0  0  0  0  0  0  0  0  0  0  0  0
   10.7208  -18.2430   25.6920 O   0  0  0  0  0  0  0  0  0  0  0  0
   10.6779  -16.0376   25.2470 O   0  0  0  0  0  0  0  0  0  0  0  0
  2  1  1  1
  3  2  1  0
  4  3  1  0
  5  4  2  0
  6  7  1  0
  6  5  1  0
  7  8  2  0
  8  4  1  0
  9 16  1  0
  9  2  1  0
 10  9  2  0
 12 11  1  1
 12 14  1  0
 12 13  1  0
 15 14  1  6
 15 17  1  0
 15 16  1  0
 17 18  2  0
 20 19  1  6
 20 22  1  0
 21 20  1  0
 22 24  1  0
 22 23  1  6
 23 17  1  0
 24 25  1  0
 26 24  2  0
M  END
$$$$
