HLT.pdb
     RDKit          3D

 26 26  0  0  1  0  0  0  0  0999 V2000
    8.9784  -18.4799   15.7586 N   0  0  0  0  0  0  0  0  0  0  0  0
    8.5307  -18.7518   17.1132 C   0  0  1  0  0  0  0  0  0  0  0  0
    8.8725  -20.1708   17.5166 C   0  0  0  0  0  0  0  0  0  0  0  0
    8.2328  -21.1877   16.6739 C   0  0  0  0  0  0  0  0  0  0  0  0
    6.9455  -21.6726   16.7583 C   0  0  0  0  0  0  0  0  0  0  0  0
    6.7542  -22.6046   15.7885 N   0  0  0  0  0  0  0  0  0  0  0  0
    7.8988  -22.6908   15.1224 C   0  0  0  0  0  0  0  0  0  0  0  0
    8.8063  -21.8282   15.6579 N   0  0  0  0  0  0  0  0  0  0  0  0
    9.0902  -17.7441   18.0308 C   0  0  0  0  0  0  0  0  0  0  0  0
   10.3272  -17.6623   18.2250 O   0  0  0  0  0  0  0  0  0  0  0  0
    8.9655  -12.6600   20.2661 C   0  0  0  0  0  0  0  0  0  0  0  0
    7.9398  -13.6392   20.6834 C   0  0  1  0  0  0  0  0  0  0  0  0
    6.5912  -12.8811   20.7706 C   0  0  0  0  0  0  0  0  0  0  0  0
    7.7097  -14.7845   19.7945 C   0  0  0  0  0  0  0  0  0  0  0  0
    8.7719  -15.8005   19.6218 C   0  0  2  0  0  0  0  0  0  0  0  0
    8.2371  -16.8379   18.7198 N   0  0  0  0  0  0  0  0  0  0  0  0
    9.3122  -16.4111   20.8424 C   0  0  0  0  0  0  0  0  0  0  0  0
    8.4939  -17.0927   21.5593 O   0  0  0  0  0  0  0  0  0  0  0  0
   11.5300  -19.1802   21.3756 C   0  0  0  0  0  0  0  0  0  0  0  0
   12.0966  -18.0594   22.2037 C   0  0  1  0  0  0  0  0  0  0  0  0
   13.1114  -17.4395   21.4490 O   0  0  0  0  0  0  0  0  0  0  0  0
   11.0524  -17.0014   22.5082 C   0  0  2  0  0  0  0  0  0  0  0  0
   10.6576  -16.3117   21.2884 N   0  0  0  0  0  0  0  0  0  0  0  0
   11.6438  -16.0325   23.4519 C   0  0  0  0  0  0  0  0  0  0  0  0
   11.9384  -16.3243   24.7666 O   0  0  0  0  0  0  0  0  0  0  0  0
   11.9043  -14.8614   23.0570 O   0  0  0  0  0  0  0  0  0  0  0  0
  2  1  1  6
  3  2  1  0
  4  3  1  0
  5  4  2  0
  6  7  1  0
  6  5  1  0
  7  8  2  0
  8  4  1  0
  9 16  1  0
  9  2  1  0
 10  9  2  0
 12 11  1  6
 12 14  1  0
 12 13  1  0
 15 14  1  1
 15 17  1  0
 15 16  1  0
 17 18  2  0
 20 19  1  6
 20 22  1  0
 21 20  1  0
 22 24  1  0
 22 23  1  6
 23 17  1  0
 24 25  1  0
 26 24  2  0
M  END
$$$$
