HLT.pdb
     RDKit          3D

 26 26  0  0  1  0  0  0  0  0999 V2000
   10.0406  -14.7836   21.1674 N   0  0  0  0  0  0  0  0  0  0  0  0
    8.6921  -14.9760   21.6713 C   0  0  1  0  0  0  0  0  0  0  0  0
    8.0390  -16.1731   21.0131 C   0  0  0  0  0  0  0  0  0  0  0  0
    7.8623  -16.0190   19.5645 C   0  0  0  0  0  0  0  0  0  0  0  0
    8.2896  -14.9826   18.7629 C   0  0  0  0  0  0  0  0  0  0  0  0
    7.9224  -15.2298   17.4784 N   0  0  0  0  0  0  0  0  0  0  0  0
    7.2834  -16.3929   17.4901 C   0  0  0  0  0  0  0  0  0  0  0  0
    7.2431  -16.8805   18.7609 N   0  0  0  0  0  0  0  0  0  0  0  0
    8.7226  -15.0751   23.1409 C   0  0  0  0  0  0  0  0  0  0  0  0
    9.7534  -15.4641   23.7416 O   0  0  0  0  0  0  0  0  0  0  0  0
    5.5647  -11.6518   26.2048 C   0  0  0  0  0  0  0  0  0  0  0  0
    6.6821  -12.5050   25.7477 C   0  0  1  0  0  0  0  0  0  0  0  0
    7.9247  -12.1231   26.5909 C   0  0  0  0  0  0  0  0  0  0  0  0
    6.5169  -13.9562   25.8947 C   0  0  0  0  0  0  0  0  0  0  0  0
    7.5660  -14.8665   25.3834 C   0  0  2  0  0  0  0  0  0  0  0  0
    7.5795  -14.7308   23.9147 N   0  0  0  0  0  0  0  0  0  0  0  0
    7.4641  -16.2797   25.7670 C   0  0  0  0  0  0  0  0  0  0  0  0
    6.2812  -16.7499   25.9344 O   0  0  0  0  0  0  0  0  0  0  0  0
    8.0464  -19.5734   24.2081 C   0  0  0  0  0  0  0  0  0  0  0  0
    8.8454  -19.5392   25.4822 C   0  0  1  0  0  0  0  0  0  0  0  0
   10.1604  -19.1563   25.1535 O   0  0  0  0  0  0  0  0  0  0  0  0
    8.3069  -18.5081   26.4566 C   0  0  2  0  0  0  0  0  0  0  0  0
    8.5604  -17.1621   25.9630 N   0  0  0  0  0  0  0  0  0  0  0  0
    8.9950  -18.6960   27.7490 C   0  0  0  0  0  0  0  0  0  0  0  0
    8.8860  -19.8352   28.5174 O   0  0  0  0  0  0  0  0  0  0  0  0
    9.7321  -17.7744   28.1993 O   0  0  0  0  0  0  0  0  0  0  0  0
  2  1  1  6
  3  2  1  0
  4  3  1  0
  5  4  2  0
  6  7  1  0
  6  5  1  0
  7  8  2  0
  8  4  1  0
  9 16  1  0
  9  2  1  0
 10  9  2  0
 12 11  1  1
 12 14  1  0
 12 13  1  0
 15 14  1  6
 15 17  1  0
 15 16  1  0
 17 18  2  0
 20 19  1  6
 20 22  1  0
 21 20  1  0
 22 24  1  0
 22 23  1  6
 23 17  1  0
 24 25  1  0
 26 24  2  0
M  END
$$$$
