RDI.pdb
     RDKit          3D

 28 27  0  0  1  0  0  0  0  0999 V2000
    7.4087  -14.9484   14.7514 N   0  0  0  0  0  0  0  0  0  0  0  0
    8.3844  -13.9180   14.8180 C   0  0  0  0  0  0  0  0  0  0  0  0
    9.2398  -13.8615   13.8847 N   0  0  0  0  0  0  0  0  0  0  0  0
    8.4295  -12.9757   15.8509 N   0  0  0  0  0  0  0  0  0  0  0  0
    8.3082  -13.1900   17.2515 C   0  0  0  0  0  0  0  0  0  0  0  0
    7.5428  -14.3825   17.6804 C   0  0  0  0  0  0  0  0  0  0  0  0
    7.3822  -14.6849   19.1141 C   0  0  0  0  0  0  0  0  0  0  0  0
    8.6375  -15.0828   19.8462 C   0  0  2  0  0  0  0  0  0  0  0  0
    9.4885  -15.9110   19.0812 N   0  0  0  0  0  0  0  0  0  0  0  0
    8.2392  -15.6575   21.1746 C   0  0  0  0  0  0  0  0  0  0  0  0
    7.2768  -15.1011   21.7920 O   0  0  0  0  0  0  0  0  0  0  0  0
   10.0225  -13.1984   13.8641 N   0  0  0  0  0  0  0  0  0  0  0  0
    8.8397  -16.7584   21.7969 C   0  0  1  0  0  0  0  0  0  0  0  0
    8.4944  -17.2054   23.1354 C   0  0  0  0  0  0  0  0  0  0  0  0
    9.0477  -18.5381   23.4961 C   0  0  0  0  0  0  0  0  0  0  0  0
    8.9039  -19.5562   22.4331 O   0  0  0  0  0  0  0  0  0  0  0  0
    7.7933  -20.1111   22.2625 C   0  0  0  0  0  0  0  0  0  0  0  0
    8.9611  -16.1315   24.0886 O   0  0  0  0  0  0  0  0  0  0  0  0
   10.1261  -15.6727   24.0054 O   0  0  0  0  0  0  0  0  0  0  0  0
    9.9867  -19.9133   21.6111 C   0  0  0  0  0  0  0  0  0  0  0  0
    7.0603  -11.0093   26.6344 C   0  0  0  0  0  0  0  0  0  0  0  0
    7.9623  -12.2192   26.7579 C   0  0  2  0  0  0  0  0  0  0  0  0
    7.4389  -13.3886   25.9451 C   0  0  0  0  0  0  0  0  0  0  0  0
    6.0227  -13.7289   26.2897 C   0  0  2  0  0  0  0  0  0  0  0  0
    8.3684  -14.5509   25.9872 N   0  0  0  0  0  0  0  0  0  0  0  0
    8.1023  -15.6198   25.0915 C   0  0  0  0  0  0  0  0  0  0  0  0
    8.6823  -14.9382   27.3911 O   0  0  0  0  0  0  0  0  0  0  0  0
    9.4505  -14.1215   28.1782 O   0  0  0  0  0  0  0  0  0  0  0  0
  2  3  2  0
  2  1  1  0
  4  2  1  0
  5  4  1  0
  6  5  1  0
  7  6  1  0
  8  7  1  0
  8  9  1  6
 10 11  2  0
 10  8  1  0
 12 10  1  0
 13 12  1  0
 13 14  1  6
 15 16  2  0
 15 14  1  0
 17 13  1  0
 18 17  2  0
 19 15  1  0
 20 21  1  0
 21 22  1  0
 22 24  1  0
 22 23  1  6
 24 26  1  0
 24 25  1  1
 25 17  1  0
 26 27  1  0
 28 26  2  0
M  END
$$$$
