RDI.pdb
     RDKit          3D

 28 27  0  0  1  0  0  0  0  0999 V2000
    8.0732  -13.1942   14.5468 N   0  0  0  0  0  0  0  0  0  0  0  0
    8.3287  -14.0342   15.6636 C   0  0  0  0  0  0  0  0  0  0  0  0
    9.2488  -14.8979   15.5472 N   0  0  0  0  0  0  0  0  0  0  0  0
    7.6224  -13.9389   16.8673 N   0  0  0  0  0  0  0  0  0  0  0  0
    8.1327  -13.7516   18.1813 C   0  0  0  0  0  0  0  0  0  0  0  0
    7.1419  -13.6907   19.2798 C   0  0  0  0  0  0  0  0  0  0  0  0
    7.4074  -14.3763   20.5574 C   0  0  0  0  0  0  0  0  0  0  0  0
    7.7043  -15.8504   20.4625 C   0  0  2  0  0  0  0  0  0  0  0  0
    6.6580  -16.5913   19.8694 N   0  0  0  0  0  0  0  0  0  0  0  0
    8.1131  -16.3314   21.8245 C   0  0  0  0  0  0  0  0  0  0  0  0
    7.1893  -16.6485   22.6387 O   0  0  0  0  0  0  0  0  0  0  0  0
    9.5382  -15.5317   16.3003 N   0  0  0  0  0  0  0  0  0  0  0  0
    9.4309  -16.4605   22.2792 C   0  0  1  0  0  0  0  0  0  0  0  0
    9.7749  -16.9693   23.5958 C   0  0  0  0  0  0  0  0  0  0  0  0
   10.9704  -17.8541   23.6155 C   0  0  0  0  0  0  0  0  0  0  0  0
   12.0202  -17.4675   22.6483 O   0  0  0  0  0  0  0  0  0  0  0  0
   11.7461  -17.4382   21.4257 C   0  0  0  0  0  0  0  0  0  0  0  0
    9.9543  -15.7696   24.4947 O   0  0  0  0  0  0  0  0  0  0  0  0
   10.8710  -14.9420   24.2719 O   0  0  0  0  0  0  0  0  0  0  0  0
   13.3177  -17.1324   23.0722 C   0  0  0  0  0  0  0  0  0  0  0  0
    6.3456  -12.3701   26.0956 C   0  0  0  0  0  0  0  0  0  0  0  0
    7.6370  -13.0978   25.7861 C   0  0  2  0  0  0  0  0  0  0  0  0
    8.2384  -13.7183   27.0333 C   0  0  0  0  0  0  0  0  0  0  0  0
    8.6271  -12.6882   28.0472 C   0  0  2  0  0  0  0  0  0  0  0  0
    9.3240  -14.6822   26.7025 N   0  0  0  0  0  0  0  0  0  0  0  0
    9.0994  -15.5507   25.6020 C   0  0  0  0  0  0  0  0  0  0  0  0
    9.8738  -15.3165   27.9332 O   0  0  0  0  0  0  0  0  0  0  0  0
   10.7564  -14.6334   28.7277 O   0  0  0  0  0  0  0  0  0  0  0  0
  2  3  2  0
  2  1  1  0
  4  2  1  0
  5  4  1  0
  6  5  1  0
  7  6  1  0
  8  7  1  0
  8  9  1  1
 10 11  2  0
 10  8  1  0
 12 10  1  0
 13 12  1  0
 13 14  1  6
 15 16  2  0
 15 14  1  0
 17 13  1  0
 18 17  2  0
 19 15  1  0
 20 21  1  0
 21 22  1  0
 22 24  1  0
 22 23  1  1
 24 26  1  0
 24 25  1  6
 25 17  1  0
 26 27  1  0
 28 26  2  0
M  END
$$$$
