RDI.pdb
     RDKit          3D

 28 27  0  0  1  0  0  0  0  0999 V2000
    8.5914  -13.7662   13.9552 N   0  0  0  0  0  0  0  0  0  0  0  0
    8.2385  -13.6774   15.3284 C   0  0  0  0  0  0  0  0  0  0  0  0
    8.8583  -12.8297   16.0378 N   0  0  0  0  0  0  0  0  0  0  0  0
    7.2446  -14.4691   15.9135 N   0  0  0  0  0  0  0  0  0  0  0  0
    7.2031  -15.0112   17.2274 C   0  0  0  0  0  0  0  0  0  0  0  0
    8.1379  -14.4316   18.2184 C   0  0  0  0  0  0  0  0  0  0  0  0
    8.0861  -14.8617   19.6274 C   0  0  0  0  0  0  0  0  0  0  0  0
    8.2075  -16.3444   19.8664 C   0  0  2  0  0  0  0  0  0  0  0  0
    7.2818  -17.1057   19.1189 N   0  0  0  0  0  0  0  0  0  0  0  0
    8.1570  -16.5825   21.3478 C   0  0  0  0  0  0  0  0  0  0  0  0
    7.0108  -16.6756   21.8904 O   0  0  0  0  0  0  0  0  0  0  0  0
    8.6396  -12.6361   17.0214 N   0  0  0  0  0  0  0  0  0  0  0  0
    9.2689  -16.7105   22.1888 C   0  0  1  0  0  0  0  0  0  0  0  0
    9.1683  -17.0352   23.6012 C   0  0  0  0  0  0  0  0  0  0  0  0
   10.0395  -18.1610   24.0327 C   0  0  0  0  0  0  0  0  0  0  0  0
   10.1024  -18.3444   25.4988 O   0  0  0  0  0  0  0  0  0  0  0  0
    9.1320  -18.8701   26.0926 C   0  0  0  0  0  0  0  0  0  0  0  0
    9.4754  -15.7688   24.3637 O   0  0  0  0  0  0  0  0  0  0  0  0
   10.5700  -15.1782   24.1972 O   0  0  0  0  0  0  0  0  0  0  0  0
   11.2274  -17.9417   26.2388 C   0  0  0  0  0  0  0  0  0  0  0  0
    5.5021  -12.2217   26.8598 C   0  0  0  0  0  0  0  0  0  0  0  0
    6.4270  -13.4125   26.7200 C   0  0  2  0  0  0  0  0  0  0  0  0
    7.7515  -13.0176   26.0941 C   0  0  0  0  0  0  0  0  0  0  0  0
    7.5797  -12.4316   24.7276 C   0  0  1  0  0  0  0  0  0  0  0  0
    8.7447  -14.1249   26.1576 N   0  0  0  0  0  0  0  0  0  0  0  0
    8.5430  -15.2208   25.2778 C   0  0  0  0  0  0  0  0  0  0  0  0
    9.0737  -14.4723   27.5685 O   0  0  0  0  0  0  0  0  0  0  0  0
    9.5843  -13.5224   28.4132 O   0  0  0  0  0  0  0  0  0  0  0  0
  2  3  2  0
  2  1  1  0
  4  2  1  0
  5  4  1  0
  6  5  1  0
  7  6  1  0
  8  7  1  0
  8  9  1  6
 10 11  2  0
 10  8  1  0
 12 10  1  0
 13 12  1  0
 13 14  1  1
 15 16  2  0
 15 14  1  0
 17 13  1  0
 18 17  2  0
 19 15  1  0
 20 21  1  0
 21 22  1  0
 22 24  1  0
 22 23  1  1
 24 26  1  0
 24 25  1  6
 25 17  1  0
 26 27  1  0
 28 26  2  0
M  END
$$$$
