RDI.pdb
     RDKit          3D

 28 27  0  0  1  0  0  0  0  0999 V2000
    7.0614  -13.3463   13.4737 N   0  0  0  0  0  0  0  0  0  0  0  0
    8.1091  -14.0937   14.0752 C   0  0  0  0  0  0  0  0  0  0  0  0
    8.5354  -15.1105   13.4503 N   0  0  0  0  0  0  0  0  0  0  0  0
    8.6833  -13.7502   15.3037 N   0  0  0  0  0  0  0  0  0  0  0  0
    8.7046  -14.4996   16.5120 C   0  0  0  0  0  0  0  0  0  0  0  0
    7.5637  -14.3087   17.4360 C   0  0  0  0  0  0  0  0  0  0  0  0
    7.7841  -13.7467   18.7808 C   0  0  0  0  0  0  0  0  0  0  0  0
    9.0036  -14.2475   19.5103 C   0  0  2  0  0  0  0  0  0  0  0  0
    9.7807  -15.1444   18.7440 N   0  0  0  0  0  0  0  0  0  0  0  0
    8.5618  -14.7861   20.8401 C   0  0  0  0  0  0  0  0  0  0  0  0
    7.7344  -14.0918   21.5111 O   0  0  0  0  0  0  0  0  0  0  0  0
    9.2535  -15.7469   13.8137 N   0  0  0  0  0  0  0  0  0  0  0  0
    8.9851  -15.9930   21.4095 C   0  0  1  0  0  0  0  0  0  0  0  0
    8.4670  -16.5085   22.6650 C   0  0  0  0  0  0  0  0  0  0  0  0
    8.8309  -17.9241   22.9408 C   0  0  0  0  0  0  0  0  0  0  0  0
    8.8745  -18.7792   21.7351 O   0  0  0  0  0  0  0  0  0  0  0  0
    8.6674  -18.2647   20.6112 C   0  0  0  0  0  0  0  0  0  0  0  0
    8.9587  -15.5844   23.7530 O   0  0  0  0  0  0  0  0  0  0  0  0
   10.1209  -15.1133   23.7072 O   0  0  0  0  0  0  0  0  0  0  0  0
    9.1434  -20.1559   21.8240 C   0  0  0  0  0  0  0  0  0  0  0  0
    5.7046  -11.8988   26.8586 C   0  0  0  0  0  0  0  0  0  0  0  0
    6.3257  -13.2367   26.5161 C   0  0  2  0  0  0  0  0  0  0  0  0
    7.7486  -13.0773   26.0143 C   0  0  0  0  0  0  0  0  0  0  0  0
    7.8182  -12.2706   24.7556 C   0  0  1  0  0  0  0  0  0  0  0  0
    8.4564  -14.3848   25.9354 N   0  0  0  0  0  0  0  0  0  0  0  0
    8.1271  -15.2293   24.8427 C   0  0  0  0  0  0  0  0  0  0  0  0
    8.5240  -15.0415   27.2710 O   0  0  0  0  0  0  0  0  0  0  0  0
    9.1682  -14.4266   28.3118 O   0  0  0  0  0  0  0  0  0  0  0  0
  2  3  2  0
  2  1  1  0
  4  2  1  0
  5  4  1  0
  6  5  1  0
  7  6  1  0
  8  7  1  0
  8  9  1  6
 10 11  2  0
 10  8  1  0
 12 10  1  0
 13 12  1  0
 13 14  1  6
 15 16  2  0
 15 14  1  0
 17 13  1  0
 18 17  2  0
 19 15  1  0
 20 21  1  0
 21 22  1  0
 22 24  1  0
 22 23  1  1
 24 26  1  0
 24 25  1  6
 25 17  1  0
 26 27  1  0
 28 26  2  0
M  END
$$$$
