RDI.pdb
     RDKit          3D

 28 27  0  0  1  0  0  0  0  0999 V2000
    8.3117  -14.5888   13.5140 N   0  0  0  0  0  0  0  0  0  0  0  0
    8.6415  -14.7917   14.8808 C   0  0  0  0  0  0  0  0  0  0  0  0
    9.2979  -15.8351   15.1753 N   0  0  0  0  0  0  0  0  0  0  0  0
    8.2838  -13.8951   15.8933 N   0  0  0  0  0  0  0  0  0  0  0  0
    8.5328  -13.9909   17.2900 C   0  0  0  0  0  0  0  0  0  0  0  0
    7.4765  -14.6202   18.1147 C   0  0  0  0  0  0  0  0  0  0  0  0
    7.1839  -14.1056   19.4647 C   0  0  0  0  0  0  0  0  0  0  0  0
    8.3813  -13.8343   20.3381 C   0  0  2  0  0  0  0  0  0  0  0  0
    9.5972  -13.8008   19.6199 N   0  0  0  0  0  0  0  0  0  0  0  0
    8.3577  -14.8123   21.4768 C   0  0  0  0  0  0  0  0  0  0  0  0
    7.2954  -14.8805   22.1724 O   0  0  0  0  0  0  0  0  0  0  0  0
    9.5226  -16.1187   16.1354 N   0  0  0  0  0  0  0  0  0  0  0  0
    9.4104  -15.6598   21.8423 C   0  0  2  0  0  0  0  0  0  0  0  0
    9.3772  -16.5127   23.0178 C   0  0  0  0  0  0  0  0  0  0  0  0
   10.3102  -17.6697   22.9596 C   0  0  0  0  0  0  0  0  0  0  0  0
   10.2755  -18.5308   24.1613 O   0  0  0  0  0  0  0  0  0  0  0  0
    9.2228  -18.5959   24.8382 C   0  0  0  0  0  0  0  0  0  0  0  0
    9.6601  -15.6278   24.2079 O   0  0  0  0  0  0  0  0  0  0  0  0
   10.7172  -14.9535   24.2594 O   0  0  0  0  0  0  0  0  0  0  0  0
   11.3982  -19.2771   24.5591 C   0  0  0  0  0  0  0  0  0  0  0  0
    6.3461  -12.0260   25.6210 C   0  0  0  0  0  0  0  0  0  0  0  0
    7.4883  -12.9970   25.4073 C   0  0  2  0  0  0  0  0  0  0  0  0
    7.8726  -13.6964   26.6977 C   0  0  0  0  0  0  0  0  0  0  0  0
    8.2419  -12.7286   27.7781 C   0  0  2  0  0  0  0  0  0  0  0  0
    8.8860  -14.7627   26.4677 N   0  0  0  0  0  0  0  0  0  0  0  0
    8.7468  -15.5378   25.2863 C   0  0  0  0  0  0  0  0  0  0  0  0
    9.1604  -15.5232   27.7190 O   0  0  0  0  0  0  0  0  0  0  0  0
    9.8111  -14.9226   28.7642 O   0  0  0  0  0  0  0  0  0  0  0  0
  2  3  2  0
  2  1  1  0
  4  2  1  0
  5  4  1  0
  6  5  1  0
  7  6  1  0
  8  7  1  0
  8  9  1  6
 10 11  2  0
 10  8  1  0
 12 10  1  0
 13 12  1  0
 13 14  1  6
 15 16  2  0
 15 14  1  0
 17 13  1  0
 18 17  2  0
 19 15  1  0
 20 21  1  0
 21 22  1  0
 22 24  1  0
 22 23  1  1
 24 26  1  0
 24 25  1  6
 25 17  1  0
 26 27  1  0
 28 26  2  0
M  END
$$$$
