RDI.pdb
     RDKit          3D

 28 27  0  0  1  0  0  0  0  0999 V2000
    9.0213  -12.8928   17.3197 N   0  0  0  0  0  0  0  0  0  0  0  0
    8.1598  -12.8312   18.4475 C   0  0  0  0  0  0  0  0  0  0  0  0
    8.5024  -12.0743   19.4045 N   0  0  0  0  0  0  0  0  0  0  0  0
    6.9653  -13.5540   18.5355 N   0  0  0  0  0  0  0  0  0  0  0  0
    6.7416  -14.8265   19.1294 C   0  0  0  0  0  0  0  0  0  0  0  0
    6.2665  -14.8344   20.5316 C   0  0  0  0  0  0  0  0  0  0  0  0
    6.0589  -16.1117   21.2375 C   0  0  0  0  0  0  0  0  0  0  0  0
    7.0206  -17.2182   20.8899 C   0  0  2  0  0  0  0  0  0  0  0  0
    6.3771  -18.4351   20.5732 N   0  0  0  0  0  0  0  0  0  0  0  0
    8.0332  -17.3184   21.9937 C   0  0  0  0  0  0  0  0  0  0  0  0
    7.6704  -17.8779   23.0765 O   0  0  0  0  0  0  0  0  0  0  0  0
    7.9487  -11.9437   20.2583 N   0  0  0  0  0  0  0  0  0  0  0  0
    9.3496  -16.8455   21.9345 C   0  0  2  0  0  0  0  0  0  0  0  0
   10.2579  -16.8687   23.0680 C   0  0  0  0  0  0  0  0  0  0  0  0
   11.6982  -16.8711   22.6966 C   0  0  0  0  0  0  0  0  0  0  0  0
   12.6160  -16.7364   23.8483 O   0  0  0  0  0  0  0  0  0  0  0  0
   12.3863  -17.3875   24.8942 C   0  0  0  0  0  0  0  0  0  0  0  0
    9.9073  -15.6822   23.9333 O   0  0  0  0  0  0  0  0  0  0  0  0
   10.1220  -14.5149   23.5258 O   0  0  0  0  0  0  0  0  0  0  0  0
   13.7397  -15.8938   23.7936 C   0  0  0  0  0  0  0  0  0  0  0  0
    6.8172  -11.8490   26.4225 C   0  0  0  0  0  0  0  0  0  0  0  0
    7.6422  -12.9743   27.0107 C   0  0  2  0  0  0  0  0  0  0  0  0
    7.7425  -14.1487   26.0553 C   0  0  0  0  0  0  0  0  0  0  0  0
    6.5562  -15.0566   26.1476 C   0  0  2  0  0  0  0  0  0  0  0  0
    9.0513  -14.8483   26.1752 N   0  0  0  0  0  0  0  0  0  0  0  0
    9.3319  -15.8562   25.2154 C   0  0  0  0  0  0  0  0  0  0  0  0
    9.3474  -15.1965   27.5932 O   0  0  0  0  0  0  0  0  0  0  0  0
    9.6500  -16.4869   27.9395 O   0  0  0  0  0  0  0  0  0  0  0  0
  2  3  2  0
  2  1  1  0
  4  2  1  0
  5  4  1  0
  6  5  1  0
  7  6  1  0
  8  7  1  0
  8  9  1  1
 10 11  2  0
 10  8  1  0
 12 10  1  0
 13 12  1  0
 13 14  1  6
 15 16  2  0
 15 14  1  0
 17 13  1  0
 18 17  2  0
 19 15  1  0
 20 21  1  0
 21 22  1  0
 22 24  1  0
 22 23  1  6
 24 26  1  0
 24 25  1  1
 25 17  1  0
 26 27  1  0
 28 26  2  0
M  END
$$$$
