RDI.pdb
     RDKit          3D

 28 27  0  0  1  0  0  0  0  0999 V2000
    7.2224  -15.3575   14.2305 N   0  0  0  0  0  0  0  0  0  0  0  0
    7.6556  -16.1453   15.3305 C   0  0  0  0  0  0  0  0  0  0  0  0
    7.4143  -17.3888   15.2901 N   0  0  0  0  0  0  0  0  0  0  0  0
    8.3340  -15.6113   16.4311 N   0  0  0  0  0  0  0  0  0  0  0  0
    8.6439  -14.2509   16.7058 C   0  0  0  0  0  0  0  0  0  0  0  0
    7.5721  -13.4323   17.3166 C   0  0  0  0  0  0  0  0  0  0  0  0
    7.1760  -13.6551   18.7189 C   0  0  0  0  0  0  0  0  0  0  0  0
    8.2177  -13.3247   19.7561 C   0  0  2  0  0  0  0  0  0  0  0  0
    9.5075  -13.1414   19.2101 N   0  0  0  0  0  0  0  0  0  0  0  0
    8.1416  -14.3618   20.8388 C   0  0  0  0  0  0  0  0  0  0  0  0
    7.0194  -14.5340   21.4114 O   0  0  0  0  0  0  0  0  0  0  0  0
    7.6698  -18.0465   16.0350 N   0  0  0  0  0  0  0  0  0  0  0  0
    9.2056  -15.1597   21.2761 C   0  0  1  0  0  0  0  0  0  0  0  0
    9.0878  -16.1269   22.3537 C   0  0  0  0  0  0  0  0  0  0  0  0
    9.9252  -17.3434   22.1769 C   0  0  0  0  0  0  0  0  0  0  0  0
    9.8827  -18.2744   23.3251 O   0  0  0  0  0  0  0  0  0  0  0  0
    8.9814  -19.1437   23.3760 C   0  0  0  0  0  0  0  0  0  0  0  0
    9.4249  -15.3992   23.6328 O   0  0  0  0  0  0  0  0  0  0  0  0
   10.4966  -14.7538   23.7315 O   0  0  0  0  0  0  0  0  0  0  0  0
   10.8319  -18.2041   24.3593 C   0  0  0  0  0  0  0  0  0  0  0  0
    6.5267  -11.7636   25.6829 C   0  0  0  0  0  0  0  0  0  0  0  0
    7.5676  -12.7941   25.2987 C   0  0  2  0  0  0  0  0  0  0  0  0
    7.8420  -13.7589   26.4371 C   0  0  0  0  0  0  0  0  0  0  0  0
    8.2581  -13.0530   27.6896 C   0  0  2  0  0  0  0  0  0  0  0  0
    8.7632  -14.8532   26.0241 N   0  0  0  0  0  0  0  0  0  0  0  0
    8.5469  -15.4267   24.7435 C   0  0  0  0  0  0  0  0  0  0  0  0
    8.9917  -15.8139   27.1396 O   0  0  0  0  0  0  0  0  0  0  0  0
   10.0976  -15.6945   27.9391 O   0  0  0  0  0  0  0  0  0  0  0  0
  2  3  2  0
  2  1  1  0
  4  2  1  0
  5  4  1  0
  6  5  1  0
  7  6  1  0
  8  7  1  0
  8  9  1  6
 10 11  2  0
 10  8  1  0
 12 10  1  0
 13 12  1  0
 13 14  1  1
 15 16  2  0
 15 14  1  0
 17 13  1  0
 18 17  2  0
 19 15  1  0
 20 21  1  0
 21 22  1  0
 22 24  1  0
 22 23  1  1
 24 26  1  0
 24 25  1  6
 25 17  1  0
 26 27  1  0
 28 26  2  0
M  END
$$$$
