RDI.pdb
     RDKit          3D

 28 27  0  0  1  0  0  0  0  0999 V2000
    7.6877  -13.1340   17.9331 N   0  0  0  0  0  0  0  0  0  0  0  0
    8.1513  -14.2809   17.2348 C   0  0  0  0  0  0  0  0  0  0  0  0
    8.7409  -14.0934   16.1287 N   0  0  0  0  0  0  0  0  0  0  0  0
    7.9927  -15.5841   17.7179 N   0  0  0  0  0  0  0  0  0  0  0  0
    6.8439  -16.4196   17.6519 C   0  0  0  0  0  0  0  0  0  0  0  0
    5.8714  -16.3062   18.7623 C   0  0  0  0  0  0  0  0  0  0  0  0
    6.1351  -16.9724   20.0506 C   0  0  0  0  0  0  0  0  0  0  0  0
    6.3454  -16.0599   21.2310 C   0  0  2  0  0  0  0  0  0  0  0  0
    6.3867  -14.6931   20.8767 N   0  0  0  0  0  0  0  0  0  0  0  0
    7.5500  -16.5442   21.9847 C   0  0  0  0  0  0  0  0  0  0  0  0
    7.4737  -17.6815   22.5484 O   0  0  0  0  0  0  0  0  0  0  0  0
    9.1139  -14.8487   15.5430 N   0  0  0  0  0  0  0  0  0  0  0  0
    8.7566  -15.8479   22.1225 C   0  0  2  0  0  0  0  0  0  0  0  0
    9.8614  -16.3192   22.9398 C   0  0  0  0  0  0  0  0  0  0  0  0
   11.1775  -16.3189   22.2467 C   0  0  0  0  0  0  0  0  0  0  0  0
   12.3126  -16.7049   23.1124 O   0  0  0  0  0  0  0  0  0  0  0  0
   12.2065  -17.7137   23.8484 C   0  0  0  0  0  0  0  0  0  0  0  0
    9.8847  -15.4595   24.1808 O   0  0  0  0  0  0  0  0  0  0  0  0
   10.5618  -14.4033   24.2076 O   0  0  0  0  0  0  0  0  0  0  0  0
   13.5071  -15.9641   23.1261 C   0  0  0  0  0  0  0  0  0  0  0  0
    6.7078  -12.3805   26.1355 C   0  0  0  0  0  0  0  0  0  0  0  0
    7.8944  -13.2727   25.8371 C   0  0  2  0  0  0  0  0  0  0  0  0
    8.1598  -14.2435   26.9724 C   0  0  0  0  0  0  0  0  0  0  0  0
    8.3843  -13.5428   28.2758 C   0  0  2  0  0  0  0  0  0  0  0  0
    9.2223  -15.2261   26.6223 N   0  0  0  0  0  0  0  0  0  0  0  0
    9.1489  -15.8211   25.3353 C   0  0  0  0  0  0  0  0  0  0  0  0
    9.4919  -16.1539   27.7562 O   0  0  0  0  0  0  0  0  0  0  0  0
   10.1009  -15.6957   28.8945 O   0  0  0  0  0  0  0  0  0  0  0  0
  2  3  2  0
  2  1  1  0
  4  2  1  0
  5  4  1  0
  6  5  1  0
  7  6  1  0
  8  7  1  0
  8  9  1  6
 10 11  2  0
 10  8  1  0
 12 10  1  0
 13 12  1  0
 13 14  1  6
 15 16  2  0
 15 14  1  0
 17 13  1  0
 18 17  2  0
 19 15  1  0
 20 21  1  0
 21 22  1  0
 22 24  1  0
 22 23  1  1
 24 26  1  0
 24 25  1  6
 25 17  1  0
 26 27  1  0
 28 26  2  0
M  END
$$$$
