RDI.pdb
     RDKit          3D

 28 27  0  0  1  0  0  0  0  0999 V2000
    8.7463  -11.6440   19.4281 N   0  0  0  0  0  0  0  0  0  0  0  0
    9.1869  -12.9139   18.9684 C   0  0  0  0  0  0  0  0  0  0  0  0
   10.4333  -13.1427   18.9879 N   0  0  0  0  0  0  0  0  0  0  0  0
    8.3122  -13.9058   18.5125 N   0  0  0  0  0  0  0  0  0  0  0  0
    7.6037  -14.8784   19.2702 C   0  0  0  0  0  0  0  0  0  0  0  0
    7.0457  -14.4366   20.5684 C   0  0  0  0  0  0  0  0  0  0  0  0
    6.4262  -15.4143   21.4811 C   0  0  0  0  0  0  0  0  0  0  0  0
    7.0118  -16.8023   21.4527 C   0  0  2  0  0  0  0  0  0  0  0  0
    6.0400  -17.8123   21.2772 N   0  0  0  0  0  0  0  0  0  0  0  0
    7.8706  -16.9700   22.6725 C   0  0  0  0  0  0  0  0  0  0  0  0
    7.2847  -17.1916   23.7791 O   0  0  0  0  0  0  0  0  0  0  0  0
   10.8669  -13.9875   18.5993 N   0  0  0  0  0  0  0  0  0  0  0  0
    9.2687  -16.9020   22.6977 C   0  0  2  0  0  0  0  0  0  0  0  0
   10.0577  -17.1344   23.8952 C   0  0  0  0  0  0  0  0  0  0  0  0
   11.4678  -17.5272   23.6309 C   0  0  0  0  0  0  0  0  0  0  0  0
   11.6075  -18.7553   22.8189 O   0  0  0  0  0  0  0  0  0  0  0  0
   11.8828  -18.6560   21.6003 C   0  0  0  0  0  0  0  0  0  0  0  0
    9.9758  -15.8749   24.7237 O   0  0  0  0  0  0  0  0  0  0  0  0
   10.5865  -14.8391   24.3647 O   0  0  0  0  0  0  0  0  0  0  0  0
   11.4380  -20.0302   23.3858 C   0  0  0  0  0  0  0  0  0  0  0  0
    6.1602  -12.8729   26.1196 C   0  0  0  0  0  0  0  0  0  0  0  0
    7.4819  -13.5734   25.8847 C   0  0  2  0  0  0  0  0  0  0  0  0
    8.1214  -14.0071   27.1905 C   0  0  0  0  0  0  0  0  0  0  0  0
    8.3804  -12.8512   28.1054 C   0  0  2  0  0  0  0  0  0  0  0  0
    9.3082  -14.8767   26.9625 N   0  0  0  0  0  0  0  0  0  0  0  0
    9.2139  -15.8321   25.9165 C   0  0  0  0  0  0  0  0  0  0  0  0
    9.8675  -15.3726   28.2512 O   0  0  0  0  0  0  0  0  0  0  0  0
    9.9112  -16.7163   28.5143 O   0  0  0  0  0  0  0  0  0  0  0  0
  2  3  2  0
  2  1  1  0
  4  2  1  0
  5  4  1  0
  6  5  1  0
  7  6  1  0
  8  7  1  0
  8  9  1  1
 10 11  2  0
 10  8  1  0
 12 10  1  0
 13 12  1  0
 13 14  1  6
 15 16  2  0
 15 14  1  0
 17 13  1  0
 18 17  2  0
 19 15  1  0
 20 21  1  0
 21 22  1  0
 22 24  1  0
 22 23  1  1
 24 26  1  0
 24 25  1  6
 25 17  1  0
 26 27  1  0
 28 26  2  0
M  END
$$$$
