RDI.pdb
     RDKit          3D

 28 27  0  0  1  0  0  0  0  0999 V2000
    7.9089  -13.5998   17.0976 N   0  0  0  0  0  0  0  0  0  0  0  0
    8.3161  -13.0051   18.3218 C   0  0  0  0  0  0  0  0  0  0  0  0
    7.9601  -11.8081   18.5373 N   0  0  0  0  0  0  0  0  0  0  0  0
    9.0730  -13.6819   19.2841 N   0  0  0  0  0  0  0  0  0  0  0  0
    8.6520  -14.6909   20.1933 C   0  0  0  0  0  0  0  0  0  0  0  0
    7.2932  -14.5503   20.7641 C   0  0  0  0  0  0  0  0  0  0  0  0
    6.7800  -15.5537   21.7142 C   0  0  0  0  0  0  0  0  0  0  0  0
    7.3269  -16.9487   21.5556 C   0  0  2  0  0  0  0  0  0  0  0  0
    6.3637  -17.8749   21.0975 N   0  0  0  0  0  0  0  0  0  0  0  0
    7.9988  -17.3340   22.8416 C   0  0  0  0  0  0  0  0  0  0  0  0
    7.2618  -17.7606   23.7860 O   0  0  0  0  0  0  0  0  0  0  0  0
    8.2140  -11.2772   19.3778 N   0  0  0  0  0  0  0  0  0  0  0  0
    9.3741  -17.2629   23.0932 C   0  0  2  0  0  0  0  0  0  0  0  0
    9.9772  -17.6652   24.3522 C   0  0  0  0  0  0  0  0  0  0  0  0
   11.2107  -18.4831   24.2048 C   0  0  0  0  0  0  0  0  0  0  0  0
   11.8340  -18.8675   25.4896 O   0  0  0  0  0  0  0  0  0  0  0  0
   12.6827  -18.1066   26.0107 C   0  0  0  0  0  0  0  0  0  0  0  0
   10.2369  -16.4011   25.1359 O   0  0  0  0  0  0  0  0  0  0  0  0
   11.1929  -15.6490   24.8274 O   0  0  0  0  0  0  0  0  0  0  0  0
   11.4940  -20.0675   26.1376 C   0  0  0  0  0  0  0  0  0  0  0  0
    7.3257  -12.3442   25.7800 C   0  0  0  0  0  0  0  0  0  0  0  0
    8.4339  -13.3761   25.7864 C   0  0  2  0  0  0  0  0  0  0  0  0
    8.7416  -13.8533   27.1934 C   0  0  0  0  0  0  0  0  0  0  0  0
    9.1779  -12.7353   28.0878 C   0  0  2  0  0  0  0  0  0  0  0  0
    9.6638  -15.0221   27.1912 N   0  0  0  0  0  0  0  0  0  0  0  0
    9.4144  -16.0361   26.2293 C   0  0  0  0  0  0  0  0  0  0  0  0
    9.9410  -15.4914   28.5777 O   0  0  0  0  0  0  0  0  0  0  0  0
   10.6024  -14.6812   29.4625 O   0  0  0  0  0  0  0  0  0  0  0  0
  2  3  2  0
  2  1  1  0
  4  2  1  0
  5  4  1  0
  6  5  1  0
  7  6  1  0
  8  7  1  0
  8  9  1  1
 10 11  2  0
 10  8  1  0
 12 10  1  0
 13 12  1  0
 13 14  1  6
 15 16  2  0
 15 14  1  0
 17 13  1  0
 18 17  2  0
 19 15  1  0
 20 21  1  0
 21 22  1  0
 22 24  1  0
 22 23  1  1
 24 26  1  0
 24 25  1  6
 25 17  1  0
 26 27  1  0
 28 26  2  0
M  END
$$$$
