RDI.pdb
     RDKit          3D

 28 27  0  0  1  0  0  0  0  0999 V2000
    8.1960  -12.1707   17.9458 N   0  0  0  0  0  0  0  0  0  0  0  0
    8.3365  -13.3072   17.1051 C   0  0  0  0  0  0  0  0  0  0  0  0
    8.1106  -13.1509   15.8679 N   0  0  0  0  0  0  0  0  0  0  0  0
    8.7168  -14.5662   17.5816 N   0  0  0  0  0  0  0  0  0  0  0  0
    7.9689  -15.4737   18.3812 C   0  0  0  0  0  0  0  0  0  0  0  0
    7.2712  -14.9078   19.5579 C   0  0  0  0  0  0  0  0  0  0  0  0
    6.5037  -15.7865   20.4589 C   0  0  0  0  0  0  0  0  0  0  0  0
    7.0411  -17.1838   20.6287 C   0  0  2  0  0  0  0  0  0  0  0  0
    6.1686  -18.1789   20.1349 N   0  0  0  0  0  0  0  0  0  0  0  0
    7.4352  -17.3592   22.0666 C   0  0  0  0  0  0  0  0  0  0  0  0
    6.5025  -17.4405   22.9270 O   0  0  0  0  0  0  0  0  0  0  0  0
    8.2923  -13.8682   15.1572 N   0  0  0  0  0  0  0  0  0  0  0  0
    8.7483  -17.4404   22.5453 C   0  0  2  0  0  0  0  0  0  0  0  0
    9.0762  -17.6411   23.9463 C   0  0  0  0  0  0  0  0  0  0  0  0
   10.2721  -18.4949   24.1775 C   0  0  0  0  0  0  0  0  0  0  0  0
   10.6835  -18.5817   25.5953 O   0  0  0  0  0  0  0  0  0  0  0  0
   11.6885  -17.9405   25.9820 C   0  0  0  0  0  0  0  0  0  0  0  0
    9.2434  -16.2704   24.5567 O   0  0  0  0  0  0  0  0  0  0  0  0
   10.0996  -15.4739   24.1015 O   0  0  0  0  0  0  0  0  0  0  0  0
    9.9707  -19.3678   26.5170 C   0  0  0  0  0  0  0  0  0  0  0  0
    6.8568  -11.2913   26.8275 C   0  0  0  0  0  0  0  0  0  0  0  0
    7.9146  -12.3584   27.0156 C   0  0  2  0  0  0  0  0  0  0  0  0
    7.5224  -13.6565   26.3351 C   0  0  0  0  0  0  0  0  0  0  0  0
    6.1802  -14.1465   26.7810 C   0  0  2  0  0  0  0  0  0  0  0  0
    8.6017  -14.6777   26.4292 N   0  0  0  0  0  0  0  0  0  0  0  0
    8.4443  -15.8534   25.6488 C   0  0  0  0  0  0  0  0  0  0  0  0
    9.0257  -14.8840   27.8424 O   0  0  0  0  0  0  0  0  0  0  0  0
    9.7131  -13.9036   28.5079 O   0  0  0  0  0  0  0  0  0  0  0  0
  2  3  2  0
  2  1  1  0
  4  2  1  0
  5  4  1  0
  6  5  1  0
  7  6  1  0
  8  7  1  0
  8  9  1  1
 10 11  2  0
 10  8  1  0
 12 10  1  0
 13 12  1  0
 13 14  1  6
 15 16  2  0
 15 14  1  0
 17 13  1  0
 18 17  2  0
 19 15  1  0
 20 21  1  0
 21 22  1  0
 22 24  1  0
 22 23  1  6
 24 26  1  0
 24 25  1  1
 25 17  1  0
 26 27  1  0
 28 26  2  0
M  END
$$$$
