RDI.pdb
     RDKit          3D

 28 27  0  0  1  0  0  0  0  0999 V2000
    7.6655  -15.5169   15.8719 N   0  0  0  0  0  0  0  0  0  0  0  0
    8.1921  -14.2408   15.5367 C   0  0  0  0  0  0  0  0  0  0  0  0
    8.5875  -14.0661   14.3454 N   0  0  0  0  0  0  0  0  0  0  0  0
    8.2801  -13.1872   16.4526 N   0  0  0  0  0  0  0  0  0  0  0  0
    8.2722  -13.2456   17.8734 C   0  0  0  0  0  0  0  0  0  0  0  0
    7.2103  -14.0637   18.5019 C   0  0  0  0  0  0  0  0  0  0  0  0
    7.4983  -14.8465   19.7173 C   0  0  0  0  0  0  0  0  0  0  0  0
    8.7017  -14.4084   20.5111 C   0  0  2  0  0  0  0  0  0  0  0  0
    9.8915  -14.3851   19.7499 N   0  0  0  0  0  0  0  0  0  0  0  0
    8.7728  -15.2508   21.7516 C   0  0  0  0  0  0  0  0  0  0  0  0
    7.7325  -15.3150   22.4800 O   0  0  0  0  0  0  0  0  0  0  0  0
    8.9953  -13.1903   13.9997 N   0  0  0  0  0  0  0  0  0  0  0  0
    9.8919  -15.9751   22.1792 C   0  0  1  0  0  0  0  0  0  0  0  0
    9.9293  -16.7266   23.4219 C   0  0  0  0  0  0  0  0  0  0  0  0
   10.9987  -17.7589   23.4796 C   0  0  0  0  0  0  0  0  0  0  0  0
   11.1156  -18.5724   22.2502 O   0  0  0  0  0  0  0  0  0  0  0  0
   10.1593  -19.3069   21.9083 C   0  0  0  0  0  0  0  0  0  0  0  0
   10.0664  -15.7190   24.5379 O   0  0  0  0  0  0  0  0  0  0  0  0
   11.0513  -14.9423   24.5733 O   0  0  0  0  0  0  0  0  0  0  0  0
   12.2761  -18.5383   21.4581 C   0  0  0  0  0  0  0  0  0  0  0  0
    6.3847  -12.3844   25.6662 C   0  0  0  0  0  0  0  0  0  0  0  0
    7.6825  -13.1575   25.5611 C   0  0  2  0  0  0  0  0  0  0  0  0
    8.0539  -13.8033   26.8829 C   0  0  0  0  0  0  0  0  0  0  0  0
    8.3126  -12.7912   27.9547 C   0  0  2  0  0  0  0  0  0  0  0  0
    9.1425  -14.8061   26.7214 N   0  0  0  0  0  0  0  0  0  0  0  0
    9.0944  -15.6265   25.5636 C   0  0  0  0  0  0  0  0  0  0  0  0
    9.4246  -15.5057   28.0061 O   0  0  0  0  0  0  0  0  0  0  0  0
   10.0144  -14.8339   29.0440 O   0  0  0  0  0  0  0  0  0  0  0  0
  2  3  2  0
  2  1  1  0
  4  2  1  0
  5  4  1  0
  6  5  1  0
  7  6  1  0
  8  7  1  0
  8  9  1  6
 10 11  2  0
 10  8  1  0
 12 10  1  0
 13 12  1  0
 13 14  1  1
 15 16  2  0
 15 14  1  0
 17 13  1  0
 18 17  2  0
 19 15  1  0
 20 21  1  0
 21 22  1  0
 22 24  1  0
 22 23  1  1
 24 26  1  0
 24 25  1  6
 25 17  1  0
 26 27  1  0
 28 26  2  0
M  END
$$$$
