THF.pdb
     RDKit          3D

 29 30  0  0  1  0  0  0  0  0999 V2000
   19.6976  -11.7683    4.4652 C   0  0  0  0  0  0  0  0  0  0  0  0
   19.1247  -13.0280    5.0418 C   0  0  1  0  0  0  0  0  0  0  0  0
   18.7379  -12.7992    6.3609 O   0  0  0  0  0  0  0  0  0  0  0  0
   17.9611  -13.5685    4.2736 C   0  0  2  0  0  0  0  0  0  0  0  0
   16.8221  -12.6971    4.3798 N   0  0  0  0  0  0  0  0  0  0  0  0
   17.6207  -14.9507    4.7696 C   0  0  0  0  0  0  0  0  0  0  0  0
   16.6831  -15.1242    5.5894 O   0  0  0  0  0  0  0  0  0  0  0  0
   18.3333  -16.0946    4.3382 N   0  0  0  0  0  0  0  0  0  0  0  0
   17.9737  -17.4051    4.8382 C   0  0  1  0  0  0  0  0  0  0  0  0
   17.9217  -18.3796    3.6847 C   0  0  0  0  0  0  0  0  0  0  0  0
   16.6044  -18.5124    3.0606 C   0  0  0  0  0  0  0  0  0  0  0  0
   15.4219  -17.9408    3.4729 C   0  0  0  0  0  0  0  0  0  0  0  0
   14.4620  -18.3208    2.6194 N   0  0  0  0  0  0  0  0  0  0  0  0
   15.0117  -19.1060    1.6965 C   0  0  0  0  0  0  0  0  0  0  0  0
   16.3309  -19.2293    1.9607 N   0  0  0  0  0  0  0  0  0  0  0  0
   18.8967  -17.8981    5.8584 C   0  0  0  0  0  0  0  0  0  0  0  0
   20.1274  -17.9454    5.6175 O   0  0  0  0  0  0  0  0  0  0  0  0
   18.4992  -18.3451    7.1491 N   0  0  0  0  0  0  0  0  0  0  0  0
   19.4242  -18.8863    8.1261 C   0  0  1  0  0  0  0  0  0  0  0  0
   19.6005  -17.9447    9.2921 C   0  0  0  0  0  0  0  0  0  0  0  0
   20.7736  -17.0489    9.1573 C   0  0  0  0  0  0  0  0  0  0  0  0
   22.0326  -17.5657    8.8586 C   0  0  0  0  0  0  0  0  0  0  0  0
   23.1407  -16.7569    8.7193 C   0  0  0  0  0  0  0  0  0  0  0  0
   23.0515  -15.3892    8.8704 C   0  0  0  0  0  0  0  0  0  0  0  0
   21.8104  -14.8670    9.1660 C   0  0  0  0  0  0  0  0  0  0  0  0
   20.7014  -15.6766    9.3054 C   0  0  0  0  0  0  0  0  0  0  0  0
   19.0201  -20.2503    8.5240 C   0  0  0  0  0  0  0  0  0  0  0  0
   19.8385  -21.1228    9.2201 O   0  0  0  0  0  0  0  0  0  0  0  0
   17.8690  -20.6474    8.2150 O   0  0  0  0  0  0  0  0  0  0  0  0
  2  1  1  6
  3  2  1  0
  4  2  1  0
  4  5  1  1
  6  7  2  0
  6  4  1  0
  8  6  1  0
  9  8  1  0
  9 10  1  6
 11 15  1  0
 11 10  1  0
 12 11  2  0
 13 12  1  0
 13 14  1  0
 14 15  2  0
 16 18  1  0
 16  9  1  0
 17 16  2  0
 19 20  1  1
 19 18  1  0
 21 26  1  0
 21 20  1  0
 22 21  2  0
 23 24  2  0
 23 22  1  0
 24 25  1  0
 25 26  2  0
 27 19  1  0
 28 27  1  0
 29 27  2  0
M  END
$$$$
