THF.pdb
     RDKit          3D

 29 30  0  0  1  0  0  0  0  0999 V2000
   26.0764  -18.8147  -16.2227 C   0  0  0  0  0  0  0  0  0  0  0  0
   27.0172  -19.9222  -16.5917 C   0  0  1  0  0  0  0  0  0  0  0  0
   27.8936  -19.4753  -17.5787 O   0  0  0  0  0  0  0  0  0  0  0  0
   27.8046  -20.4545  -15.4373 C   0  0  2  0  0  0  0  0  0  0  0  0
   28.6997  -21.4977  -15.8595 N   0  0  0  0  0  0  0  0  0  0  0  0
   26.8669  -20.9586  -14.3700 C   0  0  0  0  0  0  0  0  0  0  0  0
   26.3393  -22.0960  -14.4661 O   0  0  0  0  0  0  0  0  0  0  0  0
   26.5466  -20.1823  -13.2312 N   0  0  0  0  0  0  0  0  0  0  0  0
   25.6515  -20.7089  -12.2221 C   0  0  1  0  0  0  0  0  0  0  0  0
   26.1664  -20.3276  -10.8537 C   0  0  0  0  0  0  0  0  0  0  0  0
   27.5624  -20.6919  -10.6068 C   0  0  0  0  0  0  0  0  0  0  0  0
   28.3999  -21.4048  -11.4347 C   0  0  0  0  0  0  0  0  0  0  0  0
   29.5875  -21.5120  -10.8245 N   0  0  0  0  0  0  0  0  0  0  0  0
   29.5106  -20.8904   -9.6505 C   0  0  0  0  0  0  0  0  0  0  0  0
   28.2668  -20.3825   -9.5084 N   0  0  0  0  0  0  0  0  0  0  0  0
   24.2766  -20.2391  -12.3796 C   0  0  0  0  0  0  0  0  0  0  0  0
   24.0365  -19.0077  -12.4114 O   0  0  0  0  0  0  0  0  0  0  0  0
   23.1471  -21.0950  -12.5044 N   0  0  0  0  0  0  0  0  0  0  0  0
   21.8080  -20.6136  -12.7836 C   0  0  1  0  0  0  0  0  0  0  0  0
   21.7770  -19.7840  -14.0436 C   0  0  0  0  0  0  0  0  0  0  0  0
   21.9709  -20.5781  -15.2800 C   0  0  0  0  0  0  0  0  0  0  0  0
   20.8909  -21.2015  -15.9018 C   0  0  0  0  0  0  0  0  0  0  0  0
   21.0388  -21.9399  -17.0568 C   0  0  0  0  0  0  0  0  0  0  0  0
   22.2722  -22.0957  -17.6532 C   0  0  0  0  0  0  0  0  0  0  0  0
   23.3479  -21.4831  -17.0465 C   0  0  0  0  0  0  0  0  0  0  0  0
   23.1998  -20.7439  -15.8904 C   0  0  0  0  0  0  0  0  0  0  0  0
   20.8443  -21.7332  -12.7894 C   0  0  0  0  0  0  0  0  0  0  0  0
   19.4727  -21.5672  -12.8707 O   0  0  0  0  0  0  0  0  0  0  0  0
   21.2891  -22.9058  -12.7158 O   0  0  0  0  0  0  0  0  0  0  0  0
  2  1  1  1
  3  2  1  0
  4  2  1  0
  4  5  1  6
  6  7  2  0
  6  4  1  0
  8  6  1  0
  9  8  1  0
  9 10  1  1
 11 15  1  0
 11 10  1  0
 12 11  2  0
 13 12  1  0
 13 14  1  0
 14 15  2  0
 16 18  1  0
 16  9  1  0
 17 16  2  0
 19 20  1  6
 19 18  1  0
 21 26  1  0
 21 20  1  0
 22 21  2  0
 23 24  2  0
 23 22  1  0
 24 25  1  0
 25 26  2  0
 27 19  1  0
 28 27  1  0
 29 27  2  0
M  END
$$$$
