THF.pdb
     RDKit          3D

 29 30  0  0  1  0  0  0  0  0999 V2000
   16.4291   -5.7622  -18.0203 C   0  0  0  0  0  0  0  0  0  0  0  0
   15.4082   -6.3830  -17.1147 C   0  0  1  0  0  0  0  0  0  0  0  0
   14.1456   -6.2683  -17.6932 O   0  0  0  0  0  0  0  0  0  0  0  0
   15.6768   -7.8195  -16.7980 C   0  0  2  0  0  0  0  0  0  0  0  0
   14.6250   -8.3761  -15.9907 N   0  0  0  0  0  0  0  0  0  0  0  0
   17.0067   -7.9475  -16.0998 C   0  0  0  0  0  0  0  0  0  0  0  0
   17.1490   -7.5507  -14.9150 O   0  0  0  0  0  0  0  0  0  0  0  0
   18.1346   -8.5120  -16.7411 N   0  0  0  0  0  0  0  0  0  0  0  0
   19.4017   -8.5910  -16.0447 C   0  0  1  0  0  0  0  0  0  0  0  0
   20.2187   -9.7209  -16.6268 C   0  0  0  0  0  0  0  0  0  0  0  0
   19.7581  -11.0590  -16.2526 C   0  0  0  0  0  0  0  0  0  0  0  0
   18.7856  -11.3824  -15.3336 C   0  0  0  0  0  0  0  0  0  0  0  0
   18.6792  -12.7172  -15.3001 N   0  0  0  0  0  0  0  0  0  0  0  0
   19.5518  -13.2268  -16.1659 C   0  0  0  0  0  0  0  0  0  0  0  0
   20.2204  -12.2125  -16.7569 N   0  0  0  0  0  0  0  0  0  0  0  0
   20.1654   -7.3467  -16.1094 C   0  0  0  0  0  0  0  0  0  0  0  0
   20.1146   -6.6350  -17.1418 O   0  0  0  0  0  0  0  0  0  0  0  0
   20.9918   -6.8587  -15.0592 N   0  0  0  0  0  0  0  0  0  0  0  0
   21.6594   -5.5721  -15.1013 C   0  0  1  0  0  0  0  0  0  0  0  0
   20.6895   -4.4635  -15.4290 C   0  0  0  0  0  0  0  0  0  0  0  0
   21.3021   -3.1141  -15.4027 C   0  0  0  0  0  0  0  0  0  0  0  0
   20.9635   -2.1984  -14.4086 C   0  0  0  0  0  0  0  0  0  0  0  0
   21.5223   -0.9391  -14.3534 C   0  0  0  0  0  0  0  0  0  0  0  0
   22.4489   -0.5262  -15.2873 C   0  0  0  0  0  0  0  0  0  0  0  0
   22.7915   -1.4242  -16.2755 C   0  0  0  0  0  0  0  0  0  0  0  0
   22.2321   -2.6848  -16.3306 C   0  0  0  0  0  0  0  0  0  0  0  0
   22.4219   -5.3416  -13.8573 C   0  0  0  0  0  0  0  0  0  0  0  0
   23.6731   -4.7512  -13.8200 O   0  0  0  0  0  0  0  0  0  0  0  0
   21.9110   -5.7008  -12.7672 O   0  0  0  0  0  0  0  0  0  0  0  0
  2  1  1  6
  3  2  1  0
  4  2  1  0
  4  5  1  1
  6  7  2  0
  6  4  1  0
  8  6  1  0
  9  8  1  0
  9 10  1  6
 11 15  1  0
 11 10  1  0
 12 11  2  0
 13 12  1  0
 13 14  1  0
 14 15  2  0
 16 18  1  0
 16  9  1  0
 17 16  2  0
 19 20  1  1
 19 18  1  0
 21 26  1  0
 21 20  1  0
 22 21  2  0
 23 24  2  0
 23 22  1  0
 24 25  1  0
 25 26  2  0
 27 19  1  0
 28 27  1  0
 29 27  2  0
M  END
$$$$
