THF.pdb
     RDKit          3D

 29 30  0  0  1  0  0  0  0  0999 V2000
   22.0779   -9.4186  -21.9769 C   0  0  0  0  0  0  0  0  0  0  0  0
   21.0468  -10.4906  -21.7895 C   0  0  1  0  0  0  0  0  0  0  0  0
   21.2620  -11.1316  -20.5710 O   0  0  0  0  0  0  0  0  0  0  0  0
   19.6390   -9.9892  -21.8410 C   0  0  2  0  0  0  0  0  0  0  0  0
   19.3581   -9.3667  -23.1064 N   0  0  0  0  0  0  0  0  0  0  0  0
   19.4006   -9.0227  -20.7089 C   0  0  0  0  0  0  0  0  0  0  0  0
   19.9025   -7.8700  -20.7342 O   0  0  0  0  0  0  0  0  0  0  0  0
   18.6122   -9.3689  -19.5860 N   0  0  0  0  0  0  0  0  0  0  0  0
   18.3909   -8.4041  -18.5292 C   0  0  1  0  0  0  0  0  0  0  0  0
   16.9105   -8.1249  -18.4137 C   0  0  0  0  0  0  0  0  0  0  0  0
   16.5577   -7.1259  -17.4038 C   0  0  0  0  0  0  0  0  0  0  0  0
   16.7295   -5.7622  -17.4803 C   0  0  0  0  0  0  0  0  0  0  0  0
   16.2722   -5.2257  -16.3414 N   0  0  0  0  0  0  0  0  0  0  0  0
   15.8250   -6.2108  -15.5666 C   0  0  0  0  0  0  0  0  0  0  0  0
   15.9971   -7.3844  -16.2132 N   0  0  0  0  0  0  0  0  0  0  0  0
   18.9111   -8.8459  -17.2369 C   0  0  0  0  0  0  0  0  0  0  0  0
   18.7034  -10.0210  -16.8480 O   0  0  0  0  0  0  0  0  0  0  0  0
   19.6611   -8.0227  -16.3517 N   0  0  0  0  0  0  0  0  0  0  0  0
   20.1954   -8.4900  -15.0871 C   0  0  1  0  0  0  0  0  0  0  0  0
   21.6377   -8.0800  -14.9183 C   0  0  0  0  0  0  0  0  0  0  0  0
   21.8469   -6.6138  -14.9759 C   0  0  0  0  0  0  0  0  0  0  0  0
   21.8346   -5.8472  -13.8124 C   0  0  0  0  0  0  0  0  0  0  0  0
   22.0340   -4.4830  -13.8336 C   0  0  0  0  0  0  0  0  0  0  0  0
   22.2564   -3.8109  -15.0168 C   0  0  0  0  0  0  0  0  0  0  0  0
   22.2707   -4.5595  -16.1743 C   0  0  0  0  0  0  0  0  0  0  0  0
   22.0712   -5.9251  -16.1530 C   0  0  0  0  0  0  0  0  0  0  0  0
   19.3266   -8.0692  -13.9690 C   0  0  0  0  0  0  0  0  0  0  0  0
   18.3502   -7.0944  -14.0782 O   0  0  0  0  0  0  0  0  0  0  0  0
   19.4785   -8.6237  -12.8519 O   0  0  0  0  0  0  0  0  0  0  0  0
  2  1  1  1
  3  2  1  0
  4  2  1  0
  4  5  1  6
  6  7  2  0
  6  4  1  0
  8  6  1  0
  9  8  1  0
  9 10  1  1
 11 15  1  0
 11 10  1  0
 12 11  2  0
 13 12  1  0
 13 14  1  0
 14 15  2  0
 16 18  1  0
 16  9  1  0
 17 16  2  0
 19 20  1  1
 19 18  1  0
 21 26  1  0
 21 20  1  0
 22 21  2  0
 23 24  2  0
 23 22  1  0
 24 25  1  0
 25 26  2  0
 27 19  1  0
 28 27  1  0
 29 27  2  0
M  END
$$$$
