THF.pdb
     RDKit          3D

 29 30  0  0  1  0  0  0  0  0999 V2000
   21.8647  -27.7272  -21.0874 C   0  0  0  0  0  0  0  0  0  0  0  0
   21.5776  -28.8806  -22.0010 C   0  0  1  0  0  0  0  0  0  0  0  0
   22.3914  -28.7915  -23.1287 O   0  0  0  0  0  0  0  0  0  0  0  0
   21.7667  -30.2187  -21.3610 C   0  0  2  0  0  0  0  0  0  0  0  0
   21.3239  -31.2748  -22.2308 N   0  0  0  0  0  0  0  0  0  0  0  0
   21.0258  -30.2653  -20.0489 C   0  0  0  0  0  0  0  0  0  0  0  0
   19.8559  -30.7226  -19.9897 O   0  0  0  0  0  0  0  0  0  0  0  0
   21.6095  -29.8023  -18.8459 N   0  0  0  0  0  0  0  0  0  0  0  0
   20.8474  -29.8220  -17.6148 C   0  0  1  0  0  0  0  0  0  0  0  0
   21.6859  -30.4421  -16.5215 C   0  0  0  0  0  0  0  0  0  0  0  0
   23.1263  -30.2235  -16.6628 C   0  0  0  0  0  0  0  0  0  0  0  0
   23.7813  -29.6141  -17.7091 C   0  0  0  0  0  0  0  0  0  0  0  0
   25.0924  -29.6242  -17.4350 N   0  0  0  0  0  0  0  0  0  0  0  0
   25.2676  -30.2181  -16.2572 C   0  0  0  0  0  0  0  0  0  0  0  0
   24.0619  -30.5903  -15.7747 N   0  0  0  0  0  0  0  0  0  0  0  0
   20.4015  -28.4935  -17.2001 C   0  0  0  0  0  0  0  0  0  0  0  0
   20.8346  -27.4754  -17.7925 O   0  0  0  0  0  0  0  0  0  0  0  0
   19.4829  -28.2514  -16.1410 N   0  0  0  0  0  0  0  0  0  0  0  0
   19.0015  -26.9297  -15.7886 C   0  0  1  0  0  0  0  0  0  0  0  0
   18.3842  -26.2375  -16.9790 C   0  0  0  0  0  0  0  0  0  0  0  0
   19.3817  -25.6563  -17.9085 C   0  0  0  0  0  0  0  0  0  0  0  0
   19.6712  -26.2785  -19.1212 C   0  0  0  0  0  0  0  0  0  0  0  0
   20.5880  -25.7576  -20.0096 C   0  0  0  0  0  0  0  0  0  0  0  0
   21.2650  -24.5881  -19.7355 C   0  0  0  0  0  0  0  0  0  0  0  0
   20.9863  -23.9639  -18.5384 C   0  0  0  0  0  0  0  0  0  0  0  0
   20.0685  -24.4853  -17.6491 C   0  0  0  0  0  0  0  0  0  0  0  0
   18.1064  -26.9987  -14.6155 C   0  0  0  0  0  0  0  0  0  0  0  0
   17.5717  -25.8863  -13.9893 O   0  0  0  0  0  0  0  0  0  0  0  0
   17.8103  -28.1292  -14.1545 O   0  0  0  0  0  0  0  0  0  0  0  0
  2  1  1  1
  3  2  1  0
  4  2  1  0
  4  5  1  6
  6  7  2  0
  6  4  1  0
  8  6  1  0
  9  8  1  0
  9 10  1  1
 11 15  1  0
 11 10  1  0
 12 11  2  0
 13 12  1  0
 13 14  1  0
 14 15  2  0
 16 18  1  0
 16  9  1  0
 17 16  2  0
 19 20  1  6
 19 18  1  0
 21 26  1  0
 21 20  1  0
 22 21  2  0
 23 24  2  0
 23 22  1  0
 24 25  1  0
 25 26  2  0
 27 19  1  0
 28 27  1  0
 29 27  2  0
M  END
$$$$
