THF.pdb
     RDKit          3D

 29 30  0  0  1  0  0  0  0  0999 V2000
   22.8131   -7.6115  -17.9850 C   0  0  0  0  0  0  0  0  0  0  0  0
   21.7444   -8.6548  -18.1152 C   0  0  1  0  0  0  0  0  0  0  0  0
   22.1610   -9.6342  -19.0146 O   0  0  0  0  0  0  0  0  0  0  0  0
   21.3717   -9.3016  -16.8195 C   0  0  2  0  0  0  0  0  0  0  0  0
   20.4156  -10.3560  -17.0245 N   0  0  0  0  0  0  0  0  0  0  0  0
   20.8245   -8.2652  -15.8713 C   0  0  0  0  0  0  0  0  0  0  0  0
   19.8003   -7.6001  -16.1709 O   0  0  0  0  0  0  0  0  0  0  0  0
   21.4336   -8.0021  -14.6215 N   0  0  0  0  0  0  0  0  0  0  0  0
   20.8627   -7.0148  -13.7293 C   0  0  1  0  0  0  0  0  0  0  0  0
   21.2366   -7.3566  -12.3058 C   0  0  0  0  0  0  0  0  0  0  0  0
   20.6484   -6.4762  -11.2952 C   0  0  0  0  0  0  0  0  0  0  0  0
   19.8369   -5.3846  -11.5069 C   0  0  0  0  0  0  0  0  0  0  0  0
   19.5245   -4.8666  -10.3118 N   0  0  0  0  0  0  0  0  0  0  0  0
   20.1149   -5.6007   -9.3721 C   0  0  0  0  0  0  0  0  0  0  0  0
   20.8091   -6.5941   -9.9690 N   0  0  0  0  0  0  0  0  0  0  0  0
   21.2924   -5.6525  -14.0380 C   0  0  0  0  0  0  0  0  0  0  0  0
   22.4864   -5.4301  -14.3540 O   0  0  0  0  0  0  0  0  0  0  0  0
   20.4363   -4.5166  -14.0083 N   0  0  0  0  0  0  0  0  0  0  0  0
   20.7897   -3.2355  -14.5887 C   0  0  1  0  0  0  0  0  0  0  0  0
   21.1825   -3.3820  -16.0383 C   0  0  0  0  0  0  0  0  0  0  0  0
   21.4787   -2.0916  -16.7045 C   0  0  0  0  0  0  0  0  0  0  0  0
   22.7590   -1.5438  -16.6567 C   0  0  0  0  0  0  0  0  0  0  0  0
   23.0667   -0.3494  -17.2732 C   0  0  0  0  0  0  0  0  0  0  0  0
   22.1134    0.3621  -17.9705 C   0  0  0  0  0  0  0  0  0  0  0  0
   20.8431   -0.1707  -18.0245 C   0  0  0  0  0  0  0  0  0  0  0  0
   20.5352   -1.3663  -17.4073 C   0  0  0  0  0  0  0  0  0  0  0  0
   19.7130   -2.2493  -14.3650 C   0  0  0  0  0  0  0  0  0  0  0  0
   19.9386   -0.9342  -13.9973 O   0  0  0  0  0  0  0  0  0  0  0  0
   18.5219   -2.6195  -14.5148 O   0  0  0  0  0  0  0  0  0  0  0  0
  2  1  1  1
  3  2  1  0
  4  2  1  0
  4  5  1  6
  6  7  2  0
  6  4  1  0
  8  6  1  0
  9  8  1  0
  9 10  1  1
 11 15  1  0
 11 10  1  0
 12 11  2  0
 13 12  1  0
 13 14  1  0
 14 15  2  0
 16 18  1  0
 16  9  1  0
 17 16  2  0
 19 20  1  6
 19 18  1  0
 21 26  1  0
 21 20  1  0
 22 21  2  0
 23 24  2  0
 23 22  1  0
 24 25  1  0
 25 26  2  0
 27 19  1  0
 28 27  1  0
 29 27  2  0
M  END
$$$$
