THF.pdb
     RDKit          3D

 29 30  0  0  1  0  0  0  0  0999 V2000
   33.7143  -35.6421   -0.5187 C   0  0  0  0  0  0  0  0  0  0  0  0
   34.7277  -35.7087   -1.6215 C   0  0  1  0  0  0  0  0  0  0  0  0
   36.0054  -35.7906   -1.0715 O   0  0  0  0  0  0  0  0  0  0  0  0
   34.5214  -36.8528   -2.5620 C   0  0  2  0  0  0  0  0  0  0  0  0
   35.5618  -36.9007   -3.5535 N   0  0  0  0  0  0  0  0  0  0  0  0
   33.1684  -36.7369   -3.2166 C   0  0  0  0  0  0  0  0  0  0  0  0
   33.0382  -36.1432   -4.3174 O   0  0  0  0  0  0  0  0  0  0  0  0
   32.0048  -37.2846   -2.6265 N   0  0  0  0  0  0  0  0  0  0  0  0
   30.7385  -37.2233   -3.3260 C   0  0  1  0  0  0  0  0  0  0  0  0
   30.1131  -38.5986   -3.3423 C   0  0  0  0  0  0  0  0  0  0  0  0
   30.6187  -39.4834   -4.3930 C   0  0  0  0  0  0  0  0  0  0  0  0
   31.4741  -39.1575   -5.4211 C   0  0  0  0  0  0  0  0  0  0  0  0
   31.6780  -40.2615   -6.1518 N   0  0  0  0  0  0  0  0  0  0  0  0
   30.9784  -41.2552   -5.6099 C   0  0  0  0  0  0  0  0  0  0  0  0
   30.3231  -40.7847   -4.5262 N   0  0  0  0  0  0  0  0  0  0  0  0
   29.8069  -36.2654   -2.7340 C   0  0  0  0  0  0  0  0  0  0  0  0
   30.1552  -35.5903   -1.7350 O   0  0  0  0  0  0  0  0  0  0  0  0
   28.4895  -36.0274   -3.2152 N   0  0  0  0  0  0  0  0  0  0  0  0
   27.5818  -35.0686   -2.6153 C   0  0  1  0  0  0  0  0  0  0  0  0
   28.1826  -33.6845   -2.5971 C   0  0  0  0  0  0  0  0  0  0  0  0
   27.2399  -32.6360   -2.1402 C   0  0  0  0  0  0  0  0  0  0  0  0
   27.0365  -32.4055   -0.7811 C   0  0  0  0  0  0  0  0  0  0  0  0
   26.1723  -31.4323   -0.3259 C   0  0  0  0  0  0  0  0  0  0  0  0
   25.4648  -30.6371   -1.2025 C   0  0  0  0  0  0  0  0  0  0  0  0
   25.6584  -30.8564   -2.5497 C   0  0  0  0  0  0  0  0  0  0  0  0
   26.5235  -31.8306   -3.0052 C   0  0  0  0  0  0  0  0  0  0  0  0
   26.2574  -35.1293   -3.2668 C   0  0  0  0  0  0  0  0  0  0  0  0
   25.0655  -34.8721   -2.6120 O   0  0  0  0  0  0  0  0  0  0  0  0
   26.2031  -35.4322   -4.4848 O   0  0  0  0  0  0  0  0  0  0  0  0
  2  1  1  1
  3  2  1  0
  4  2  1  0
  4  5  1  6
  6  7  2  0
  6  4  1  0
  8  6  1  0
  9  8  1  0
  9 10  1  1
 11 15  1  0
 11 10  1  0
 12 11  2  0
 13 12  1  0
 13 14  1  0
 14 15  2  0
 16 18  1  0
 16  9  1  0
 17 16  2  0
 19 20  1  6
 19 18  1  0
 21 26  1  0
 21 20  1  0
 22 21  2  0
 23 24  2  0
 23 22  1  0
 24 25  1  0
 25 26  2  0
 27 19  1  0
 28 27  1  0
 29 27  2  0
M  END
$$$$
