DDW.pdb
     RDKit          3D

 31 32  0  0  1  0  0  0  0  0999 V2000
   15.8611  -12.4678  -16.4472 N   0  0  0  0  0  0  0  0  0  0  0  0
   16.0197  -11.0340  -16.2338 C   0  0  1  0  0  0  0  0  0  0  0  0
   15.5800  -10.6763  -14.8697 C   0  0  0  0  0  0  0  0  0  0  0  0
   14.1259  -10.8705  -14.7128 C   0  0  0  0  0  0  0  0  0  0  0  0
   13.4351  -11.0647  -15.7714 O   0  0  0  0  0  0  0  0  0  0  0  0
   17.4283  -10.6913  -16.5622 C   0  0  0  0  0  0  0  0  0  0  0  0
   18.2671  -11.6201  -16.6025 O   0  0  0  0  0  0  0  0  0  0  0  0
   13.4720  -10.8543  -13.4978 O   0  0  0  0  0  0  0  0  0  0  0  0
   17.8813   -9.3885  -16.8260 N   0  0  0  0  0  0  0  0  0  0  0  0
   19.2745   -9.1509  -17.1271 C   0  0  1  0  0  0  0  0  0  0  0  0
   19.5860   -9.1218  -18.5776 C   0  0  0  0  0  0  0  0  0  0  0  0
   20.9741   -8.7809  -18.9190 C   0  0  0  0  0  0  0  0  0  0  0  0
   21.2255   -7.9127  -19.7740 O   0  0  0  0  0  0  0  0  0  0  0  0
   19.6564   -7.8616  -16.4426 C   0  0  0  0  0  0  0  0  0  0  0  0
   18.9584   -6.8216  -16.5341 O   0  0  0  0  0  0  0  0  0  0  0  0
   22.0496   -9.4227  -18.2934 O   0  0  0  0  0  0  0  0  0  0  0  0
   20.8388   -7.7852  -15.6593 N   0  0  0  0  0  0  0  0  0  0  0  0
   21.3423   -6.5029  -15.1255 C   0  0  1  0  0  0  0  0  0  0  0  0
   22.5204   -6.8977  -14.2717 C   0  0  0  0  0  0  0  0  0  0  0  0
   23.6513   -7.4641  -15.0268 C   0  0  0  0  0  0  0  0  0  0  0  0
   24.3910   -6.8151  -16.0285 C   0  0  0  0  0  0  0  0  0  0  0  0
   25.3775   -7.6103  -16.4596 N   0  0  0  0  0  0  0  0  0  0  0  0
   25.2959   -8.7638  -15.7613 C   0  0  0  0  0  0  0  0  0  0  0  0
   26.0793   -9.8922  -15.8494 C   0  0  0  0  0  0  0  0  0  0  0  0
   25.7758  -10.9514  -15.0274 C   0  0  0  0  0  0  0  0  0  0  0  0
   24.7256  -10.8924  -14.1433 C   0  0  0  0  0  0  0  0  0  0  0  0
   23.9300   -9.7747  -14.0375 C   0  0  0  0  0  0  0  0  0  0  0  0
   24.2294   -8.6920  -14.8671 C   0  0  0  0  0  0  0  0  0  0  0  0
   21.5935   -5.5513  -16.1949 C   0  0  0  0  0  0  0  0  0  0  0  0
   21.7069   -4.1737  -15.9988 O   0  0  0  0  0  0  0  0  0  0  0  0
   21.7256   -5.9329  -17.3850 O   0  0  0  0  0  0  0  0  0  0  0  0
  2  3  1  0
  2  1  1  1
  3  4  1  0
  4  8  1  0
  4  5  2  0
  6  2  1  0
  7  6  2  0
  9  6  1  0
 10  9  1  0
 10 11  1  6
 12 11  1  0
 12 13  2  0
 14 10  1  0
 14 17  1  0
 15 14  2  0
 16 12  1  0
 18 17  1  0
 18 19  1  6
 18 29  1  0
 20 21  2  0
 20 19  1  0
 22 21  1  0
 23 28  2  0
 23 22  1  0
 24 23  1  0
 25 26  1  0
 25 24  2  0
 26 27  2  0
 27 28  1  0
 28 20  1  0
 29 30  1  0
 31 29  2  0
M  END
$$$$
