DDW.pdb
     RDKit          3D

 31 32  0  0  1  0  0  0  0  0999 V2000
   28.1198  -25.5969  -18.1719 N   0  0  0  0  0  0  0  0  0  0  0  0
   27.0110  -25.3635  -17.2540 C   0  0  1  0  0  0  0  0  0  0  0  0
   26.8420  -26.5286  -16.3619 C   0  0  0  0  0  0  0  0  0  0  0  0
   26.4280  -27.7235  -17.1219 C   0  0  0  0  0  0  0  0  0  0  0  0
   25.3838  -27.6290  -17.8543 O   0  0  0  0  0  0  0  0  0  0  0  0
   27.2668  -24.0676  -16.5723 C   0  0  0  0  0  0  0  0  0  0  0  0
   28.4562  -23.7297  -16.3754 O   0  0  0  0  0  0  0  0  0  0  0  0
   27.0975  -28.9295  -17.0884 O   0  0  0  0  0  0  0  0  0  0  0  0
   26.2573  -23.1979  -16.1290 N   0  0  0  0  0  0  0  0  0  0  0  0
   26.6029  -21.9257  -15.5371 C   0  0  1  0  0  0  0  0  0  0  0  0
   26.2142  -20.7499  -16.3545 C   0  0  0  0  0  0  0  0  0  0  0  0
   26.4998  -19.4399  -15.7528 C   0  0  0  0  0  0  0  0  0  0  0  0
   25.8553  -19.0365  -14.7680 O   0  0  0  0  0  0  0  0  0  0  0  0
   25.9704  -21.8940  -14.1675 C   0  0  0  0  0  0  0  0  0  0  0  0
   24.7527  -22.1420  -13.9855 O   0  0  0  0  0  0  0  0  0  0  0  0
   27.5024  -18.6111  -16.2704 O   0  0  0  0  0  0  0  0  0  0  0  0
   26.7485  -21.5772  -13.0223 N   0  0  0  0  0  0  0  0  0  0  0  0
   26.1403  -21.3997  -11.6877 C   0  0  1  0  0  0  0  0  0  0  0  0
   27.3213  -21.2451  -10.7634 C   0  0  0  0  0  0  0  0  0  0  0  0
   27.0046  -20.5903   -9.4825 C   0  0  0  0  0  0  0  0  0  0  0  0
   25.7342  -20.1746   -9.0524 C   0  0  0  0  0  0  0  0  0  0  0  0
   25.8107  -19.6670   -7.8163 N   0  0  0  0  0  0  0  0  0  0  0  0
   27.1036  -19.7420   -7.4321 C   0  0  0  0  0  0  0  0  0  0  0  0
   27.6860  -19.3386   -6.2519 C   0  0  0  0  0  0  0  0  0  0  0  0
   29.0422  -19.5134   -6.1115 C   0  0  0  0  0  0  0  0  0  0  0  0
   29.7986  -20.0726   -7.1132 C   0  0  0  0  0  0  0  0  0  0  0  0
   29.2378  -20.4838   -8.3005 C   0  0  0  0  0  0  0  0  0  0  0  0
   27.8605  -20.3120   -8.4541 C   0  0  0  0  0  0  0  0  0  0  0  0
   25.1640  -20.3231  -11.6944 C   0  0  0  0  0  0  0  0  0  0  0  0
   23.9930  -20.3308  -10.9342 O   0  0  0  0  0  0  0  0  0  0  0  0
   25.3307  -19.3007  -12.4061 O   0  0  0  0  0  0  0  0  0  0  0  0
  2  3  1  0
  2  1  1  6
  3  4  1  0
  4  8  1  0
  4  5  2  0
  6  2  1  0
  7  6  2  0
  9  6  1  0
 10  9  1  0
 10 11  1  6
 12 11  1  0
 12 13  2  0
 14 10  1  0
 14 17  1  0
 15 14  2  0
 16 12  1  0
 18 17  1  0
 18 19  1  1
 18 29  1  0
 20 21  2  0
 20 19  1  0
 22 21  1  0
 23 28  2  0
 23 22  1  0
 24 23  1  0
 25 26  1  0
 25 24  2  0
 26 27  2  0
 27 28  1  0
 28 20  1  0
 29 30  1  0
 31 29  2  0
M  END
$$$$
