DDW.pdb
     RDKit          3D

 31 32  0  0  1  0  0  0  0  0999 V2000
   15.8149  -10.4894  -14.9806 N   0  0  0  0  0  0  0  0  0  0  0  0
   16.2410  -10.3637  -13.5916 C   0  0  1  0  0  0  0  0  0  0  0  0
   17.1508  -11.4734  -13.2416 C   0  0  0  0  0  0  0  0  0  0  0  0
   16.4434  -12.7680  -13.2671 C   0  0  0  0  0  0  0  0  0  0  0  0
   15.2586  -12.7878  -13.7481 O   0  0  0  0  0  0  0  0  0  0  0  0
   16.8035   -8.9981  -13.4237 C   0  0  0  0  0  0  0  0  0  0  0  0
   17.3394   -8.7117  -12.3290 O   0  0  0  0  0  0  0  0  0  0  0  0
   16.9824  -13.9510  -12.8046 O   0  0  0  0  0  0  0  0  0  0  0  0
   16.7678   -8.0040  -14.4149 N   0  0  0  0  0  0  0  0  0  0  0  0
   17.2319   -6.6675  -14.1203 C   0  0  1  0  0  0  0  0  0  0  0  0
   17.7760   -5.9409  -15.2941 C   0  0  0  0  0  0  0  0  0  0  0  0
   18.1163   -4.5303  -15.0619 C   0  0  0  0  0  0  0  0  0  0  0  0
   18.7903   -4.1916  -14.0725 O   0  0  0  0  0  0  0  0  0  0  0  0
   16.0757   -5.9322  -13.4885 C   0  0  0  0  0  0  0  0  0  0  0  0
   14.9015   -6.0291  -13.9233 O   0  0  0  0  0  0  0  0  0  0  0  0
   17.6918   -3.5307  -15.9454 O   0  0  0  0  0  0  0  0  0  0  0  0
   16.2855   -5.0933  -12.3617 N   0  0  0  0  0  0  0  0  0  0  0  0
   15.2390   -4.1779  -11.8620 C   0  0  1  0  0  0  0  0  0  0  0  0
   14.1696   -5.0980  -11.3302 C   0  0  0  0  0  0  0  0  0  0  0  0
   14.5521   -5.8270  -10.1088 C   0  0  0  0  0  0  0  0  0  0  0  0
   15.7613   -5.6974   -9.4068 C   0  0  0  0  0  0  0  0  0  0  0  0
   15.7451   -6.4728   -8.3160 N   0  0  0  0  0  0  0  0  0  0  0  0
   14.5519   -7.1058   -8.2927 C   0  0  0  0  0  0  0  0  0  0  0  0
   14.0658   -8.0139   -7.3795 C   0  0  0  0  0  0  0  0  0  0  0  0
   12.8100   -8.5306   -7.5927 C   0  0  0  0  0  0  0  0  0  0  0  0
   12.0582   -8.1568   -8.6804 C   0  0  0  0  0  0  0  0  0  0  0  0
   12.5233   -7.2504   -9.6052 C   0  0  0  0  0  0  0  0  0  0  0  0
   13.7977   -6.7180   -9.3985 C   0  0  0  0  0  0  0  0  0  0  0  0
   15.7915   -3.2050  -10.9343 C   0  0  0  0  0  0  0  0  0  0  0  0
   17.1225   -3.2014  -10.5129 O   0  0  0  0  0  0  0  0  0  0  0  0
   15.0770   -2.2908  -10.4513 O   0  0  0  0  0  0  0  0  0  0  0  0
  2  3  1  0
  2  1  1  6
  3  4  1  0
  4  8  1  0
  4  5  2  0
  6  2  1  0
  7  6  2  0
  9  6  1  0
 10  9  1  0
 10 11  1  6
 12 11  1  0
 12 13  2  0
 14 10  1  0
 14 17  1  0
 15 14  2  0
 16 12  1  0
 18 17  1  0
 18 19  1  1
 18 29  1  0
 20 21  2  0
 20 19  1  0
 22 21  1  0
 23 28  2  0
 23 22  1  0
 24 23  1  0
 25 26  1  0
 25 24  2  0
 26 27  2  0
 27 28  1  0
 28 20  1  0
 29 30  1  0
 31 29  2  0
M  END
$$$$
