DDW.pdb
     RDKit          3D

 31 32  0  0  1  0  0  0  0  0999 V2000
   29.0858  -20.2442  -20.4293 N   0  0  0  0  0  0  0  0  0  0  0  0
   28.9952  -19.8649  -19.0241 C   0  0  1  0  0  0  0  0  0  0  0  0
   28.7816  -18.4079  -18.9086 C   0  0  0  0  0  0  0  0  0  0  0  0
   29.9949  -17.6614  -19.2926 C   0  0  0  0  0  0  0  0  0  0  0  0
   30.9916  -18.3329  -19.7302 O   0  0  0  0  0  0  0  0  0  0  0  0
   27.9469  -20.7163  -18.4031 C   0  0  0  0  0  0  0  0  0  0  0  0
   26.8587  -20.1800  -18.0934 O   0  0  0  0  0  0  0  0  0  0  0  0
   30.1163  -16.2896  -19.2071 O   0  0  0  0  0  0  0  0  0  0  0  0
   28.1008  -22.0863  -18.1359 N   0  0  0  0  0  0  0  0  0  0  0  0
   27.0299  -22.8295  -17.5121 C   0  0  1  0  0  0  0  0  0  0  0  0
   27.1226  -24.2989  -17.6965 C   0  0  0  0  0  0  0  0  0  0  0  0
   26.0871  -25.0878  -17.0146 C   0  0  0  0  0  0  0  0  0  0  0  0
   24.8815  -24.8146  -17.1552 O   0  0  0  0  0  0  0  0  0  0  0  0
   27.0215  -22.4438  -16.0534 C   0  0  0  0  0  0  0  0  0  0  0  0
   28.0630  -22.4525  -15.3516 O   0  0  0  0  0  0  0  0  0  0  0  0
   26.4280  -26.1661  -16.1893 O   0  0  0  0  0  0  0  0  0  0  0  0
   25.8124  -22.0518  -15.4193 N   0  0  0  0  0  0  0  0  0  0  0  0
   25.5405  -22.3531  -13.9988 C   0  0  1  0  0  0  0  0  0  0  0  0
   25.6801  -21.0207  -13.3075 C   0  0  0  0  0  0  0  0  0  0  0  0
   25.0878  -20.9742  -11.9596 C   0  0  0  0  0  0  0  0  0  0  0  0
   25.7598  -21.1998  -10.7474 C   0  0  0  0  0  0  0  0  0  0  0  0
   24.9227  -21.0237   -9.7180 N   0  0  0  0  0  0  0  0  0  0  0  0
   23.7196  -20.6893  -10.2333 C   0  0  0  0  0  0  0  0  0  0  0  0
   22.5377  -20.4195   -9.5811 C   0  0  0  0  0  0  0  0  0  0  0  0
   21.4365  -20.1153  -10.3456 C   0  0  0  0  0  0  0  0  0  0  0  0
   21.5061  -20.0796  -11.7174 C   0  0  0  0  0  0  0  0  0  0  0  0
   22.6766  -20.3448  -12.3903 C   0  0  0  0  0  0  0  0  0  0  0  0
   23.8023  -20.6543  -11.6239 C   0  0  0  0  0  0  0  0  0  0  0  0
   24.2727  -23.0465  -13.8424 C   0  0  0  0  0  0  0  0  0  0  0  0
   23.2118  -22.9396  -14.7435 O   0  0  0  0  0  0  0  0  0  0  0  0
   24.0625  -23.7998  -12.8586 O   0  0  0  0  0  0  0  0  0  0  0  0
  2  3  1  0
  2  1  1  6
  3  4  1  0
  4  8  1  0
  4  5  2  0
  6  2  1  0
  7  6  2  0
  9  6  1  0
 10  9  1  0
 10 11  1  1
 12 11  1  0
 12 13  2  0
 14 10  1  0
 14 17  1  0
 15 14  2  0
 16 12  1  0
 18 17  1  0
 18 19  1  1
 18 29  1  0
 20 21  2  0
 20 19  1  0
 22 21  1  0
 23 28  2  0
 23 22  1  0
 24 23  1  0
 25 26  1  0
 25 24  2  0
 26 27  2  0
 27 28  1  0
 28 20  1  0
 29 30  1  0
 31 29  2  0
M  END
$$$$
