DDW.pdb
     RDKit          3D

 31 32  0  0  1  0  0  0  0  0999 V2000
   21.8872  -19.7710  -12.2621 N   0  0  0  0  0  0  0  0  0  0  0  0
   22.6764  -19.7924  -13.4882 C   0  0  1  0  0  0  0  0  0  0  0  0
   22.8154  -18.4220  -14.0216 C   0  0  0  0  0  0  0  0  0  0  0  0
   21.5291  -17.9230  -14.5444 C   0  0  0  0  0  0  0  0  0  0  0  0
   20.7169  -17.3895  -13.7129 O   0  0  0  0  0  0  0  0  0  0  0  0
   23.9516  -20.4915  -13.1808 C   0  0  0  0  0  0  0  0  0  0  0  0
   23.9075  -21.7191  -12.9383 O   0  0  0  0  0  0  0  0  0  0  0  0
   21.1538  -17.9983  -15.8701 O   0  0  0  0  0  0  0  0  0  0  0  0
   25.2057  -19.8610  -13.1396 N   0  0  0  0  0  0  0  0  0  0  0  0
   26.4038  -20.6401  -12.9251 C   0  0  1  0  0  0  0  0  0  0  0  0
   27.4880  -20.3680  -13.9009 C   0  0  0  0  0  0  0  0  0  0  0  0
   27.6780  -21.3934  -14.9364 C   0  0  0  0  0  0  0  0  0  0  0  0
   28.2932  -21.1331  -15.9860 O   0  0  0  0  0  0  0  0  0  0  0  0
   26.8452  -20.3819  -11.5055 C   0  0  0  0  0  0  0  0  0  0  0  0
   27.4959  -19.3578  -11.1814 O   0  0  0  0  0  0  0  0  0  0  0  0
   27.1727  -22.6885  -14.7709 O   0  0  0  0  0  0  0  0  0  0  0  0
   26.5313  -21.3071  -10.4745 N   0  0  0  0  0  0  0  0  0  0  0  0
   26.9735  -21.1040   -9.0796 C   0  0  1  0  0  0  0  0  0  0  0  0
   26.5723  -19.6841   -8.7702 C   0  0  0  0  0  0  0  0  0  0  0  0
   27.2027  -19.1278   -7.5606 C   0  0  0  0  0  0  0  0  0  0  0  0
   27.2696  -17.7706   -7.2067 C   0  0  0  0  0  0  0  0  0  0  0  0
   27.8681  -17.6347   -6.0172 N   0  0  0  0  0  0  0  0  0  0  0  0
   28.1934  -18.8739   -5.5890 C   0  0  0  0  0  0  0  0  0  0  0  0
   28.8324  -19.2550   -4.4308 C   0  0  0  0  0  0  0  0  0  0  0  0
   29.0624  -20.5961   -4.2349 C   0  0  0  0  0  0  0  0  0  0  0  0
   28.6694  -21.5318   -5.1612 C   0  0  0  0  0  0  0  0  0  0  0  0
   28.0286  -21.1739   -6.3251 C   0  0  0  0  0  0  0  0  0  0  0  0
   27.7888  -19.8142   -6.5345 C   0  0  0  0  0  0  0  0  0  0  0  0
   26.4502  -22.1413   -8.2063 C   0  0  0  0  0  0  0  0  0  0  0  0
   25.1705  -22.6862   -8.3267 O   0  0  0  0  0  0  0  0  0  0  0  0
   27.1449  -22.6137   -7.2716 O   0  0  0  0  0  0  0  0  0  0  0  0
  2  3  1  0
  2  1  1  1
  3  4  1  0
  4  8  1  0
  4  5  2  0
  6  2  1  0
  7  6  2  0
  9  6  1  0
 10  9  1  0
 10 11  1  6
 12 11  1  0
 12 13  2  0
 14 10  1  0
 14 17  1  0
 15 14  2  0
 16 12  1  0
 18 17  1  0
 18 19  1  1
 18 29  1  0
 20 21  2  0
 20 19  1  0
 22 21  1  0
 23 28  2  0
 23 22  1  0
 24 23  1  0
 25 26  1  0
 25 24  2  0
 26 27  2  0
 27 28  1  0
 28 20  1  0
 29 30  1  0
 31 29  2  0
M  END
$$$$
