DDW.pdb
     RDKit          3D

 31 32  0  0  1  0  0  0  0  0999 V2000
   27.1744  -20.3598  -16.0396 N   0  0  0  0  0  0  0  0  0  0  0  0
   27.9553  -19.5775  -15.0884 C   0  0  1  0  0  0  0  0  0  0  0  0
   28.5487  -18.4070  -15.7663 C   0  0  0  0  0  0  0  0  0  0  0  0
   27.7855  -18.0521  -16.9781 C   0  0  0  0  0  0  0  0  0  0  0  0
   26.5293  -18.2922  -16.9801 O   0  0  0  0  0  0  0  0  0  0  0  0
   27.0678  -19.2679  -13.9369 C   0  0  0  0  0  0  0  0  0  0  0  0
   27.4968  -18.4904  -13.0542 O   0  0  0  0  0  0  0  0  0  0  0  0
   28.3449  -17.4802  -18.1023 O   0  0  0  0  0  0  0  0  0  0  0  0
   25.7774  -19.7968  -13.7721 N   0  0  0  0  0  0  0  0  0  0  0  0
   24.9862  -19.4356  -12.6181 C   0  0  1  0  0  0  0  0  0  0  0  0
   23.5231  -19.4217  -12.8650 C   0  0  0  0  0  0  0  0  0  0  0  0
   22.9412  -20.7037  -13.2863 C   0  0  0  0  0  0  0  0  0  0  0  0
   23.5530  -21.4560  -14.0658 O   0  0  0  0  0  0  0  0  0  0  0  0
   25.3623  -20.3918  -11.5131 C   0  0  0  0  0  0  0  0  0  0  0  0
   25.5101  -21.6229  -11.7131 O   0  0  0  0  0  0  0  0  0  0  0  0
   21.6847  -21.1127  -12.8236 O   0  0  0  0  0  0  0  0  0  0  0  0
   25.5644  -19.9185  -10.1892 N   0  0  0  0  0  0  0  0  0  0  0  0
   25.8552  -20.8340   -9.0668 C   0  0  1  0  0  0  0  0  0  0  0  0
   26.9230  -20.1200   -8.2777 C   0  0  0  0  0  0  0  0  0  0  0  0
   26.9600  -20.4778   -6.8492 C   0  0  0  0  0  0  0  0  0  0  0  0
   26.2446  -21.5173   -6.2333 C   0  0  0  0  0  0  0  0  0  0  0  0
   26.5608  -21.5863   -4.9345 N   0  0  0  0  0  0  0  0  0  0  0  0
   27.4659  -20.6136   -4.6908 C   0  0  0  0  0  0  0  0  0  0  0  0
   28.0832  -20.2753   -3.5078 C   0  0  0  0  0  0  0  0  0  0  0  0
   28.9656  -19.2213   -3.5215 C   0  0  0  0  0  0  0  0  0  0  0  0
   29.2281  -18.5235   -4.6757 C   0  0  0  0  0  0  0  0  0  0  0  0
   28.6236  -18.8445   -5.8694 C   0  0  0  0  0  0  0  0  0  0  0  0
   27.7258  -19.9141   -5.8677 C   0  0  0  0  0  0  0  0  0  0  0  0
   24.6405  -21.1945   -8.3548 C   0  0  0  0  0  0  0  0  0  0  0  0
   23.4113  -20.5602   -8.5438 O   0  0  0  0  0  0  0  0  0  0  0  0
   24.6362  -22.1235   -7.5084 O   0  0  0  0  0  0  0  0  0  0  0  0
  2  3  1  0
  2  1  1  6
  3  4  1  0
  4  8  1  0
  4  5  2  0
  6  2  1  0
  7  6  2  0
  9  6  1  0
 10  9  1  0
 10 11  1  6
 12 11  1  0
 12 13  2  0
 14 10  1  0
 14 17  1  0
 15 14  2  0
 16 12  1  0
 18 17  1  0
 18 19  1  1
 18 29  1  0
 20 21  2  0
 20 19  1  0
 22 21  1  0
 23 28  2  0
 23 22  1  0
 24 23  1  0
 25 26  1  0
 25 24  2  0
 26 27  2  0
 27 28  1  0
 28 20  1  0
 29 30  1  0
 31 29  2  0
M  END
$$$$
