DDW.pdb
     RDKit          3D

 31 32  0  0  1  0  0  0  0  0999 V2000
   27.6152  -21.8637  -15.4499 N   0  0  0  0  0  0  0  0  0  0  0  0
   27.8474  -20.4579  -15.1397 C   0  0  1  0  0  0  0  0  0  0  0  0
   27.7779  -19.6514  -16.3753 C   0  0  0  0  0  0  0  0  0  0  0  0
   28.8320  -20.0484  -17.3282 C   0  0  0  0  0  0  0  0  0  0  0  0
   28.6965  -21.1683  -17.9309 O   0  0  0  0  0  0  0  0  0  0  0  0
   26.8863  -20.0763  -14.0719 C   0  0  0  0  0  0  0  0  0  0  0  0
   26.8935  -18.8911  -13.6682 O   0  0  0  0  0  0  0  0  0  0  0  0
   29.9487  -19.2866  -17.6049 O   0  0  0  0  0  0  0  0  0  0  0  0
   25.9718  -20.9633  -13.4812 N   0  0  0  0  0  0  0  0  0  0  0  0
   24.9849  -20.4732  -12.5462 C   0  0  1  0  0  0  0  0  0  0  0  0
   23.5855  -20.8064  -12.9100 C   0  0  0  0  0  0  0  0  0  0  0  0
   23.1771  -20.4218  -14.2683 C   0  0  0  0  0  0  0  0  0  0  0  0
   23.0473  -19.2244  -14.5800 O   0  0  0  0  0  0  0  0  0  0  0  0
   25.3595  -21.0172  -11.1896 C   0  0  0  0  0  0  0  0  0  0  0  0
   25.7508  -22.1993  -11.0258 O   0  0  0  0  0  0  0  0  0  0  0  0
   22.9228  -21.3903  -15.2468 O   0  0  0  0  0  0  0  0  0  0  0  0
   25.2794  -20.1923  -10.0360 N   0  0  0  0  0  0  0  0  0  0  0  0
   25.2810  -20.7550   -8.6700 C   0  0  1  0  0  0  0  0  0  0  0  0
   26.0298  -19.7332   -7.8527 C   0  0  0  0  0  0  0  0  0  0  0  0
   27.3826  -20.1548   -7.4503 C   0  0  0  0  0  0  0  0  0  0  0  0
   28.2510  -20.9772   -8.1860 C   0  0  0  0  0  0  0  0  0  0  0  0
   29.4165  -21.1083   -7.5411 N   0  0  0  0  0  0  0  0  0  0  0  0
   29.3259  -20.3900   -6.4007 C   0  0  0  0  0  0  0  0  0  0  0  0
   30.2579  -20.2211   -5.4018 C   0  0  0  0  0  0  0  0  0  0  0  0
   29.9104  -19.4428   -4.3232 C   0  0  0  0  0  0  0  0  0  0  0  0
   28.6742  -18.8490   -4.2386 C   0  0  0  0  0  0  0  0  0  0  0  0
   27.7276  -19.0032   -5.2253 C   0  0  0  0  0  0  0  0  0  0  0  0
   28.0698  -19.7911   -6.3263 C   0  0  0  0  0  0  0  0  0  0  0  0
   23.9337  -21.0858   -8.2367 C   0  0  0  0  0  0  0  0  0  0  0  0
   22.7879  -20.8189   -8.9883 O   0  0  0  0  0  0  0  0  0  0  0  0
   23.7272  -21.6458   -7.1307 O   0  0  0  0  0  0  0  0  0  0  0  0
  2  3  1  0
  2  1  1  6
  3  4  1  0
  4  8  1  0
  4  5  2  0
  6  2  1  0
  7  6  2  0
  9  6  1  0
 10  9  1  0
 10 11  1  6
 12 11  1  0
 12 13  2  0
 14 10  1  0
 14 17  1  0
 15 14  2  0
 16 12  1  0
 18 17  1  0
 18 19  1  1
 18 29  1  0
 20 21  2  0
 20 19  1  0
 22 21  1  0
 23 28  2  0
 23 22  1  0
 24 23  1  0
 25 26  1  0
 25 24  2  0
 26 27  2  0
 27 28  1  0
 28 20  1  0
 29 30  1  0
 31 29  2  0
M  END
$$$$
