HGV.pdb
     RDKit          3D

 22 22  0  0  1  0  0  0  0  0999 V2000
   24.6602  -21.8621  -11.9184 N   0  0  0  0  0  0  0  0  0  0  0  0
   25.6489  -20.8367  -12.1908 C   0  0  1  0  0  0  0  0  0  0  0  0
   25.1392  -19.9969  -13.3185 C   0  0  0  0  0  0  0  0  0  0  0  0
   25.0089  -20.8453  -14.5281 C   0  0  0  0  0  0  0  0  0  0  0  0
   25.9860  -21.5359  -15.2416 C   0  0  0  0  0  0  0  0  0  0  0  0
   25.4168  -22.1728  -16.2749 N   0  0  0  0  0  0  0  0  0  0  0  0
   24.1032  -21.9141  -16.2495 C   0  0  0  0  0  0  0  0  0  0  0  0
   23.8514  -21.1165  -15.2017 N   0  0  0  0  0  0  0  0  0  0  0  0
   25.8415  -20.0597  -10.9413 C   0  0  0  0  0  0  0  0  0  0  0  0
   26.4957  -18.9874  -10.9608 O   0  0  0  0  0  0  0  0  0  0  0  0
   25.3232  -20.4551   -9.6903 N   0  0  0  0  0  0  0  0  0  0  0  0
   25.4873  -19.6770   -8.4780 C   0  0  0  0  0  0  0  0  0  0  0  0
   26.3994  -20.3780   -7.5196 C   0  0  0  0  0  0  0  0  0  0  0  0
   26.3247  -21.6157   -7.3754 O   0  0  0  0  0  0  0  0  0  0  0  0
   30.0427  -18.8906   -6.7091 C   0  0  0  0  0  0  0  0  0  0  0  0
   29.4175  -19.4108   -5.4368 C   0  0  1  0  0  0  0  0  0  0  0  0
   28.9257  -18.1756   -4.6705 C   0  0  0  0  0  0  0  0  0  0  0  0
   28.2269  -20.2959   -5.7882 C   0  0  2  0  0  0  0  0  0  0  0  0
   27.3654  -19.6721   -6.7535 N   0  0  0  0  0  0  0  0  0  0  0  0
   27.5373  -20.7485   -4.5788 C   0  0  0  0  0  0  0  0  0  0  0  0
   26.3863  -20.3181   -4.3364 O   0  0  0  0  0  0  0  0  0  0  0  0
   28.0844  -21.6348   -3.6730 O   0  0  0  0  0  0  0  0  0  0  0  0
  2  1  1  1
  3  4  1  0
  3  2  1  0
  4  8  1  0
  5  6  1  0
  5  4  2  0
  6  7  1  0
  7  8  2  0
  9  2  1  0
  9 11  1  0
 10  9  2  0
 12 11  1  0
 12 13  1  0
 13 19  1  0
 14 13  2  0
 16 15  1  6
 16 17  1  0
 18 16  1  0
 18 19  1  6
 20 22  1  0
 20 18  1  0
 21 20  2  0
M  END
$$$$
