HGV.pdb
     RDKit          3D

 22 22  0  0  1  0  0  0  0  0999 V2000
   18.4518  -11.1853  -17.4452 N   0  0  0  0  0  0  0  0  0  0  0  0
   18.0673  -11.4911  -16.0806 C   0  0  1  0  0  0  0  0  0  0  0  0
   18.9686  -12.5757  -15.5828 C   0  0  0  0  0  0  0  0  0  0  0  0
   18.7302  -13.8025  -16.3815 C   0  0  0  0  0  0  0  0  0  0  0  0
   17.5302  -14.3934  -16.7704 C   0  0  0  0  0  0  0  0  0  0  0  0
   17.7882  -15.4989  -17.4836 N   0  0  0  0  0  0  0  0  0  0  0  0
   19.1174  -15.6388  -17.5663 C   0  0  0  0  0  0  0  0  0  0  0  0
   19.6896  -14.6222  -16.9057 N   0  0  0  0  0  0  0  0  0  0  0  0
   18.1890  -10.2399  -15.2920 C   0  0  0  0  0  0  0  0  0  0  0  0
   17.9182  -10.2396  -14.0653 O   0  0  0  0  0  0  0  0  0  0  0  0
   18.6018   -9.0087  -15.8431 N   0  0  0  0  0  0  0  0  0  0  0  0
   18.7407   -7.7938  -15.0641 C   0  0  0  0  0  0  0  0  0  0  0  0
   20.1833   -7.4186  -14.9230 C   0  0  0  0  0  0  0  0  0  0  0  0
   21.0587   -8.0491  -15.5510 O   0  0  0  0  0  0  0  0  0  0  0  0
   21.8766   -6.3178  -16.5953 C   0  0  0  0  0  0  0  0  0  0  0  0
   22.1241   -5.1936  -15.6179 C   0  0  1  0  0  0  0  0  0  0  0  0
   21.1009   -4.1021  -15.9595 C   0  0  0  0  0  0  0  0  0  0  0  0
   21.8738   -5.6967  -14.2007 C   0  0  2  0  0  0  0  0  0  0  0  0
   20.6002   -6.3504  -14.0841 N   0  0  0  0  0  0  0  0  0  0  0  0
   22.0871   -4.6291  -13.2219 C   0  0  0  0  0  0  0  0  0  0  0  0
   21.1087   -3.9448  -12.8435 O   0  0  0  0  0  0  0  0  0  0  0  0
   23.3194   -4.3235  -12.6802 O   0  0  0  0  0  0  0  0  0  0  0  0
  2  1  1  6
  3  4  1  0
  3  2  1  0
  4  8  1  0
  5  6  1  0
  5  4  2  0
  6  7  1  0
  7  8  2  0
  9  2  1  0
  9 11  1  0
 10  9  2  0
 12 11  1  0
 12 13  1  0
 13 19  1  0
 14 13  2  0
 16 15  1  6
 16 17  1  0
 18 16  1  0
 18 19  1  6
 20 22  1  0
 20 18  1  0
 21 20  2  0
M  END
$$$$
