HGV.pdb
     RDKit          3D

 22 22  0  0  1  0  0  0  0  0999 V2000
   22.5117  -20.2229  -10.6247 N   0  0  0  0  0  0  0  0  0  0  0  0
   23.6915  -20.5478  -11.4030 C   0  0  1  0  0  0  0  0  0  0  0  0
   23.4992  -19.9947  -12.7791 C   0  0  0  0  0  0  0  0  0  0  0  0
   22.3728  -20.7072  -13.4299 C   0  0  0  0  0  0  0  0  0  0  0  0
   21.0149  -20.6993  -13.1190 C   0  0  0  0  0  0  0  0  0  0  0  0
   20.3574  -21.4961  -13.9736 N   0  0  0  0  0  0  0  0  0  0  0  0
   21.2495  -22.0173  -14.8254 C   0  0  0  0  0  0  0  0  0  0  0  0
   22.4631  -21.5470  -14.5040 N   0  0  0  0  0  0  0  0  0  0  0  0
   24.8614  -19.9563  -10.7076 C   0  0  0  0  0  0  0  0  0  0  0  0
   24.8114  -18.7746  -10.2844 O   0  0  0  0  0  0  0  0  0  0  0  0
   26.0671  -20.6528  -10.4811 N   0  0  0  0  0  0  0  0  0  0  0  0
   27.1858  -20.0917   -9.7491 C   0  0  0  0  0  0  0  0  0  0  0  0
   27.1288  -20.4930   -8.3077 C   0  0  0  0  0  0  0  0  0  0  0  0
   26.1500  -21.1354   -7.8747 O   0  0  0  0  0  0  0  0  0  0  0  0
   30.5395  -21.1560   -6.2894 C   0  0  0  0  0  0  0  0  0  0  0  0
   29.5519  -20.4480   -5.3929 C   0  0  1  0  0  0  0  0  0  0  0  0
   29.9971  -18.9801   -5.3479 C   0  0  0  0  0  0  0  0  0  0  0  0
   28.1608  -20.5364   -6.0104 C   0  0  2  0  0  0  0  0  0  0  0  0
   28.1682  -20.1627   -7.3972 N   0  0  0  0  0  0  0  0  0  0  0  0
   27.1828  -19.8062   -5.2019 C   0  0  0  0  0  0  0  0  0  0  0  0
   26.8431  -18.6525   -5.5514 O   0  0  0  0  0  0  0  0  0  0  0  0
   26.6012  -20.3174   -4.0592 O   0  0  0  0  0  0  0  0  0  0  0  0
  2  1  1  1
  3  4  1  0
  3  2  1  0
  4  8  1  0
  5  6  1  0
  5  4  2  0
  6  7  1  0
  7  8  2  0
  9  2  1  0
  9 11  1  0
 10  9  2  0
 12 11  1  0
 12 13  1  0
 13 19  1  0
 14 13  2  0
 16 15  1  6
 16 17  1  0
 18 16  1  0
 18 19  1  6
 20 22  1  0
 20 18  1  0
 21 20  2  0
M  END
$$$$
