HGV.pdb
     RDKit          3D

 22 22  0  0  1  0  0  0  0  0999 V2000
   22.5636  -18.7146  -15.8535 N   0  0  0  0  0  0  0  0  0  0  0  0
   23.6303  -19.6160  -16.2446 C   0  0  1  0  0  0  0  0  0  0  0  0
   23.9366  -19.3647  -17.6867 C   0  0  0  0  0  0  0  0  0  0  0  0
   22.7108  -19.6038  -18.4867 C   0  0  0  0  0  0  0  0  0  0  0  0
   21.8798  -18.6944  -19.1371 C   0  0  0  0  0  0  0  0  0  0  0  0
   20.8797  -19.3551  -19.7379 N   0  0  0  0  0  0  0  0  0  0  0  0
   21.0406  -20.6621  -19.4947 C   0  0  0  0  0  0  0  0  0  0  0  0
   22.1396  -20.8183  -18.7430 N   0  0  0  0  0  0  0  0  0  0  0  0
   24.7896  -19.3461  -15.3586 C   0  0  0  0  0  0  0  0  0  0  0  0
   25.4729  -18.3036  -15.5151 O   0  0  0  0  0  0  0  0  0  0  0  0
   25.1915  -20.2084  -14.3170 N   0  0  0  0  0  0  0  0  0  0  0  0
   26.2461  -19.8841  -13.3763 C   0  0  0  0  0  0  0  0  0  0  0  0
   26.3610  -20.9441  -12.3252 C   0  0  0  0  0  0  0  0  0  0  0  0
   25.8928  -22.0830  -12.5304 O   0  0  0  0  0  0  0  0  0  0  0  0
   28.8777  -20.9254   -9.0524 C   0  0  0  0  0  0  0  0  0  0  0  0
   27.4227  -20.8060   -8.6663 C   0  0  1  0  0  0  0  0  0  0  0  0
   27.1761  -19.3151   -8.3993 C   0  0  0  0  0  0  0  0  0  0  0  0
   26.5547  -21.2616   -9.8339 C   0  0  2  0  0  0  0  0  0  0  0  0
   26.9956  -20.6962  -11.0785 N   0  0  0  0  0  0  0  0  0  0  0  0
   25.1361  -21.0397   -9.5482 C   0  0  0  0  0  0  0  0  0  0  0  0
   24.5854  -19.9968   -9.9698 O   0  0  0  0  0  0  0  0  0  0  0  0
   24.3534  -21.9222   -8.8314 O   0  0  0  0  0  0  0  0  0  0  0  0
  2  1  1  1
  3  4  1  0
  3  2  1  0
  4  8  1  0
  5  6  1  0
  5  4  2  0
  6  7  1  0
  7  8  2  0
  9  2  1  0
  9 11  1  0
 10  9  2  0
 12 11  1  0
 12 13  1  0
 13 19  1  0
 14 13  2  0
 16 15  1  6
 16 17  1  0
 18 16  1  0
 18 19  1  6
 20 22  1  0
 20 18  1  0
 21 20  2  0
M  END
$$$$
