HGV.pdb
     RDKit          3D

 22 22  0  0  1  0  0  0  0  0999 V2000
   15.5343  -14.3177  -16.4971 N   0  0  0  0  0  0  0  0  0  0  0  0
   16.9349  -14.4068  -16.8630 C   0  0  1  0  0  0  0  0  0  0  0  0
   17.0361  -15.2680  -18.0815 C   0  0  0  0  0  0  0  0  0  0  0  0
   16.5366  -16.6253  -17.7530 C   0  0  0  0  0  0  0  0  0  0  0  0
   15.2782  -17.1859  -17.9598 C   0  0  0  0  0  0  0  0  0  0  0  0
   15.2708  -18.4460  -17.5017 N   0  0  0  0  0  0  0  0  0  0  0  0
   16.4854  -18.7146  -17.0061 C   0  0  0  0  0  0  0  0  0  0  0  0
   17.2511  -17.6242  -17.1541 N   0  0  0  0  0  0  0  0  0  0  0  0
   17.4234  -13.0253  -17.0973 C   0  0  0  0  0  0  0  0  0  0  0  0
   16.7543  -12.2321  -17.8053 O   0  0  0  0  0  0  0  0  0  0  0  0
   18.6284  -12.5238  -16.5620 N   0  0  0  0  0  0  0  0  0  0  0  0
   19.1111  -11.1791  -16.8089 C   0  0  0  0  0  0  0  0  0  0  0  0
   19.7408  -10.6090  -15.5759 C   0  0  0  0  0  0  0  0  0  0  0  0
   19.5303  -11.1362  -14.4641 O   0  0  0  0  0  0  0  0  0  0  0  0
   22.5037  -11.1896  -14.4687 C   0  0  0  0  0  0  0  0  0  0  0  0
   22.7103   -9.6944  -14.4234 C   0  0  1  0  0  0  0  0  0  0  0  0
   23.5433   -9.3439  -15.6637 C   0  0  0  0  0  0  0  0  0  0  0  0
   21.3568   -8.9980  -14.5093 C   0  0  2  0  0  0  0  0  0  0  0  0
   20.5854   -9.4677  -15.6262 N   0  0  0  0  0  0  0  0  0  0  0  0
   21.5138   -7.5432  -14.4635 C   0  0  0  0  0  0  0  0  0  0  0  0
   21.4061   -6.8850  -15.5236 O   0  0  0  0  0  0  0  0  0  0  0  0
   21.7775   -6.8387  -13.3062 O   0  0  0  0  0  0  0  0  0  0  0  0
  2  1  1  6
  3  4  1  0
  3  2  1  0
  4  8  1  0
  5  6  1  0
  5  4  2  0
  6  7  1  0
  7  8  2  0
  9  2  1  0
  9 11  1  0
 10  9  2  0
 12 11  1  0
 12 13  1  0
 13 19  1  0
 14 13  2  0
 16 15  1  6
 16 17  1  0
 18 16  1  0
 18 19  1  6
 20 22  1  0
 20 18  1  0
 21 20  2  0
M  END
$$$$
