HGV.pdb
     RDKit          3D

 22 22  0  0  1  0  0  0  0  0999 V2000
   22.2892  -15.5882  -17.5483 N   0  0  0  0  0  0  0  0  0  0  0  0
   22.6935  -14.3071  -18.0948 C   0  0  1  0  0  0  0  0  0  0  0  0
   21.7137  -13.9343  -19.1614 C   0  0  0  0  0  0  0  0  0  0  0  0
   21.6674  -15.0195  -20.1714 C   0  0  0  0  0  0  0  0  0  0  0  0
   20.5867  -15.7786  -20.6148 C   0  0  0  0  0  0  0  0  0  0  0  0
   21.0066  -16.6544  -21.5390 N   0  0  0  0  0  0  0  0  0  0  0  0
   22.3242  -16.4834  -21.7047 C   0  0  0  0  0  0  0  0  0  0  0  0
   22.7278  -15.5020  -20.8855 N   0  0  0  0  0  0  0  0  0  0  0  0
   22.7185  -13.3327  -16.9759 C   0  0  0  0  0  0  0  0  0  0  0  0
   21.7796  -13.3072  -16.1416 O   0  0  0  0  0  0  0  0  0  0  0  0
   23.7591  -12.4012  -16.7770 N   0  0  0  0  0  0  0  0  0  0  0  0
   23.7710  -11.4395  -15.6921 C   0  0  0  0  0  0  0  0  0  0  0  0
   23.0112  -10.2062  -16.0708 C   0  0  0  0  0  0  0  0  0  0  0  0
   22.7299   -9.9865  -17.2670 O   0  0  0  0  0  0  0  0  0  0  0  0
   20.5132   -9.9062  -16.7499 C   0  0  0  0  0  0  0  0  0  0  0  0
   20.3022   -8.7412  -15.8126 C   0  0  1  0  0  0  0  0  0  0  0  0
   19.5574   -9.3061  -14.5955 C   0  0  0  0  0  0  0  0  0  0  0  0
   21.6575   -8.2008  -15.3707 C   0  0  2  0  0  0  0  0  0  0  0  0
   22.5906   -9.2585  -15.0996 N   0  0  0  0  0  0  0  0  0  0  0  0
   21.5060   -7.2441  -14.2729 C   0  0  0  0  0  0  0  0  0  0  0  0
   21.0659   -6.0979  -14.5200 O   0  0  0  0  0  0  0  0  0  0  0  0
   21.8227   -7.5302  -12.9602 O   0  0  0  0  0  0  0  0  0  0  0  0
  2  1  1  1
  3  4  1  0
  3  2  1  0
  4  8  1  0
  5  6  1  0
  5  4  2  0
  6  7  1  0
  7  8  2  0
  9  2  1  0
  9 11  1  0
 10  9  2  0
 12 11  1  0
 12 13  1  0
 13 19  1  0
 14 13  2  0
 16 15  1  6
 16 17  1  0
 18 16  1  0
 18 19  1  1
 20 22  1  0
 20 18  1  0
 21 20  2  0
M  END
$$$$
