KNA.pdb
     RDKit          3D

 23 22  0  0  1  0  0  0  0  0999 V2000
   16.7485  -12.8053  -15.7110 N   0  0  0  0  0  0  0  0  0  0  0  0
   17.0646  -11.7578  -16.6409 C   0  0  1  0  0  0  0  0  0  0  0  0
   15.9035  -11.3681  -17.4791 C   0  0  0  0  0  0  0  0  0  0  0  0
   15.4445  -12.4422  -18.3857 C   0  0  0  0  0  0  0  0  0  0  0  0
   14.3570  -12.0711  -19.3487 C   0  0  0  0  0  0  0  0  0  0  0  0
   14.0209  -13.3222  -20.1834 C   0  0  0  0  0  0  0  0  0  0  0  0
   13.1033  -12.9390  -21.2035 N   0  0  0  0  0  0  0  0  0  0  0  0
   17.6326  -10.6118  -15.8836 C   0  0  0  0  0  0  0  0  0  0  0  0
   17.1310  -10.4042  -14.7388 O   0  0  0  0  0  0  0  0  0  0  0  0
   19.8724   -7.2315  -13.2970 N   0  0  0  0  0  0  0  0  0  0  0  0
   20.8201   -8.0808  -13.9283 C   0  0  0  0  0  0  0  0  0  0  0  0
   21.9758   -8.0882  -13.3976 O   0  0  0  0  0  0  0  0  0  0  0  0
   20.5049   -8.9010  -15.1128 C   0  0  0  0  0  0  0  0  0  0  0  0
   19.1213   -8.6740  -15.6515 C   0  0  2  0  0  0  0  0  0  0  0  0
   18.6587   -9.8199  -16.4169 N   0  0  0  0  0  0  0  0  0  0  0  0
   19.0837   -7.4317  -16.4173 C   0  0  0  0  0  0  0  0  0  0  0  0
   19.7138   -7.3647  -17.4978 O   0  0  0  0  0  0  0  0  0  0  0  0
   16.9181   -4.4791  -16.8352 C   0  0  0  0  0  0  0  0  0  0  0  0
   18.3020   -5.1031  -16.8473 C   0  0  2  0  0  0  0  0  0  0  0  0
   18.3689   -6.2745  -16.0134 N   0  0  0  0  0  0  0  0  0  0  0  0
   19.2650   -4.1098  -16.2950 C   0  0  0  0  0  0  0  0  0  0  0  0
   19.7440   -3.0304  -17.0023 O   0  0  0  0  0  0  0  0  0  0  0  0
   19.6495   -4.2889  -15.1090 O   0  0  0  0  0  0  0  0  0  0  0  0
  2  1  1  1
  2  3  1  0
  4  3  1  0
  5  4  1  0
  6  5  1  0
  6  7  1  0
  8  2  1  0
  9  8  2  0
 10 11  1  0
 11 12  2  0
 13 11  1  0
 14 13  1  6
 14 15  1  0
 15  8  1  0
 16 14  1  0
 16 20  1  0
 17 16  2  0
 19 18  1  1
 19 21  1  0
 19 20  1  0
 21 22  1  0
 23 21  2  0
M  END
$$$$
