KNA.pdb
     RDKit          3D

 23 22  0  0  1  0  0  0  0  0999 V2000
   18.7393  -12.9712  -16.2365 N   0  0  0  0  0  0  0  0  0  0  0  0
   18.6511  -11.8285  -17.1016 C   0  0  1  0  0  0  0  0  0  0  0  0
   17.4252  -11.8384  -17.9382 C   0  0  0  0  0  0  0  0  0  0  0  0
   17.5263  -12.7201  -19.1209 C   0  0  0  0  0  0  0  0  0  0  0  0
   18.0674  -14.0959  -18.8724 C   0  0  0  0  0  0  0  0  0  0  0  0
   17.9927  -14.8774  -20.1985 C   0  0  0  0  0  0  0  0  0  0  0  0
   16.7342  -15.5428  -20.2486 N   0  0  0  0  0  0  0  0  0  0  0  0
   18.7667  -10.6004  -16.2723 C   0  0  0  0  0  0  0  0  0  0  0  0
   18.6665  -10.7686  -15.0205 O   0  0  0  0  0  0  0  0  0  0  0  0
   20.1009   -8.8810  -13.3312 N   0  0  0  0  0  0  0  0  0  0  0  0
   21.0618   -8.5622  -14.3277 C   0  0  0  0  0  0  0  0  0  0  0  0
   22.2743   -8.7190  -13.9778 O   0  0  0  0  0  0  0  0  0  0  0  0
   20.6986   -8.0831  -15.6744 C   0  0  0  0  0  0  0  0  0  0  0  0
   19.2340   -8.2080  -15.9833 C   0  0  2  0  0  0  0  0  0  0  0  0
   18.9735   -9.3422  -16.8543 N   0  0  0  0  0  0  0  0  0  0  0  0
   18.7321   -6.9506  -16.5291 C   0  0  0  0  0  0  0  0  0  0  0  0
   19.2060   -6.5240  -17.6073 O   0  0  0  0  0  0  0  0  0  0  0  0
   15.9917   -4.4342  -15.8738 C   0  0  0  0  0  0  0  0  0  0  0  0
   17.3082   -4.9043  -16.4657 C   0  0  2  0  0  0  0  0  0  0  0  0
   17.7259   -6.1648  -15.9100 N   0  0  0  0  0  0  0  0  0  0  0  0
   18.3557   -3.9010  -16.1262 C   0  0  0  0  0  0  0  0  0  0  0  0
   18.5057   -2.6980  -16.7782 O   0  0  0  0  0  0  0  0  0  0  0  0
   19.1385   -4.1927  -15.1836 O   0  0  0  0  0  0  0  0  0  0  0  0
  2  1  1  1
  2  3  1  0
  4  3  1  0
  5  4  1  0
  6  5  1  0
  6  7  1  0
  8  2  1  0
  9  8  2  0
 10 11  1  0
 11 12  2  0
 13 11  1  0
 14 13  1  6
 14 15  1  0
 15  8  1  0
 16 14  1  0
 16 20  1  0
 17 16  2  0
 19 18  1  1
 19 21  1  0
 19 20  1  0
 21 22  1  0
 23 21  2  0
M  END
$$$$
