KNA.pdb
     RDKit          3D

 23 22  0  0  1  0  0  0  0  0999 V2000
   19.3577  -12.2019  -17.8154 N   0  0  0  0  0  0  0  0  0  0  0  0
   20.1703  -11.3218  -18.6073 C   0  0  1  0  0  0  0  0  0  0  0  0
   20.0544  -11.5915  -20.0621 C   0  0  0  0  0  0  0  0  0  0  0  0
   20.8057  -12.7869  -20.5014 C   0  0  0  0  0  0  0  0  0  0  0  0
   20.1280  -14.1067  -20.2858 C   0  0  0  0  0  0  0  0  0  0  0  0
   21.0206  -15.2003  -20.9041 C   0  0  0  0  0  0  0  0  0  0  0  0
   21.5886  -15.9599  -19.8413 N   0  0  0  0  0  0  0  0  0  0  0  0
   19.8244   -9.9194  -18.2571 C   0  0  0  0  0  0  0  0  0  0  0  0
   19.3894   -9.2044  -19.2084 O   0  0  0  0  0  0  0  0  0  0  0  0
   16.9456   -5.8406  -15.9065 N   0  0  0  0  0  0  0  0  0  0  0  0
   18.0704   -6.5659  -15.4304 C   0  0  0  0  0  0  0  0  0  0  0  0
   18.8016   -5.9421  -14.5976 O   0  0  0  0  0  0  0  0  0  0  0  0
   18.3832   -7.9419  -15.8592 C   0  0  0  0  0  0  0  0  0  0  0  0
   19.6355   -8.0461  -16.6821 C   0  0  2  0  0  0  0  0  0  0  0  0
   19.9758   -9.4335  -16.9512 N   0  0  0  0  0  0  0  0  0  0  0  0
   20.7194   -7.3151  -16.0325 C   0  0  0  0  0  0  0  0  0  0  0  0
   21.4127   -7.8983  -15.1675 O   0  0  0  0  0  0  0  0  0  0  0  0
   22.4630   -3.9653  -16.3138 C   0  0  0  0  0  0  0  0  0  0  0  0
   22.1473   -5.3032  -15.6695 C   0  0  2  0  0  0  0  0  0  0  0  0
   21.0466   -5.9647  -16.3199 N   0  0  0  0  0  0  0  0  0  0  0  0
   21.7439   -5.0557  -14.2570 C   0  0  0  0  0  0  0  0  0  0  0  0
   20.5488   -5.4730  -13.7162 O   0  0  0  0  0  0  0  0  0  0  0  0
   22.5605   -4.4255  -13.5342 O   0  0  0  0  0  0  0  0  0  0  0  0
  2  1  1  1
  2  3  1  0
  4  3  1  0
  5  4  1  0
  6  5  1  0
  6  7  1  0
  8  2  1  0
  9  8  2  0
 10 11  1  0
 11 12  2  0
 13 11  1  0
 14 13  1  1
 14 15  1  0
 15  8  1  0
 16 14  1  0
 16 20  1  0
 17 16  2  0
 19 18  1  6
 19 21  1  0
 19 20  1  0
 21 22  1  0
 23 21  2  0
M  END
$$$$
