KNA.pdb
     RDKit          3D

 23 22  0  0  1  0  0  0  0  0999 V2000
   27.5240  -21.5467  -15.5248 N   0  0  0  0  0  0  0  0  0  0  0  0
   26.4696  -20.7300  -16.0569 C   0  0  1  0  0  0  0  0  0  0  0  0
   26.3447  -20.8471  -17.5312 C   0  0  0  0  0  0  0  0  0  0  0  0
   27.6002  -20.5512  -18.2541 C   0  0  0  0  0  0  0  0  0  0  0  0
   28.4933  -21.7234  -18.5298 C   0  0  0  0  0  0  0  0  0  0  0  0
   29.6160  -21.2478  -19.4723 C   0  0  0  0  0  0  0  0  0  0  0  0
   30.5201  -22.3318  -19.6644 N   0  0  0  0  0  0  0  0  0  0  0  0
   25.2080  -21.0694  -15.3481 C   0  0  0  0  0  0  0  0  0  0  0  0
   25.1920  -22.1895  -14.7561 O   0  0  0  0  0  0  0  0  0  0  0  0
   20.7072  -21.0605  -12.8533 N   0  0  0  0  0  0  0  0  0  0  0  0
   21.1592  -19.7290  -13.0548 C   0  0  0  0  0  0  0  0  0  0  0  0
   20.4703  -18.8315  -12.4741 O   0  0  0  0  0  0  0  0  0  0  0  0
   22.3387  -19.3929  -13.8741 C   0  0  0  0  0  0  0  0  0  0  0  0
   22.9244  -20.5714  -14.5982 C   0  0  2  0  0  0  0  0  0  0  0  0
   24.1134  -20.1941  -15.3444 N   0  0  0  0  0  0  0  0  0  0  0  0
   21.9059  -21.1954  -15.4375 C   0  0  0  0  0  0  0  0  0  0  0  0
   21.5757  -20.6368  -16.5089 O   0  0  0  0  0  0  0  0  0  0  0  0
   20.1097  -24.4915  -15.7309 C   0  0  0  0  0  0  0  0  0  0  0  0
   20.2936  -23.0102  -16.0078 C   0  0  2  0  0  0  0  0  0  0  0  0
   21.2532  -22.4136  -15.1161 N   0  0  0  0  0  0  0  0  0  0  0  0
   18.9895  -22.3283  -15.7767 C   0  0  0  0  0  0  0  0  0  0  0  0
   17.9141  -22.4197  -16.6310 O   0  0  0  0  0  0  0  0  0  0  0  0
   18.8886  -21.6328  -14.7315 O   0  0  0  0  0  0  0  0  0  0  0  0
  2  1  1  1
  2  3  1  0
  4  3  1  0
  5  4  1  0
  6  5  1  0
  6  7  1  0
  8  2  1  0
  9  8  2  0
 10 11  1  0
 11 12  2  0
 13 11  1  0
 14 13  1  6
 14 15  1  0
 15  8  1  0
 16 14  1  0
 16 20  1  0
 17 16  2  0
 19 18  1  1
 19 21  1  0
 19 20  1  0
 21 22  1  0
 23 21  2  0
M  END
$$$$
