KNA.pdb
     RDKit          3D

 23 22  0  0  1  0  0  0  0  0999 V2000
   27.8798  -22.6368  -16.4905 N   0  0  0  0  0  0  0  0  0  0  0  0
   27.1826  -21.4066  -16.2401 C   0  0  1  0  0  0  0  0  0  0  0  0
   26.5225  -20.8665  -17.4547 C   0  0  0  0  0  0  0  0  0  0  0  0
   27.4691  -20.2853  -18.4306 C   0  0  0  0  0  0  0  0  0  0  0  0
   28.1938  -19.0493  -17.9893 C   0  0  0  0  0  0  0  0  0  0  0  0
   29.1272  -18.6165  -19.1367 C   0  0  0  0  0  0  0  0  0  0  0  0
   29.8723  -17.4849  -18.6967 N   0  0  0  0  0  0  0  0  0  0  0  0
   26.2290  -21.6254  -15.1212 C   0  0  0  0  0  0  0  0  0  0  0  0
   25.3606  -22.5295  -15.3053 O   0  0  0  0  0  0  0  0  0  0  0  0
   28.2069  -20.6542  -11.1098 N   0  0  0  0  0  0  0  0  0  0  0  0
   26.8965  -21.1988  -11.0433 C   0  0  0  0  0  0  0  0  0  0  0  0
   26.8099  -22.3272  -10.4634 O   0  0  0  0  0  0  0  0  0  0  0  0
   25.7117  -20.5198  -11.6005 C   0  0  0  0  0  0  0  0  0  0  0  0
   25.2748  -21.0654  -12.9300 C   0  0  2  0  0  0  0  0  0  0  0  0
   26.2993  -20.8702  -13.9426 N   0  0  0  0  0  0  0  0  0  0  0  0
   23.9901  -20.4842  -13.3078 C   0  0  0  0  0  0  0  0  0  0  0  0
   23.9570  -19.3050  -13.7292 O   0  0  0  0  0  0  0  0  0  0  0  0
   21.0127  -21.1648  -14.9523 C   0  0  0  0  0  0  0  0  0  0  0  0
   21.5218  -20.5663  -13.6533 C   0  0  2  0  0  0  0  0  0  0  0  0
   22.7543  -21.1768  -13.2288 N   0  0  0  0  0  0  0  0  0  0  0  0
   20.5091  -20.8272  -12.5925 C   0  0  0  0  0  0  0  0  0  0  0  0
   19.4106  -20.0288  -12.3676 O   0  0  0  0  0  0  0  0  0  0  0  0
   20.6898  -21.8439  -11.8712 O   0  0  0  0  0  0  0  0  0  0  0  0
  2  1  1  6
  2  3  1  0
  4  3  1  0
  5  4  1  0
  6  5  1  0
  6  7  1  0
  8  2  1  0
  9  8  2  0
 10 11  1  0
 11 12  2  0
 13 11  1  0
 14 13  1  1
 14 15  1  0
 15  8  1  0
 16 14  1  0
 16 20  1  0
 17 16  2  0
 19 18  1  6
 19 21  1  0
 19 20  1  0
 21 22  1  0
 23 21  2  0
M  END
$$$$
