VWR.pdb
     RDKit          3D

 33 34  0  0  1  0  0  0  0  0999 V2000
   27.0730  -17.9326  -14.0918 C   0  0  0  0  0  0  0  0  0  0  0  0
   27.8680  -18.8250  -15.0321 C   0  0  1  0  0  0  0  0  0  0  0  0
   28.8591  -18.0163  -15.8390 C   0  0  0  0  0  0  0  0  0  0  0  0
   28.4899  -19.9855  -14.3089 C   0  0  2  0  0  0  0  0  0  0  0  0
   29.2352  -20.7529  -15.2985 N   0  0  0  0  0  0  0  0  0  0  0  0
   27.5668  -20.8309  -13.5632 C   0  0  0  0  0  0  0  0  0  0  0  0
   26.8716  -21.7008  -14.1400 O   0  0  0  0  0  0  0  0  0  0  0  0
   27.4236  -20.6965  -12.1575 N   0  0  0  0  0  0  0  0  0  0  0  0
   26.5273  -21.5207  -11.3567 C   0  0  1  0  0  0  0  0  0  0  0  0
   27.2377  -21.7724  -10.0552 C   0  0  0  0  0  0  0  0  0  0  0  0
   27.1498  -20.7188   -9.0566 C   0  0  0  0  0  0  0  0  0  0  0  0
   26.2397  -19.6621   -9.1162 C   0  0  0  0  0  0  0  0  0  0  0  0
   26.3929  -18.8559   -8.0438 N   0  0  0  0  0  0  0  0  0  0  0  0
   27.3745  -19.3532   -7.2860 C   0  0  0  0  0  0  0  0  0  0  0  0
   27.9061  -18.9005   -6.1061 C   0  0  0  0  0  0  0  0  0  0  0  0
   28.9285  -19.5797   -5.5042 C   0  0  0  0  0  0  0  0  0  0  0  0
   29.4279  -20.7309   -6.0905 C   0  0  0  0  0  0  0  0  0  0  0  0
   28.8841  -21.1691   -7.2699 C   0  0  0  0  0  0  0  0  0  0  0  0
   27.8505  -20.5069   -7.9040 C   0  0  0  0  0  0  0  0  0  0  0  0
   25.1688  -21.0237  -11.2877 C   0  0  0  0  0  0  0  0  0  0  0  0
   24.9581  -19.7692  -11.3198 O   0  0  0  0  0  0  0  0  0  0  0  0
   18.5475  -25.5463  -11.1160 N   0  0  0  0  0  0  0  0  0  0  0  0
   17.7438  -24.4294  -11.5940 C   0  0  0  0  0  0  0  0  0  0  0  0
   16.5540  -24.3797  -11.3191 N   0  0  0  0  0  0  0  0  0  0  0  0
   18.3796  -23.4159  -12.3706 N   0  0  0  0  0  0  0  0  0  0  0  0
   19.7594  -23.5456  -12.7023 C   0  0  0  0  0  0  0  0  0  0  0  0
   20.4746  -22.2508  -12.4098 C   0  0  0  0  0  0  0  0  0  0  0  0
   21.8693  -22.6196  -11.9275 C   0  0  0  0  0  0  0  0  0  0  0  0
   22.6978  -21.3526  -11.6198 C   0  0  2  0  0  0  0  0  0  0  0  0
   24.0036  -21.8533  -11.1900 N   0  0  0  0  0  0  0  0  0  0  0  0
   22.0092  -20.5724  -10.5797 C   0  0  0  0  0  0  0  0  0  0  0  0
   22.2520  -20.7433   -9.3614 O   0  0  0  0  0  0  0  0  0  0  0  0
   21.0711  -19.6234  -10.9361 O   0  0  0  0  0  0  0  0  0  0  0  0
  2  1  1  1
  2  3  1  0
  2  4  1  0
  4  5  1  6
  4  6  1  0
  6  8  1  0
  6  7  2  0
  8  9  1  0
  9 20  1  0
  9 10  1  1
 10 11  1  0
 11 19  1  0
 11 12  2  0
 12 13  1  0
 14 15  2  0
 14 13  1  0
 16 15  1  0
 17 16  2  0
 18 17  1  0
 18 19  2  0
 19 14  1  0
 20 21  2  0
 22 23  1  0
 23 24  2  0
 25 26  1  0
 25 23  1  0
 27 26  1  0
 28 27  1  0
 29 28  1  1
 30 29  1  0
 30 20  1  0
 31 33  1  0
 31 29  1  0
 32 31  2  0
M  END
$$$$
