VWR.pdb
     RDKit          3D

 33 34  0  0  1  0  0  0  0  0999 V2000
   22.0525  -14.8094  -18.0740 C   0  0  0  0  0  0  0  0  0  0  0  0
   22.5891  -16.0863  -17.4459 C   0  0  1  0  0  0  0  0  0  0  0  0
   21.7372  -17.2769  -17.8253 C   0  0  0  0  0  0  0  0  0  0  0  0
   24.0507  -16.2794  -17.7338 C   0  0  2  0  0  0  0  0  0  0  0  0
   24.1846  -16.4166  -19.1785 N   0  0  0  0  0  0  0  0  0  0  0  0
   24.6905  -17.3841  -17.0317 C   0  0  0  0  0  0  0  0  0  0  0  0
   24.5925  -18.5629  -17.4482 O   0  0  0  0  0  0  0  0  0  0  0  0
   25.4460  -17.1617  -15.8509 N   0  0  0  0  0  0  0  0  0  0  0  0
   26.1290  -18.2215  -15.1201 C   0  0  1  0  0  0  0  0  0  0  0  0
   27.5909  -17.8684  -15.1355 C   0  0  0  0  0  0  0  0  0  0  0  0
   28.3502  -18.3094  -16.2948 C   0  0  0  0  0  0  0  0  0  0  0  0
   28.7216  -17.4720  -17.3481 C   0  0  0  0  0  0  0  0  0  0  0  0
   29.4264  -18.1662  -18.2672 N   0  0  0  0  0  0  0  0  0  0  0  0
   29.5269  -19.4305  -17.8469 C   0  0  0  0  0  0  0  0  0  0  0  0
   30.1361  -20.5154  -18.4226 C   0  0  0  0  0  0  0  0  0  0  0  0
   30.1041  -21.7339  -17.8037 C   0  0  0  0  0  0  0  0  0  0  0  0
   29.4530  -21.8709  -16.5889 C   0  0  0  0  0  0  0  0  0  0  0  0
   28.8498  -20.7755  -16.0278 C   0  0  0  0  0  0  0  0  0  0  0  0
   28.8636  -19.5303  -16.6263 C   0  0  0  0  0  0  0  0  0  0  0  0
   25.5340  -18.5352  -13.8375 C   0  0  0  0  0  0  0  0  0  0  0  0
   25.4968  -17.6445  -12.9295 O   0  0  0  0  0  0  0  0  0  0  0  0
   18.5681  -19.5058  -11.6547 N   0  0  0  0  0  0  0  0  0  0  0  0
   18.7779  -20.4223  -10.5420 C   0  0  0  0  0  0  0  0  0  0  0  0
   18.0350  -20.3760   -9.5726 N   0  0  0  0  0  0  0  0  0  0  0  0
   19.8513  -21.3581  -10.6235 N   0  0  0  0  0  0  0  0  0  0  0  0
   20.7424  -21.3114  -11.7345 C   0  0  0  0  0  0  0  0  0  0  0  0
   22.0752  -20.7622  -11.2921 C   0  0  0  0  0  0  0  0  0  0  0  0
   22.9116  -20.5761  -12.5489 C   0  0  0  0  0  0  0  0  0  0  0  0
   24.3015  -19.9968  -12.2039 C   0  0  2  0  0  0  0  0  0  0  0  0
   24.9589  -19.8034  -13.4965 N   0  0  0  0  0  0  0  0  0  0  0  0
   25.0118  -20.9459  -11.3325 C   0  0  0  0  0  0  0  0  0  0  0  0
   25.7358  -21.8550  -11.8036 O   0  0  0  0  0  0  0  0  0  0  0  0
   24.8910  -20.8466   -9.9602 O   0  0  0  0  0  0  0  0  0  0  0  0
  2  1  1  6
  2  3  1  0
  2  4  1  0
  4  5  1  6
  4  6  1  0
  6  8  1  0
  6  7  2  0
  8  9  1  0
  9 20  1  0
  9 10  1  1
 10 11  1  0
 11 19  1  0
 11 12  2  0
 12 13  1  0
 14 15  2  0
 14 13  1  0
 16 15  1  0
 17 16  2  0
 18 17  1  0
 18 19  2  0
 19 14  1  0
 20 21  2  0
 22 23  1  0
 23 24  2  0
 25 26  1  0
 25 23  1  0
 27 26  1  0
 28 27  1  0
 29 28  1  6
 30 29  1  0
 30 20  1  0
 31 33  1  0
 31 29  1  0
 32 31  2  0
M  END
$$$$
