VWR.pdb
     RDKit          3D

 33 34  0  0  1  0  0  0  0  0999 V2000
   27.2239  -22.8130  -16.9491 C   0  0  0  0  0  0  0  0  0  0  0  0
   27.7498  -21.4497  -16.5277 C   0  0  1  0  0  0  0  0  0  0  0  0
   28.5665  -20.8180  -17.6329 C   0  0  0  0  0  0  0  0  0  0  0  0
   26.6529  -20.5626  -16.0116 C   0  0  2  0  0  0  0  0  0  0  0  0
   27.2276  -19.2350  -15.8352 N   0  0  0  0  0  0  0  0  0  0  0  0
   25.9895  -21.0220  -14.7985 C   0  0  0  0  0  0  0  0  0  0  0  0
   25.0639  -21.8668  -14.8440 O   0  0  0  0  0  0  0  0  0  0  0  0
   26.3693  -20.5266  -13.5238 N   0  0  0  0  0  0  0  0  0  0  0  0
   25.7458  -20.9502  -12.2765 C   0  0  1  0  0  0  0  0  0  0  0  0
   26.7057  -20.5800  -11.1794 C   0  0  0  0  0  0  0  0  0  0  0  0
   26.2448  -20.7963   -9.8172 C   0  0  0  0  0  0  0  0  0  0  0  0
   25.2319  -21.6918   -9.4697 C   0  0  0  0  0  0  0  0  0  0  0  0
   25.0382  -21.6783   -8.1334 N   0  0  0  0  0  0  0  0  0  0  0  0
   25.8927  -20.8021   -7.5976 C   0  0  0  0  0  0  0  0  0  0  0  0
   26.0835  -20.4269   -6.2928 C   0  0  0  0  0  0  0  0  0  0  0  0
   27.0270  -19.4901   -5.9749 C   0  0  0  0  0  0  0  0  0  0  0  0
   27.7933  -18.9187   -6.9773 C   0  0  0  0  0  0  0  0  0  0  0  0
   27.5892  -19.3060   -8.2762 C   0  0  0  0  0  0  0  0  0  0  0  0
   26.6448  -20.2498   -8.6315 C   0  0  0  0  0  0  0  0  0  0  0  0
   24.3695  -20.5246  -12.1278 C   0  0  0  0  0  0  0  0  0  0  0  0
   24.0601  -19.3122  -12.3593 O   0  0  0  0  0  0  0  0  0  0  0  0
   18.5264  -25.1623   -8.1623 N   0  0  0  0  0  0  0  0  0  0  0  0
   17.8210  -24.1366   -8.9189 C   0  0  0  0  0  0  0  0  0  0  0  0
   16.6176  -24.2428   -9.1045 N   0  0  0  0  0  0  0  0  0  0  0  0
   18.5645  -23.0266   -9.4186 N   0  0  0  0  0  0  0  0  0  0  0  0
   19.9348  -22.8777   -9.0571 C   0  0  0  0  0  0  0  0  0  0  0  0
   20.4879  -21.6188   -9.6756 C   0  0  0  0  0  0  0  0  0  0  0  0
   21.1126  -22.0204  -11.0032 C   0  0  0  0  0  0  0  0  0  0  0  0
   21.9332  -20.8554  -11.5998 C   0  0  2  0  0  0  0  0  0  0  0  0
   23.2907  -21.3837  -11.7358 N   0  0  0  0  0  0  0  0  0  0  0  0
   21.8528  -19.7003  -10.6921 C   0  0  0  0  0  0  0  0  0  0  0  0
   22.5266  -19.6466   -9.6359 O   0  0  0  0  0  0  0  0  0  0  0  0
   21.0214  -18.6401  -10.9960 O   0  0  0  0  0  0  0  0  0  0  0  0
  2  1  1  6
  2  3  1  0
  2  4  1  0
  4  5  1  1
  4  6  1  0
  6  8  1  0
  6  7  2  0
  8  9  1  0
  9 20  1  0
  9 10  1  1
 10 11  1  0
 11 19  1  0
 11 12  2  0
 12 13  1  0
 14 15  2  0
 14 13  1  0
 16 15  1  0
 17 16  2  0
 18 17  1  0
 18 19  2  0
 19 14  1  0
 20 21  2  0
 22 23  1  0
 23 24  2  0
 25 26  1  0
 25 23  1  0
 27 26  1  0
 28 27  1  0
 29 28  1  1
 30 29  1  0
 30 20  1  0
 31 33  1  0
 31 29  1  0
 32 31  2  0
M  END
$$$$
