VWR.pdb
     RDKit          3D

 33 34  0  0  1  0  0  0  0  0999 V2000
   20.7831  -17.9778  -13.6616 C   0  0  0  0  0  0  0  0  0  0  0  0
   20.4882  -19.0597  -12.6343 C   0  0  1  0  0  0  0  0  0  0  0  0
   18.9981  -19.2442  -12.4533 C   0  0  0  0  0  0  0  0  0  0  0  0
   21.2169  -20.3366  -12.9425 C   0  0  2  0  0  0  0  0  0  0  0  0
   20.7027  -21.3501  -12.0301 N   0  0  0  0  0  0  0  0  0  0  0  0
   22.6709  -20.2606  -12.8904 C   0  0  0  0  0  0  0  0  0  0  0  0
   23.3144  -19.5540  -13.7024 O   0  0  0  0  0  0  0  0  0  0  0  0
   23.4076  -20.9857  -11.9177 N   0  0  0  0  0  0  0  0  0  0  0  0
   24.8581  -20.9201  -11.7921 C   0  0  1  0  0  0  0  0  0  0  0  0
   25.1831  -21.4125  -10.4086 C   0  0  0  0  0  0  0  0  0  0  0  0
   26.5818  -21.3555  -10.0143 C   0  0  0  0  0  0  0  0  0  0  0  0
   27.6286  -21.8771  -10.7764 C   0  0  0  0  0  0  0  0  0  0  0  0
   28.8079  -21.6612  -10.1553 N   0  0  0  0  0  0  0  0  0  0  0  0
   28.5640  -21.0151   -9.0115 C   0  0  0  0  0  0  0  0  0  0  0  0
   29.4207  -20.5784   -8.0343 C   0  0  0  0  0  0  0  0  0  0  0  0
   28.9367  -19.9361   -6.9288 C   0  0  0  0  0  0  0  0  0  0  0  0
   27.5741  -19.7258   -6.7976 C   0  0  0  0  0  0  0  0  0  0  0  0
   26.7323  -20.1687   -7.7845 C   0  0  0  0  0  0  0  0  0  0  0  0
   27.1884  -20.8208   -8.9140 C   0  0  0  0  0  0  0  0  0  0  0  0
   25.5762  -21.5202  -12.8974 C   0  0  0  0  0  0  0  0  0  0  0  0
   25.0961  -22.5492  -13.4716 O   0  0  0  0  0  0  0  0  0  0  0  0
   32.1792  -24.9333  -15.0794 N   0  0  0  0  0  0  0  0  0  0  0  0
   32.0990  -24.3307  -16.4032 C   0  0  0  0  0  0  0  0  0  0  0  0
   32.4004  -24.9904  -17.3869 N   0  0  0  0  0  0  0  0  0  0  0  0
   31.6607  -22.9775  -16.5100 N   0  0  0  0  0  0  0  0  0  0  0  0
   30.9842  -22.3685  -15.4136 C   0  0  0  0  0  0  0  0  0  0  0  0
   29.5034  -22.3232  -15.6941 C   0  0  0  0  0  0  0  0  0  0  0  0
   28.8560  -21.6084  -14.5176 C   0  0  0  0  0  0  0  0  0  0  0  0
   27.3253  -21.5170  -14.7042 C   0  0  2  0  0  0  0  0  0  0  0  0
   26.8189  -21.0324  -13.4200 N   0  0  0  0  0  0  0  0  0  0  0  0
   26.8074  -22.8466  -15.0630 C   0  0  0  0  0  0  0  0  0  0  0  0
   26.4944  -23.1333  -16.2429 O   0  0  0  0  0  0  0  0  0  0  0  0
   26.6576  -23.8148  -14.0894 O   0  0  0  0  0  0  0  0  0  0  0  0
  2  1  1  6
  2  3  1  0
  2  4  1  0
  4  5  1  1
  4  6  1  0
  6  8  1  0
  6  7  2  0
  8  9  1  0
  9 20  1  0
  9 10  1  1
 10 11  1  0
 11 19  1  0
 11 12  2  0
 12 13  1  0
 14 15  2  0
 14 13  1  0
 16 15  1  0
 17 16  2  0
 18 17  1  0
 18 19  2  0
 19 14  1  0
 20 21  2  0
 22 23  1  0
 23 24  2  0
 25 26  1  0
 25 23  1  0
 27 26  1  0
 28 27  1  0
 29 28  1  1
 30 29  1  0
 30 20  1  0
 31 33  1  0
 31 29  1  0
 32 31  2  0
M  END
$$$$
