VWR.pdb
     RDKit          3D

 33 34  0  0  1  0  0  0  0  0999 V2000
   29.3082  -21.8547  -18.1199 C   0  0  0  0  0  0  0  0  0  0  0  0
   28.6879  -22.2910  -16.8016 C   0  0  1  0  0  0  0  0  0  0  0  0
   29.7538  -22.5547  -15.7616 C   0  0  0  0  0  0  0  0  0  0  0  0
   27.6248  -21.3350  -16.3407 C   0  0  2  0  0  0  0  0  0  0  0  0
   28.2176  -20.0036  -16.3499 N   0  0  0  0  0  0  0  0  0  0  0  0
   27.0193  -21.6402  -15.0512 C   0  0  0  0  0  0  0  0  0  0  0  0
   26.2869  -22.6466  -14.8989 O   0  0  0  0  0  0  0  0  0  0  0  0
   27.2385  -20.8063  -13.9237 N   0  0  0  0  0  0  0  0  0  0  0  0
   26.6333  -21.0406  -12.6187 C   0  0  1  0  0  0  0  0  0  0  0  0
   27.4425  -20.2459  -11.6310 C   0  0  0  0  0  0  0  0  0  0  0  0
   26.9327  -20.1952  -10.2699 C   0  0  0  0  0  0  0  0  0  0  0  0
   25.5853  -20.3430   -9.9361 C   0  0  0  0  0  0  0  0  0  0  0  0
   25.4266  -20.2606   -8.5976 N   0  0  0  0  0  0  0  0  0  0  0  0
   26.6280  -20.0635   -8.0472 C   0  0  0  0  0  0  0  0  0  0  0  0
   26.9928  -19.9105   -6.7345 C   0  0  0  0  0  0  0  0  0  0  0  0
   28.3033  -19.7093   -6.4014 C   0  0  0  0  0  0  0  0  0  0  0  0
   29.2658  -19.6607   -7.3961 C   0  0  0  0  0  0  0  0  0  0  0  0
   28.8831  -19.8161   -8.7031 C   0  0  0  0  0  0  0  0  0  0  0  0
   27.5681  -20.0212   -9.0740 C   0  0  0  0  0  0  0  0  0  0  0  0
   25.1956  -20.8678  -12.5928 C   0  0  0  0  0  0  0  0  0  0  0  0
   24.6957  -19.7334  -12.8797 O   0  0  0  0  0  0  0  0  0  0  0  0
   18.4568  -24.6003  -14.8724 N   0  0  0  0  0  0  0  0  0  0  0  0
   19.4291  -24.4305  -15.9437 C   0  0  0  0  0  0  0  0  0  0  0  0
   19.0468  -24.3703  -17.1030 N   0  0  0  0  0  0  0  0  0  0  0  0
   20.8103  -24.3330  -15.6008 N   0  0  0  0  0  0  0  0  0  0  0  0
   21.2091  -24.4760  -14.2403 C   0  0  0  0  0  0  0  0  0  0  0  0
   21.0890  -23.1488  -13.5349 C   0  0  0  0  0  0  0  0  0  0  0  0
   22.2078  -23.0966  -12.5056 C   0  0  0  0  0  0  0  0  0  0  0  0
   22.8214  -21.6808  -12.4314 C   0  0  2  0  0  0  0  0  0  0  0  0
   24.2582  -21.9025  -12.2673 N   0  0  0  0  0  0  0  0  0  0  0  0
   22.2175  -20.9570  -11.3017 C   0  0  0  0  0  0  0  0  0  0  0  0
   22.7128  -21.0047  -10.1507 O   0  0  0  0  0  0  0  0  0  0  0  0
   21.0784  -20.2005  -11.4962 O   0  0  0  0  0  0  0  0  0  0  0  0
  2  1  1  6
  2  3  1  0
  2  4  1  0
  4  5  1  1
  4  6  1  0
  6  8  1  0
  6  7  2  0
  8  9  1  0
  9 20  1  0
  9 10  1  1
 10 11  1  0
 11 19  1  0
 11 12  2  0
 12 13  1  0
 14 15  2  0
 14 13  1  0
 16 15  1  0
 17 16  2  0
 18 17  1  0
 18 19  2  0
 19 14  1  0
 20 21  2  0
 22 23  1  0
 23 24  2  0
 25 26  1  0
 25 23  1  0
 27 26  1  0
 28 27  1  0
 29 28  1  1
 30 29  1  0
 30 20  1  0
 31 33  1  0
 31 29  1  0
 32 31  2  0
M  END
$$$$
