VWR.pdb
     RDKit          3D

 33 34  0  0  1  0  0  0  0  0999 V2000
   29.1703  -18.7739  -16.1798 C   0  0  0  0  0  0  0  0  0  0  0  0
   28.1464  -19.2393  -15.1562 C   0  0  1  0  0  0  0  0  0  0  0  0
   26.7505  -19.2200  -15.7379 C   0  0  0  0  0  0  0  0  0  0  0  0
   28.5240  -20.5603  -14.5488 C   0  0  2  0  0  0  0  0  0  0  0  0
   28.5032  -21.5439  -15.6240 N   0  0  0  0  0  0  0  0  0  0  0  0
   27.7114  -20.9890  -13.4181 C   0  0  0  0  0  0  0  0  0  0  0  0
   26.6527  -21.6393  -13.5880 O   0  0  0  0  0  0  0  0  0  0  0  0
   28.0919  -20.6833  -12.0853 N   0  0  0  0  0  0  0  0  0  0  0  0
   27.2907  -21.0318  -10.9188 C   0  0  1  0  0  0  0  0  0  0  0  0
   28.1354  -20.7095   -9.7168 C   0  0  0  0  0  0  0  0  0  0  0  0
   27.4249  -20.4973   -8.4658 C   0  0  0  0  0  0  0  0  0  0  0  0
   26.0346  -20.5270   -8.3439 C   0  0  0  0  0  0  0  0  0  0  0  0
   25.6760  -20.3077   -7.0607 N   0  0  0  0  0  0  0  0  0  0  0  0
   26.7884  -20.1356   -6.3410 C   0  0  0  0  0  0  0  0  0  0  0  0
   26.9547  -19.8817   -5.0040 C   0  0  0  0  0  0  0  0  0  0  0  0
   28.2087  -19.7332   -4.4805 C   0  0  0  0  0  0  0  0  0  0  0  0
   29.3155  -19.8405   -5.3063 C   0  0  0  0  0  0  0  0  0  0  0  0
   29.1305  -20.0951   -6.6404 C   0  0  0  0  0  0  0  0  0  0  0  0
   27.8775  -20.2509   -7.2013 C   0  0  0  0  0  0  0  0  0  0  0  0
   25.9431  -20.5022  -10.9461 C   0  0  0  0  0  0  0  0  0  0  0  0
   25.7652  -19.2423  -10.9597 O   0  0  0  0  0  0  0  0  0  0  0  0
   25.0064  -23.3470  -15.9049 N   0  0  0  0  0  0  0  0  0  0  0  0
   24.3721  -24.2894  -14.9930 C   0  0  0  0  0  0  0  0  0  0  0  0
   24.8527  -25.4032  -14.8443 N   0  0  0  0  0  0  0  0  0  0  0  0
   23.2016  -23.8750  -14.2910 N   0  0  0  0  0  0  0  0  0  0  0  0
   22.6999  -22.5543  -14.4777 C   0  0  0  0  0  0  0  0  0  0  0  0
   23.4447  -21.5980  -13.5809 C   0  0  0  0  0  0  0  0  0  0  0  0
   22.7576  -21.6438  -12.2245 C   0  0  0  0  0  0  0  0  0  0  0  0
   23.4510  -20.6923  -11.2244 C   0  0  2  0  0  0  0  0  0  0  0  0
   24.7548  -21.3040  -10.9665 N   0  0  0  0  0  0  0  0  0  0  0  0
   22.6185  -20.5797  -10.0165 C   0  0  0  0  0  0  0  0  0  0  0  0
   22.8765  -21.2327   -8.9775 O   0  0  0  0  0  0  0  0  0  0  0  0
   21.5236  -19.7378  -10.0087 O   0  0  0  0  0  0  0  0  0  0  0  0
  2  1  1  6
  2  3  1  0
  2  4  1  0
  4  5  1  6
  4  6  1  0
  6  8  1  0
  6  7  2  0
  8  9  1  0
  9 20  1  0
  9 10  1  1
 10 11  1  0
 11 19  1  0
 11 12  2  0
 12 13  1  0
 14 15  2  0
 14 13  1  0
 16 15  1  0
 17 16  2  0
 18 17  1  0
 18 19  2  0
 19 14  1  0
 20 21  2  0
 22 23  1  0
 23 24  2  0
 25 26  1  0
 25 23  1  0
 27 26  1  0
 28 27  1  0
 29 28  1  6
 30 29  1  0
 30 20  1  0
 31 33  1  0
 31 29  1  0
 32 31  2  0
M  END
$$$$
