VWR.pdb
     RDKit          3D

 33 34  0  0  1  0  0  0  0  0999 V2000
   27.5583  -18.5071  -14.2431 C   0  0  0  0  0  0  0  0  0  0  0  0
   27.8413  -19.7207  -15.1147 C   0  0  1  0  0  0  0  0  0  0  0  0
   28.8212  -19.3814  -16.2155 C   0  0  0  0  0  0  0  0  0  0  0  0
   28.2483  -20.9133  -14.2971 C   0  0  2  0  0  0  0  0  0  0  0  0
   28.3623  -22.0392  -15.2154 N   0  0  0  0  0  0  0  0  0  0  0  0
   27.3811  -21.2301  -13.1700 C   0  0  0  0  0  0  0  0  0  0  0  0
   26.2978  -21.8400  -13.3346 O   0  0  0  0  0  0  0  0  0  0  0  0
   27.7346  -20.8574  -11.8468 N   0  0  0  0  0  0  0  0  0  0  0  0
   26.8604  -21.0461  -10.6961 C   0  0  1  0  0  0  0  0  0  0  0  0
   27.7051  -20.7864   -9.4791 C   0  0  0  0  0  0  0  0  0  0  0  0
   26.9927  -20.6083   -8.2238 C   0  0  0  0  0  0  0  0  0  0  0  0
   25.6429  -20.9151   -8.0431 C   0  0  0  0  0  0  0  0  0  0  0  0
   25.2734  -20.6538   -6.7709 N   0  0  0  0  0  0  0  0  0  0  0  0
   26.3395  -20.1860   -6.1154 C   0  0  0  0  0  0  0  0  0  0  0  0
   26.4768  -19.7765   -4.8142 C   0  0  0  0  0  0  0  0  0  0  0  0
   27.6821  -19.3208   -4.3576 C   0  0  0  0  0  0  0  0  0  0  0  0
   28.7687  -19.2737   -5.2152 C   0  0  0  0  0  0  0  0  0  0  0  0
   28.6133  -19.6874   -6.5127 C   0  0  0  0  0  0  0  0  0  0  0  0
   27.4098  -20.1534   -7.0059 C   0  0  0  0  0  0  0  0  0  0  0  0
   25.5969  -20.3447  -10.7908 C   0  0  0  0  0  0  0  0  0  0  0  0
   25.5913  -19.0873  -10.9857 O   0  0  0  0  0  0  0  0  0  0  0  0
   25.5811  -23.3375  -14.2864 N   0  0  0  0  0  0  0  0  0  0  0  0
   24.2903  -23.3214  -14.9615 C   0  0  0  0  0  0  0  0  0  0  0  0
   23.7414  -24.3769  -15.2412 N   0  0  0  0  0  0  0  0  0  0  0  0
   23.6999  -22.0606  -15.2721 N   0  0  0  0  0  0  0  0  0  0  0  0
   23.8841  -20.9601  -14.3858 C   0  0  0  0  0  0  0  0  0  0  0  0
   22.8890  -21.0472  -13.2563 C   0  0  0  0  0  0  0  0  0  0  0  0
   23.1021  -19.8161  -12.3885 C   0  0  0  0  0  0  0  0  0  0  0  0
   23.0888  -20.1906  -10.8898 C   0  0  2  0  0  0  0  0  0  0  0  0
   24.3106  -20.9693  -10.6867 N   0  0  0  0  0  0  0  0  0  0  0  0
   21.8647  -20.9531  -10.5987 C   0  0  0  0  0  0  0  0  0  0  0  0
   21.8978  -22.1844  -10.3641 O   0  0  0  0  0  0  0  0  0  0  0  0
   20.6411  -20.3126  -10.5775 O   0  0  0  0  0  0  0  0  0  0  0  0
  2  1  1  1
  2  3  1  0
  2  4  1  0
  4  5  1  6
  4  6  1  0
  6  8  1  0
  6  7  2  0
  8  9  1  0
  9 20  1  0
  9 10  1  1
 10 11  1  0
 11 19  1  0
 11 12  2  0
 12 13  1  0
 14 15  2  0
 14 13  1  0
 16 15  1  0
 17 16  2  0
 18 17  1  0
 18 19  2  0
 19 14  1  0
 20 21  2  0
 22 23  1  0
 23 24  2  0
 25 26  1  0
 25 23  1  0
 27 26  1  0
 28 27  1  0
 29 28  1  6
 30 29  1  0
 30 20  1  0
 31 33  1  0
 31 29  1  0
 32 31  2  0
M  END
$$$$
