VWR.pdb
     RDKit          3D

 33 34  0  0  1  0  0  0  0  0999 V2000
   28.8404  -18.4583  -15.9869 C   0  0  0  0  0  0  0  0  0  0  0  0
   27.9125  -18.9767  -14.8992 C   0  0  1  0  0  0  0  0  0  0  0  0
   26.4682  -18.9149  -15.3435 C   0  0  0  0  0  0  0  0  0  0  0  0
   28.3305  -20.3332  -14.4076 C   0  0  2  0  0  0  0  0  0  0  0  0
   28.2525  -21.2402  -15.5457 N   0  0  0  0  0  0  0  0  0  0  0  0
   27.5862  -20.8461  -13.2650 C   0  0  0  0  0  0  0  0  0  0  0  0
   26.5482  -21.5324  -13.4204 O   0  0  0  0  0  0  0  0  0  0  0  0
   28.0121  -20.5844  -11.9366 N   0  0  0  0  0  0  0  0  0  0  0  0
   27.2244  -20.9202  -10.7572 C   0  0  1  0  0  0  0  0  0  0  0  0
   28.0547  -20.5197   -9.5688 C   0  0  0  0  0  0  0  0  0  0  0  0
   27.3904  -20.5530   -8.2756 C   0  0  0  0  0  0  0  0  0  0  0  0
   26.1163  -21.0837   -8.0670 C   0  0  0  0  0  0  0  0  0  0  0  0
   25.7782  -20.9818   -6.7636 N   0  0  0  0  0  0  0  0  0  0  0  0
   26.7916  -20.4012   -6.1148 C   0  0  0  0  0  0  0  0  0  0  0  0
   26.9320  -20.0749   -4.7906 C   0  0  0  0  0  0  0  0  0  0  0  0
   28.0741  -19.4689   -4.3465 C   0  0  0  0  0  0  0  0  0  0  0  0
   29.0934  -19.1844   -5.2400 C   0  0  0  0  0  0  0  0  0  0  0  0
   28.9360  -19.5180   -6.5601 C   0  0  0  0  0  0  0  0  0  0  0  0
   27.7954  -20.1311   -7.0417 C   0  0  0  0  0  0  0  0  0  0  0  0
   25.8569  -20.4457  -10.8035 C   0  0  0  0  0  0  0  0  0  0  0  0
   25.6268  -19.1944  -10.7831 O   0  0  0  0  0  0  0  0  0  0  0  0
   18.8992  -19.2658  -14.4565 N   0  0  0  0  0  0  0  0  0  0  0  0
   19.8004  -19.8990  -15.4098 C   0  0  0  0  0  0  0  0  0  0  0  0
   19.7311  -19.6052  -16.5941 N   0  0  0  0  0  0  0  0  0  0  0  0
   20.7490  -20.8471  -14.9239 N   0  0  0  0  0  0  0  0  0  0  0  0
   20.7028  -21.2519  -13.5584 C   0  0  0  0  0  0  0  0  0  0  0  0
   21.6318  -20.3887  -12.7425 C   0  0  0  0  0  0  0  0  0  0  0  0
   22.7287  -21.3014  -12.2157 C   0  0  0  0  0  0  0  0  0  0  0  0
   23.3602  -20.7184  -10.9321 C   0  0  2  0  0  0  0  0  0  0  0  0
   24.7040  -21.2946  -10.8798 N   0  0  0  0  0  0  0  0  0  0  0  0
   22.5279  -21.0920   -9.7779 C   0  0  0  0  0  0  0  0  0  0  0  0
   22.7519  -22.1332   -9.1159 O   0  0  0  0  0  0  0  0  0  0  0  0
   21.4712  -20.2871   -9.3994 O   0  0  0  0  0  0  0  0  0  0  0  0
  2  1  1  6
  2  3  1  0
  2  4  1  0
  4  5  1  6
  4  6  1  0
  6  8  1  0
  6  7  2  0
  8  9  1  0
  9 20  1  0
  9 10  1  1
 10 11  1  0
 11 19  1  0
 11 12  2  0
 12 13  1  0
 14 15  2  0
 14 13  1  0
 16 15  1  0
 17 16  2  0
 18 17  1  0
 18 19  2  0
 19 14  1  0
 20 21  2  0
 22 23  1  0
 23 24  2  0
 25 26  1  0
 25 23  1  0
 27 26  1  0
 28 27  1  0
 29 28  1  6
 30 29  1  0
 30 20  1  0
 31 33  1  0
 31 29  1  0
 32 31  2  0
M  END
$$$$
