VWR.pdb
     RDKit          3D

 33 34  0  0  1  0  0  0  0  0999 V2000
   27.8144  -22.0978  -18.4511 C   0  0  0  0  0  0  0  0  0  0  0  0
   28.4498  -20.7567  -18.1188 C   0  0  1  0  0  0  0  0  0  0  0  0
   28.8176  -20.0039  -19.3779 C   0  0  0  0  0  0  0  0  0  0  0  0
   27.6040  -19.9576  -17.1687 C   0  0  2  0  0  0  0  0  0  0  0  0
   28.2073  -18.6345  -17.0727 N   0  0  0  0  0  0  0  0  0  0  0  0
   27.4045  -20.5495  -15.8524 C   0  0  0  0  0  0  0  0  0  0  0  0
   26.8285  -21.6552  -15.7174 O   0  0  0  0  0  0  0  0  0  0  0  0
   27.8558  -19.8923  -14.6781 N   0  0  0  0  0  0  0  0  0  0  0  0
   27.6154  -20.3943  -13.3312 C   0  0  1  0  0  0  0  0  0  0  0  0
   28.7709  -19.9205  -12.4932 C   0  0  0  0  0  0  0  0  0  0  0  0
   28.7975  -20.3759  -11.1123 C   0  0  0  0  0  0  0  0  0  0  0  0
   29.5003  -21.5001  -10.6754 C   0  0  0  0  0  0  0  0  0  0  0  0
   29.3421  -21.6584   -9.3438 N   0  0  0  0  0  0  0  0  0  0  0  0
   28.5580  -20.6729   -8.8976 C   0  0  0  0  0  0  0  0  0  0  0  0
   28.1027  -20.3989   -7.6337 C   0  0  0  0  0  0  0  0  0  0  0  0
   27.2910  -19.3217   -7.4110 C   0  0  0  0  0  0  0  0  0  0  0  0
   26.9283  -18.5041   -8.4684 C   0  0  0  0  0  0  0  0  0  0  0  0
   27.3930  -18.7928   -9.7252 C   0  0  0  0  0  0  0  0  0  0  0  0
   28.2146  -19.8728   -9.9846 C   0  0  0  0  0  0  0  0  0  0  0  0
   26.2810  -20.1348  -12.8317 C   0  0  0  0  0  0  0  0  0  0  0  0
   25.6331  -19.1302  -13.2679 O   0  0  0  0  0  0  0  0  0  0  0  0
   18.6047  -20.7520  -12.6318 N   0  0  0  0  0  0  0  0  0  0  0  0
   19.1343  -20.3909  -13.9399 C   0  0  0  0  0  0  0  0  0  0  0  0
   18.4603  -19.7088  -14.6976 N   0  0  0  0  0  0  0  0  0  0  0  0
   20.4390  -20.8449  -14.2954 N   0  0  0  0  0  0  0  0  0  0  0  0
   21.1432  -21.7189  -13.4174 C   0  0  0  0  0  0  0  0  0  0  0  0
   21.8878  -20.9090  -12.3863 C   0  0  0  0  0  0  0  0  0  0  0  0
   23.3702  -21.0778  -12.6832 C   0  0  0  0  0  0  0  0  0  0  0  0
   24.2265  -20.6426  -11.4733 C   0  0  2  0  0  0  0  0  0  0  0  0
   25.6046  -20.9445  -11.8610 N   0  0  0  0  0  0  0  0  0  0  0  0
   23.7863  -21.3879  -10.2836 C   0  0  0  0  0  0  0  0  0  0  0  0
   24.3093  -22.4815   -9.9628 O   0  0  0  0  0  0  0  0  0  0  0  0
   22.7751  -20.8846   -9.4888 O   0  0  0  0  0  0  0  0  0  0  0  0
  2  1  1  6
  2  3  1  0
  2  4  1  0
  4  5  1  1
  4  6  1  0
  6  8  1  0
  6  7  2  0
  8  9  1  0
  9 20  1  0
  9 10  1  1
 10 11  1  0
 11 19  1  0
 11 12  2  0
 12 13  1  0
 14 15  2  0
 14 13  1  0
 16 15  1  0
 17 16  2  0
 18 17  1  0
 18 19  2  0
 19 14  1  0
 20 21  2  0
 22 23  1  0
 23 24  2  0
 25 26  1  0
 25 23  1  0
 27 26  1  0
 28 27  1  0
 29 28  1  6
 30 29  1  0
 30 20  1  0
 31 33  1  0
 31 29  1  0
 32 31  2  0
M  END
$$$$
