VWR.pdb
     RDKit          3D

 33 34  0  0  1  0  0  0  0  0999 V2000
   28.4139  -18.0307  -15.9151 C   0  0  0  0  0  0  0  0  0  0  0  0
   27.5384  -18.7038  -14.8695 C   0  0  1  0  0  0  0  0  0  0  0  0
   26.1405  -18.9336  -15.3989 C   0  0  0  0  0  0  0  0  0  0  0  0
   28.1811  -19.9440  -14.3169 C   0  0  2  0  0  0  0  0  0  0  0  0
   28.3165  -20.8819  -15.4242 N   0  0  0  0  0  0  0  0  0  0  0  0
   27.5010  -20.5537  -13.1818 C   0  0  0  0  0  0  0  0  0  0  0  0
   26.7214  -21.5238  -13.3357 O   0  0  0  0  0  0  0  0  0  0  0  0
   27.6986  -20.0681  -11.8628 N   0  0  0  0  0  0  0  0  0  0  0  0
   26.9028  -20.4960  -10.7193 C   0  0  1  0  0  0  0  0  0  0  0  0
   27.5625  -19.9058   -9.5033 C   0  0  0  0  0  0  0  0  0  0  0  0
   26.9571  -20.2254   -8.2203 C   0  0  0  0  0  0  0  0  0  0  0  0
   25.7155  -20.8474   -8.0774 C   0  0  0  0  0  0  0  0  0  0  0  0
   25.4307  -21.0209   -6.7689 N   0  0  0  0  0  0  0  0  0  0  0  0
   26.4472  -20.5315   -6.0530 C   0  0  0  0  0  0  0  0  0  0  0  0
   26.6318  -20.4664   -4.6961 C   0  0  0  0  0  0  0  0  0  0  0  0
   27.7668  -19.9057   -4.1802 C   0  0  0  0  0  0  0  0  0  0  0  0
   28.7340  -19.4020   -5.0340 C   0  0  0  0  0  0  0  0  0  0  0  0
   28.5329  -19.4759   -6.3879 C   0  0  0  0  0  0  0  0  0  0  0  0
   27.3980  -20.0361   -6.9420 C   0  0  0  0  0  0  0  0  0  0  0  0
   25.4791  -20.2803  -10.8743 C   0  0  0  0  0  0  0  0  0  0  0  0
   25.0343  -19.0939  -10.9911 O   0  0  0  0  0  0  0  0  0  0  0  0
   20.1630  -26.0377  -13.9626 N   0  0  0  0  0  0  0  0  0  0  0  0
   19.5988  -25.2373  -12.8842 C   0  0  0  0  0  0  0  0  0  0  0  0
   18.6625  -25.6756  -12.2323 N   0  0  0  0  0  0  0  0  0  0  0  0
   20.1674  -23.9566  -12.6173 N   0  0  0  0  0  0  0  0  0  0  0  0
   21.2602  -23.4938  -13.4062 C   0  0  0  0  0  0  0  0  0  0  0  0
   21.6866  -22.1284  -12.9295 C   0  0  0  0  0  0  0  0  0  0  0  0
   22.4642  -22.3376  -11.6390 C   0  0  0  0  0  0  0  0  0  0  0  0
   23.0891  -21.0114  -11.1521 C   0  0  2  0  0  0  0  0  0  0  0  0
   24.4984  -21.3252  -10.9154 N   0  0  0  0  0  0  0  0  0  0  0  0
   22.3856  -20.5690   -9.9380 C   0  0  0  0  0  0  0  0  0  0  0  0
   22.5826  -21.1177   -8.8278 O   0  0  0  0  0  0  0  0  0  0  0  0
   21.4841  -19.5247  -10.0043 O   0  0  0  0  0  0  0  0  0  0  0  0
  2  1  1  6
  2  3  1  0
  2  4  1  0
  4  5  1  6
  4  6  1  0
  6  8  1  0
  6  7  2  0
  8  9  1  0
  9 20  1  0
  9 10  1  1
 10 11  1  0
 11 19  1  0
 11 12  2  0
 12 13  1  0
 14 15  2  0
 14 13  1  0
 16 15  1  0
 17 16  2  0
 18 17  1  0
 18 19  2  0
 19 14  1  0
 20 21  2  0
 22 23  1  0
 23 24  2  0
 25 26  1  0
 25 23  1  0
 27 26  1  0
 28 27  1  0
 29 28  1  1
 30 29  1  0
 30 20  1  0
 31 33  1  0
 31 29  1  0
 32 31  2  0
M  END
$$$$
