MAK.pdb
     RDKit          3D

 23 22  0  0  1  0  0  0  0  0999 V2000
    5.8405  -24.6367   18.7249 C   0  0  0  0  0  0  0  0  0  0  0  0
    4.2182  -25.3434   19.0175 S   0  0  0  0  0  0  0  0  0  0  0  0
    3.7526  -25.0043   20.7585 C   0  0  0  0  0  0  0  0  0  0  0  0
    4.5745  -23.8543   21.2324 C   0  0  0  0  0  0  0  0  0  0  0  0
    4.3631  -23.5003   22.6947 C   0  0  2  0  0  0  0  0  0  0  0  0
    2.9901  -22.9499   22.8308 N   0  0  0  0  0  0  0  0  0  0  0  0
    5.2678  -22.4529   23.1889 C   0  0  0  0  0  0  0  0  0  0  0  0
    5.3186  -21.3498   22.6090 O   0  0  0  0  0  0  0  0  0  0  0  0
    7.3404  -21.9544   26.2415 C   0  0  0  0  0  0  0  0  0  0  0  0
    7.0685  -21.6443   24.7470 C   0  0  2  0  0  0  0  0  0  0  0  0
    6.1173  -22.6274   24.3343 N   0  0  0  0  0  0  0  0  0  0  0  0
    8.3741  -21.7367   24.0909 C   0  0  0  0  0  0  0  0  0  0  0  0
    8.8876  -22.8650   23.7742 O   0  0  0  0  0  0  0  0  0  0  0  0
    9.1243  -20.6025   23.7765 N   0  0  0  0  0  0  0  0  0  0  0  0
   10.3473  -20.6171   22.9882 C   0  0  1  0  0  0  0  0  0  0  0  0
   10.3452  -19.6074   21.9050 C   0  0  0  0  0  0  0  0  0  0  0  0
    9.4487  -19.8290   20.7549 C   0  0  0  0  0  0  0  0  0  0  0  0
    9.3811  -18.8321   19.6794 C   0  0  0  0  0  0  0  0  0  0  0  0
    8.5197  -19.1248   18.5063 C   0  0  0  0  0  0  0  0  0  0  0  0
    8.5190  -17.9168   17.6614 N   0  0  0  0  0  0  0  0  0  0  0  0
   11.4931  -20.6230   23.9029 C   0  0  0  0  0  0  0  0  0  0  0  0
   11.4323  -20.2769   25.2462 O   0  0  0  0  0  0  0  0  0  0  0  0
   12.6403  -20.9652   23.4533 O   0  0  0  0  0  0  0  0  0  0  0  0
  2  1  1  0
  2  3  1  0
  4  5  1  0
  4  3  1  0
  5  7  1  0
  5  6  1  6
  7  8  2  0
 10  9  1  1
 10 12  1  0
 11 10  1  0
 11  7  1  0
 12 14  1  0
 12 13  2  0
 14 15  1  0
 15 21  1  0
 15 16  1  6
 17 16  1  0
 18 17  1  0
 19 18  1  0
 20 19  1  0
 21 23  2  0
 21 22  1  0
M  END
$$$$
