MAK.pdb
     RDKit          3D

 23 22  0  0  1  0  0  0  0  0999 V2000
    6.9937  -11.9252   27.4725 C   0  0  0  0  0  0  0  0  0  0  0  0
    5.6228  -12.9095   26.8652 S   0  0  0  0  0  0  0  0  0  0  0  0
    6.1416  -14.6684   26.8568 C   0  0  0  0  0  0  0  0  0  0  0  0
    6.3661  -15.0687   25.4384 C   0  0  0  0  0  0  0  0  0  0  0  0
    7.6504  -14.5254   24.8352 C   0  0  2  0  0  0  0  0  0  0  0  0
    7.5192  -13.0481   24.7522 N   0  0  0  0  0  0  0  0  0  0  0  0
    7.9029  -14.9851   23.4624 C   0  0  0  0  0  0  0  0  0  0  0  0
    7.6929  -16.1759   23.1563 O   0  0  0  0  0  0  0  0  0  0  0  0
    8.6755  -13.3024   20.2237 C   0  0  0  0  0  0  0  0  0  0  0  0
    8.6605  -14.5823   21.0986 C   0  0  2  0  0  0  0  0  0  0  0  0
    8.3864  -14.1199   22.4225 N   0  0  0  0  0  0  0  0  0  0  0  0
    9.9815  -15.1872   20.9184 C   0  0  0  0  0  0  0  0  0  0  0  0
   11.0429  -14.6247   21.3590 O   0  0  0  0  0  0  0  0  0  0  0  0
   10.1518  -16.4059   20.2598 N   0  0  0  0  0  0  0  0  0  0  0  0
   11.4432  -16.9971   19.9435 C   0  0  1  0  0  0  0  0  0  0  0  0
   11.3277  -18.3571   19.3692 C   0  0  0  0  0  0  0  0  0  0  0  0
   12.5657  -19.1370   19.1841 C   0  0  0  0  0  0  0  0  0  0  0  0
   12.4913  -20.5204   18.6982 C   0  0  0  0  0  0  0  0  0  0  0  0
   13.7568  -21.2850   18.5651 C   0  0  0  0  0  0  0  0  0  0  0  0
   13.3911  -22.6548   18.1613 N   0  0  0  0  0  0  0  0  0  0  0  0
   12.2372  -16.0152   19.1984 C   0  0  0  0  0  0  0  0  0  0  0  0
   12.6603  -16.1751   17.8857 O   0  0  0  0  0  0  0  0  0  0  0  0
   12.5782  -14.9282   19.7793 O   0  0  0  0  0  0  0  0  0  0  0  0
  2  1  1  0
  2  3  1  0
  4  5  1  0
  4  3  1  0
  5  7  1  0
  5  6  1  6
  7  8  2  0
 10  9  1  6
 10 12  1  0
 11 10  1  0
 11  7  1  0
 12 14  1  0
 12 13  2  0
 14 15  1  0
 15 21  1  0
 15 16  1  6
 17 16  1  0
 18 17  1  0
 19 18  1  0
 20 19  1  0
 21 23  2  0
 21 22  1  0
M  END
$$$$
