MAK.pdb
     RDKit          3D

 23 22  0  0  1  0  0  0  0  0999 V2000
    7.6568  -10.8898   26.1555 C   0  0  0  0  0  0  0  0  0  0  0  0
    7.3333  -12.5309   25.5081 S   0  0  0  0  0  0  0  0  0  0  0  0
    5.9911  -13.2843   26.5051 C   0  0  0  0  0  0  0  0  0  0  0  0
    5.7834  -14.6749   26.0096 C   0  0  0  0  0  0  0  0  0  0  0  0
    7.0204  -15.3064   25.3938 C   0  0  2  0  0  0  0  0  0  0  0  0
    6.9196  -15.1503   23.9200 N   0  0  0  0  0  0  0  0  0  0  0  0
    7.1346  -16.7509   25.6390 C   0  0  0  0  0  0  0  0  0  0  0  0
    7.3357  -17.1719   26.7958 O   0  0  0  0  0  0  0  0  0  0  0  0
    6.6562  -19.8152   23.5382 C   0  0  0  0  0  0  0  0  0  0  0  0
    7.1478  -19.1361   24.8423 C   0  0  2  0  0  0  0  0  0  0  0  0
    7.0210  -17.7341   24.5977 N   0  0  0  0  0  0  0  0  0  0  0  0
    8.5216  -19.6074   25.0275 C   0  0  0  0  0  0  0  0  0  0  0  0
    8.7836  -20.8387   25.2562 O   0  0  0  0  0  0  0  0  0  0  0  0
    9.6142  -18.7413   24.9633 N   0  0  0  0  0  0  0  0  0  0  0  0
   11.0026  -19.1567   25.0940 C   0  0  1  0  0  0  0  0  0  0  0  0
   11.8826  -18.5521   24.0679 C   0  0  0  0  0  0  0  0  0  0  0  0
   13.1196  -19.2701   23.7079 C   0  0  0  0  0  0  0  0  0  0  0  0
   14.0447  -18.6852   22.7294 C   0  0  0  0  0  0  0  0  0  0  0  0
   15.3104  -19.4065   22.4440 C   0  0  0  0  0  0  0  0  0  0  0  0
   16.0293  -18.6252   21.4213 N   0  0  0  0  0  0  0  0  0  0  0  0
   11.4037  -19.0127   26.4969 C   0  0  0  0  0  0  0  0  0  0  0  0
   12.4412  -19.7138   27.0968 O   0  0  0  0  0  0  0  0  0  0  0  0
   10.7656  -18.1910   27.2403 O   0  0  0  0  0  0  0  0  0  0  0  0
  2  1  1  0
  2  3  1  0
  4  5  1  0
  4  3  1  0
  5  7  1  0
  5  6  1  6
  7  8  2  0
 10  9  1  6
 10 12  1  0
 11 10  1  0
 11  7  1  0
 12 14  1  0
 12 13  2  0
 14 15  1  0
 15 21  1  0
 15 16  1  6
 17 16  1  0
 18 17  1  0
 19 18  1  0
 20 19  1  0
 21 23  2  0
 21 22  1  0
M  END
$$$$
