MAK.pdb
     RDKit          3D

 23 22  0  0  1  0  0  0  0  0999 V2000
    7.3864  -11.0334   26.1431 C   0  0  0  0  0  0  0  0  0  0  0  0
    6.2518  -11.8934   27.2340 S   0  0  0  0  0  0  0  0  0  0  0  0
    5.6384  -13.3844   26.3601 C   0  0  0  0  0  0  0  0  0  0  0  0
    6.7896  -13.9889   25.6309 C   0  0  0  0  0  0  0  0  0  0  0  0
    6.4350  -15.2301   24.8296 C   0  0  2  0  0  0  0  0  0  0  0  0
    6.0082  -16.2796   25.7902 N   0  0  0  0  0  0  0  0  0  0  0  0
    7.5671  -15.8007   24.0863 C   0  0  0  0  0  0  0  0  0  0  0  0
    8.3505  -16.5882   24.6535 O   0  0  0  0  0  0  0  0  0  0  0  0
    8.9107  -15.3288   20.6112 C   0  0  0  0  0  0  0  0  0  0  0  0
    9.0021  -15.9544   22.0268 C   0  0  2  0  0  0  0  0  0  0  0  0
    7.8299  -15.5003   22.7062 N   0  0  0  0  0  0  0  0  0  0  0  0
   10.2649  -15.4653   22.5831 C   0  0  0  0  0  0  0  0  0  0  0  0
   10.3201  -14.3966   23.2845 O   0  0  0  0  0  0  0  0  0  0  0  0
   11.4711  -16.1375   22.3791 N   0  0  0  0  0  0  0  0  0  0  0  0
   12.3483  -16.5961   23.4455 C   0  0  1  0  0  0  0  0  0  0  0  0
   11.6357  -17.3837   24.4774 C   0  0  0  0  0  0  0  0  0  0  0  0
   12.4436  -18.0819   25.4948 C   0  0  0  0  0  0  0  0  0  0  0  0
   11.7844  -18.9368   26.4898 C   0  0  0  0  0  0  0  0  0  0  0  0
   12.6249  -19.5658   27.5394 C   0  0  0  0  0  0  0  0  0  0  0  0
   11.7314  -20.4012   28.3622 N   0  0  0  0  0  0  0  0  0  0  0  0
   13.5423  -17.1970   22.8430 C   0  0  0  0  0  0  0  0  0  0  0  0
   14.8321  -16.7034   22.9868 O   0  0  0  0  0  0  0  0  0  0  0  0
   13.4104  -18.2490   22.1282 O   0  0  0  0  0  0  0  0  0  0  0  0
  2  1  1  0
  2  3  1  0
  4  5  1  0
  4  3  1  0
  5  7  1  0
  5  6  1  1
  7  8  2  0
 10  9  1  6
 10 12  1  0
 11 10  1  0
 11  7  1  0
 12 14  1  0
 12 13  2  0
 14 15  1  0
 15 21  1  0
 15 16  1  6
 17 16  1  0
 18 17  1  0
 19 18  1  0
 20 19  1  0
 21 23  2  0
 21 22  1  0
M  END
$$$$
