MAK.pdb
     RDKit          3D

 23 22  0  0  1  0  0  0  0  0999 V2000
    6.9746  -12.7023   20.4397 C   0  0  0  0  0  0  0  0  0  0  0  0
    7.8679  -12.6880   18.8845 S   0  0  0  0  0  0  0  0  0  0  0  0
    8.6764  -14.3206   18.6747 C   0  0  0  0  0  0  0  0  0  0  0  0
    8.8891  -14.8994   20.0321 C   0  0  0  0  0  0  0  0  0  0  0  0
    9.4753  -16.3010   20.0250 C   0  0  2  0  0  0  0  0  0  0  0  0
    8.5193  -17.1854   19.3105 N   0  0  0  0  0  0  0  0  0  0  0  0
    9.6388  -16.8833   21.3644 C   0  0  0  0  0  0  0  0  0  0  0  0
    8.6344  -17.1431   22.0568 O   0  0  0  0  0  0  0  0  0  0  0  0
   12.5754  -17.9885   23.4216 C   0  0  0  0  0  0  0  0  0  0  0  0
   11.0842  -17.5821   23.2999 C   0  0  2  0  0  0  0  0  0  0  0  0
   10.9215  -17.1831   21.9376 N   0  0  0  0  0  0  0  0  0  0  0  0
   10.8953  -16.5127   24.2819 C   0  0  0  0  0  0  0  0  0  0  0  0
   11.3788  -15.3420   24.1006 O   0  0  0  0  0  0  0  0  0  0  0  0
   10.1793  -16.7130   25.4631 N   0  0  0  0  0  0  0  0  0  0  0  0
    9.8148  -15.6558   26.3940 C   0  0  1  0  0  0  0  0  0  0  0  0
    8.6857  -14.8284   25.9109 C   0  0  0  0  0  0  0  0  0  0  0  0
    8.2537  -13.6924   26.7464 C   0  0  0  0  0  0  0  0  0  0  0  0
    7.1664  -12.8198   26.2865 C   0  0  0  0  0  0  0  0  0  0  0  0
    6.7479  -11.6994   27.1659 C   0  0  0  0  0  0  0  0  0  0  0  0
    5.7304  -10.9299   26.4271 N   0  0  0  0  0  0  0  0  0  0  0  0
    9.7020  -16.2335   27.7369 C   0  0  0  0  0  0  0  0  0  0  0  0
   10.0254  -15.5680   28.9118 O   0  0  0  0  0  0  0  0  0  0  0  0
    9.2808  -17.4346   27.8589 O   0  0  0  0  0  0  0  0  0  0  0  0
  2  1  1  0
  2  3  1  0
  4  5  1  0
  4  3  1  0
  5  7  1  0
  5  6  1  6
  7  8  2  0
 10  9  1  6
 10 12  1  0
 11 10  1  0
 11  7  1  0
 12 14  1  0
 12 13  2  0
 14 15  1  0
 15 21  1  0
 15 16  1  6
 17 16  1  0
 18 17  1  0
 19 18  1  0
 20 19  1  0
 21 23  2  0
 21 22  1  0
M  END
$$$$
