MAK.pdb
     RDKit          3D

 23 22  0  0  1  0  0  0  0  0999 V2000
    9.6571  -12.3129   19.0597 C   0  0  0  0  0  0  0  0  0  0  0  0
    7.8702  -12.3002   18.9059 S   0  0  0  0  0  0  0  0  0  0  0  0
    7.3285  -13.9767   18.3967 C   0  0  0  0  0  0  0  0  0  0  0  0
    7.6404  -14.9133   19.5139 C   0  0  0  0  0  0  0  0  0  0  0  0
    9.0883  -15.3719   19.5542 C   0  0  2  0  0  0  0  0  0  0  0  0
    9.3528  -16.1382   18.3095 N   0  0  0  0  0  0  0  0  0  0  0  0
    9.3904  -16.2880   20.6630 C   0  0  0  0  0  0  0  0  0  0  0  0
    9.0272  -16.0036   21.8219 O   0  0  0  0  0  0  0  0  0  0  0  0
   11.1859  -19.5758   20.9332 C   0  0  0  0  0  0  0  0  0  0  0  0
   10.3609  -18.4253   21.5651 C   0  0  2  0  0  0  0  0  0  0  0  0
   10.0949  -17.5274   20.4859 N   0  0  0  0  0  0  0  0  0  0  0  0
   11.2104  -17.8797   22.6254 C   0  0  0  0  0  0  0  0  0  0  0  0
   12.2048  -17.1184   22.3635 O   0  0  0  0  0  0  0  0  0  0  0  0
   10.9803  -18.1596   23.9733 N   0  0  0  0  0  0  0  0  0  0  0  0
   11.6306  -17.4730   25.0791 C   0  0  1  0  0  0  0  0  0  0  0  0
   10.6788  -16.7207   25.9282 C   0  0  0  0  0  0  0  0  0  0  0  0
   11.2058  -16.0522   27.1326 C   0  0  0  0  0  0  0  0  0  0  0  0
   10.2869  -15.3589   28.0438 C   0  0  0  0  0  0  0  0  0  0  0  0
   10.7526  -14.1051   28.6879 C   0  0  0  0  0  0  0  0  0  0  0  0
    9.6843  -13.6711   29.6063 N   0  0  0  0  0  0  0  0  0  0  0  0
   12.5332  -18.4148   25.7485 C   0  0  0  0  0  0  0  0  0  0  0  0
   13.6880  -18.0528   26.4290 O   0  0  0  0  0  0  0  0  0  0  0  0
   12.2590  -19.6633   25.7139 O   0  0  0  0  0  0  0  0  0  0  0  0
  2  1  1  0
  2  3  1  0
  4  5  1  0
  4  3  1  0
  5  7  1  0
  5  6  1  6
  7  8  2  0
 10  9  1  6
 10 12  1  0
 11 10  1  0
 11  7  1  0
 12 14  1  0
 12 13  2  0
 14 15  1  0
 15 21  1  0
 15 16  1  1
 17 16  1  0
 18 17  1  0
 19 18  1  0
 20 19  1  0
 21 23  2  0
 21 22  1  0
M  END
$$$$
