MAK.pdb
     RDKit          3D

 23 22  0  0  1  0  0  0  0  0999 V2000
    7.0932  -11.3300   19.7401 C   0  0  0  0  0  0  0  0  0  0  0  0
    7.8606  -12.9502   19.7956 S   0  0  0  0  0  0  0  0  0  0  0  0
    6.5389  -14.2012   20.0217 C   0  0  0  0  0  0  0  0  0  0  0  0
    7.1796  -15.5472   20.0010 C   0  0  0  0  0  0  0  0  0  0  0  0
    7.8879  -15.9182   21.2929 C   0  0  2  0  0  0  0  0  0  0  0  0
    8.2507  -14.6555   21.9861 N   0  0  0  0  0  0  0  0  0  0  0  0
    9.1497  -16.6439   21.0912 C   0  0  0  0  0  0  0  0  0  0  0  0
    9.1342  -17.8037   20.6324 O   0  0  0  0  0  0  0  0  0  0  0  0
   12.4607  -15.9477   20.1840 C   0  0  0  0  0  0  0  0  0  0  0  0
   11.6574  -16.7954   21.2036 C   0  0  2  0  0  0  0  0  0  0  0  0
   10.4355  -16.0800   21.3954 N   0  0  0  0  0  0  0  0  0  0  0  0
   12.5122  -16.8839   22.3889 C   0  0  0  0  0  0  0  0  0  0  0  0
   12.4956  -15.9827   23.2971 O   0  0  0  0  0  0  0  0  0  0  0  0
   13.3866  -17.9529   22.5906 N   0  0  0  0  0  0  0  0  0  0  0  0
   14.2041  -18.1344   23.7805 C   0  0  1  0  0  0  0  0  0  0  0  0
   14.0433  -19.4746   24.3895 C   0  0  0  0  0  0  0  0  0  0  0  0
   13.2623  -19.5784   25.6363 C   0  0  0  0  0  0  0  0  0  0  0  0
   13.1440  -20.8732   26.3180 C   0  0  0  0  0  0  0  0  0  0  0  0
   12.3556  -20.9339   27.5743 C   0  0  0  0  0  0  0  0  0  0  0  0
   12.4495  -22.3174   28.0745 N   0  0  0  0  0  0  0  0  0  0  0  0
   15.5685  -17.6875   23.4832 C   0  0  0  0  0  0  0  0  0  0  0  0
   16.4263  -17.1039   24.4058 O   0  0  0  0  0  0  0  0  0  0  0  0
   16.0209  -17.8330   22.2960 O   0  0  0  0  0  0  0  0  0  0  0  0
  2  1  1  0
  2  3  1  0
  4  5  1  0
  4  3  1  0
  5  7  1  0
  5  6  1  6
  7  8  2  0
 10  9  1  6
 10 12  1  0
 11 10  1  0
 11  7  1  0
 12 14  1  0
 12 13  2  0
 14 15  1  0
 15 21  1  0
 15 16  1  6
 17 16  1  0
 18 17  1  0
 19 18  1  0
 20 19  1  0
 21 23  2  0
 21 22  1  0
M  END
$$$$
