WTT.pdb
     RDKit          3D

 29 30  0  0  1  0  0  0  0  0999 V2000
   15.6069  -17.6811    3.7718 N   0  0  0  0  0  0  0  0  0  0  0  0
   16.5914  -18.3569    4.5643 C   0  0  1  0  0  0  0  0  0  0  0  0
   17.5983  -19.0146    3.6540 C   0  0  0  0  0  0  0  0  0  0  0  0
   16.9664  -20.1762    2.9872 C   0  0  0  0  0  0  0  0  0  0  0  0
   16.1824  -20.1039    1.8399 C   0  0  0  0  0  0  0  0  0  0  0  0
   15.7655  -21.3155    1.4944 N   0  0  0  0  0  0  0  0  0  0  0  0
   16.2537  -22.2034    2.3873 C   0  0  0  0  0  0  0  0  0  0  0  0
   16.1288  -23.5823    2.4981 C   0  0  0  0  0  0  0  0  0  0  0  0
   16.7410  -24.2823    3.5295 C   0  0  0  0  0  0  0  0  0  0  0  0
   17.4848  -23.5624    4.4512 C   0  0  0  0  0  0  0  0  0  0  0  0
   17.6191  -22.1753    4.3521 C   0  0  0  0  0  0  0  0  0  0  0  0
   17.0082  -21.5077    3.3293 C   0  0  0  0  0  0  0  0  0  0  0  0
   17.2376  -17.4708    5.5634 C   0  0  0  0  0  0  0  0  0  0  0  0
   17.6609  -16.3260    5.2572 O   0  0  0  0  0  0  0  0  0  0  0  0
   15.7650  -15.7337    8.2841 C   0  0  0  0  0  0  0  0  0  0  0  0
   16.9209  -16.4551    8.9016 C   0  0  1  0  0  0  0  0  0  0  0  0
   16.3889  -17.6242    9.5011 O   0  0  0  0  0  0  0  0  0  0  0  0
   17.9387  -16.9354    7.9005 C   0  0  2  0  0  0  0  0  0  0  0  0
   17.4287  -17.8324    6.9203 N   0  0  0  0  0  0  0  0  0  0  0  0
   19.1654  -17.4550    8.5802 C   0  0  0  0  0  0  0  0  0  0  0  0
   19.4161  -18.6888    8.5968 O   0  0  0  0  0  0  0  0  0  0  0  0
   22.7945  -16.6252    7.9055 C   0  0  0  0  0  0  0  0  0  0  0  0
   22.5345  -16.4029    9.3633 C   0  0  1  0  0  0  0  0  0  0  0  0
   22.4329  -15.0297    9.5858 O   0  0  0  0  0  0  0  0  0  0  0  0
   21.2832  -17.1267    9.8355 C   0  0  2  0  0  0  0  0  0  0  0  0
   20.0970  -16.6005    9.2313 N   0  0  0  0  0  0  0  0  0  0  0  0
   21.2254  -17.1838   11.3025 C   0  0  0  0  0  0  0  0  0  0  0  0
   20.2722  -16.6983   11.9463 O   0  0  0  0  0  0  0  0  0  0  0  0
   22.2520  -17.7906   11.9944 O   0  0  0  0  0  0  0  0  0  0  0  0
  2 13  1  0
  2  1  1  6
  3  2  1  0
  3  4  1  0
  4  5  2  0
  4 12  1  0
  5  6  1  0
  6  7  1  0
  7  8  2  0
  8  9  1  0
 10  9  2  0
 11 10  1  0
 12 11  2  0
 12  7  1  0
 13 19  1  0
 14 13  2  0
 16 17  1  0
 16 15  1  6
 18 19  1  1
 18 16  1  0
 20 21  2  0
 20 18  1  0
 23 22  1  6
 23 25  1  0
 24 23  1  0
 25 26  1  1
 25 27  1  0
 26 20  1  0
 27 28  2  0
 27 29  1  0
M  END
$$$$
