WTT.pdb
     RDKit          3D

 29 30  0  0  1  0  0  0  0  0999 V2000
   24.7547  -30.9334  -20.3107 N   0  0  0  0  0  0  0  0  0  0  0  0
   25.4035  -30.2390  -19.2380 C   0  0  1  0  0  0  0  0  0  0  0  0
   24.3861  -29.8960  -18.1786 C   0  0  0  0  0  0  0  0  0  0  0  0
   23.4565  -28.8725  -18.7092 C   0  0  0  0  0  0  0  0  0  0  0  0
   23.6394  -28.1735  -19.8983 C   0  0  0  0  0  0  0  0  0  0  0  0
   22.6331  -27.3303  -20.0920 N   0  0  0  0  0  0  0  0  0  0  0  0
   21.7750  -27.4477  -19.0557 C   0  0  0  0  0  0  0  0  0  0  0  0
   20.5765  -26.8119  -18.7579 C   0  0  0  0  0  0  0  0  0  0  0  0
   19.8655  -27.1150  -17.6042 C   0  0  0  0  0  0  0  0  0  0  0  0
   20.3880  -28.0756  -16.7526 C   0  0  0  0  0  0  0  0  0  0  0  0
   21.5924  -28.7232  -17.0394 C   0  0  0  0  0  0  0  0  0  0  0  0
   22.2746  -28.4090  -18.1800 C   0  0  0  0  0  0  0  0  0  0  0  0
   26.5589  -30.9846  -18.6812 C   0  0  0  0  0  0  0  0  0  0  0  0
   26.5285  -32.2331  -18.5262 O   0  0  0  0  0  0  0  0  0  0  0  0
   31.3129  -31.1168  -17.1598 C   0  0  0  0  0  0  0  0  0  0  0  0
   30.1601  -30.3169  -17.6784 C   0  0  1  0  0  0  0  0  0  0  0  0
   30.4668  -29.9998  -19.0255 O   0  0  0  0  0  0  0  0  0  0  0  0
   28.8639  -31.0827  -17.7231 C   0  0  2  0  0  0  0  0  0  0  0  0
   27.7705  -30.3654  -18.2849 N   0  0  0  0  0  0  0  0  0  0  0  0
   28.5415  -31.6826  -16.3916 C   0  0  0  0  0  0  0  0  0  0  0  0
   28.4824  -30.9624  -15.3605 O   0  0  0  0  0  0  0  0  0  0  0  0
   25.9182  -34.7093  -15.7294 C   0  0  0  0  0  0  0  0  0  0  0  0
   26.5346  -33.8270  -14.6884 C   0  0  1  0  0  0  0  0  0  0  0  0
   26.3022  -34.3974  -13.4370 O   0  0  0  0  0  0  0  0  0  0  0  0
   28.0222  -33.6194  -14.9261 C   0  0  2  0  0  0  0  0  0  0  0  0
   28.2888  -33.0715  -16.2214 N   0  0  0  0  0  0  0  0  0  0  0  0
   28.7819  -34.8424  -14.6327 C   0  0  0  0  0  0  0  0  0  0  0  0
   29.4737  -35.4153  -15.4997 O   0  0  0  0  0  0  0  0  0  0  0  0
   28.7328  -35.3779  -13.3632 O   0  0  0  0  0  0  0  0  0  0  0  0
  2 13  1  0
  2  1  1  6
  3  2  1  0
  3  4  1  0
  4  5  2  0
  4 12  1  0
  5  6  1  0
  6  7  1  0
  7  8  2  0
  8  9  1  0
 10  9  2  0
 11 10  1  0
 12 11  2  0
 12  7  1  0
 13 19  1  0
 14 13  2  0
 16 17  1  0
 16 15  1  6
 18 19  1  1
 18 16  1  0
 20 21  2  0
 20 18  1  0
 23 22  1  6
 23 25  1  0
 24 23  1  0
 25 26  1  6
 25 27  1  0
 26 20  1  0
 27 28  2  0
 27 29  1  0
M  END
$$$$
