WTT.pdb
     RDKit          3D

 29 30  0  0  1  0  0  0  0  0999 V2000
   21.2556  -11.0910  -17.2404 N   0  0  0  0  0  0  0  0  0  0  0  0
   21.4646   -9.7043  -17.5361 C   0  0  1  0  0  0  0  0  0  0  0  0
   21.3286   -9.4856  -19.0223 C   0  0  0  0  0  0  0  0  0  0  0  0
   22.3708  -10.2669  -19.7270 C   0  0  0  0  0  0  0  0  0  0  0  0
   23.6711  -10.4524  -19.2677 C   0  0  0  0  0  0  0  0  0  0  0  0
   24.3564  -11.1982  -20.1251 N   0  0  0  0  0  0  0  0  0  0  0  0
   23.5426  -11.5191  -21.1540 C   0  0  0  0  0  0  0  0  0  0  0  0
   23.7434  -12.2690  -22.3058 C   0  0  0  0  0  0  0  0  0  0  0  0
   22.7253  -12.4577  -23.2313 C   0  0  0  0  0  0  0  0  0  0  0  0
   21.4954  -11.8734  -22.9722 C   0  0  0  0  0  0  0  0  0  0  0  0
   21.2792  -11.1166  -21.8179 C   0  0  0  0  0  0  0  0  0  0  0  0
   22.2951  -10.9444  -20.9216 C   0  0  0  0  0  0  0  0  0  0  0  0
   20.5774   -8.8064  -16.7566 C   0  0  0  0  0  0  0  0  0  0  0  0
   19.3396   -9.0145  -16.6659 O   0  0  0  0  0  0  0  0  0  0  0  0
   20.5462   -8.3705  -13.2235 C   0  0  0  0  0  0  0  0  0  0  0  0
   20.5396   -6.9698  -13.7487 C   0  0  1  0  0  0  0  0  0  0  0  0
   21.8666   -6.4882  -13.6209 O   0  0  0  0  0  0  0  0  0  0  0  0
   20.2094   -6.8753  -15.2152 C   0  0  2  0  0  0  0  0  0  0  0  0
   21.0405   -7.6612  -16.0621 N   0  0  0  0  0  0  0  0  0  0  0  0
   20.1111   -5.4504  -15.6589 C   0  0  0  0  0  0  0  0  0  0  0  0
   21.0994   -4.8715  -16.1819 O   0  0  0  0  0  0  0  0  0  0  0  0
   18.1618   -3.7941  -18.3047 C   0  0  0  0  0  0  0  0  0  0  0  0
   17.8054   -3.1087  -17.0220 C   0  0  1  0  0  0  0  0  0  0  0  0
   16.5619   -3.5817  -16.6033 O   0  0  0  0  0  0  0  0  0  0  0  0
   18.8612   -3.3239  -15.9489 C   0  0  2  0  0  0  0  0  0  0  0  0
   18.9196   -4.6875  -15.5173 N   0  0  0  0  0  0  0  0  0  0  0  0
   18.7044   -2.3611  -14.8501 C   0  0  0  0  0  0  0  0  0  0  0  0
   18.4970   -2.7271  -13.6746 O   0  0  0  0  0  0  0  0  0  0  0  0
   18.7878   -1.0116  -15.1194 O   0  0  0  0  0  0  0  0  0  0  0  0
  2 13  1  0
  2  1  1  6
  3  2  1  0
  3  4  1  0
  4  5  2  0
  4 12  1  0
  5  6  1  0
  6  7  1  0
  7  8  2  0
  8  9  1  0
 10  9  2  0
 11 10  1  0
 12 11  2  0
 12  7  1  0
 13 19  1  0
 14 13  2  0
 16 17  1  0
 16 15  1  6
 18 19  1  6
 18 16  1  0
 20 21  2  0
 20 18  1  0
 23 22  1  6
 23 25  1  0
 24 23  1  0
 25 26  1  1
 25 27  1  0
 26 20  1  0
 27 28  2  0
 27 29  1  0
M  END
$$$$
