WTT.pdb
     RDKit          3D

 29 30  0  0  1  0  0  0  0  0999 V2000
   27.3615  -22.5573  -13.1536 N   0  0  0  0  0  0  0  0  0  0  0  0
   26.4397  -21.5806  -12.6532 C   0  0  1  0  0  0  0  0  0  0  0  0
   27.1830  -20.3042  -12.3477 C   0  0  0  0  0  0  0  0  0  0  0  0
   27.9656  -20.4821  -11.1031 C   0  0  0  0  0  0  0  0  0  0  0  0
   29.3312  -20.7443  -11.0540 C   0  0  0  0  0  0  0  0  0  0  0  0
   29.7311  -20.8497   -9.7930 N   0  0  0  0  0  0  0  0  0  0  0  0
   28.6607  -20.6636   -8.9908 C   0  0  0  0  0  0  0  0  0  0  0  0
   28.5160  -20.6673   -7.6094 C   0  0  0  0  0  0  0  0  0  0  0  0
   27.2822  -20.4449   -7.0120 C   0  0  0  0  0  0  0  0  0  0  0  0
   26.1923  -20.2176   -7.8375 C   0  0  0  0  0  0  0  0  0  0  0  0
   26.3231  -20.2110   -9.2284 C   0  0  0  0  0  0  0  0  0  0  0  0
   27.5463  -20.4321   -9.7941 C   0  0  0  0  0  0  0  0  0  0  0  0
   25.2890  -21.3525  -13.5613 C   0  0  0  0  0  0  0  0  0  0  0  0
   25.4312  -21.3036  -14.8107 O   0  0  0  0  0  0  0  0  0  0  0  0
   22.6979  -23.5730  -14.3277 C   0  0  0  0  0  0  0  0  0  0  0  0
   21.9629  -22.3110  -14.0036 C   0  0  1  0  0  0  0  0  0  0  0  0
   21.4784  -22.4588  -12.6796 O   0  0  0  0  0  0  0  0  0  0  0  0
   22.8412  -21.0875  -13.9838 C   0  0  2  0  0  0  0  0  0  0  0  0
   23.9587  -21.1739  -13.1067 N   0  0  0  0  0  0  0  0  0  0  0  0
   22.0359  -19.8444  -13.7769 C   0  0  0  0  0  0  0  0  0  0  0  0
   22.0101  -19.2759  -12.6537 O   0  0  0  0  0  0  0  0  0  0  0  0
   19.5688  -18.0272  -16.9008 C   0  0  0  0  0  0  0  0  0  0  0  0
   20.3303  -17.2490  -15.8729 C   0  0  1  0  0  0  0  0  0  0  0  0
   19.6416  -16.0622  -15.6229 O   0  0  0  0  0  0  0  0  0  0  0  0
   20.5325  -18.0432  -14.5919 C   0  0  2  0  0  0  0  0  0  0  0  0
   21.2711  -19.2486  -14.8170 N   0  0  0  0  0  0  0  0  0  0  0  0
   19.2584  -18.2516  -13.8905 C   0  0  0  0  0  0  0  0  0  0  0  0
   18.8034  -19.3932  -13.6706 O   0  0  0  0  0  0  0  0  0  0  0  0
   18.5392  -17.1570  -13.4598 O   0  0  0  0  0  0  0  0  0  0  0  0
  2 13  1  0
  2  1  1  6
  3  2  1  0
  3  4  1  0
  4  5  2  0
  4 12  1  0
  5  6  1  0
  6  7  1  0
  7  8  2  0
  8  9  1  0
 10  9  2  0
 11 10  1  0
 12 11  2  0
 12  7  1  0
 13 19  1  0
 14 13  2  0
 16 17  1  0
 16 15  1  1
 18 19  1  1
 18 16  1  0
 20 21  2  0
 20 18  1  0
 23 22  1  6
 23 25  1  0
 24 23  1  0
 25 26  1  6
 25 27  1  0
 26 20  1  0
 27 28  2  0
 27 29  1  0
M  END
$$$$
