WTT.pdb
     RDKit          3D

 29 30  0  0  1  0  0  0  0  0999 V2000
   22.9737  -18.7455  -17.2679 N   0  0  0  0  0  0  0  0  0  0  0  0
   21.8314  -17.9513  -16.9238 C   0  0  1  0  0  0  0  0  0  0  0  0
   21.1755  -17.4485  -18.1857 C   0  0  0  0  0  0  0  0  0  0  0  0
   22.1557  -16.6536  -18.9606 C   0  0  0  0  0  0  0  0  0  0  0  0
   23.1571  -17.1911  -19.7633 C   0  0  0  0  0  0  0  0  0  0  0  0
   23.8670  -16.2184  -20.3210 N   0  0  0  0  0  0  0  0  0  0  0  0
   23.3629  -15.0350  -19.9094 C   0  0  0  0  0  0  0  0  0  0  0  0
   23.7199  -13.7209  -20.1835 C   0  0  0  0  0  0  0  0  0  0  0  0
   23.0294  -12.6535  -19.6247 C   0  0  0  0  0  0  0  0  0  0  0  0
   21.9674  -12.9373  -18.7804 C   0  0  0  0  0  0  0  0  0  0  0  0
   21.5973  -14.2541  -18.4959 C   0  0  0  0  0  0  0  0  0  0  0  0
   22.2907  -15.2882  -19.0569 C   0  0  0  0  0  0  0  0  0  0  0  0
   20.8740  -18.6655  -16.0440 C   0  0  0  0  0  0  0  0  0  0  0  0
   20.7386  -19.9158  -16.0900 O   0  0  0  0  0  0  0  0  0  0  0  0
   20.5750  -18.5013  -12.2230 C   0  0  0  0  0  0  0  0  0  0  0  0
   19.2048  -18.3455  -12.8027 C   0  0  1  0  0  0  0  0  0  0  0  0
   18.8920  -16.9651  -12.7251 O   0  0  0  0  0  0  0  0  0  0  0  0
   19.1219  -18.7023  -14.2637 C   0  0  2  0  0  0  0  0  0  0  0  0
   20.0475  -18.0123  -15.0961 N   0  0  0  0  0  0  0  0  0  0  0  0
   17.7153  -18.6165  -14.7646 C   0  0  0  0  0  0  0  0  0  0  0  0
   17.3213  -17.6040  -15.4010 O   0  0  0  0  0  0  0  0  0  0  0  0
   15.4969  -21.4622  -16.5683 C   0  0  0  0  0  0  0  0  0  0  0  0
   14.8006  -20.8514  -15.3918 C   0  0  1  0  0  0  0  0  0  0  0  0
   14.8532  -21.7574  -14.3327 O   0  0  0  0  0  0  0  0  0  0  0  0
   15.4120  -19.5156  -14.9986 C   0  0  2  0  0  0  0  0  0  0  0  0
   16.7655  -19.6535  -14.5538 N   0  0  0  0  0  0  0  0  0  0  0  0
   14.5484  -18.7949  -14.0533 C   0  0  0  0  0  0  0  0  0  0  0  0
   14.9444  -18.4626  -12.9169 O   0  0  0  0  0  0  0  0  0  0  0  0
   13.2609  -18.4733  -14.4271 O   0  0  0  0  0  0  0  0  0  0  0  0
  2 13  1  0
  2  1  1  6
  3  2  1  0
  3  4  1  0
  4  5  2  0
  4 12  1  0
  5  6  1  0
  6  7  1  0
  7  8  2  0
  8  9  1  0
 10  9  2  0
 11 10  1  0
 12 11  2  0
 12  7  1  0
 13 19  1  0
 14 13  2  0
 16 17  1  0
 16 15  1  6
 18 19  1  6
 18 16  1  0
 20 21  2  0
 20 18  1  0
 23 22  1  6
 23 25  1  0
 24 23  1  0
 25 26  1  1
 25 27  1  0
 26 20  1  0
 27 28  2  0
 27 29  1  0
M  END
$$$$
