WTT.pdb
     RDKit          3D

 29 30  0  0  1  0  0  0  0  0999 V2000
   28.1096  -22.0059  -14.0491 N   0  0  0  0  0  0  0  0  0  0  0  0
   27.0206  -21.3403  -13.3972 C   0  0  1  0  0  0  0  0  0  0  0  0
   27.5125  -20.0439  -12.8035 C   0  0  0  0  0  0  0  0  0  0  0  0
   28.1611  -20.3198  -11.5010 C   0  0  0  0  0  0  0  0  0  0  0  0
   29.5309  -20.4755  -11.3129 C   0  0  0  0  0  0  0  0  0  0  0  0
   29.7924  -20.7126  -10.0337 N   0  0  0  0  0  0  0  0  0  0  0  0
   28.6244  -20.7196   -9.3556 C   0  0  0  0  0  0  0  0  0  0  0  0
   28.3239  -20.9157   -8.0137 C   0  0  0  0  0  0  0  0  0  0  0  0
   27.0144  -20.8732   -7.5534 C   0  0  0  0  0  0  0  0  0  0  0  0
   26.0091  -20.6282   -8.4756 C   0  0  0  0  0  0  0  0  0  0  0  0
   26.2968  -20.4291   -9.8282 C   0  0  0  0  0  0  0  0  0  0  0  0
   27.5921  -20.4753  -10.2585 C   0  0  0  0  0  0  0  0  0  0  0  0
   25.8504  -21.1382  -14.2864 C   0  0  0  0  0  0  0  0  0  0  0  0
   25.9861  -20.8769  -15.5100 O   0  0  0  0  0  0  0  0  0  0  0  0
   23.7551  -23.4620  -15.5817 C   0  0  0  0  0  0  0  0  0  0  0  0
   22.7695  -22.4537  -15.0819 C   0  0  1  0  0  0  0  0  0  0  0  0
   22.2398  -22.9760  -13.8752 O   0  0  0  0  0  0  0  0  0  0  0  0
   23.3898  -21.1305  -14.7176 C   0  0  2  0  0  0  0  0  0  0  0  0
   24.5076  -21.2208  -13.8412 N   0  0  0  0  0  0  0  0  0  0  0  0
   22.3568  -20.1590  -14.2422 C   0  0  0  0  0  0  0  0  0  0  0  0
   22.2114  -19.9270  -13.0132 O   0  0  0  0  0  0  0  0  0  0  0  0
   21.6222  -16.4876  -15.7220 C   0  0  0  0  0  0  0  0  0  0  0  0
   20.3890  -17.3312  -15.6232 C   0  0  1  0  0  0  0  0  0  0  0  0
   20.0716  -17.7943  -16.8999 O   0  0  0  0  0  0  0  0  0  0  0  0
   20.5662  -18.4872  -14.6513 C   0  0  2  0  0  0  0  0  0  0  0  0
   21.5000  -19.4584  -15.1349 N   0  0  0  0  0  0  0  0  0  0  0  0
   19.2687  -19.0560  -14.2615 C   0  0  0  0  0  0  0  0  0  0  0  0
   18.9615  -20.2388  -14.5169 O   0  0  0  0  0  0  0  0  0  0  0  0
   18.3591  -18.2641  -13.5935 O   0  0  0  0  0  0  0  0  0  0  0  0
  2 13  1  0
  2  1  1  6
  3  2  1  0
  3  4  1  0
  4  5  2  0
  4 12  1  0
  5  6  1  0
  6  7  1  0
  7  8  2  0
  8  9  1  0
 10  9  2  0
 11 10  1  0
 12 11  2  0
 12  7  1  0
 13 19  1  0
 14 13  2  0
 16 17  1  0
 16 15  1  1
 18 19  1  1
 18 16  1  0
 20 21  2  0
 20 18  1  0
 23 22  1  6
 23 25  1  0
 24 23  1  0
 25 26  1  6
 25 27  1  0
 26 20  1  0
 27 28  2  0
 27 29  1  0
M  END
$$$$
