WTT.pdb
     RDKit          3D

 29 30  0  0  1  0  0  0  0  0999 V2000
   28.0280  -22.1997  -13.9910 N   0  0  0  0  0  0  0  0  0  0  0  0
   26.8925  -21.7955  -13.2157 C   0  0  1  0  0  0  0  0  0  0  0  0
   27.1408  -20.4204  -12.6476 C   0  0  0  0  0  0  0  0  0  0  0  0
   27.9705  -20.5403  -11.4268 C   0  0  0  0  0  0  0  0  0  0  0  0
   29.3605  -20.6032  -11.4141 C   0  0  0  0  0  0  0  0  0  0  0  0
   29.8016  -20.7078  -10.1668 N   0  0  0  0  0  0  0  0  0  0  0  0
   28.7351  -20.7166   -9.3383 C   0  0  0  0  0  0  0  0  0  0  0  0
   28.6257  -20.8053   -7.9565 C   0  0  0  0  0  0  0  0  0  0  0  0
   27.3875  -20.7925   -7.3278 C   0  0  0  0  0  0  0  0  0  0  0  0
   26.2566  -20.6880   -8.1223 C   0  0  0  0  0  0  0  0  0  0  0  0
   26.3516  -20.5980   -9.5133 C   0  0  0  0  0  0  0  0  0  0  0  0
   27.5800  -20.6125  -10.1100 C   0  0  0  0  0  0  0  0  0  0  0  0
   25.6197  -21.8640  -13.9748 C   0  0  0  0  0  0  0  0  0  0  0  0
   25.5131  -21.3841  -15.1333 O   0  0  0  0  0  0  0  0  0  0  0  0
   21.4111  -24.1109  -15.0496 C   0  0  0  0  0  0  0  0  0  0  0  0
   22.6835  -23.9977  -14.2713 C   0  0  1  0  0  0  0  0  0  0  0  0
   23.6441  -24.7817  -14.9584 O   0  0  0  0  0  0  0  0  0  0  0  0
   23.2469  -22.6014  -14.2327 C   0  0  2  0  0  0  0  0  0  0  0  0
   24.4398  -22.4641  -13.4687 N   0  0  0  0  0  0  0  0  0  0  0  0
   22.1987  -21.6032  -13.8562 C   0  0  0  0  0  0  0  0  0  0  0  0
   21.9212  -21.3892  -12.6469 O   0  0  0  0  0  0  0  0  0  0  0  0
   21.6365  -17.8458  -14.5641 C   0  0  0  0  0  0  0  0  0  0  0  0
   20.4753  -18.6349  -15.0846 C   0  0  1  0  0  0  0  0  0  0  0  0
   20.6020  -18.7392  -16.4697 O   0  0  0  0  0  0  0  0  0  0  0  0
   20.3856  -20.0091  -14.4395 C   0  0  2  0  0  0  0  0  0  0  0  0
   21.4732  -20.8563  -14.8246 N   0  0  0  0  0  0  0  0  0  0  0  0
   19.0621  -20.6101  -14.6537 C   0  0  0  0  0  0  0  0  0  0  0  0
   18.9083  -21.6460  -15.3334 O   0  0  0  0  0  0  0  0  0  0  0  0
   17.9530  -20.0165  -14.0895 O   0  0  0  0  0  0  0  0  0  0  0  0
  2 13  1  0
  2  1  1  6
  3  2  1  0
  3  4  1  0
  4  5  2  0
  4 12  1  0
  5  6  1  0
  6  7  1  0
  7  8  2  0
  8  9  1  0
 10  9  2  0
 11 10  1  0
 12 11  2  0
 12  7  1  0
 13 19  1  0
 14 13  2  0
 16 17  1  0
 16 15  1  6
 18 19  1  1
 18 16  1  0
 20 21  2  0
 20 18  1  0
 23 22  1  1
 23 25  1  0
 24 23  1  0
 25 26  1  6
 25 27  1  0
 26 20  1  0
 27 28  2  0
 27 29  1  0
M  END
$$$$
