WTT.pdb
     RDKit          3D

 29 30  0  0  1  0  0  0  0  0999 V2000
   28.1192  -20.7995   -9.1358 N   0  0  0  0  0  0  0  0  0  0  0  0
   26.7124  -21.0728   -9.1529 C   0  0  1  0  0  0  0  0  0  0  0  0
   26.0809  -20.5142   -7.9022 C   0  0  0  0  0  0  0  0  0  0  0  0
   27.0811  -19.7016   -7.1726 C   0  0  0  0  0  0  0  0  0  0  0  0
   27.5228  -18.4427   -7.5679 C   0  0  0  0  0  0  0  0  0  0  0  0
   28.4179  -17.9806   -6.7040 N   0  0  0  0  0  0  0  0  0  0  0  0
   28.5882  -18.9043   -5.7336 C   0  0  0  0  0  0  0  0  0  0  0  0
   29.3929  -18.9336   -4.6019 C   0  0  0  0  0  0  0  0  0  0  0  0
   29.3879  -20.0227   -3.7403 C   0  0  0  0  0  0  0  0  0  0  0  0
   28.5524  -21.0865   -4.0427 C   0  0  0  0  0  0  0  0  0  0  0  0
   27.7376  -21.0706   -5.1775 C   0  0  0  0  0  0  0  0  0  0  0  0
   27.7589  -19.9888   -6.0108 C   0  0  0  0  0  0  0  0  0  0  0  0
   26.0428  -20.5828  -10.3827 C   0  0  0  0  0  0  0  0  0  0  0  0
   25.9654  -19.3555  -10.6501 O   0  0  0  0  0  0  0  0  0  0  0  0
   27.1059  -21.0673  -13.7543 C   0  0  0  0  0  0  0  0  0  0  0  0
   25.6475  -21.3977  -13.7983 C   0  0  1  0  0  0  0  0  0  0  0  0
   25.5585  -22.8119  -13.8339 O   0  0  0  0  0  0  0  0  0  0  0  0
   24.8933  -20.9711  -12.5663 C   0  0  2  0  0  0  0  0  0  0  0  0
   25.4457  -21.4391  -11.3411 N   0  0  0  0  0  0  0  0  0  0  0  0
   23.4327  -21.2662  -12.6945 C   0  0  0  0  0  0  0  0  0  0  0  0
   22.8099  -21.8408  -11.7632 O   0  0  0  0  0  0  0  0  0  0  0  0
   21.2651  -20.6042  -11.3932 C   0  0  0  0  0  0  0  0  0  0  0  0
   20.6245  -20.2589  -12.7019 C   0  0  1  0  0  0  0  0  0  0  0  0
   20.7251  -18.8804  -12.8887 O   0  0  0  0  0  0  0  0  0  0  0  0
   21.2547  -21.0146  -13.8613 C   0  0  2  0  0  0  0  0  0  0  0  0
   22.6830  -20.9203  -13.8522 N   0  0  0  0  0  0  0  0  0  0  0  0
   20.6438  -20.6283  -15.1406 C   0  0  0  0  0  0  0  0  0  0  0  0
   21.2794  -20.0041  -16.0152 O   0  0  0  0  0  0  0  0  0  0  0  0
   19.3294  -20.9627  -15.3879 O   0  0  0  0  0  0  0  0  0  0  0  0
  2 13  1  0
  2  1  1  6
  3  2  1  0
  3  4  1  0
  4  5  2  0
  4 12  1  0
  5  6  1  0
  6  7  1  0
  7  8  2  0
  8  9  1  0
 10  9  2  0
 11 10  1  0
 12 11  2  0
 12  7  1  0
 13 19  1  0
 14 13  2  0
 16 17  1  0
 16 15  1  1
 18 19  1  1
 18 16  1  0
 20 21  2  0
 20 18  1  0
 23 22  1  1
 23 25  1  0
 24 23  1  0
 25 26  1  6
 25 27  1  0
 26 20  1  0
 27 28  2  0
 27 29  1  0
M  END
$$$$
