YQD.pdb
     RDKit          3D

 30 30  0  0  1  0  0  0  0  0999 V2000
   21.2910  -13.6757  -21.1427 O   0  0  0  0  0  0  0  0  0  0  0  0
   21.5231  -14.7505  -20.2859 C   0  0  0  0  0  0  0  0  0  0  0  0
   20.5132  -15.6305  -20.0052 C   0  0  0  0  0  0  0  0  0  0  0  0
   20.7117  -16.7141  -19.1542 C   0  0  0  0  0  0  0  0  0  0  0  0
   21.9490  -16.9387  -18.5583 C   0  0  0  0  0  0  0  0  0  0  0  0
   22.2010  -18.0823  -17.6456 C   0  0  0  0  0  0  0  0  0  0  0  0
   22.8723  -19.1941  -18.3659 C   0  0  2  0  0  0  0  0  0  0  0  0
   21.9578  -19.7869  -19.3081 N   0  0  0  0  0  0  0  0  0  0  0  0
   23.5069  -20.1927  -17.4877 C   0  0  0  0  0  0  0  0  0  0  0  0
   22.7874  -21.2047  -17.1749 O   0  0  0  0  0  0  0  0  0  0  0  0
   22.9549  -16.0205  -18.8678 C   0  0  0  0  0  0  0  0  0  0  0  0
   22.7643  -14.9547  -19.7036 C   0  0  0  0  0  0  0  0  0  0  0  0
   29.4381  -21.4826  -17.2055 N   0  0  0  0  0  0  0  0  0  0  0  0
   29.0785  -22.3257  -16.1311 C   0  0  0  0  0  0  0  0  0  0  0  0
   29.9364  -23.0740  -15.6312 O   0  0  0  0  0  0  0  0  0  0  0  0
   27.6488  -22.2476  -15.6677 C   0  0  0  0  0  0  0  0  0  0  0  0
   26.8731  -21.2731  -16.4749 C   0  0  0  0  0  0  0  0  0  0  0  0
   25.4261  -21.1384  -16.1051 C   0  0  2  0  0  0  0  0  0  0  0  0
   24.8055  -20.1429  -16.9669 N   0  0  0  0  0  0  0  0  0  0  0  0
   25.2750  -20.8309  -14.6890 C   0  0  0  0  0  0  0  0  0  0  0  0
   25.5287  -19.6717  -14.3065 O   0  0  0  0  0  0  0  0  0  0  0  0
   24.8574  -21.7601  -13.6985 N   0  0  0  0  0  0  0  0  0  0  0  0
   24.7226  -21.3696  -12.2726 C   0  0  1  0  0  0  0  0  0  0  0  0
   23.2785  -21.3212  -11.8931 C   0  0  0  0  0  0  0  0  0  0  0  0
   22.9668  -20.6630  -10.6205 C   0  0  0  0  0  0  0  0  0  0  0  0
   23.8710  -20.2527   -9.8526 O   0  0  0  0  0  0  0  0  0  0  0  0
   25.4738  -22.3299  -11.4540 C   0  0  0  0  0  0  0  0  0  0  0  0
   26.2075  -22.0073  -10.3380 O   0  0  0  0  0  0  0  0  0  0  0  0
   21.6576  -20.4799  -10.2330 O   0  0  0  0  0  0  0  0  0  0  0  0
   25.4612  -23.5502  -11.7797 O   0  0  0  0  0  0  0  0  0  0  0  0
  2 12  2  0
  2  1  1  0
  3  2  1  0
  4  5  1  0
  4  3  2  0
  5 11  2  0
  6  5  1  0
  7  6  1  0
  7  8  1  1
  9 19  1  0
  9  7  1  0
 10  9  2  0
 11 12  1  0
 14 13  1  0
 14 15  2  0
 16 14  1  0
 17 16  1  0
 18 17  1  6
 18 19  1  0
 20 18  1  0
 20 21  2  0
 22 23  1  0
 22 20  1  0
 23 24  1  1
 25 24  1  0
 25 29  1  0
 26 25  2  0
 27 23  1  0
 28 27  1  0
 30 27  2  0
M  END
$$$$
