YQD.pdb
     RDKit          3D

 30 30  0  0  1  0  0  0  0  0999 V2000
   29.9768  -15.0685  -16.9996 O   0  0  0  0  0  0  0  0  0  0  0  0
   28.9951  -14.0795  -17.0280 C   0  0  0  0  0  0  0  0  0  0  0  0
   28.9251  -13.2169  -18.0884 C   0  0  0  0  0  0  0  0  0  0  0  0
   27.9571  -12.2184  -18.1480 C   0  0  0  0  0  0  0  0  0  0  0  0
   27.0248  -12.0639  -17.1267 C   0  0  0  0  0  0  0  0  0  0  0  0
   25.9770  -11.0123  -17.1530 C   0  0  0  0  0  0  0  0  0  0  0  0
   24.6458  -11.6012  -17.4474 C   0  0  2  0  0  0  0  0  0  0  0  0
   24.6995  -12.3311  -18.6883 N   0  0  0  0  0  0  0  0  0  0  0  0
   23.5314  -10.6380  -17.4047 C   0  0  0  0  0  0  0  0  0  0  0  0
   23.1439  -10.1760  -18.5343 O   0  0  0  0  0  0  0  0  0  0  0  0
   27.1268  -12.9615  -16.0615 C   0  0  0  0  0  0  0  0  0  0  0  0
   28.0762  -13.9441  -15.9990 C   0  0  0  0  0  0  0  0  0  0  0  0
   18.5244  -11.4842  -14.5870 N   0  0  0  0  0  0  0  0  0  0  0  0
   18.1932  -10.1428  -14.8789 C   0  0  0  0  0  0  0  0  0  0  0  0
   17.0337   -9.7437  -14.6735 O   0  0  0  0  0  0  0  0  0  0  0  0
   19.2997   -9.2841  -15.4295 C   0  0  0  0  0  0  0  0  0  0  0  0
   20.5562  -10.0586  -15.5853 C   0  0  0  0  0  0  0  0  0  0  0  0
   21.6892   -9.3228  -16.2362 C   0  0  2  0  0  0  0  0  0  0  0  0
   22.8629  -10.1833  -16.2618 N   0  0  0  0  0  0  0  0  0  0  0  0
   21.9371   -8.0507  -15.5707 C   0  0  0  0  0  0  0  0  0  0  0  0
   22.5747   -8.0596  -14.4994 O   0  0  0  0  0  0  0  0  0  0  0  0
   21.5030   -6.7864  -16.0525 N   0  0  0  0  0  0  0  0  0  0  0  0
   21.7463   -5.5370  -15.2884 C   0  0  1  0  0  0  0  0  0  0  0  0
   21.5165   -4.3509  -16.1673 C   0  0  0  0  0  0  0  0  0  0  0  0
   21.7392   -3.0385  -15.5522 C   0  0  0  0  0  0  0  0  0  0  0  0
   22.0414   -2.9226  -14.3394 O   0  0  0  0  0  0  0  0  0  0  0  0
   20.8642   -5.5300  -14.1144 C   0  0  0  0  0  0  0  0  0  0  0  0
   19.9219   -6.4895  -13.8330 O   0  0  0  0  0  0  0  0  0  0  0  0
   21.6179   -1.8886  -16.3009 O   0  0  0  0  0  0  0  0  0  0  0  0
   20.9586   -4.5810  -13.2862 O   0  0  0  0  0  0  0  0  0  0  0  0
  2 12  2  0
  2  1  1  0
  3  2  1  0
  4  5  1  0
  4  3  2  0
  5 11  2  0
  6  5  1  0
  7  6  1  0
  7  8  1  6
  9 19  1  0
  9  7  1  0
 10  9  2  0
 11 12  1  0
 14 13  1  0
 14 15  2  0
 16 14  1  0
 17 16  1  0
 18 17  1  1
 18 19  1  0
 20 18  1  0
 20 21  2  0
 22 23  1  0
 22 20  1  0
 23 24  1  6
 25 24  1  0
 25 29  1  0
 26 25  2  0
 27 23  1  0
 28 27  1  0
 30 27  2  0
M  END
$$$$
