YQD.pdb
     RDKit          3D

 30 30  0  0  1  0  0  0  0  0999 V2000
   28.7765  -20.0093   -4.1790 O   0  0  0  0  0  0  0  0  0  0  0  0
   28.1063  -19.9791   -5.4009 C   0  0  0  0  0  0  0  0  0  0  0  0
   28.0698  -18.8222   -6.1314 C   0  0  0  0  0  0  0  0  0  0  0  0
   27.4096  -18.7582   -7.3552 C   0  0  0  0  0  0  0  0  0  0  0  0
   26.7620  -19.8734   -7.8780 C   0  0  0  0  0  0  0  0  0  0  0  0
   26.0474  -19.8461   -9.1792 C   0  0  0  0  0  0  0  0  0  0  0  0
   26.5618  -20.9038  -10.0859 C   0  0  2  0  0  0  0  0  0  0  0  0
   27.9817  -20.7418  -10.2676 N   0  0  0  0  0  0  0  0  0  0  0  0
   25.8365  -21.0156  -11.3636 C   0  0  0  0  0  0  0  0  0  0  0  0
   26.2428  -20.2540  -12.3094 O   0  0  0  0  0  0  0  0  0  0  0  0
   26.8202  -21.0353   -7.1052 C   0  0  0  0  0  0  0  0  0  0  0  0
   27.4680  -21.1027   -5.9025 C   0  0  0  0  0  0  0  0  0  0  0  0
   25.7868  -25.0670  -14.7691 N   0  0  0  0  0  0  0  0  0  0  0  0
   24.6192  -24.6673  -15.4556 C   0  0  0  0  0  0  0  0  0  0  0  0
   24.4305  -25.0652  -16.6184 O   0  0  0  0  0  0  0  0  0  0  0  0
   23.6746  -23.7686  -14.7039 C   0  0  0  0  0  0  0  0  0  0  0  0
   24.1861  -23.4660  -13.3439 C   0  0  0  0  0  0  0  0  0  0  0  0
   24.1005  -22.0274  -12.9295 C   0  0  2  0  0  0  0  0  0  0  0  0
   24.7576  -21.8636  -11.6410 N   0  0  0  0  0  0  0  0  0  0  0  0
   22.7181  -21.5676  -12.9198 C   0  0  0  0  0  0  0  0  0  0  0  0
   22.0362  -21.7695  -11.8957 O   0  0  0  0  0  0  0  0  0  0  0  0
   22.0788  -20.9004  -13.9992 N   0  0  0  0  0  0  0  0  0  0  0  0
   20.6622  -20.4645  -13.9153 C   0  0  1  0  0  0  0  0  0  0  0  0
   20.2895  -19.7072  -15.1480 C   0  0  0  0  0  0  0  0  0  0  0  0
   19.2320  -18.7032  -14.9943 C   0  0  0  0  0  0  0  0  0  0  0  0
   18.8340  -18.0124  -15.9638 O   0  0  0  0  0  0  0  0  0  0  0  0
   19.8201  -21.6524  -13.7247 C   0  0  0  0  0  0  0  0  0  0  0  0
   18.7767  -21.7422  -12.8353 O   0  0  0  0  0  0  0  0  0  0  0  0
   18.6456  -18.4913  -13.7659 O   0  0  0  0  0  0  0  0  0  0  0  0
   20.0524  -22.6824  -14.4179 O   0  0  0  0  0  0  0  0  0  0  0  0
  2 12  2  0
  2  1  1  0
  3  2  1  0
  4  5  1  0
  4  3  2  0
  5 11  2  0
  6  5  1  0
  7  6  1  0
  7  8  1  6
  9 19  1  0
  9  7  1  0
 10  9  2  0
 11 12  1  0
 14 13  1  0
 14 15  2  0
 16 14  1  0
 17 16  1  0
 18 17  1  1
 18 19  1  0
 20 18  1  0
 20 21  2  0
 22 23  1  0
 22 20  1  0
 23 24  1  6
 25 24  1  0
 25 29  1  0
 26 25  2  0
 27 23  1  0
 28 27  1  0
 30 27  2  0
M  END
$$$$
