YQD.pdb
     RDKit          3D

 30 30  0  0  1  0  0  0  0  0999 V2000
   27.9898  -29.2839  -16.9658 O   0  0  0  0  0  0  0  0  0  0  0  0
   27.2752  -28.0911  -16.8676 C   0  0  0  0  0  0  0  0  0  0  0  0
   25.9172  -28.1204  -16.6996 C   0  0  0  0  0  0  0  0  0  0  0  0
   25.1739  -26.9478  -16.5978 C   0  0  0  0  0  0  0  0  0  0  0  0
   25.7903  -25.7020  -16.6640 C   0  0  0  0  0  0  0  0  0  0  0  0
   25.0334  -24.4290  -16.5593 C   0  0  0  0  0  0  0  0  0  0  0  0
   25.2493  -23.7943  -15.2341 C   0  0  2  0  0  0  0  0  0  0  0  0
   24.7274  -24.6451  -14.1954 N   0  0  0  0  0  0  0  0  0  0  0  0
   24.7541  -22.4100  -15.1345 C   0  0  0  0  0  0  0  0  0  0  0  0
   23.8430  -22.2003  -14.2596 O   0  0  0  0  0  0  0  0  0  0  0  0
   27.1763  -25.7113  -16.8358 C   0  0  0  0  0  0  0  0  0  0  0  0
   27.9105  -26.8610  -16.9360 C   0  0  0  0  0  0  0  0  0  0  0  0
   26.9414  -17.3784  -18.1727 N   0  0  0  0  0  0  0  0  0  0  0  0
   27.6593  -17.9628  -17.1062 C   0  0  0  0  0  0  0  0  0  0  0  0
   28.8735  -17.7232  -16.9862 O   0  0  0  0  0  0  0  0  0  0  0  0
   26.8753  -18.8511  -16.1782 C   0  0  0  0  0  0  0  0  0  0  0  0
   25.4904  -19.0567  -16.6709 C   0  0  0  0  0  0  0  0  0  0  0  0
   24.6378  -19.9635  -15.8346 C   0  0  2  0  0  0  0  0  0  0  0  0
   25.1776  -21.3139  -15.8956 N   0  0  0  0  0  0  0  0  0  0  0  0
   23.2420  -19.8952  -16.2465 C   0  0  0  0  0  0  0  0  0  0  0  0
   22.9330  -20.3556  -17.3631 O   0  0  0  0  0  0  0  0  0  0  0  0
   22.1936  -19.3374  -15.4662 N   0  0  0  0  0  0  0  0  0  0  0  0
   20.7669  -19.6205  -15.7634 C   0  0  1  0  0  0  0  0  0  0  0  0
   20.5204  -21.0933  -15.7161 C   0  0  0  0  0  0  0  0  0  0  0  0
   19.1385  -21.5246  -15.9492 C   0  0  0  0  0  0  0  0  0  0  0  0
   18.2031  -20.6973  -16.0765 O   0  0  0  0  0  0  0  0  0  0  0  0
   19.9365  -18.8931  -14.7950 C   0  0  0  0  0  0  0  0  0  0  0  0
   18.6645  -18.4342  -15.0380 O   0  0  0  0  0  0  0  0  0  0  0  0
   18.8316  -22.8649  -16.0324 O   0  0  0  0  0  0  0  0  0  0  0  0
   20.4041  -18.6585  -13.6453 O   0  0  0  0  0  0  0  0  0  0  0  0
  2 12  2  0
  2  1  1  0
  3  2  1  0
  4  5  1  0
  4  3  2  0
  5 11  2  0
  6  5  1  0
  7  6  1  0
  7  8  1  1
  9 19  1  0
  9  7  1  0
 10  9  2  0
 11 12  1  0
 14 13  1  0
 14 15  2  0
 16 14  1  0
 17 16  1  0
 18 17  1  6
 18 19  1  0
 20 18  1  0
 20 21  2  0
 22 23  1  0
 22 20  1  0
 23 24  1  1
 25 24  1  0
 25 29  1  0
 26 25  2  0
 27 23  1  0
 28 27  1  0
 30 27  2  0
M  END
$$$$
