YQD.pdb
     RDKit          3D

 30 30  0  0  1  0  0  0  0  0999 V2000
   17.4303  -25.1311   -9.0530 O   0  0  0  0  0  0  0  0  0  0  0  0
   18.1000  -24.4977  -10.0986 C   0  0  0  0  0  0  0  0  0  0  0  0
   19.4635  -24.5791  -10.1851 C   0  0  0  0  0  0  0  0  0  0  0  0
   20.1627  -23.9586  -11.2165 C   0  0  0  0  0  0  0  0  0  0  0  0
   19.4952  -23.2319  -12.1976 C   0  0  0  0  0  0  0  0  0  0  0  0
   20.2041  -22.5561  -13.3134 C   0  0  0  0  0  0  0  0  0  0  0  0
   20.8668  -21.3135  -12.8417 C   0  0  2  0  0  0  0  0  0  0  0  0
   19.8827  -20.4121  -12.2992 N   0  0  0  0  0  0  0  0  0  0  0  0
   21.7343  -20.6687  -13.8433 C   0  0  0  0  0  0  0  0  0  0  0  0
   21.3263  -19.5442  -14.3000 O   0  0  0  0  0  0  0  0  0  0  0  0
   18.1051  -23.1707  -12.0768 C   0  0  0  0  0  0  0  0  0  0  0  0
   17.4140  -23.7790  -11.0653 C   0  0  0  0  0  0  0  0  0  0  0  0
   27.5639  -22.3411  -15.1565 N   0  0  0  0  0  0  0  0  0  0  0  0
   27.4474  -21.3836  -16.1880 C   0  0  0  0  0  0  0  0  0  0  0  0
   28.4001  -21.2102  -16.9679 O   0  0  0  0  0  0  0  0  0  0  0  0
   26.1457  -20.6318  -16.2603 C   0  0  0  0  0  0  0  0  0  0  0  0
   25.1571  -21.1717  -15.2938 C   0  0  0  0  0  0  0  0  0  0  0  0
   23.8179  -20.4971  -15.2987 C   0  0  2  0  0  0  0  0  0  0  0  0
   22.9474  -21.1609  -14.3393 N   0  0  0  0  0  0  0  0  0  0  0  0
   23.2545  -20.4633  -16.6418 C   0  0  0  0  0  0  0  0  0  0  0  0
   22.7743  -21.5157  -17.1069 O   0  0  0  0  0  0  0  0  0  0  0  0
   23.2101  -19.3116  -17.4728 N   0  0  0  0  0  0  0  0  0  0  0  0
   22.6322  -19.3598  -18.8395 C   0  0  1  0  0  0  0  0  0  0  0  0
   22.4144  -17.9722  -19.3484 C   0  0  0  0  0  0  0  0  0  0  0  0
   21.4607  -17.1506  -18.5962 C   0  0  0  0  0  0  0  0  0  0  0  0
   20.8744  -17.5895  -17.5768 O   0  0  0  0  0  0  0  0  0  0  0  0
   23.5411  -20.1251  -19.7025 C   0  0  0  0  0  0  0  0  0  0  0  0
   24.9119  -20.0354  -19.6766 O   0  0  0  0  0  0  0  0  0  0  0  0
   21.1817  -15.8630  -18.9982 O   0  0  0  0  0  0  0  0  0  0  0  0
   23.0506  -20.9329  -20.5406 O   0  0  0  0  0  0  0  0  0  0  0  0
  2 12  2  0
  2  1  1  0
  3  2  1  0
  4  5  1  0
  4  3  2  0
  5 11  2  0
  6  5  1  0
  7  6  1  0
  7  8  1  6
  9 19  1  0
  9  7  1  0
 10  9  2  0
 11 12  1  0
 14 13  1  0
 14 15  2  0
 16 14  1  0
 17 16  1  0
 18 17  1  6
 18 19  1  0
 20 18  1  0
 20 21  2  0
 22 23  1  0
 22 20  1  0
 23 24  1  6
 25 24  1  0
 25 29  1  0
 26 25  2  0
 27 23  1  0
 28 27  1  0
 30 27  2  0
M  END
$$$$
