YQD.pdb
     RDKit          3D

 30 30  0  0  1  0  0  0  0  0999 V2000
   27.7948  -16.0901  -19.9476 O   0  0  0  0  0  0  0  0  0  0  0  0
   26.7252  -16.6916  -19.2865 C   0  0  0  0  0  0  0  0  0  0  0  0
   26.0590  -17.7337  -19.8725 C   0  0  0  0  0  0  0  0  0  0  0  0
   24.9871  -18.3566  -19.2394 C   0  0  0  0  0  0  0  0  0  0  0  0
   24.5559  -17.9379  -17.9844 C   0  0  0  0  0  0  0  0  0  0  0  0
   23.4176  -18.5759  -17.2762 C   0  0  0  0  0  0  0  0  0  0  0  0
   23.8881  -19.3054  -16.0712 C   0  0  2  0  0  0  0  0  0  0  0  0
   24.8298  -20.3255  -16.4559 N   0  0  0  0  0  0  0  0  0  0  0  0
   22.8079  -19.8258  -15.2146 C   0  0  0  0  0  0  0  0  0  0  0  0
   22.4664  -21.0432  -15.4174 O   0  0  0  0  0  0  0  0  0  0  0  0
   25.2591  -16.8724  -17.4178 C   0  0  0  0  0  0  0  0  0  0  0  0
   26.3129  -16.2578  -18.0362 C   0  0  0  0  0  0  0  0  0  0  0  0
   22.1586  -20.1075   -9.8896 N   0  0  0  0  0  0  0  0  0  0  0  0
   20.7465  -20.0915   -9.8961 C   0  0  0  0  0  0  0  0  0  0  0  0
   20.1272  -20.6471   -8.9721 O   0  0  0  0  0  0  0  0  0  0  0  0
   20.0898  -19.3852  -11.0515 C   0  0  0  0  0  0  0  0  0  0  0  0
   21.0934  -18.9312  -12.0463 C   0  0  0  0  0  0  0  0  0  0  0  0
   21.0703  -19.6543  -13.3598 C   0  0  2  0  0  0  0  0  0  0  0  0
   22.1256  -19.1263  -14.2121 N   0  0  0  0  0  0  0  0  0  0  0  0
   19.7533  -19.5737  -13.9776 C   0  0  0  0  0  0  0  0  0  0  0  0
   19.4101  -18.4933  -14.4965 O   0  0  0  0  0  0  0  0  0  0  0  0
   18.8186  -20.6423  -14.0346 N   0  0  0  0  0  0  0  0  0  0  0  0
   17.4730  -20.4681  -14.6371 C   0  0  1  0  0  0  0  0  0  0  0  0
   16.7327  -21.7655  -14.6112 C   0  0  0  0  0  0  0  0  0  0  0  0
   17.2350  -22.8136  -15.5051 C   0  0  0  0  0  0  0  0  0  0  0  0
   16.7486  -23.9708  -15.5016 O   0  0  0  0  0  0  0  0  0  0  0  0
   16.7642  -19.4163  -13.8969 C   0  0  0  0  0  0  0  0  0  0  0  0
   16.9088  -19.1661  -12.5536 O   0  0  0  0  0  0  0  0  0  0  0  0
   18.2669  -22.5490  -16.3784 O   0  0  0  0  0  0  0  0  0  0  0  0
   15.9547  -18.6725  -14.5189 O   0  0  0  0  0  0  0  0  0  0  0  0
  2 12  2  0
  2  1  1  0
  3  2  1  0
  4  5  1  0
  4  3  2  0
  5 11  2  0
  6  5  1  0
  7  6  1  0
  7  8  1  6
  9 19  1  0
  9  7  1  0
 10  9  2  0
 11 12  1  0
 14 13  1  0
 14 15  2  0
 16 14  1  0
 17 16  1  0
 18 17  1  1
 18 19  1  0
 20 18  1  0
 20 21  2  0
 22 23  1  0
 22 20  1  0
 23 24  1  1
 25 24  1  0
 25 29  1  0
 26 25  2  0
 27 23  1  0
 28 27  1  0
 30 27  2  0
M  END
$$$$
