YQD.pdb
     RDKit          3D

 30 30  0  0  1  0  0  0  0  0999 V2000
   29.2429  -23.7710  -17.2169 O   0  0  0  0  0  0  0  0  0  0  0  0
   28.2096  -23.2629  -16.4315 C   0  0  0  0  0  0  0  0  0  0  0  0
   28.0852  -21.9110  -16.2577 C   0  0  0  0  0  0  0  0  0  0  0  0
   27.0648  -21.3709  -15.4800 C   0  0  0  0  0  0  0  0  0  0  0  0
   26.1338  -22.1917  -14.8510 C   0  0  0  0  0  0  0  0  0  0  0  0
   25.0312  -21.6550  -14.0139 C   0  0  0  0  0  0  0  0  0  0  0  0
   23.7552  -21.6325  -14.7734 C   0  0  2  0  0  0  0  0  0  0  0  0
   23.8890  -20.7787  -15.9260 N   0  0  0  0  0  0  0  0  0  0  0  0
   22.5695  -21.3064  -13.9616 C   0  0  0  0  0  0  0  0  0  0  0  0
   22.2175  -20.0753  -13.9496 O   0  0  0  0  0  0  0  0  0  0  0  0
   26.2921  -23.5649  -15.0507 C   0  0  0  0  0  0  0  0  0  0  0  0
   27.2930  -24.0998  -15.8142 C   0  0  0  0  0  0  0  0  0  0  0  0
   19.3258  -20.9016  -16.3166 N   0  0  0  0  0  0  0  0  0  0  0  0
   19.2091  -19.8044  -15.4351 C   0  0  0  0  0  0  0  0  0  0  0  0
   18.9625  -18.6765  -15.8965 O   0  0  0  0  0  0  0  0  0  0  0  0
   19.3983  -20.0982  -13.9712 C   0  0  0  0  0  0  0  0  0  0  0  0
   19.5391  -21.5555  -13.7278 C   0  0  0  0  0  0  0  0  0  0  0  0
   20.4898  -21.9360  -12.6322 C   0  0  2  0  0  0  0  0  0  0  0  0
   21.7993  -22.2015  -13.2096 N   0  0  0  0  0  0  0  0  0  0  0  0
   19.9754  -23.0598  -11.8608 C   0  0  0  0  0  0  0  0  0  0  0  0
   19.9014  -24.1730  -12.4174 O   0  0  0  0  0  0  0  0  0  0  0  0
   19.5457  -22.9850  -10.5086 N   0  0  0  0  0  0  0  0  0  0  0  0
   19.0395  -24.1788   -9.7856 C   0  0  1  0  0  0  0  0  0  0  0  0
   19.0656  -23.9299   -8.3127 C   0  0  0  0  0  0  0  0  0  0  0  0
   18.7192  -25.0704   -7.4587 C   0  0  0  0  0  0  0  0  0  0  0  0
   18.4225  -26.1896   -7.9433 O   0  0  0  0  0  0  0  0  0  0  0  0
   17.6848  -24.4758  -10.2685 C   0  0  0  0  0  0  0  0  0  0  0  0
   17.1783  -25.7382  -10.4626 O   0  0  0  0  0  0  0  0  0  0  0  0
   18.7091  -24.9366   -6.0878 O   0  0  0  0  0  0  0  0  0  0  0  0
   16.9076  -23.5160  -10.5333 O   0  0  0  0  0  0  0  0  0  0  0  0
  2 12  2  0
  2  1  1  0
  3  2  1  0
  4  5  1  0
  4  3  2  0
  5 11  2  0
  6  5  1  0
  7  6  1  0
  7  8  1  6
  9 19  1  0
  9  7  1  0
 10  9  2  0
 11 12  1  0
 14 13  1  0
 14 15  2  0
 16 14  1  0
 17 16  1  0
 18 17  1  6
 18 19  1  0
 20 18  1  0
 20 21  2  0
 22 23  1  0
 22 20  1  0
 23 24  1  1
 25 24  1  0
 25 29  1  0
 26 25  2  0
 27 23  1  0
 28 27  1  0
 30 27  2  0
M  END
$$$$
