YQD.pdb
     RDKit          3D

 30 30  0  0  1  0  0  0  0  0999 V2000
   28.4602  -26.1756  -17.6668 O   0  0  0  0  0  0  0  0  0  0  0  0
   27.6332  -25.4128  -16.8440 C   0  0  0  0  0  0  0  0  0  0  0  0
   27.7741  -24.0519  -16.8070 C   0  0  0  0  0  0  0  0  0  0  0  0
   26.9645  -23.2611  -15.9965 C   0  0  0  0  0  0  0  0  0  0  0  0
   25.9812  -23.8310  -15.1938 C   0  0  0  0  0  0  0  0  0  0  0  0
   25.0977  -23.0225  -14.3162 C   0  0  0  0  0  0  0  0  0  0  0  0
   23.7621  -22.8375  -14.9387 C   0  0  2  0  0  0  0  0  0  0  0  0
   23.9070  -22.2022  -16.2235 N   0  0  0  0  0  0  0  0  0  0  0  0
   22.7786  -22.1568  -14.0781 C   0  0  0  0  0  0  0  0  0  0  0  0
   23.0856  -20.9720  -13.7016 O   0  0  0  0  0  0  0  0  0  0  0  0
   25.8666  -25.2215  -15.2575 C   0  0  0  0  0  0  0  0  0  0  0  0
   26.6597  -26.0023  -16.0525 C   0  0  0  0  0  0  0  0  0  0  0  0
   20.8446  -18.3301  -13.4824 N   0  0  0  0  0  0  0  0  0  0  0  0
   19.4749  -18.5580  -13.2249 C   0  0  0  0  0  0  0  0  0  0  0  0
   18.7753  -17.6289  -12.7852 O   0  0  0  0  0  0  0  0  0  0  0  0
   18.9610  -19.9433  -13.5109 C   0  0  0  0  0  0  0  0  0  0  0  0
   20.0472  -20.8320  -13.9941 C   0  0  0  0  0  0  0  0  0  0  0  0
   20.4633  -21.9149  -13.0439 C   0  0  2  0  0  0  0  0  0  0  0  0
   21.5550  -22.6739  -13.6362 N   0  0  0  0  0  0  0  0  0  0  0  0
   19.3289  -22.7521  -12.6765 C   0  0  0  0  0  0  0  0  0  0  0  0
   18.7012  -23.3280  -13.5868 O   0  0  0  0  0  0  0  0  0  0  0  0
   18.8764  -22.9650  -11.3465 N   0  0  0  0  0  0  0  0  0  0  0  0
   17.7872  -23.9258  -11.0394 C   0  0  1  0  0  0  0  0  0  0  0  0
   17.7302  -24.1759   -9.5676 C   0  0  0  0  0  0  0  0  0  0  0  0
   18.6265  -25.2166   -9.0541 C   0  0  0  0  0  0  0  0  0  0  0  0
   19.3644  -25.8856   -9.8180 O   0  0  0  0  0  0  0  0  0  0  0  0
   16.5250  -23.3784  -11.5529 C   0  0  0  0  0  0  0  0  0  0  0  0
   15.4790  -24.1297  -12.0317 O   0  0  0  0  0  0  0  0  0  0  0  0
   18.6777  -25.4885   -7.7047 O   0  0  0  0  0  0  0  0  0  0  0  0
   16.3644  -22.1256  -11.5668 O   0  0  0  0  0  0  0  0  0  0  0  0
  2 12  2  0
  2  1  1  0
  3  2  1  0
  4  5  1  0
  4  3  2  0
  5 11  2  0
  6  5  1  0
  7  6  1  0
  7  8  1  6
  9 19  1  0
  9  7  1  0
 10  9  2  0
 11 12  1  0
 14 13  1  0
 14 15  2  0
 16 14  1  0
 17 16  1  0
 18 17  1  6
 18 19  1  0
 20 18  1  0
 20 21  2  0
 22 23  1  0
 22 20  1  0
 23 24  1  1
 25 24  1  0
 25 29  1  0
 26 25  2  0
 27 23  1  0
 28 27  1  0
 30 27  2  0
M  END
$$$$
