YQD.pdb
     RDKit          3D

 30 30  0  0  1  0  0  0  0  0999 V2000
   18.7596  -19.1939  -17.1274 O   0  0  0  0  0  0  0  0  0  0  0  0
   19.2164  -17.8985  -16.8901 C   0  0  0  0  0  0  0  0  0  0  0  0
   20.5602  -17.6536  -16.8025 C   0  0  0  0  0  0  0  0  0  0  0  0
   21.0495  -16.3719  -16.5668 C   0  0  0  0  0  0  0  0  0  0  0  0
   20.1844  -15.2931  -16.4115 C   0  0  0  0  0  0  0  0  0  0  0  0
   20.6664  -13.9116  -16.1593 C   0  0  0  0  0  0  0  0  0  0  0  0
   20.8199  -13.1654  -17.4341 C   0  0  2  0  0  0  0  0  0  0  0  0
   21.8133  -13.8062  -18.2574 N   0  0  0  0  0  0  0  0  0  0  0  0
   21.0668  -11.7222  -17.2685 C   0  0  0  0  0  0  0  0  0  0  0  0
   22.2472  -11.3171  -17.5549 O   0  0  0  0  0  0  0  0  0  0  0  0
   18.8211  -15.5810  -16.5070 C   0  0  0  0  0  0  0  0  0  0  0  0
   18.3360  -16.8386  -16.7389 C   0  0  0  0  0  0  0  0  0  0  0  0
   21.8116   -8.0531  -20.4597 N   0  0  0  0  0  0  0  0  0  0  0  0
   21.7163   -7.0122  -19.5100 C   0  0  0  0  0  0  0  0  0  0  0  0
   22.0762   -5.8649  -19.8264 O   0  0  0  0  0  0  0  0  0  0  0  0
   21.1732   -7.3870  -18.1575 C   0  0  0  0  0  0  0  0  0  0  0  0
   20.8285   -8.8294  -18.0959 C   0  0  0  0  0  0  0  0  0  0  0  0
   20.3725   -9.3254  -16.7562 C   0  0  2  0  0  0  0  0  0  0  0  0
   20.1467  -10.7614  -16.8323 N   0  0  0  0  0  0  0  0  0  0  0  0
   19.1983   -8.5935  -16.3000 C   0  0  0  0  0  0  0  0  0  0  0  0
   18.1353   -8.7265  -16.9378 O   0  0  0  0  0  0  0  0  0  0  0  0
   19.1701   -7.7292  -15.1725 N   0  0  0  0  0  0  0  0  0  0  0  0
   17.9172   -7.0664  -14.7311 C   0  0  1  0  0  0  0  0  0  0  0  0
   17.5260   -7.5677  -13.3792 C   0  0  0  0  0  0  0  0  0  0  0  0
   16.2899   -7.0139  -12.8177 C   0  0  0  0  0  0  0  0  0  0  0  0
   15.5383   -6.2665  -13.4902 O   0  0  0  0  0  0  0  0  0  0  0  0
   18.1320   -5.6137  -14.7372 C   0  0  0  0  0  0  0  0  0  0  0  0
   17.1333   -4.6708  -14.6985 O   0  0  0  0  0  0  0  0  0  0  0  0
   15.9222   -7.3033  -11.5221 O   0  0  0  0  0  0  0  0  0  0  0  0
   19.3146   -5.1721  -14.7819 O   0  0  0  0  0  0  0  0  0  0  0  0
  2 12  2  0
  2  1  1  0
  3  2  1  0
  4  5  1  0
  4  3  2  0
  5 11  2  0
  6  5  1  0
  7  6  1  0
  7  8  1  1
  9 19  1  0
  9  7  1  0
 10  9  2  0
 11 12  1  0
 14 13  1  0
 14 15  2  0
 16 14  1  0
 17 16  1  0
 18 17  1  6
 18 19  1  0
 20 18  1  0
 20 21  2  0
 22 23  1  0
 22 20  1  0
 23 24  1  1
 25 24  1  0
 25 29  1  0
 26 25  2  0
 27 23  1  0
 28 27  1  0
 30 27  2  0
M  END
$$$$
