YQD.pdb
     RDKit          3D

 30 30  0  0  1  0  0  0  0  0999 V2000
   20.4990  -21.3010  -14.8086 O   0  0  0  0  0  0  0  0  0  0  0  0
   20.6992  -19.9961  -15.2560 C   0  0  0  0  0  0  0  0  0  0  0  0
   19.8396  -19.0029  -14.8717 C   0  0  0  0  0  0  0  0  0  0  0  0
   20.0112  -17.6896  -15.3003 C   0  0  0  0  0  0  0  0  0  0  0  0
   21.0670  -17.3424  -16.1375 C   0  0  0  0  0  0  0  0  0  0  0  0
   21.2846  -15.9539  -16.6161 C   0  0  0  0  0  0  0  0  0  0  0  0
   20.3609  -15.6301  -17.7331 C   0  0  2  0  0  0  0  0  0  0  0  0
   20.5952  -16.5278  -18.8351 N   0  0  0  0  0  0  0  0  0  0  0  0
   20.3742  -14.2148  -18.1428 C   0  0  0  0  0  0  0  0  0  0  0  0
   21.2990  -13.8748  -18.9606 O   0  0  0  0  0  0  0  0  0  0  0  0
   21.9232  -18.3816  -16.5087 C   0  0  0  0  0  0  0  0  0  0  0  0
   21.7585  -19.6731  -16.0898 C   0  0  0  0  0  0  0  0  0  0  0  0
   16.1403  -10.7797  -20.4225 N   0  0  0  0  0  0  0  0  0  0  0  0
   15.8192  -11.4254  -19.2082 C   0  0  0  0  0  0  0  0  0  0  0  0
   14.6276  -11.5213  -18.8664 O   0  0  0  0  0  0  0  0  0  0  0  0
   16.9761  -11.9580  -18.4064 C   0  0  0  0  0  0  0  0  0  0  0  0
   18.2747  -11.5843  -19.0203 C   0  0  0  0  0  0  0  0  0  0  0  0
   19.4836  -11.8283  -18.1673 C   0  0  2  0  0  0  0  0  0  0  0  0
   19.4843  -13.2164  -17.7291 N   0  0  0  0  0  0  0  0  0  0  0  0
   19.5386  -10.8865  -17.0570 C   0  0  0  0  0  0  0  0  0  0  0  0
   19.3501  -11.3219  -15.9041 O   0  0  0  0  0  0  0  0  0  0  0  0
   19.7921   -9.4945  -17.1874 N   0  0  0  0  0  0  0  0  0  0  0  0
   19.7996   -8.5911  -16.0094 C   0  0  1  0  0  0  0  0  0  0  0  0
   20.8261   -9.0482  -15.0249 C   0  0  0  0  0  0  0  0  0  0  0  0
   20.9744   -8.2278  -13.8186 C   0  0  0  0  0  0  0  0  0  0  0  0
   21.6445   -7.1664  -13.8225 O   0  0  0  0  0  0  0  0  0  0  0  0
   20.0558   -7.2219  -16.4745 C   0  0  0  0  0  0  0  0  0  0  0  0
   19.7030   -6.0814  -15.7944 O   0  0  0  0  0  0  0  0  0  0  0  0
   20.3758   -8.6098  -12.6382 O   0  0  0  0  0  0  0  0  0  0  0  0
   20.6424   -7.0531  -17.5803 O   0  0  0  0  0  0  0  0  0  0  0  0
  2 12  2  0
  2  1  1  0
  3  2  1  0
  4  5  1  0
  4  3  2  0
  5 11  2  0
  6  5  1  0
  7  6  1  0
  7  8  1  6
  9 19  1  0
  9  7  1  0
 10  9  2  0
 11 12  1  0
 14 13  1  0
 14 15  2  0
 16 14  1  0
 17 16  1  0
 18 17  1  1
 18 19  1  0
 20 18  1  0
 20 21  2  0
 22 23  1  0
 22 20  1  0
 23 24  1  1
 25 24  1  0
 25 29  1  0
 26 25  2  0
 27 23  1  0
 28 27  1  0
 30 27  2  0
M  END
$$$$
