LIG.pdb
     RDKit          3D

 21 20  0  0  1  0  0  0  0  0999 V2000
    4.7377  -19.8194   21.9279 C   0  0  0  0  0  0  0  0  0  0  0  0
    3.8233  -18.7008   22.4563 C   0  0  2  0  0  0  0  0  0  0  0  0
    2.6568  -18.5192   21.5107 C   0  0  0  0  0  0  0  0  0  0  0  0
    4.6049  -17.4267   22.6119 C   0  0  0  0  0  0  0  0  0  0  0  0
    5.7924  -17.6278   23.4737 C   0  0  2  0  0  0  0  0  0  0  0  0
    5.4699  -17.9778   24.8335 N   0  0  0  0  0  0  0  0  0  0  0  0
    6.6785  -16.4339   23.5306 C   0  0  0  0  0  0  0  0  0  0  0  0
    7.1329  -15.9426   22.4784 O   0  0  0  0  0  0  0  0  0  0  0  0
    5.6101  -12.6648   27.0206 C   0  0  0  0  0  0  0  0  0  0  0  0
    6.2111  -13.2759   25.7712 C   0  0  0  0  0  0  0  0  0  0  0  0
    7.4898  -13.9825   26.0707 C   0  0  2  0  0  0  0  0  0  0  0  0
    8.5191  -13.0641   26.6484 C   0  0  0  0  0  0  0  0  0  0  0  0
    8.0263  -14.8466   24.9586 C   0  0  2  0  0  0  0  0  0  0  0  0
    6.9881  -15.8801   24.7765 N   0  0  0  0  0  0  0  0  0  0  0  0
    9.2848  -15.5502   25.3007 C   0  0  0  0  0  0  0  0  0  0  0  0
    9.4099  -16.1268   26.4123 O   0  0  0  0  0  0  0  0  0  0  0  0
   10.4169  -15.6366   24.4426 N   0  0  0  0  0  0  0  0  0  0  0  0
   11.6236  -16.3370   24.8416 C   0  0  0  0  0  0  0  0  0  0  0  0
   12.6268  -16.3615   23.7526 C   0  0  0  0  0  0  0  0  0  0  0  0
   13.9734  -16.5889   23.9693 O   0  0  0  0  0  0  0  0  0  0  0  0
   12.2230  -16.1647   22.5784 O   0  0  0  0  0  0  0  0  0  0  0  0
  2  1  1  6
  3  2  1  0
  4  5  1  0
  4  2  1  0
  5  7  1  0
  5  6  1  1
  7 14  1  0
  7  8  2  0
  9 10  1  0
 10 11  1  0
 11 12  1  6
 13 15  1  0
 13 11  1  0
 13 14  1  1
 15 16  2  0
 17 18  1  0
 17 15  1  0
 19 18  1  0
 20 19  1  0
 21 19  2  0
M  END
$$$$
