LIG.pdb
     RDKit          3D

 21 20  0  0  1  0  0  0  0  0999 V2000
    6.1679  -19.7468   21.9461 C   0  0  0  0  0  0  0  0  0  0  0  0
    6.8118  -18.4815   21.3538 C   0  0  2  0  0  0  0  0  0  0  0  0
    7.8362  -18.8805   20.3149 C   0  0  0  0  0  0  0  0  0  0  0  0
    7.4334  -17.6593   22.4475 C   0  0  0  0  0  0  0  0  0  0  0  0
    7.4976  -16.2281   22.0721 C   0  0  2  0  0  0  0  0  0  0  0  0
    7.9902  -15.9997   20.7377 N   0  0  0  0  0  0  0  0  0  0  0  0
    8.3453  -15.4230   22.9923 C   0  0  0  0  0  0  0  0  0  0  0  0
    9.4681  -15.0271   22.6215 O   0  0  0  0  0  0  0  0  0  0  0  0
    5.5973  -12.0387   26.0089 C   0  0  0  0  0  0  0  0  0  0  0  0
    6.7564  -12.5957   25.2077 C   0  0  0  0  0  0  0  0  0  0  0  0
    7.5538  -13.5698   26.0075 C   0  0  2  0  0  0  0  0  0  0  0  0
    8.0553  -12.9737   27.2842 C   0  0  0  0  0  0  0  0  0  0  0  0
    8.6192  -14.3137   25.2440 C   0  0  2  0  0  0  0  0  0  0  0  0
    7.8612  -15.1226   24.2692 N   0  0  0  0  0  0  0  0  0  0  0  0
    9.4035  -15.2570   26.0752 C   0  0  0  0  0  0  0  0  0  0  0  0
   10.1576  -14.8270   26.9864 O   0  0  0  0  0  0  0  0  0  0  0  0
    9.3771  -16.6723   25.9281 N   0  0  0  0  0  0  0  0  0  0  0  0
   10.0509  -17.5486   26.8684 C   0  0  0  0  0  0  0  0  0  0  0  0
   11.2935  -18.1140   26.2946 C   0  0  0  0  0  0  0  0  0  0  0  0
   12.0122  -19.1292   26.8985 O   0  0  0  0  0  0  0  0  0  0  0  0
   11.7052  -17.6401   25.2054 O   0  0  0  0  0  0  0  0  0  0  0  0
  2  1  1  1
  3  2  1  0
  4  5  1  0
  4  2  1  0
  5  7  1  0
  5  6  1  6
  7 14  1  0
  7  8  2  0
  9 10  1  0
 10 11  1  0
 11 12  1  1
 13 15  1  0
 13 11  1  0
 13 14  1  6
 15 16  2  0
 17 18  1  0
 17 15  1  0
 19 18  1  0
 20 19  1  0
 21 19  2  0
M  END
$$$$
