LIG.pdb
     RDKit          3D

 21 20  0  0  1  0  0  0  0  0999 V2000
    7.1837  -19.3197   28.4865 C   0  0  0  0  0  0  0  0  0  0  0  0
    7.8045  -20.0294   27.2710 C   0  0  2  0  0  0  0  0  0  0  0  0
    9.1620  -20.5777   27.6509 C   0  0  0  0  0  0  0  0  0  0  0  0
    7.9038  -19.0765   26.1131 C   0  0  0  0  0  0  0  0  0  0  0  0
    6.6124  -18.3943   25.8676 C   0  0  2  0  0  0  0  0  0  0  0  0
    5.6303  -19.2266   25.2209 N   0  0  0  0  0  0  0  0  0  0  0  0
    6.7521  -17.1647   25.0417 C   0  0  0  0  0  0  0  0  0  0  0  0
    6.5630  -17.2146   23.8102 O   0  0  0  0  0  0  0  0  0  0  0  0
    5.4471  -12.4417   27.1803 C   0  0  0  0  0  0  0  0  0  0  0  0
    5.7061  -13.4464   26.0762 C   0  0  0  0  0  0  0  0  0  0  0  0
    7.1664  -13.6190   25.8276 C   0  0  2  0  0  0  0  0  0  0  0  0
    7.8283  -12.3341   25.4434 C   0  0  0  0  0  0  0  0  0  0  0  0
    7.5368  -14.7676   24.9248 C   0  0  2  0  0  0  0  0  0  0  0  0
    7.0964  -15.9637   25.6695 N   0  0  0  0  0  0  0  0  0  0  0  0
    8.9949  -14.9074   24.7008 C   0  0  0  0  0  0  0  0  0  0  0  0
    9.7925  -14.8958   25.6742 O   0  0  0  0  0  0  0  0  0  0  0  0
    9.6011  -15.0620   23.4225 N   0  0  0  0  0  0  0  0  0  0  0  0
   11.0347  -14.9309   23.2384 C   0  0  0  0  0  0  0  0  0  0  0  0
   11.7507  -16.1685   23.6238 C   0  0  0  0  0  0  0  0  0  0  0  0
   13.1263  -16.2965   23.5646 O   0  0  0  0  0  0  0  0  0  0  0  0
   11.0643  -17.1434   24.0224 O   0  0  0  0  0  0  0  0  0  0  0  0
  2  1  1  1
  3  2  1  0
  4  5  1  0
  4  2  1  0
  5  7  1  0
  5  6  1  6
  7 14  1  0
  7  8  2  0
  9 10  1  0
 10 11  1  0
 11 12  1  6
 13 15  1  0
 13 11  1  0
 13 14  1  1
 15 16  2  0
 17 18  1  0
 17 15  1  0
 19 18  1  0
 20 19  1  0
 21 19  2  0
M  END
$$$$
