WHK.pdb
     RDKit          3D

 34 36  0  0  1  0  0  0  0  0999 V2000
   25.6161  -23.5040  -14.4646 N   0  0  0  0  0  0  0  0  0  0  0  0
   25.4183  -22.4099  -13.5366 C   0  0  1  0  0  0  0  0  0  0  0  0
   26.3892  -21.3034  -13.6810 C   0  0  0  0  0  0  0  0  0  0  0  0
   26.9831  -20.7215  -12.4885 C   0  0  0  0  0  0  0  0  0  0  0  0
   28.0861  -19.8465  -12.5849 C   0  0  0  0  0  0  0  0  0  0  0  0
   28.4288  -19.4518  -11.3672 N   0  0  0  0  0  0  0  0  0  0  0  0
   27.6275  -20.0028  -10.4362 C   0  0  0  0  0  0  0  0  0  0  0  0
   27.5804  -19.9073   -9.0620 C   0  0  0  0  0  0  0  0  0  0  0  0
   26.6151  -20.6160   -8.3744 C   0  0  0  0  0  0  0  0  0  0  0  0
   25.7184  -21.4047   -9.0792 C   0  0  0  0  0  0  0  0  0  0  0  0
   25.7583  -21.5063  -10.4563 C   0  0  0  0  0  0  0  0  0  0  0  0
   26.7163  -20.8034  -11.1451 C   0  0  0  0  0  0  0  0  0  0  0  0
   24.0444  -21.8104  -13.8524 C   0  0  0  0  0  0  0  0  0  0  0  0
   23.6189  -21.9571  -15.0070 O   0  0  0  0  0  0  0  0  0  0  0  0
   23.2802  -21.1199  -12.8938 N   0  0  0  0  0  0  0  0  0  0  0  0
   21.9974  -20.5485  -13.1627 C   0  0  1  0  0  0  0  0  0  0  0  0
   21.1564  -20.3454  -11.9686 C   0  0  0  0  0  0  0  0  0  0  0  0
   19.8287  -19.7570  -12.1660 C   0  0  0  0  0  0  0  0  0  0  0  0
   19.3123  -18.5040  -12.0924 C   0  0  0  0  0  0  0  0  0  0  0  0
   18.0067  -18.5207  -12.4027 N   0  0  0  0  0  0  0  0  0  0  0  0
   17.6998  -19.7882  -12.6732 C   0  0  0  0  0  0  0  0  0  0  0  0
   18.7722  -20.5539  -12.5400 N   0  0  0  0  0  0  0  0  0  0  0  0
   22.1087  -19.2512  -13.9057 C   0  0  0  0  0  0  0  0  0  0  0  0
   22.9422  -18.4148  -13.5014 O   0  0  0  0  0  0  0  0  0  0  0  0
   21.3224  -18.9301  -15.0345 N   0  0  0  0  0  0  0  0  0  0  0  0
   21.5214  -17.6854  -15.8091 C   0  0  1  0  0  0  0  0  0  0  0  0
   22.3076  -17.9991  -17.0517 C   0  0  0  0  0  0  0  0  0  0  0  0
   22.5117  -16.7826  -17.8816 C   0  0  0  0  0  0  0  0  0  0  0  0
   23.3158  -17.0728  -19.1448 C   0  0  0  0  0  0  0  0  0  0  0  0
   24.7447  -16.6438  -18.9971 C   0  0  0  0  0  0  0  0  0  0  0  0
   25.4308  -16.7984  -20.2779 N   0  0  0  0  0  0  0  0  0  0  0  0
   20.1755  -17.2222  -16.1576 C   0  0  0  0  0  0  0  0  0  0  0  0
   19.8057  -15.9125  -16.0044 O   0  0  0  0  0  0  0  0  0  0  0  0
   19.3134  -18.0130  -16.6066 O   0  0  0  0  0  0  0  0  0  0  0  0
  2  1  1  6
  2  3  1  0
  4  5  2  0
  4  3  1  0
  6  5  1  0
  7 12  2  0
  7  6  1  0
  8  7  1  0
  9 10  1  0
  9  8  2  0
 10 11  2  0
 11 12  1  0
 12  4  1  0
 13  2  1  0
 14 13  2  0
 15 13  1  0
 16 17  1  1
 16 15  1  0
 17 18  1  0
 18 22  1  0
 19 18  2  0
 19 20  1  0
 20 21  1  0
 22 21  2  0
 23 24  2  0
 23 16  1  0
 25 23  1  0
 26 27  1  6
 26 25  1  0
 27 28  1  0
 29 28  1  0
 30 29  1  0
 31 30  1  0
 32 26  1  0
 33 32  1  0
 34 32  2  0
M  END
$$$$
