WHK.pdb
     RDKit          3D

 34 36  0  0  1  0  0  0  0  0999 V2000
   27.1505  -20.8748  -10.0413 N   0  0  0  0  0  0  0  0  0  0  0  0
   25.9842  -20.7917   -9.1868 C   0  0  1  0  0  0  0  0  0  0  0  0
   26.0436  -19.7139   -8.1755 C   0  0  0  0  0  0  0  0  0  0  0  0
   27.2545  -19.5463   -7.3887 C   0  0  0  0  0  0  0  0  0  0  0  0
   28.2414  -18.6135   -7.7727 C   0  0  0  0  0  0  0  0  0  0  0  0
   29.2310  -18.6482   -6.8920 N   0  0  0  0  0  0  0  0  0  0  0  0
   28.9852  -19.5498   -5.9229 C   0  0  0  0  0  0  0  0  0  0  0  0
   29.6926  -19.9478   -4.8089 C   0  0  0  0  0  0  0  0  0  0  0  0
   29.1586  -20.9231   -3.9900 C   0  0  0  0  0  0  0  0  0  0  0  0
   27.9276  -21.4780   -4.3056 C   0  0  0  0  0  0  0  0  0  0  0  0
   27.2118  -21.0851   -5.4199 C   0  0  0  0  0  0  0  0  0  0  0  0
   27.7382  -20.1154   -6.2377 C   0  0  0  0  0  0  0  0  0  0  0  0
   24.7983  -20.4534  -10.0956 C   0  0  0  0  0  0  0  0  0  0  0  0
   23.7677  -20.0408   -9.5449 O   0  0  0  0  0  0  0  0  0  0  0  0
   24.8505  -20.5960  -11.4944 N   0  0  0  0  0  0  0  0  0  0  0  0
   23.7428  -20.3372  -12.3607 C   0  0  1  0  0  0  0  0  0  0  0  0
   24.1060  -20.1489  -13.7774 C   0  0  0  0  0  0  0  0  0  0  0  0
   23.0473  -19.7266  -14.6988 C   0  0  0  0  0  0  0  0  0  0  0  0
   21.7366  -19.3984  -14.5710 C   0  0  0  0  0  0  0  0  0  0  0  0
   21.2263  -19.0510  -15.7626 N   0  0  0  0  0  0  0  0  0  0  0  0
   22.2189  -19.1602  -16.6439 C   0  0  0  0  0  0  0  0  0  0  0  0
   23.3243  -19.5635  -16.0359 N   0  0  0  0  0  0  0  0  0  0  0  0
   22.6970  -21.4069  -12.2647 C   0  0  0  0  0  0  0  0  0  0  0  0
   23.0123  -22.5659  -12.6040 O   0  0  0  0  0  0  0  0  0  0  0  0
   21.3801  -21.1705  -11.8112 N   0  0  0  0  0  0  0  0  0  0  0  0
   20.4288  -22.2696  -11.5361 C   0  0  1  0  0  0  0  0  0  0  0  0
   20.2288  -22.3876  -10.0506 C   0  0  0  0  0  0  0  0  0  0  0  0
   19.2423  -23.4503   -9.7225 C   0  0  0  0  0  0  0  0  0  0  0  0
   18.9847  -23.5568   -8.2228 C   0  0  0  0  0  0  0  0  0  0  0  0
   18.0297  -24.6686   -7.9072 C   0  0  0  0  0  0  0  0  0  0  0  0
   17.7814  -24.6984   -6.4675 N   0  0  0  0  0  0  0  0  0  0  0  0
   19.1783  -21.8778  -12.1920 C   0  0  0  0  0  0  0  0  0  0  0  0
   18.3764  -22.7971  -12.8145 O   0  0  0  0  0  0  0  0  0  0  0  0
   18.8008  -20.6832  -12.2077 O   0  0  0  0  0  0  0  0  0  0  0  0
  2  1  1  6
  2  3  1  0
  4  5  2  0
  4  3  1  0
  6  5  1  0
  7 12  2  0
  7  6  1  0
  8  7  1  0
  9 10  1  0
  9  8  2  0
 10 11  2  0
 11 12  1  0
 12  4  1  0
 13  2  1  0
 14 13  2  0
 15 13  1  0
 16 17  1  6
 16 15  1  0
 17 18  1  0
 18 22  1  0
 19 18  2  0
 19 20  1  0
 20 21  1  0
 22 21  2  0
 23 24  2  0
 23 16  1  0
 25 23  1  0
 26 27  1  1
 26 25  1  0
 27 28  1  0
 29 28  1  0
 30 29  1  0
 31 30  1  0
 32 26  1  0
 33 32  1  0
 34 32  2  0
M  END
$$$$
