WHK.pdb
     RDKit          3D

 34 36  0  0  1  0  0  0  0  0999 V2000
   27.5813  -21.6969   -8.9679 N   0  0  0  0  0  0  0  0  0  0  0  0
   26.3368  -20.9922   -8.7395 C   0  0  1  0  0  0  0  0  0  0  0  0
   26.4895  -19.6884   -8.0579 C   0  0  0  0  0  0  0  0  0  0  0  0
   27.5910  -19.4994   -7.1282 C   0  0  0  0  0  0  0  0  0  0  0  0
   28.7116  -18.7196   -7.4857 C   0  0  0  0  0  0  0  0  0  0  0  0
   29.5614  -18.6976   -6.4692 N   0  0  0  0  0  0  0  0  0  0  0  0
   29.0934  -19.4160   -5.4312 C   0  0  0  0  0  0  0  0  0  0  0  0
   29.5960  -19.6930   -4.1780 C   0  0  0  0  0  0  0  0  0  0  0  0
   28.8573  -20.4840   -3.3204 C   0  0  0  0  0  0  0  0  0  0  0  0
   27.6315  -20.9800   -3.7376 C   0  0  0  0  0  0  0  0  0  0  0  0
   27.1201  -20.7074   -4.9916 C   0  0  0  0  0  0  0  0  0  0  0  0
   27.8507  -19.9211   -5.8486 C   0  0  0  0  0  0  0  0  0  0  0  0
   25.7496  -20.6813  -10.1197 C   0  0  0  0  0  0  0  0  0  0  0  0
   24.8055  -19.8797  -10.1615 O   0  0  0  0  0  0  0  0  0  0  0  0
   26.2409  -21.2656  -11.3017 N   0  0  0  0  0  0  0  0  0  0  0  0
   25.8929  -20.8162  -12.6137 C   0  0  1  0  0  0  0  0  0  0  0  0
   26.9774  -20.9303  -13.6064 C   0  0  0  0  0  0  0  0  0  0  0  0
   26.6975  -20.4776  -14.9719 C   0  0  0  0  0  0  0  0  0  0  0  0
   25.6108  -19.9811  -15.6160 C   0  0  0  0  0  0  0  0  0  0  0  0
   25.9166  -19.6964  -16.8913 N   0  0  0  0  0  0  0  0  0  0  0  0
   27.2001  -20.0140  -17.0510 C   0  0  0  0  0  0  0  0  0  0  0  0
   27.6963  -20.4853  -15.9171 N   0  0  0  0  0  0  0  0  0  0  0  0
   24.6764  -21.5166  -13.1395 C   0  0  0  0  0  0  0  0  0  0  0  0
   24.6845  -22.7645  -13.1646 O   0  0  0  0  0  0  0  0  0  0  0  0
   23.5274  -20.8391  -13.6046 N   0  0  0  0  0  0  0  0  0  0  0  0
   22.2820  -21.5506  -13.9676 C   0  0  1  0  0  0  0  0  0  0  0  0
   21.1593  -21.0513  -13.1012 C   0  0  0  0  0  0  0  0  0  0  0  0
   20.3308  -22.1758  -12.5918 C   0  0  0  0  0  0  0  0  0  0  0  0
   19.1445  -21.6913  -11.7644 C   0  0  0  0  0  0  0  0  0  0  0  0
   18.3210  -22.8385  -11.2609 C   0  0  0  0  0  0  0  0  0  0  0  0
   19.0168  -23.4815  -10.1485 N   0  0  0  0  0  0  0  0  0  0  0  0
   22.0344  -21.2137  -15.3721 C   0  0  0  0  0  0  0  0  0  0  0  0
   22.1955  -19.9377  -15.8427 O   0  0  0  0  0  0  0  0  0  0  0  0
   21.6626  -22.0851  -16.1922 O   0  0  0  0  0  0  0  0  0  0  0  0
  2  1  1  6
  2  3  1  0
  4  5  2  0
  4  3  1  0
  6  5  1  0
  7 12  2  0
  7  6  1  0
  8  7  1  0
  9 10  1  0
  9  8  2  0
 10 11  2  0
 11 12  1  0
 12  4  1  0
 13  2  1  0
 14 13  2  0
 15 13  1  0
 16 17  1  6
 16 15  1  0
 17 18  1  0
 18 22  1  0
 19 18  2  0
 19 20  1  0
 20 21  1  0
 22 21  2  0
 23 24  2  0
 23 16  1  0
 25 23  1  0
 26 27  1  1
 26 25  1  0
 27 28  1  0
 29 28  1  0
 30 29  1  0
 31 30  1  0
 32 26  1  0
 33 32  1  0
 34 32  2  0
M  END
$$$$
