WHK.pdb
     RDKit          3D

 34 36  0  0  1  0  0  0  0  0999 V2000
   26.5676  -19.7270  -12.1192 N   0  0  0  0  0  0  0  0  0  0  0  0
   25.8312  -20.9629  -11.9529 C   0  0  1  0  0  0  0  0  0  0  0  0
   25.7273  -21.4282  -10.5527 C   0  0  0  0  0  0  0  0  0  0  0  0
   26.8540  -21.2319   -9.6552 C   0  0  0  0  0  0  0  0  0  0  0  0
   26.6605  -20.7144   -8.3565 C   0  0  0  0  0  0  0  0  0  0  0  0
   27.8334  -20.6420   -7.7441 N   0  0  0  0  0  0  0  0  0  0  0  0
   28.8248  -21.0789   -8.5434 C   0  0  0  0  0  0  0  0  0  0  0  0
   30.1872  -21.1971   -8.3711 C   0  0  0  0  0  0  0  0  0  0  0  0
   30.9527  -21.6916   -9.4085 C   0  0  0  0  0  0  0  0  0  0  0  0
   30.3360  -22.0567  -10.5956 C   0  0  0  0  0  0  0  0  0  0  0  0
   28.9714  -21.9417  -10.7770 C   0  0  0  0  0  0  0  0  0  0  0  0
   28.2053  -21.4505   -9.7483 C   0  0  0  0  0  0  0  0  0  0  0  0
   24.3969  -20.6836  -12.4128 C   0  0  0  0  0  0  0  0  0  0  0  0
   23.8597  -19.6525  -11.9842 O   0  0  0  0  0  0  0  0  0  0  0  0
   23.6987  -21.5425  -13.2816 N   0  0  0  0  0  0  0  0  0  0  0  0
   22.3353  -21.3468  -13.6651 C   0  0  1  0  0  0  0  0  0  0  0  0
   22.1336  -21.1130  -15.1070 C   0  0  0  0  0  0  0  0  0  0  0  0
   22.7183  -19.9002  -15.6860 C   0  0  0  0  0  0  0  0  0  0  0  0
   23.3897  -18.8280  -15.1944 C   0  0  0  0  0  0  0  0  0  0  0  0
   23.7304  -17.9964  -16.1910 N   0  0  0  0  0  0  0  0  0  0  0  0
   23.2727  -18.5467  -17.3142 C   0  0  0  0  0  0  0  0  0  0  0  0
   22.6608  -19.6898  -17.0437 N   0  0  0  0  0  0  0  0  0  0  0  0
   21.4640  -22.4866  -13.2306 C   0  0  0  0  0  0  0  0  0  0  0  0
   22.0167  -23.4903  -12.7356 O   0  0  0  0  0  0  0  0  0  0  0  0
   20.0565  -22.4814  -13.3517 N   0  0  0  0  0  0  0  0  0  0  0  0
   19.1953  -23.4311  -12.6133 C   0  0  1  0  0  0  0  0  0  0  0  0
   19.3675  -23.2063  -11.1367 C   0  0  0  0  0  0  0  0  0  0  0  0
   18.4650  -24.0866  -10.3488 C   0  0  0  0  0  0  0  0  0  0  0  0
   18.6116  -23.8683   -8.8463 C   0  0  0  0  0  0  0  0  0  0  0  0
   17.7316  -24.7995   -8.0676 C   0  0  0  0  0  0  0  0  0  0  0  0
   17.9117  -24.5529   -6.6387 N   0  0  0  0  0  0  0  0  0  0  0  0
   17.8242  -23.1158  -13.0232 C   0  0  0  0  0  0  0  0  0  0  0  0
   16.8946  -24.0992  -13.2340 O   0  0  0  0  0  0  0  0  0  0  0  0
   17.4558  -21.9310  -13.1981 O   0  0  0  0  0  0  0  0  0  0  0  0
  2  1  1  1
  2  3  1  0
  4  5  2  0
  4  3  1  0
  6  5  1  0
  7 12  2  0
  7  6  1  0
  8  7  1  0
  9 10  1  0
  9  8  2  0
 10 11  2  0
 11 12  1  0
 12  4  1  0
 13  2  1  0
 14 13  2  0
 15 13  1  0
 16 17  1  6
 16 15  1  0
 17 18  1  0
 18 22  1  0
 19 18  2  0
 19 20  1  0
 20 21  1  0
 22 21  2  0
 23 24  2  0
 23 16  1  0
 25 23  1  0
 26 27  1  1
 26 25  1  0
 27 28  1  0
 29 28  1  0
 30 29  1  0
 31 30  1  0
 32 26  1  0
 33 32  1  0
 34 32  2  0
M  END
$$$$
