WHK.pdb
     RDKit          3D

 34 36  0  0  1  0  0  0  0  0999 V2000
   28.2556  -19.8817  -10.2915 N   0  0  0  0  0  0  0  0  0  0  0  0
   27.4015  -21.0339  -10.0905 C   0  0  1  0  0  0  0  0  0  0  0  0
   26.5085  -20.9346   -8.9155 C   0  0  0  0  0  0  0  0  0  0  0  0
   27.0177  -20.3499   -7.6857 C   0  0  0  0  0  0  0  0  0  0  0  0
   26.3962  -19.2201   -7.1123 C   0  0  0  0  0  0  0  0  0  0  0  0
   27.0412  -18.8925   -6.0020 N   0  0  0  0  0  0  0  0  0  0  0  0
   28.0711  -19.7294   -5.7755 C   0  0  0  0  0  0  0  0  0  0  0  0
   29.0193  -19.8035   -4.7778 C   0  0  0  0  0  0  0  0  0  0  0  0
   29.9699  -20.8037   -4.8308 C   0  0  0  0  0  0  0  0  0  0  0  0
   29.9493  -21.7075   -5.8822 C   0  0  0  0  0  0  0  0  0  0  0  0
   29.0027  -21.6408   -6.8862 C   0  0  0  0  0  0  0  0  0  0  0  0
   28.0549  -20.6480   -6.8383 C   0  0  0  0  0  0  0  0  0  0  0  0
   26.4829  -21.1172  -11.3135 C   0  0  0  0  0  0  0  0  0  0  0  0
   26.3313  -20.0802  -11.9746 O   0  0  0  0  0  0  0  0  0  0  0  0
   25.8290  -22.3046  -11.6908 N   0  0  0  0  0  0  0  0  0  0  0  0
   24.9929  -22.4182  -12.8451 C   0  0  1  0  0  0  0  0  0  0  0  0
   24.6555  -23.8035  -13.2214 C   0  0  0  0  0  0  0  0  0  0  0  0
   23.8200  -23.9995  -14.4095 C   0  0  0  0  0  0  0  0  0  0  0  0
   23.2058  -23.1781  -15.2985 C   0  0  0  0  0  0  0  0  0  0  0  0
   22.5734  -23.8993  -16.2370 N   0  0  0  0  0  0  0  0  0  0  0  0
   22.7903  -25.1791  -15.9387 C   0  0  0  0  0  0  0  0  0  0  0  0
   23.5352  -25.2715  -14.8475 N   0  0  0  0  0  0  0  0  0  0  0  0
   23.7252  -21.6322  -12.6959 C   0  0  0  0  0  0  0  0  0  0  0  0
   23.1858  -21.5995  -11.5708 O   0  0  0  0  0  0  0  0  0  0  0  0
   23.1144  -20.9300  -13.7586 N   0  0  0  0  0  0  0  0  0  0  0  0
   21.9581  -20.0305  -13.5514 C   0  0  1  0  0  0  0  0  0  0  0  0
   22.1121  -18.8202  -14.4299 C   0  0  0  0  0  0  0  0  0  0  0  0
   20.9464  -17.9070  -14.2982 C   0  0  0  0  0  0  0  0  0  0  0  0
   21.0414  -16.7090  -15.2377 C   0  0  0  0  0  0  0  0  0  0  0  0
   19.8431  -15.8167  -15.1128 C   0  0  0  0  0  0  0  0  0  0  0  0
   19.9582  -14.7164  -16.0674 N   0  0  0  0  0  0  0  0  0  0  0  0
   20.7817  -20.8075  -13.9511 C   0  0  0  0  0  0  0  0  0  0  0  0
   19.5939  -20.7085  -13.2766 O   0  0  0  0  0  0  0  0  0  0  0  0
   20.8242  -21.5938  -14.9257 O   0  0  0  0  0  0  0  0  0  0  0  0
  2  1  1  6
  2  3  1  0
  4  5  2  0
  4  3  1  0
  6  5  1  0
  7 12  2  0
  7  6  1  0
  8  7  1  0
  9 10  1  0
  9  8  2  0
 10 11  2  0
 11 12  1  0
 12  4  1  0
 13  2  1  0
 14 13  2  0
 15 13  1  0
 16 17  1  1
 16 15  1  0
 17 18  1  0
 18 22  1  0
 19 18  2  0
 19 20  1  0
 20 21  1  0
 22 21  2  0
 23 24  2  0
 23 16  1  0
 25 23  1  0
 26 27  1  6
 26 25  1  0
 27 28  1  0
 29 28  1  0
 30 29  1  0
 31 30  1  0
 32 26  1  0
 33 32  1  0
 34 32  2  0
M  END
$$$$
