WHK.pdb
     RDKit          3D

 34 36  0  0  1  0  0  0  0  0999 V2000
   21.6492   -5.8353  -13.2978 N   0  0  0  0  0  0  0  0  0  0  0  0
   21.3400   -7.1845  -12.8721 C   0  0  1  0  0  0  0  0  0  0  0  0
   20.4196   -7.2646  -11.7169 C   0  0  0  0  0  0  0  0  0  0  0  0
   20.9103   -6.9138  -10.3941 C   0  0  0  0  0  0  0  0  0  0  0  0
   20.1908   -6.0219   -9.5705 C   0  0  0  0  0  0  0  0  0  0  0  0
   20.8400   -5.8771   -8.4244 N   0  0  0  0  0  0  0  0  0  0  0  0
   21.9650   -6.6164   -8.4085 C   0  0  0  0  0  0  0  0  0  0  0  0
   22.9555   -6.7995   -7.4676 C   0  0  0  0  0  0  0  0  0  0  0  0
   24.0086   -7.6436   -7.7597 C   0  0  0  0  0  0  0  0  0  0  0  0
   24.0458   -8.2855   -8.9882 C   0  0  0  0  0  0  0  0  0  0  0  0
   23.0576   -8.1080   -9.9371 C   0  0  0  0  0  0  0  0  0  0  0  0
   22.0079   -7.2696   -9.6516 C   0  0  0  0  0  0  0  0  0  0  0  0
   20.6115   -7.8565  -14.0401 C   0  0  0  0  0  0  0  0  0  0  0  0
   20.0159   -7.1138  -14.8334 O   0  0  0  0  0  0  0  0  0  0  0  0
   20.6030   -9.2512  -14.2265 N   0  0  0  0  0  0  0  0  0  0  0  0
   20.0353   -9.8959  -15.3695 C   0  0  1  0  0  0  0  0  0  0  0  0
   20.9630  -10.7844  -16.0936 C   0  0  0  0  0  0  0  0  0  0  0  0
   22.0144  -10.1563  -16.8987 C   0  0  0  0  0  0  0  0  0  0  0  0
   22.3720   -8.8786  -17.1842 C   0  0  0  0  0  0  0  0  0  0  0  0
   23.4574   -8.8653  -17.9733 N   0  0  0  0  0  0  0  0  0  0  0  0
   23.7850  -10.1387  -18.1852 C   0  0  0  0  0  0  0  0  0  0  0  0
   22.9379  -10.9371  -17.5534 N   0  0  0  0  0  0  0  0  0  0  0  0
   18.7981  -10.6663  -15.0188 C   0  0  0  0  0  0  0  0  0  0  0  0
   18.7349  -11.1886  -13.8870 O   0  0  0  0  0  0  0  0  0  0  0  0
   17.7058  -10.8291  -15.8999 N   0  0  0  0  0  0  0  0  0  0  0  0
   16.4555  -11.5074  -15.4931 C   0  0  1  0  0  0  0  0  0  0  0  0
   15.3535  -11.1171  -16.4385 C   0  0  0  0  0  0  0  0  0  0  0  0
   14.0528  -11.7043  -16.0216 C   0  0  0  0  0  0  0  0  0  0  0  0
   12.9099  -11.2901  -16.9429 C   0  0  0  0  0  0  0  0  0  0  0  0
   11.5919  -11.8072  -16.4496 C   0  0  0  0  0  0  0  0  0  0  0  0
   10.5252  -11.3229  -17.3230 N   0  0  0  0  0  0  0  0  0  0  0  0
   16.7367  -12.9418  -15.5981 C   0  0  0  0  0  0  0  0  0  0  0  0
   16.2549  -13.8361  -14.6796 O   0  0  0  0  0  0  0  0  0  0  0  0
   17.4327  -13.3994  -16.5341 O   0  0  0  0  0  0  0  0  0  0  0  0
  2  1  1  6
  2  3  1  0
  4  5  2  0
  4  3  1  0
  6  5  1  0
  7 12  2  0
  7  6  1  0
  8  7  1  0
  9 10  1  0
  9  8  2  0
 10 11  2  0
 11 12  1  0
 12  4  1  0
 13  2  1  0
 14 13  2  0
 15 13  1  0
 16 17  1  1
 16 15  1  0
 17 18  1  0
 18 22  1  0
 19 18  2  0
 19 20  1  0
 20 21  1  0
 22 21  2  0
 23 24  2  0
 23 16  1  0
 25 23  1  0
 26 27  1  6
 26 25  1  0
 27 28  1  0
 29 28  1  0
 30 29  1  0
 31 30  1  0
 32 26  1  0
 33 32  1  0
 34 32  2  0
M  END
$$$$
