WHK.pdb
     RDKit          3D

 34 36  0  0  1  0  0  0  0  0999 V2000
   28.0099  -20.1381  -10.7998 N   0  0  0  0  0  0  0  0  0  0  0  0
   27.0349  -21.1869  -10.5838 C   0  0  1  0  0  0  0  0  0  0  0  0
   26.2701  -21.0598   -9.3240 C   0  0  0  0  0  0  0  0  0  0  0  0
   26.8657  -20.3535   -8.2016 C   0  0  0  0  0  0  0  0  0  0  0  0
   26.2446  -19.2089   -7.6577 C   0  0  0  0  0  0  0  0  0  0  0  0
   26.9769  -18.7622   -6.6476 N   0  0  0  0  0  0  0  0  0  0  0  0
   28.0665  -19.5309   -6.4624 C   0  0  0  0  0  0  0  0  0  0  0  0
   29.1102  -19.4800   -5.5635 C   0  0  0  0  0  0  0  0  0  0  0  0
   30.1023  -20.4378   -5.6348 C   0  0  0  0  0  0  0  0  0  0  0  0
   30.0266  -21.4255   -6.6051 C   0  0  0  0  0  0  0  0  0  0  0  0
   28.9843  -21.4842   -7.5098 C   0  0  0  0  0  0  0  0  0  0  0  0
   27.9949  -20.5340   -7.4434 C   0  0  0  0  0  0  0  0  0  0  0  0
   26.0084  -21.0708  -11.7148 C   0  0  0  0  0  0  0  0  0  0  0  0
   25.8284  -19.9437  -12.1973 O   0  0  0  0  0  0  0  0  0  0  0  0
   25.2888  -22.1775  -12.2020 N   0  0  0  0  0  0  0  0  0  0  0  0
   24.4422  -22.1297  -13.3533 C   0  0  1  0  0  0  0  0  0  0  0  0
   24.4523  -23.3570  -14.1706 C   0  0  0  0  0  0  0  0  0  0  0  0
   25.5855  -23.5586  -15.0779 C   0  0  0  0  0  0  0  0  0  0  0  0
   26.6470  -22.8096  -15.4708 C   0  0  0  0  0  0  0  0  0  0  0  0
   27.4166  -23.5051  -16.3222 N   0  0  0  0  0  0  0  0  0  0  0  0
   26.8384  -24.6963  -16.4658 C   0  0  0  0  0  0  0  0  0  0  0  0
   25.7378  -24.7588  -15.7316 N   0  0  0  0  0  0  0  0  0  0  0  0
   23.0259  -21.7978  -12.9914 C   0  0  0  0  0  0  0  0  0  0  0  0
   22.6232  -22.1137  -11.8530 O   0  0  0  0  0  0  0  0  0  0  0  0
   22.1293  -21.1485  -13.8690 N   0  0  0  0  0  0  0  0  0  0  0  0
   20.7770  -20.7228  -13.4460 C   0  0  1  0  0  0  0  0  0  0  0  0
   20.4326  -19.4279  -14.1280 C   0  0  0  0  0  0  0  0  0  0  0  0
   19.0311  -19.0236  -13.8404 C   0  0  0  0  0  0  0  0  0  0  0  0
   18.6533  -17.7167  -14.5303 C   0  0  0  0  0  0  0  0  0  0  0  0
   17.3038  -17.2337  -14.0907 C   0  0  0  0  0  0  0  0  0  0  0  0
   17.0348  -15.9322  -14.6980 N   0  0  0  0  0  0  0  0  0  0  0  0
   19.8751  -21.7901  -13.8874 C   0  0  0  0  0  0  0  0  0  0  0  0
   18.7513  -22.1189  -13.1770 O   0  0  0  0  0  0  0  0  0  0  0  0
   20.1044  -22.4422  -14.9325 O   0  0  0  0  0  0  0  0  0  0  0  0
  2  1  1  6
  2  3  1  0
  4  5  2  0
  4  3  1  0
  6  5  1  0
  7 12  2  0
  7  6  1  0
  8  7  1  0
  9 10  1  0
  9  8  2  0
 10 11  2  0
 11 12  1  0
 12  4  1  0
 13  2  1  0
 14 13  2  0
 15 13  1  0
 16 17  1  1
 16 15  1  0
 17 18  1  0
 18 22  1  0
 19 18  2  0
 19 20  1  0
 20 21  1  0
 22 21  2  0
 23 24  2  0
 23 16  1  0
 25 23  1  0
 26 27  1  6
 26 25  1  0
 27 28  1  0
 29 28  1  0
 30 29  1  0
 31 30  1  0
 32 26  1  0
 33 32  1  0
 34 32  2  0
M  END
$$$$
