WHK.pdb
     RDKit          3D

 34 36  0  0  1  0  0  0  0  0999 V2000
   28.1010  -20.7174   -9.8591 N   0  0  0  0  0  0  0  0  0  0  0  0
   26.7150  -20.9851   -9.5356 C   0  0  1  0  0  0  0  0  0  0  0  0
   26.1726  -20.1546   -8.4383 C   0  0  0  0  0  0  0  0  0  0  0  0
   27.0781  -19.6432   -7.4224 C   0  0  0  0  0  0  0  0  0  0  0  0
   27.8153  -18.4601   -7.6422 C   0  0  0  0  0  0  0  0  0  0  0  0
   28.5518  -18.2076   -6.5699 N   0  0  0  0  0  0  0  0  0  0  0  0
   28.3662  -19.1465   -5.6230 C   0  0  0  0  0  0  0  0  0  0  0  0
   28.8922  -19.3251   -4.3615 C   0  0  0  0  0  0  0  0  0  0  0  0
   28.4927  -20.4183   -3.6184 C   0  0  0  0  0  0  0  0  0  0  0  0
   27.5749  -21.3081   -4.1558 C   0  0  0  0  0  0  0  0  0  0  0  0
   27.0426  -21.1368   -5.4190 C   0  0  0  0  0  0  0  0  0  0  0  0
   27.4365  -20.0513   -6.1623 C   0  0  0  0  0  0  0  0  0  0  0  0
   25.8973  -20.6269  -10.7804 C   0  0  0  0  0  0  0  0  0  0  0  0
   26.1269  -19.5291  -11.3073 O   0  0  0  0  0  0  0  0  0  0  0  0
   24.9238  -21.4870  -11.3212 N   0  0  0  0  0  0  0  0  0  0  0  0
   24.2183  -21.2232  -12.5366 C   0  0  1  0  0  0  0  0  0  0  0  0
   24.5587  -22.1288  -13.6495 C   0  0  0  0  0  0  0  0  0  0  0  0
   25.7588  -21.8204  -14.4322 C   0  0  0  0  0  0  0  0  0  0  0  0
   26.0584  -20.9495  -15.4292 C   0  0  0  0  0  0  0  0  0  0  0  0
   27.3493  -21.0672  -15.7764 N   0  0  0  0  0  0  0  0  0  0  0  0
   27.8648  -22.0149  -14.9954 C   0  0  0  0  0  0  0  0  0  0  0  0
   26.9351  -22.4859  -14.1781 N   0  0  0  0  0  0  0  0  0  0  0  0
   22.7331  -21.2377  -12.3345 C   0  0  0  0  0  0  0  0  0  0  0  0
   22.2574  -22.0830  -11.5489 O   0  0  0  0  0  0  0  0  0  0  0  0
   21.8497  -20.3471  -12.9843 N   0  0  0  0  0  0  0  0  0  0  0  0
   20.3883  -20.3750  -12.7559 C   0  0  1  0  0  0  0  0  0  0  0  0
   19.7310  -19.3589  -13.6482 C   0  0  0  0  0  0  0  0  0  0  0  0
   18.2527  -19.3804  -13.4916 C   0  0  0  0  0  0  0  0  0  0  0  0
   17.5712  -18.2696  -14.2842 C   0  0  0  0  0  0  0  0  0  0  0  0
   16.0816  -18.3123  -14.1203 C   0  0  0  0  0  0  0  0  0  0  0  0
   15.6843  -17.3818  -13.0661 N   0  0  0  0  0  0  0  0  0  0  0  0
   19.9614  -21.7288  -13.1197 C   0  0  0  0  0  0  0  0  0  0  0  0
   20.5539  -22.4163  -14.1453 O   0  0  0  0  0  0  0  0  0  0  0  0
   19.0341  -22.3039  -12.5037 O   0  0  0  0  0  0  0  0  0  0  0  0
  2  1  1  6
  2  3  1  0
  4  5  2  0
  4  3  1  0
  6  5  1  0
  7 12  2  0
  7  6  1  0
  8  7  1  0
  9 10  1  0
  9  8  2  0
 10 11  2  0
 11 12  1  0
 12  4  1  0
 13  2  1  0
 14 13  2  0
 15 13  1  0
 16 17  1  6
 16 15  1  0
 17 18  1  0
 18 22  1  0
 19 18  2  0
 19 20  1  0
 20 21  1  0
 22 21  2  0
 23 24  2  0
 23 16  1  0
 25 23  1  0
 26 27  1  6
 26 25  1  0
 27 28  1  0
 29 28  1  0
 30 29  1  0
 31 30  1  0
 32 26  1  0
 33 32  1  0
 34 32  2  0
M  END
$$$$
