WHK.pdb
     RDKit          3D

 34 36  0  0  1  0  0  0  0  0999 V2000
   24.8754  -19.0939  -18.4120 N   0  0  0  0  0  0  0  0  0  0  0  0
   25.3984  -18.5119  -17.1934 C   0  0  1  0  0  0  0  0  0  0  0  0
   24.5193  -17.4950  -16.5759 C   0  0  0  0  0  0  0  0  0  0  0  0
   24.6036  -16.1162  -17.0289 C   0  0  0  0  0  0  0  0  0  0  0  0
   23.5932  -15.5608  -17.8427 C   0  0  0  0  0  0  0  0  0  0  0  0
   23.9000  -14.2991  -18.1072 N   0  0  0  0  0  0  0  0  0  0  0  0
   25.0624  -13.9510  -17.5241 C   0  0  0  0  0  0  0  0  0  0  0  0
   25.7888  -12.7798  -17.5026 C   0  0  0  0  0  0  0  0  0  0  0  0
   26.9750  -12.7406  -16.7966 C   0  0  0  0  0  0  0  0  0  0  0  0
   27.4069  -13.8759  -16.1278 C   0  0  0  0  0  0  0  0  0  0  0  0
   26.6854  -15.0538  -16.1439 C   0  0  0  0  0  0  0  0  0  0  0  0
   25.5050  -15.0982  -16.8444 C   0  0  0  0  0  0  0  0  0  0  0  0
   25.5068  -19.6511  -16.1750 C   0  0  0  0  0  0  0  0  0  0  0  0
   24.6758  -20.5660  -16.2642 O   0  0  0  0  0  0  0  0  0  0  0  0
   26.4950  -19.6814  -15.1738 N   0  0  0  0  0  0  0  0  0  0  0  0
   26.6137  -20.7278  -14.2068 C   0  0  1  0  0  0  0  0  0  0  0  0
   27.9620  -21.3164  -14.1057 C   0  0  0  0  0  0  0  0  0  0  0  0
   28.4164  -22.1649  -15.2109 C   0  0  0  0  0  0  0  0  0  0  0  0
   27.8722  -22.5983  -16.3763 C   0  0  0  0  0  0  0  0  0  0  0  0
   28.7548  -23.3531  -17.0488 N   0  0  0  0  0  0  0  0  0  0  0  0
   29.8589  -23.3948  -16.3051 C   0  0  0  0  0  0  0  0  0  0  0  0
   29.6868  -22.6912  -15.1962 N   0  0  0  0  0  0  0  0  0  0  0  0
   26.1742  -20.2820  -12.8448 C   0  0  0  0  0  0  0  0  0  0  0  0
   26.6956  -19.2524  -12.3693 O   0  0  0  0  0  0  0  0  0  0  0  0
   25.2044  -20.9643  -12.0770 N   0  0  0  0  0  0  0  0  0  0  0  0
   24.7573  -20.4774  -10.7533 C   0  0  1  0  0  0  0  0  0  0  0  0
   23.2783  -20.2111  -10.8005 C   0  0  0  0  0  0  0  0  0  0  0  0
   22.5819  -21.1918  -11.6743 C   0  0  0  0  0  0  0  0  0  0  0  0
   21.1073  -20.8511  -11.8649 C   0  0  0  0  0  0  0  0  0  0  0  0
   20.4292  -21.8343  -12.7711 C   0  0  0  0  0  0  0  0  0  0  0  0
   19.0171  -21.4806  -12.8979 N   0  0  0  0  0  0  0  0  0  0  0  0
   25.0526  -21.5648   -9.8165 C   0  0  0  0  0  0  0  0  0  0  0  0
   24.9052  -21.4062   -8.4642 O   0  0  0  0  0  0  0  0  0  0  0  0
   25.4542  -22.6800  -10.2230 O   0  0  0  0  0  0  0  0  0  0  0  0
  2  1  1  6
  2  3  1  0
  4  5  2  0
  4  3  1  0
  6  5  1  0
  7 12  2  0
  7  6  1  0
  8  7  1  0
  9 10  1  0
  9  8  2  0
 10 11  2  0
 11 12  1  0
 12  4  1  0
 13  2  1  0
 14 13  2  0
 15 13  1  0
 16 17  1  1
 16 15  1  0
 17 18  1  0
 18 22  1  0
 19 18  2  0
 19 20  1  0
 20 21  1  0
 22 21  2  0
 23 24  2  0
 23 16  1  0
 25 23  1  0
 26 27  1  6
 26 25  1  0
 27 28  1  0
 29 28  1  0
 30 29  1  0
 31 30  1  0
 32 26  1  0
 33 32  1  0
 34 32  2  0
M  END
$$$$
