WHK.pdb
     RDKit          3D

 34 36  0  0  1  0  0  0  0  0999 V2000
   27.7143  -35.9956  -10.7959 N   0  0  0  0  0  0  0  0  0  0  0  0
   27.9236  -35.1661   -9.6274 C   0  0  1  0  0  0  0  0  0  0  0  0
   26.7527  -35.0705   -8.7286 C   0  0  0  0  0  0  0  0  0  0  0  0
   25.6019  -34.2857   -9.1449 C   0  0  0  0  0  0  0  0  0  0  0  0
   24.5384  -34.8841   -9.8538 C   0  0  0  0  0  0  0  0  0  0  0  0
   23.6182  -33.9642  -10.1046 N   0  0  0  0  0  0  0  0  0  0  0  0
   23.9838  -32.7664   -9.6106 C   0  0  0  0  0  0  0  0  0  0  0  0
   23.3831  -31.5257   -9.6145 C   0  0  0  0  0  0  0  0  0  0  0  0
   24.0307  -30.4667   -9.0096 C   0  0  0  0  0  0  0  0  0  0  0  0
   25.2657  -30.6742   -8.4143 C   0  0  0  0  0  0  0  0  0  0  0  0
   25.8749  -31.9140   -8.4056 C   0  0  0  0  0  0  0  0  0  0  0  0
   25.2352  -32.9708   -9.0058 C   0  0  0  0  0  0  0  0  0  0  0  0
   29.0317  -35.8349   -8.8080 C   0  0  0  0  0  0  0  0  0  0  0  0
   29.0764  -37.0730   -8.8279 O   0  0  0  0  0  0  0  0  0  0  0  0
   29.9684  -35.1001   -8.0580 N   0  0  0  0  0  0  0  0  0  0  0  0
   31.0266  -35.6977   -7.3047 C   0  0  1  0  0  0  0  0  0  0  0  0
   32.3089  -34.9726   -7.3708 C   0  0  0  0  0  0  0  0  0  0  0  0
   33.1744  -35.2290   -8.5254 C   0  0  0  0  0  0  0  0  0  0  0  0
   33.1888  -36.1389   -9.5324 C   0  0  0  0  0  0  0  0  0  0  0  0
   34.2173  -35.8992  -10.3605 N   0  0  0  0  0  0  0  0  0  0  0  0
   34.8526  -34.8346   -9.8739 C   0  0  0  0  0  0  0  0  0  0  0  0
   34.2507  -34.4096   -8.7734 N   0  0  0  0  0  0  0  0  0  0  0  0
   30.6493  -35.8885   -5.8665 C   0  0  0  0  0  0  0  0  0  0  0  0
   29.4972  -35.5614   -5.5152 O   0  0  0  0  0  0  0  0  0  0  0  0
   31.5272  -36.4178   -4.8945 N   0  0  0  0  0  0  0  0  0  0  0  0
   31.0909  -36.7152   -3.5124 C   0  0  1  0  0  0  0  0  0  0  0  0
   30.0470  -37.7967   -3.5476 C   0  0  0  0  0  0  0  0  0  0  0  0
   29.6787  -38.2347   -2.1754 C   0  0  0  0  0  0  0  0  0  0  0  0
   28.3384  -37.6617   -1.7260 C   0  0  0  0  0  0  0  0  0  0  0  0
   27.9613  -38.1528   -0.3606 C   0  0  0  0  0  0  0  0  0  0  0  0
   26.7111  -37.5192    0.0528 N   0  0  0  0  0  0  0  0  0  0  0  0
   32.2916  -37.1844   -2.8156 C   0  0  0  0  0  0  0  0  0  0  0  0
   32.5922  -36.7689   -1.5457 O   0  0  0  0  0  0  0  0  0  0  0  0
   33.0882  -37.9825   -3.3618 O   0  0  0  0  0  0  0  0  0  0  0  0
  2  1  1  6
  2  3  1  0
  4  5  2  0
  4  3  1  0
  6  5  1  0
  7 12  2  0
  7  6  1  0
  8  7  1  0
  9 10  1  0
  9  8  2  0
 10 11  2  0
 11 12  1  0
 12  4  1  0
 13  2  1  0
 14 13  2  0
 15 13  1  0
 16 17  1  1
 16 15  1  0
 17 18  1  0
 18 22  1  0
 19 18  2  0
 19 20  1  0
 20 21  1  0
 22 21  2  0
 23 24  2  0
 23 16  1  0
 25 23  1  0
 26 27  1  6
 26 25  1  0
 27 28  1  0
 29 28  1  0
 30 29  1  0
 31 30  1  0
 32 26  1  0
 33 32  1  0
 34 32  2  0
M  END
$$$$
