NCV.pdb
     RDKit          3D

 22 21  0  0  1  0  0  0  0  0999 V2000
   14.2899  -14.0433  -16.3187 N   0  0  0  0  0  0  0  0  0  0  0  0
   15.3287  -13.2039  -16.8176 C   0  0  0  0  0  0  0  0  0  0  0  0
   15.6173  -13.2659  -18.0292 O   0  0  0  0  0  0  0  0  0  0  0  0
   16.0473  -12.2841  -15.9305 C   0  0  0  0  0  0  0  0  0  0  0  0
   17.5336  -12.5418  -16.0100 C   0  0  2  0  0  0  0  0  0  0  0  0
   17.7938  -13.8341  -15.4052 N   0  0  0  0  0  0  0  0  0  0  0  0
   18.3329  -11.4739  -15.4095 C   0  0  0  0  0  0  0  0  0  0  0  0
   18.9247  -11.5537  -14.3043 O   0  0  0  0  0  0  0  0  0  0  0  0
   18.4593  -10.2471  -16.1176 N   0  0  0  0  0  0  0  0  0  0  0  0
   19.2914   -9.1647  -15.7013 C   0  0  1  0  0  0  0  0  0  0  0  0
   20.7072   -9.6572  -15.6110 C   0  0  0  0  0  0  0  0  0  0  0  0
   21.7790   -8.2881  -15.0876 S   0  0  0  0  0  0  0  0  0  0  0  0
   19.1288   -7.9384  -16.4831 C   0  0  0  0  0  0  0  0  0  0  0  0
   19.4292   -7.9552  -17.7045 O   0  0  0  0  0  0  0  0  0  0  0  0
   16.5086   -5.1216  -15.0899 C   0  0  0  0  0  0  0  0  0  0  0  0
   16.8925   -5.2645  -16.5449 C   0  0  2  0  0  0  0  0  0  0  0  0
   16.1856   -6.4823  -17.0797 C   0  0  0  0  0  0  0  0  0  0  0  0
   18.3987   -5.5254  -16.6437 C   0  0  2  0  0  0  0  0  0  0  0  0
   18.6502   -6.7484  -15.9159 N   0  0  0  0  0  0  0  0  0  0  0  0
   19.1704   -4.3873  -16.1102 C   0  0  0  0  0  0  0  0  0  0  0  0
   19.8353   -4.4270  -14.8954 O   0  0  0  0  0  0  0  0  0  0  0  0
   19.2304   -3.3301  -16.7856 O   0  0  0  0  0  0  0  0  0  0  0  0
  1  2  1  0
  2  3  2  0
  2  4  1  0
  5  7  1  0
  5  4  1  0
  5  6  1  1
  7  8  2  0
  7  9  1  0
  9 10  1  0
 10 13  1  0
 11 12  1  0
 10 11  1  6
 13 14  2  0
 13 19  1  0
 16 15  1  1
 16 18  1  0
 16 17  1  0
 18 20  1  0
 18 19  1  1
 20 21  1  0
 22 20  2  0
M  END
$$$$
