NCV.pdb
     RDKit          3D

 22 21  0  0  1  0  0  0  0  0999 V2000
   22.3926  -23.6040  -19.0157 N   0  0  0  0  0  0  0  0  0  0  0  0
   22.9878  -22.9125  -17.9201 C   0  0  0  0  0  0  0  0  0  0  0  0
   24.2287  -22.9391  -17.7998 O   0  0  0  0  0  0  0  0  0  0  0  0
   22.1644  -22.1831  -16.9510 C   0  0  0  0  0  0  0  0  0  0  0  0
   20.7037  -22.5015  -17.1679 C   0  0  2  0  0  0  0  0  0  0  0  0
   20.3287  -21.9998  -18.4760 N   0  0  0  0  0  0  0  0  0  0  0  0
   19.8413  -21.9861  -16.1046 C   0  0  0  0  0  0  0  0  0  0  0  0
   19.6070  -20.7699  -15.8952 O   0  0  0  0  0  0  0  0  0  0  0  0
   19.2135  -22.9192  -15.2342 N   0  0  0  0  0  0  0  0  0  0  0  0
   18.2548  -22.5649  -14.2379 C   0  0  1  0  0  0  0  0  0  0  0  0
   17.2367  -21.6512  -14.8574 C   0  0  0  0  0  0  0  0  0  0  0  0
   16.1402  -21.0165  -13.5565 S   0  0  0  0  0  0  0  0  0  0  0  0
   17.6834  -23.7010  -13.5137 C   0  0  0  0  0  0  0  0  0  0  0  0
   17.0281  -24.5606  -14.1570 O   0  0  0  0  0  0  0  0  0  0  0  0
   19.7523  -25.5250  -10.9445 C   0  0  0  0  0  0  0  0  0  0  0  0
   18.4189  -25.2580  -10.2844 C   0  0  2  0  0  0  0  0  0  0  0  0
   18.0158  -26.5148   -9.5588 C   0  0  0  0  0  0  0  0  0  0  0  0
   17.3671  -24.9927  -11.3660 C   0  0  2  0  0  0  0  0  0  0  0  0
   17.8427  -23.8615  -12.1297 N   0  0  0  0  0  0  0  0  0  0  0  0
   16.0414  -24.7474  -10.7681 C   0  0  0  0  0  0  0  0  0  0  0  0
   15.0371  -25.7013  -10.7369 O   0  0  0  0  0  0  0  0  0  0  0  0
   15.8072  -23.6219  -10.2621 O   0  0  0  0  0  0  0  0  0  0  0  0
  1  2  1  0
  2  3  2  0
  2  4  1  0
  5  7  1  0
  5  4  1  0
  5  6  1  6
  7  8  2  0
  7  9  1  0
  9 10  1  0
 10 13  1  0
 11 12  1  0
 10 11  1  6
 13 14  2  0
 13 19  1  0
 16 15  1  6
 16 18  1  0
 16 17  1  0
 18 20  1  0
 18 19  1  1
 20 21  1  0
 22 20  2  0
M  END
$$$$
