NCV.pdb
     RDKit          3D

 22 21  0  0  1  0  0  0  0  0999 V2000
   20.9660  -18.7516  -15.2694 N   0  0  0  0  0  0  0  0  0  0  0  0
   20.4602  -19.9215  -14.6306 C   0  0  0  0  0  0  0  0  0  0  0  0
   19.2463  -20.1850  -14.7404 O   0  0  0  0  0  0  0  0  0  0  0  0
   21.3430  -20.8015  -13.8589 C   0  0  0  0  0  0  0  0  0  0  0  0
   22.7466  -20.2432  -13.8426 C   0  0  2  0  0  0  0  0  0  0  0  0
   23.3407  -20.4959  -15.1413 N   0  0  0  0  0  0  0  0  0  0  0  0
   23.5593  -20.7688  -12.7457 C   0  0  0  0  0  0  0  0  0  0  0  0
   23.1373  -21.0003  -11.5854 O   0  0  0  0  0  0  0  0  0  0  0  0
   24.9320  -21.0436  -12.9956 N   0  0  0  0  0  0  0  0  0  0  0  0
   25.8368  -21.5559  -12.0177 C   0  0  1  0  0  0  0  0  0  0  0  0
   26.9917  -22.2026  -12.7269 C   0  0  0  0  0  0  0  0  0  0  0  0
   28.0044  -20.9137  -13.5084 S   0  0  0  0  0  0  0  0  0  0  0  0
   26.2257  -20.5928  -10.9867 C   0  0  0  0  0  0  0  0  0  0  0  0
   26.3957  -19.3905  -11.3152 O   0  0  0  0  0  0  0  0  0  0  0  0
   26.5839  -19.3665   -6.2921 C   0  0  0  0  0  0  0  0  0  0  0  0
   26.0849  -20.2801   -7.3881 C   0  0  2  0  0  0  0  0  0  0  0  0
   26.2397  -21.6963   -6.8992 C   0  0  0  0  0  0  0  0  0  0  0  0
   26.9777  -20.1183   -8.6223 C   0  0  2  0  0  0  0  0  0  0  0  0
   26.4143  -20.9663   -9.6482 N   0  0  0  0  0  0  0  0  0  0  0  0
   28.3773  -20.4667   -8.3139 C   0  0  0  0  0  0  0  0  0  0  0  0
   29.2161  -19.6473   -7.5759 O   0  0  0  0  0  0  0  0  0  0  0  0
   28.8348  -21.5566   -8.7384 O   0  0  0  0  0  0  0  0  0  0  0  0
  1  2  1  0
  2  3  2  0
  2  4  1  0
  5  7  1  0
  5  4  1  0
  5  6  1  6
  7  8  2  0
  7  9  1  0
  9 10  1  0
 10 13  1  0
 11 12  1  0
 10 11  1  6
 13 14  2  0
 13 19  1  0
 16 15  1  1
 16 18  1  0
 16 17  1  0
 18 20  1  0
 18 19  1  6
 20 21  1  0
 22 20  2  0
M  END
$$$$
