NCV.pdb
     RDKit          3D

 22 21  0  0  1  0  0  0  0  0999 V2000
   20.3239   -9.9909  -12.6648 N   0  0  0  0  0  0  0  0  0  0  0  0
   20.0428   -8.6431  -13.0348 C   0  0  0  0  0  0  0  0  0  0  0  0
   20.9412   -7.9738  -13.5825 O   0  0  0  0  0  0  0  0  0  0  0  0
   18.7268   -8.0493  -12.7798 C   0  0  0  0  0  0  0  0  0  0  0  0
   17.9096   -8.9602  -11.8941 C   0  0  2  0  0  0  0  0  0  0  0  0
   17.8092  -10.2483  -12.5531 N   0  0  0  0  0  0  0  0  0  0  0  0
   16.6001   -8.4041  -11.5539 C   0  0  0  0  0  0  0  0  0  0  0  0
   15.5231   -8.6965  -12.1307 O   0  0  0  0  0  0  0  0  0  0  0  0
   16.5236   -7.4604  -10.4927 N   0  0  0  0  0  0  0  0  0  0  0  0
   15.3149   -6.8330  -10.0651 C   0  0  1  0  0  0  0  0  0  0  0  0
   14.3170   -7.9014   -9.7218 C   0  0  0  0  0  0  0  0  0  0  0  0
   15.1357   -9.1789   -8.7242 S   0  0  0  0  0  0  0  0  0  0  0  0
   15.4924   -5.8181   -9.0259 C   0  0  0  0  0  0  0  0  0  0  0  0
   16.2764   -6.0593   -8.0722 O   0  0  0  0  0  0  0  0  0  0  0  0
   13.7453   -2.1762   -9.7700 C   0  0  0  0  0  0  0  0  0  0  0  0
   14.9831   -2.2146   -8.9032 C   0  0  2  0  0  0  0  0  0  0  0  0
   16.1762   -2.2361   -9.8224 C   0  0  0  0  0  0  0  0  0  0  0  0
   14.9949   -3.5202   -8.1020 C   0  0  2  0  0  0  0  0  0  0  0  0
   14.8185   -4.5886   -9.0592 N   0  0  0  0  0  0  0  0  0  0  0  0
   13.9446   -3.5168   -7.0665 C   0  0  0  0  0  0  0  0  0  0  0  0
   14.0849   -2.8718   -5.8484 O   0  0  0  0  0  0  0  0  0  0  0  0
   12.8705   -4.1262   -7.2954 O   0  0  0  0  0  0  0  0  0  0  0  0
  1  2  1  0
  2  3  2  0
  2  4  1  0
  5  7  1  0
  5  4  1  0
  5  6  1  6
  7  8  2  0
  7  9  1  0
  9 10  1  0
 10 13  1  0
 11 12  1  0
 10 11  1  1
 13 14  2  0
 13 19  1  0
 16 15  1  6
 16 18  1  0
 16 17  1  0
 18 20  1  0
 18 19  1  6
 20 21  1  0
 22 20  2  0
M  END
$$$$
