NCV.pdb
     RDKit          3D

 22 21  0  0  1  0  0  0  0  0999 V2000
   24.6127  -21.6785   -9.2250 N   0  0  0  0  0  0  0  0  0  0  0  0
   23.8318  -20.7133   -9.9259 C   0  0  0  0  0  0  0  0  0  0  0  0
   22.8633  -20.1891   -9.3408 O   0  0  0  0  0  0  0  0  0  0  0  0
   24.1547  -20.3397  -11.3063 C   0  0  0  0  0  0  0  0  0  0  0  0
   25.2394  -21.2412  -11.8474 C   0  0  2  0  0  0  0  0  0  0  0  0
   26.3408  -21.2276  -10.9039 N   0  0  0  0  0  0  0  0  0  0  0  0
   25.6604  -20.8816  -13.2014 C   0  0  0  0  0  0  0  0  0  0  0  0
   26.4823  -21.5308  -13.8949 O   0  0  0  0  0  0  0  0  0  0  0  0
   25.1067  -19.7119  -13.7910 N   0  0  0  0  0  0  0  0  0  0  0  0
   25.1560  -19.4191  -15.1872 C   0  0  1  0  0  0  0  0  0  0  0  0
   24.6039  -20.5941  -15.9420 C   0  0  0  0  0  0  0  0  0  0  0  0
   24.9153  -20.3590  -17.7154 S   0  0  0  0  0  0  0  0  0  0  0  0
   24.5656  -18.1328  -15.5591 C   0  0  0  0  0  0  0  0  0  0  0  0
   23.3277  -17.9688  -15.4073 O   0  0  0  0  0  0  0  0  0  0  0  0
   27.0429  -15.2745  -17.4023 C   0  0  0  0  0  0  0  0  0  0  0  0
   26.0294  -14.8189  -16.3776 C   0  0  2  0  0  0  0  0  0  0  0  0
   26.6732  -14.9427  -15.0215 C   0  0  0  0  0  0  0  0  0  0  0  0
   24.8264  -15.7668  -16.4050 C   0  0  2  0  0  0  0  0  0  0  0  0
   25.3335  -17.0801  -16.0777 N   0  0  0  0  0  0  0  0  0  0  0  0
   24.1567  -15.7364  -17.7187 C   0  0  0  0  0  0  0  0  0  0  0  0
   23.2273  -14.7717  -18.0722 O   0  0  0  0  0  0  0  0  0  0  0  0
   24.4393  -16.6251  -18.5601 O   0  0  0  0  0  0  0  0  0  0  0  0
  1  2  1  0
  2  3  2  0
  2  4  1  0
  5  7  1  0
  5  4  1  0
  5  6  1  1
  7  8  2  0
  7  9  1  0
  9 10  1  0
 10 13  1  0
 11 12  1  0
 10 11  1  6
 13 14  2  0
 13 19  1  0
 16 15  1  6
 16 18  1  0
 16 17  1  0
 18 20  1  0
 18 19  1  6
 20 21  1  0
 22 20  2  0
M  END
$$$$
