NCV.pdb
     RDKit          3D

 22 21  0  0  1  0  0  0  0  0999 V2000
   17.9716  -14.1821  -20.2004 N   0  0  0  0  0  0  0  0  0  0  0  0
   17.1018  -13.2389  -20.8222 C   0  0  0  0  0  0  0  0  0  0  0  0
   16.8887  -13.3392  -22.0468 O   0  0  0  0  0  0  0  0  0  0  0  0
   16.4673  -12.1704  -20.0443 C   0  0  0  0  0  0  0  0  0  0  0  0
   16.9559  -12.2088  -18.6154 C   0  0  2  0  0  0  0  0  0  0  0  0
   15.7954  -12.3057  -17.7510 N   0  0  0  0  0  0  0  0  0  0  0  0
   17.8134  -11.0743  -18.2728 C   0  0  0  0  0  0  0  0  0  0  0  0
   19.0343  -10.9850  -18.5549 O   0  0  0  0  0  0  0  0  0  0  0  0
   17.2367   -9.9824  -17.5674 N   0  0  0  0  0  0  0  0  0  0  0  0
   17.9636   -8.8291  -17.1445 C   0  0  1  0  0  0  0  0  0  0  0  0
   17.0329   -7.6506  -17.1448 C   0  0  0  0  0  0  0  0  0  0  0  0
   17.7770   -6.3072  -16.1757 S   0  0  0  0  0  0  0  0  0  0  0  0
   18.7116   -9.0058  -15.8992 C   0  0  0  0  0  0  0  0  0  0  0  0
   18.1226   -9.5023  -14.9048 O   0  0  0  0  0  0  0  0  0  0  0  0
   22.6671  -10.1477  -13.5939 C   0  0  0  0  0  0  0  0  0  0  0  0
   21.8757   -9.8792  -14.8535 C   0  0  2  0  0  0  0  0  0  0  0  0
   22.8384   -9.3571  -15.8876 C   0  0  0  0  0  0  0  0  0  0  0  0
   20.8518   -8.7738  -14.5773 C   0  0  2  0  0  0  0  0  0  0  0  0
   20.0603   -8.6404  -15.7793 N   0  0  0  0  0  0  0  0  0  0  0  0
   21.5199   -7.5130  -14.2039 C   0  0  0  0  0  0  0  0  0  0  0  0
   21.6573   -6.4430  -15.0733 O   0  0  0  0  0  0  0  0  0  0  0  0
   21.9879   -7.3994  -13.0439 O   0  0  0  0  0  0  0  0  0  0  0  0
  1  2  1  0
  2  3  2  0
  2  4  1  0
  5  7  1  0
  5  4  1  0
  5  6  1  1
  7  8  2  0
  7  9  1  0
  9 10  1  0
 10 13  1  0
 11 12  1  0
 10 11  1  1
 13 14  2  0
 13 19  1  0
 16 15  1  1
 16 18  1  0
 16 17  1  0
 18 20  1  0
 18 19  1  6
 20 21  1  0
 22 20  2  0
M  END
$$$$
