NCV.pdb
     RDKit          3D

 22 21  0  0  1  0  0  0  0  0999 V2000
   15.3675  -15.3429  -17.7128 N   0  0  0  0  0  0  0  0  0  0  0  0
   15.8873  -14.8817  -16.4679 C   0  0  0  0  0  0  0  0  0  0  0  0
   15.2433  -15.1188  -15.4266 O   0  0  0  0  0  0  0  0  0  0  0  0
   17.1522  -14.1433  -16.4053 C   0  0  0  0  0  0  0  0  0  0  0  0
   17.6790  -13.8978  -17.7996 C   0  0  2  0  0  0  0  0  0  0  0  0
   18.1946  -15.1546  -18.3078 N   0  0  0  0  0  0  0  0  0  0  0  0
   18.6711  -12.8243  -17.8562 C   0  0  0  0  0  0  0  0  0  0  0  0
   19.9126  -12.9965  -17.9391 O   0  0  0  0  0  0  0  0  0  0  0  0
   18.2115  -11.4791  -17.8154 N   0  0  0  0  0  0  0  0  0  0  0  0
   19.0664  -10.3385  -17.8907 C   0  0  1  0  0  0  0  0  0  0  0  0
   18.3278   -9.2325  -18.5881 C   0  0  0  0  0  0  0  0  0  0  0  0
   19.3461   -7.7293  -18.5593 S   0  0  0  0  0  0  0  0  0  0  0  0
   19.6724   -9.9488  -16.6170 C   0  0  0  0  0  0  0  0  0  0  0  0
   18.9591   -9.9543  -15.5808 O   0  0  0  0  0  0  0  0  0  0  0  0
   22.7393  -11.4040  -15.1559 C   0  0  0  0  0  0  0  0  0  0  0  0
   23.0102   -9.9199  -15.2497 C   0  0  2  0  0  0  0  0  0  0  0  0
   23.7210   -9.5110  -13.9863 C   0  0  0  0  0  0  0  0  0  0  0  0
   21.6765   -9.1675  -15.2924 C   0  0  2  0  0  0  0  0  0  0  0  0
   21.0190   -9.5705  -16.5147 N   0  0  0  0  0  0  0  0  0  0  0  0
   21.8875   -7.7094  -15.2244 C   0  0  0  0  0  0  0  0  0  0  0  0
   21.9620   -7.0104  -14.0305 O   0  0  0  0  0  0  0  0  0  0  0  0
   22.0057   -7.0667  -16.2970 O   0  0  0  0  0  0  0  0  0  0  0  0
  1  2  1  0
  2  3  2  0
  2  4  1  0
  5  7  1  0
  5  4  1  0
  5  6  1  1
  7  8  2  0
  7  9  1  0
  9 10  1  0
 10 13  1  0
 11 12  1  0
 10 11  1  1
 13 14  2  0
 13 19  1  0
 16 15  1  1
 16 18  1  0
 16 17  1  0
 18 20  1  0
 18 19  1  6
 20 21  1  0
 22 20  2  0
M  END
$$$$
