NCV.pdb
     RDKit          3D

 22 21  0  0  1  0  0  0  0  0999 V2000
   16.5093  -13.2479  -15.4139 N   0  0  0  0  0  0  0  0  0  0  0  0
   15.8899  -12.5356  -16.4824 C   0  0  0  0  0  0  0  0  0  0  0  0
   15.1609  -13.1634  -17.2758 O   0  0  0  0  0  0  0  0  0  0  0  0
   16.1010  -11.0947  -16.6512 C   0  0  0  0  0  0  0  0  0  0  0  0
   16.9687  -10.5633  -15.5346 C   0  0  2  0  0  0  0  0  0  0  0  0
   16.1389  -10.4272  -14.3529 N   0  0  0  0  0  0  0  0  0  0  0  0
   17.6513   -9.3174  -15.8833 C   0  0  0  0  0  0  0  0  0  0  0  0
   18.4000   -9.1626  -16.8800 O   0  0  0  0  0  0  0  0  0  0  0  0
   17.4635   -8.1873  -15.0406 N   0  0  0  0  0  0  0  0  0  0  0  0
   18.0313   -6.9013  -15.2878 C   0  0  1  0  0  0  0  0  0  0  0  0
   16.9180   -5.9325  -15.5659 C   0  0  0  0  0  0  0  0  0  0  0  0
   15.8163   -5.8655  -14.1240 S   0  0  0  0  0  0  0  0  0  0  0  0
   18.9815   -6.4512  -14.2699 C   0  0  0  0  0  0  0  0  0  0  0  0
   18.6757   -6.5821  -13.0568 O   0  0  0  0  0  0  0  0  0  0  0  0
   22.8628   -6.1035  -15.3773 C   0  0  0  0  0  0  0  0  0  0  0  0
   22.4725   -6.2660  -13.9260 C   0  0  2  0  0  0  0  0  0  0  0  0
   22.1209   -7.7151  -13.7138 C   0  0  0  0  0  0  0  0  0  0  0  0
   21.2120   -5.4406  -13.6495 C   0  0  2  0  0  0  0  0  0  0  0  0
   20.2184   -5.8802  -14.6026 N   0  0  0  0  0  0  0  0  0  0  0  0
   21.4897   -3.9960  -13.7560 C   0  0  0  0  0  0  0  0  0  0  0  0
   21.0327   -3.2127  -14.8034 O   0  0  0  0  0  0  0  0  0  0  0  0
   22.1725   -3.4455  -12.8569 O   0  0  0  0  0  0  0  0  0  0  0  0
  1  2  1  0
  2  3  2  0
  2  4  1  0
  5  7  1  0
  5  4  1  0
  5  6  1  1
  7  8  2  0
  7  9  1  0
  9 10  1  0
 10 13  1  0
 11 12  1  0
 10 11  1  1
 13 14  2  0
 13 19  1  0
 16 15  1  6
 16 18  1  0
 16 17  1  0
 18 20  1  0
 18 19  1  6
 20 21  1  0
 22 20  2  0
M  END
$$$$
