NCV.pdb
     RDKit          3D

 22 21  0  0  1  0  0  0  0  0999 V2000
   15.0719  -12.9979  -17.7608 N   0  0  0  0  0  0  0  0  0  0  0  0
   16.2568  -12.2051  -17.7694 C   0  0  0  0  0  0  0  0  0  0  0  0
   17.3103  -12.7094  -18.2063 O   0  0  0  0  0  0  0  0  0  0  0  0
   16.2446  -10.8244  -17.2765 C   0  0  0  0  0  0  0  0  0  0  0  0
   17.4723  -10.5629  -16.4360 C   0  0  2  0  0  0  0  0  0  0  0  0
   17.3129  -11.2745  -15.1824 N   0  0  0  0  0  0  0  0  0  0  0  0
   17.7383   -9.1381  -16.2387 C   0  0  0  0  0  0  0  0  0  0  0  0
   17.9703   -8.3159  -17.1596 O   0  0  0  0  0  0  0  0  0  0  0  0
   17.7378   -8.6299  -14.9105 N   0  0  0  0  0  0  0  0  0  0  0  0
   17.9693   -7.2616  -14.5768 C   0  0  1  0  0  0  0  0  0  0  0  0
   16.8443   -6.7854  -13.7034 C   0  0  0  0  0  0  0  0  0  0  0  0
   15.3196   -6.7137  -14.6870 S   0  0  0  0  0  0  0  0  0  0  0  0
   19.3040   -6.9837  -14.0451 C   0  0  0  0  0  0  0  0  0  0  0  0
   19.6773   -7.5829  -13.0040 O   0  0  0  0  0  0  0  0  0  0  0  0
   22.3529   -7.1738  -16.1393 C   0  0  0  0  0  0  0  0  0  0  0  0
   22.3905   -5.8026  -15.5044 C   0  0  2  0  0  0  0  0  0  0  0  0
   23.8140   -5.5370  -15.0899 C   0  0  0  0  0  0  0  0  0  0  0  0
   21.5350   -5.8138  -14.2337 C   0  0  2  0  0  0  0  0  0  0  0  0
   20.1777   -6.0733  -14.6572 N   0  0  0  0  0  0  0  0  0  0  0  0
   21.6588   -4.5407  -13.4994 C   0  0  0  0  0  0  0  0  0  0  0  0
   20.7916   -3.4754  -13.6801 O   0  0  0  0  0  0  0  0  0  0  0  0
   22.5931   -4.4116  -12.6700 O   0  0  0  0  0  0  0  0  0  0  0  0
  1  2  1  0
  2  3  2  0
  2  4  1  0
  5  7  1  0
  5  4  1  0
  5  6  1  1
  7  8  2  0
  7  9  1  0
  9 10  1  0
 10 13  1  0
 11 12  1  0
 10 11  1  1
 13 14  2  0
 13 19  1  0
 16 15  1  1
 16 18  1  0
 16 17  1  0
 18 20  1  0
 18 19  1  6
 20 21  1  0
 22 20  2  0
M  END
$$$$
