NCV.pdb
     RDKit          3D

 22 21  0  0  1  0  0  0  0  0999 V2000
   29.3106  -17.6684  -17.5332 N   0  0  0  0  0  0  0  0  0  0  0  0
   28.3000  -18.6607  -17.3701 C   0  0  0  0  0  0  0  0  0  0  0  0
   28.2566  -19.6083  -18.1795 O   0  0  0  0  0  0  0  0  0  0  0  0
   27.3282  -18.5753  -16.2757 C   0  0  0  0  0  0  0  0  0  0  0  0
   27.7761  -19.4338  -15.1163 C   0  0  2  0  0  0  0  0  0  0  0  0
   27.7288  -20.8188  -15.5440 N   0  0  0  0  0  0  0  0  0  0  0  0
   27.0015  -19.1997  -13.8976 C   0  0  0  0  0  0  0  0  0  0  0  0
   26.7364  -18.0682  -13.4207 O   0  0  0  0  0  0  0  0  0  0  0  0
   26.5042  -20.3273  -13.1880 N   0  0  0  0  0  0  0  0  0  0  0  0
   25.6752  -20.2420  -12.0292 C   0  0  1  0  0  0  0  0  0  0  0  0
   24.2807  -20.6512  -12.4076 C   0  0  0  0  0  0  0  0  0  0  0  0
   24.2882  -22.3998  -12.8972 S   0  0  0  0  0  0  0  0  0  0  0  0
   26.2059  -20.9289  -10.8511 C   0  0  0  0  0  0  0  0  0  0  0  0
   26.8118  -22.0200  -11.0086 O   0  0  0  0  0  0  0  0  0  0  0  0
   26.5753  -19.0978   -7.1199 C   0  0  0  0  0  0  0  0  0  0  0  0
   27.0559  -20.5052   -7.3904 C   0  0  2  0  0  0  0  0  0  0  0  0
   28.3798  -20.4003   -8.1010 C   0  0  0  0  0  0  0  0  0  0  0  0
   26.0752  -21.1966   -8.3426 C   0  0  2  0  0  0  0  0  0  0  0  0
   26.0612  -20.4112   -9.5558 N   0  0  0  0  0  0  0  0  0  0  0  0
   24.7365  -21.3112   -7.7341 C   0  0  0  0  0  0  0  0  0  0  0  0
   23.6298  -20.6236   -8.2052 O   0  0  0  0  0  0  0  0  0  0  0  0
   24.5881  -22.0667   -6.7418 O   0  0  0  0  0  0  0  0  0  0  0  0
  1  2  1  0
  2  3  2  0
  2  4  1  0
  5  7  1  0
  5  4  1  0
  5  6  1  6
  7  8  2  0
  7  9  1  0
  9 10  1  0
 10 13  1  0
 11 12  1  0
 10 11  1  6
 13 14  2  0
 13 19  1  0
 16 15  1  6
 16 18  1  0
 16 17  1  0
 18 20  1  0
 18 19  1  6
 20 21  1  0
 22 20  2  0
M  END
$$$$
