TWK.pdb
     RDKit          3D

 31 32  0  0  1  0  0  0  0  0999 V2000
    7.8915  -17.9285   20.3363 C   0  0  0  0  0  0  0  0  0  0  0  0
    7.5982  -16.5608   19.7837 C   0  0  1  0  0  0  0  0  0  0  0  0
    6.8423  -16.6336   18.6257 O   0  0  0  0  0  0  0  0  0  0  0  0
    6.9587  -15.6789   20.8372 C   0  0  2  0  0  0  0  0  0  0  0  0
    6.4505  -14.4609   20.2849 N   0  0  0  0  0  0  0  0  0  0  0  0
    8.0215  -15.3644   21.8535 C   0  0  0  0  0  0  0  0  0  0  0  0
    8.7944  -14.4299   21.5981 O   0  0  0  0  0  0  0  0  0  0  0  0
    8.1023  -16.1266   23.0383 N   0  0  0  0  0  0  0  0  0  0  0  0
    9.0703  -15.9325   24.0858 C   0  0  1  0  0  0  0  0  0  0  0  0
    8.4102  -16.1663   25.4349 C   0  0  0  0  0  0  0  0  0  0  0  0
    7.4130  -15.1020   25.6953 C   0  0  0  0  0  0  0  0  0  0  0  0
    6.0566  -15.1309   25.7284 C   0  0  0  0  0  0  0  0  0  0  0  0
    5.5567  -13.8946   26.0122 N   0  0  0  0  0  0  0  0  0  0  0  0
    6.6037  -13.0774   26.1602 C   0  0  0  0  0  0  0  0  0  0  0  0
    6.6273  -11.7329   26.4542 C   0  0  0  0  0  0  0  0  0  0  0  0
    7.8393  -11.1036   26.5585 C   0  0  0  0  0  0  0  0  0  0  0  0
    9.0212  -11.7831   26.3770 C   0  0  0  0  0  0  0  0  0  0  0  0
    8.9867  -13.1459   26.0792 C   0  0  0  0  0  0  0  0  0  0  0  0
    7.7650  -13.7722   25.9754 C   0  0  0  0  0  0  0  0  0  0  0  0
   10.2358  -16.7818   23.8368 C   0  0  0  0  0  0  0  0  0  0  0  0
   10.1684  -18.0593   23.9057 O   0  0  0  0  0  0  0  0  0  0  0  0
   11.5272  -16.2789   23.5014 N   0  0  0  0  0  0  0  0  0  0  0  0
   12.6538  -17.1908   23.2389 C   0  0  1  0  0  0  0  0  0  0  0  0
   13.7534  -16.4760   22.5355 C   0  0  0  0  0  0  0  0  0  0  0  0
   14.9760  -17.3211   22.4020 C   0  0  0  0  0  0  0  0  0  0  0  0
   16.1049  -16.5767   21.6996 C   0  0  0  0  0  0  0  0  0  0  0  0
   17.2643  -17.5502   21.5803 C   0  0  0  0  0  0  0  0  0  0  0  0
   18.3450  -17.0125   20.7881 N   0  0  0  0  0  0  0  0  0  0  0  0
   13.0322  -17.7266   24.5656 C   0  0  0  0  0  0  0  0  0  0  0  0
   12.8322  -17.0756   25.6418 O   0  0  0  0  0  0  0  0  0  0  0  0
   13.6285  -18.9699   24.7600 O   0  0  0  0  0  0  0  0  0  0  0  0
  2  1  1  1
  3  2  1  0
  4  5  1  6
  4  6  1  0
  4  2  1  0
  6  8  1  0
  7  6  2  0
  8  9  1  0
  9 10  1  1
 10 11  1  0
 11 19  1  0
 11 12  2  0
 12 13  1  0
 14 13  1  0
 14 15  2  0
 16 15  1  0
 17 16  2  0
 18 19  2  0
 18 17  1  0
 19 14  1  0
 20 21  2  0
 20  9  1  0
 22 20  1  0
 23 24  1  1
 23 22  1  0
 25 26  1  0
 25 24  1  0
 27 26  1  0
 28 27  1  0
 29 23  1  0
 30 29  2  0
 31 29  1  0
M  END
$$$$
