TWK.pdb
     RDKit          3D

 31 32  0  0  1  0  0  0  0  0999 V2000
    6.6239  -17.9873   19.3173 C   0  0  0  0  0  0  0  0  0  0  0  0
    7.5611  -17.5556   20.4114 C   0  0  1  0  0  0  0  0  0  0  0  0
    8.8699  -17.4957   19.9630 O   0  0  0  0  0  0  0  0  0  0  0  0
    7.1021  -16.2514   21.0318 C   0  0  2  0  0  0  0  0  0  0  0  0
    7.1137  -15.1733   20.0914 N   0  0  0  0  0  0  0  0  0  0  0  0
    8.0470  -15.9434   22.1604 C   0  0  0  0  0  0  0  0  0  0  0  0
    8.9295  -15.0992   21.9495 O   0  0  0  0  0  0  0  0  0  0  0  0
    7.9011  -16.6106   23.3952 N   0  0  0  0  0  0  0  0  0  0  0  0
    8.7528  -16.4308   24.5416 C   0  0  1  0  0  0  0  0  0  0  0  0
    7.8995  -16.3296   25.7954 C   0  0  0  0  0  0  0  0  0  0  0  0
    7.0781  -15.0976   25.7437 C   0  0  0  0  0  0  0  0  0  0  0  0
    5.7878  -14.8934   25.3762 C   0  0  0  0  0  0  0  0  0  0  0  0
    5.4583  -13.5754   25.4921 N   0  0  0  0  0  0  0  0  0  0  0  0
    6.5473  -12.9410   25.9364 C   0  0  0  0  0  0  0  0  0  0  0  0
    6.7267  -11.6051   26.2154 C   0  0  0  0  0  0  0  0  0  0  0  0
    7.9496  -11.1860   26.6678 C   0  0  0  0  0  0  0  0  0  0  0  0
    8.9912  -12.0662   26.8467 C   0  0  0  0  0  0  0  0  0  0  0  0
    8.7994  -13.4184   26.5610 C   0  0  0  0  0  0  0  0  0  0  0  0
    7.5677  -13.8328   26.1063 C   0  0  0  0  0  0  0  0  0  0  0  0
    9.7487  -17.5023   24.5827 C   0  0  0  0  0  0  0  0  0  0  0  0
    9.4123  -18.7384   24.5758 O   0  0  0  0  0  0  0  0  0  0  0  0
   11.1557  -17.2766   24.6332 N   0  0  0  0  0  0  0  0  0  0  0  0
   12.1045  -18.4014   24.6986 C   0  0  1  0  0  0  0  0  0  0  0  0
   13.3537  -18.0768   23.9577 C   0  0  0  0  0  0  0  0  0  0  0  0
   13.0850  -17.7264   22.5323 C   0  0  0  0  0  0  0  0  0  0  0  0
   14.3701  -17.4210   21.7724 C   0  0  0  0  0  0  0  0  0  0  0  0
   13.9583  -16.8783   20.4152 C   0  0  0  0  0  0  0  0  0  0  0  0
   15.0991  -16.5471   19.5945 N   0  0  0  0  0  0  0  0  0  0  0  0
   12.3057  -18.6515   26.1434 C   0  0  0  0  0  0  0  0  0  0  0  0
   13.0140  -19.6194   26.5716 O   0  0  0  0  0  0  0  0  0  0  0  0
   11.7530  -17.8664   27.1520 O   0  0  0  0  0  0  0  0  0  0  0  0
  2  1  1  6
  3  2  1  0
  4  5  1  6
  4  6  1  0
  4  2  1  0
  6  8  1  0
  7  6  2  0
  8  9  1  0
  9 10  1  1
 10 11  1  0
 11 19  1  0
 11 12  2  0
 12 13  1  0
 14 13  1  0
 14 15  2  0
 16 15  1  0
 17 16  2  0
 18 19  2  0
 18 17  1  0
 19 14  1  0
 20 21  2  0
 20  9  1  0
 22 20  1  0
 23 24  1  1
 23 22  1  0
 25 26  1  0
 25 24  1  0
 27 26  1  0
 28 27  1  0
 29 23  1  0
 30 29  2  0
 31 29  1  0
M  END
$$$$
