TWK.pdb
     RDKit          3D

 31 32  0  0  1  0  0  0  0  0999 V2000
    7.2232  -17.1223   19.7789 C   0  0  0  0  0  0  0  0  0  0  0  0
    7.6538  -15.7539   19.3271 C   0  0  1  0  0  0  0  0  0  0  0  0
    7.1605  -15.4577   18.0675 O   0  0  0  0  0  0  0  0  0  0  0  0
    7.2822  -14.7045   20.3551 C   0  0  2  0  0  0  0  0  0  0  0  0
    7.3833  -13.3769   19.8314 N   0  0  0  0  0  0  0  0  0  0  0  0
    8.2326  -14.8624   21.5098 C   0  0  0  0  0  0  0  0  0  0  0  0
    9.3277  -14.2879   21.4283 O   0  0  0  0  0  0  0  0  0  0  0  0
    7.8548  -15.6421   22.6237 N   0  0  0  0  0  0  0  0  0  0  0  0
    8.6615  -15.8614   23.7954 C   0  0  1  0  0  0  0  0  0  0  0  0
    7.7625  -16.2051   24.9720 C   0  0  0  0  0  0  0  0  0  0  0  0
    6.9376  -15.0282   25.3321 C   0  0  0  0  0  0  0  0  0  0  0  0
    5.6010  -14.8086   25.2473 C   0  0  0  0  0  0  0  0  0  0  0  0
    5.2895  -13.5614   25.7017 N   0  0  0  0  0  0  0  0  0  0  0  0
    6.4366  -12.9877   26.0771 C   0  0  0  0  0  0  0  0  0  0  0  0
    6.6549  -11.7348   26.6038 C   0  0  0  0  0  0  0  0  0  0  0  0
    7.9365  -11.3670   26.9170 C   0  0  0  0  0  0  0  0  0  0  0  0
    8.9987  -12.2176   26.7172 C   0  0  0  0  0  0  0  0  0  0  0  0
    8.7671  -13.4856   26.1826 C   0  0  0  0  0  0  0  0  0  0  0  0
    7.4764  -13.8487   25.8697 C   0  0  0  0  0  0  0  0  0  0  0  0
    9.6780  -16.8735   23.5058 C   0  0  0  0  0  0  0  0  0  0  0  0
    9.7846  -17.4126   22.3486 O   0  0  0  0  0  0  0  0  0  0  0  0
   10.6244  -17.3443   24.4628 N   0  0  0  0  0  0  0  0  0  0  0  0
   11.7149  -18.2534   24.0701 C   0  0  1  0  0  0  0  0  0  0  0  0
   12.5873  -17.6141   23.0478 C   0  0  0  0  0  0  0  0  0  0  0  0
   12.0737  -17.8239   21.6625 C   0  0  0  0  0  0  0  0  0  0  0  0
   12.9610  -17.1517   20.6219 C   0  0  0  0  0  0  0  0  0  0  0  0
   13.0519  -18.1038   19.4424 C   0  0  0  0  0  0  0  0  0  0  0  0
   13.8832  -17.5796   18.3847 N   0  0  0  0  0  0  0  0  0  0  0  0
   12.4093  -18.5893   25.3332 C   0  0  0  0  0  0  0  0  0  0  0  0
   13.4315  -19.3483   25.3637 O   0  0  0  0  0  0  0  0  0  0  0  0
   12.0205  -18.1147   26.5834 O   0  0  0  0  0  0  0  0  0  0  0  0
  2  1  1  1
  3  2  1  0
  4  5  1  6
  4  6  1  0
  4  2  1  0
  6  8  1  0
  7  6  2  0
  8  9  1  0
  9 10  1  1
 10 11  1  0
 11 19  1  0
 11 12  2  0
 12 13  1  0
 14 13  1  0
 14 15  2  0
 16 15  1  0
 17 16  2  0
 18 19  2  0
 18 17  1  0
 19 14  1  0
 20 21  2  0
 20  9  1  0
 22 20  1  0
 23 24  1  6
 23 22  1  0
 25 26  1  0
 25 24  1  0
 27 26  1  0
 28 27  1  0
 29 23  1  0
 30 29  2  0
 31 29  1  0
M  END
$$$$
