TWK.pdb
     RDKit          3D

 31 32  0  0  1  0  0  0  0  0999 V2000
   10.3767  -19.7285   19.6329 C   0  0  0  0  0  0  0  0  0  0  0  0
   10.5737  -19.0518   20.9616 C   0  0  1  0  0  0  0  0  0  0  0  0
   11.9027  -19.0750   21.3500 O   0  0  0  0  0  0  0  0  0  0  0  0
   10.0012  -17.6488   20.9427 C   0  0  2  0  0  0  0  0  0  0  0  0
   10.6833  -16.8004   20.0145 N   0  0  0  0  0  0  0  0  0  0  0  0
   10.1487  -17.0937   22.3325 C   0  0  0  0  0  0  0  0  0  0  0  0
   11.2290  -16.5586   22.6199 O   0  0  0  0  0  0  0  0  0  0  0  0
    9.0761  -17.1977   23.2436 N   0  0  0  0  0  0  0  0  0  0  0  0
    9.0835  -16.7011   24.5946 C   0  0  1  0  0  0  0  0  0  0  0  0
    7.6881  -16.2272   24.9675 C   0  0  0  0  0  0  0  0  0  0  0  0
    7.4478  -14.8810   24.3972 C   0  0  0  0  0  0  0  0  0  0  0  0
    7.3280  -14.4580   23.1133 C   0  0  0  0  0  0  0  0  0  0  0  0
    7.1085  -13.1130   23.0693 N   0  0  0  0  0  0  0  0  0  0  0  0
    7.0887  -12.6817   24.3340 C   0  0  0  0  0  0  0  0  0  0  0  0
    6.9000  -11.4075   24.8191 C   0  0  0  0  0  0  0  0  0  0  0  0
    6.9196  -11.2099   26.1743 C   0  0  0  0  0  0  0  0  0  0  0  0
    7.1223  -12.2504   27.0505 C   0  0  0  0  0  0  0  0  0  0  0  0
    7.3128  -13.5385   26.5489 C   0  0  0  0  0  0  0  0  0  0  0  0
    7.2922  -13.7299   25.1856 C   0  0  0  0  0  0  0  0  0  0  0  0
    9.6241  -17.7259   25.4885 C   0  0  0  0  0  0  0  0  0  0  0  0
    9.1994  -18.9344   25.4664 O   0  0  0  0  0  0  0  0  0  0  0  0
   10.6514  -17.4816   26.4467 N   0  0  0  0  0  0  0  0  0  0  0  0
   11.1311  -18.5525   27.3371 C   0  0  1  0  0  0  0  0  0  0  0  0
   12.6110  -18.6832   27.2491 C   0  0  0  0  0  0  0  0  0  0  0  0
   13.0398  -19.3644   25.9926 C   0  0  0  0  0  0  0  0  0  0  0  0
   14.5540  -19.5197   25.9212 C   0  0  0  0  0  0  0  0  0  0  0  0
   14.8714  -20.0976   24.5532 C   0  0  0  0  0  0  0  0  0  0  0  0
   16.2926  -20.1561   24.3053 N   0  0  0  0  0  0  0  0  0  0  0  0
   10.6352  -18.1854   28.6823 C   0  0  0  0  0  0  0  0  0  0  0  0
   10.1818  -17.0244   28.9441 O   0  0  0  0  0  0  0  0  0  0  0  0
   10.6150  -19.0577   29.7676 O   0  0  0  0  0  0  0  0  0  0  0  0
  2  1  1  6
  3  2  1  0
  4  5  1  6
  4  6  1  0
  4  2  1  0
  6  8  1  0
  7  6  2  0
  8  9  1  0
  9 10  1  1
 10 11  1  0
 11 19  1  0
 11 12  2  0
 12 13  1  0
 14 13  1  0
 14 15  2  0
 16 15  1  0
 17 16  2  0
 18 19  2  0
 18 17  1  0
 19 14  1  0
 20 21  2  0
 20  9  1  0
 22 20  1  0
 23 24  1  1
 23 22  1  0
 25 26  1  0
 25 24  1  0
 27 26  1  0
 28 27  1  0
 29 23  1  0
 30 29  2  0
 31 29  1  0
M  END
$$$$
