TWK.pdb
     RDKit          3D

 31 32  0  0  1  0  0  0  0  0999 V2000
    7.7174  -19.3795   20.2807 C   0  0  0  0  0  0  0  0  0  0  0  0
    8.1226  -18.4920   19.1361 C   0  0  1  0  0  0  0  0  0  0  0  0
    7.8023  -19.0617   17.9152 O   0  0  0  0  0  0  0  0  0  0  0  0
    7.5385  -17.1030   19.2971 C   0  0  2  0  0  0  0  0  0  0  0  0
    7.7604  -16.2875   18.1428 N   0  0  0  0  0  0  0  0  0  0  0  0
    8.2086  -16.4783   20.4896 C   0  0  0  0  0  0  0  0  0  0  0  0
    9.3521  -16.0283   20.3289 O   0  0  0  0  0  0  0  0  0  0  0  0
    7.5287  -16.4260   21.7250 N   0  0  0  0  0  0  0  0  0  0  0  0
    8.0611  -15.8735   22.9428 C   0  0  1  0  0  0  0  0  0  0  0  0
    6.9321  -15.6599   23.9380 C   0  0  0  0  0  0  0  0  0  0  0  0
    7.4794  -15.1338   25.2103 C   0  0  0  0  0  0  0  0  0  0  0  0
    8.1953  -15.7325   26.1956 C   0  0  0  0  0  0  0  0  0  0  0  0
    8.4837  -14.8430   27.1880 N   0  0  0  0  0  0  0  0  0  0  0  0
    7.9471  -13.6732   26.8283 C   0  0  0  0  0  0  0  0  0  0  0  0
    7.9626  -12.4656   27.4886 C   0  0  0  0  0  0  0  0  0  0  0  0
    7.3369  -11.3923   26.9119 C   0  0  0  0  0  0  0  0  0  0  0  0
    6.6999  -11.4977   25.6975 C   0  0  0  0  0  0  0  0  0  0  0  0
    6.6897  -12.7262   25.0360 C   0  0  0  0  0  0  0  0  0  0  0  0
    7.3202  -13.8010   25.6215 C   0  0  0  0  0  0  0  0  0  0  0  0
    9.1384  -16.7313   23.4380 C   0  0  0  0  0  0  0  0  0  0  0  0
    9.0197  -18.0060   23.4856 O   0  0  0  0  0  0  0  0  0  0  0  0
   10.3935  -16.2403   23.9035 N   0  0  0  0  0  0  0  0  0  0  0  0
   11.5481  -17.1400   24.0689 C   0  0  1  0  0  0  0  0  0  0  0  0
   12.5348  -16.9327   22.9743 C   0  0  0  0  0  0  0  0  0  0  0  0
   13.7136  -17.8385   23.1034 C   0  0  0  0  0  0  0  0  0  0  0  0
   14.7166  -17.6267   21.9758 C   0  0  0  0  0  0  0  0  0  0  0  0
   15.8362  -18.6297   22.1909 C   0  0  0  0  0  0  0  0  0  0  0  0
   16.8395  -18.5533   21.1554 N   0  0  0  0  0  0  0  0  0  0  0  0
   12.0739  -16.8465   25.4209 C   0  0  0  0  0  0  0  0  0  0  0  0
   13.2783  -16.4810   25.6151 O   0  0  0  0  0  0  0  0  0  0  0  0
   11.3163  -16.9377   26.5857 O   0  0  0  0  0  0  0  0  0  0  0  0
  2  1  1  1
  3  2  1  0
  4  5  1  6
  4  6  1  0
  4  2  1  0
  6  8  1  0
  7  6  2  0
  8  9  1  0
  9 10  1  1
 10 11  1  0
 11 19  1  0
 11 12  2  0
 12 13  1  0
 14 13  1  0
 14 15  2  0
 16 15  1  0
 17 16  2  0
 18 19  2  0
 18 17  1  0
 19 14  1  0
 20 21  2  0
 20  9  1  0
 22 20  1  0
 23 24  1  6
 23 22  1  0
 25 26  1  0
 25 24  1  0
 27 26  1  0
 28 27  1  0
 29 23  1  0
 30 29  2  0
 31 29  1  0
M  END
$$$$
