SNS.pdb
     RDKit          3D

 21 20  0  0  1  0  0  0  0  0999 V2000
    8.3034  -14.7389   17.5654 O   0  0  0  0  0  0  0  0  0  0  0  0
    9.2268  -14.0751   16.7748 C   0  0  0  0  0  0  0  0  0  0  0  0
   10.1834  -15.0282   16.0988 C   0  0  2  0  0  0  0  0  0  0  0  0
    9.4668  -15.8243   15.1581 N   0  0  0  0  0  0  0  0  0  0  0  0
   10.8823  -15.9038   17.0655 C   0  0  0  0  0  0  0  0  0  0  0  0
   10.5429  -17.1070   17.2501 O   0  0  0  0  0  0  0  0  0  0  0  0
   14.7347  -18.5758   18.0335 N   0  0  0  0  0  0  0  0  0  0  0  0
   14.5608  -17.2144   17.5648 C   0  0  0  0  0  0  0  0  0  0  0  0
   14.7616  -17.0788   16.3386 O   0  0  0  0  0  0  0  0  0  0  0  0
   14.1826  -16.1706   18.5287 C   0  0  0  0  0  0  0  0  0  0  0  0
   12.7362  -16.1477   18.7823 C   0  0  2  0  0  0  0  0  0  0  0  0
   11.9607  -15.4002   17.8133 N   0  0  0  0  0  0  0  0  0  0  0  0
   12.4412  -15.5942   20.1232 C   0  0  0  0  0  0  0  0  0  0  0  0
   12.7041  -14.4400   20.5270 O   0  0  0  0  0  0  0  0  0  0  0  0
    9.1362  -15.5675   21.6814 O   0  0  0  0  0  0  0  0  0  0  0  0
    9.9287  -16.2672   22.6172 C   0  0  0  0  0  0  0  0  0  0  0  0
   11.4030  -15.8919   22.4204 C   0  0  2  0  0  0  0  0  0  0  0  0
   11.7825  -16.4194   21.1207 N   0  0  0  0  0  0  0  0  0  0  0  0
   12.1638  -16.5106   23.5058 C   0  0  0  0  0  0  0  0  0  0  0  0
   12.9751  -17.4245   23.2583 O   0  0  0  0  0  0  0  0  0  0  0  0
   11.9828  -16.0810   24.8071 O   0  0  0  0  0  0  0  0  0  0  0  0
  2  1  1  0
  3  2  1  0
  3  4  1  6
  3  5  1  0
  5  6  2  0
  8  7  1  0
  8 10  1  0
  9  8  2  0
 11 10  1  6
 11 13  1  0
 12  5  1  0
 12 11  1  0
 13 18  1  0
 13 14  2  0
 15 16  1  0
 17 16  1  1
 17 19  1  0
 18 17  1  0
 19 20  2  0
 19 21  1  0
M  END
$$$$
