SNS.pdb
     RDKit          3D

 21 20  0  0  1  0  0  0  0  0999 V2000
    7.7031  -13.9978   17.7497 O   0  0  0  0  0  0  0  0  0  0  0  0
    8.4551  -13.2526   16.8567 C   0  0  0  0  0  0  0  0  0  0  0  0
    9.4058  -14.1134   16.0596 C   0  0  2  0  0  0  0  0  0  0  0  0
    8.6558  -15.0142   15.2482 N   0  0  0  0  0  0  0  0  0  0  0  0
   10.3353  -14.8742   16.9240 C   0  0  0  0  0  0  0  0  0  0  0  0
   10.1667  -16.1009   17.1765 O   0  0  0  0  0  0  0  0  0  0  0  0
   15.5660  -16.3125   18.0644 N   0  0  0  0  0  0  0  0  0  0  0  0
   14.7912  -15.3209   18.7852 C   0  0  0  0  0  0  0  0  0  0  0  0
   15.0426  -15.2836   20.0090 O   0  0  0  0  0  0  0  0  0  0  0  0
   13.8284  -14.4917   18.0454 C   0  0  0  0  0  0  0  0  0  0  0  0
   12.4376  -14.8548   18.3465 C   0  0  2  0  0  0  0  0  0  0  0  0
   11.4475  -14.2300   17.4929 N   0  0  0  0  0  0  0  0  0  0  0  0
   12.0962  -14.5299   19.7498 C   0  0  0  0  0  0  0  0  0  0  0  0
   12.1245  -13.3976   20.2803 O   0  0  0  0  0  0  0  0  0  0  0  0
    9.6085  -16.9335   21.6475 O   0  0  0  0  0  0  0  0  0  0  0  0
    9.8507  -15.6535   22.1917 C   0  0  0  0  0  0  0  0  0  0  0  0
   11.3380  -15.3083   22.0439 C   0  0  2  0  0  0  0  0  0  0  0  0
   11.6793  -15.5835   20.6586 N   0  0  0  0  0  0  0  0  0  0  0  0
   12.0824  -16.1605   22.9709 C   0  0  0  0  0  0  0  0  0  0  0  0
   11.9659  -15.9962   24.2014 O   0  0  0  0  0  0  0  0  0  0  0  0
   12.9156  -17.1489   22.4815 O   0  0  0  0  0  0  0  0  0  0  0  0
  2  1  1  0
  3  2  1  0
  3  4  1  1
  3  5  1  0
  5  6  2  0
  8  7  1  0
  8 10  1  0
  9  8  2  0
 11 10  1  6
 11 13  1  0
 12  5  1  0
 12 11  1  0
 13 18  1  0
 13 14  2  0
 15 16  1  0
 17 16  1  6
 17 19  1  0
 18 17  1  0
 19 20  2  0
 19 21  1  0
M  END
$$$$
