SNS.pdb
     RDKit          3D

 21 20  0  0  1  0  0  0  0  0999 V2000
    5.9103  -15.2864   11.9735 O   0  0  0  0  0  0  0  0  0  0  0  0
    5.9943  -15.9466   13.1882 C   0  0  0  0  0  0  0  0  0  0  0  0
    6.5073  -17.3582   13.0318 C   0  0  2  0  0  0  0  0  0  0  0  0
    5.5347  -18.1374   12.3397 N   0  0  0  0  0  0  0  0  0  0  0  0
    6.8212  -17.9901   14.3325 C   0  0  0  0  0  0  0  0  0  0  0  0
    5.9674  -18.6639   14.9760 O   0  0  0  0  0  0  0  0  0  0  0  0
   11.7016  -19.2290   14.4990 N   0  0  0  0  0  0  0  0  0  0  0  0
   10.5069  -19.5682   15.2480 C   0  0  0  0  0  0  0  0  0  0  0  0
   10.0237  -20.6794   14.9411 O   0  0  0  0  0  0  0  0  0  0  0  0
    9.9995  -18.6197   16.2503 C   0  0  0  0  0  0  0  0  0  0  0  0
    8.5483  -18.4221   16.1421 C   0  0  2  0  0  0  0  0  0  0  0  0
    8.1045  -17.8477   14.8882 N   0  0  0  0  0  0  0  0  0  0  0  0
    8.0467  -17.5620   17.2375 C   0  0  0  0  0  0  0  0  0  0  0  0
    8.0557  -16.3116   17.2665 O   0  0  0  0  0  0  0  0  0  0  0  0
    5.5643  -19.2668   19.8838 O   0  0  0  0  0  0  0  0  0  0  0  0
    5.5646  -17.8561   19.8285 C   0  0  0  0  0  0  0  0  0  0  0  0
    6.9847  -17.3564   19.5339 C   0  0  2  0  0  0  0  0  0  0  0  0
    7.4743  -18.1636   18.4293 N   0  0  0  0  0  0  0  0  0  0  0  0
    7.7798  -17.5482   20.7467 C   0  0  0  0  0  0  0  0  0  0  0  0
    8.7173  -18.3701   20.7557 O   0  0  0  0  0  0  0  0  0  0  0  0
    7.4910  -16.8168   21.8836 O   0  0  0  0  0  0  0  0  0  0  0  0
  2  1  1  0
  3  2  1  0
  3  4  1  1
  3  5  1  0
  5  6  2  0
  8  7  1  0
  8 10  1  0
  9  8  2  0
 11 10  1  6
 11 13  1  0
 12  5  1  0
 12 11  1  0
 13 18  1  0
 13 14  2  0
 15 16  1  0
 17 16  1  1
 17 19  1  0
 18 17  1  0
 19 20  2  0
 19 21  1  0
M  END
$$$$
