SNS.pdb
     RDKit          3D

 21 20  0  0  1  0  0  0  0  0999 V2000
   11.1901  -22.6427   20.7256 O   0  0  0  0  0  0  0  0  0  0  0  0
   11.1686  -22.9241   22.0815 C   0  0  0  0  0  0  0  0  0  0  0  0
   10.0613  -22.1867   22.7960 C   0  0  2  0  0  0  0  0  0  0  0  0
    9.3456  -21.3890   21.8560 N   0  0  0  0  0  0  0  0  0  0  0  0
   10.5701  -21.3327   23.8922 C   0  0  0  0  0  0  0  0  0  0  0  0
   10.7586  -20.0918   23.7454 O   0  0  0  0  0  0  0  0  0  0  0  0
   12.0043  -21.3983   29.8180 N   0  0  0  0  0  0  0  0  0  0  0  0
   11.5810  -20.6916   28.6243 C   0  0  0  0  0  0  0  0  0  0  0  0
   11.8604  -19.4734   28.6396 O   0  0  0  0  0  0  0  0  0  0  0  0
   10.8956  -21.4375   27.5587 C   0  0  0  0  0  0  0  0  0  0  0  0
   11.5167  -21.2243   26.2450 C   0  0  2  0  0  0  0  0  0  0  0  0
   10.8600  -21.9006   25.1448 N   0  0  0  0  0  0  0  0  0  0  0  0
   12.9357  -21.6459   26.2542 C   0  0  0  0  0  0  0  0  0  0  0  0
   13.3981  -22.6941   26.7559 O   0  0  0  0  0  0  0  0  0  0  0  0
   15.4182  -19.4006   23.9880 O   0  0  0  0  0  0  0  0  0  0  0  0
   15.8642  -20.7204   24.2172 C   0  0  0  0  0  0  0  0  0  0  0  0
   15.3419  -21.2079   25.5746 C   0  0  2  0  0  0  0  0  0  0  0  0
   13.9471  -20.8054   25.6374 N   0  0  0  0  0  0  0  0  0  0  0  0
   16.1451  -20.5630   26.6133 C   0  0  0  0  0  0  0  0  0  0  0  0
   17.3387  -20.8868   26.7713 O   0  0  0  0  0  0  0  0  0  0  0  0
   15.5796  -19.5932   27.4199 O   0  0  0  0  0  0  0  0  0  0  0  0
  2  1  1  0
  3  2  1  0
  3  4  1  6
  3  5  1  0
  5  6  2  0
  8  7  1  0
  8 10  1  0
  9  8  2  0
 11 10  1  1
 11 13  1  0
 12  5  1  0
 12 11  1  0
 13 18  1  0
 13 14  2  0
 15 16  1  0
 17 16  1  6
 17 19  1  0
 18 17  1  0
 19 20  2  0
 19 21  1  0
M  END
$$$$
