SNS.pdb
     RDKit          3D

 21 20  0  0  1  0  0  0  0  0999 V2000
   13.4509  -18.2339   14.2676 O   0  0  0  0  0  0  0  0  0  0  0  0
   12.1257  -18.1084   14.6500 C   0  0  0  0  0  0  0  0  0  0  0  0
   11.6397  -16.6820   14.5508 C   0  0  2  0  0  0  0  0  0  0  0  0
   11.7206  -16.2517   13.1941 N   0  0  0  0  0  0  0  0  0  0  0  0
   12.4135  -15.7627   15.4143 C   0  0  0  0  0  0  0  0  0  0  0  0
   12.9763  -14.7268   14.9590 O   0  0  0  0  0  0  0  0  0  0  0  0
   10.0813  -15.3731   19.4721 N   0  0  0  0  0  0  0  0  0  0  0  0
   11.2530  -14.5715   19.1755 C   0  0  0  0  0  0  0  0  0  0  0  0
   10.9984  -13.3602   19.0016 O   0  0  0  0  0  0  0  0  0  0  0  0
   12.5677  -15.2262   19.1100 C   0  0  0  0  0  0  0  0  0  0  0  0
   13.1548  -15.1580   17.7656 C   0  0  2  0  0  0  0  0  0  0  0  0
   12.5394  -16.0325   16.7880 N   0  0  0  0  0  0  0  0  0  0  0  0
   14.6022  -15.4666   17.8023 C   0  0  0  0  0  0  0  0  0  0  0  0
   15.1196  -16.5946   17.9580 O   0  0  0  0  0  0  0  0  0  0  0  0
   17.1746  -12.2612   17.7279 O   0  0  0  0  0  0  0  0  0  0  0  0
   17.6739  -13.4122   17.0804 C   0  0  0  0  0  0  0  0  0  0  0  0
   17.0057  -14.6608   17.6700 C   0  0  2  0  0  0  0  0  0  0  0  0
   15.5764  -14.4000   17.6495 N   0  0  0  0  0  0  0  0  0  0  0  0
   17.5119  -14.8299   19.0320 C   0  0  0  0  0  0  0  0  0  0  0  0
   16.7371  -14.7285   20.0036 O   0  0  0  0  0  0  0  0  0  0  0  0
   18.8508  -15.1026   19.2413 O   0  0  0  0  0  0  0  0  0  0  0  0
  2  1  1  0
  3  2  1  0
  3  4  1  6
  3  5  1  0
  5  6  2  0
  8  7  1  0
  8 10  1  0
  9  8  2  0
 11 10  1  1
 11 13  1  0
 12  5  1  0
 12 11  1  0
 13 18  1  0
 13 14  2  0
 15 16  1  0
 17 16  1  1
 17 19  1  0
 18 17  1  0
 19 20  2  0
 19 21  1  0
M  END
$$$$
