SNS.pdb
     RDKit          3D

 21 20  0  0  1  0  0  0  0  0999 V2000
    7.8551  -12.1417   19.6369 O   0  0  0  0  0  0  0  0  0  0  0  0
    8.8760  -13.0725   19.5391 C   0  0  0  0  0  0  0  0  0  0  0  0
    8.3517  -14.4884   19.5145 C   0  0  2  0  0  0  0  0  0  0  0  0
    7.3299  -14.5937   18.5260 N   0  0  0  0  0  0  0  0  0  0  0  0
    7.8224  -14.9153   20.8287 C   0  0  0  0  0  0  0  0  0  0  0  0
    6.5831  -14.9623   21.0712 O   0  0  0  0  0  0  0  0  0  0  0  0
    9.6050  -17.8951   25.8134 N   0  0  0  0  0  0  0  0  0  0  0  0
    8.5678  -17.5016   24.8791 C   0  0  0  0  0  0  0  0  0  0  0  0
    7.4136  -17.5796   25.3524 O   0  0  0  0  0  0  0  0  0  0  0  0
    8.9517  -17.0684   23.5276 C   0  0  0  0  0  0  0  0  0  0  0  0
    8.3286  -15.7912   23.1568 C   0  0  2  0  0  0  0  0  0  0  0  0
    8.7100  -15.2839   21.8544 N   0  0  0  0  0  0  0  0  0  0  0  0
    8.6305  -14.7432   24.1578 C   0  0  0  0  0  0  0  0  0  0  0  0
    9.7444  -14.2161   24.3716 O   0  0  0  0  0  0  0  0  0  0  0  0
    5.4961  -13.4169   26.5619 O   0  0  0  0  0  0  0  0  0  0  0  0
    6.4989  -12.4801   26.2301 C   0  0  0  0  0  0  0  0  0  0  0  0
    7.8307  -13.2109   26.0168 C   0  0  2  0  0  0  0  0  0  0  0  0
    7.5745  -14.2294   25.0126 N   0  0  0  0  0  0  0  0  0  0  0  0
    8.2240  -13.7936   27.2996 C   0  0  0  0  0  0  0  0  0  0  0  0
    8.2162  -15.0310   27.4524 O   0  0  0  0  0  0  0  0  0  0  0  0
    8.6049  -12.9708   28.3430 O   0  0  0  0  0  0  0  0  0  0  0  0
  2  1  1  0
  3  2  1  0
  3  4  1  6
  3  5  1  0
  5  6  2  0
  8  7  1  0
  8 10  1  0
  9  8  2  0
 11 10  1  1
 11 13  1  0
 12  5  1  0
 12 11  1  0
 13 18  1  0
 13 14  2  0
 15 16  1  0
 17 16  1  1
 17 19  1  0
 18 17  1  0
 19 20  2  0
 19 21  1  0
M  END
$$$$
