SNS.pdb
     RDKit          3D

 21 20  0  0  1  0  0  0  0  0999 V2000
   11.7048  -18.2546   13.6153 O   0  0  0  0  0  0  0  0  0  0  0  0
   10.3273  -18.1172   13.5707 C   0  0  0  0  0  0  0  0  0  0  0  0
    9.9068  -16.6788   13.3851 C   0  0  2  0  0  0  0  0  0  0  0  0
   10.4901  -16.1698   12.1881 N   0  0  0  0  0  0  0  0  0  0  0  0
   10.2937  -15.8271   14.5317 C   0  0  0  0  0  0  0  0  0  0  0  0
   11.3536  -15.1389   14.5303 O   0  0  0  0  0  0  0  0  0  0  0  0
    8.3679  -12.5418   18.8650 N   0  0  0  0  0  0  0  0  0  0  0  0
    8.8213  -13.9194   18.8709 C   0  0  0  0  0  0  0  0  0  0  0  0
    9.4375  -14.2379   19.9107 O   0  0  0  0  0  0  0  0  0  0  0  0
    8.5283  -14.7722   17.7096 C   0  0  0  0  0  0  0  0  0  0  0  0
    9.6926  -14.9278   16.8281 C   0  0  2  0  0  0  0  0  0  0  0  0
    9.4699  -15.7682   15.6691 N   0  0  0  0  0  0  0  0  0  0  0  0
   10.8503  -15.4762   17.5700 C   0  0  0  0  0  0  0  0  0  0  0  0
   11.1075  -16.6852   17.7614 O   0  0  0  0  0  0  0  0  0  0  0  0
   15.2865  -14.4549   19.2592 O   0  0  0  0  0  0  0  0  0  0  0  0
   14.0599  -13.9766   18.7495 C   0  0  0  0  0  0  0  0  0  0  0  0
   12.9945  -15.0740   18.8677 C   0  0  2  0  0  0  0  0  0  0  0  0
   11.8251  -14.5771   18.1627 N   0  0  0  0  0  0  0  0  0  0  0  0
   12.7293  -15.2790   20.2916 C   0  0  0  0  0  0  0  0  0  0  0  0
   11.6629  -14.8722   20.7934 O   0  0  0  0  0  0  0  0  0  0  0  0
   13.6624  -15.9249   21.0810 O   0  0  0  0  0  0  0  0  0  0  0  0
  2  1  1  0
  3  2  1  0
  3  4  1  6
  3  5  1  0
  5  6  2  0
  8  7  1  0
  8 10  1  0
  9  8  2  0
 11 10  1  1
 11 13  1  0
 12  5  1  0
 12 11  1  0
 13 18  1  0
 13 14  2  0
 15 16  1  0
 17 16  1  1
 17 19  1  0
 18 17  1  0
 19 20  2  0
 19 21  1  0
M  END
$$$$
