SNS.pdb
     RDKit          3D

 21 20  0  0  1  0  0  0  0  0999 V2000
   11.8849  -19.1556   15.8632 O   0  0  0  0  0  0  0  0  0  0  0  0
   11.5265  -18.9378   17.1832 C   0  0  0  0  0  0  0  0  0  0  0  0
   10.3907  -19.8332   17.6174 C   0  0  2  0  0  0  0  0  0  0  0  0
    9.3124  -19.7052   16.6937 N   0  0  0  0  0  0  0  0  0  0  0  0
    9.9184  -19.5201   18.9844 C   0  0  0  0  0  0  0  0  0  0  0  0
    8.9969  -18.6832   19.2020 O   0  0  0  0  0  0  0  0  0  0  0  0
    9.6572  -23.4677   21.4677 N   0  0  0  0  0  0  0  0  0  0  0  0
    9.2279  -22.1873   21.9964 C   0  0  0  0  0  0  0  0  0  0  0  0
    7.9883  -22.0902   22.1246 O   0  0  0  0  0  0  0  0  0  0  0  0
   10.2413  -21.1715   22.3170 C   0  0  0  0  0  0  0  0  0  0  0  0
   10.1138  -19.9757   21.4740 C   0  0  2  0  0  0  0  0  0  0  0  0
   10.5010  -20.1628   20.0904 N   0  0  0  0  0  0  0  0  0  0  0  0
   10.9107  -18.8541   22.0200 C   0  0  0  0  0  0  0  0  0  0  0  0
   12.1160  -18.6140   21.7874 O   0  0  0  0  0  0  0  0  0  0  0  0
   10.0186  -15.3070   21.8520 O   0  0  0  0  0  0  0  0  0  0  0  0
   10.1573  -15.5357   23.2383 C   0  0  0  0  0  0  0  0  0  0  0  0
   11.0359  -16.7722   23.4670 C   0  0  2  0  0  0  0  0  0  0  0  0
   10.2952  -17.8982   22.9241 N   0  0  0  0  0  0  0  0  0  0  0  0
   11.2490  -16.9008   24.9085 C   0  0  0  0  0  0  0  0  0  0  0  0
   10.7533  -17.8612   25.5301 O   0  0  0  0  0  0  0  0  0  0  0  0
   12.0011  -15.9563   25.5815 O   0  0  0  0  0  0  0  0  0  0  0  0
  2  1  1  0
  3  2  1  0
  3  4  1  6
  3  5  1  0
  5  6  2  0
  8  7  1  0
  8 10  1  0
  9  8  2  0
 11 10  1  1
 11 13  1  0
 12  5  1  0
 12 11  1  0
 13 18  1  0
 13 14  2  0
 15 16  1  0
 17 16  1  1
 17 19  1  0
 18 17  1  0
 19 20  2  0
 19 21  1  0
M  END
$$$$
