SNS.pdb
     RDKit          3D

 21 20  0  0  1  0  0  0  0  0999 V2000
   14.6817  -17.2345   17.7909 O   0  0  0  0  0  0  0  0  0  0  0  0
   14.8108  -18.5538   17.3899 C   0  0  0  0  0  0  0  0  0  0  0  0
   13.4852  -19.1575   16.9914 C   0  0  2  0  0  0  0  0  0  0  0  0
   13.0238  -18.5305   15.7972 N   0  0  0  0  0  0  0  0  0  0  0  0
   12.4638  -19.0233   18.0537 C   0  0  0  0  0  0  0  0  0  0  0  0
   11.4728  -18.2475   17.9394 O   0  0  0  0  0  0  0  0  0  0  0  0
   10.9713  -21.3289   23.5559 N   0  0  0  0  0  0  0  0  0  0  0  0
   10.6024  -20.8887   22.2242 C   0  0  0  0  0  0  0  0  0  0  0  0
    9.4271  -20.4710   22.1439 O   0  0  0  0  0  0  0  0  0  0  0  0
   11.5970  -20.9706   21.1444 C   0  0  0  0  0  0  0  0  0  0  0  0
   11.6610  -19.7342   20.3546 C   0  0  2  0  0  0  0  0  0  0  0  0
   12.5815  -19.7737   19.2365 N   0  0  0  0  0  0  0  0  0  0  0  0
   12.0297  -18.5798   21.2048 C   0  0  0  0  0  0  0  0  0  0  0  0
   13.1832  -18.1386   21.4025 O   0  0  0  0  0  0  0  0  0  0  0  0
    9.7800  -15.3406   21.4815 O   0  0  0  0  0  0  0  0  0  0  0  0
   10.0505  -15.8276   22.7788 C   0  0  0  0  0  0  0  0  0  0  0  0
   11.3164  -16.6933   22.7462 C   0  0  2  0  0  0  0  0  0  0  0  0
   10.9989  -17.8392   21.9111 N   0  0  0  0  0  0  0  0  0  0  0  0
   11.6174  -17.0858   24.1229 C   0  0  0  0  0  0  0  0  0  0  0  0
   11.5264  -18.2810   24.4659 O   0  0  0  0  0  0  0  0  0  0  0  0
   12.0033  -16.1300   25.0438 O   0  0  0  0  0  0  0  0  0  0  0  0
  2  1  1  0
  3  2  1  0
  3  4  1  6
  3  5  1  0
  5  6  2  0
  8  7  1  0
  8 10  1  0
  9  8  2  0
 11 10  1  1
 11 13  1  0
 12  5  1  0
 12 11  1  0
 13 18  1  0
 13 14  2  0
 15 16  1  0
 17 16  1  1
 17 19  1  0
 18 17  1  0
 19 20  2  0
 19 21  1  0
M  END
$$$$
