SNS.pdb
     RDKit          3D

 21 20  0  0  1  0  0  0  0  0999 V2000
    8.6286  -15.4994   17.9088 O   0  0  0  0  0  0  0  0  0  0  0  0
    7.4488  -14.7784   17.9896 C   0  0  0  0  0  0  0  0  0  0  0  0
    7.6109  -13.5152   18.8010 C   0  0  2  0  0  0  0  0  0  0  0  0
    8.3966  -12.5814   18.0642 N   0  0  0  0  0  0  0  0  0  0  0  0
    8.2383  -13.7684   20.1171 C   0  0  0  0  0  0  0  0  0  0  0  0
    9.4343  -13.4445   20.3651 O   0  0  0  0  0  0  0  0  0  0  0  0
    7.0061  -16.2288   25.5165 N   0  0  0  0  0  0  0  0  0  0  0  0
    7.5194  -15.0582   24.8311 C   0  0  0  0  0  0  0  0  0  0  0  0
    8.4155  -14.4610   25.4656 O   0  0  0  0  0  0  0  0  0  0  0  0
    6.9650  -14.7001   23.5173 C   0  0  0  0  0  0  0  0  0  0  0  0
    7.9886  -14.7025   22.4642 C   0  0  2  0  0  0  0  0  0  0  0  0
    7.4973  -14.3889   21.1378 N   0  0  0  0  0  0  0  0  0  0  0  0
    8.6760  -16.0118   22.3952 C   0  0  0  0  0  0  0  0  0  0  0  0
    8.1812  -17.0933   22.0082 O   0  0  0  0  0  0  0  0  0  0  0  0
   12.6373  -15.9641   23.2710 O   0  0  0  0  0  0  0  0  0  0  0  0
   12.2357  -17.0682   22.4881 C   0  0  0  0  0  0  0  0  0  0  0  0
   10.7669  -17.3975   22.7841 C   0  0  2  0  0  0  0  0  0  0  0  0
   10.0653  -16.1252   22.8036 N   0  0  0  0  0  0  0  0  0  0  0  0
   10.7190  -18.0691   24.0827 C   0  0  0  0  0  0  0  0  0  0  0  0
   10.0835  -17.5595   25.0266 O   0  0  0  0  0  0  0  0  0  0  0  0
   11.3789  -19.2703   24.2627 O   0  0  0  0  0  0  0  0  0  0  0  0
  2  1  1  0
  3  2  1  0
  3  4  1  6
  3  5  1  0
  5  6  2  0
  8  7  1  0
  8 10  1  0
  9  8  2  0
 11 10  1  1
 11 13  1  0
 12  5  1  0
 12 11  1  0
 13 18  1  0
 13 14  2  0
 15 16  1  0
 17 16  1  1
 17 19  1  0
 18 17  1  0
 19 20  2  0
 19 21  1  0
M  END
$$$$
