HQD.pdb
     RDKit          3D

 28 28  0  0  1  0  0  0  0  0999 V2000
   27.4547  -18.3024  -16.7455 N   0  0  0  0  0  0  0  0  0  0  0  0
   26.7106  -17.7531  -15.6173 C   0  0  1  0  0  0  0  0  0  0  0  0
   25.7220  -16.7331  -16.1891 C   0  0  0  0  0  0  0  0  0  0  0  0
   26.4451  -15.5173  -16.6526 C   0  0  0  0  0  0  0  0  0  0  0  0
   26.7201  -15.1388  -17.9309 C   0  0  0  0  0  0  0  0  0  0  0  0
   27.3961  -13.9647  -17.8714 N   0  0  0  0  0  0  0  0  0  0  0  0
   27.5402  -13.6164  -16.5730 C   0  0  0  0  0  0  0  0  0  0  0  0
   26.9487  -14.5850  -15.8512 N   0  0  0  0  0  0  0  0  0  0  0  0
   25.8792  -18.8366  -15.0277 C   0  0  0  0  0  0  0  0  0  0  0  0
   25.2761  -19.5967  -15.8142 O   0  0  0  0  0  0  0  0  0  0  0  0
   26.1048  -20.5664   -9.0764 N   0  0  0  0  0  0  0  0  0  0  0  0
   24.9517  -21.3099   -9.4680 C   0  0  0  0  0  0  0  0  0  0  0  0
   24.4207  -22.0441   -8.5974 O   0  0  0  0  0  0  0  0  0  0  0  0
   24.4279  -21.1967  -10.8558 C   0  0  0  0  0  0  0  0  0  0  0  0
   25.2775  -20.2087  -11.5863 C   0  0  0  0  0  0  0  0  0  0  0  0
   24.9106  -20.0321  -13.0301 C   0  0  2  0  0  0  0  0  0  0  0  0
   25.7448  -19.0397  -13.6268 N   0  0  0  0  0  0  0  0  0  0  0  0
   23.4647  -19.7941  -13.2380 C   0  0  0  0  0  0  0  0  0  0  0  0
   23.0264  -18.6257  -13.3959 O   0  0  0  0  0  0  0  0  0  0  0  0
   22.4798  -20.7995  -13.2784 N   0  0  0  0  0  0  0  0  0  0  0  0
   21.1179  -20.6260  -13.5912 C   0  0  1  0  0  0  0  0  0  0  0  0
   20.7522  -19.7559  -14.7286 C   0  0  0  0  0  0  0  0  0  0  0  0
   19.2660  -19.6467  -14.9214 C   0  0  0  0  0  0  0  0  0  0  0  0
   18.4654  -19.5670  -13.9551 O   0  0  0  0  0  0  0  0  0  0  0  0
   20.4710  -21.9518  -13.7868 C   0  0  0  0  0  0  0  0  0  0  0  0
   19.0949  -22.0817  -13.6592 O   0  0  0  0  0  0  0  0  0  0  0  0
   18.6930  -19.6279  -16.1856 O   0  0  0  0  0  0  0  0  0  0  0  0
   21.1057  -23.0010  -14.0698 O   0  0  0  0  0  0  0  0  0  0  0  0
  2  9  1  0
  2  1  1  6
  3  4  1  0
  3  2  1  0
  4  8  1  0
  5  6  1  0
  5  4  2  0
  6  7  1  0
  7  8  2  0
  9 17  1  0
 10  9  2  0
 12 14  1  0
 12 11  1  0
 13 12  2  0
 16 15  1  1
 15 14  1  0
 17 16  1  0
 18 20  1  0
 18 16  1  0
 19 18  2  0
 21 20  1  0
 21 22  1  6
 23 27  1  0
 23 22  1  0
 24 23  2  0
 25 21  1  0
 26 25  1  0
 28 25  2  0
M  END
$$$$
