HQD.pdb
     RDKit          3D

 28 28  0  0  1  0  0  0  0  0999 V2000
   25.8464  -10.9852  -19.1770 N   0  0  0  0  0  0  0  0  0  0  0  0
   25.8100  -10.0919  -18.0242 C   0  0  1  0  0  0  0  0  0  0  0  0
   26.7304   -8.9111  -18.3456 C   0  0  0  0  0  0  0  0  0  0  0  0
   28.1543   -9.3444  -18.3187 C   0  0  0  0  0  0  0  0  0  0  0  0
   28.6571  -10.5586  -17.9640 C   0  0  0  0  0  0  0  0  0  0  0  0
   30.0055  -10.4943  -18.0930 N   0  0  0  0  0  0  0  0  0  0  0  0
   30.3383   -9.2563  -18.5223 C   0  0  0  0  0  0  0  0  0  0  0  0
   29.1855   -8.5755  -18.6513 N   0  0  0  0  0  0  0  0  0  0  0  0
   24.4412   -9.5201  -17.9131 C   0  0  0  0  0  0  0  0  0  0  0  0
   23.8865   -9.1373  -18.9647 O   0  0  0  0  0  0  0  0  0  0  0  0
   19.7318  -11.6575  -15.0820 N   0  0  0  0  0  0  0  0  0  0  0  0
   20.5306  -12.0935  -16.1808 C   0  0  0  0  0  0  0  0  0  0  0  0
   20.3120  -13.2483  -16.6252 O   0  0  0  0  0  0  0  0  0  0  0  0
   21.5688  -11.1933  -16.7510 C   0  0  0  0  0  0  0  0  0  0  0  0
   21.4977   -9.8924  -16.0201 C   0  0  0  0  0  0  0  0  0  0  0  0
   22.4385   -8.8449  -16.5379 C   0  0  2  0  0  0  0  0  0  0  0  0
   23.7488   -9.3933  -16.6777 N   0  0  0  0  0  0  0  0  0  0  0  0
   22.4016   -7.5906  -15.7532 C   0  0  0  0  0  0  0  0  0  0  0  0
   23.1969   -7.4136  -14.7948 O   0  0  0  0  0  0  0  0  0  0  0  0
   21.5175   -6.5197  -15.9860 N   0  0  0  0  0  0  0  0  0  0  0  0
   21.4682   -5.3046  -15.2762 C   0  0  1  0  0  0  0  0  0  0  0  0
   22.7014   -4.4990  -15.1541 C   0  0  0  0  0  0  0  0  0  0  0  0
   22.4584   -3.1583  -14.5207 C   0  0  0  0  0  0  0  0  0  0  0  0
   22.0753   -3.0355  -13.3294 O   0  0  0  0  0  0  0  0  0  0  0  0
   20.3937   -4.4377  -15.8316 C   0  0  0  0  0  0  0  0  0  0  0  0
   20.0297   -4.5476  -17.1666 O   0  0  0  0  0  0  0  0  0  0  0  0
   22.6451   -1.9748  -15.2218 O   0  0  0  0  0  0  0  0  0  0  0  0
   19.7695   -3.5816  -15.1525 O   0  0  0  0  0  0  0  0  0  0  0  0
  2  9  1  0
  2  1  1  6
  3  4  1  0
  3  2  1  0
  4  8  1  0
  5  6  1  0
  5  4  2  0
  6  7  1  0
  7  8  2  0
  9 17  1  0
 10  9  2  0
 12 14  1  0
 12 11  1  0
 13 12  2  0
 16 15  1  1
 15 14  1  0
 17 16  1  0
 18 20  1  0
 18 16  1  0
 19 18  2  0
 21 20  1  0
 21 22  1  6
 23 27  1  0
 23 22  1  0
 24 23  2  0
 25 21  1  0
 26 25  1  0
 28 25  2  0
M  END
$$$$
