HQD.pdb
     RDKit          3D

 28 28  0  0  1  0  0  0  0  0999 V2000
   18.6256  -13.7941  -17.6975 N   0  0  0  0  0  0  0  0  0  0  0  0
   17.9365  -12.7502  -16.9467 C   0  0  1  0  0  0  0  0  0  0  0  0
   18.1702  -13.0407  -15.4615 C   0  0  0  0  0  0  0  0  0  0  0  0
   17.3012  -14.1627  -15.0122 C   0  0  0  0  0  0  0  0  0  0  0  0
   16.3916  -14.8657  -15.7411 C   0  0  0  0  0  0  0  0  0  0  0  0
   15.8383  -15.7911  -14.9186 N   0  0  0  0  0  0  0  0  0  0  0  0
   16.3960  -15.6662  -13.6933 C   0  0  0  0  0  0  0  0  0  0  0  0
   17.2869  -14.6624  -13.7811 N   0  0  0  0  0  0  0  0  0  0  0  0
   18.6103  -11.4517  -17.2164 C   0  0  0  0  0  0  0  0  0  0  0  0
   19.8344  -11.4749  -17.4636 O   0  0  0  0  0  0  0  0  0  0  0  0
   17.9891   -7.6711  -20.9284 N   0  0  0  0  0  0  0  0  0  0  0  0
   18.3224   -6.5793  -20.0725 C   0  0  0  0  0  0  0  0  0  0  0  0
   18.6908   -5.5116  -20.6230 O   0  0  0  0  0  0  0  0  0  0  0  0
   18.2263   -6.7337  -18.5959 C   0  0  0  0  0  0  0  0  0  0  0  0
   17.6750   -8.0930  -18.3130 C   0  0  0  0  0  0  0  0  0  0  0  0
   18.5503   -8.9407  -17.4379 C   0  0  2  0  0  0  0  0  0  0  0  0
   17.9285  -10.2040  -17.2047 N   0  0  0  0  0  0  0  0  0  0  0  0
   18.9760   -8.2518  -16.1990 C   0  0  0  0  0  0  0  0  0  0  0  0
   18.1485   -8.0223  -15.2799 O   0  0  0  0  0  0  0  0  0  0  0  0
   20.2846   -7.8047  -15.9342 N   0  0  0  0  0  0  0  0  0  0  0  0
   20.6923   -7.0007  -14.8524 C   0  0  1  0  0  0  0  0  0  0  0  0
   21.7479   -5.9899  -15.0727 C   0  0  0  0  0  0  0  0  0  0  0  0
   22.1749   -5.3103  -13.8024 C   0  0  0  0  0  0  0  0  0  0  0  0
   21.7430   -5.6587  -12.6740 O   0  0  0  0  0  0  0  0  0  0  0  0
   19.5111   -6.3234  -14.2522 C   0  0  0  0  0  0  0  0  0  0  0  0
   18.8150   -5.3647  -14.9756 O   0  0  0  0  0  0  0  0  0  0  0  0
   23.0754   -4.2540  -13.8064 O   0  0  0  0  0  0  0  0  0  0  0  0
   19.0832   -6.5668  -13.0940 O   0  0  0  0  0  0  0  0  0  0  0  0
  2  9  1  0
  2  1  1  6
  3  4  1  0
  3  2  1  0
  4  8  1  0
  5  6  1  0
  5  4  2  0
  6  7  1  0
  7  8  2  0
  9 17  1  0
 10  9  2  0
 12 14  1  0
 12 11  1  0
 13 12  2  0
 16 15  1  1
 15 14  1  0
 17 16  1  0
 18 20  1  0
 18 16  1  0
 19 18  2  0
 21 20  1  0
 21 22  1  6
 23 27  1  0
 23 22  1  0
 24 23  2  0
 25 21  1  0
 26 25  1  0
 28 25  2  0
M  END
$$$$
