HQD.pdb
     RDKit          3D

 28 28  0  0  1  0  0  0  0  0999 V2000
   27.5292  -21.0410  -18.4745 N   0  0  0  0  0  0  0  0  0  0  0  0
   26.7699  -21.3761  -17.2747 C   0  0  1  0  0  0  0  0  0  0  0  0
   27.7861  -21.5968  -16.1507 C   0  0  0  0  0  0  0  0  0  0  0  0
   28.6150  -22.8005  -16.4334 C   0  0  0  0  0  0  0  0  0  0  0  0
   28.4563  -23.7159  -17.4283 C   0  0  0  0  0  0  0  0  0  0  0  0
   29.4432  -24.6365  -17.2958 N   0  0  0  0  0  0  0  0  0  0  0  0
   30.2067  -24.2989  -16.2323 C   0  0  0  0  0  0  0  0  0  0  0  0
   29.6759  -23.1720  -15.7251 N   0  0  0  0  0  0  0  0  0  0  0  0
   25.9732  -20.1859  -16.8726 C   0  0  0  0  0  0  0  0  0  0  0  0
   26.5783  -19.1009  -16.7431 O   0  0  0  0  0  0  0  0  0  0  0  0
   25.3962  -15.8408  -17.8533 N   0  0  0  0  0  0  0  0  0  0  0  0
   23.9973  -15.6704  -17.6302 C   0  0  0  0  0  0  0  0  0  0  0  0
   23.5551  -14.4943  -17.6383 O   0  0  0  0  0  0  0  0  0  0  0  0
   23.1292  -16.8567  -17.4012 C   0  0  0  0  0  0  0  0  0  0  0  0
   23.9852  -18.0766  -17.5043 C   0  0  0  0  0  0  0  0  0  0  0  0
   23.7508  -19.0847  -16.4184 C   0  0  2  0  0  0  0  0  0  0  0  0
   24.5723  -20.2319  -16.6332 N   0  0  0  0  0  0  0  0  0  0  0  0
   22.3198  -19.4085  -16.2241 C   0  0  0  0  0  0  0  0  0  0  0  0
   21.7055  -20.1152  -17.0640 O   0  0  0  0  0  0  0  0  0  0  0  0
   21.5372  -18.9809  -15.1344 N   0  0  0  0  0  0  0  0  0  0  0  0
   20.1815  -19.2854  -14.9060 C   0  0  1  0  0  0  0  0  0  0  0  0
   19.6434  -19.1607  -13.5351 C   0  0  0  0  0  0  0  0  0  0  0  0
   20.1867  -20.2051  -12.6012 C   0  0  0  0  0  0  0  0  0  0  0  0
   20.9418  -21.1313  -12.9924 O   0  0  0  0  0  0  0  0  0  0  0  0
   19.3226  -18.4873  -15.8224 C   0  0  0  0  0  0  0  0  0  0  0  0
   17.9989  -18.8503  -16.0298 O   0  0  0  0  0  0  0  0  0  0  0  0
   19.8819  -20.2034  -11.2470 O   0  0  0  0  0  0  0  0  0  0  0  0
   19.7255  -17.4705  -16.4448 O   0  0  0  0  0  0  0  0  0  0  0  0
  2  9  1  0
  2  1  1  6
  3  4  1  0
  3  2  1  0
  4  8  1  0
  5  6  1  0
  5  4  2  0
  6  7  1  0
  7  8  2  0
  9 17  1  0
 10  9  2  0
 12 14  1  0
 12 11  1  0
 13 12  2  0
 16 15  1  6
 15 14  1  0
 17 16  1  0
 18 20  1  0
 18 16  1  0
 19 18  2  0
 21 20  1  0
 21 22  1  1
 23 27  1  0
 23 22  1  0
 24 23  2  0
 25 21  1  0
 26 25  1  0
 28 25  2  0
M  END
$$$$
