IHI.pdb
     RDKit          3D

 27 27  0  0  1  0  0  0  0  0999 V2000
   28.6692  -20.7806  -15.8561 C   0  0  0  0  0  0  0  0  0  0  0  0
   27.2719  -20.1660  -15.7378 C   0  0  0  0  0  0  0  0  0  0  0  0
   27.0435  -19.6385  -14.3513 C   0  0  2  0  0  0  0  0  0  0  0  0
   27.6076  -18.2421  -14.1902 C   0  0  0  0  0  0  0  0  0  0  0  0
   27.4137  -20.5496  -13.2322 C   0  0  2  0  0  0  0  0  0  0  0  0
   26.7289  -21.8428  -13.4643 N   0  0  0  0  0  0  0  0  0  0  0  0
   26.9791  -20.0872  -11.8829 C   0  0  0  0  0  0  0  0  0  0  0  0
   27.4137  -18.9706  -11.5076 O   0  0  0  0  0  0  0  0  0  0  0  0
   26.1339  -20.7939  -11.0162 N   0  0  0  0  0  0  0  0  0  0  0  0
   25.6979  -20.5138   -9.6978 C   0  0  1  0  0  0  0  0  0  0  0  0
   24.2889  -20.9329   -9.3432 C   0  0  0  0  0  0  0  0  0  0  0  0
   23.2688  -20.5434  -10.3082 C   0  0  0  0  0  0  0  0  0  0  0  0
   23.5238  -19.8300  -11.4524 C   0  0  0  0  0  0  0  0  0  0  0  0
   22.3640  -19.6402  -12.1171 N   0  0  0  0  0  0  0  0  0  0  0  0
   21.3869  -20.2254  -11.4037 C   0  0  0  0  0  0  0  0  0  0  0  0
   21.9519  -20.7764  -10.2964 N   0  0  0  0  0  0  0  0  0  0  0  0
   26.6119  -20.8707   -8.6136 C   0  0  0  0  0  0  0  0  0  0  0  0
   27.2952  -21.9534   -8.7126 O   0  0  0  0  0  0  0  0  0  0  0  0
   30.9758  -19.4620   -5.2375 C   0  0  0  0  0  0  0  0  0  0  0  0
   29.5476  -19.8415   -4.9624 C   0  0  0  0  0  0  0  0  0  0  0  0
   28.6191  -19.4008   -6.0721 C   0  0  2  0  0  0  0  0  0  0  0  0
   27.8699  -18.1453   -5.7193 C   0  0  0  0  0  0  0  0  0  0  0  0
   27.6704  -20.5566   -6.3598 C   0  0  2  0  0  0  0  0  0  0  0  0
   26.8111  -20.1122   -7.4469 N   0  0  0  0  0  0  0  0  0  0  0  0
   26.8982  -20.9323   -5.1716 C   0  0  0  0  0  0  0  0  0  0  0  0
   25.6757  -20.6531   -5.1431 O   0  0  0  0  0  0  0  0  0  0  0  0
   27.4700  -21.5772   -4.0950 O   0  0  0  0  0  0  0  0  0  0  0  0
  1  2  1  0
  2  3  1  0
  3  5  1  0
  3  4  1  1
  5  6  1  6
  7  5  1  0
  8  7  2  0
  9  7  1  0
 10 11  1  1
 10  9  1  0
 11 12  1  0
 12 16  1  0
 13 12  2  0
 13 14  1  0
 14 15  1  0
 16 15  2  0
 17 24  1  0
 17 10  1  0
 18 17  2  0
 20 19  1  0
 20 21  1  0
 21 22  1  1
 23 21  1  0
 23 24  1  6
 25 23  1  0
 25 27  1  0
 26 25  2  0
M  END
$$$$
