IHI.pdb
     RDKit          3D

 27 27  0  0  1  0  0  0  0  0999 V2000
   28.5220  -24.2617  -20.1962 C   0  0  0  0  0  0  0  0  0  0  0  0
   27.1650  -24.0655  -19.5148 C   0  0  0  0  0  0  0  0  0  0  0  0
   27.3436  -23.4918  -18.1394 C   0  0  2  0  0  0  0  0  0  0  0  0
   28.3446  -24.2913  -17.3315 C   0  0  0  0  0  0  0  0  0  0  0  0
   26.0944  -23.1898  -17.3860 C   0  0  2  0  0  0  0  0  0  0  0  0
   25.2004  -22.4292  -18.2902 N   0  0  0  0  0  0  0  0  0  0  0  0
   26.2861  -22.3359  -16.1787 C   0  0  0  0  0  0  0  0  0  0  0  0
   27.2567  -22.6262  -15.4369 O   0  0  0  0  0  0  0  0  0  0  0  0
   25.4777  -21.2495  -15.8164 N   0  0  0  0  0  0  0  0  0  0  0  0
   25.5207  -20.3819  -14.6974 C   0  0  1  0  0  0  0  0  0  0  0  0
   25.1276  -18.9415  -14.9374 C   0  0  0  0  0  0  0  0  0  0  0  0
   26.0520  -18.1808  -15.7684 C   0  0  0  0  0  0  0  0  0  0  0  0
   27.2837  -18.6368  -16.1660 C   0  0  0  0  0  0  0  0  0  0  0  0
   27.8779  -17.6889  -16.9219 N   0  0  0  0  0  0  0  0  0  0  0  0
   27.0342  -16.6460  -17.0022 C   0  0  0  0  0  0  0  0  0  0  0  0
   25.9175  -16.9574  -16.2917 N   0  0  0  0  0  0  0  0  0  0  0  0
   24.9030  -20.8684  -13.4645 C   0  0  0  0  0  0  0  0  0  0  0  0
   23.9208  -21.6913  -13.5484 O   0  0  0  0  0  0  0  0  0  0  0  0
   27.6857  -20.8487   -8.8124 C   0  0  0  0  0  0  0  0  0  0  0  0
   26.7257  -21.2249   -9.9061 C   0  0  0  0  0  0  0  0  0  0  0  0
   25.4127  -20.4829   -9.7893 C   0  0  2  0  0  0  0  0  0  0  0  0
   24.7177  -20.7623   -8.4852 C   0  0  0  0  0  0  0  0  0  0  0  0
   24.5528  -20.8863  -10.9795 C   0  0  2  0  0  0  0  0  0  0  0  0
   25.3025  -20.5044  -12.1667 N   0  0  0  0  0  0  0  0  0  0  0  0
   23.2342  -20.2469  -10.9367 C   0  0  0  0  0  0  0  0  0  0  0  0
   23.1208  -19.0848  -11.3950 O   0  0  0  0  0  0  0  0  0  0  0  0
   22.1258  -20.8786  -10.4129 O   0  0  0  0  0  0  0  0  0  0  0  0
  1  2  1  0
  2  3  1  0
  3  5  1  0
  3  4  1  1
  5  6  1  6
  7  5  1  0
  8  7  2  0
  9  7  1  0
 10 11  1  6
 10  9  1  0
 11 12  1  0
 12 16  1  0
 13 12  2  0
 13 14  1  0
 14 15  1  0
 16 15  2  0
 17 24  1  0
 17 10  1  0
 18 17  2  0
 20 19  1  0
 20 21  1  0
 21 22  1  1
 23 21  1  0
 23 24  1  6
 25 23  1  0
 25 27  1  0
 26 25  2  0
M  END
$$$$
