IHI.pdb
     RDKit          3D

 27 27  0  0  1  0  0  0  0  0999 V2000
   22.8108  -12.4847  -20.4228 C   0  0  0  0  0  0  0  0  0  0  0  0
   23.8883  -13.3427  -19.7541 C   0  0  0  0  0  0  0  0  0  0  0  0
   23.2824  -14.5798  -19.1578 C   0  0  2  0  0  0  0  0  0  0  0  0
   22.0840  -14.2480  -18.2931 C   0  0  0  0  0  0  0  0  0  0  0  0
   24.2295  -15.5257  -18.5038 C   0  0  2  0  0  0  0  0  0  0  0  0
   25.2600  -15.8888  -19.5044 N   0  0  0  0  0  0  0  0  0  0  0  0
   23.6174  -16.8092  -18.0552 C   0  0  0  0  0  0  0  0  0  0  0  0
   22.7882  -17.3366  -18.8367 O   0  0  0  0  0  0  0  0  0  0  0  0
   23.8951  -17.4618  -16.8460 N   0  0  0  0  0  0  0  0  0  0  0  0
   23.3568  -18.6397  -16.2720 C   0  0  1  0  0  0  0  0  0  0  0  0
   24.3336  -19.5750  -15.5954 C   0  0  0  0  0  0  0  0  0  0  0  0
   25.5137  -19.9084  -16.3827 C   0  0  0  0  0  0  0  0  0  0  0  0
   25.4735  -20.5366  -17.6021 C   0  0  0  0  0  0  0  0  0  0  0  0
   26.7358  -20.6934  -18.0551 N   0  0  0  0  0  0  0  0  0  0  0  0
   27.5649  -20.1716  -17.1351 C   0  0  0  0  0  0  0  0  0  0  0  0
   26.8059  -19.6928  -16.1136 N   0  0  0  0  0  0  0  0  0  0  0  0
   22.1632  -18.4803  -15.4425 C   0  0  0  0  0  0  0  0  0  0  0  0
   22.2648  -17.8508  -14.3279 O   0  0  0  0  0  0  0  0  0  0  0  0
   18.0416  -16.3466  -17.2354 C   0  0  0  0  0  0  0  0  0  0  0  0
   19.0362  -16.9222  -16.2666 C   0  0  0  0  0  0  0  0  0  0  0  0
   18.6077  -18.2782  -15.7512 C   0  0  2  0  0  0  0  0  0  0  0  0
   17.3127  -18.2117  -14.9892 C   0  0  0  0  0  0  0  0  0  0  0  0
   19.7392  -18.8163  -14.8859 C   0  0  2  0  0  0  0  0  0  0  0  0
   20.8856  -18.9675  -15.7692 N   0  0  0  0  0  0  0  0  0  0  0  0
   19.3744  -20.0822  -14.2426 C   0  0  0  0  0  0  0  0  0  0  0  0
   19.5319  -21.1456  -14.8888 O   0  0  0  0  0  0  0  0  0  0  0  0
   18.8683  -20.1382  -12.9610 O   0  0  0  0  0  0  0  0  0  0  0  0
  1  2  1  0
  2  3  1  0
  3  5  1  0
  3  4  1  1
  5  6  1  6
  7  5  1  0
  8  7  2  0
  9  7  1  0
 10 11  1  1
 10  9  1  0
 11 12  1  0
 12 16  1  0
 13 12  2  0
 13 14  1  0
 14 15  1  0
 16 15  2  0
 17 24  1  0
 17 10  1  0
 18 17  2  0
 20 19  1  0
 20 21  1  0
 21 22  1  1
 23 21  1  0
 23 24  1  6
 25 23  1  0
 25 27  1  0
 26 25  2  0
M  END
$$$$
