IHI.pdb
     RDKit          3D

 27 27  0  0  1  0  0  0  0  0999 V2000
   29.8395  -16.0834  -18.8716 C   0  0  0  0  0  0  0  0  0  0  0  0
   28.6883  -17.0691  -19.0895 C   0  0  0  0  0  0  0  0  0  0  0  0
   27.7970  -17.1141  -17.8827 C   0  0  2  0  0  0  0  0  0  0  0  0
   28.5973  -17.2948  -16.6096 C   0  0  0  0  0  0  0  0  0  0  0  0
   26.6219  -18.0259  -17.9673 C   0  0  2  0  0  0  0  0  0  0  0  0
   25.9312  -17.7464  -19.2479 N   0  0  0  0  0  0  0  0  0  0  0  0
   25.6034  -17.8301  -16.8961 C   0  0  0  0  0  0  0  0  0  0  0  0
   25.5904  -16.7068  -16.3353 O   0  0  0  0  0  0  0  0  0  0  0  0
   24.6728  -18.7906  -16.4757 N   0  0  0  0  0  0  0  0  0  0  0  0
   23.7087  -18.7697  -15.4381 C   0  0  1  0  0  0  0  0  0  0  0  0
   22.2655  -18.5924  -15.8532 C   0  0  0  0  0  0  0  0  0  0  0  0
   21.9687  -17.3361  -16.5295 C   0  0  0  0  0  0  0  0  0  0  0  0
   22.8834  -16.3319  -16.7246 C   0  0  0  0  0  0  0  0  0  0  0  0
   22.2835  -15.3151  -17.3798 N   0  0  0  0  0  0  0  0  0  0  0  0
   21.0057  -15.6701  -17.5971 C   0  0  0  0  0  0  0  0  0  0  0  0
   20.8226  -16.9109  -17.0720 N   0  0  0  0  0  0  0  0  0  0  0  0
   23.8106  -19.8194  -14.4251 C   0  0  0  0  0  0  0  0  0  0  0  0
   23.8547  -21.0445  -14.8071 O   0  0  0  0  0  0  0  0  0  0  0  0
   26.8652  -21.3065  -11.6924 C   0  0  0  0  0  0  0  0  0  0  0  0
   26.1197  -20.0171  -11.4896 C   0  0  0  0  0  0  0  0  0  0  0  0
   24.7370  -20.2442  -10.9200 C   0  0  2  0  0  0  0  0  0  0  0  0
   24.7416  -21.2551   -9.8064 C   0  0  0  0  0  0  0  0  0  0  0  0
   23.8362  -20.6800  -12.0677 C   0  0  2  0  0  0  0  0  0  0  0  0
   23.8666  -19.5962  -13.0383 N   0  0  0  0  0  0  0  0  0  0  0  0
   22.4732  -20.9645  -11.6089 C   0  0  0  0  0  0  0  0  0  0  0  0
   21.6537  -20.0165  -11.5528 O   0  0  0  0  0  0  0  0  0  0  0  0
   22.0690  -22.2306  -11.2408 O   0  0  0  0  0  0  0  0  0  0  0  0
  1  2  1  0
  2  3  1  0
  3  5  1  0
  3  4  1  1
  5  6  1  6
  7  5  1  0
  8  7  2  0
  9  7  1  0
 10 11  1  6
 10  9  1  0
 11 12  1  0
 12 16  1  0
 13 12  2  0
 13 14  1  0
 14 15  1  0
 16 15  2  0
 17 24  1  0
 17 10  1  0
 18 17  2  0
 20 19  1  0
 20 21  1  0
 21 22  1  1
 23 21  1  0
 23 24  1  6
 25 23  1  0
 25 27  1  0
 26 25  2  0
M  END
$$$$
