IHI.pdb
     RDKit          3D

 27 27  0  0  1  0  0  0  0  0999 V2000
   28.6482  -19.1242  -17.2748 C   0  0  0  0  0  0  0  0  0  0  0  0
   29.3449  -19.5807  -15.9901 C   0  0  0  0  0  0  0  0  0  0  0  0
   28.4326  -19.4189  -14.8093 C   0  0  2  0  0  0  0  0  0  0  0  0
   29.1045  -19.8603  -13.5257 C   0  0  0  0  0  0  0  0  0  0  0  0
   27.0549  -19.9643  -14.9638 C   0  0  2  0  0  0  0  0  0  0  0  0
   26.4266  -19.2715  -16.1129 N   0  0  0  0  0  0  0  0  0  0  0  0
   26.1572  -19.7285  -13.7968 C   0  0  0  0  0  0  0  0  0  0  0  0
   25.8331  -18.5363  -13.5726 O   0  0  0  0  0  0  0  0  0  0  0  0
   25.6547  -20.7224  -12.9455 N   0  0  0  0  0  0  0  0  0  0  0  0
   24.8292  -20.6427  -11.7970 C   0  0  1  0  0  0  0  0  0  0  0  0
   23.4024  -21.1196  -11.9498 C   0  0  0  0  0  0  0  0  0  0  0  0
   22.7064  -20.6144  -13.1262 C   0  0  0  0  0  0  0  0  0  0  0  0
   22.2753  -19.3194  -13.2687 C   0  0  0  0  0  0  0  0  0  0  0  0
   21.6728  -19.1886  -14.4699 N   0  0  0  0  0  0  0  0  0  0  0  0
   21.7214  -20.3847  -15.0807 C   0  0  0  0  0  0  0  0  0  0  0  0
   22.3571  -21.2522  -14.2486 N   0  0  0  0  0  0  0  0  0  0  0  0
   25.3928  -21.1490  -10.5463 C   0  0  0  0  0  0  0  0  0  0  0  0
   25.9148  -22.3221  -10.5339 O   0  0  0  0  0  0  0  0  0  0  0  0
   28.5441  -18.7592   -7.1197 C   0  0  0  0  0  0  0  0  0  0  0  0
   27.7305  -19.7681   -7.8811 C   0  0  0  0  0  0  0  0  0  0  0  0
   26.4105  -20.0613   -7.2032 C   0  0  2  0  0  0  0  0  0  0  0  0
   26.5935  -20.5413   -5.7896 C   0  0  0  0  0  0  0  0  0  0  0  0
   25.6792  -21.0911   -8.0537 C   0  0  2  0  0  0  0  0  0  0  0  0
   25.4131  -20.4445   -9.3299 N   0  0  0  0  0  0  0  0  0  0  0  0
   24.4466  -21.5512   -7.4068 C   0  0  0  0  0  0  0  0  0  0  0  0
   23.3776  -20.9477   -7.6647 O   0  0  0  0  0  0  0  0  0  0  0  0
   24.4274  -22.6171   -6.5320 O   0  0  0  0  0  0  0  0  0  0  0  0
  1  2  1  0
  2  3  1  0
  3  5  1  0
  3  4  1  1
  5  6  1  6
  7  5  1  0
  8  7  2  0
  9  7  1  0
 10 11  1  6
 10  9  1  0
 11 12  1  0
 12 16  1  0
 13 12  2  0
 13 14  1  0
 14 15  1  0
 16 15  2  0
 17 24  1  0
 17 10  1  0
 18 17  2  0
 20 19  1  0
 20 21  1  0
 21 22  1  1
 23 21  1  0
 23 24  1  6
 25 23  1  0
 25 27  1  0
 26 25  2  0
M  END
$$$$
