NFA.pdb
     RDKit          3D

 25 25  0  0  1  0  0  0  0  0999 V2000
    7.5533  -12.5780   18.2380 N   0  0  0  0  0  0  0  0  0  0  0  0
    8.2107  -13.6975   18.8035 C   0  0  0  0  0  0  0  0  0  0  0  0
    8.4482  -14.6865   18.0766 O   0  0  0  0  0  0  0  0  0  0  0  0
    8.5922  -13.6709   20.2094 C   0  0  0  0  0  0  0  0  0  0  0  0
    8.4271  -14.9865   20.9111 C   0  0  2  0  0  0  0  0  0  0  0  0
    7.0825  -15.4416   20.8058 N   0  0  0  0  0  0  0  0  0  0  0  0
    8.8672  -14.9312   22.3294 C   0  0  0  0  0  0  0  0  0  0  0  0
    9.9956  -14.4712   22.6512 O   0  0  0  0  0  0  0  0  0  0  0  0
    8.0521  -15.3887   23.4029 N   0  0  0  0  0  0  0  0  0  0  0  0
    8.5116  -15.4888   24.7731 C   0  0  1  0  0  0  0  0  0  0  0  0
    7.4432  -15.2231   25.7685 C   0  0  0  0  0  0  0  0  0  0  0  0
    7.1369  -13.8053   26.0151 C   0  0  0  0  0  0  0  0  0  0  0  0
    5.8593  -13.3722   26.2926 C   0  0  0  0  0  0  0  0  0  0  0  0
    5.5879  -12.0447   26.5208 C   0  0  0  0  0  0  0  0  0  0  0  0
    6.5732  -11.0891   26.4834 C   0  0  0  0  0  0  0  0  0  0  0  0
    7.8596  -11.5058   26.2066 C   0  0  0  0  0  0  0  0  0  0  0  0
    8.1380  -12.8314   25.9776 C   0  0  0  0  0  0  0  0  0  0  0  0
    9.2389  -16.7409   25.0402 C   0  0  0  0  0  0  0  0  0  0  0  0
    9.2029  -17.2065   26.1975 O   0  0  0  0  0  0  0  0  0  0  0  0
   11.0215  -19.4649   23.1122 C   0  0  0  0  0  0  0  0  0  0  0  0
   10.7027  -18.6636   24.3615 C   0  0  2  0  0  0  0  0  0  0  0  0
    9.9798  -17.4513   24.0594 N   0  0  0  0  0  0  0  0  0  0  0  0
   11.9102  -18.4276   25.1650 C   0  0  0  0  0  0  0  0  0  0  0  0
   12.4692  -19.3768   25.7528 O   0  0  0  0  0  0  0  0  0  0  0  0
   12.4413  -17.1615   25.2816 O   0  0  0  0  0  0  0  0  0  0  0  0
  2  1  1  0
  2  3  2  0
  4  2  1  0
  5  4  1  0
  5  7  1  0
  5  6  1  1
  7  8  2  0
  9  7  1  0
  9 10  1  0
 10 11  1  1
 11 12  1  0
 12 17  2  0
 13 12  1  0
 13 14  2  0
 14 15  1  0
 15 16  2  0
 17 16  1  0
 18 10  1  0
 18 19  2  0
 21 20  1  6
 21 22  1  0
 21 23  1  0
 22 18  1  0
 23 25  1  0
 24 23  2  0
M  END
$$$$
