NFA.pdb
     RDKit          3D

 25 25  0  0  1  0  0  0  0  0999 V2000
   10.5670  -18.6256   19.0946 N   0  0  0  0  0  0  0  0  0  0  0  0
    9.8376  -19.1776   20.1755 C   0  0  0  0  0  0  0  0  0  0  0  0
    9.5273  -20.3880   20.1363 O   0  0  0  0  0  0  0  0  0  0  0  0
    9.4684  -18.3282   21.3001 C   0  0  0  0  0  0  0  0  0  0  0  0
    9.8549  -16.8886   21.1298 C   0  0  2  0  0  0  0  0  0  0  0  0
   11.1689  -16.7863   20.5921 N   0  0  0  0  0  0  0  0  0  0  0  0
    9.7280  -16.1148   22.3921 C   0  0  0  0  0  0  0  0  0  0  0  0
   10.6547  -16.0914   23.2459 O   0  0  0  0  0  0  0  0  0  0  0  0
    8.5653  -15.3593   22.7139 N   0  0  0  0  0  0  0  0  0  0  0  0
    8.3886  -14.6531   23.9664 C   0  0  1  0  0  0  0  0  0  0  0  0
    7.2978  -13.6476   23.9213 C   0  0  0  0  0  0  0  0  0  0  0  0
    7.0718  -12.8928   25.1639 C   0  0  0  0  0  0  0  0  0  0  0  0
    7.9456  -11.9199   25.5960 C   0  0  0  0  0  0  0  0  0  0  0  0
    7.7219  -11.2229   26.7588 C   0  0  0  0  0  0  0  0  0  0  0  0
    6.6206  -11.4616   27.5435 C   0  0  0  0  0  0  0  0  0  0  0  0
    5.7344  -12.4335   27.1252 C   0  0  0  0  0  0  0  0  0  0  0  0
    5.9520  -13.1340   25.9637 C   0  0  0  0  0  0  0  0  0  0  0  0
    8.2788  -15.5598   25.1213 C   0  0  0  0  0  0  0  0  0  0  0  0
    8.4392  -15.0808   26.2624 O   0  0  0  0  0  0  0  0  0  0  0  0
    6.7908  -18.8913   25.9070 C   0  0  0  0  0  0  0  0  0  0  0  0
    7.8011  -17.7894   26.1706 C   0  0  2  0  0  0  0  0  0  0  0  0
    8.0011  -16.9480   25.0149 N   0  0  0  0  0  0  0  0  0  0  0  0
    9.0552  -18.3345   26.7086 C   0  0  0  0  0  0  0  0  0  0  0  0
    9.0481  -19.0052   27.7618 O   0  0  0  0  0  0  0  0  0  0  0  0
   10.2521  -18.1151   26.0622 O   0  0  0  0  0  0  0  0  0  0  0  0
  2  1  1  0
  2  3  2  0
  4  2  1  0
  5  4  1  0
  5  7  1  0
  5  6  1  1
  7  8  2  0
  9  7  1  0
  9 10  1  0
 10 11  1  6
 11 12  1  0
 12 17  2  0
 13 12  1  0
 13 14  2  0
 14 15  1  0
 15 16  2  0
 17 16  1  0
 18 10  1  0
 18 19  2  0
 21 20  1  6
 21 22  1  0
 21 23  1  0
 22 18  1  0
 23 25  1  0
 24 23  2  0
M  END
$$$$
