NFA.pdb
     RDKit          3D

 25 25  0  0  1  0  0  0  0  0999 V2000
    7.4014  -12.5881   18.5944 N   0  0  0  0  0  0  0  0  0  0  0  0
    8.3052  -13.5579   19.0920 C   0  0  0  0  0  0  0  0  0  0  0  0
    8.8014  -14.3833   18.2948 O   0  0  0  0  0  0  0  0  0  0  0  0
    8.6336  -13.5712   20.5114 C   0  0  0  0  0  0  0  0  0  0  0  0
    8.6748  -14.9440   21.1151 C   0  0  2  0  0  0  0  0  0  0  0  0
    7.4222  -15.5990   20.9479 N   0  0  0  0  0  0  0  0  0  0  0  0
    9.0849  -14.9228   22.5432 C   0  0  0  0  0  0  0  0  0  0  0  0
   10.1269  -14.3224   22.9201 O   0  0  0  0  0  0  0  0  0  0  0  0
    8.3359  -15.5716   23.5651 N   0  0  0  0  0  0  0  0  0  0  0  0
    8.7571  -15.6377   24.9495 C   0  0  1  0  0  0  0  0  0  0  0  0
    7.6529  -15.3857   25.9088 C   0  0  0  0  0  0  0  0  0  0  0  0
    7.2721  -13.9761   26.0900 C   0  0  0  0  0  0  0  0  0  0  0  0
    7.6010  -13.2717   27.2269 C   0  0  0  0  0  0  0  0  0  0  0  0
    7.2385  -11.9555   27.3827 C   0  0  0  0  0  0  0  0  0  0  0  0
    6.5335  -11.2812   26.4164 C   0  0  0  0  0  0  0  0  0  0  0  0
    6.1956  -11.9722   25.2704 C   0  0  0  0  0  0  0  0  0  0  0  0
    6.5548  -13.2881   25.1082 C   0  0  0  0  0  0  0  0  0  0  0  0
    9.5096  -16.8650   25.2583 C   0  0  0  0  0  0  0  0  0  0  0  0
    9.6991  -17.1526   26.4578 O   0  0  0  0  0  0  0  0  0  0  0  0
   10.5419  -20.0574   23.6260 C   0  0  0  0  0  0  0  0  0  0  0  0
   10.7849  -18.9275   24.6101 C   0  0  2  0  0  0  0  0  0  0  0  0
   10.0333  -17.7422   24.2726 N   0  0  0  0  0  0  0  0  0  0  0  0
   12.2214  -18.6684   24.7790 C   0  0  0  0  0  0  0  0  0  0  0  0
   12.9690  -19.5532   25.2455 O   0  0  0  0  0  0  0  0  0  0  0  0
   12.7629  -17.4512   24.4271 O   0  0  0  0  0  0  0  0  0  0  0  0
  2  1  1  0
  2  3  2  0
  4  2  1  0
  5  4  1  0
  5  7  1  0
  5  6  1  1
  7  8  2  0
  9  7  1  0
  9 10  1  0
 10 11  1  1
 11 12  1  0
 12 17  2  0
 13 12  1  0
 13 14  2  0
 14 15  1  0
 15 16  2  0
 17 16  1  0
 18 10  1  0
 18 19  2  0
 21 20  1  6
 21 22  1  0
 21 23  1  0
 22 18  1  0
 23 25  1  0
 24 23  2  0
M  END
$$$$
