NFA.pdb
     RDKit          3D

 25 25  0  0  1  0  0  0  0  0999 V2000
    7.7796  -12.6982   16.9478 N   0  0  0  0  0  0  0  0  0  0  0  0
    8.4925  -13.7617   17.5527 C   0  0  0  0  0  0  0  0  0  0  0  0
    8.8492  -14.7274   16.8433 O   0  0  0  0  0  0  0  0  0  0  0  0
    8.7916  -13.7061   18.9775 C   0  0  0  0  0  0  0  0  0  0  0  0
    8.7037  -15.0334   19.6713 C   0  0  2  0  0  0  0  0  0  0  0  0
    7.4703  -15.6745   19.3649 N   0  0  0  0  0  0  0  0  0  0  0  0
    8.9008  -14.9191   21.1398 C   0  0  0  0  0  0  0  0  0  0  0  0
    9.9550  -14.4291   21.6264 O   0  0  0  0  0  0  0  0  0  0  0  0
    7.9229  -15.3506   22.0799 N   0  0  0  0  0  0  0  0  0  0  0  0
    8.0688  -15.2043   23.5137 C   0  0  1  0  0  0  0  0  0  0  0  0
    6.8092  -14.8085   24.1917 C   0  0  0  0  0  0  0  0  0  0  0  0
    6.9270  -13.7216   25.1764 C   0  0  0  0  0  0  0  0  0  0  0  0
    6.4771  -13.8577   26.4709 C   0  0  0  0  0  0  0  0  0  0  0  0
    6.5934  -12.8339   27.3799 C   0  0  0  0  0  0  0  0  0  0  0  0
    7.1617  -11.6300   27.0432 C   0  0  0  0  0  0  0  0  0  0  0  0
    7.6181  -11.4766   25.7497 C   0  0  0  0  0  0  0  0  0  0  0  0
    7.5049  -12.4960   24.8359 C   0  0  0  0  0  0  0  0  0  0  0  0
    8.7113  -16.3701   24.1431 C   0  0  0  0  0  0  0  0  0  0  0  0
    8.0977  -17.4567   24.1327 O   0  0  0  0  0  0  0  0  0  0  0  0
   12.0127  -17.7236   24.8253 C   0  0  0  0  0  0  0  0  0  0  0  0
   10.6030  -17.5022   25.3430 C   0  0  2  0  0  0  0  0  0  0  0  0
    9.9884  -16.3325   24.7621 N   0  0  0  0  0  0  0  0  0  0  0  0
   10.5698  -17.4991   26.8121 C   0  0  0  0  0  0  0  0  0  0  0  0
   11.0604  -18.4514   27.4537 O   0  0  0  0  0  0  0  0  0  0  0  0
    9.9997  -16.4506   27.5007 O   0  0  0  0  0  0  0  0  0  0  0  0
  2  1  1  0
  2  3  2  0
  4  2  1  0
  5  4  1  0
  5  7  1  0
  5  6  1  1
  7  8  2  0
  9  7  1  0
  9 10  1  0
 10 11  1  1
 11 12  1  0
 12 17  2  0
 13 12  1  0
 13 14  2  0
 14 15  1  0
 15 16  2  0
 17 16  1  0
 18 10  1  0
 18 19  2  0
 21 20  1  1
 21 22  1  0
 21 23  1  0
 22 18  1  0
 23 25  1  0
 24 23  2  0
M  END
$$$$
