NFA.pdb
     RDKit          3D

 25 25  0  0  1  0  0  0  0  0999 V2000
   11.0808  -18.9123   18.7967 N   0  0  0  0  0  0  0  0  0  0  0  0
   11.2790  -17.5290   18.5676 C   0  0  0  0  0  0  0  0  0  0  0  0
   11.8659  -17.1700   17.5238 O   0  0  0  0  0  0  0  0  0  0  0  0
   10.7980  -16.5634   19.5467 C   0  0  0  0  0  0  0  0  0  0  0  0
   10.1117  -17.1830   20.7282 C   0  0  2  0  0  0  0  0  0  0  0  0
    8.8210  -17.6579   20.3614 N   0  0  0  0  0  0  0  0  0  0  0  0
   10.0353  -16.2576   21.8884 C   0  0  0  0  0  0  0  0  0  0  0  0
   11.0679  -15.7194   22.3704 O   0  0  0  0  0  0  0  0  0  0  0  0
    8.8053  -15.9238   22.5224 N   0  0  0  0  0  0  0  0  0  0  0  0
    8.7149  -15.1288   23.7299 C   0  0  1  0  0  0  0  0  0  0  0  0
    7.4336  -14.3890   23.8478 C   0  0  0  0  0  0  0  0  0  0  0  0
    7.2892  -13.5465   25.0454 C   0  0  0  0  0  0  0  0  0  0  0  0
    6.4668  -13.9006   26.0919 C   0  0  0  0  0  0  0  0  0  0  0  0
    6.3414  -13.1038   27.2043 C   0  0  0  0  0  0  0  0  0  0  0  0
    7.0273  -11.9204   27.3262 C   0  0  0  0  0  0  0  0  0  0  0  0
    7.8560  -11.5503   26.2865 C   0  0  0  0  0  0  0  0  0  0  0  0
    7.9860  -12.3422   25.1715 C   0  0  0  0  0  0  0  0  0  0  0  0
    9.0421  -15.8960   24.9433 C   0  0  0  0  0  0  0  0  0  0  0  0
    8.3418  -16.8922   25.2160 O   0  0  0  0  0  0  0  0  0  0  0  0
   11.9005  -16.9604   26.7671 C   0  0  0  0  0  0  0  0  0  0  0  0
   10.4906  -16.4204   26.9250 C   0  0  2  0  0  0  0  0  0  0  0  0
   10.1079  -15.5704   25.8229 N   0  0  0  0  0  0  0  0  0  0  0  0
   10.3096  -15.7794   28.2349 C   0  0  0  0  0  0  0  0  0  0  0  0
    9.9808  -14.5770   28.3059 O   0  0  0  0  0  0  0  0  0  0  0  0
   10.4991  -16.4919   29.3990 O   0  0  0  0  0  0  0  0  0  0  0  0
  2  1  1  0
  2  3  2  0
  4  2  1  0
  5  4  1  0
  5  7  1  0
  5  6  1  6
  7  8  2  0
  9  7  1  0
  9 10  1  0
 10 11  1  1
 11 12  1  0
 12 17  2  0
 13 12  1  0
 13 14  2  0
 14 15  1  0
 15 16  2  0
 17 16  1  0
 18 10  1  0
 18 19  2  0
 21 20  1  6
 21 22  1  0
 21 23  1  0
 22 18  1  0
 23 25  1  0
 24 23  2  0
M  END
$$$$
