NFA.pdb
     RDKit          3D

 25 25  0  0  1  0  0  0  0  0999 V2000
   11.0926  -16.6595   13.9683 N   0  0  0  0  0  0  0  0  0  0  0  0
   10.9910  -17.4254   15.1550 C   0  0  0  0  0  0  0  0  0  0  0  0
   10.6679  -18.6300   15.0680 O   0  0  0  0  0  0  0  0  0  0  0  0
   11.2634  -16.7963   16.4405 C   0  0  0  0  0  0  0  0  0  0  0  0
   10.3896  -17.2870   17.5570 C   0  0  2  0  0  0  0  0  0  0  0  0
    9.0157  -17.1328   17.2184 N   0  0  0  0  0  0  0  0  0  0  0  0
   10.7021  -16.6288   18.8521 C   0  0  0  0  0  0  0  0  0  0  0  0
   11.6925  -15.8595   18.9776 O   0  0  0  0  0  0  0  0  0  0  0  0
    9.9122  -16.8226   20.0203 N   0  0  0  0  0  0  0  0  0  0  0  0
   10.2017  -16.2019   21.2967 C   0  0  1  0  0  0  0  0  0  0  0  0
    9.0480  -15.4564   21.8589 C   0  0  0  0  0  0  0  0  0  0  0  0
    8.5360  -14.3520   21.0325 C   0  0  0  0  0  0  0  0  0  0  0  0
    9.2553  -13.1943   20.8346 C   0  0  0  0  0  0  0  0  0  0  0  0
    8.7645  -12.1708   20.0603 C   0  0  0  0  0  0  0  0  0  0  0  0
    7.5378  -12.2521   19.4486 C   0  0  0  0  0  0  0  0  0  0  0  0
    6.8035  -13.4055   19.6365 C   0  0  0  0  0  0  0  0  0  0  0  0
    7.2882  -14.4326   20.4093 C   0  0  0  0  0  0  0  0  0  0  0  0
   10.7991  -17.1383   22.2633 C   0  0  0  0  0  0  0  0  0  0  0  0
   10.1524  -18.1612   22.5681 O   0  0  0  0  0  0  0  0  0  0  0  0
   14.1808  -17.8848   23.7040 C   0  0  0  0  0  0  0  0  0  0  0  0
   12.6640  -17.9282   23.7460 C   0  0  2  0  0  0  0  0  0  0  0  0
   12.0682  -16.9474   22.8705 N   0  0  0  0  0  0  0  0  0  0  0  0
   12.1671  -17.8438   25.1263 C   0  0  0  0  0  0  0  0  0  0  0  0
   12.5641  -18.6557   25.9879 O   0  0  0  0  0  0  0  0  0  0  0  0
   11.2599  -16.8722   25.4892 O   0  0  0  0  0  0  0  0  0  0  0  0
  2  1  1  0
  2  3  2  0
  4  2  1  0
  5  4  1  0
  5  7  1  0
  5  6  1  6
  7  8  2  0
  9  7  1  0
  9 10  1  0
 10 11  1  1
 11 12  1  0
 12 17  2  0
 13 12  1  0
 13 14  2  0
 14 15  1  0
 15 16  2  0
 17 16  1  0
 18 10  1  0
 18 19  2  0
 21 20  1  1
 21 22  1  0
 21 23  1  0
 22 18  1  0
 23 25  1  0
 24 23  2  0
M  END
$$$$
