KAV.pdb
     RDKit          3D

 22 21  0  0  1  0  0  0  0  0999 V2000
   16.6605  -14.1377  -18.1810 N   0  0  0  0  0  0  0  0  0  0  0  0
   16.3999  -12.9088  -17.4918 C   0  0  1  0  0  0  0  0  0  0  0  0
   15.7999  -13.1765  -16.1502 C   0  0  0  0  0  0  0  0  0  0  0  0
   14.4659  -13.8248  -16.1975 C   0  0  0  0  0  0  0  0  0  0  0  0
   13.8192  -14.1212  -14.8911 C   0  0  0  0  0  0  0  0  0  0  0  0
   12.4362  -14.7474  -15.0511 C   0  0  0  0  0  0  0  0  0  0  0  0
   11.9020  -15.0234  -13.7403 N   0  0  0  0  0  0  0  0  0  0  0  0
   17.5938  -12.0290  -17.4180 C   0  0  0  0  0  0  0  0  0  0  0  0
   18.7065  -12.5180  -17.0958 O   0  0  0  0  0  0  0  0  0  0  0  0
   18.4126   -8.3703  -18.1274 C   0  0  0  0  0  0  0  0  0  0  0  0
   18.6905   -9.7577  -17.5776 C   0  0  2  0  0  0  0  0  0  0  0  0
   17.5635  -10.6360  -17.6938 N   0  0  0  0  0  0  0  0  0  0  0  0
   19.1806   -9.6082  -16.1899 C   0  0  0  0  0  0  0  0  0  0  0  0
   18.4671   -9.7332  -15.1704 O   0  0  0  0  0  0  0  0  0  0  0  0
   22.2339  -11.4670  -14.9732 C   0  0  0  0  0  0  0  0  0  0  0  0
   22.4543   -9.9919  -14.7673 C   0  0  2  0  0  0  0  0  0  0  0  0
   23.1927   -9.8104  -13.4586 C   0  0  0  0  0  0  0  0  0  0  0  0
   21.1760   -9.2070  -14.7055 C   0  0  2  0  0  0  0  0  0  0  0  0
   20.5515   -9.3031  -16.0115 N   0  0  0  0  0  0  0  0  0  0  0  0
   21.3987   -7.7666  -14.4332 C   0  0  0  0  0  0  0  0  0  0  0  0
   21.2846   -7.2145  -13.1636 O   0  0  0  0  0  0  0  0  0  0  0  0
   21.7102   -6.9439  -15.3536 O   0  0  0  0  0  0  0  0  0  0  0  0
  2  1  1  1
  2  8  1  0
  3  4  1  0
  3  2  1  0
  5  6  1  0
  5  4  1  0
  6  7  1  0
  8 12  1  0
  8  9  2  0
 11 10  1  1
 11 13  1  0
 12 11  1  0
 13 14  2  0
 16 17  1  1
 16 15  1  0
 16 18  1  0
 18 19  1  6
 19 13  1  0
 20 21  1  0
 20 18  1  0
 22 20  2  0
M  END
$$$$
