KAV.pdb
     RDKit          3D

 22 21  0  0  1  0  0  0  0  0999 V2000
   28.5290  -20.8232  -14.8590 N   0  0  0  0  0  0  0  0  0  0  0  0
   27.5858  -20.8946  -13.7826 C   0  0  1  0  0  0  0  0  0  0  0  0
   27.8272  -19.7961  -12.7995 C   0  0  0  0  0  0  0  0  0  0  0  0
   29.1779  -19.8140  -12.1850 C   0  0  0  0  0  0  0  0  0  0  0  0
   29.6375  -21.1097  -11.6168 C   0  0  0  0  0  0  0  0  0  0  0  0
   30.9793  -20.9910  -10.8987 C   0  0  0  0  0  0  0  0  0  0  0  0
   31.3656  -22.2979  -10.4272 N   0  0  0  0  0  0  0  0  0  0  0  0
   26.1790  -20.9385  -14.2556 C   0  0  0  0  0  0  0  0  0  0  0  0
   25.8161  -20.1860  -15.1952 O   0  0  0  0  0  0  0  0  0  0  0  0
   23.0640  -23.0136  -13.5029 C   0  0  0  0  0  0  0  0  0  0  0  0
   23.8495  -21.9171  -14.1994 C   0  0  2  0  0  0  0  0  0  0  0  0
   25.1894  -21.7953  -13.7042 N   0  0  0  0  0  0  0  0  0  0  0  0
   23.0688  -20.6645  -14.1014 C   0  0  0  0  0  0  0  0  0  0  0  0
   23.1776  -19.8340  -13.1727 O   0  0  0  0  0  0  0  0  0  0  0  0
   21.0116  -17.2265  -16.7853 C   0  0  0  0  0  0  0  0  0  0  0  0
   21.7191  -18.5346  -16.5504 C   0  0  2  0  0  0  0  0  0  0  0  0
   21.2947  -19.4950  -17.6406 C   0  0  0  0  0  0  0  0  0  0  0  0
   21.3948  -19.1508  -15.2204 C   0  0  2  0  0  0  0  0  0  0  0  0
   22.1372  -20.3941  -15.1325 N   0  0  0  0  0  0  0  0  0  0  0  0
   19.9582  -19.4894  -15.0790 C   0  0  0  0  0  0  0  0  0  0  0  0
   19.0413  -18.6403  -14.4724 O   0  0  0  0  0  0  0  0  0  0  0  0
   19.4758  -20.5866  -15.5083 O   0  0  0  0  0  0  0  0  0  0  0  0
  2  1  1  6
  2  8  1  0
  3  4  1  0
  3  2  1  0
  5  6  1  0
  5  4  1  0
  6  7  1  0
  8 12  1  0
  8  9  2  0
 11 10  1  1
 11 13  1  0
 12 11  1  0
 13 14  2  0
 16 17  1  6
 16 15  1  0
 16 18  1  0
 18 19  1  6
 19 13  1  0
 20 21  1  0
 20 18  1  0
 22 20  2  0
M  END
$$$$
