KAV.pdb
     RDKit          3D

 22 21  0  0  1  0  0  0  0  0999 V2000
   27.7440  -19.6319  -15.0555 N   0  0  0  0  0  0  0  0  0  0  0  0
   26.6020  -19.5100  -15.9123 C   0  0  1  0  0  0  0  0  0  0  0  0
   26.8681  -20.1495  -17.2359 C   0  0  0  0  0  0  0  0  0  0  0  0
   28.2790  -20.0543  -17.6861 C   0  0  0  0  0  0  0  0  0  0  0  0
   28.6480  -18.8523  -18.4809 C   0  0  0  0  0  0  0  0  0  0  0  0
   30.0927  -18.8961  -18.9721 C   0  0  0  0  0  0  0  0  0  0  0  0
   30.3962  -17.6440  -19.6200 N   0  0  0  0  0  0  0  0  0  0  0  0
   25.3546  -20.0071  -15.2786 C   0  0  0  0  0  0  0  0  0  0  0  0
   24.2677  -19.9350  -15.9066 O   0  0  0  0  0  0  0  0  0  0  0  0
   24.3190  -21.3464  -11.8619 C   0  0  0  0  0  0  0  0  0  0  0  0
   24.1071  -21.0241  -13.3300 C   0  0  2  0  0  0  0  0  0  0  0  0
   25.3044  -20.5733  -13.9769 N   0  0  0  0  0  0  0  0  0  0  0  0
   22.9865  -20.0635  -13.4287 C   0  0  0  0  0  0  0  0  0  0  0  0
   23.0201  -18.8906  -12.9960 O   0  0  0  0  0  0  0  0  0  0  0  0
   20.2820  -20.6656  -16.4313 C   0  0  0  0  0  0  0  0  0  0  0  0
   20.3464  -19.4195  -15.5886 C   0  0  2  0  0  0  0  0  0  0  0  0
   21.4785  -18.5622  -16.1122 C   0  0  0  0  0  0  0  0  0  0  0  0
   20.5957  -19.7018  -14.1354 C   0  0  2  0  0  0  0  0  0  0  0  0
   21.7986  -20.5092  -14.0567 N   0  0  0  0  0  0  0  0  0  0  0  0
   19.5039  -20.4831  -13.5062 C   0  0  0  0  0  0  0  0  0  0  0  0
   18.3255  -19.9014  -13.0560 O   0  0  0  0  0  0  0  0  0  0  0  0
   19.5818  -21.7429  -13.3398 O   0  0  0  0  0  0  0  0  0  0  0  0
  2  1  1  1
  2  8  1  0
  3  4  1  0
  3  2  1  0
  5  6  1  0
  5  4  1  0
  6  7  1  0
  8 12  1  0
  8  9  2  0
 11 10  1  1
 11 13  1  0
 12 11  1  0
 13 14  2  0
 16 17  1  6
 16 15  1  0
 16 18  1  0
 18 19  1  6
 19 13  1  0
 20 21  1  0
 20 18  1  0
 22 20  2  0
M  END
$$$$
