KAV.pdb
     RDKit          3D

 22 21  0  0  1  0  0  0  0  0999 V2000
   17.0716  -14.7790  -15.7604 N   0  0  0  0  0  0  0  0  0  0  0  0
   18.3377  -14.7791  -16.4314 C   0  0  1  0  0  0  0  0  0  0  0  0
   18.2498  -15.5333  -17.7179 C   0  0  0  0  0  0  0  0  0  0  0  0
   16.8669  -15.7153  -18.2245 C   0  0  0  0  0  0  0  0  0  0  0  0
   16.7093  -16.5206  -19.4653 C   0  0  0  0  0  0  0  0  0  0  0  0
   15.2517  -16.6445  -19.9016 C   0  0  0  0  0  0  0  0  0  0  0  0
   15.1872  -17.5205  -21.0454 N   0  0  0  0  0  0  0  0  0  0  0  0
   18.8930  -13.4133  -16.6071 C   0  0  0  0  0  0  0  0  0  0  0  0
   20.0874  -13.2710  -16.9732 O   0  0  0  0  0  0  0  0  0  0  0  0
   17.6057   -9.9208  -17.0459 C   0  0  0  0  0  0  0  0  0  0  0  0
   18.6592  -10.8973  -16.5550 C   0  0  2  0  0  0  0  0  0  0  0  0
   18.1471  -12.2254  -16.3837 N   0  0  0  0  0  0  0  0  0  0  0  0
   19.2641  -10.3361  -15.3273 C   0  0  0  0  0  0  0  0  0  0  0  0
   18.8707  -10.5863  -14.1668 O   0  0  0  0  0  0  0  0  0  0  0  0
   23.1126   -8.7509  -15.7788 C   0  0  0  0  0  0  0  0  0  0  0  0
   22.4960   -9.1854  -14.4757 C   0  0  2  0  0  0  0  0  0  0  0  0
   22.6341  -10.6893  -14.3747 C   0  0  0  0  0  0  0  0  0  0  0  0
   21.0411   -8.8324  -14.3643 C   0  0  2  0  0  0  0  0  0  0  0  0
   20.3625   -9.4568  -15.4843 N   0  0  0  0  0  0  0  0  0  0  0  0
   20.7945   -7.3737  -14.4629 C   0  0  0  0  0  0  0  0  0  0  0  0
   20.9182   -6.5148  -13.3781 O   0  0  0  0  0  0  0  0  0  0  0  0
   20.4523   -6.8172  -15.5556 O   0  0  0  0  0  0  0  0  0  0  0  0
  2  1  1  6
  2  8  1  0
  3  4  1  0
  3  2  1  0
  5  6  1  0
  5  4  1  0
  6  7  1  0
  8 12  1  0
  8  9  2  0
 11 10  1  1
 11 13  1  0
 12 11  1  0
 13 14  2  0
 16 17  1  6
 16 15  1  0
 16 18  1  0
 18 19  1  6
 19 13  1  0
 20 21  1  0
 20 18  1  0
 22 20  2  0
M  END
$$$$
