KAV.pdb
     RDKit          3D

 22 21  0  0  1  0  0  0  0  0999 V2000
   24.9837  -35.5413  -12.7806 N   0  0  0  0  0  0  0  0  0  0  0  0
   26.1059  -34.9447  -12.1189 C   0  0  1  0  0  0  0  0  0  0  0  0
   26.1315  -33.4699  -12.3556 C   0  0  0  0  0  0  0  0  0  0  0  0
   26.5648  -33.0790  -13.7200 C   0  0  0  0  0  0  0  0  0  0  0  0
   27.9623  -33.4177  -14.1010 C   0  0  0  0  0  0  0  0  0  0  0  0
   28.3151  -32.9482  -15.5101 C   0  0  0  0  0  0  0  0  0  0  0  0
   29.6527  -33.3891  -15.8202 N   0  0  0  0  0  0  0  0  0  0  0  0
   26.1722  -35.2927  -10.6770 C   0  0  0  0  0  0  0  0  0  0  0  0
   25.1862  -35.0532   -9.9344 O   0  0  0  0  0  0  0  0  0  0  0  0
   28.6512  -36.9804   -8.3184 C   0  0  0  0  0  0  0  0  0  0  0  0
   27.4317  -36.1423   -8.6573 C   0  0  2  0  0  0  0  0  0  0  0  0
   27.3035  -35.8935  -10.0633 N   0  0  0  0  0  0  0  0  0  0  0  0
   27.4858  -34.9087   -7.8429 C   0  0  0  0  0  0  0  0  0  0  0  0
   28.1947  -33.9140   -8.1119 O   0  0  0  0  0  0  0  0  0  0  0  0
   24.8740  -32.5201   -7.0399 C   0  0  0  0  0  0  0  0  0  0  0  0
   25.2728  -33.1843   -5.7489 C   0  0  2  0  0  0  0  0  0  0  0  0
   25.1767  -32.1521   -4.6460 C   0  0  0  0  0  0  0  0  0  0  0  0
   26.6723  -33.7273   -5.7720 C   0  0  2  0  0  0  0  0  0  0  0  0
   26.6776  -34.8574   -6.6817 N   0  0  0  0  0  0  0  0  0  0  0  0
   27.1157  -34.2296   -4.4494 C   0  0  0  0  0  0  0  0  0  0  0  0
   27.6217  -33.3967   -3.4594 O   0  0  0  0  0  0  0  0  0  0  0  0
   27.0588  -35.4632   -4.1398 O   0  0  0  0  0  0  0  0  0  0  0  0
  2  1  1  1
  2  8  1  0
  3  4  1  0
  3  2  1  0
  5  6  1  0
  5  4  1  0
  6  7  1  0
  8 12  1  0
  8  9  2  0
 11 10  1  6
 11 13  1  0
 12 11  1  0
 13 14  2  0
 16 17  1  1
 16 15  1  0
 16 18  1  0
 18 19  1  6
 19 13  1  0
 20 21  1  0
 20 18  1  0
 22 20  2  0
M  END
$$$$
