KAV.pdb
     RDKit          3D

 22 21  0  0  1  0  0  0  0  0999 V2000
   25.6998  -24.2876  -16.5881 N   0  0  0  0  0  0  0  0  0  0  0  0
   26.9235  -24.6640  -17.2317 C   0  0  1  0  0  0  0  0  0  0  0  0
   28.0991  -24.2373  -16.4147 C   0  0  0  0  0  0  0  0  0  0  0  0
   28.4500  -22.8022  -16.5547 C   0  0  0  0  0  0  0  0  0  0  0  0
   28.7822  -22.3251  -17.9240 C   0  0  0  0  0  0  0  0  0  0  0  0
   29.2283  -20.8653  -17.9432 C   0  0  0  0  0  0  0  0  0  0  0  0
   29.6463  -20.5299  -19.2820 N   0  0  0  0  0  0  0  0  0  0  0  0
   26.9658  -26.1060  -17.5833 C   0  0  0  0  0  0  0  0  0  0  0  0
   26.3335  -26.9352  -16.8808 O   0  0  0  0  0  0  0  0  0  0  0  0
   28.4276  -28.2625  -20.3681 C   0  0  0  0  0  0  0  0  0  0  0  0
   27.8058  -28.0194  -19.0047 C   0  0  2  0  0  0  0  0  0  0  0  0
   27.6911  -26.6259  -18.6884 N   0  0  0  0  0  0  0  0  0  0  0  0
   28.5807  -28.7886  -18.0067 C   0  0  0  0  0  0  0  0  0  0  0  0
   29.4299  -28.2916  -17.2347 O   0  0  0  0  0  0  0  0  0  0  0  0
   27.5771  -32.9170  -17.8259 C   0  0  0  0  0  0  0  0  0  0  0  0
   28.0903  -32.1576  -16.6313 C   0  0  2  0  0  0  0  0  0  0  0  0
   26.8998  -31.5544  -15.9174 C   0  0  0  0  0  0  0  0  0  0  0  0
   29.0367  -31.0511  -16.9972 C   0  0  2  0  0  0  0  0  0  0  0  0
   28.3394  -30.1812  -17.9255 N   0  0  0  0  0  0  0  0  0  0  0  0
   30.2537  -31.5408  -17.6883 C   0  0  0  0  0  0  0  0  0  0  0  0
   31.3705  -32.0064  -17.0059 O   0  0  0  0  0  0  0  0  0  0  0  0
   30.3483  -31.5641  -18.9577 O   0  0  0  0  0  0  0  0  0  0  0  0
  2  1  1  1
  2  8  1  0
  3  4  1  0
  3  2  1  0
  5  6  1  0
  5  4  1  0
  6  7  1  0
  8 12  1  0
  8  9  2  0
 11 10  1  6
 11 13  1  0
 12 11  1  0
 13 14  2  0
 16 17  1  6
 16 15  1  0
 16 18  1  0
 18 19  1  6
 19 13  1  0
 20 21  1  0
 20 18  1  0
 22 20  2  0
M  END
$$$$
