PEE.pdb
     RDKit          3D

 26 26  0  0  1  0  0  0  0  0999 V2000
   16.3999  -24.6422   -3.5198 N   0  0  0  0  0  0  0  0  0  0  0  0
   17.1576  -25.5834   -4.3535 C   0  0  0  0  0  0  0  0  0  0  0  0
   17.3229  -26.7754   -3.4332 C   0  0  0  0  0  0  0  0  0  0  0  0
   16.0667  -26.7975   -2.6200 C   0  0  0  0  0  0  0  0  0  0  0  0
   15.3980  -25.4784   -2.8699 C   0  0  1  0  0  0  0  0  0  0  0  0
   14.8144  -24.8500   -1.6725 C   0  0  0  0  0  0  0  0  0  0  0  0
   14.4998  -23.6416   -1.6535 O   0  0  0  0  0  0  0  0  0  0  0  0
   14.5969  -25.6039   -0.5119 N   0  0  0  0  0  0  0  0  0  0  0  0
   14.0045  -25.0289    0.6643 C   0  0  1  0  0  0  0  0  0  0  0  0
   13.2882  -25.9665    1.5457 C   0  0  0  0  0  0  0  0  0  0  0  0
   12.4945  -25.3735    2.6632 C   0  0  0  0  0  0  0  0  0  0  0  0
   11.8603  -26.3710    3.5379 C   0  0  0  0  0  0  0  0  0  0  0  0
   12.3982  -26.6993    4.6078 O   0  0  0  0  0  0  0  0  0  0  0  0
   15.0694  -24.3475    1.4896 C   0  0  0  0  0  0  0  0  0  0  0  0
   16.2488  -24.7151    1.4528 O   0  0  0  0  0  0  0  0  0  0  0  0
   10.6633  -26.9458    3.1710 O   0  0  0  0  0  0  0  0  0  0  0  0
   14.7156  -23.2727    2.3172 N   0  0  0  0  0  0  0  0  0  0  0  0
   15.6325  -22.4458    3.0566 C   0  0  1  0  0  0  0  0  0  0  0  0
   15.2521  -21.0189    3.1472 C   0  0  0  0  0  0  0  0  0  0  0  0
   16.2598  -20.1621    3.8550 C   0  0  0  0  0  0  0  0  0  0  0  0
   15.8557  -18.7498    4.0079 C   0  0  0  0  0  0  0  0  0  0  0  0
   16.1599  -18.1074    5.0372 O   0  0  0  0  0  0  0  0  0  0  0  0
   15.6937  -22.9773    4.4468 C   0  0  0  0  0  0  0  0  0  0  0  0
   14.6396  -23.2364    5.0620 O   0  0  0  0  0  0  0  0  0  0  0  0
   15.1306  -18.0766    3.0346 O   0  0  0  0  0  0  0  0  0  0  0  0
   16.8933  -23.2035    5.1045 O   0  0  0  0  0  0  0  0  0  0  0  0
  1  2  1  0
  1  5  1  0
  2  3  1  0
  3  4  1  0
  5  6  1  1
  5  4  1  0
  6  7  2  0
  8  9  1  0
  8  6  1  0
  9 10  1  1
 11 10  1  0
 12 11  1  0
 12 13  2  0
 14 15  2  0
 14  9  1  0
 16 12  1  0
 17 14  1  0
 18 17  1  0
 18 19  1  1
 20 21  1  0
 20 19  1  0
 21 22  2  0
 23 18  1  0
 23 26  1  0
 24 23  2  0
 25 21  1  0
M  END
$$$$
