PEE.pdb
     RDKit          3D

 26 26  0  0  1  0  0  0  0  0999 V2000
   27.9945  -22.8340  -17.9162 N   0  0  0  0  0  0  0  0  0  0  0  0
   29.1445  -23.6177  -18.3839 C   0  0  0  0  0  0  0  0  0  0  0  0
   30.2696  -23.0996  -17.5116 C   0  0  0  0  0  0  0  0  0  0  0  0
   29.6151  -22.7882  -16.2022 C   0  0  0  0  0  0  0  0  0  0  0  0
   28.1391  -22.8319  -16.4655 C   0  0  1  0  0  0  0  0  0  0  0  0
   27.3677  -21.7603  -15.8129 C   0  0  0  0  0  0  0  0  0  0  0  0
   27.3892  -21.5977  -14.5749 O   0  0  0  0  0  0  0  0  0  0  0  0
   26.5812  -20.8881  -16.5766 N   0  0  0  0  0  0  0  0  0  0  0  0
   25.8500  -19.8063  -15.9766 C   0  0  1  0  0  0  0  0  0  0  0  0
   26.1544  -18.4614  -16.4939 C   0  0  0  0  0  0  0  0  0  0  0  0
   25.8752  -18.2127  -17.9398 C   0  0  0  0  0  0  0  0  0  0  0  0
   26.2456  -16.8641  -18.3944 C   0  0  0  0  0  0  0  0  0  0  0  0
   25.3724  -16.0714  -18.7829 O   0  0  0  0  0  0  0  0  0  0  0  0
   24.3677  -20.0376  -16.1466 C   0  0  0  0  0  0  0  0  0  0  0  0
   23.9050  -20.5252  -17.1837 O   0  0  0  0  0  0  0  0  0  0  0  0
   27.5673  -16.4758  -18.3906 O   0  0  0  0  0  0  0  0  0  0  0  0
   23.4939  -19.6928  -15.1061 N   0  0  0  0  0  0  0  0  0  0  0  0
   22.0810  -19.9651  -15.0720 C   0  0  1  0  0  0  0  0  0  0  0  0
   21.6163  -20.7017  -13.8759 C   0  0  0  0  0  0  0  0  0  0  0  0
   20.1671  -21.0868  -13.9210 C   0  0  0  0  0  0  0  0  0  0  0  0
   19.7148  -21.8859  -12.7642 C   0  0  0  0  0  0  0  0  0  0  0  0
   20.4890  -22.1220  -11.8105 O   0  0  0  0  0  0  0  0  0  0  0  0
   21.3719  -18.6553  -15.0892 C   0  0  0  0  0  0  0  0  0  0  0  0
   20.1338  -18.6186  -15.2392 O   0  0  0  0  0  0  0  0  0  0  0  0
   18.4309  -22.4061  -12.6791 O   0  0  0  0  0  0  0  0  0  0  0  0
   22.0370  -17.4475  -14.9426 O   0  0  0  0  0  0  0  0  0  0  0  0
  1  2  1  0
  1  5  1  0
  2  3  1  0
  3  4  1  0
  5  6  1  1
  5  4  1  0
  6  7  2  0
  8  9  1  0
  8  6  1  0
  9 10  1  6
 11 10  1  0
 12 11  1  0
 12 13  2  0
 14 15  2  0
 14  9  1  0
 16 12  1  0
 17 14  1  0
 18 17  1  0
 18 19  1  1
 20 21  1  0
 20 19  1  0
 21 22  2  0
 23 18  1  0
 23 26  1  0
 24 23  2  0
 25 21  1  0
M  END
$$$$
