PEE.pdb
     RDKit          3D

 26 26  0  0  1  0  0  0  0  0999 V2000
   27.1547  -19.2094  -15.4285 N   0  0  0  0  0  0  0  0  0  0  0  0
   28.5610  -18.9700  -15.7749 C   0  0  0  0  0  0  0  0  0  0  0  0
   29.2668  -20.1239  -15.0927 C   0  0  0  0  0  0  0  0  0  0  0  0
   28.2953  -21.2592  -15.1767 C   0  0  0  0  0  0  0  0  0  0  0  0
   26.9923  -20.6481  -15.5990 C   0  0  1  0  0  0  0  0  0  0  0  0
   25.8103  -21.1797  -14.8993 C   0  0  0  0  0  0  0  0  0  0  0  0
   25.5455  -22.4002  -14.8938 O   0  0  0  0  0  0  0  0  0  0  0  0
   24.9443  -20.3164  -14.2157 N   0  0  0  0  0  0  0  0  0  0  0  0
   23.8520  -20.8109  -13.4237 C   0  0  1  0  0  0  0  0  0  0  0  0
   23.9518  -20.5734  -11.9737 C   0  0  0  0  0  0  0  0  0  0  0  0
   25.0813  -21.2356  -11.2551 C   0  0  0  0  0  0  0  0  0  0  0  0
   25.1189  -20.9499   -9.8131 C   0  0  0  0  0  0  0  0  0  0  0  0
   24.2048  -20.3018   -9.2782 O   0  0  0  0  0  0  0  0  0  0  0  0
   22.5581  -20.1959  -13.9005 C   0  0  0  0  0  0  0  0  0  0  0  0
   22.4800  -18.9959  -14.1858 O   0  0  0  0  0  0  0  0  0  0  0  0
   26.1724  -21.4023   -9.0495 O   0  0  0  0  0  0  0  0  0  0  0  0
   21.4177  -21.0018  -14.0236 N   0  0  0  0  0  0  0  0  0  0  0  0
   20.1199  -20.5581  -14.4599 C   0  0  1  0  0  0  0  0  0  0  0  0
   19.1565  -21.6417  -14.7543 C   0  0  0  0  0  0  0  0  0  0  0  0
   17.7838  -21.1566  -15.1159 C   0  0  0  0  0  0  0  0  0  0  0  0
   16.8230  -22.2328  -15.4319 C   0  0  0  0  0  0  0  0  0  0  0  0
   17.1671  -23.4337  -15.3684 O   0  0  0  0  0  0  0  0  0  0  0  0
   19.5375  -19.7325  -13.3654 C   0  0  0  0  0  0  0  0  0  0  0  0
   19.8105  -19.9921  -12.1759 O   0  0  0  0  0  0  0  0  0  0  0  0
   15.5133  -21.9703  -15.8090 O   0  0  0  0  0  0  0  0  0  0  0  0
   18.6877  -18.6647  -13.6108 O   0  0  0  0  0  0  0  0  0  0  0  0
  1  2  1  0
  1  5  1  0
  2  3  1  0
  3  4  1  0
  5  6  1  1
  5  4  1  0
  6  7  2  0
  8  9  1  0
  8  6  1  0
  9 10  1  1
 11 10  1  0
 12 11  1  0
 12 13  2  0
 14 15  2  0
 14  9  1  0
 16 12  1  0
 17 14  1  0
 18 17  1  0
 18 19  1  1
 20 21  1  0
 20 19  1  0
 21 22  2  0
 23 18  1  0
 23 26  1  0
 24 23  2  0
 25 21  1  0
M  END
$$$$
