PEE.pdb
     RDKit          3D

 26 26  0  0  1  0  0  0  0  0999 V2000
   19.1346  -10.6073  -17.1749 N   0  0  0  0  0  0  0  0  0  0  0  0
   19.2114  -12.0301  -17.5282 C   0  0  0  0  0  0  0  0  0  0  0  0
   19.4906  -12.6845  -16.1908 C   0  0  0  0  0  0  0  0  0  0  0  0
   18.7534  -11.8396  -15.1995 C   0  0  0  0  0  0  0  0  0  0  0  0
   18.3616  -10.5949  -15.9389 C   0  0  1  0  0  0  0  0  0  0  0  0
   18.5254   -9.3485  -15.1714 C   0  0  0  0  0  0  0  0  0  0  0  0
   17.9125   -9.1522  -14.1011 O   0  0  0  0  0  0  0  0  0  0  0  0
   19.3833   -8.3411  -15.6315 N   0  0  0  0  0  0  0  0  0  0  0  0
   19.4678   -7.0629  -14.9803 C   0  0  1  0  0  0  0  0  0  0  0  0
   20.8269   -6.5290  -14.7890 C   0  0  0  0  0  0  0  0  0  0  0  0
   20.9483   -5.2311  -14.0601 C   0  0  0  0  0  0  0  0  0  0  0  0
   22.3252   -4.7218  -13.9761 C   0  0  0  0  0  0  0  0  0  0  0  0
   23.2790   -5.4303  -14.3366 O   0  0  0  0  0  0  0  0  0  0  0  0
   18.6798   -6.0399  -15.7627 C   0  0  0  0  0  0  0  0  0  0  0  0
   18.7696   -5.9581  -16.9926 O   0  0  0  0  0  0  0  0  0  0  0  0
   22.5611   -3.4526  -13.4952 O   0  0  0  0  0  0  0  0  0  0  0  0
   17.8257   -5.1615  -15.0813 N   0  0  0  0  0  0  0  0  0  0  0  0
   16.9255   -4.2214  -15.6954 C   0  0  1  0  0  0  0  0  0  0  0  0
   15.5675   -4.1839  -15.1094 C   0  0  0  0  0  0  0  0  0  0  0  0
   14.6216   -3.2606  -15.8191 C   0  0  0  0  0  0  0  0  0  0  0  0
   13.2068   -3.4224  -15.4277 C   0  0  0  0  0  0  0  0  0  0  0  0
   12.8789   -4.2499  -14.5489 O   0  0  0  0  0  0  0  0  0  0  0  0
   17.5162   -2.8637  -15.5326 C   0  0  0  0  0  0  0  0  0  0  0  0
   18.1095   -2.5647  -14.4765 O   0  0  0  0  0  0  0  0  0  0  0  0
   12.1879   -2.6779  -16.0056 O   0  0  0  0  0  0  0  0  0  0  0  0
   17.4369   -1.8946  -16.5211 O   0  0  0  0  0  0  0  0  0  0  0  0
  1  2  1  0
  1  5  1  0
  2  3  1  0
  3  4  1  0
  5  6  1  1
  5  4  1  0
  6  7  2  0
  8  9  1  0
  8  6  1  0
  9 10  1  6
 11 10  1  0
 12 11  1  0
 12 13  2  0
 14 15  2  0
 14  9  1  0
 16 12  1  0
 17 14  1  0
 18 17  1  0
 18 19  1  1
 20 21  1  0
 20 19  1  0
 21 22  2  0
 23 18  1  0
 23 26  1  0
 24 23  2  0
 25 21  1  0
M  END
$$$$
