PEE.pdb
     RDKit          3D

 26 26  0  0  1  0  0  0  0  0999 V2000
   26.5574  -32.5095  -16.4052 N   0  0  0  0  0  0  0  0  0  0  0  0
   27.5934  -33.2437  -15.6684 C   0  0  0  0  0  0  0  0  0  0  0  0
   28.6450  -32.1787  -15.4344 C   0  0  0  0  0  0  0  0  0  0  0  0
   27.8645  -30.9137  -15.2602 C   0  0  0  0  0  0  0  0  0  0  0  0
   26.4685  -31.2335  -15.7059 C   0  0  1  0  0  0  0  0  0  0  0  0
   25.8255  -30.1809  -16.5109 C   0  0  0  0  0  0  0  0  0  0  0  0
   25.7082  -29.0117  -16.0879 O   0  0  0  0  0  0  0  0  0  0  0  0
   25.3236  -30.4718  -17.7860 N   0  0  0  0  0  0  0  0  0  0  0  0
   24.6914  -29.4685  -18.5977 C   0  0  1  0  0  0  0  0  0  0  0  0
   24.8844  -29.6041  -20.0514 C   0  0  0  0  0  0  0  0  0  0  0  0
   26.2658  -29.3838  -20.5747 C   0  0  0  0  0  0  0  0  0  0  0  0
   26.3385  -29.2830  -22.0399 C   0  0  0  0  0  0  0  0  0  0  0  0
   27.4335  -29.1266  -22.6041 O   0  0  0  0  0  0  0  0  0  0  0  0
   23.2052  -29.4607  -18.3318 C   0  0  0  0  0  0  0  0  0  0  0  0
   22.5794  -30.5075  -18.1317 O   0  0  0  0  0  0  0  0  0  0  0  0
   25.1876  -29.3618  -22.7928 O   0  0  0  0  0  0  0  0  0  0  0  0
   22.5166  -28.2397  -18.3105 N   0  0  0  0  0  0  0  0  0  0  0  0
   21.1287  -28.0650  -17.9720 C   0  0  1  0  0  0  0  0  0  0  0  0
   20.8698  -27.7288  -16.5546 C   0  0  0  0  0  0  0  0  0  0  0  0
   19.4157  -27.5735  -16.2198 C   0  0  0  0  0  0  0  0  0  0  0  0
   19.1549  -27.1410  -14.8320 C   0  0  0  0  0  0  0  0  0  0  0  0
   20.0992  -26.9657  -14.0306 O   0  0  0  0  0  0  0  0  0  0  0  0
   20.6046  -26.9410  -18.7970 C   0  0  0  0  0  0  0  0  0  0  0  0
   21.3960  -26.1934  -19.4067 O   0  0  0  0  0  0  0  0  0  0  0  0
   17.8716  -26.9120  -14.3556 O   0  0  0  0  0  0  0  0  0  0  0  0
   19.2486  -26.6802  -18.9232 O   0  0  0  0  0  0  0  0  0  0  0  0
  1  2  1  0
  1  5  1  0
  2  3  1  0
  3  4  1  0
  5  6  1  6
  5  4  1  0
  6  7  2  0
  8  9  1  0
  8  6  1  0
  9 10  1  6
 11 10  1  0
 12 11  1  0
 12 13  2  0
 14 15  2  0
 14  9  1  0
 16 12  1  0
 17 14  1  0
 18 17  1  0
 18 19  1  1
 20 21  1  0
 20 19  1  0
 21 22  2  0
 23 18  1  0
 23 26  1  0
 24 23  2  0
 25 21  1  0
M  END
$$$$
