HKR.pdb
     RDKit          3D

 31 31  0  0  1  0  0  0  0  0999 V2000
   27.5410  -22.5759  -17.5262 N   0  0  0  0  0  0  0  0  0  0  0  0
   27.1095  -21.3643  -16.9092 C   0  0  1  0  0  0  0  0  0  0  0  0
   26.6326  -20.4017  -17.9395 C   0  0  0  0  0  0  0  0  0  0  0  0
   27.4431  -19.1622  -18.0242 C   0  0  0  0  0  0  0  0  0  0  0  0
   28.7765  -19.0291  -18.4122 C   0  0  0  0  0  0  0  0  0  0  0  0
   29.1326  -17.7321  -18.3497 N   0  0  0  0  0  0  0  0  0  0  0  0
   28.0683  -17.0445  -17.9353 C   0  0  0  0  0  0  0  0  0  0  0  0
   27.0344  -17.9146  -17.7355 N   0  0  0  0  0  0  0  0  0  0  0  0
   26.1069  -21.6341  -15.8395 C   0  0  0  0  0  0  0  0  0  0  0  0
   25.2043  -22.4501  -16.1199 O   0  0  0  0  0  0  0  0  0  0  0  0
   26.1375  -21.0325  -14.5838 N   0  0  0  0  0  0  0  0  0  0  0  0
   25.2354  -21.1319  -13.5050 C   0  0  1  0  0  0  0  0  0  0  0  0
   25.7343  -20.8590  -12.1209 C   0  0  0  0  0  0  0  0  0  0  0  0
   24.8110  -21.0613  -10.9946 C   0  0  0  0  0  0  0  0  0  0  0  0
   25.4231  -20.7146   -9.6439 C   0  0  0  0  0  0  0  0  0  0  0  0
   24.4083  -21.0448   -8.5417 C   0  0  0  0  0  0  0  0  0  0  0  0
   24.8340  -20.5675   -7.2582 N   0  0  0  0  0  0  0  0  0  0  0  0
   23.9253  -20.4898  -13.6872 C   0  0  0  0  0  0  0  0  0  0  0  0
   23.8796  -19.2566  -13.8768 O   0  0  0  0  0  0  0  0  0  0  0  0
   16.8567  -23.4122  -17.6548 N   0  0  0  0  0  0  0  0  0  0  0  0
   18.1655  -22.9312  -17.9606 C   0  0  0  0  0  0  0  0  0  0  0  0
   18.7301  -23.2703  -19.0598 N   0  0  0  0  0  0  0  0  0  0  0  0
   18.8638  -22.0769  -17.0619 N   0  0  0  0  0  0  0  0  0  0  0  0
   18.3000  -21.5908  -15.8318 C   0  0  0  0  0  0  0  0  0  0  0  0
   19.2018  -20.7658  -14.9800 C   0  0  0  0  0  0  0  0  0  0  0  0
   20.5352  -21.3914  -14.7913 C   0  0  0  0  0  0  0  0  0  0  0  0
   21.4055  -20.5731  -13.8225 C   0  0  2  0  0  0  0  0  0  0  0  0
   22.6897  -21.1955  -13.6599 N   0  0  0  0  0  0  0  0  0  0  0  0
   20.6844  -20.4148  -12.5380 C   0  0  0  0  0  0  0  0  0  0  0  0
   19.7764  -19.3815  -12.4043 O   0  0  0  0  0  0  0  0  0  0  0  0
   20.8648  -21.1819  -11.5645 O   0  0  0  0  0  0  0  0  0  0  0  0
  2  1  1  6
  2  3  1  0
  3  4  1  0
  4  8  1  0
  4  5  2  0
  5  6  1  0
  7  6  1  0
  8  7  2  0
  9  2  1  0
  9 11  1  0
 10  9  2  0
 11 12  1  0
 13 14  1  0
 12 13  1  1
 14 15  1  0
 15 16  1  0
 17 16  1  0
 18 12  1  0
 19 18  2  0
 20 21  1  0
 21 22  2  0
 23 21  1  0
 23 24  1  0
 24 25  1  0
 26 25  1  0
 27 26  1  6
 27 28  1  0
 27 29  1  0
 28 18  1  0
 29 30  1  0
 31 29  2  0
M  END
$$$$
