HKR.pdb
     RDKit          3D

 31 31  0  0  1  0  0  0  0  0999 V2000
   27.8735  -22.3975  -19.8053 N   0  0  0  0  0  0  0  0  0  0  0  0
   28.5694  -22.7812  -18.6207 C   0  0  1  0  0  0  0  0  0  0  0  0
   27.8542  -22.2783  -17.4161 C   0  0  0  0  0  0  0  0  0  0  0  0
   27.7500  -20.7999  -17.3531 C   0  0  0  0  0  0  0  0  0  0  0  0
   26.6798  -19.9938  -17.7422 C   0  0  0  0  0  0  0  0  0  0  0  0
   26.9899  -18.7024  -17.5212 N   0  0  0  0  0  0  0  0  0  0  0  0
   28.2190  -18.6684  -17.0064 C   0  0  0  0  0  0  0  0  0  0  0  0
   28.6866  -19.9476  -16.9021 N   0  0  0  0  0  0  0  0  0  0  0  0
   28.8151  -24.2513  -18.5946 C   0  0  0  0  0  0  0  0  0  0  0  0
   28.1243  -24.9418  -19.3726 O   0  0  0  0  0  0  0  0  0  0  0  0
   29.7525  -24.8624  -17.7656 N   0  0  0  0  0  0  0  0  0  0  0  0
   30.0760  -26.2255  -17.6076 C   0  0  1  0  0  0  0  0  0  0  0  0
   31.3904  -26.5874  -16.9908 C   0  0  0  0  0  0  0  0  0  0  0  0
   32.6064  -25.9504  -17.5174 C   0  0  0  0  0  0  0  0  0  0  0  0
   33.8780  -26.4048  -16.8131 C   0  0  0  0  0  0  0  0  0  0  0  0
   35.0793  -25.7037  -17.4605 C   0  0  0  0  0  0  0  0  0  0  0  0
   36.3266  -26.1865  -16.9432 N   0  0  0  0  0  0  0  0  0  0  0  0
   29.0222  -27.0872  -17.0518 C   0  0  0  0  0  0  0  0  0  0  0  0
   28.2826  -26.6326  -16.1546 O   0  0  0  0  0  0  0  0  0  0  0  0
   25.6020  -35.0180  -17.0802 N   0  0  0  0  0  0  0  0  0  0  0  0
   25.2463  -34.4322  -15.8279 C   0  0  0  0  0  0  0  0  0  0  0  0
   24.3871  -35.0103  -15.0732 N   0  0  0  0  0  0  0  0  0  0  0  0
   25.8294  -33.2078  -15.3965 N   0  0  0  0  0  0  0  0  0  0  0  0
   26.8382  -32.5051  -16.1419 C   0  0  0  0  0  0  0  0  0  0  0  0
   27.3746  -31.2670  -15.5104 C   0  0  0  0  0  0  0  0  0  0  0  0
   28.3484  -30.5607  -16.3809 C   0  0  0  0  0  0  0  0  0  0  0  0
   27.7494  -29.2656  -16.9549 C   0  0  2  0  0  0  0  0  0  0  0  0
   28.7900  -28.4251  -17.4782 N   0  0  0  0  0  0  0  0  0  0  0  0
   26.9506  -28.5929  -15.9040 C   0  0  0  0  0  0  0  0  0  0  0  0
   25.5896  -28.4433  -16.0922 O   0  0  0  0  0  0  0  0  0  0  0  0
   27.4602  -28.1525  -14.8481 O   0  0  0  0  0  0  0  0  0  0  0  0
  2  1  1  6
  2  3  1  0
  3  4  1  0
  4  8  1  0
  4  5  2  0
  5  6  1  0
  7  6  1  0
  8  7  2  0
  9  2  1  0
  9 11  1  0
 10  9  2  0
 11 12  1  0
 13 14  1  0
 12 13  1  1
 14 15  1  0
 15 16  1  0
 17 16  1  0
 18 12  1  0
 19 18  2  0
 20 21  1  0
 21 22  2  0
 23 21  1  0
 23 24  1  0
 24 25  1  0
 26 25  1  0
 27 26  1  1
 27 28  1  0
 27 29  1  0
 28 18  1  0
 29 30  1  0
 31 29  2  0
M  END
$$$$
