HKR.pdb
     RDKit          3D

 31 31  0  0  1  0  0  0  0  0999 V2000
   29.8192  -16.5294  -17.7657 N   0  0  0  0  0  0  0  0  0  0  0  0
   28.4012  -16.6770  -17.8139 C   0  0  1  0  0  0  0  0  0  0  0  0
   27.9302  -16.6785  -19.2259 C   0  0  0  0  0  0  0  0  0  0  0  0
   26.4629  -16.8429  -19.3692 C   0  0  0  0  0  0  0  0  0  0  0  0
   25.7303  -18.0286  -19.4315 C   0  0  0  0  0  0  0  0  0  0  0  0
   24.4221  -17.7391  -19.5643 N   0  0  0  0  0  0  0  0  0  0  0  0
   24.3067  -16.4112  -19.5880 C   0  0  0  0  0  0  0  0  0  0  0  0
   25.5510  -15.8604  -19.4690 N   0  0  0  0  0  0  0  0  0  0  0  0
   27.9592  -17.8716  -17.0394 C   0  0  0  0  0  0  0  0  0  0  0  0
   28.3235  -18.9821  -17.4789 O   0  0  0  0  0  0  0  0  0  0  0  0
   27.1834  -17.7989  -15.8851 N   0  0  0  0  0  0  0  0  0  0  0  0
   26.7976  -18.8112  -14.9828 C   0  0  1  0  0  0  0  0  0  0  0  0
   26.5046  -18.4382  -13.5636 C   0  0  0  0  0  0  0  0  0  0  0  0
   25.8566  -19.4364  -12.7001 C   0  0  0  0  0  0  0  0  0  0  0  0
   26.5557  -19.6179  -11.3593 C   0  0  0  0  0  0  0  0  0  0  0  0
   25.8003  -20.6779  -10.5473 C   0  0  0  0  0  0  0  0  0  0  0  0
   26.3780  -20.8738   -9.2495 N   0  0  0  0  0  0  0  0  0  0  0  0
   25.7782  -19.7577  -15.4592 C   0  0  0  0  0  0  0  0  0  0  0  0
   24.7385  -19.3095  -15.9855 O   0  0  0  0  0  0  0  0  0  0  0  0
   22.1626  -26.3561  -14.6824 N   0  0  0  0  0  0  0  0  0  0  0  0
   22.5759  -27.0920  -15.8336 C   0  0  0  0  0  0  0  0  0  0  0  0
   21.7678  -27.9176  -16.3883 N   0  0  0  0  0  0  0  0  0  0  0  0
   23.8786  -26.9286  -16.3826 N   0  0  0  0  0  0  0  0  0  0  0  0
   24.8072  -25.9268  -15.9338 C   0  0  0  0  0  0  0  0  0  0  0  0
   24.3241  -24.5183  -15.9829 C   0  0  0  0  0  0  0  0  0  0  0  0
   25.3788  -23.5421  -15.6093 C   0  0  0  0  0  0  0  0  0  0  0  0
   24.8568  -22.0974  -15.6856 C   0  0  2  0  0  0  0  0  0  0  0  0
   25.9042  -21.1716  -15.3560 N   0  0  0  0  0  0  0  0  0  0  0  0
   23.6776  -21.9600  -14.7991 C   0  0  0  0  0  0  0  0  0  0  0  0
   22.4313  -22.3052  -15.2865 O   0  0  0  0  0  0  0  0  0  0  0  0
   23.7644  -21.5422  -13.6216 O   0  0  0  0  0  0  0  0  0  0  0  0
  2  1  1  6
  2  3  1  0
  3  4  1  0
  4  8  1  0
  4  5  2  0
  5  6  1  0
  7  6  1  0
  8  7  2  0
  9  2  1  0
  9 11  1  0
 10  9  2  0
 11 12  1  0
 13 14  1  0
 12 13  1  1
 14 15  1  0
 15 16  1  0
 17 16  1  0
 18 12  1  0
 19 18  2  0
 20 21  1  0
 21 22  2  0
 23 21  1  0
 23 24  1  0
 24 25  1  0
 26 25  1  0
 27 26  1  1
 27 28  1  0
 27 29  1  0
 28 18  1  0
 29 30  1  0
 31 29  2  0
M  END
$$$$
