HKR.pdb
     RDKit          3D

 31 31  0  0  1  0  0  0  0  0999 V2000
   18.5431  -11.0118  -15.2783 N   0  0  0  0  0  0  0  0  0  0  0  0
   17.3385  -10.3912  -14.8328 C   0  0  1  0  0  0  0  0  0  0  0  0
   16.4924  -11.3728  -14.1005 C   0  0  0  0  0  0  0  0  0  0  0  0
   16.0855  -12.5421  -14.9175 C   0  0  0  0  0  0  0  0  0  0  0  0
   16.5543  -13.8538  -14.8386 C   0  0  0  0  0  0  0  0  0  0  0  0
   15.9270  -14.6086  -15.7604 N   0  0  0  0  0  0  0  0  0  0  0  0
   15.0794  -13.8162  -16.4168 C   0  0  0  0  0  0  0  0  0  0  0  0
   15.1733  -12.5533  -15.9048 N   0  0  0  0  0  0  0  0  0  0  0  0
   17.6285   -9.1565  -14.0493 C   0  0  0  0  0  0  0  0  0  0  0  0
   18.1738   -9.3214  -12.9382 O   0  0  0  0  0  0  0  0  0  0  0  0
   17.3257   -7.8718  -14.4936 N   0  0  0  0  0  0  0  0  0  0  0  0
   17.4544   -6.6291  -13.8403 C   0  0  1  0  0  0  0  0  0  0  0  0
   17.6746   -5.4005  -14.6656 C   0  0  0  0  0  0  0  0  0  0  0  0
   18.7465   -5.4195  -15.6718 C   0  0  0  0  0  0  0  0  0  0  0  0
   18.8994   -4.0987  -16.4144 C   0  0  0  0  0  0  0  0  0  0  0  0
   19.9722   -4.2623  -17.4988 C   0  0  0  0  0  0  0  0  0  0  0  0
   19.9890   -3.1553  -18.4102 N   0  0  0  0  0  0  0  0  0  0  0  0
   16.4706   -6.3397  -12.7866 C   0  0  0  0  0  0  0  0  0  0  0  0
   15.2668   -6.5927  -13.0000 O   0  0  0  0  0  0  0  0  0  0  0  0
   12.1593   -9.8971   -7.0089 N   0  0  0  0  0  0  0  0  0  0  0  0
   11.8607   -8.5328   -6.7136 C   0  0  0  0  0  0  0  0  0  0  0  0
   10.9253   -8.2484   -5.8852 N   0  0  0  0  0  0  0  0  0  0  0  0
   12.5848   -7.4720   -7.3264 N   0  0  0  0  0  0  0  0  0  0  0  0
   13.5396   -7.6715   -8.3827 C   0  0  0  0  0  0  0  0  0  0  0  0
   14.1945   -6.4430   -8.9131 C   0  0  0  0  0  0  0  0  0  0  0  0
   15.1267   -6.7335  -10.0318 C   0  0  0  0  0  0  0  0  0  0  0  0
   15.8499   -5.4604  -10.5027 C   0  0  2  0  0  0  0  0  0  0  0  0
   16.8095   -5.7812  -11.5222 N   0  0  0  0  0  0  0  0  0  0  0  0
   16.4661   -4.7915   -9.3331 C   0  0  0  0  0  0  0  0  0  0  0  0
   17.8424   -4.7996   -9.2071 O   0  0  0  0  0  0  0  0  0  0  0  0
   15.7882   -4.2169   -8.4506 O   0  0  0  0  0  0  0  0  0  0  0  0
  2  1  1  1
  2  3  1  0
  3  4  1  0
  4  8  1  0
  4  5  2  0
  5  6  1  0
  7  6  1  0
  8  7  2  0
  9  2  1  0
  9 11  1  0
 10  9  2  0
 11 12  1  0
 13 14  1  0
 12 13  1  6
 14 15  1  0
 15 16  1  0
 17 16  1  0
 18 12  1  0
 19 18  2  0
 20 21  1  0
 21 22  2  0
 23 21  1  0
 23 24  1  0
 24 25  1  0
 26 25  1  0
 27 26  1  1
 27 28  1  0
 27 29  1  0
 28 18  1  0
 29 30  1  0
 31 29  2  0
M  END
$$$$
