HKR.pdb
     RDKit          3D

 31 31  0  0  1  0  0  0  0  0999 V2000
   17.8071  -17.3870  -17.3259 N   0  0  0  0  0  0  0  0  0  0  0  0
   18.7715  -18.0030  -16.4743 C   0  0  1  0  0  0  0  0  0  0  0  0
   18.4357  -17.7499  -15.0464 C   0  0  0  0  0  0  0  0  0  0  0  0
   18.5056  -16.3201  -14.6575 C   0  0  0  0  0  0  0  0  0  0  0  0
   19.3559  -15.7201  -13.7282 C   0  0  0  0  0  0  0  0  0  0  0  0
   19.0950  -14.4005  -13.6709 N   0  0  0  0  0  0  0  0  0  0  0  0
   18.1093  -14.1497  -14.5325 C   0  0  0  0  0  0  0  0  0  0  0  0
   17.7466  -15.3197  -15.1371 N   0  0  0  0  0  0  0  0  0  0  0  0
   18.9291  -19.4492  -16.7997 C   0  0  0  0  0  0  0  0  0  0  0  0
   17.8803  -20.1259  -16.8359 O   0  0  0  0  0  0  0  0  0  0  0  0
   20.1576  -20.0530  -17.0561 N   0  0  0  0  0  0  0  0  0  0  0  0
   20.4800  -21.4107  -17.2568 C   0  0  1  0  0  0  0  0  0  0  0  0
   21.6978  -21.7516  -18.0567 C   0  0  0  0  0  0  0  0  0  0  0  0
   21.9126  -23.1561  -18.4351 C   0  0  0  0  0  0  0  0  0  0  0  0
   23.2682  -23.4050  -19.0830 C   0  0  0  0  0  0  0  0  0  0  0  0
   23.3782  -24.8921  -19.4437 C   0  0  0  0  0  0  0  0  0  0  0  0
   24.6666  -25.2215  -19.9804 N   0  0  0  0  0  0  0  0  0  0  0  0
   20.4145  -22.2799  -16.0727 C   0  0  0  0  0  0  0  0  0  0  0  0
   20.7679  -21.8201  -14.9671 O   0  0  0  0  0  0  0  0  0  0  0  0
   14.9648  -23.3318  -10.3279 N   0  0  0  0  0  0  0  0  0  0  0  0
   15.7942  -24.4552  -10.0314 C   0  0  0  0  0  0  0  0  0  0  0  0
   15.5602  -25.1651   -8.9905 N   0  0  0  0  0  0  0  0  0  0  0  0
   16.8864  -24.8059  -10.8735 N   0  0  0  0  0  0  0  0  0  0  0  0
   17.2974  -24.0208  -12.0057 C   0  0  0  0  0  0  0  0  0  0  0  0
   18.3120  -24.6446  -12.9006 C   0  0  0  0  0  0  0  0  0  0  0  0
   18.6948  -23.7597  -14.0300 C   0  0  0  0  0  0  0  0  0  0  0  0
   19.7372  -24.4320  -14.9394 C   0  0  2  0  0  0  0  0  0  0  0  0
   19.9680  -23.6308  -16.1089 N   0  0  0  0  0  0  0  0  0  0  0  0
   19.2806  -25.8021  -15.2706 C   0  0  0  0  0  0  0  0  0  0  0  0
   19.6414  -26.8458  -14.4396 O   0  0  0  0  0  0  0  0  0  0  0  0
   18.5786  -26.0540  -16.2767 O   0  0  0  0  0  0  0  0  0  0  0  0
  2  1  1  6
  2  3  1  0
  3  4  1  0
  4  8  1  0
  4  5  2  0
  5  6  1  0
  7  6  1  0
  8  7  2  0
  9  2  1  0
  9 11  1  0
 10  9  2  0
 11 12  1  0
 13 14  1  0
 12 13  1  1
 14 15  1  0
 15 16  1  0
 17 16  1  0
 18 12  1  0
 19 18  2  0
 20 21  1  0
 21 22  2  0
 23 21  1  0
 23 24  1  0
 24 25  1  0
 26 25  1  0
 27 26  1  1
 27 28  1  0
 27 29  1  0
 28 18  1  0
 29 30  1  0
 31 29  2  0
M  END
$$$$
