HKR.pdb
     RDKit          3D

 31 31  0  0  1  0  0  0  0  0999 V2000
   24.0473  -14.9938  -18.3182 N   0  0  0  0  0  0  0  0  0  0  0  0
   24.6826  -15.5232  -17.1559 C   0  0  1  0  0  0  0  0  0  0  0  0
   24.1481  -14.8669  -15.9314 C   0  0  0  0  0  0  0  0  0  0  0  0
   24.4857  -13.4263  -15.8262 C   0  0  0  0  0  0  0  0  0  0  0  0
   25.5024  -12.8316  -15.0787 C   0  0  0  0  0  0  0  0  0  0  0  0
   25.4673  -11.4977  -15.2584 N   0  0  0  0  0  0  0  0  0  0  0  0
   24.4627  -11.2328  -16.0937 C   0  0  0  0  0  0  0  0  0  0  0  0
   23.8608  -12.4083  -16.4427 N   0  0  0  0  0  0  0  0  0  0  0  0
   24.5870  -17.0104  -17.1222 C   0  0  0  0  0  0  0  0  0  0  0  0
   23.4526  -17.4966  -17.3115 O   0  0  0  0  0  0  0  0  0  0  0  0
   25.6759  -17.8487  -16.8962 N   0  0  0  0  0  0  0  0  0  0  0  0
   25.7277  -19.2471  -16.7249 C   0  0  1  0  0  0  0  0  0  0  0  0
   27.0553  -19.9335  -16.7982 C   0  0  0  0  0  0  0  0  0  0  0  0
   27.0839  -21.4028  -16.7504 C   0  0  0  0  0  0  0  0  0  0  0  0
   28.4932  -21.9793  -16.7819 C   0  0  0  0  0  0  0  0  0  0  0  0
   28.4003  -23.5099  -16.8280 C   0  0  0  0  0  0  0  0  0  0  0  0
   29.6743  -24.1187  -17.0787 N   0  0  0  0  0  0  0  0  0  0  0  0
   24.9551  -19.7970  -15.6012 C   0  0  0  0  0  0  0  0  0  0  0  0
   25.2047  -19.3970  -14.4452 O   0  0  0  0  0  0  0  0  0  0  0  0
   16.5884  -22.8176  -14.6652 N   0  0  0  0  0  0  0  0  0  0  0  0
   17.3269  -23.4075  -13.5954 C   0  0  0  0  0  0  0  0  0  0  0  0
   16.7524  -24.2333  -12.8016 N   0  0  0  0  0  0  0  0  0  0  0  0
   18.6995  -23.0938  -13.3884 N   0  0  0  0  0  0  0  0  0  0  0  0
   19.5611  -22.5883  -14.4226 C   0  0  0  0  0  0  0  0  0  0  0  0
   20.9579  -22.2710  -14.0132 C   0  0  0  0  0  0  0  0  0  0  0  0
   21.7690  -21.7284  -15.1324 C   0  0  0  0  0  0  0  0  0  0  0  0
   23.1727  -21.3161  -14.6578 C   0  0  2  0  0  0  0  0  0  0  0  0
   23.9275  -20.7701  -15.7511 N   0  0  0  0  0  0  0  0  0  0  0  0
   23.8378  -22.4852  -14.0365 C   0  0  0  0  0  0  0  0  0  0  0  0
   23.7236  -22.6717  -12.6718 O   0  0  0  0  0  0  0  0  0  0  0  0
   24.5018  -23.3144  -14.6998 O   0  0  0  0  0  0  0  0  0  0  0  0
  2  1  1  6
  2  3  1  0
  3  4  1  0
  4  8  1  0
  4  5  2  0
  5  6  1  0
  7  6  1  0
  8  7  2  0
  9  2  1  0
  9 11  1  0
 10  9  2  0
 11 12  1  0
 13 14  1  0
 12 13  1  1
 14 15  1  0
 15 16  1  0
 17 16  1  0
 18 12  1  0
 19 18  2  0
 20 21  1  0
 21 22  2  0
 23 21  1  0
 23 24  1  0
 24 25  1  0
 26 25  1  0
 27 26  1  6
 27 28  1  0
 27 29  1  0
 28 18  1  0
 29 30  1  0
 31 29  2  0
M  END
$$$$
