HKR.pdb
     RDKit          3D

 31 31  0  0  1  0  0  0  0  0999 V2000
   27.0875  -21.4902  -10.4589 N   0  0  0  0  0  0  0  0  0  0  0  0
   25.7997  -20.9657  -10.7772 C   0  0  1  0  0  0  0  0  0  0  0  0
   25.4649  -19.8336   -9.8705 C   0  0  0  0  0  0  0  0  0  0  0  0
   25.5508  -20.1732   -8.4291 C   0  0  0  0  0  0  0  0  0  0  0  0
   25.1081  -21.3307   -7.7883 C   0  0  0  0  0  0  0  0  0  0  0  0
   25.3753  -21.2425   -6.4716 N   0  0  0  0  0  0  0  0  0  0  0  0
   25.9710  -20.0685   -6.2621 C   0  0  0  0  0  0  0  0  0  0  0  0
   26.0800  -19.4125   -7.4553 N   0  0  0  0  0  0  0  0  0  0  0  0
   25.7048  -20.6161  -12.2233 C   0  0  0  0  0  0  0  0  0  0  0  0
   26.4421  -19.6889  -12.6181 O   0  0  0  0  0  0  0  0  0  0  0  0
   24.8559  -21.2614  -13.1190 N   0  0  0  0  0  0  0  0  0  0  0  0
   24.3321  -20.8239  -14.3526 C   0  0  1  0  0  0  0  0  0  0  0  0
   24.5771  -21.6526  -15.5742 C   0  0  0  0  0  0  0  0  0  0  0  0
   25.9665  -21.9768  -15.9295 C   0  0  0  0  0  0  0  0  0  0  0  0
   26.0823  -22.8579  -17.1663 C   0  0  0  0  0  0  0  0  0  0  0  0
   27.5679  -23.0901  -17.4706 C   0  0  0  0  0  0  0  0  0  0  0  0
   28.1632  -24.0262  -16.5619 N   0  0  0  0  0  0  0  0  0  0  0  0
   22.9343  -20.3678  -14.3444 C   0  0  0  0  0  0  0  0  0  0  0  0
   22.1167  -20.9439  -13.5971 O   0  0  0  0  0  0  0  0  0  0  0  0
   19.0336  -13.0760  -17.7565 N   0  0  0  0  0  0  0  0  0  0  0  0
   19.4712  -13.2955  -16.4155 C   0  0  0  0  0  0  0  0  0  0  0  0
   19.7356  -12.2963  -15.6581 N   0  0  0  0  0  0  0  0  0  0  0  0
   19.6233  -14.6122  -15.8976 N   0  0  0  0  0  0  0  0  0  0  0  0
   19.3449  -15.7998  -16.6589 C   0  0  0  0  0  0  0  0  0  0  0  0
   19.5162  -17.0931  -15.9396 C   0  0  0  0  0  0  0  0  0  0  0  0
   20.9291  -17.5495  -15.9192 C   0  0  0  0  0  0  0  0  0  0  0  0
   21.0664  -18.9145  -15.2238 C   0  0  2  0  0  0  0  0  0  0  0  0
   22.4487  -19.2967  -15.1460 N   0  0  0  0  0  0  0  0  0  0  0  0
   20.2412  -19.9117  -15.9448 C   0  0  0  0  0  0  0  0  0  0  0  0
   20.6197  -20.2982  -17.2166 O   0  0  0  0  0  0  0  0  0  0  0  0
   19.2107  -20.4205  -15.4471 O   0  0  0  0  0  0  0  0  0  0  0  0
  2  1  1  1
  2  3  1  0
  3  4  1  0
  4  8  1  0
  4  5  2  0
  5  6  1  0
  7  6  1  0
  8  7  2  0
  9  2  1  0
  9 11  1  0
 10  9  2  0
 11 12  1  0
 13 14  1  0
 12 13  1  6
 14 15  1  0
 15 16  1  0
 17 16  1  0
 18 12  1  0
 19 18  2  0
 20 21  1  0
 21 22  2  0
 23 21  1  0
 23 24  1  0
 24 25  1  0
 26 25  1  0
 27 26  1  6
 27 28  1  0
 27 29  1  0
 28 18  1  0
 29 30  1  0
 31 29  2  0
M  END
$$$$
