AAN.pdb
     RDKit          3D

 19 18  0  0  1  0  0  0  0  0999 V2000
   23.8469  -11.8989  -19.4129 C   0  0  0  0  0  0  0  0  0  0  0  0
   22.5736  -12.3447  -18.7585 C   0  0  2  0  0  0  0  0  0  0  0  0
   21.7523  -13.0113  -19.7788 N   0  0  0  0  0  0  0  0  0  0  0  0
   21.8467  -11.1818  -18.2321 C   0  0  0  0  0  0  0  0  0  0  0  0
   21.8073  -10.1166  -18.8938 O   0  0  0  0  0  0  0  0  0  0  0  0
   19.4996  -10.6159  -15.3109 C   0  0  0  0  0  0  0  0  0  0  0  0
   20.3854  -10.1610  -16.4615 C   0  0  2  0  0  0  0  0  0  0  0  0
   21.1803  -11.2524  -16.9667 N   0  0  0  0  0  0  0  0  0  0  0  0
   21.3045   -9.1294  -15.9150 C   0  0  0  0  0  0  0  0  0  0  0  0
   22.4993   -9.4127  -15.5960 O   0  0  0  0  0  0  0  0  0  0  0  0
   24.5995   -4.7998  -15.8179 N   0  0  0  0  0  0  0  0  0  0  0  0
   23.1789   -4.7841  -15.7768 C   0  0  0  0  0  0  0  0  0  0  0  0
   22.6251   -3.7436  -15.3392 O   0  0  0  0  0  0  0  0  0  0  0  0
   22.3788   -5.9178  -16.2193 C   0  0  0  0  0  0  0  0  0  0  0  0
   21.7898   -6.7735  -15.1497 C   0  0  2  0  0  0  0  0  0  0  0  0
   20.8943   -7.7730  -15.7210 N   0  0  0  0  0  0  0  0  0  0  0  0
   21.0988   -5.9419  -14.1431 C   0  0  0  0  0  0  0  0  0  0  0  0
   19.7344   -5.6478  -14.2340 O   0  0  0  0  0  0  0  0  0  0  0  0
   21.7589   -5.4910  -13.1842 O   0  0  0  0  0  0  0  0  0  0  0  0
  2  3  1  0
  2  1  1  6
  4  2  1  0
  5  4  2  0
  7  6  1  1
  7  8  1  0
  7  9  1  0
  8  4  1  0
  9 16  1  0
 10  9  2  0
 11 12  1  0
 12 14  1  0
 13 12  2  0
 15 14  1  6
 15 17  1  0
 16 15  1  0
 17 19  2  0
 17 18  1  0
M  END
$$$$
