AAN.pdb
     RDKit          3D

 19 18  0  0  1  0  0  0  0  0999 V2000
   18.4801  -12.7924  -14.7256 C   0  0  0  0  0  0  0  0  0  0  0  0
   18.1152  -12.4821  -16.1464 C   0  0  2  0  0  0  0  0  0  0  0  0
   18.8491  -13.4142  -17.0138 N   0  0  0  0  0  0  0  0  0  0  0  0
   18.5037  -11.1039  -16.4742 C   0  0  0  0  0  0  0  0  0  0  0  0
   19.7048  -10.8330  -16.7151 O   0  0  0  0  0  0  0  0  0  0  0  0
   16.5926   -7.9391  -17.2945 C   0  0  0  0  0  0  0  0  0  0  0  0
   17.8485   -8.7250  -16.9472 C   0  0  2  0  0  0  0  0  0  0  0  0
   17.5215  -10.0630  -16.5216 N   0  0  0  0  0  0  0  0  0  0  0  0
   18.4966   -8.0201  -15.8111 C   0  0  0  0  0  0  0  0  0  0  0  0
   18.2348   -8.3273  -14.6084 O   0  0  0  0  0  0  0  0  0  0  0  0
   21.4943   -4.6473  -12.9900 N   0  0  0  0  0  0  0  0  0  0  0  0
   22.1470   -5.1093  -14.1650 C   0  0  0  0  0  0  0  0  0  0  0  0
   23.3576   -4.8033  -14.3115 O   0  0  0  0  0  0  0  0  0  0  0  0
   21.4585   -5.9065  -15.1708 C   0  0  0  0  0  0  0  0  0  0  0  0
   20.0319   -6.2394  -14.8928 C   0  0  2  0  0  0  0  0  0  0  0  0
   19.4425   -6.9662  -16.0116 N   0  0  0  0  0  0  0  0  0  0  0  0
   19.2659   -5.0155  -14.5805 C   0  0  0  0  0  0  0  0  0  0  0  0
   19.0789   -4.5722  -13.2671 O   0  0  0  0  0  0  0  0  0  0  0  0
   18.7730   -4.3613  -15.5226 O   0  0  0  0  0  0  0  0  0  0  0  0
  2  3  1  0
  2  1  1  1
  4  2  1  0
  5  4  2  0
  7  6  1  1
  7  8  1  0
  7  9  1  0
  8  4  1  0
  9 16  1  0
 10  9  2  0
 11 12  1  0
 12 14  1  0
 13 12  2  0
 15 14  1  6
 15 17  1  0
 16 15  1  0
 17 19  2  0
 17 18  1  0
M  END
$$$$
