AAN.pdb
     RDKit          3D

 19 18  0  0  1  0  0  0  0  0999 V2000
   18.3765   -9.8680  -18.6361 C   0  0  0  0  0  0  0  0  0  0  0  0
   18.9610  -10.8821  -17.6991 C   0  0  2  0  0  0  0  0  0  0  0  0
   17.8832  -11.7960  -17.2951 N   0  0  0  0  0  0  0  0  0  0  0  0
   19.5023  -10.2119  -16.5092 C   0  0  0  0  0  0  0  0  0  0  0  0
   18.7299   -9.6126  -15.7230 O   0  0  0  0  0  0  0  0  0  0  0  0
   22.9223  -10.0024  -14.8735 C   0  0  0  0  0  0  0  0  0  0  0  0
   21.4711   -9.5921  -15.0768 C   0  0  2  0  0  0  0  0  0  0  0  0
   20.9079  -10.2361  -16.2371 N   0  0  0  0  0  0  0  0  0  0  0  0
   21.4677   -8.1249  -15.3107 C   0  0  0  0  0  0  0  0  0  0  0  0
   21.7821   -7.6359  -16.4383 O   0  0  0  0  0  0  0  0  0  0  0  0
   19.3702   -5.5027  -16.6522 N   0  0  0  0  0  0  0  0  0  0  0  0
   19.0248   -4.9978  -15.3693 C   0  0  0  0  0  0  0  0  0  0  0  0
   17.8867   -4.4795  -15.2397 O   0  0  0  0  0  0  0  0  0  0  0  0
   19.9386   -5.0687  -14.2374 C   0  0  0  0  0  0  0  0  0  0  0  0
   21.2414   -5.7531  -14.4769 C   0  0  2  0  0  0  0  0  0  0  0  0
   21.1124   -7.1933  -14.2852 N   0  0  0  0  0  0  0  0  0  0  0  0
   22.2923   -5.1849  -13.6080 C   0  0  0  0  0  0  0  0  0  0  0  0
   22.8311   -5.8979  -12.5320 O   0  0  0  0  0  0  0  0  0  0  0  0
   22.7079   -4.0322  -13.8471 O   0  0  0  0  0  0  0  0  0  0  0  0
  2  3  1  0
  2  1  1  6
  4  2  1  0
  5  4  2  0
  7  6  1  6
  7  8  1  0
  7  9  1  0
  8  4  1  0
  9 16  1  0
 10  9  2  0
 11 12  1  0
 12 14  1  0
 13 12  2  0
 15 14  1  1
 15 17  1  0
 16 15  1  0
 17 19  2  0
 17 18  1  0
M  END
$$$$
