AAN.pdb
     RDKit          3D

 19 18  0  0  1  0  0  0  0  0999 V2000
   16.2020  -13.8655  -15.1381 C   0  0  0  0  0  0  0  0  0  0  0  0
   16.3618  -12.3928  -15.3695 C   0  0  2  0  0  0  0  0  0  0  0  0
   15.7317  -12.0682  -16.6570 N   0  0  0  0  0  0  0  0  0  0  0  0
   17.7881  -12.0458  -15.4246 C   0  0  0  0  0  0  0  0  0  0  0  0
   18.5241  -12.2651  -14.4325 O   0  0  0  0  0  0  0  0  0  0  0  0
   20.2429  -10.9886  -18.0745 C   0  0  0  0  0  0  0  0  0  0  0  0
   19.7116  -10.9901  -16.6486 C   0  0  2  0  0  0  0  0  0  0  0  0
   18.3486  -11.4577  -16.6037 N   0  0  0  0  0  0  0  0  0  0  0  0
   19.7362   -9.5807  -16.1789 C   0  0  0  0  0  0  0  0  0  0  0  0
   18.7588   -8.7990  -16.3864 O   0  0  0  0  0  0  0  0  0  0  0  0
   21.2824   -4.9455  -14.1142 N   0  0  0  0  0  0  0  0  0  0  0  0
   22.0151   -6.0194  -13.5399 C   0  0  0  0  0  0  0  0  0  0  0  0
   22.8410   -5.7367  -12.6352 O   0  0  0  0  0  0  0  0  0  0  0  0
   21.8310   -7.3992  -13.9686 C   0  0  0  0  0  0  0  0  0  0  0  0
   20.9350   -7.6171  -15.1403 C   0  0  2  0  0  0  0  0  0  0  0  0
   20.8543   -9.0348  -15.4735 N   0  0  0  0  0  0  0  0  0  0  0  0
   21.3891   -6.8160  -16.2955 C   0  0  0  0  0  0  0  0  0  0  0  0
   20.8468   -5.5599  -16.5862 O   0  0  0  0  0  0  0  0  0  0  0  0
   22.2847   -7.2805  -17.0308 O   0  0  0  0  0  0  0  0  0  0  0  0
  2  3  1  0
  2  1  1  6
  4  2  1  0
  5  4  2  0
  7  6  1  6
  7  8  1  0
  7  9  1  0
  8  4  1  0
  9 16  1  0
 10  9  2  0
 11 12  1  0
 12 14  1  0
 13 12  2  0
 15 14  1  1
 15 17  1  0
 16 15  1  0
 17 19  2  0
 17 18  1  0
M  END
$$$$
