AAN.pdb
     RDKit          3D

 19 18  0  0  1  0  0  0  0  0999 V2000
   14.8100  -11.6163  -11.1862 C   0  0  0  0  0  0  0  0  0  0  0  0
   14.4351  -10.9011   -9.9228 C   0  0  2  0  0  0  0  0  0  0  0  0
   13.0158  -11.1733   -9.6554 N   0  0  0  0  0  0  0  0  0  0  0  0
   14.6303   -9.4547  -10.0888 C   0  0  0  0  0  0  0  0  0  0  0  0
   13.7101   -8.7503  -10.5695 O   0  0  0  0  0  0  0  0  0  0  0  0
   15.9054   -6.6811   -8.5594 C   0  0  0  0  0  0  0  0  0  0  0  0
   16.0960   -7.4255   -9.8728 C   0  0  2  0  0  0  0  0  0  0  0  0
   15.8650   -8.8387   -9.7059 N   0  0  0  0  0  0  0  0  0  0  0  0
   17.5123   -7.2296  -10.2767 C   0  0  0  0  0  0  0  0  0  0  0  0
   18.4378   -7.9643   -9.8147 O   0  0  0  0  0  0  0  0  0  0  0  0
   21.8702   -6.3245  -12.9345 N   0  0  0  0  0  0  0  0  0  0  0  0
   20.9988   -7.4472  -12.9502 C   0  0  0  0  0  0  0  0  0  0  0  0
   21.3936   -8.4765  -13.5546 O   0  0  0  0  0  0  0  0  0  0  0  0
   19.6966   -7.4259  -12.2982 C   0  0  0  0  0  0  0  0  0  0  0  0
   19.2664   -6.1227  -11.7153 C   0  0  2  0  0  0  0  0  0  0  0  0
   17.9046   -6.2104  -11.2004 N   0  0  0  0  0  0  0  0  0  0  0  0
   19.3978   -5.0408  -12.7126 C   0  0  0  0  0  0  0  0  0  0  0  0
   20.5528   -4.2580  -12.8101 O   0  0  0  0  0  0  0  0  0  0  0  0
   18.4448   -4.8239  -13.4893 O   0  0  0  0  0  0  0  0  0  0  0  0
  2  3  1  0
  2  1  1  6
  4  2  1  0
  5  4  2  0
  7  6  1  1
  7  8  1  0
  7  9  1  0
  8  4  1  0
  9 16  1  0
 10  9  2  0
 11 12  1  0
 12 14  1  0
 13 12  2  0
 15 14  1  6
 15 17  1  0
 16 15  1  0
 17 19  2  0
 17 18  1  0
M  END
$$$$
