AAN.pdb
     RDKit          3D

 19 18  0  0  1  0  0  0  0  0999 V2000
   17.4480  -12.8124  -15.4481 C   0  0  0  0  0  0  0  0  0  0  0  0
   18.5189  -13.4251  -16.3001 C   0  0  2  0  0  0  0  0  0  0  0  0
   18.9372  -14.6818  -15.6632 N   0  0  0  0  0  0  0  0  0  0  0  0
   19.6704  -12.5172  -16.3878 C   0  0  0  0  0  0  0  0  0  0  0  0
   20.4759  -12.4340  -15.4296 O   0  0  0  0  0  0  0  0  0  0  0  0
   21.1854  -10.3687  -19.1226 C   0  0  0  0  0  0  0  0  0  0  0  0
   21.0095  -10.8322  -17.6839 C   0  0  2  0  0  0  0  0  0  0  0  0
   19.8832  -11.7235  -17.5605 N   0  0  0  0  0  0  0  0  0  0  0  0
   20.7345   -9.6189  -16.8716 C   0  0  0  0  0  0  0  0  0  0  0  0
   19.5478   -9.2324  -16.6439 O   0  0  0  0  0  0  0  0  0  0  0  0
   21.2209   -5.3904  -13.7344 N   0  0  0  0  0  0  0  0  0  0  0  0
   22.2790   -6.3199  -13.5436 C   0  0  0  0  0  0  0  0  0  0  0  0
   23.0955   -6.0835  -12.6173 O   0  0  0  0  0  0  0  0  0  0  0  0
   22.4285   -7.5048  -14.3771 C   0  0  0  0  0  0  0  0  0  0  0  0
   21.5096   -7.6155  -15.5460 C   0  0  2  0  0  0  0  0  0  0  0  0
   21.7848   -8.8285  -16.3078 N   0  0  0  0  0  0  0  0  0  0  0  0
   21.6054   -6.4109  -16.3959 C   0  0  0  0  0  0  0  0  0  0  0  0
   22.1383   -6.4554  -17.6883 O   0  0  0  0  0  0  0  0  0  0  0  0
   21.1961   -5.3230  -15.9403 O   0  0  0  0  0  0  0  0  0  0  0  0
  2  3  1  0
  2  1  1  1
  4  2  1  0
  5  4  2  0
  7  6  1  6
  7  8  1  0
  7  9  1  0
  8  4  1  0
  9 16  1  0
 10  9  2  0
 11 12  1  0
 12 14  1  0
 13 12  2  0
 15 14  1  1
 15 17  1  0
 16 15  1  0
 17 19  2  0
 17 18  1  0
M  END
$$$$
