PTI.pdb
     RDKit          3D

 23 23  0  0  1  0  0  0  0  0999 V2000
   28.0331  -21.8334  -15.6454 N   0  0  0  0  0  0  0  0  0  0  0  0
   28.4064  -22.1038  -17.0356 C   0  0  0  0  0  0  0  0  0  0  0  0
   27.9291  -20.8370  -17.7216 C   0  0  0  0  0  0  0  0  0  0  0  0
   28.3509  -19.7687  -16.7433 C   0  0  0  0  0  0  0  0  0  0  0  0
   28.5365  -20.5103  -15.4539 C   0  0  1  0  0  0  0  0  0  0  0  0
   27.8453  -19.7818  -14.3594 C   0  0  0  0  0  0  0  0  0  0  0  0
   28.1429  -18.5925  -14.0677 O   0  0  0  0  0  0  0  0  0  0  0  0
   24.5763  -18.7458  -14.3061 C   0  0  0  0  0  0  0  0  0  0  0  0
   24.5667  -19.6375  -13.0682 C   0  0  1  0  0  0  0  0  0  0  0  0
   23.9506  -20.8413  -13.3088 O   0  0  0  0  0  0  0  0  0  0  0  0
   26.0235  -19.8095  -12.6200 C   0  0  2  0  0  0  0  0  0  0  0  0
   26.8320  -20.4225  -13.6222 N   0  0  0  0  0  0  0  0  0  0  0  0
   26.0632  -20.5144  -11.3156 C   0  0  0  0  0  0  0  0  0  0  0  0
   26.4396  -21.7127  -11.3205 O   0  0  0  0  0  0  0  0  0  0  0  0
   28.1452  -18.4883   -6.7940 C   0  0  0  0  0  0  0  0  0  0  0  0
   27.7134  -19.5298   -7.7875 C   0  0  0  0  0  0  0  0  0  0  0  0
   26.3158  -19.9741   -7.7007 C   0  0  2  0  0  0  0  0  0  0  0  0
   26.1454  -20.7801   -6.3848 C   0  0  0  0  0  0  0  0  0  0  0  0
   25.6784  -20.6657   -8.8270 C   0  0  2  0  0  0  0  0  0  0  0  0
   25.7088  -19.9313  -10.0820 N   0  0  0  0  0  0  0  0  0  0  0  0
   24.3141  -21.1070   -8.5592 C   0  0  0  0  0  0  0  0  0  0  0  0
   23.2601  -20.5169   -9.2585 O   0  0  0  0  0  0  0  0  0  0  0  0
   24.0845  -22.0172   -7.6974 O   0  0  0  0  0  0  0  0  0  0  0  0
  1  2  1  0
  2  3  1  0
  4  3  1  0
  5  4  1  0
  5  1  1  0
  6  7  2  0
  5  6  1  1
  9  8  1  6
  9 11  1  0
 10  9  1  0
 11 12  1  6
 11 13  1  0
 12  6  1  0
 13 20  1  0
 14 13  2  0
 16 15  1  0
 17 18  1  1
 17 16  1  0
 19 21  1  0
 19 17  1  0
 19 20  1  6
 21 22  1  0
 23 21  2  0
M  END
$$$$
