PTI.pdb
     RDKit          3D

 23 23  0  0  1  0  0  0  0  0999 V2000
   23.7337  -19.6886  -12.7074 N   0  0  0  0  0  0  0  0  0  0  0  0
   23.1375  -19.4434  -14.0226 C   0  0  0  0  0  0  0  0  0  0  0  0
   23.9549  -20.3768  -14.8965 C   0  0  0  0  0  0  0  0  0  0  0  0
   24.0512  -21.6127  -14.0364 C   0  0  0  0  0  0  0  0  0  0  0  0
   23.7579  -21.1158  -12.6530 C   0  0  1  0  0  0  0  0  0  0  0  0
   24.7793  -21.6409  -11.7109 C   0  0  0  0  0  0  0  0  0  0  0  0
   24.8436  -22.8661  -11.4232 O   0  0  0  0  0  0  0  0  0  0  0  0
   28.4808  -19.7728  -11.3851 C   0  0  0  0  0  0  0  0  0  0  0  0
   28.1212  -21.1999  -10.9831 C   0  0  1  0  0  0  0  0  0  0  0  0
   29.1026  -21.7788  -10.2160 O   0  0  0  0  0  0  0  0  0  0  0  0
   26.7728  -21.1413  -10.2543 C   0  0  2  0  0  0  0  0  0  0  0  0
   25.7038  -20.7607  -11.1182 N   0  0  0  0  0  0  0  0  0  0  0  0
   26.8943  -20.2832   -9.0507 C   0  0  0  0  0  0  0  0  0  0  0  0
   26.2065  -19.2326   -9.0214 O   0  0  0  0  0  0  0  0  0  0  0  0
   27.7295  -22.0605   -3.6875 C   0  0  0  0  0  0  0  0  0  0  0  0
   27.2049  -21.2243   -4.8207 C   0  0  0  0  0  0  0  0  0  0  0  0
   28.1920  -20.4078   -5.5398 C   0  0  2  0  0  0  0  0  0  0  0  0
   28.8456  -19.4330   -4.5237 C   0  0  0  0  0  0  0  0  0  0  0  0
   27.8272  -19.7098   -6.7780 C   0  0  2  0  0  0  0  0  0  0  0  0
   27.7244  -20.5682   -7.9475 N   0  0  0  0  0  0  0  0  0  0  0  0
   28.6797  -18.5682   -7.0907 C   0  0  0  0  0  0  0  0  0  0  0  0
   29.6480  -18.6972   -8.0877 O   0  0  0  0  0  0  0  0  0  0  0  0
   28.5459  -17.4677   -6.4625 O   0  0  0  0  0  0  0  0  0  0  0  0
  1  2  1  0
  2  3  1  0
  4  3  1  0
  5  4  1  0
  5  1  1  0
  6  7  2  0
  5  6  1  1
  9  8  1  1
  9 11  1  0
 10  9  1  0
 11 12  1  6
 11 13  1  0
 12  6  1  0
 13 20  1  0
 14 13  2  0
 16 15  1  0
 17 18  1  1
 17 16  1  0
 19 21  1  0
 19 17  1  0
 19 20  1  6
 21 22  1  0
 23 21  2  0
M  END
$$$$
