PTI.pdb
     RDKit          3D

 23 23  0  0  1  0  0  0  0  0999 V2000
   19.5453  -15.4116  -17.9283 N   0  0  0  0  0  0  0  0  0  0  0  0
   18.8125  -16.6046  -18.3583 C   0  0  0  0  0  0  0  0  0  0  0  0
   18.6219  -16.3177  -19.8364 C   0  0  0  0  0  0  0  0  0  0  0  0
   19.9656  -15.7526  -20.2253 C   0  0  0  0  0  0  0  0  0  0  0  0
   20.5654  -15.3140  -18.9235 C   0  0  1  0  0  0  0  0  0  0  0  0
   21.1045  -13.9371  -19.0653 C   0  0  0  0  0  0  0  0  0  0  0  0
   22.0145  -13.6670  -19.8941 O   0  0  0  0  0  0  0  0  0  0  0  0
   19.6682  -10.7737  -20.1350 C   0  0  0  0  0  0  0  0  0  0  0  0
   19.9658  -10.5539  -18.6549 C   0  0  1  0  0  0  0  0  0  0  0  0
   18.8385  -10.6835  -17.8809 O   0  0  0  0  0  0  0  0  0  0  0  0
   21.0612  -11.5514  -18.2579 C   0  0  2  0  0  0  0  0  0  0  0  0
   20.5962  -12.8996  -18.2616 N   0  0  0  0  0  0  0  0  0  0  0  0
   21.6671  -11.1386  -16.9686 C   0  0  0  0  0  0  0  0  0  0  0  0
   21.2875  -11.7428  -15.9349 O   0  0  0  0  0  0  0  0  0  0  0  0
   26.7739  -11.2710  -15.8117 C   0  0  0  0  0  0  0  0  0  0  0  0
   25.2734  -11.2050  -15.8628 C   0  0  0  0  0  0  0  0  0  0  0  0
   24.6624   -9.9323  -15.4566 C   0  0  2  0  0  0  0  0  0  0  0  0
   25.1786   -9.5798  -14.0356 C   0  0  0  0  0  0  0  0  0  0  0  0
   23.2118   -9.7332  -15.5533 C   0  0  2  0  0  0  0  0  0  0  0  0
   22.6328  -10.1209  -16.8299 N   0  0  0  0  0  0  0  0  0  0  0  0
   22.7724   -8.3843  -15.2140 C   0  0  0  0  0  0  0  0  0  0  0  0
   22.2428   -7.5705  -16.2167 O   0  0  0  0  0  0  0  0  0  0  0  0
   22.8714   -7.9514  -14.0195 O   0  0  0  0  0  0  0  0  0  0  0  0
  1  2  1  0
  2  3  1  0
  4  3  1  0
  5  4  1  0
  5  1  1  0
  6  7  2  0
  5  6  1  6
  9  8  1  6
  9 11  1  0
 10  9  1  0
 11 12  1  1
 11 13  1  0
 12  6  1  0
 13 20  1  0
 14 13  2  0
 16 15  1  0
 17 18  1  1
 17 16  1  0
 19 21  1  0
 19 17  1  0
 19 20  1  6
 21 22  1  0
 23 21  2  0
M  END
$$$$
