YRI.pdb
     RDKit          3D

 32 32  0  0  1  0  0  0  0  0999 V2000
    8.9894  -13.1595   15.3916 O   0  0  0  0  0  0  0  0  0  0  0  0
    8.6326  -13.3903   16.7315 C   0  0  0  0  0  0  0  0  0  0  0  0
    7.7456  -12.5643   17.3849 C   0  0  0  0  0  0  0  0  0  0  0  0
    7.3681  -12.7558   18.7021 C   0  0  0  0  0  0  0  0  0  0  0  0
    7.8913  -13.8159   19.4128 C   0  0  0  0  0  0  0  0  0  0  0  0
    7.5101  -14.0482   20.8298 C   0  0  0  0  0  0  0  0  0  0  0  0
    6.9216  -15.4346   20.8982 C   0  0  2  0  0  0  0  0  0  0  0  0
    5.7523  -15.5111   20.0788 N   0  0  0  0  0  0  0  0  0  0  0  0
    6.6899  -15.9016   22.2852 C   0  0  0  0  0  0  0  0  0  0  0  0
    5.9124  -15.2587   23.0465 O   0  0  0  0  0  0  0  0  0  0  0  0
    8.7902  -14.6528   18.7502 C   0  0  0  0  0  0  0  0  0  0  0  0
    9.1511  -14.4447   17.4434 C   0  0  0  0  0  0  0  0  0  0  0  0
    8.6179  -20.8776   28.1061 N   0  0  0  0  0  0  0  0  0  0  0  0
    7.4207  -21.6336   27.9677 C   0  0  0  0  0  0  0  0  0  0  0  0
    6.9623  -22.2649   28.9865 N   0  0  0  0  0  0  0  0  0  0  0  0
    6.7235  -21.7071   26.7308 N   0  0  0  0  0  0  0  0  0  0  0  0
    7.2428  -21.0625   25.5289 C   0  0  0  0  0  0  0  0  0  0  0  0
    7.2251  -19.5491   25.6660 C   0  0  0  0  0  0  0  0  0  0  0  0
    7.1454  -18.9949   24.2765 C   0  0  0  0  0  0  0  0  0  0  0  0
    7.1508  -17.5098   24.1751 C   0  0  2  0  0  0  0  0  0  0  0  0
    7.3038  -17.0485   22.8121 N   0  0  0  0  0  0  0  0  0  0  0  0
    8.3232  -17.0494   25.0050 C   0  0  0  0  0  0  0  0  0  0  0  0
    9.4642  -17.3114   24.5570 O   0  0  0  0  0  0  0  0  0  0  0  0
    6.1197  -22.8605   28.8850 C   0  0  0  0  0  0  0  0  0  0  0  0
    9.6483  -12.8725   29.1948 C   0  0  0  0  0  0  0  0  0  0  0  0
    9.8376  -14.2709   28.7180 C   0  0  2  0  0  0  0  0  0  0  0  0
    9.2610  -14.6064   27.3939 C   0  0  0  0  0  0  0  0  0  0  0  0
    7.9202  -13.9621   27.1068 C   0  0  1  0  0  0  0  0  0  0  0  0
    9.3950  -16.0112   26.9631 N   0  0  0  0  0  0  0  0  0  0  0  0
    8.1623  -16.3649   26.2130 C   0  0  0  0  0  0  0  0  0  0  0  0
    9.6598  -17.0276   27.9833 O   0  0  0  0  0  0  0  0  0  0  0  0
    8.8960  -17.9496   28.3450 O   0  0  0  0  0  0  0  0  0  0  0  0
  2  3  2  0
  2  1  1  0
  4  3  1  0
  5  4  2  0
  6  5  1  0
  7  6  1  0
  7  8  1  6
  9 21  1  0
  9  7  1  0
 10  9  2  0
 11  5  1  0
 11 12  2  0
 12  2  1  0
 14 13  1  0
 15 14  2  0
 16 14  1  0
 17 16  1  0
 18 17  1  0
 18 19  1  0
 20 19  1  6
 20 22  1  0
 20 21  1  0
 22 23  2  0
 24 25  1  0
 26 25  1  0
 26 27  1  6
 28 26  1  0
 29 22  1  0
 28 29  1  1
 30 32  1  0
 30 28  1  0
 31 30  2  0
M  END
$$$$
