YRI.pdb
     RDKit          3D

 32 32  0  0  1  0  0  0  0  0999 V2000
    9.1685  -12.0907   16.2384 O   0  0  0  0  0  0  0  0  0  0  0  0
    8.4149  -12.7733   17.2089 C   0  0  0  0  0  0  0  0  0  0  0  0
    8.6663  -12.6075   18.5525 C   0  0  0  0  0  0  0  0  0  0  0  0
    7.9487  -13.2598   19.5393 C   0  0  0  0  0  0  0  0  0  0  0  0
    6.9306  -14.1200   19.1845 C   0  0  0  0  0  0  0  0  0  0  0  0
    6.1428  -14.8393   20.2186 C   0  0  0  0  0  0  0  0  0  0  0  0
    6.6984  -16.2390   20.2906 C   0  0  2  0  0  0  0  0  0  0  0  0
    5.9836  -17.0959   19.3964 N   0  0  0  0  0  0  0  0  0  0  0  0
    6.7658  -16.7690   21.6727 C   0  0  0  0  0  0  0  0  0  0  0  0
    5.7369  -17.2717   22.2072 O   0  0  0  0  0  0  0  0  0  0  0  0
    6.6760  -14.2878   17.8227 C   0  0  0  0  0  0  0  0  0  0  0  0
    7.3999  -13.6311   16.8603 C   0  0  0  0  0  0  0  0  0  0  0  0
    6.3713  -21.9171   26.7797 N   0  0  0  0  0  0  0  0  0  0  0  0
    7.2815  -21.1856   27.5923 C   0  0  0  0  0  0  0  0  0  0  0  0
    7.2180  -21.3133   28.8675 N   0  0  0  0  0  0  0  0  0  0  0  0
    8.2554  -20.3181   27.0265 N   0  0  0  0  0  0  0  0  0  0  0  0
    8.0652  -19.7229   25.7077 C   0  0  0  0  0  0  0  0  0  0  0  0
    9.2419  -18.8386   25.3293 C   0  0  0  0  0  0  0  0  0  0  0  0
    8.9882  -18.3648   23.9309 C   0  0  0  0  0  0  0  0  0  0  0  0
    8.0456  -17.2201   23.8007 C   0  0  2  0  0  0  0  0  0  0  0  0
    7.9411  -16.7411   22.4393 N   0  0  0  0  0  0  0  0  0  0  0  0
    8.6027  -16.1316   24.6841 C   0  0  0  0  0  0  0  0  0  0  0  0
    9.7682  -15.7460   24.4308 O   0  0  0  0  0  0  0  0  0  0  0  0
    7.8748  -20.7836   29.4699 C   0  0  0  0  0  0  0  0  0  0  0  0
    6.8238  -10.9317   26.9603 C   0  0  0  0  0  0  0  0  0  0  0  0
    7.8389  -12.0214   26.9870 C   0  0  2  0  0  0  0  0  0  0  0  0
    7.4597  -13.3003   26.3399 C   0  0  0  0  0  0  0  0  0  0  0  0
    6.0203  -13.7180   26.5611 C   0  0  2  0  0  0  0  0  0  0  0  0
    8.4544  -14.3875   26.4151 N   0  0  0  0  0  0  0  0  0  0  0  0
    7.8700  -15.5717   25.7344 C   0  0  0  0  0  0  0  0  0  0  0  0
    8.9591  -14.7762   27.7336 O   0  0  0  0  0  0  0  0  0  0  0  0
    9.6167  -14.0683   28.5277 O   0  0  0  0  0  0  0  0  0  0  0  0
  2  3  2  0
  2  1  1  0
  4  3  1  0
  5  4  2  0
  6  5  1  0
  7  6  1  0
  7  8  1  6
  9 21  1  0
  9  7  1  0
 10  9  2  0
 11  5  1  0
 11 12  2  0
 12  2  1  0
 14 13  1  0
 15 14  2  0
 16 14  1  0
 17 16  1  0
 18 17  1  0
 18 19  1  0
 20 19  1  6
 20 22  1  0
 20 21  1  0
 22 23  2  0
 24 25  1  0
 26 25  1  0
 26 27  1  6
 28 26  1  0
 29 22  1  0
 28 29  1  1
 30 32  1  0
 30 28  1  0
 31 30  2  0
M  END
$$$$
