YRI.pdb
     RDKit          3D

 32 32  0  0  1  0  0  0  0  0999 V2000
    9.4944  -12.5507   16.1712 O   0  0  0  0  0  0  0  0  0  0  0  0
    8.7728  -12.9637   17.3045 C   0  0  0  0  0  0  0  0  0  0  0  0
    9.4143  -13.2819   18.4806 C   0  0  0  0  0  0  0  0  0  0  0  0
    8.7423  -13.6923   19.6181 C   0  0  0  0  0  0  0  0  0  0  0  0
    7.3670  -13.7946   19.5964 C   0  0  0  0  0  0  0  0  0  0  0  0
    6.6145  -14.2358   20.7992 C   0  0  0  0  0  0  0  0  0  0  0  0
    6.7960  -15.7291   20.8999 C   0  0  2  0  0  0  0  0  0  0  0  0
    6.0301  -16.3849   19.8859 N   0  0  0  0  0  0  0  0  0  0  0  0
    6.5330  -16.2578   22.2589 C   0  0  0  0  0  0  0  0  0  0  0  0
    5.4885  -15.9111   22.8803 O   0  0  0  0  0  0  0  0  0  0  0  0
    6.7171  -13.4720   18.4044 C   0  0  0  0  0  0  0  0  0  0  0  0
    7.4029  -13.0671   17.2876 C   0  0  0  0  0  0  0  0  0  0  0  0
    9.6024  -21.1748   27.5319 N   0  0  0  0  0  0  0  0  0  0  0  0
    8.4299  -21.0751   28.3314 C   0  0  0  0  0  0  0  0  0  0  0  0
    8.4830  -21.4372   29.5613 N   0  0  0  0  0  0  0  0  0  0  0  0
    7.2046  -20.5868   27.8010 N   0  0  0  0  0  0  0  0  0  0  0  0
    7.0995  -20.1541   26.4113 C   0  0  0  0  0  0  0  0  0  0  0  0
    8.1367  -19.0916   26.0869 C   0  0  0  0  0  0  0  0  0  0  0  0
    7.9843  -18.7760   24.6304 C   0  0  0  0  0  0  0  0  0  0  0  0
    7.3473  -17.4672   24.3191 C   0  0  2  0  0  0  0  0  0  0  0  0
    7.4044  -17.1451   22.9095 N   0  0  0  0  0  0  0  0  0  0  0  0
    8.1196  -16.4404   25.1095 C   0  0  0  0  0  0  0  0  0  0  0  0
    9.2255  -16.0860   24.6380 O   0  0  0  0  0  0  0  0  0  0  0  0
    7.6400  -21.3509   30.1587 C   0  0  0  0  0  0  0  0  0  0  0  0
    5.7496  -12.2067   26.7944 C   0  0  0  0  0  0  0  0  0  0  0  0
    6.8088  -13.1554   26.3511 C   0  0  2  0  0  0  0  0  0  0  0  0
    7.6223  -13.7896   27.4162 C   0  0  0  0  0  0  0  0  0  0  0  0
    8.2347  -12.8197   28.4058 C   0  0  2  0  0  0  0  0  0  0  0  0
    8.4966  -14.9003   26.9927 N   0  0  0  0  0  0  0  0  0  0  0  0
    7.6404  -15.9025   26.3072 C   0  0  0  0  0  0  0  0  0  0  0  0
    9.3160  -15.5644   28.0084 O   0  0  0  0  0  0  0  0  0  0  0  0
   10.2468  -15.0597   28.6740 O   0  0  0  0  0  0  0  0  0  0  0  0
  2  3  2  0
  2  1  1  0
  4  3  1  0
  5  4  2  0
  6  5  1  0
  7  6  1  0
  7  8  1  6
  9 21  1  0
  9  7  1  0
 10  9  2  0
 11  5  1  0
 11 12  2  0
 12  2  1  0
 14 13  1  0
 15 14  2  0
 16 14  1  0
 17 16  1  0
 18 17  1  0
 18 19  1  0
 20 19  1  6
 20 22  1  0
 20 21  1  0
 22 23  2  0
 24 25  1  0
 26 25  1  0
 26 27  1  1
 28 26  1  0
 29 22  1  0
 28 29  1  6
 30 32  1  0
 30 28  1  0
 31 30  2  0
M  END
$$$$
