YRI.pdb
     RDKit          3D

 32 32  0  0  1  0  0  0  0  0999 V2000
    8.5450  -13.1694   14.3884 O   0  0  0  0  0  0  0  0  0  0  0  0
    8.0731  -13.4935   15.6722 C   0  0  0  0  0  0  0  0  0  0  0  0
    7.3907  -14.6665   15.9052 C   0  0  0  0  0  0  0  0  0  0  0  0
    6.9098  -15.0233   17.1524 C   0  0  0  0  0  0  0  0  0  0  0  0
    7.1114  -14.1811   18.2260 C   0  0  0  0  0  0  0  0  0  0  0  0
    6.6049  -14.5320   19.5780 C   0  0  0  0  0  0  0  0  0  0  0  0
    7.7963  -14.9872   20.3820 C   0  0  2  0  0  0  0  0  0  0  0  0
    8.4932  -16.0211   19.6819 N   0  0  0  0  0  0  0  0  0  0  0  0
    7.4520  -15.3596   21.7743 C   0  0  0  0  0  0  0  0  0  0  0  0
    6.7697  -14.5712   22.4885 O   0  0  0  0  0  0  0  0  0  0  0  0
    7.8030  -12.9924   17.9895 C   0  0  0  0  0  0  0  0  0  0  0  0
    8.2714  -12.6578   16.7445 C   0  0  0  0  0  0  0  0  0  0  0  0
    9.7587  -20.9607   25.6600 N   0  0  0  0  0  0  0  0  0  0  0  0
   10.9193  -20.9589   24.8372 C   0  0  0  0  0  0  0  0  0  0  0  0
   11.9910  -21.5150   25.2720 N   0  0  0  0  0  0  0  0  0  0  0  0
   10.9201  -20.3562   23.5496 N   0  0  0  0  0  0  0  0  0  0  0  0
    9.8444  -19.4637   23.1302 C   0  0  0  0  0  0  0  0  0  0  0  0
    9.2342  -18.7418   24.3202 C   0  0  0  0  0  0  0  0  0  0  0  0
    7.8188  -18.4230   23.9471 C   0  0  0  0  0  0  0  0  0  0  0  0
    7.5260  -16.9839   23.7047 C   0  0  2  0  0  0  0  0  0  0  0  0
    7.8540  -16.5715   22.3570 N   0  0  0  0  0  0  0  0  0  0  0  0
    8.3755  -16.2237   24.6926 C   0  0  0  0  0  0  0  0  0  0  0  0
    9.5812  -16.0648   24.3893 O   0  0  0  0  0  0  0  0  0  0  0  0
   12.8518  -21.4923   24.6946 C   0  0  0  0  0  0  0  0  0  0  0  0
    6.2337  -11.9213   26.5465 C   0  0  0  0  0  0  0  0  0  0  0  0
    7.1773  -12.9790   26.0887 C   0  0  2  0  0  0  0  0  0  0  0  0
    7.9447  -13.6871   27.1412 C   0  0  0  0  0  0  0  0  0  0  0  0
    8.6130  -12.7804   28.1543 C   0  0  2  0  0  0  0  0  0  0  0  0
    8.7489  -14.8410   26.6949 N   0  0  0  0  0  0  0  0  0  0  0  0
    7.8597  -15.7164   25.8886 C   0  0  0  0  0  0  0  0  0  0  0  0
    9.4388  -15.6400   27.7097 O   0  0  0  0  0  0  0  0  0  0  0  0
    9.1154  -16.7750   28.1235 O   0  0  0  0  0  0  0  0  0  0  0  0
  2  3  2  0
  2  1  1  0
  4  3  1  0
  5  4  2  0
  6  5  1  0
  7  6  1  0
  7  8  1  6
  9 21  1  0
  9  7  1  0
 10  9  2  0
 11  5  1  0
 11 12  2  0
 12  2  1  0
 14 13  1  0
 15 14  2  0
 16 14  1  0
 17 16  1  0
 18 17  1  0
 18 19  1  0
 20 19  1  6
 20 22  1  0
 20 21  1  0
 22 23  2  0
 24 25  1  0
 26 25  1  0
 26 27  1  1
 28 26  1  0
 29 22  1  0
 28 29  1  6
 30 32  1  0
 30 28  1  0
 31 30  2  0
M  END
$$$$
