EHC.pdb
     RDKit          3D

 26 26  0  0  1  0  0  0  0  0999 V2000
   20.4121  -12.2424  -17.4715 N   0  0  0  0  0  0  0  0  0  0  0  0
   20.4803  -10.8651  -17.9747 C   0  0  1  0  0  0  0  0  0  0  0  0
   19.1073  -10.3367  -18.2611 C   0  0  0  0  0  0  0  0  0  0  0  0
   18.0527  -10.7626  -17.3042 C   0  0  0  0  0  0  0  0  0  0  0  0
   16.6994  -10.2992  -17.5770 C   0  0  0  0  0  0  0  0  0  0  0  0
   16.0220  -10.7555  -18.5233 O   0  0  0  0  0  0  0  0  0  0  0  0
   21.1791  -10.0606  -16.9353 C   0  0  0  0  0  0  0  0  0  0  0  0
   20.7611  -10.1225  -15.7431 O   0  0  0  0  0  0  0  0  0  0  0  0
   16.1325   -9.3253  -16.7740 O   0  0  0  0  0  0  0  0  0  0  0  0
   22.2928   -9.2199  -17.1882 N   0  0  0  0  0  0  0  0  0  0  0  0
   22.9104   -8.4033  -16.1511 C   0  0  1  0  0  0  0  0  0  0  0  0
   24.3954   -8.3392  -16.2307 C   0  0  0  0  0  0  0  0  0  0  0  0
   25.1168   -9.5683  -15.9311 C   0  0  0  0  0  0  0  0  0  0  0  0
   24.7057  -10.8035  -15.4932 C   0  0  0  0  0  0  0  0  0  0  0  0
   25.7659  -11.6383  -15.3496 N   0  0  0  0  0  0  0  0  0  0  0  0
   26.8255  -10.9105  -15.7005 C   0  0  0  0  0  0  0  0  0  0  0  0
   26.4714   -9.6834  -16.0486 N   0  0  0  0  0  0  0  0  0  0  0  0
   22.4178   -7.0102  -16.3297 C   0  0  0  0  0  0  0  0  0  0  0  0
   22.3677   -6.5270  -17.4754 O   0  0  0  0  0  0  0  0  0  0  0  0
   22.0029   -6.2148  -15.2332 N   0  0  0  0  0  0  0  0  0  0  0  0
   21.5328   -4.8756  -15.4789 C   0  0  1  0  0  0  0  0  0  0  0  0
   20.0239   -4.8784  -15.3226 C   0  0  0  0  0  0  0  0  0  0  0  0
   19.4283   -3.1784  -15.4235 S   0  0  0  0  0  0  0  0  0  0  0  0
   22.1313   -3.9018  -14.5119 C   0  0  0  0  0  0  0  0  0  0  0  0
   22.3820   -2.5900  -14.8809 O   0  0  0  0  0  0  0  0  0  0  0  0
   22.4108   -4.2777  -13.3496 O   0  0  0  0  0  0  0  0  0  0  0  0
  2  1  1  1
  2  7  1  0
  3  2  1  0
  4  3  1  0
  5  4  1  0
  6  5  2  0
  7 10  1  0
  7  8  2  0
  9  5  1  0
 10 11  1  0
 11 12  1  6
 12 13  1  0
 13 17  1  0
 14 13  2  0
 14 15  1  0
 15 16  1  0
 17 16  2  0
 18 11  1  0
 18 19  2  0
 20 18  1  0
 21 20  1  0
 21 22  1  1
 23 22  1  0
 24 21  1  0
 25 24  1  0
 26 24  2  0
M  END
$$$$
