EHC.pdb
     RDKit          3D

 26 26  0  0  1  0  0  0  0  0999 V2000
   20.1823  -14.3405  -17.5293 N   0  0  0  0  0  0  0  0  0  0  0  0
   18.9925  -13.4809  -17.5188 C   0  0  1  0  0  0  0  0  0  0  0  0
   18.1813  -13.7134  -16.2801 C   0  0  0  0  0  0  0  0  0  0  0  0
   17.4920  -15.0284  -16.2122 C   0  0  0  0  0  0  0  0  0  0  0  0
   16.6718  -15.2743  -15.0345 C   0  0  0  0  0  0  0  0  0  0  0  0
   17.0707  -15.9860  -14.0873 O   0  0  0  0  0  0  0  0  0  0  0  0
   19.4752  -12.0757  -17.6108 C   0  0  0  0  0  0  0  0  0  0  0  0
   20.7030  -11.8459  -17.4118 O   0  0  0  0  0  0  0  0  0  0  0  0
   15.4111  -14.7108  -14.9461 O   0  0  0  0  0  0  0  0  0  0  0  0
   18.6481  -10.9630  -17.9088 N   0  0  0  0  0  0  0  0  0  0  0  0
   19.1815   -9.6227  -18.1162 C   0  0  1  0  0  0  0  0  0  0  0  0
   18.2454   -8.6956  -18.8090 C   0  0  0  0  0  0  0  0  0  0  0  0
   18.7250   -7.3404  -19.0416 C   0  0  0  0  0  0  0  0  0  0  0  0
   19.8360   -6.8448  -19.6793 C   0  0  0  0  0  0  0  0  0  0  0  0
   19.8525   -5.4888  -19.6288 N   0  0  0  0  0  0  0  0  0  0  0  0
   18.7495   -5.1570  -18.9588 C   0  0  0  0  0  0  0  0  0  0  0  0
   18.0643   -6.2312  -18.5997 N   0  0  0  0  0  0  0  0  0  0  0  0
   19.4413   -9.0348  -16.7738 C   0  0  0  0  0  0  0  0  0  0  0  0
   18.6802   -9.3173  -15.8305 O   0  0  0  0  0  0  0  0  0  0  0  0
   20.5308   -8.1612  -16.5355 N   0  0  0  0  0  0  0  0  0  0  0  0
   20.6831   -7.5733  -15.2293 C   0  0  1  0  0  0  0  0  0  0  0  0
   22.0505   -7.9646  -14.7019 C   0  0  0  0  0  0  0  0  0  0  0  0
   22.2841   -7.2076  -13.0810 S   0  0  0  0  0  0  0  0  0  0  0  0
   20.5810   -6.0808  -15.2881 C   0  0  0  0  0  0  0  0  0  0  0  0
   19.7862   -5.3826  -14.3932 O   0  0  0  0  0  0  0  0  0  0  0  0
   21.2240   -5.4513  -16.1602 O   0  0  0  0  0  0  0  0  0  0  0  0
  2  1  1  1
  2  7  1  0
  3  2  1  0
  4  3  1  0
  5  4  1  0
  6  5  2  0
  7 10  1  0
  7  8  2  0
  9  5  1  0
 10 11  1  0
 11 12  1  1
 12 13  1  0
 13 17  1  0
 14 13  2  0
 14 15  1  0
 15 16  1  0
 17 16  2  0
 18 11  1  0
 18 19  2  0
 20 18  1  0
 21 20  1  0
 21 22  1  6
 23 22  1  0
 24 21  1  0
 25 24  1  0
 26 24  2  0
M  END
$$$$
