EHC.pdb
     RDKit          3D

 26 26  0  0  1  0  0  0  0  0999 V2000
   26.1781  -24.2729  -16.5948 N   0  0  0  0  0  0  0  0  0  0  0  0
   25.1903  -23.8230  -15.6065 C   0  0  1  0  0  0  0  0  0  0  0  0
   24.6173  -24.9899  -14.8606 C   0  0  0  0  0  0  0  0  0  0  0  0
   23.4201  -25.6131  -15.4829 C   0  0  0  0  0  0  0  0  0  0  0  0
   22.4512  -24.7068  -16.0832 C   0  0  0  0  0  0  0  0  0  0  0  0
   22.5116  -24.3770  -17.2875 O   0  0  0  0  0  0  0  0  0  0  0  0
   25.8906  -22.8735  -14.6987 C   0  0  0  0  0  0  0  0  0  0  0  0
   27.1441  -22.9796  -14.5663 O   0  0  0  0  0  0  0  0  0  0  0  0
   21.4275  -24.1868  -15.3110 O   0  0  0  0  0  0  0  0  0  0  0  0
   25.2463  -21.8465  -13.9631 N   0  0  0  0  0  0  0  0  0  0  0  0
   25.9767  -20.9116  -13.1168 C   0  0  1  0  0  0  0  0  0  0  0  0
   25.5508  -19.4933  -13.2678 C   0  0  0  0  0  0  0  0  0  0  0  0
   26.1109  -18.7623  -14.3959 C   0  0  0  0  0  0  0  0  0  0  0  0
   27.0163  -19.1076  -15.3694 C   0  0  0  0  0  0  0  0  0  0  0  0
   27.2328  -18.0671  -16.2132 N   0  0  0  0  0  0  0  0  0  0  0  0
   26.4580  -17.0855  -15.7532 C   0  0  0  0  0  0  0  0  0  0  0  0
   25.7839  -17.4683  -14.6802 N   0  0  0  0  0  0  0  0  0  0  0  0
   25.7039  -21.2858  -11.7023 C   0  0  0  0  0  0  0  0  0  0  0  0
   24.6443  -21.8765  -11.4248 O   0  0  0  0  0  0  0  0  0  0  0  0
   26.6153  -20.9897  -10.6588 N   0  0  0  0  0  0  0  0  0  0  0  0
   26.1682  -21.0818   -9.2926 C   0  0  1  0  0  0  0  0  0  0  0  0
   27.0645  -20.1930   -8.4512 C   0  0  0  0  0  0  0  0  0  0  0  0
   26.5416  -20.3088   -6.7283 S   0  0  0  0  0  0  0  0  0  0  0  0
   24.7475  -20.6309   -9.1525 C   0  0  0  0  0  0  0  0  0  0  0  0
   23.8671  -21.2921   -8.3112 O   0  0  0  0  0  0  0  0  0  0  0  0
   24.3464  -19.6397   -9.8059 O   0  0  0  0  0  0  0  0  0  0  0  0
  2  1  1  6
  2  7  1  0
  3  2  1  0
  4  3  1  0
  5  4  1  0
  6  5  2  0
  7 10  1  0
  7  8  2  0
  9  5  1  0
 10 11  1  0
 11 12  1  1
 12 13  1  0
 13 17  1  0
 14 13  2  0
 14 15  1  0
 15 16  1  0
 17 16  2  0
 18 11  1  0
 18 19  2  0
 20 18  1  0
 21 20  1  0
 21 22  1  1
 23 22  1  0
 24 21  1  0
 25 24  1  0
 26 24  2  0
M  END
$$$$
