EHC.pdb
     RDKit          3D

 26 26  0  0  1  0  0  0  0  0999 V2000
   22.9855  -11.2084  -21.1925 N   0  0  0  0  0  0  0  0  0  0  0  0
   21.8569  -11.7118  -20.4003 C   0  0  1  0  0  0  0  0  0  0  0  0
   21.9499  -13.1980  -20.2298 C   0  0  0  0  0  0  0  0  0  0  0  0
   23.3251  -13.7286  -20.0395 C   0  0  0  0  0  0  0  0  0  0  0  0
   23.5354  -14.5968  -18.8895 C   0  0  0  0  0  0  0  0  0  0  0  0
   23.2195  -15.8061  -18.9070 O   0  0  0  0  0  0  0  0  0  0  0  0
   21.8958  -10.9996  -19.0937 C   0  0  0  0  0  0  0  0  0  0  0  0
   21.0400  -11.3064  -18.2142 O   0  0  0  0  0  0  0  0  0  0  0  0
   24.1006  -14.0828  -17.7358 O   0  0  0  0  0  0  0  0  0  0  0  0
   22.8341   -9.9900  -18.7598 N   0  0  0  0  0  0  0  0  0  0  0  0
   22.8263   -9.3069  -17.4726 C   0  0  1  0  0  0  0  0  0  0  0  0
   24.1728   -8.8829  -17.0004 C   0  0  0  0  0  0  0  0  0  0  0  0
   25.0530   -9.9358  -16.5133 C   0  0  0  0  0  0  0  0  0  0  0  0
   24.8711  -11.2836  -16.3207 C   0  0  0  0  0  0  0  0  0  0  0  0
   26.0013  -11.8547  -15.8328 N   0  0  0  0  0  0  0  0  0  0  0  0
   26.8738  -10.8532  -15.7276 C   0  0  0  0  0  0  0  0  0  0  0  0
   26.3405   -9.7079  -16.1227 N   0  0  0  0  0  0  0  0  0  0  0  0
   22.0248   -8.0632  -17.6340 C   0  0  0  0  0  0  0  0  0  0  0  0
   22.1011   -7.4268  -18.7007 O   0  0  0  0  0  0  0  0  0  0  0  0
   21.1752   -7.5798  -16.6085 N   0  0  0  0  0  0  0  0  0  0  0  0
   20.4641   -6.3441  -16.8139 C   0  0  1  0  0  0  0  0  0  0  0  0
   18.9797   -6.6440  -16.7260 C   0  0  0  0  0  0  0  0  0  0  0  0
   18.0769   -5.0834  -16.6574 S   0  0  0  0  0  0  0  0  0  0  0  0
   20.8284   -5.3268  -15.7776 C   0  0  0  0  0  0  0  0  0  0  0  0
   21.2086   -5.7104  -14.5016 O   0  0  0  0  0  0  0  0  0  0  0  0
   20.7892   -4.1083  -16.0673 O   0  0  0  0  0  0  0  0  0  0  0  0
  2  1  1  6
  2  7  1  0
  3  2  1  0
  4  3  1  0
  5  4  1  0
  6  5  2  0
  7 10  1  0
  7  8  2  0
  9  5  1  0
 10 11  1  0
 11 12  1  6
 12 13  1  0
 13 17  1  0
 14 13  2  0
 14 15  1  0
 15 16  1  0
 17 16  2  0
 18 11  1  0
 18 19  2  0
 20 18  1  0
 21 20  1  0
 21 22  1  1
 23 22  1  0
 24 21  1  0
 25 24  1  0
 26 24  2  0
M  END
$$$$
