EHC.pdb
     RDKit          3D

 26 26  0  0  1  0  0  0  0  0999 V2000
   22.2926  -28.5120    4.9465 N   0  0  0  0  0  0  0  0  0  0  0  0
   23.0162  -29.2206    6.0091 C   0  0  1  0  0  0  0  0  0  0  0  0
   24.4584  -29.3975    5.6415 C   0  0  0  0  0  0  0  0  0  0  0  0
   24.7268  -30.4359    4.6126 C   0  0  0  0  0  0  0  0  0  0  0  0
   26.1230  -30.6704    4.2718 C   0  0  0  0  0  0  0  0  0  0  0  0
   27.0511  -30.0220    4.8017 O   0  0  0  0  0  0  0  0  0  0  0  0
   22.8544  -28.4160    7.2511 C   0  0  0  0  0  0  0  0  0  0  0  0
   22.7231  -27.1625    7.1444 O   0  0  0  0  0  0  0  0  0  0  0  0
   26.4482  -31.6360    3.3357 O   0  0  0  0  0  0  0  0  0  0  0  0
   22.8368  -28.9599    8.5606 N   0  0  0  0  0  0  0  0  0  0  0  0
   22.6233  -28.1410    9.7470 C   0  0  1  0  0  0  0  0  0  0  0  0
   21.8899  -28.8342   10.8413 C   0  0  0  0  0  0  0  0  0  0  0  0
   20.5033  -28.4396   11.0472 C   0  0  0  0  0  0  0  0  0  0  0  0
   19.8734  -27.2191   11.0361 C   0  0  0  0  0  0  0  0  0  0  0  0
   18.5486  -27.3613   11.2934 N   0  0  0  0  0  0  0  0  0  0  0  0
   18.3706  -28.6711   11.4620 C   0  0  0  0  0  0  0  0  0  0  0  0
   19.5087  -29.3325   11.3221 N   0  0  0  0  0  0  0  0  0  0  0  0
   23.9630  -27.7909   10.2927 C   0  0  0  0  0  0  0  0  0  0  0  0
   24.9363  -28.5183   10.0237 O   0  0  0  0  0  0  0  0  0  0  0  0
   24.1656  -26.6523   11.1111 N   0  0  0  0  0  0  0  0  0  0  0  0
   25.4987  -26.3421   11.5602 C   0  0  1  0  0  0  0  0  0  0  0  0
   26.3195  -25.9581   10.3437 C   0  0  0  0  0  0  0  0  0  0  0  0
   25.6653  -24.4194    9.6661 S   0  0  0  0  0  0  0  0  0  0  0  0
   25.4947  -25.2068   12.5362 C   0  0  0  0  0  0  0  0  0  0  0  0
   26.6620  -24.7948   13.1586 O   0  0  0  0  0  0  0  0  0  0  0  0
   24.4190  -24.6187   12.7956 O   0  0  0  0  0  0  0  0  0  0  0  0
  2  1  1  6
  2  7  1  0
  3  2  1  0
  4  3  1  0
  5  4  1  0
  6  5  2  0
  7 10  1  0
  7  8  2  0
  9  5  1  0
 10 11  1  0
 11 12  1  1
 12 13  1  0
 13 17  1  0
 14 13  2  0
 14 15  1  0
 15 16  1  0
 17 16  2  0
 18 11  1  0
 18 19  2  0
 20 18  1  0
 21 20  1  0
 21 22  1  6
 23 22  1  0
 24 21  1  0
 25 24  1  0
 26 24  2  0
M  END
$$$$
