EHC.pdb
     RDKit          3D

 26 26  0  0  1  0  0  0  0  0999 V2000
   15.1038   -9.4627  -17.4913 N   0  0  0  0  0  0  0  0  0  0  0  0
   15.5125   -9.1258  -16.1223 C   0  0  1  0  0  0  0  0  0  0  0  0
   16.0512  -10.3339  -15.4174 C   0  0  0  0  0  0  0  0  0  0  0  0
   15.7297  -11.6362  -16.0574 C   0  0  0  0  0  0  0  0  0  0  0  0
   16.1585  -12.8341  -15.3491 C   0  0  0  0  0  0  0  0  0  0  0  0
   15.9009  -13.9814  -15.7733 O   0  0  0  0  0  0  0  0  0  0  0  0
   16.5313   -8.0457  -16.2302 C   0  0  0  0  0  0  0  0  0  0  0  0
   17.1208   -7.8817  -17.3372 O   0  0  0  0  0  0  0  0  0  0  0  0
   16.8732  -12.7155  -14.1701 O   0  0  0  0  0  0  0  0  0  0  0  0
   16.8927   -7.1773  -15.1690 N   0  0  0  0  0  0  0  0  0  0  0  0
   17.8390   -6.0822  -15.3395 C   0  0  1  0  0  0  0  0  0  0  0  0
   17.2915   -4.7439  -14.9859 C   0  0  0  0  0  0  0  0  0  0  0  0
   16.3975   -4.1292  -15.9572 C   0  0  0  0  0  0  0  0  0  0  0  0
   16.5586   -3.7760  -17.2747 C   0  0  0  0  0  0  0  0  0  0  0  0
   15.4225   -3.2175  -17.7635 N   0  0  0  0  0  0  0  0  0  0  0  0
   14.5671   -3.2301  -16.7419 C   0  0  0  0  0  0  0  0  0  0  0  0
   15.1165   -3.7632  -15.6619 N   0  0  0  0  0  0  0  0  0  0  0  0
   18.9778   -6.3303  -14.4139 C   0  0  0  0  0  0  0  0  0  0  0  0
   18.7420   -6.6522  -13.2351 O   0  0  0  0  0  0  0  0  0  0  0  0
   20.3256   -6.2111  -14.8338 N   0  0  0  0  0  0  0  0  0  0  0  0
   21.3789   -6.4578  -13.8826 C   0  0  1  0  0  0  0  0  0  0  0  0
   22.1982   -7.6283  -14.3921 C   0  0  0  0  0  0  0  0  0  0  0  0
   23.5999   -7.8796  -13.2843 S   0  0  0  0  0  0  0  0  0  0  0  0
   22.2645   -5.2607  -13.7274 C   0  0  0  0  0  0  0  0  0  0  0  0
   22.8630   -4.9666  -12.5128 O   0  0  0  0  0  0  0  0  0  0  0  0
   22.4688   -4.5115  -14.7109 O   0  0  0  0  0  0  0  0  0  0  0  0
  2  1  1  6
  2  7  1  0
  3  2  1  0
  4  3  1  0
  5  4  1  0
  6  5  2  0
  7 10  1  0
  7  8  2  0
  9  5  1  0
 10 11  1  0
 11 12  1  1
 12 13  1  0
 13 17  1  0
 14 13  2  0
 14 15  1  0
 15 16  1  0
 17 16  2  0
 18 11  1  0
 18 19  2  0
 20 18  1  0
 21 20  1  0
 21 22  1  6
 23 22  1  0
 24 21  1  0
 25 24  1  0
 26 24  2  0
M  END
$$$$
