EHC.pdb
     RDKit          3D

 26 26  0  0  1  0  0  0  0  0999 V2000
   26.6763  -26.8057  -19.0007 N   0  0  0  0  0  0  0  0  0  0  0  0
   25.6682  -27.8556  -18.8100 C   0  0  1  0  0  0  0  0  0  0  0  0
   26.3229  -29.1885  -18.6073 C   0  0  0  0  0  0  0  0  0  0  0  0
   27.1105  -29.3231  -17.3541 C   0  0  0  0  0  0  0  0  0  0  0  0
   27.7441  -30.6127  -17.1177 C   0  0  0  0  0  0  0  0  0  0  0  0
   28.4166  -30.8407  -16.0888 O   0  0  0  0  0  0  0  0  0  0  0  0
   24.8469  -27.4560  -17.6345 C   0  0  0  0  0  0  0  0  0  0  0  0
   23.8824  -28.1994  -17.2924 O   0  0  0  0  0  0  0  0  0  0  0  0
   27.6072  -31.6259  -18.0500 O   0  0  0  0  0  0  0  0  0  0  0  0
   25.0703  -26.2883  -16.8615 N   0  0  0  0  0  0  0  0  0  0  0  0
   24.3009  -25.9826  -15.6622 C   0  0  1  0  0  0  0  0  0  0  0  0
   25.0459  -25.1892  -14.6467 C   0  0  0  0  0  0  0  0  0  0  0  0
   25.5448  -23.8895  -15.0743 C   0  0  0  0  0  0  0  0  0  0  0  0
   26.5160  -23.5165  -15.9710 C   0  0  0  0  0  0  0  0  0  0  0  0
   26.6267  -22.1649  -16.0229 N   0  0  0  0  0  0  0  0  0  0  0  0
   25.7213  -21.7132  -15.1559 C   0  0  0  0  0  0  0  0  0  0  0  0
   25.0674  -22.7102  -14.5808 N   0  0  0  0  0  0  0  0  0  0  0  0
   23.1395  -25.1503  -16.0791 C   0  0  0  0  0  0  0  0  0  0  0  0
   23.2252  -24.4650  -17.1143 O   0  0  0  0  0  0  0  0  0  0  0  0
   21.9362  -25.1136  -15.3322 N   0  0  0  0  0  0  0  0  0  0  0  0
   20.8687  -24.2502  -15.7679 C   0  0  1  0  0  0  0  0  0  0  0  0
   19.5724  -25.0323  -15.6722 C   0  0  0  0  0  0  0  0  0  0  0  0
   19.4104  -25.6816  -13.9967 S   0  0  0  0  0  0  0  0  0  0  0  0
   20.7749  -23.0250  -14.9126 C   0  0  0  0  0  0  0  0  0  0  0  0
   19.9571  -21.9649  -15.2691 O   0  0  0  0  0  0  0  0  0  0  0  0
   21.4464  -22.9557  -13.8568 O   0  0  0  0  0  0  0  0  0  0  0  0
  2  1  1  1
  2  7  1  0
  3  2  1  0
  4  3  1  0
  5  4  1  0
  6  5  2  0
  7 10  1  0
  7  8  2  0
  9  5  1  0
 10 11  1  0
 11 12  1  1
 12 13  1  0
 13 17  1  0
 14 13  2  0
 14 15  1  0
 15 16  1  0
 17 16  2  0
 18 11  1  0
 18 19  2  0
 20 18  1  0
 21 20  1  0
 21 22  1  1
 23 22  1  0
 24 21  1  0
 25 24  1  0
 26 24  2  0
M  END
$$$$
