EHC.pdb
     RDKit          3D

 26 26  0  0  1  0  0  0  0  0999 V2000
   27.9250  -18.3238  -17.3675 N   0  0  0  0  0  0  0  0  0  0  0  0
   27.5079  -17.0533  -16.7620 C   0  0  1  0  0  0  0  0  0  0  0  0
   26.8491  -16.1720  -17.7797 C   0  0  0  0  0  0  0  0  0  0  0  0
   25.8646  -16.8507  -18.6625 C   0  0  0  0  0  0  0  0  0  0  0  0
   25.2338  -16.0304  -19.6870 C   0  0  0  0  0  0  0  0  0  0  0  0
   25.5562  -16.1128  -20.8919 O   0  0  0  0  0  0  0  0  0  0  0  0
   26.5879  -17.3914  -15.6415 C   0  0  0  0  0  0  0  0  0  0  0  0
   26.1644  -16.4539  -14.9056 O   0  0  0  0  0  0  0  0  0  0  0  0
   24.2464  -15.1282  -19.3322 O   0  0  0  0  0  0  0  0  0  0  0  0
   26.1469  -18.7041  -15.3361 N   0  0  0  0  0  0  0  0  0  0  0  0
   25.2838  -18.9967  -14.1990 C   0  0  1  0  0  0  0  0  0  0  0  0
   24.1175  -19.8617  -14.5267 C   0  0  0  0  0  0  0  0  0  0  0  0
   23.0450  -19.2445  -15.2946 C   0  0  0  0  0  0  0  0  0  0  0  0
   22.7809  -17.9417  -15.6405 C   0  0  0  0  0  0  0  0  0  0  0  0
   21.6392  -17.8615  -16.3696 N   0  0  0  0  0  0  0  0  0  0  0  0
   21.2063  -19.1178  -16.4683 C   0  0  0  0  0  0  0  0  0  0  0  0
   22.0175  -19.9560  -15.8424 N   0  0  0  0  0  0  0  0  0  0  0  0
   26.0981  -19.7458  -13.2036 C   0  0  0  0  0  0  0  0  0  0  0  0
   27.0962  -20.3803  -13.5910 O   0  0  0  0  0  0  0  0  0  0  0  0
   25.7719  -19.7593  -11.8250 N   0  0  0  0  0  0  0  0  0  0  0  0
   26.4264  -20.7077  -10.9607 C   0  0  1  0  0  0  0  0  0  0  0  0
   26.4125  -20.1389   -9.5544 C   0  0  0  0  0  0  0  0  0  0  0  0
   26.4343  -18.3379   -9.6582 S   0  0  0  0  0  0  0  0  0  0  0  0
   25.7231  -22.0293  -10.9698 C   0  0  0  0  0  0  0  0  0  0  0  0
   26.2550  -23.1270  -10.3124 O   0  0  0  0  0  0  0  0  0  0  0  0
   24.6356  -22.1464  -11.5813 O   0  0  0  0  0  0  0  0  0  0  0  0
  2  1  1  6
  2  7  1  0
  3  2  1  0
  4  3  1  0
  5  4  1  0
  6  5  2  0
  7 10  1  0
  7  8  2  0
  9  5  1  0
 10 11  1  0
 11 12  1  6
 12 13  1  0
 13 17  1  0
 14 13  2  0
 14 15  1  0
 15 16  1  0
 17 16  2  0
 18 11  1  0
 18 19  2  0
 20 18  1  0
 21 20  1  0
 21 22  1  1
 23 22  1  0
 24 21  1  0
 25 24  1  0
 26 24  2  0
M  END
$$$$
