EHC.pdb
     RDKit          3D

 26 26  0  0  1  0  0  0  0  0999 V2000
   21.8334  -22.9473  -15.7535 N   0  0  0  0  0  0  0  0  0  0  0  0
   22.7397  -22.2953  -14.8006 C   0  0  1  0  0  0  0  0  0  0  0  0
   23.3506  -21.0673  -15.4051 C   0  0  0  0  0  0  0  0  0  0  0  0
   22.3850  -20.1083  -16.0025 C   0  0  0  0  0  0  0  0  0  0  0  0
   22.9418  -18.8809  -16.5537 C   0  0  0  0  0  0  0  0  0  0  0  0
   24.1669  -18.6348  -16.5162 O   0  0  0  0  0  0  0  0  0  0  0  0
   21.9349  -21.9764  -13.5895 C   0  0  0  0  0  0  0  0  0  0  0  0
   22.5206  -21.4562  -12.5964 O   0  0  0  0  0  0  0  0  0  0  0  0
   22.1031  -17.9493  -17.1397 O   0  0  0  0  0  0  0  0  0  0  0  0
   20.5427  -22.2165  -13.4674 N   0  0  0  0  0  0  0  0  0  0  0  0
   19.7850  -21.8498  -12.2778 C   0  0  1  0  0  0  0  0  0  0  0  0
   18.7030  -20.8582  -12.5270 C   0  0  0  0  0  0  0  0  0  0  0  0
   19.1159  -19.4709  -12.6866 C   0  0  0  0  0  0  0  0  0  0  0  0
   20.3390  -18.8508  -12.6084 C   0  0  0  0  0  0  0  0  0  0  0  0
   20.2152  -17.5174  -12.8283 N   0  0  0  0  0  0  0  0  0  0  0  0
   18.9140  -17.3242  -13.0408 C   0  0  0  0  0  0  0  0  0  0  0  0
   18.2405  -18.4612  -12.9630 N   0  0  0  0  0  0  0  0  0  0  0  0
   19.1197  -23.0832  -11.7764 C   0  0  0  0  0  0  0  0  0  0  0  0
   18.7077  -23.9253  -12.5948 O   0  0  0  0  0  0  0  0  0  0  0  0
   18.9403  -23.3293  -10.3928 N   0  0  0  0  0  0  0  0  0  0  0  0
   18.2987  -24.5501   -9.9770 C   0  0  1  0  0  0  0  0  0  0  0  0
   18.6636  -24.7937   -8.5249 C   0  0  0  0  0  0  0  0  0  0  0  0
   17.9703  -26.3783   -8.0118 S   0  0  0  0  0  0  0  0  0  0  0  0
   16.8102  -24.4551  -10.1068 C   0  0  0  0  0  0  0  0  0  0  0  0
   16.0536  -25.5533  -10.4829 O   0  0  0  0  0  0  0  0  0  0  0  0
   16.2377  -23.3654   -9.8717 O   0  0  0  0  0  0  0  0  0  0  0  0
  2  1  1  6
  2  7  1  0
  3  2  1  0
  4  3  1  0
  5  4  1  0
  6  5  2  0
  7 10  1  0
  7  8  2  0
  9  5  1  0
 10 11  1  0
 11 12  1  6
 12 13  1  0
 13 17  1  0
 14 13  2  0
 14 15  1  0
 15 16  1  0
 17 16  2  0
 18 11  1  0
 18 19  2  0
 20 18  1  0
 21 20  1  0
 21 22  1  1
 23 22  1  0
 24 21  1  0
 25 24  1  0
 26 24  2  0
M  END
$$$$
