VWL.pdb
     RDKit          3D

 30 31  0  0  1  0  0  0  0  0999 V2000
   29.4791  -19.2191  -15.9360 C   0  0  0  0  0  0  0  0  0  0  0  0
   28.7554  -19.9508  -14.8513 C   0  0  1  0  0  0  0  0  0  0  0  0
   29.2464  -19.6206  -13.4696 C   0  0  0  0  0  0  0  0  0  0  0  0
   27.2521  -19.9065  -14.9784 C   0  0  2  0  0  0  0  0  0  0  0  0
   26.8885  -18.4886  -14.9837 N   0  0  0  0  0  0  0  0  0  0  0  0
   26.5232  -20.5525  -13.8872 C   0  0  0  0  0  0  0  0  0  0  0  0
   26.4214  -21.8242  -13.8801 O   0  0  0  0  0  0  0  0  0  0  0  0
   25.8911  -19.9099  -12.7933 N   0  0  0  0  0  0  0  0  0  0  0  0
   25.1100  -20.5818  -11.7963 C   0  0  1  0  0  0  0  0  0  0  0  0
   25.4698  -20.2921  -10.3855 C   0  0  0  0  0  0  0  0  0  0  0  0
   26.7997  -20.7179   -9.9523 C   0  0  0  0  0  0  0  0  0  0  0  0
   27.7774  -21.4714  -10.5611 C   0  0  0  0  0  0  0  0  0  0  0  0
   28.8462  -21.5887   -9.7562 N   0  0  0  0  0  0  0  0  0  0  0  0
   28.5990  -20.9205   -8.6089 C   0  0  0  0  0  0  0  0  0  0  0  0
   29.3753  -20.7457   -7.4844 C   0  0  0  0  0  0  0  0  0  0  0  0
   28.9073  -20.0123   -6.4183 C   0  0  0  0  0  0  0  0  0  0  0  0
   27.6482  -19.4621   -6.5096 C   0  0  0  0  0  0  0  0  0  0  0  0
   26.8756  -19.6397   -7.6364 C   0  0  0  0  0  0  0  0  0  0  0  0
   27.3378  -20.3760   -8.7136 C   0  0  0  0  0  0  0  0  0  0  0  0
   23.6429  -20.4776  -12.0640 C   0  0  0  0  0  0  0  0  0  0  0  0
   23.1806  -19.3272  -12.2734 O   0  0  0  0  0  0  0  0  0  0  0  0
   20.9449  -20.6687  -15.3420 C   0  0  0  0  0  0  0  0  0  0  0  0
   21.5777  -21.9759  -14.8769 C   0  0  2  0  0  0  0  0  0  0  0  0
   21.3229  -23.0592  -15.9103 C   0  0  0  0  0  0  0  0  0  0  0  0
   21.0267  -22.4073  -13.5496 C   0  0  0  0  0  0  0  0  0  0  0  0
   21.3877  -21.4266  -12.4858 C   0  0  2  0  0  0  0  0  0  0  0  0
   22.7891  -21.5893  -12.0893 N   0  0  0  0  0  0  0  0  0  0  0  0
   20.5962  -21.5560  -11.2495 C   0  0  0  0  0  0  0  0  0  0  0  0
   21.1039  -22.0971  -10.2212 O   0  0  0  0  0  0  0  0  0  0  0  0
   19.2799  -21.1108  -11.1117 O   0  0  0  0  0  0  0  0  0  0  0  0
  2  1  1  6
  2  3  1  0
  4  2  1  0
  4  5  1  1
  6  4  1  0
  6  7  2  0
  8  6  1  0
  9  8  1  0
  9 10  1  1
 11 12  2  0
 11 10  1  0
 13 12  1  0
 14 19  2  0
 14 13  1  0
 15 14  1  0
 16 17  1  0
 16 15  2  0
 17 18  2  0
 18 19  1  0
 19 11  1  0
 20  9  1  0
 21 20  2  0
 23 22  1  6
 23 25  1  0
 24 23  1  0
 26 25  1  6
 26 27  1  0
 26 28  1  0
 27 20  1  0
 28 30  1  0
 29 28  2  0
M  END
$$$$
