VWL.pdb
     RDKit          3D

 30 31  0  0  1  0  0  0  0  0999 V2000
   26.4880  -20.4366  -16.8256 C   0  0  0  0  0  0  0  0  0  0  0  0
   26.8076  -21.8717  -17.0977 C   0  0  1  0  0  0  0  0  0  0  0  0
   27.5090  -22.0953  -18.4082 C   0  0  0  0  0  0  0  0  0  0  0  0
   27.4618  -22.5851  -15.9397 C   0  0  2  0  0  0  0  0  0  0  0  0
   27.3764  -24.0141  -16.2450 N   0  0  0  0  0  0  0  0  0  0  0  0
   26.8242  -22.3647  -14.6419 C   0  0  0  0  0  0  0  0  0  0  0  0
   25.7343  -22.9729  -14.3780 O   0  0  0  0  0  0  0  0  0  0  0  0
   27.2903  -21.5231  -13.6010 N   0  0  0  0  0  0  0  0  0  0  0  0
   26.6094  -21.3158  -12.3565 C   0  0  1  0  0  0  0  0  0  0  0  0
   27.4335  -20.7715  -11.2482 C   0  0  0  0  0  0  0  0  0  0  0  0
   26.7418  -20.5220   -9.9844 C   0  0  0  0  0  0  0  0  0  0  0  0
   25.4074  -20.4654   -9.6519 C   0  0  0  0  0  0  0  0  0  0  0  0
   25.2627  -20.2089   -8.3415 N   0  0  0  0  0  0  0  0  0  0  0  0
   26.4881  -20.0921   -7.7858 C   0  0  0  0  0  0  0  0  0  0  0  0
   26.8658  -19.8349   -6.4862 C   0  0  0  0  0  0  0  0  0  0  0  0
   28.1971  -19.7599   -6.1465 C   0  0  0  0  0  0  0  0  0  0  0  0
   29.1335  -19.9489   -7.1384 C   0  0  0  0  0  0  0  0  0  0  0  0
   28.7508  -20.2060   -8.4366 C   0  0  0  0  0  0  0  0  0  0  0  0
   27.4140  -20.2830   -8.7879 C   0  0  0  0  0  0  0  0  0  0  0  0
   25.3124  -20.5944  -12.5360 C   0  0  0  0  0  0  0  0  0  0  0  0
   25.3723  -19.3591  -12.7627 O   0  0  0  0  0  0  0  0  0  0  0  0
   22.7734  -18.6959  -15.1490 C   0  0  0  0  0  0  0  0  0  0  0  0
   22.9402  -20.2098  -15.0726 C   0  0  2  0  0  0  0  0  0  0  0  0
   22.4615  -20.8393  -16.3690 C   0  0  0  0  0  0  0  0  0  0  0  0
   22.1722  -20.7862  -13.9198 C   0  0  0  0  0  0  0  0  0  0  0  0
   22.8352  -20.4533  -12.6262 C   0  0  2  0  0  0  0  0  0  0  0  0
   24.0659  -21.2319  -12.4628 N   0  0  0  0  0  0  0  0  0  0  0  0
   22.0139  -20.7337  -11.4353 C   0  0  0  0  0  0  0  0  0  0  0  0
   21.1312  -19.9042  -11.0600 O   0  0  0  0  0  0  0  0  0  0  0  0
   22.1314  -21.8865  -10.6560 O   0  0  0  0  0  0  0  0  0  0  0  0
  2  1  1  1
  2  3  1  0
  4  2  1  0
  4  5  1  6
  6  4  1  0
  6  7  2  0
  8  6  1  0
  9  8  1  0
  9 10  1  1
 11 12  2  0
 11 10  1  0
 13 12  1  0
 14 19  2  0
 14 13  1  0
 15 14  1  0
 16 17  1  0
 16 15  2  0
 17 18  2  0
 18 19  1  0
 19 11  1  0
 20  9  1  0
 21 20  2  0
 23 22  1  6
 23 25  1  0
 24 23  1  0
 26 25  1  6
 26 27  1  0
 26 28  1  0
 27 20  1  0
 28 30  1  0
 29 28  2  0
M  END
$$$$
