VWL.pdb
     RDKit          3D

 30 31  0  0  1  0  0  0  0  0999 V2000
   29.6075  -17.9588  -16.5647 C   0  0  0  0  0  0  0  0  0  0  0  0
   28.4564  -18.0061  -15.6116 C   0  0  1  0  0  0  0  0  0  0  0  0
   27.1313  -17.6980  -16.2506 C   0  0  0  0  0  0  0  0  0  0  0  0
   28.4291  -19.2400  -14.7429 C   0  0  2  0  0  0  0  0  0  0  0  0
   28.2370  -20.3706  -15.6526 N   0  0  0  0  0  0  0  0  0  0  0  0
   27.3522  -19.2722  -13.7536 C   0  0  0  0  0  0  0  0  0  0  0  0
   27.3594  -18.4195  -12.8047 O   0  0  0  0  0  0  0  0  0  0  0  0
   26.2580  -20.1727  -13.7213 N   0  0  0  0  0  0  0  0  0  0  0  0
   25.1948  -20.1262  -12.7607 C   0  0  1  0  0  0  0  0  0  0  0  0
   23.8669  -20.5862  -13.2391 C   0  0  0  0  0  0  0  0  0  0  0  0
   22.7398  -20.3774  -12.3314 C   0  0  0  0  0  0  0  0  0  0  0  0
   22.6223  -20.4615  -10.9626 C   0  0  0  0  0  0  0  0  0  0  0  0
   21.3676  -20.1699  -10.5825 N   0  0  0  0  0  0  0  0  0  0  0  0
   20.6365  -19.8891  -11.6828 C   0  0  0  0  0  0  0  0  0  0  0  0
   19.3117  -19.5359  -11.8168 C   0  0  0  0  0  0  0  0  0  0  0  0
   18.7748  -19.2931  -13.0602 C   0  0  0  0  0  0  0  0  0  0  0  0
   19.5967  -19.4128  -14.1587 C   0  0  0  0  0  0  0  0  0  0  0  0
   20.9210  -19.7663  -14.0195 C   0  0  0  0  0  0  0  0  0  0  0  0
   21.4699  -20.0127  -12.7729 C   0  0  0  0  0  0  0  0  0  0  0  0
   25.5907  -20.7286  -11.4510 C   0  0  0  0  0  0  0  0  0  0  0  0
   26.1115  -21.8727  -11.4825 O   0  0  0  0  0  0  0  0  0  0  0  0
   28.6568  -20.6207   -8.2896 C   0  0  0  0  0  0  0  0  0  0  0  0
   27.7233  -19.4167   -8.3578 C   0  0  2  0  0  0  0  0  0  0  0  0
   28.2236  -18.3327   -7.4193 C   0  0  0  0  0  0  0  0  0  0  0  0
   26.3187  -19.7932   -7.9881 C   0  0  0  0  0  0  0  0  0  0  0  0
   25.7560  -20.7603   -8.9739 C   0  0  2  0  0  0  0  0  0  0  0  0
   25.4065  -20.0781  -10.2229 N   0  0  0  0  0  0  0  0  0  0  0  0
   24.5285  -21.4394   -8.5226 C   0  0  0  0  0  0  0  0  0  0  0  0
   24.5315  -22.1150   -7.4495 O   0  0  0  0  0  0  0  0  0  0  0  0
   23.3120  -21.3958   -9.2070 O   0  0  0  0  0  0  0  0  0  0  0  0
  2  1  1  6
  2  3  1  0
  4  2  1  0
  4  5  1  6
  6  4  1  0
  6  7  2  0
  8  6  1  0
  9  8  1  0
  9 10  1  6
 11 12  2  0
 11 10  1  0
 13 12  1  0
 14 19  2  0
 14 13  1  0
 15 14  1  0
 16 17  1  0
 16 15  2  0
 17 18  2  0
 18 19  1  0
 19 11  1  0
 20  9  1  0
 21 20  2  0
 23 22  1  1
 23 25  1  0
 24 23  1  0
 26 25  1  1
 26 27  1  0
 26 28  1  0
 27 20  1  0
 28 30  1  0
 29 28  2  0
M  END
$$$$
