VWL.pdb
     RDKit          3D

 30 31  0  0  1  0  0  0  0  0999 V2000
   24.7434  -21.0886  -16.8981 C   0  0  0  0  0  0  0  0  0  0  0  0
   25.9938  -21.9081  -16.9221 C   0  0  1  0  0  0  0  0  0  0  0  0
   26.7529  -21.8125  -18.2158 C   0  0  0  0  0  0  0  0  0  0  0  0
   26.8656  -21.7334  -15.7025 C   0  0  2  0  0  0  0  0  0  0  0  0
   27.8754  -22.7908  -15.7727 N   0  0  0  0  0  0  0  0  0  0  0  0
   26.1678  -21.8636  -14.4237 C   0  0  0  0  0  0  0  0  0  0  0  0
   25.8530  -23.0278  -14.0075 O   0  0  0  0  0  0  0  0  0  0  0  0
   25.7841  -20.8099  -13.5567 N   0  0  0  0  0  0  0  0  0  0  0  0
   25.1705  -20.9948  -12.2742 C   0  0  1  0  0  0  0  0  0  0  0  0
   25.6983  -20.1495  -11.1740 C   0  0  0  0  0  0  0  0  0  0  0  0
   26.9170  -20.6211  -10.5180 C   0  0  0  0  0  0  0  0  0  0  0  0
   28.0350  -21.2692  -10.9918 C   0  0  0  0  0  0  0  0  0  0  0  0
   28.9046  -21.4920   -9.9927 N   0  0  0  0  0  0  0  0  0  0  0  0
   28.3837  -20.9996   -8.8481 C   0  0  0  0  0  0  0  0  0  0  0  0
   28.8858  -20.9825   -7.5654 C   0  0  0  0  0  0  0  0  0  0  0  0
   28.1648  -20.4159   -6.5395 C   0  0  0  0  0  0  0  0  0  0  0  0
   26.9349  -19.8701   -6.8323 C   0  0  0  0  0  0  0  0  0  0  0  0
   26.4370  -19.8896   -8.1168 C   0  0  0  0  0  0  0  0  0  0  0  0
   27.1549  -20.4575   -9.1552 C   0  0  0  0  0  0  0  0  0  0  0  0
   23.6778  -20.9905  -12.3569 C   0  0  0  0  0  0  0  0  0  0  0  0
   23.1541  -20.2105  -13.1926 O   0  0  0  0  0  0  0  0  0  0  0  0
   18.5812  -23.4921   -9.8152 C   0  0  0  0  0  0  0  0  0  0  0  0
   19.2588  -22.5910  -10.8420 C   0  0  2  0  0  0  0  0  0  0  0  0
   18.7636  -22.9448  -12.2333 C   0  0  0  0  0  0  0  0  0  0  0  0
   20.7519  -22.7294  -10.7892 C   0  0  0  0  0  0  0  0  0  0  0  0
   21.4063  -21.7117  -11.6609 C   0  0  2  0  0  0  0  0  0  0  0  0
   22.8650  -21.8051  -11.5562 N   0  0  0  0  0  0  0  0  0  0  0  0
   21.0617  -20.3182  -11.3281 C   0  0  0  0  0  0  0  0  0  0  0  0
   20.2399  -19.6752  -12.0487 O   0  0  0  0  0  0  0  0  0  0  0  0
   21.5858  -19.6203  -10.2380 O   0  0  0  0  0  0  0  0  0  0  0  0
  2  1  1  6
  2  3  1  0
  4  2  1  0
  4  5  1  1
  6  4  1  0
  6  7  2  0
  8  6  1  0
  9  8  1  0
  9 10  1  1
 11 12  2  0
 11 10  1  0
 13 12  1  0
 14 19  2  0
 14 13  1  0
 15 14  1  0
 16 17  1  0
 16 15  2  0
 17 18  2  0
 18 19  1  0
 19 11  1  0
 20  9  1  0
 21 20  2  0
 23 22  1  1
 23 25  1  0
 24 23  1  0
 26 25  1  1
 26 27  1  0
 26 28  1  0
 27 20  1  0
 28 30  1  0
 29 28  2  0
M  END
$$$$
