VWL.pdb
     RDKit          3D

 30 31  0  0  1  0  0  0  0  0999 V2000
   30.1346  -20.1762  -18.7624 C   0  0  0  0  0  0  0  0  0  0  0  0
   29.6724  -20.5334  -17.3860 C   0  0  1  0  0  0  0  0  0  0  0  0
   30.1628  -19.5919  -16.3218 C   0  0  0  0  0  0  0  0  0  0  0  0
   28.1948  -20.8259  -17.2913 C   0  0  2  0  0  0  0  0  0  0  0  0
   27.5135  -19.6346  -17.8004 N   0  0  0  0  0  0  0  0  0  0  0  0
   27.7034  -21.0794  -15.9372 C   0  0  0  0  0  0  0  0  0  0  0  0
   27.9983  -22.1833  -15.3696 O   0  0  0  0  0  0  0  0  0  0  0  0
   26.9073  -20.2116  -15.1484 N   0  0  0  0  0  0  0  0  0  0  0  0
   26.3890  -20.5372  -13.8520 C   0  0  1  0  0  0  0  0  0  0  0  0
   26.7568  -19.6087  -12.7537 C   0  0  0  0  0  0  0  0  0  0  0  0
   26.1824  -19.8944  -11.4398 C   0  0  0  0  0  0  0  0  0  0  0  0
   24.8923  -19.8538  -10.9619 C   0  0  0  0  0  0  0  0  0  0  0  0
   24.8616  -20.2135   -9.6683 N   0  0  0  0  0  0  0  0  0  0  0  0
   26.1200  -20.4972   -9.2683 C   0  0  0  0  0  0  0  0  0  0  0  0
   26.6044  -20.9075   -8.0456 C   0  0  0  0  0  0  0  0  0  0  0  0
   27.9489  -21.1402   -7.8684 C   0  0  0  0  0  0  0  0  0  0  0  0
   28.7893  -20.9523   -8.9430 C   0  0  0  0  0  0  0  0  0  0  0  0
   28.3000  -20.5419  -10.1638 C   0  0  0  0  0  0  0  0  0  0  0  0
   26.9491  -20.3051  -10.3516 C   0  0  0  0  0  0  0  0  0  0  0  0
   24.9287  -20.8547  -13.8913 C   0  0  0  0  0  0  0  0  0  0  0  0
   24.1815  -20.0348  -14.4833 O   0  0  0  0  0  0  0  0  0  0  0  0
   23.1009  -23.8115  -16.2083 C   0  0  0  0  0  0  0  0  0  0  0  0
   23.6536  -24.3445  -14.8907 C   0  0  2  0  0  0  0  0  0  0  0  0
   23.6389  -25.8629  -14.9112 C   0  0  0  0  0  0  0  0  0  0  0  0
   22.8526  -23.8494  -13.7225 C   0  0  0  0  0  0  0  0  0  0  0  0
   22.9876  -22.3711  -13.5802 C   0  0  2  0  0  0  0  0  0  0  0  0
   24.3799  -22.0049  -13.3070 N   0  0  0  0  0  0  0  0  0  0  0  0
   22.1909  -21.7934  -12.4833 C   0  0  0  0  0  0  0  0  0  0  0  0
   21.0263  -21.3452  -12.7088 O   0  0  0  0  0  0  0  0  0  0  0  0
   22.6308  -21.6978  -11.1614 O   0  0  0  0  0  0  0  0  0  0  0  0
  2  1  1  6
  2  3  1  0
  4  2  1  0
  4  5  1  1
  6  4  1  0
  6  7  2  0
  8  6  1  0
  9  8  1  0
  9 10  1  1
 11 12  2  0
 11 10  1  0
 13 12  1  0
 14 19  2  0
 14 13  1  0
 15 14  1  0
 16 17  1  0
 16 15  2  0
 17 18  2  0
 18 19  1  0
 19 11  1  0
 20  9  1  0
 21 20  2  0
 23 22  1  6
 23 25  1  0
 24 23  1  0
 26 25  1  1
 26 27  1  0
 26 28  1  0
 27 20  1  0
 28 30  1  0
 29 28  2  0
M  END
$$$$
