VWL.pdb
     RDKit          3D

 30 31  0  0  1  0  0  0  0  0999 V2000
   28.9318  -22.5411  -15.9707 C   0  0  0  0  0  0  0  0  0  0  0  0
   29.2116  -21.5132  -17.0199 C   0  0  1  0  0  0  0  0  0  0  0  0
   30.2904  -21.9157  -17.9860 C   0  0  0  0  0  0  0  0  0  0  0  0
   27.9747  -20.9731  -17.6953 C   0  0  2  0  0  0  0  0  0  0  0  0
   28.4212  -19.8445  -18.5137 N   0  0  0  0  0  0  0  0  0  0  0  0
   26.9397  -20.4849  -16.7843 C   0  0  0  0  0  0  0  0  0  0  0  0
   27.0670  -19.3244  -16.2698 O   0  0  0  0  0  0  0  0  0  0  0  0
   25.7658  -21.1736  -16.3887 N   0  0  0  0  0  0  0  0  0  0  0  0
   24.7760  -20.6467  -15.4952 C   0  0  1  0  0  0  0  0  0  0  0  0
   23.3922  -20.5759  -16.0280 C   0  0  0  0  0  0  0  0  0  0  0  0
   22.3831  -19.9952  -15.1435 C   0  0  0  0  0  0  0  0  0  0  0  0
   22.1808  -18.7151  -14.6800 C   0  0  0  0  0  0  0  0  0  0  0  0
   21.1002  -18.6717  -13.8836 N   0  0  0  0  0  0  0  0  0  0  0  0
   20.5705  -19.9116  -13.8054 C   0  0  0  0  0  0  0  0  0  0  0  0
   19.4696  -20.3781  -13.1210 C   0  0  0  0  0  0  0  0  0  0  0  0
   19.1135  -21.7054  -13.1908 C   0  0  0  0  0  0  0  0  0  0  0  0
   19.8854  -22.5469  -13.9605 C   0  0  0  0  0  0  0  0  0  0  0  0
   20.9854  -22.0755  -14.6431 C   0  0  0  0  0  0  0  0  0  0  0  0
   21.3516  -20.7421  -14.5788 C   0  0  0  0  0  0  0  0  0  0  0  0
   24.8540  -21.2671  -14.1373 C   0  0  0  0  0  0  0  0  0  0  0  0
   24.8722  -22.5232  -14.0833 O   0  0  0  0  0  0  0  0  0  0  0  0
   27.6846  -21.7363  -12.2653 C   0  0  0  0  0  0  0  0  0  0  0  0
   27.1933  -20.4701  -11.5718 C   0  0  2  0  0  0  0  0  0  0  0  0
   28.2834  -19.9351  -10.6599 C   0  0  0  0  0  0  0  0  0  0  0  0
   25.9517  -20.7327  -10.7712 C   0  0  0  0  0  0  0  0  0  0  0  0
   24.8419  -21.1906  -11.6557 C   0  0  2  0  0  0  0  0  0  0  0  0
   24.9066  -20.5157  -12.9549 N   0  0  0  0  0  0  0  0  0  0  0  0
   23.4941  -20.9230  -11.1236 C   0  0  0  0  0  0  0  0  0  0  0  0
   23.1113  -21.4770  -10.0491 O   0  0  0  0  0  0  0  0  0  0  0  0
   22.5671  -20.0722  -11.7293 O   0  0  0  0  0  0  0  0  0  0  0  0
  2  1  1  6
  2  3  1  0
  4  2  1  0
  4  5  1  6
  6  4  1  0
  6  7  2  0
  8  6  1  0
  9  8  1  0
  9 10  1  6
 11 12  2  0
 11 10  1  0
 13 12  1  0
 14 19  2  0
 14 13  1  0
 15 14  1  0
 16 17  1  0
 16 15  2  0
 17 18  2  0
 18 19  1  0
 19 11  1  0
 20  9  1  0
 21 20  2  0
 23 22  1  1
 23 25  1  0
 24 23  1  0
 26 25  1  1
 26 27  1  0
 26 28  1  0
 27 20  1  0
 28 30  1  0
 29 28  2  0
M  END
$$$$
