VWL.pdb
     RDKit          3D

 30 31  0  0  1  0  0  0  0  0999 V2000
   22.6443  -17.4481  -18.5350 C   0  0  0  0  0  0  0  0  0  0  0  0
   21.5094  -18.0131  -17.7423 C   0  0  1  0  0  0  0  0  0  0  0  0
   20.1971  -18.0015  -18.4750 C   0  0  0  0  0  0  0  0  0  0  0  0
   21.8174  -19.3378  -17.0878 C   0  0  2  0  0  0  0  0  0  0  0  0
   20.5667  -19.7853  -16.4729 N   0  0  0  0  0  0  0  0  0  0  0  0
   22.8378  -19.2843  -16.0412 C   0  0  0  0  0  0  0  0  0  0  0  0
   24.0274  -18.9465  -16.3550 O   0  0  0  0  0  0  0  0  0  0  0  0
   22.6567  -19.5744  -14.6657 N   0  0  0  0  0  0  0  0  0  0  0  0
   23.7016  -19.5471  -13.6845 C   0  0  1  0  0  0  0  0  0  0  0  0
   23.2909  -19.1696  -12.3088 C   0  0  0  0  0  0  0  0  0  0  0  0
   24.3398  -19.1801  -11.2902 C   0  0  0  0  0  0  0  0  0  0  0  0
   25.5942  -18.6156  -11.2436 C   0  0  0  0  0  0  0  0  0  0  0  0
   26.1927  -18.9025  -10.0760 N   0  0  0  0  0  0  0  0  0  0  0  0
   25.3530  -19.6556   -9.3331 C   0  0  0  0  0  0  0  0  0  0  0  0
   25.5035  -20.1956   -8.0747 C   0  0  0  0  0  0  0  0  0  0  0  0
   24.4955  -20.9417   -7.5086 C   0  0  0  0  0  0  0  0  0  0  0  0
   23.3398  -21.1303   -8.2332 C   0  0  0  0  0  0  0  0  0  0  0  0
   23.1940  -20.5883   -9.4914 C   0  0  0  0  0  0  0  0  0  0  0  0
   24.2026  -19.8366  -10.0692 C   0  0  0  0  0  0  0  0  0  0  0  0
   24.5507  -20.7767  -13.7297 C   0  0  0  0  0  0  0  0  0  0  0  0
   23.9616  -21.8710  -13.9210 O   0  0  0  0  0  0  0  0  0  0  0  0
   28.3136  -19.3321  -13.8254 C   0  0  0  0  0  0  0  0  0  0  0  0
   28.8236  -20.7413  -13.5427 C   0  0  2  0  0  0  0  0  0  0  0  0
   30.2864  -20.8406  -13.9383 C   0  0  0  0  0  0  0  0  0  0  0  0
   28.0289  -21.7701  -14.2919 C   0  0  0  0  0  0  0  0  0  0  0  0
   26.7101  -21.9982  -13.6343 C   0  0  2  0  0  0  0  0  0  0  0  0
   25.9434  -20.7510  -13.5711 N   0  0  0  0  0  0  0  0  0  0  0  0
   26.8019  -22.4914  -12.2487 C   0  0  0  0  0  0  0  0  0  0  0  0
   27.1147  -21.6990  -11.3094 O   0  0  0  0  0  0  0  0  0  0  0  0
   26.5602  -23.8136  -11.8700 O   0  0  0  0  0  0  0  0  0  0  0  0
  2  1  1  6
  2  3  1  0
  4  2  1  0
  4  5  1  1
  6  4  1  0
  6  7  2  0
  8  6  1  0
  9  8  1  0
  9 10  1  1
 11 12  2  0
 11 10  1  0
 13 12  1  0
 14 19  2  0
 14 13  1  0
 15 14  1  0
 16 17  1  0
 16 15  2  0
 17 18  2  0
 18 19  1  0
 19 11  1  0
 20  9  1  0
 21 20  2  0
 23 22  1  6
 23 25  1  0
 24 23  1  0
 26 25  1  1
 26 27  1  0
 26 28  1  0
 27 20  1  0
 28 30  1  0
 29 28  2  0
M  END
$$$$
