VWL.pdb
     RDKit          3D

 30 31  0  0  1  0  0  0  0  0999 V2000
   17.5497   -7.5368  -20.0965 C   0  0  0  0  0  0  0  0  0  0  0  0
   18.4271   -8.7466  -20.0512 C   0  0  1  0  0  0  0  0  0  0  0  0
   18.8067   -9.2677  -21.4090 C   0  0  0  0  0  0  0  0  0  0  0  0
   19.6001   -8.6192  -19.1100 C   0  0  2  0  0  0  0  0  0  0  0  0
   20.1266   -9.9737  -18.9346 N   0  0  0  0  0  0  0  0  0  0  0  0
   19.2720   -8.0905  -17.7863 C   0  0  0  0  0  0  0  0  0  0  0  0
   18.6373   -8.8321  -16.9649 O   0  0  0  0  0  0  0  0  0  0  0  0
   19.5870   -6.8020  -17.2867 N   0  0  0  0  0  0  0  0  0  0  0  0
   19.1148   -6.2757  -16.0394 C   0  0  1  0  0  0  0  0  0  0  0  0
   20.1615   -5.8616  -15.0716 C   0  0  0  0  0  0  0  0  0  0  0  0
   21.4956   -6.4240  -15.2752 C   0  0  0  0  0  0  0  0  0  0  0  0
   21.9605   -7.7188  -15.3188 C   0  0  0  0  0  0  0  0  0  0  0  0
   23.2850   -7.7326  -15.5411 N   0  0  0  0  0  0  0  0  0  0  0  0
   23.7188   -6.4581  -15.6485 C   0  0  0  0  0  0  0  0  0  0  0  0
   24.9805   -5.9532  -15.8747 C   0  0  0  0  0  0  0  0  0  0  0  0
   25.1878   -4.5948  -15.9462 C   0  0  0  0  0  0  0  0  0  0  0  0
   24.1031   -3.7616  -15.7863 C   0  0  0  0  0  0  0  0  0  0  0  0
   22.8433   -4.2714  -15.5604 C   0  0  0  0  0  0  0  0  0  0  0  0
   22.6250   -5.6363  -15.4866 C   0  0  0  0  0  0  0  0  0  0  0  0
   18.0469   -5.2469  -16.2291 C   0  0  0  0  0  0  0  0  0  0  0  0
   18.1158   -4.5359  -17.2639 O   0  0  0  0  0  0  0  0  0  0  0  0
   12.6423   -4.1014  -17.3725 C   0  0  0  0  0  0  0  0  0  0  0  0
   13.9046   -3.4920  -16.7719 C   0  0  2  0  0  0  0  0  0  0  0  0
   14.4622   -2.4436  -17.7186 C   0  0  0  0  0  0  0  0  0  0  0  0
   14.9465   -4.5399  -16.5119 C   0  0  0  0  0  0  0  0  0  0  0  0
   15.9860   -4.0275  -15.5734 C   0  0  2  0  0  0  0  0  0  0  0  0
   16.9997   -5.0542  -15.3171 N   0  0  0  0  0  0  0  0  0  0  0  0
   15.4661   -3.6288  -14.2534 C   0  0  0  0  0  0  0  0  0  0  0  0
   15.3111   -4.4957  -13.3410 O   0  0  0  0  0  0  0  0  0  0  0  0
   15.1185   -2.3205  -13.9106 O   0  0  0  0  0  0  0  0  0  0  0  0
  2  1  1  6
  2  3  1  0
  4  2  1  0
  4  5  1  1
  6  4  1  0
  6  7  2  0
  8  6  1  0
  9  8  1  0
  9 10  1  6
 11 12  2  0
 11 10  1  0
 13 12  1  0
 14 19  2  0
 14 13  1  0
 15 14  1  0
 16 17  1  0
 16 15  2  0
 17 18  2  0
 18 19  1  0
 19 11  1  0
 20  9  1  0
 21 20  2  0
 23 22  1  6
 23 25  1  0
 24 23  1  0
 26 25  1  6
 26 27  1  0
 26 28  1  0
 27 20  1  0
 28 30  1  0
 29 28  2  0
M  END
$$$$
