VWL.pdb
     RDKit          3D

 30 31  0  0  1  0  0  0  0  0999 V2000
   29.2469  -20.9868  -16.3956 C   0  0  0  0  0  0  0  0  0  0  0  0
   28.4354  -21.4121  -15.2140 C   0  0  1  0  0  0  0  0  0  0  0  0
   29.2338  -21.5346  -13.9465 C   0  0  0  0  0  0  0  0  0  0  0  0
   27.1519  -20.6374  -15.0401 C   0  0  2  0  0  0  0  0  0  0  0  0
   27.5467  -19.2452  -14.8202 N   0  0  0  0  0  0  0  0  0  0  0  0
   26.3301  -21.0553  -13.9045 C   0  0  0  0  0  0  0  0  0  0  0  0
   25.7718  -22.2020  -13.9349 O   0  0  0  0  0  0  0  0  0  0  0  0
   26.0692  -20.3097  -12.7276 N   0  0  0  0  0  0  0  0  0  0  0  0
   25.1954  -20.7341  -11.6732 C   0  0  1  0  0  0  0  0  0  0  0  0
   25.5845  -20.3206  -10.3015 C   0  0  0  0  0  0  0  0  0  0  0  0
   26.9200  -20.7160   -9.8566 C   0  0  0  0  0  0  0  0  0  0  0  0
   27.8897  -21.5115  -10.4235 C   0  0  0  0  0  0  0  0  0  0  0  0
   28.9688  -21.5728   -9.6263 N   0  0  0  0  0  0  0  0  0  0  0  0
   28.7366  -20.8250   -8.5258 C   0  0  0  0  0  0  0  0  0  0  0  0
   29.5275  -20.5721   -7.4266 C   0  0  0  0  0  0  0  0  0  0  0  0
   29.0734  -19.7649   -6.4090 C   0  0  0  0  0  0  0  0  0  0  0  0
   27.8132  -19.2213   -6.5224 C   0  0  0  0  0  0  0  0  0  0  0  0
   27.0260  -19.4773   -7.6238 C   0  0  0  0  0  0  0  0  0  0  0  0
   27.4742  -20.2881   -8.6523 C   0  0  0  0  0  0  0  0  0  0  0  0
   23.7593  -20.4613  -11.9861 C   0  0  0  0  0  0  0  0  0  0  0  0
   23.4211  -19.2570  -12.1137 O   0  0  0  0  0  0  0  0  0  0  0  0
   20.0036  -22.1524  -15.9917 C   0  0  0  0  0  0  0  0  0  0  0  0
   20.5308  -21.2453  -14.8850 C   0  0  2  0  0  0  0  0  0  0  0  0
   21.6367  -20.3624  -15.4360 C   0  0  0  0  0  0  0  0  0  0  0  0
   21.0542  -22.0437  -13.7275 C   0  0  0  0  0  0  0  0  0  0  0  0
   21.4546  -21.1455  -12.6064 C   0  0  2  0  0  0  0  0  0  0  0  0
   22.8035  -21.4756  -12.1386 N   0  0  0  0  0  0  0  0  0  0  0  0
   20.5806  -21.2281  -11.4229 C   0  0  0  0  0  0  0  0  0  0  0  0
   20.7283  -22.1691  -10.5858 O   0  0  0  0  0  0  0  0  0  0  0  0
   19.5631  -20.3160  -11.1349 O   0  0  0  0  0  0  0  0  0  0  0  0
  2  1  1  6
  2  3  1  0
  4  2  1  0
  4  5  1  1
  6  4  1  0
  6  7  2  0
  8  6  1  0
  9  8  1  0
  9 10  1  1
 11 12  2  0
 11 10  1  0
 13 12  1  0
 14 19  2  0
 14 13  1  0
 15 14  1  0
 16 17  1  0
 16 15  2  0
 17 18  2  0
 18 19  1  0
 19 11  1  0
 20  9  1  0
 21 20  2  0
 23 22  1  6
 23 25  1  0
 24 23  1  0
 26 25  1  6
 26 27  1  0
 26 28  1  0
 27 20  1  0
 28 30  1  0
 29 28  2  0
M  END
$$$$
