VWL.pdb
     RDKit          3D

 30 31  0  0  1  0  0  0  0  0999 V2000
   28.5674  -20.8762  -16.6993 C   0  0  0  0  0  0  0  0  0  0  0  0
   28.0871  -21.3858  -15.3782 C   0  0  1  0  0  0  0  0  0  0  0  0
   29.1459  -22.1001  -14.5860 C   0  0  0  0  0  0  0  0  0  0  0  0
   27.3199  -20.3679  -14.5700 C   0  0  2  0  0  0  0  0  0  0  0  0
   28.2374  -19.2478  -14.3548 N   0  0  0  0  0  0  0  0  0  0  0  0
   26.8686  -20.8362  -13.2599 C   0  0  0  0  0  0  0  0  0  0  0  0
   25.9238  -21.6915  -13.2014 O   0  0  0  0  0  0  0  0  0  0  0  0
   27.3748  -20.4380  -11.9973 N   0  0  0  0  0  0  0  0  0  0  0  0
   26.7631  -20.7535  -10.7396 C   0  0  1  0  0  0  0  0  0  0  0  0
   27.6500  -20.6865   -9.5511 C   0  0  0  0  0  0  0  0  0  0  0  0
   26.9994  -20.7953   -8.2463 C   0  0  0  0  0  0  0  0  0  0  0  0
   25.8132  -21.3667   -7.8452 C   0  0  0  0  0  0  0  0  0  0  0  0
   25.6459  -21.2157   -6.5211 N   0  0  0  0  0  0  0  0  0  0  0  0
   26.7092  -20.5475   -6.0242 C   0  0  0  0  0  0  0  0  0  0  0  0
   27.0029  -20.1535   -4.7373 C   0  0  0  0  0  0  0  0  0  0  0  0
   28.1662  -19.4717   -4.4628 C   0  0  0  0  0  0  0  0  0  0  0  0
   29.0218  -19.1977   -5.5065 C   0  0  0  0  0  0  0  0  0  0  0  0
   28.7236  -19.5939   -6.7919 C   0  0  0  0  0  0  0  0  0  0  0  0
   27.5558  -20.2800   -7.0777 C   0  0  0  0  0  0  0  0  0  0  0  0
   25.4651  -20.0370  -10.5478 C   0  0  0  0  0  0  0  0  0  0  0  0
   25.4951  -18.7805  -10.5861 O   0  0  0  0  0  0  0  0  0  0  0  0
   20.6594  -20.4941  -12.7272 C   0  0  0  0  0  0  0  0  0  0  0  0
   21.8244  -19.5382  -12.9610 C   0  0  2  0  0  0  0  0  0  0  0  0
   22.0002  -19.3073  -14.4517 C   0  0  0  0  0  0  0  0  0  0  0  0
   23.0987  -20.0786  -12.3819 C   0  0  0  0  0  0  0  0  0  0  0  0
   23.0098  -20.1574  -10.8954 C   0  0  2  0  0  0  0  0  0  0  0  0
   24.2492  -20.7009  -10.3333 N   0  0  0  0  0  0  0  0  0  0  0  0
   21.9236  -21.0207  -10.3990 C   0  0  0  0  0  0  0  0  0  0  0  0
   22.0093  -22.2809  -10.5107 O   0  0  0  0  0  0  0  0  0  0  0  0
   20.7613  -20.5449   -9.7883 O   0  0  0  0  0  0  0  0  0  0  0  0
  2  1  1  6
  2  3  1  0
  4  2  1  0
  4  5  1  1
  6  4  1  0
  6  7  2  0
  8  6  1  0
  9  8  1  0
  9 10  1  1
 11 12  2  0
 11 10  1  0
 13 12  1  0
 14 19  2  0
 14 13  1  0
 15 14  1  0
 16 17  1  0
 16 15  2  0
 17 18  2  0
 18 19  1  0
 19 11  1  0
 20  9  1  0
 21 20  2  0
 23 22  1  6
 23 25  1  0
 24 23  1  0
 26 25  1  6
 26 27  1  0
 26 28  1  0
 27 20  1  0
 28 30  1  0
 29 28  2  0
M  END
$$$$
