VWL.pdb
     RDKit          3D

 30 31  0  0  1  0  0  0  0  0999 V2000
   29.5335  -20.8916  -13.1660 C   0  0  0  0  0  0  0  0  0  0  0  0
   28.7081  -20.9930  -11.9234 C   0  0  1  0  0  0  0  0  0  0  0  0
   28.8917  -19.8364  -10.9813 C   0  0  0  0  0  0  0  0  0  0  0  0
   27.2600  -21.3357  -12.1749 C   0  0  2  0  0  0  0  0  0  0  0  0
   26.7280  -20.2563  -13.0083 N   0  0  0  0  0  0  0  0  0  0  0  0
   26.4311  -21.4246  -10.9730 C   0  0  0  0  0  0  0  0  0  0  0  0
   26.4850  -22.4827  -10.2623 O   0  0  0  0  0  0  0  0  0  0  0  0
   25.5399  -20.4370  -10.4835 N   0  0  0  0  0  0  0  0  0  0  0  0
   24.7502  -20.5720   -9.2946 C   0  0  1  0  0  0  0  0  0  0  0  0
   24.9085  -19.4959   -8.2842 C   0  0  0  0  0  0  0  0  0  0  0  0
   26.2258  -19.3768   -7.6611 C   0  0  0  0  0  0  0  0  0  0  0  0
   27.3553  -18.6696   -8.0055 C   0  0  0  0  0  0  0  0  0  0  0  0
   28.3293  -18.8765   -7.1042 N   0  0  0  0  0  0  0  0  0  0  0  0
   27.8673  -19.7172   -6.1535 C   0  0  0  0  0  0  0  0  0  0  0  0
   28.4788  -20.2270   -5.0292 C   0  0  0  0  0  0  0  0  0  0  0  0
   27.8004  -21.0817   -4.1909 C   0  0  0  0  0  0  0  0  0  0  0  0
   26.5009  -21.4090   -4.5077 C   0  0  0  0  0  0  0  0  0  0  0  0
   25.8938  -20.8964   -5.6333 C   0  0  0  0  0  0  0  0  0  0  0  0
   26.5682  -20.0363   -6.4826 C   0  0  0  0  0  0  0  0  0  0  0  0
   23.3213  -20.8891   -9.5991 C   0  0  0  0  0  0  0  0  0  0  0  0
   22.9674  -20.8306  -10.8043 O   0  0  0  0  0  0  0  0  0  0  0  0
   20.3981  -24.3831   -8.8182 C   0  0  0  0  0  0  0  0  0  0  0  0
   20.6705  -23.5119   -7.5965 C   0  0  2  0  0  0  0  0  0  0  0  0
   19.9239  -24.0706   -6.3979 C   0  0  0  0  0  0  0  0  0  0  0  0
   20.2495  -22.0914   -7.8340 C   0  0  0  0  0  0  0  0  0  0  0  0
   20.9963  -21.5062   -8.9844 C   0  0  2  0  0  0  0  0  0  0  0  0
   22.3888  -21.2405   -8.6131 N   0  0  0  0  0  0  0  0  0  0  0  0
   20.4523  -20.2259   -9.4708 C   0  0  0  0  0  0  0  0  0  0  0  0
   21.0898  -19.1472   -9.2758 O   0  0  0  0  0  0  0  0  0  0  0  0
   19.2441  -20.0989  -10.1593 O   0  0  0  0  0  0  0  0  0  0  0  0
  2  1  1  6
  2  3  1  0
  4  2  1  0
  4  5  1  6
  6  4  1  0
  6  7  2  0
  8  6  1  0
  9  8  1  0
  9 10  1  6
 11 12  2  0
 11 10  1  0
 13 12  1  0
 14 19  2  0
 14 13  1  0
 15 14  1  0
 16 17  1  0
 16 15  2  0
 17 18  2  0
 18 19  1  0
 19 11  1  0
 20  9  1  0
 21 20  2  0
 23 22  1  6
 23 25  1  0
 24 23  1  0
 26 25  1  1
 26 27  1  0
 26 28  1  0
 27 20  1  0
 28 30  1  0
 29 28  2  0
M  END
$$$$
