SYP.pdb
     RDKit          3D

 26 27  0  0  1  0  0  0  0  0999 V2000
    6.6004  -22.1937   22.4688 O   0  0  0  0  0  0  0  0  0  0  0  0
    6.3739  -20.9027   22.0485 C   0  0  0  0  0  0  0  0  0  0  0  0
    5.4034  -20.2197   22.9777 C   0  0  2  0  0  0  0  0  0  0  0  0
    4.0689  -20.3344   22.4014 N   0  0  0  0  0  0  0  0  0  0  0  0
    5.6851  -18.7776   23.1768 C   0  0  0  0  0  0  0  0  0  0  0  0
    5.2418  -17.9204   22.3494 O   0  0  0  0  0  0  0  0  0  0  0  0
    7.2981  -11.0098   26.9105 O   0  0  0  0  0  0  0  0  0  0  0  0
    7.2196  -12.3909   26.6408 C   0  0  0  0  0  0  0  0  0  0  0  0
    8.3554  -13.1536   26.4924 C   0  0  0  0  0  0  0  0  0  0  0  0
    8.2562  -14.5242   26.2250 C   0  0  0  0  0  0  0  0  0  0  0  0
    7.0221  -15.1322   26.1061 C   0  0  0  0  0  0  0  0  0  0  0  0
    6.9264  -16.5520   25.8176 C   0  0  0  0  0  0  0  0  0  0  0  0
    6.8151  -16.8922   24.3216 C   0  0  2  0  0  0  0  0  0  0  0  0
    6.4392  -18.2641   24.2649 N   0  0  0  0  0  0  0  0  0  0  0  0
    7.9626  -16.4711   23.5388 C   0  0  0  0  0  0  0  0  0  0  0  0
    8.9611  -17.2755   23.5824 O   0  0  0  0  0  0  0  0  0  0  0  0
    5.8777  -14.3759   26.2530 C   0  0  0  0  0  0  0  0  0  0  0  0
    5.9909  -13.0060   26.5202 C   0  0  0  0  0  0  0  0  0  0  0  0
    8.0505  -15.2572   22.7458 N   0  0  0  0  0  0  0  0  0  0  0  0
    7.1862  -14.1335   22.7545 C   0  0  0  0  0  0  0  0  0  0  0  0
    8.0017  -13.0337   22.0792 C   0  0  0  0  0  0  0  0  0  0  0  0
    8.8676  -13.7973   21.1030 C   0  0  0  0  0  0  0  0  0  0  0  0
    9.1189  -15.0670   21.8137 C   0  0  1  0  0  0  0  0  0  0  0  0
   10.4475  -15.0970   22.4940 C   0  0  0  0  0  0  0  0  0  0  0  0
   11.6146  -15.0868   21.7752 O   0  0  0  0  0  0  0  0  0  0  0  0
   10.4681  -15.1319   23.7360 O   0  0  0  0  0  0  0  0  0  0  0  0
  1  2  1  0
  3  2  1  0
  3  4  1  6
  5  3  1  0
  5  6  2  0
  7  8  1  0
  8 18  2  0
  9  8  1  0
  9 10  2  0
 10 11  1  0
 11 17  2  0
 11 12  1  0
 13 12  1  1
 13 14  1  0
 14  5  1  0
 15 13  1  0
 16 15  2  0
 18 17  1  0
 19 23  1  0
 19 15  1  0
 20 21  1  0
 20 19  1  0
 21 22  1  0
 23 22  1  0
 23 24  1  1
 25 24  1  0
 26 24  2  0
M  END
$$$$
