SYP.pdb
     RDKit          3D

 26 27  0  0  1  0  0  0  0  0999 V2000
    8.1930  -20.6867   24.2077 O   0  0  0  0  0  0  0  0  0  0  0  0
    7.2999  -19.9476   23.4654 C   0  0  0  0  0  0  0  0  0  0  0  0
    6.6457  -18.9038   24.3338 C   0  0  2  0  0  0  0  0  0  0  0  0
    5.2394  -19.2581   24.4847 N   0  0  0  0  0  0  0  0  0  0  0  0
    6.7065  -17.5351   23.7668 C   0  0  0  0  0  0  0  0  0  0  0  0
    5.7452  -17.0925   23.0626 O   0  0  0  0  0  0  0  0  0  0  0  0
    5.6235  -11.6821   27.9410 O   0  0  0  0  0  0  0  0  0  0  0  0
    6.3851  -12.3732   26.9774 C   0  0  0  0  0  0  0  0  0  0  0  0
    5.9477  -12.4975   25.6786 C   0  0  0  0  0  0  0  0  0  0  0  0
    6.7191  -13.1878   24.7361 C   0  0  0  0  0  0  0  0  0  0  0  0
    7.9275  -13.7535   25.0918 C   0  0  0  0  0  0  0  0  0  0  0  0
    8.7174  -14.4776   24.1120 C   0  0  0  0  0  0  0  0  0  0  0  0
    7.9070  -15.4362   23.2229 C   0  0  2  0  0  0  0  0  0  0  0  0
    7.7985  -16.6485   23.9613 N   0  0  0  0  0  0  0  0  0  0  0  0
    8.3901  -15.5161   21.8564 C   0  0  0  0  0  0  0  0  0  0  0  0
    9.0289  -16.5939   21.5797 O   0  0  0  0  0  0  0  0  0  0  0  0
    8.3745  -13.6344   26.3915 C   0  0  0  0  0  0  0  0  0  0  0  0
    7.5931  -12.9415   27.3243 C   0  0  0  0  0  0  0  0  0  0  0  0
    8.2058  -14.5050   20.8300 N   0  0  0  0  0  0  0  0  0  0  0  0
    7.5451  -13.2549   20.9319 C   0  0  0  0  0  0  0  0  0  0  0  0
    8.0472  -12.4708   19.7220 C   0  0  0  0  0  0  0  0  0  0  0  0
    8.2925  -13.5489   18.6908 C   0  0  0  0  0  0  0  0  0  0  0  0
    8.7331  -14.6932   19.5135 C   0  0  1  0  0  0  0  0  0  0  0  0
   10.2174  -14.8515   19.5382 C   0  0  0  0  0  0  0  0  0  0  0  0
   10.8904  -15.4103   18.4830 O   0  0  0  0  0  0  0  0  0  0  0  0
   10.8305  -14.4614   20.5464 O   0  0  0  0  0  0  0  0  0  0  0  0
  1  2  1  0
  3  2  1  0
  3  4  1  6
  5  3  1  0
  5  6  2  0
  7  8  1  0
  8 18  2  0
  9  8  1  0
  9 10  2  0
 10 11  1  0
 11 17  2  0
 11 12  1  0
 13 12  1  1
 13 14  1  0
 14  5  1  0
 15 13  1  0
 16 15  2  0
 18 17  1  0
 19 23  1  0
 19 15  1  0
 20 21  1  0
 20 19  1  0
 21 22  1  0
 23 22  1  0
 23 24  1  1
 25 24  1  0
 26 24  2  0
M  END
$$$$
