SYP.pdb
     RDKit          3D

 26 27  0  0  1  0  0  0  0  0999 V2000
    7.2682  -20.9999   23.1915 O   0  0  0  0  0  0  0  0  0  0  0  0
    6.4253  -20.0817   22.6071 C   0  0  0  0  0  0  0  0  0  0  0  0
    5.9924  -19.0572   23.6242 C   0  0  2  0  0  0  0  0  0  0  0  0
    4.5522  -19.1869   23.8116 N   0  0  0  0  0  0  0  0  0  0  0  0
    6.2688  -17.6591   23.2150 C   0  0  0  0  0  0  0  0  0  0  0  0
    5.4350  -17.0291   22.4911 O   0  0  0  0  0  0  0  0  0  0  0  0
    5.4163  -11.7836   27.6211 O   0  0  0  0  0  0  0  0  0  0  0  0
    6.2008  -12.5533   26.7390 C   0  0  0  0  0  0  0  0  0  0  0  0
    6.8473  -11.9749   25.6707 C   0  0  0  0  0  0  0  0  0  0  0  0
    7.6222  -12.7568   24.8059 C   0  0  0  0  0  0  0  0  0  0  0  0
    7.7512  -14.1166   25.0091 C   0  0  0  0  0  0  0  0  0  0  0  0
    8.5474  -14.9236   24.1019 C   0  0  0  0  0  0  0  0  0  0  0  0
    7.7334  -15.6683   23.0300 C   0  0  2  0  0  0  0  0  0  0  0  0
    7.4380  -16.9445   23.5874 N   0  0  0  0  0  0  0  0  0  0  0  0
    8.3317  -15.6283   21.7082 C   0  0  0  0  0  0  0  0  0  0  0  0
    9.0363  -16.6586   21.4112 O   0  0  0  0  0  0  0  0  0  0  0  0
    7.1068  -14.7058   26.0772 C   0  0  0  0  0  0  0  0  0  0  0  0
    6.3347  -13.9122   26.9345 C   0  0  0  0  0  0  0  0  0  0  0  0
    8.1911  -14.5505   20.7446 N   0  0  0  0  0  0  0  0  0  0  0  0
    7.4413  -13.3533   20.8636 C   0  0  0  0  0  0  0  0  0  0  0  0
    8.0164  -12.4467   19.7782 C   0  0  0  0  0  0  0  0  0  0  0  0
    8.4419  -13.4224   18.7045 C   0  0  0  0  0  0  0  0  0  0  0  0
    8.8674  -14.6014   19.4850 C   0  0  1  0  0  0  0  0  0  0  0  0
   10.3478  -14.6744   19.6637 C   0  0  0  0  0  0  0  0  0  0  0  0
   10.9455  -14.2532   20.8232 O   0  0  0  0  0  0  0  0  0  0  0  0
   11.0281  -15.1292   18.7286 O   0  0  0  0  0  0  0  0  0  0  0  0
  1  2  1  0
  3  2  1  0
  3  4  1  6
  5  3  1  0
  5  6  2  0
  7  8  1  0
  8 18  2  0
  9  8  1  0
  9 10  2  0
 10 11  1  0
 11 17  2  0
 11 12  1  0
 13 12  1  1
 13 14  1  0
 14  5  1  0
 15 13  1  0
 16 15  2  0
 18 17  1  0
 19 23  1  0
 19 15  1  0
 20 21  1  0
 20 19  1  0
 21 22  1  0
 23 22  1  0
 23 24  1  1
 25 24  1  0
 26 24  2  0
M  END
$$$$
