SYP.pdb
     RDKit          3D

 26 27  0  0  1  0  0  0  0  0999 V2000
    7.9648  -15.9062   19.1544 O   0  0  0  0  0  0  0  0  0  0  0  0
    6.8244  -15.6733   19.8893 C   0  0  0  0  0  0  0  0  0  0  0  0
    6.9660  -14.3921   20.6704 C   0  0  2  0  0  0  0  0  0  0  0  0
    7.4625  -13.3630   19.7646 N   0  0  0  0  0  0  0  0  0  0  0  0
    7.9156  -14.4890   21.8051 C   0  0  0  0  0  0  0  0  0  0  0  0
    9.1201  -14.1080   21.6638 O   0  0  0  0  0  0  0  0  0  0  0  0
   10.7761  -14.9569   30.1929 O   0  0  0  0  0  0  0  0  0  0  0  0
   10.0311  -14.8665   29.0001 C   0  0  0  0  0  0  0  0  0  0  0  0
   10.0351  -13.7176   28.2426 C   0  0  0  0  0  0  0  0  0  0  0  0
    9.2885  -13.6479   27.0604 C   0  0  0  0  0  0  0  0  0  0  0  0
    8.5382  -14.7265   26.6354 C   0  0  0  0  0  0  0  0  0  0  0  0
    7.7571  -14.6436   25.4142 C   0  0  0  0  0  0  0  0  0  0  0  0
    8.5184  -15.0533   24.1419 C   0  0  2  0  0  0  0  0  0  0  0  0
    7.5656  -14.9925   23.0859 N   0  0  0  0  0  0  0  0  0  0  0  0
    9.2898  -16.2741   24.2890 C   0  0  0  0  0  0  0  0  0  0  0  0
    8.5865  -17.3262   24.5002 O   0  0  0  0  0  0  0  0  0  0  0  0
    8.5275  -15.8826   27.3881 C   0  0  0  0  0  0  0  0  0  0  0  0
    9.2787  -15.9391   28.5685 C   0  0  0  0  0  0  0  0  0  0  0  0
   10.7367  -16.3785   24.2153 N   0  0  0  0  0  0  0  0  0  0  0  0
   11.6877  -15.3426   24.0356 C   0  0  0  0  0  0  0  0  0  0  0  0
   13.0072  -15.9704   24.4777 C   0  0  0  0  0  0  0  0  0  0  0  0
   12.8307  -17.4292   24.1216 C   0  0  0  0  0  0  0  0  0  0  0  0
   11.3869  -17.6465   24.3418 C   0  0  1  0  0  0  0  0  0  0  0  0
   11.0911  -18.2816   25.6602 C   0  0  0  0  0  0  0  0  0  0  0  0
   11.5088  -19.5556   25.9452 O   0  0  0  0  0  0  0  0  0  0  0  0
   10.4523  -17.6215   26.4971 O   0  0  0  0  0  0  0  0  0  0  0  0
  1  2  1  0
  3  2  1  0
  3  4  1  6
  5  3  1  0
  5  6  2  0
  7  8  1  0
  8 18  2  0
  9  8  1  0
  9 10  2  0
 10 11  1  0
 11 17  2  0
 11 12  1  0
 13 12  1  1
 13 14  1  0
 14  5  1  0
 15 13  1  0
 16 15  2  0
 18 17  1  0
 19 23  1  0
 19 15  1  0
 20 21  1  0
 20 19  1  0
 21 22  1  0
 23 22  1  0
 23 24  1  1
 25 24  1  0
 26 24  2  0
M  END
$$$$
