SYP.pdb
     RDKit          3D

 26 27  0  0  1  0  0  0  0  0999 V2000
    7.6508  -20.7186   22.2984 O   0  0  0  0  0  0  0  0  0  0  0  0
    6.3248  -20.9576   22.0161 C   0  0  0  0  0  0  0  0  0  0  0  0
    5.4483  -20.2669   23.0292 C   0  0  2  0  0  0  0  0  0  0  0  0
    4.0641  -20.3898   22.5878 N   0  0  0  0  0  0  0  0  0  0  0  0
    5.7443  -18.8223   23.1852 C   0  0  0  0  0  0  0  0  0  0  0  0
    5.2911  -17.9834   22.3444 O   0  0  0  0  0  0  0  0  0  0  0  0
    7.3359  -11.0190   26.9045 O   0  0  0  0  0  0  0  0  0  0  0  0
    7.2416  -12.3964   26.6216 C   0  0  0  0  0  0  0  0  0  0  0  0
    6.0193  -13.0163   26.4970 C   0  0  0  0  0  0  0  0  0  0  0  0
    5.9468  -14.3857   26.2154 C   0  0  0  0  0  0  0  0  0  0  0  0
    7.0959  -15.1353   26.0581 C   0  0  0  0  0  0  0  0  0  0  0  0
    7.0137  -16.5574   25.7773 C   0  0  0  0  0  0  0  0  0  0  0  0
    6.8638  -16.9049   24.2863 C   0  0  2  0  0  0  0  0  0  0  0  0
    6.5233  -18.2866   24.2446 N   0  0  0  0  0  0  0  0  0  0  0  0
    7.9741  -16.4557   23.4663 C   0  0  0  0  0  0  0  0  0  0  0  0
    9.0058  -17.2175   23.5033 O   0  0  0  0  0  0  0  0  0  0  0  0
    8.3260  -14.5229   26.1814 C   0  0  0  0  0  0  0  0  0  0  0  0
    8.3843  -13.1525   26.4633 C   0  0  0  0  0  0  0  0  0  0  0  0
    7.9929  -15.2580   22.6446 N   0  0  0  0  0  0  0  0  0  0  0  0
    7.0367  -14.2130   22.5867 C   0  0  0  0  0  0  0  0  0  0  0  0
    7.7844  -13.0636   21.9157 C   0  0  0  0  0  0  0  0  0  0  0  0
    8.7537  -13.7729   20.9974 C   0  0  0  0  0  0  0  0  0  0  0  0
    9.0808  -14.9989   21.7525 C   0  0  1  0  0  0  0  0  0  0  0  0
   10.3764  -14.8982   22.4876 C   0  0  0  0  0  0  0  0  0  0  0  0
   11.5693  -14.8147   21.8176 O   0  0  0  0  0  0  0  0  0  0  0  0
   10.3450  -14.8922   23.7299 O   0  0  0  0  0  0  0  0  0  0  0  0
  1  2  1  0
  3  2  1  0
  3  4  1  6
  5  3  1  0
  5  6  2  0
  7  8  1  0
  8 18  2  0
  9  8  1  0
  9 10  2  0
 10 11  1  0
 11 17  2  0
 11 12  1  0
 13 12  1  1
 13 14  1  0
 14  5  1  0
 15 13  1  0
 16 15  2  0
 18 17  1  0
 19 23  1  0
 19 15  1  0
 20 21  1  0
 20 19  1  0
 21 22  1  0
 23 22  1  0
 23 24  1  1
 25 24  1  0
 26 24  2  0
M  END
$$$$
