SYP.pdb
     RDKit          3D

 26 27  0  0  1  0  0  0  0  0999 V2000
   11.5071  -19.2480   22.6377 O   0  0  0  0  0  0  0  0  0  0  0  0
   12.2187  -18.5056   21.7226 C   0  0  0  0  0  0  0  0  0  0  0  0
   11.3748  -17.3646   21.2150 C   0  0  2  0  0  0  0  0  0  0  0  0
   12.1691  -16.6069   20.2554 N   0  0  0  0  0  0  0  0  0  0  0  0
   10.9398  -16.4274   22.2786 C   0  0  0  0  0  0  0  0  0  0  0  0
   11.7363  -15.5342   22.7072 O   0  0  0  0  0  0  0  0  0  0  0  0
    5.8063  -11.5220   27.5200 O   0  0  0  0  0  0  0  0  0  0  0  0
    6.3042  -12.4476   26.5812 C   0  0  0  0  0  0  0  0  0  0  0  0
    6.0340  -13.7923   26.6937 C   0  0  0  0  0  0  0  0  0  0  0  0
    6.5377  -14.6957   25.7504 C   0  0  0  0  0  0  0  0  0  0  0  0
    7.3112  -14.2552   24.6947 C   0  0  0  0  0  0  0  0  0  0  0  0
    7.8399  -15.1989   23.7262 C   0  0  0  0  0  0  0  0  0  0  0  0
    9.3142  -15.5789   23.9458 C   0  0  2  0  0  0  0  0  0  0  0  0
    9.6510  -16.4533   22.8740 N   0  0  0  0  0  0  0  0  0  0  0  0
    9.6102  -16.0182   25.2972 C   0  0  0  0  0  0  0  0  0  0  0  0
    9.4830  -17.2808   25.4866 O   0  0  0  0  0  0  0  0  0  0  0  0
    7.5879  -12.9091   24.5734 C   0  0  0  0  0  0  0  0  0  0  0  0
    7.0779  -12.0161   25.5239 C   0  0  0  0  0  0  0  0  0  0  0  0
   10.0224  -15.1635   26.3970 N   0  0  0  0  0  0  0  0  0  0  0  0
   10.0315  -13.7473   26.4578 C   0  0  0  0  0  0  0  0  0  0  0  0
   10.1261  -13.4412   27.9505 C   0  0  0  0  0  0  0  0  0  0  0  0
   10.9180  -14.6098   28.4920 C   0  0  0  0  0  0  0  0  0  0  0  0
   10.4839  -15.7262   27.6287 C   0  0  1  0  0  0  0  0  0  0  0  0
    9.4356  -16.5773   28.2657 C   0  0  0  0  0  0  0  0  0  0  0  0
    9.7129  -17.3382   29.3716 O   0  0  0  0  0  0  0  0  0  0  0  0
    8.2986  -16.5782   27.7642 O   0  0  0  0  0  0  0  0  0  0  0  0
  1  2  1  0
  3  2  1  0
  3  4  1  6
  5  3  1  0
  5  6  2  0
  7  8  1  0
  8 18  2  0
  9  8  1  0
  9 10  2  0
 10 11  1  0
 11 17  2  0
 11 12  1  0
 13 12  1  1
 13 14  1  0
 14  5  1  0
 15 13  1  0
 16 15  2  0
 18 17  1  0
 19 23  1  0
 19 15  1  0
 20 21  1  0
 20 19  1  0
 21 22  1  0
 23 22  1  0
 23 24  1  1
 25 24  1  0
 26 24  2  0
M  END
$$$$
