SYP.pdb
     RDKit          3D

 26 27  0  0  1  0  0  0  0  0999 V2000
    5.4952  -20.8932   21.5629 O   0  0  0  0  0  0  0  0  0  0  0  0
    6.2395  -20.2103   22.4980 C   0  0  0  0  0  0  0  0  0  0  0  0
    5.3768  -19.1965   23.2048 C   0  0  2  0  0  0  0  0  0  0  0  0
    4.0324  -19.2793   22.6463 N   0  0  0  0  0  0  0  0  0  0  0  0
    5.8463  -17.7994   23.0421 C   0  0  0  0  0  0  0  0  0  0  0  0
    5.1452  -16.9619   22.3917 O   0  0  0  0  0  0  0  0  0  0  0  0
    6.1561  -11.0447   27.1612 O   0  0  0  0  0  0  0  0  0  0  0  0
    6.6870  -12.1716   26.5022 C   0  0  0  0  0  0  0  0  0  0  0  0
    6.1361  -13.4213   26.6714 C   0  0  0  0  0  0  0  0  0  0  0  0
    6.6780  -14.5283   26.0075 C   0  0  0  0  0  0  0  0  0  0  0  0
    7.7701  -14.3861   25.1745 C   0  0  0  0  0  0  0  0  0  0  0  0
    8.3342  -15.5402   24.4978 C   0  0  0  0  0  0  0  0  0  0  0  0
    7.5420  -16.0057   23.2641 C   0  0  2  0  0  0  0  0  0  0  0  0
    7.0650  -17.3089   23.5811 N   0  0  0  0  0  0  0  0  0  0  0  0
    8.2541  -15.8309   22.0113 C   0  0  0  0  0  0  0  0  0  0  0  0
    9.0079  -16.8166   21.6853 O   0  0  0  0  0  0  0  0  0  0  0  0
    8.3297  -13.1374   24.9987 C   0  0  0  0  0  0  0  0  0  0  0  0
    7.7779  -12.0385   25.6687 C   0  0  0  0  0  0  0  0  0  0  0  0
    8.1725  -14.6694   21.1429 N   0  0  0  0  0  0  0  0  0  0  0  0
    7.3852  -13.5015   21.3038 C   0  0  0  0  0  0  0  0  0  0  0  0
    8.0313  -12.4869   20.3637 C   0  0  0  0  0  0  0  0  0  0  0  0
    8.5750  -13.3494   19.2473 C   0  0  0  0  0  0  0  0  0  0  0  0
    8.9590  -14.5896   19.9506 C   0  0  1  0  0  0  0  0  0  0  0  0
   10.4191  -14.6544   20.2554 C   0  0  0  0  0  0  0  0  0  0  0  0
   11.3380  -14.9313   19.2768 O   0  0  0  0  0  0  0  0  0  0  0  0
   10.7818  -14.4497   21.4263 O   0  0  0  0  0  0  0  0  0  0  0  0
  1  2  1  0
  3  2  1  0
  3  4  1  6
  5  3  1  0
  5  6  2  0
  7  8  1  0
  8 18  2  0
  9  8  1  0
  9 10  2  0
 10 11  1  0
 11 17  2  0
 11 12  1  0
 13 12  1  1
 13 14  1  0
 14  5  1  0
 15 13  1  0
 16 15  2  0
 18 17  1  0
 19 23  1  0
 19 15  1  0
 20 21  1  0
 20 19  1  0
 21 22  1  0
 23 22  1  0
 23 24  1  1
 25 24  1  0
 26 24  2  0
M  END
$$$$
