VVI.pdb
     RDKit          3D

 23 22  0  0  1  0  0  0  0  0999 V2000
    8.1585  -12.5552   18.0552 C   0  0  0  0  0  0  0  0  0  0  0  0
    7.7154  -13.2087   19.3770 C   0  0  2  0  0  0  0  0  0  0  0  0
    8.5538  -12.4990   20.4444 C   0  0  0  0  0  0  0  0  0  0  0  0
    8.1165  -14.6331   19.3050 C   0  0  2  0  0  0  0  0  0  0  0  0
    7.5688  -15.3376   18.1645 N   0  0  0  0  0  0  0  0  0  0  0  0
    7.9270  -15.4093   20.5529 C   0  0  0  0  0  0  0  0  0  0  0  0
    6.8209  -15.8515   20.9266 O   0  0  0  0  0  0  0  0  0  0  0  0
    9.0726  -18.7103   21.6128 C   0  0  0  0  0  0  0  0  0  0  0  0
    9.5672  -17.7592   22.6533 C   0  0  2  0  0  0  0  0  0  0  0  0
    9.3250  -18.4509   24.0044 C   0  0  0  0  0  0  0  0  0  0  0  0
    8.9533  -16.4094   22.6400 C   0  0  2  0  0  0  0  0  0  0  0  0
    9.0362  -15.6855   21.3936 N   0  0  0  0  0  0  0  0  0  0  0  0
    9.3001  -15.5767   23.8127 C   0  0  0  0  0  0  0  0  0  0  0  0
   10.4129  -15.0082   23.9767 O   0  0  0  0  0  0  0  0  0  0  0  0
    5.5838  -12.3536   25.8152 C   0  0  0  0  0  0  0  0  0  0  0  0
    6.8807  -12.9848   25.3731 C   0  0  0  0  0  0  0  0  0  0  0  0
    7.5223  -13.7740   26.4563 C   0  0  2  0  0  0  0  0  0  0  0  0
    7.8129  -12.8096   27.5964 C   0  0  0  0  0  0  0  0  0  0  0  0
    8.7175  -14.5496   26.0391 C   0  0  2  0  0  0  0  0  0  0  0  0
    8.3643  -15.3626   24.8545 N   0  0  0  0  0  0  0  0  0  0  0  0
    9.2806  -15.4200   27.0986 C   0  0  0  0  0  0  0  0  0  0  0  0
   10.2255  -14.9928   27.8307 O   0  0  0  0  0  0  0  0  0  0  0  0
    8.8203  -16.6962   27.3353 O   0  0  0  0  0  0  0  0  0  0  0  0
  2  3  1  1
  2  1  1  0
  4  5  1  6
  4  2  1  0
  6  4  1  0
  7  6  2  0
  9  8  1  6
  9 11  1  0
 10  9  1  0
 11 12  1  6
 12  6  1  0
 13 11  1  0
 13 20  1  0
 14 13  2  0
 15 16  1  0
 16 17  1  0
 17 19  1  0
 17 18  1  1
 19 20  1  6
 19 21  1  0
 21 23  1  0
 22 21  2  0
M  END
$$$$
