VVI.pdb
     RDKit          3D

 23 22  0  0  1  0  0  0  0  0999 V2000
    7.1369  -12.9049   20.7327 C   0  0  0  0  0  0  0  0  0  0  0  0
    8.4632  -13.3559   20.0939 C   0  0  2  0  0  0  0  0  0  0  0  0
    8.4401  -12.7239   18.6990 C   0  0  0  0  0  0  0  0  0  0  0  0
    8.3961  -14.8304   19.9657 C   0  0  2  0  0  0  0  0  0  0  0  0
    7.4690  -15.2873   18.9514 N   0  0  0  0  0  0  0  0  0  0  0  0
    8.2044  -15.5694   21.2355 C   0  0  0  0  0  0  0  0  0  0  0  0
    7.0893  -15.9497   21.6485 O   0  0  0  0  0  0  0  0  0  0  0  0
   11.2689  -18.0409   23.1507 C   0  0  0  0  0  0  0  0  0  0  0  0
    9.7962  -17.9285   23.3754 C   0  0  2  0  0  0  0  0  0  0  0  0
    9.1389  -18.8194   22.3091 C   0  0  0  0  0  0  0  0  0  0  0  0
    9.2374  -16.5558   23.3259 C   0  0  2  0  0  0  0  0  0  0  0  0
    9.3220  -15.8804   22.0527 N   0  0  0  0  0  0  0  0  0  0  0  0
    9.6435  -15.6973   24.4603 C   0  0  0  0  0  0  0  0  0  0  0  0
   10.6611  -14.9537   24.4604 O   0  0  0  0  0  0  0  0  0  0  0  0
    6.7259  -12.0785   26.5059 C   0  0  0  0  0  0  0  0  0  0  0  0
    7.8843  -12.9602   26.1101 C   0  0  0  0  0  0  0  0  0  0  0  0
    8.2648  -13.9097   27.1877 C   0  0  2  0  0  0  0  0  0  0  0  0
    8.6154  -13.0762   28.4111 C   0  0  0  0  0  0  0  0  0  0  0  0
    9.3334  -14.8732   26.8217 C   0  0  2  0  0  0  0  0  0  0  0  0
    8.8809  -15.6605   25.6536 N   0  0  0  0  0  0  0  0  0  0  0  0
    9.7354  -15.7847   27.9193 C   0  0  0  0  0  0  0  0  0  0  0  0
    9.0994  -16.8674   28.1055 O   0  0  0  0  0  0  0  0  0  0  0  0
   10.7872  -15.5117   28.7653 O   0  0  0  0  0  0  0  0  0  0  0  0
  2  3  1  6
  2  1  1  0
  4  5  1  6
  4  2  1  0
  6  4  1  0
  7  6  2  0
  9  8  1  6
  9 11  1  0
 10  9  1  0
 11 12  1  6
 12  6  1  0
 13 11  1  0
 13 20  1  0
 14 13  2  0
 15 16  1  0
 16 17  1  0
 17 19  1  0
 17 18  1  1
 19 20  1  6
 19 21  1  0
 21 23  1  0
 22 21  2  0
M  END
$$$$
