VVI.pdb
     RDKit          3D

 23 22  0  0  1  0  0  0  0  0999 V2000
   10.1703  -20.6334   21.0279 C   0  0  0  0  0  0  0  0  0  0  0  0
   10.1421  -19.3315   21.8495 C   0  0  2  0  0  0  0  0  0  0  0  0
    8.8563  -19.4382   22.6748 C   0  0  0  0  0  0  0  0  0  0  0  0
   10.0126  -18.2178   20.8811 C   0  0  2  0  0  0  0  0  0  0  0  0
   11.0444  -18.2040   19.8649 N   0  0  0  0  0  0  0  0  0  0  0  0
    9.8354  -16.8740   21.4798 C   0  0  0  0  0  0  0  0  0  0  0  0
   10.7625  -16.2320   22.0154 O   0  0  0  0  0  0  0  0  0  0  0  0
    8.1236  -13.6012   19.9591 C   0  0  0  0  0  0  0  0  0  0  0  0
    7.4898  -14.0204   21.2453 C   0  0  2  0  0  0  0  0  0  0  0  0
    7.2220  -12.7228   22.0247 C   0  0  0  0  0  0  0  0  0  0  0  0
    8.2704  -14.9737   22.0705 C   0  0  2  0  0  0  0  0  0  0  0  0
    8.5608  -16.2508   21.4629 N   0  0  0  0  0  0  0  0  0  0  0  0
    7.7935  -15.0959   23.4657 C   0  0  0  0  0  0  0  0  0  0  0  0
    6.8093  -15.7983   23.8215 O   0  0  0  0  0  0  0  0  0  0  0  0
    9.9732  -13.9924   29.1465 C   0  0  0  0  0  0  0  0  0  0  0  0
    8.8369  -14.4548   28.2685 C   0  0  0  0  0  0  0  0  0  0  0  0
    9.1180  -14.2457   26.8246 C   0  0  2  0  0  0  0  0  0  0  0  0
    9.6338  -12.8224   26.6739 C   0  0  0  0  0  0  0  0  0  0  0  0
    7.9814  -14.5455   25.9178 C   0  0  2  0  0  0  0  0  0  0  0  0
    8.4425  -14.4058   24.5189 N   0  0  0  0  0  0  0  0  0  0  0  0
    6.7836  -13.7012   26.1408 C   0  0  0  0  0  0  0  0  0  0  0  0
    6.0079  -13.9505   27.1143 O   0  0  0  0  0  0  0  0  0  0  0  0
    6.4626  -12.6362   25.3288 O   0  0  0  0  0  0  0  0  0  0  0  0
  2  3  1  1
  2  1  1  0
  4  5  1  1
  4  2  1  0
  6  4  1  0
  7  6  2  0
  9  8  1  6
  9 11  1  0
 10  9  1  0
 11 12  1  6
 12  6  1  0
 13 11  1  0
 13 20  1  0
 14 13  2  0
 15 16  1  0
 16 17  1  0
 17 19  1  0
 17 18  1  1
 19 20  1  6
 19 21  1  0
 21 23  1  0
 22 21  2  0
M  END
$$$$
