VVI.pdb
     RDKit          3D

 23 22  0  0  1  0  0  0  0  0999 V2000
    5.8677  -21.7970   25.1662 C   0  0  0  0  0  0  0  0  0  0  0  0
    6.7921  -20.5738   25.3071 C   0  0  2  0  0  0  0  0  0  0  0  0
    6.0142  -19.6205   26.2192 C   0  0  0  0  0  0  0  0  0  0  0  0
    6.9139  -19.9726   23.9585 C   0  0  2  0  0  0  0  0  0  0  0  0
    7.3779  -20.8979   22.9458 N   0  0  0  0  0  0  0  0  0  0  0  0
    7.6638  -18.6960   23.8986 C   0  0  0  0  0  0  0  0  0  0  0  0
    8.8988  -18.6154   24.0621 O   0  0  0  0  0  0  0  0  0  0  0  0
    7.2411  -15.6226   21.2353 C   0  0  0  0  0  0  0  0  0  0  0  0
    7.1104  -15.2021   22.6629 C   0  0  2  0  0  0  0  0  0  0  0  0
    7.8740  -13.8734   22.7816 C   0  0  0  0  0  0  0  0  0  0  0  0
    7.5958  -16.1755   23.6708 C   0  0  2  0  0  0  0  0  0  0  0  0
    6.9781  -17.4801   23.6439 N   0  0  0  0  0  0  0  0  0  0  0  0
    7.7112  -15.6220   25.0381 C   0  0  0  0  0  0  0  0  0  0  0  0
    6.7308  -15.2699   25.7475 O   0  0  0  0  0  0  0  0  0  0  0  0
    9.6838  -17.9273   29.0654 C   0  0  0  0  0  0  0  0  0  0  0  0
    8.9554  -16.9666   28.1586 C   0  0  0  0  0  0  0  0  0  0  0  0
    9.7264  -15.7185   27.9226 C   0  0  2  0  0  0  0  0  0  0  0  0
    9.9805  -15.0889   29.2840 C   0  0  0  0  0  0  0  0  0  0  0  0
    9.1066  -14.7752   26.9583 C   0  0  2  0  0  0  0  0  0  0  0  0
    8.9779  -15.4529   25.6494 N   0  0  0  0  0  0  0  0  0  0  0  0
    9.8418  -13.4984   26.7951 C   0  0  0  0  0  0  0  0  0  0  0  0
   10.7784  -13.4137   25.9426 O   0  0  0  0  0  0  0  0  0  0  0  0
    9.5538  -12.3743   27.5368 O   0  0  0  0  0  0  0  0  0  0  0  0
  2  3  1  1
  2  1  1  0
  4  5  1  6
  4  2  1  0
  6  4  1  0
  7  6  2  0
  9  8  1  6
  9 11  1  0
 10  9  1  0
 11 12  1  1
 12  6  1  0
 13 11  1  0
 13 20  1  0
 14 13  2  0
 15 16  1  0
 16 17  1  0
 17 19  1  0
 17 18  1  1
 19 20  1  6
 19 21  1  0
 21 23  1  0
 22 21  2  0
M  END
$$$$
