VVI.pdb
     RDKit          3D

 23 22  0  0  1  0  0  0  0  0999 V2000
   12.6877  -19.0465   21.3981 C   0  0  0  0  0  0  0  0  0  0  0  0
   11.3866  -19.0029   20.5760 C   0  0  2  0  0  0  0  0  0  0  0  0
   11.7094  -19.8206   19.3218 C   0  0  0  0  0  0  0  0  0  0  0  0
   11.1683  -17.5875   20.1962 C   0  0  2  0  0  0  0  0  0  0  0  0
   12.2651  -17.0068   19.4499 N   0  0  0  0  0  0  0  0  0  0  0  0
   10.7404  -16.6940   21.2981 C   0  0  0  0  0  0  0  0  0  0  0  0
   11.5046  -15.8846   21.8634 O   0  0  0  0  0  0  0  0  0  0  0  0
    7.2326  -14.6102   21.4470 C   0  0  0  0  0  0  0  0  0  0  0  0
    7.4989  -15.4180   22.6751 C   0  0  2  0  0  0  0  0  0  0  0  0
    7.1009  -14.5243   23.8608 C   0  0  0  0  0  0  0  0  0  0  0  0
    8.8880  -15.9114   22.8361 C   0  0  2  0  0  0  0  0  0  0  0  0
    9.4003  -16.7301   21.7628 N   0  0  0  0  0  0  0  0  0  0  0  0
    9.1790  -16.4703   24.1747 C   0  0  0  0  0  0  0  0  0  0  0  0
    9.1175  -17.6959   24.4620 O   0  0  0  0  0  0  0  0  0  0  0  0
    9.8532  -13.0504   28.7927 C   0  0  0  0  0  0  0  0  0  0  0  0
    9.3424  -14.0457   27.7806 C   0  0  0  0  0  0  0  0  0  0  0  0
   10.3492  -15.0897   27.4579 C   0  0  2  0  0  0  0  0  0  0  0  0
   11.5608  -14.3749   26.8788 C   0  0  0  0  0  0  0  0  0  0  0  0
    9.8549  -16.1847   26.5857 C   0  0  2  0  0  0  0  0  0  0  0  0
    9.5593  -15.6270   25.2476 N   0  0  0  0  0  0  0  0  0  0  0  0
    8.6637  -16.8932   27.1113 C   0  0  0  0  0  0  0  0  0  0  0  0
    8.7967  -17.7492   28.0392 O   0  0  0  0  0  0  0  0  0  0  0  0
    7.3920  -16.6646   26.6348 O   0  0  0  0  0  0  0  0  0  0  0  0
  2  3  1  6
  2  1  1  0
  4  5  1  1
  4  2  1  0
  6  4  1  0
  7  6  2  0
  9  8  1  6
  9 11  1  0
 10  9  1  0
 11 12  1  6
 12  6  1  0
 13 11  1  0
 13 20  1  0
 14 13  2  0
 15 16  1  0
 16 17  1  0
 17 19  1  0
 17 18  1  6
 19 20  1  6
 19 21  1  0
 21 23  1  0
 22 21  2  0
M  END
$$$$
