VVI.pdb
     RDKit          3D

 23 22  0  0  1  0  0  0  0  0999 V2000
    7.9890  -12.6056   17.9915 C   0  0  0  0  0  0  0  0  0  0  0  0
    7.7521  -13.2926   19.3489 C   0  0  2  0  0  0  0  0  0  0  0  0
    8.6272  -12.5016   20.3259 C   0  0  0  0  0  0  0  0  0  0  0  0
    8.2771  -14.6726   19.2268 C   0  0  2  0  0  0  0  0  0  0  0  0
    7.7348  -15.4068   18.1025 N   0  0  0  0  0  0  0  0  0  0  0  0
    8.2271  -15.4822   20.4668 C   0  0  0  0  0  0  0  0  0  0  0  0
    7.1933  -16.0494   20.8768 O   0  0  0  0  0  0  0  0  0  0  0  0
   10.0847  -18.6051   21.4806 C   0  0  0  0  0  0  0  0  0  0  0  0
   10.3469  -17.5619   22.5173 C   0  0  2  0  0  0  0  0  0  0  0  0
   10.2624  -18.2841   23.8715 C   0  0  0  0  0  0  0  0  0  0  0  0
    9.4433  -16.3864   22.4949 C   0  0  2  0  0  0  0  0  0  0  0  0
    9.3945  -15.6454   21.2567 N   0  0  0  0  0  0  0  0  0  0  0  0
    9.5591  -15.5130   23.6835 C   0  0  0  0  0  0  0  0  0  0  0  0
   10.5677  -14.8059   23.9504 O   0  0  0  0  0  0  0  0  0  0  0  0
    6.5802  -11.4152   26.6619 C   0  0  0  0  0  0  0  0  0  0  0  0
    7.6001  -12.5110   26.8486 C   0  0  0  0  0  0  0  0  0  0  0  0
    7.5554  -13.5160   25.7551 C   0  0  2  0  0  0  0  0  0  0  0  0
    6.1545  -14.1093   25.7539 C   0  0  0  0  0  0  0  0  0  0  0  0
    8.6189  -14.5502   25.8142 C   0  0  2  0  0  0  0  0  0  0  0  0
    8.5019  -15.4179   24.6216 N   0  0  0  0  0  0  0  0  0  0  0  0
    8.5980  -15.3775   27.0441 C   0  0  0  0  0  0  0  0  0  0  0  0
    8.9801  -14.8787   28.1470 O   0  0  0  0  0  0  0  0  0  0  0  0
    8.1750  -16.6881   27.0517 O   0  0  0  0  0  0  0  0  0  0  0  0
  2  3  1  1
  2  1  1  0
  4  5  1  6
  4  2  1  0
  6  4  1  0
  7  6  2  0
  9  8  1  6
  9 11  1  0
 10  9  1  0
 11 12  1  6
 12  6  1  0
 13 11  1  0
 13 20  1  0
 14 13  2  0
 15 16  1  0
 16 17  1  0
 17 19  1  0
 17 18  1  1
 19 20  1  6
 19 21  1  0
 21 23  1  0
 22 21  2  0
M  END
$$$$
