VVI.pdb
     RDKit          3D

 23 22  0  0  1  0  0  0  0  0999 V2000
    7.2181  -12.7575   20.4297 C   0  0  0  0  0  0  0  0  0  0  0  0
    8.4786  -13.3277   19.7540 C   0  0  2  0  0  0  0  0  0  0  0  0
    8.5019  -12.6552   18.3782 C   0  0  0  0  0  0  0  0  0  0  0  0
    8.2522  -14.7822   19.5855 C   0  0  2  0  0  0  0  0  0  0  0  0
    7.2716  -15.1073   18.5707 N   0  0  0  0  0  0  0  0  0  0  0  0
    7.9944  -15.5331   20.8366 C   0  0  0  0  0  0  0  0  0  0  0  0
    6.8488  -15.7912   21.2603 O   0  0  0  0  0  0  0  0  0  0  0  0
    8.7800  -19.0041   21.8779 C   0  0  0  0  0  0  0  0  0  0  0  0
    9.3916  -18.1054   22.9026 C   0  0  2  0  0  0  0  0  0  0  0  0
    9.0863  -18.7507   24.2639 C   0  0  0  0  0  0  0  0  0  0  0  0
    8.9364  -16.6943   22.8796 C   0  0  2  0  0  0  0  0  0  0  0  0
    9.0801  -16.0003   21.6217 N   0  0  0  0  0  0  0  0  0  0  0  0
    9.3968  -15.8924   24.0345 C   0  0  0  0  0  0  0  0  0  0  0  0
   10.6011  -15.5965   24.2596 O   0  0  0  0  0  0  0  0  0  0  0  0
    6.2121  -11.9588   25.8641 C   0  0  0  0  0  0  0  0  0  0  0  0
    7.3734  -12.8244   25.4425 C   0  0  0  0  0  0  0  0  0  0  0  0
    7.8849  -13.6643   26.5563 C   0  0  2  0  0  0  0  0  0  0  0  0
    8.3321  -12.7161   27.6588 C   0  0  0  0  0  0  0  0  0  0  0  0
    8.9379  -14.6375   26.1713 C   0  0  2  0  0  0  0  0  0  0  0  0
    8.4743  -15.3921   24.9862 N   0  0  0  0  0  0  0  0  0  0  0  0
    9.3228  -15.5787   27.2498 C   0  0  0  0  0  0  0  0  0  0  0  0
    8.6003  -16.5947   27.4887 O   0  0  0  0  0  0  0  0  0  0  0  0
   10.4495  -15.4040   28.0223 O   0  0  0  0  0  0  0  0  0  0  0  0
  2  3  1  6
  2  1  1  0
  4  5  1  6
  4  2  1  0
  6  4  1  0
  7  6  2  0
  9  8  1  6
  9 11  1  0
 10  9  1  0
 11 12  1  6
 12  6  1  0
 13 11  1  0
 13 20  1  0
 14 13  2  0
 15 16  1  0
 16 17  1  0
 17 19  1  0
 17 18  1  1
 19 20  1  6
 19 21  1  0
 21 23  1  0
 22 21  2  0
M  END
$$$$
