VVI.pdb
     RDKit          3D

 23 22  0  0  1  0  0  0  0  0999 V2000
   12.1492  -19.9273   20.3103 C   0  0  0  0  0  0  0  0  0  0  0  0
   11.7052  -18.7255   21.1642 C   0  0  2  0  0  0  0  0  0  0  0  0
   10.5119  -19.2559   21.9643 C   0  0  0  0  0  0  0  0  0  0  0  0
   11.2393  -17.6810   20.2224 C   0  0  2  0  0  0  0  0  0  0  0  0
   12.2133  -17.3307   19.2096 N   0  0  0  0  0  0  0  0  0  0  0  0
   10.6655  -16.4689   20.8527 C   0  0  0  0  0  0  0  0  0  0  0  0
   11.3584  -15.5730   21.3778 O   0  0  0  0  0  0  0  0  0  0  0  0
    7.5003  -14.1008   19.7104 C   0  0  0  0  0  0  0  0  0  0  0  0
    7.3546  -14.6978   21.0721 C   0  0  2  0  0  0  0  0  0  0  0  0
    6.7949  -13.5782   21.9644 C   0  0  0  0  0  0  0  0  0  0  0  0
    8.5887  -15.2692   21.6632 C   0  0  2  0  0  0  0  0  0  0  0  0
    9.2594  -16.2802   20.8806 N   0  0  0  0  0  0  0  0  0  0  0  0
    8.4599  -15.6382   23.0902 C   0  0  0  0  0  0  0  0  0  0  0  0
    8.2730  -16.8130   23.5065 O   0  0  0  0  0  0  0  0  0  0  0  0
    9.1493  -12.7717   28.5723 C   0  0  0  0  0  0  0  0  0  0  0  0
    8.9442  -14.0521   27.8014 C   0  0  0  0  0  0  0  0  0  0  0  0
    8.7106  -13.8085   26.3544 C   0  0  2  0  0  0  0  0  0  0  0  0
    7.5310  -12.8536   26.2492 C   0  0  0  0  0  0  0  0  0  0  0  0
    8.5340  -15.0345   25.5359 C   0  0  2  0  0  0  0  0  0  0  0  0
    8.5450  -14.6544   24.1060 N   0  0  0  0  0  0  0  0  0  0  0  0
    7.3042  -15.8024   25.8443 C   0  0  0  0  0  0  0  0  0  0  0  0
    6.2029  -15.4737   25.3053 O   0  0  0  0  0  0  0  0  0  0  0  0
    7.2952  -16.8784   26.7038 O   0  0  0  0  0  0  0  0  0  0  0  0
  2  3  1  1
  2  1  1  0
  4  5  1  1
  4  2  1  0
  6  4  1  0
  7  6  2  0
  9  8  1  6
  9 11  1  0
 10  9  1  0
 11 12  1  6
 12  6  1  0
 13 11  1  0
 13 20  1  0
 14 13  2  0
 15 16  1  0
 16 17  1  0
 17 19  1  0
 17 18  1  1
 19 20  1  6
 19 21  1  0
 21 23  1  0
 22 21  2  0
M  END
$$$$
