VVI.pdb
     RDKit          3D

 23 22  0  0  1  0  0  0  0  0999 V2000
    8.4847  -13.1284   17.8324 C   0  0  0  0  0  0  0  0  0  0  0  0
    7.8050  -13.4482   19.1764 C   0  0  2  0  0  0  0  0  0  0  0  0
    8.6766  -12.7358   20.2150 C   0  0  0  0  0  0  0  0  0  0  0  0
    7.9095  -14.9134   19.3701 C   0  0  2  0  0  0  0  0  0  0  0  0
    7.3566  -15.6881   18.2786 N   0  0  0  0  0  0  0  0  0  0  0  0
    7.4286  -15.4161   20.6783 C   0  0  0  0  0  0  0  0  0  0  0  0
    6.2379  -15.3453   21.0469 O   0  0  0  0  0  0  0  0  0  0  0  0
    7.3255  -18.8010   22.0438 C   0  0  0  0  0  0  0  0  0  0  0  0
    8.0432  -17.9866   23.0702 C   0  0  2  0  0  0  0  0  0  0  0  0
    7.4449  -18.3961   24.4256 C   0  0  0  0  0  0  0  0  0  0  0  0
    7.9753  -16.5160   22.8921 C   0  0  2  0  0  0  0  0  0  0  0  0
    8.3382  -16.0161   21.5872 N   0  0  0  0  0  0  0  0  0  0  0  0
    8.5910  -15.7451   23.9947 C   0  0  0  0  0  0  0  0  0  0  0  0
    9.8279  -15.5316   24.1087 O   0  0  0  0  0  0  0  0  0  0  0  0
    5.6589  -11.7901   26.2918 C   0  0  0  0  0  0  0  0  0  0  0  0
    6.8124  -12.5739   25.7165 C   0  0  0  0  0  0  0  0  0  0  0  0
    7.4119  -13.5050   26.7071 C   0  0  2  0  0  0  0  0  0  0  0  0
    7.9712  -12.6527   27.8364 C   0  0  0  0  0  0  0  0  0  0  0  0
    8.4116  -14.4503   26.1494 C   0  0  2  0  0  0  0  0  0  0  0  0
    7.7938  -15.1813   25.0211 N   0  0  0  0  0  0  0  0  0  0  0  0
    8.9577  -15.4130   27.1355 C   0  0  0  0  0  0  0  0  0  0  0  0
   10.0916  -15.1995   27.6648 O   0  0  0  0  0  0  0  0  0  0  0  0
    8.2828  -16.5516   27.5159 O   0  0  0  0  0  0  0  0  0  0  0  0
  2  3  1  1
  2  1  1  0
  4  5  1  6
  4  2  1  0
  6  4  1  0
  7  6  2  0
  9  8  1  6
  9 11  1  0
 10  9  1  0
 11 12  1  6
 12  6  1  0
 13 11  1  0
 13 20  1  0
 14 13  2  0
 15 16  1  0
 16 17  1  0
 17 19  1  0
 17 18  1  1
 19 20  1  6
 19 21  1  0
 21 23  1  0
 22 21  2  0
M  END
$$$$
