PIS.pdb
     RDKit          3D

 22 22  0  0  1  0  0  0  0  0999 V2000
    7.7388  -15.0030   19.9759 N   0  0  0  0  0  0  0  0  0  0  0  0
    7.2986  -15.9166   18.9678 C   0  0  0  0  0  0  0  0  0  0  0  0
    6.3089  -16.8565   19.6201 C   0  0  0  0  0  0  0  0  0  0  0  0
    6.7109  -16.7644   21.0944 C   0  0  0  0  0  0  0  0  0  0  0  0
    7.0987  -15.3185   21.2150 C   0  0  1  0  0  0  0  0  0  0  0  0
    7.9919  -15.0724   22.3781 C   0  0  0  0  0  0  0  0  0  0  0  0
    9.2588  -15.1628   22.2796 O   0  0  0  0  0  0  0  0  0  0  0  0
    6.0056  -11.6690   26.1085 C   0  0  0  0  0  0  0  0  0  0  0  0
    6.9844  -12.3794   25.1520 C   0  0  0  0  0  0  0  0  0  0  0  0
    7.4571  -13.6632   25.7369 C   0  0  2  0  0  0  0  0  0  0  0  0
    7.9863  -13.5226   27.1348 C   0  0  0  0  0  0  0  0  0  0  0  0
    8.3360  -14.4675   24.8171 C   0  0  2  0  0  0  0  0  0  0  0  0
    7.4933  -14.7281   23.6456 N   0  0  0  0  0  0  0  0  0  0  0  0
    8.8704  -15.7051   25.3785 C   0  0  0  0  0  0  0  0  0  0  0  0
    8.1005  -16.6682   25.7104 O   0  0  0  0  0  0  0  0  0  0  0  0
   12.7091  -18.6689   25.7426 O   0  0  0  0  0  0  0  0  0  0  0  0
   12.1491  -17.4642   25.3689 C   0  0  0  0  0  0  0  0  0  0  0  0
   10.7760  -17.2320   25.9603 C   0  0  2  0  0  0  0  0  0  0  0  0
   10.2547  -15.9249   25.5892 N   0  0  0  0  0  0  0  0  0  0  0  0
   10.8180  -17.4001   27.4327 C   0  0  0  0  0  0  0  0  0  0  0  0
   10.6365  -16.3970   28.1991 O   0  0  0  0  0  0  0  0  0  0  0  0
   11.0501  -18.6228   28.0023 O   0  0  0  0  0  0  0  0  0  0  0  0
  1  2  1  0
  1  5  1  0
  2  3  1  0
  3  4  1  0
  5  6  1  1
  5  4  1  0
  6 13  1  0
  7  6  2  0
  8  9  1  0
  9 10  1  0
 10 11  1  1
 10 12  1  0
 12 14  1  0
 12 13  1  6
 14 15  2  0
 14 19  1  0
 16 17  1  0
 18 17  1  1
 18 20  1  0
 19 18  1  0
 20 22  1  0
 21 20  2  0
M  END
$$$$
