PIS.pdb
     RDKit          3D

 22 22  0  0  1  0  0  0  0  0999 V2000
    6.9248  -14.7919   20.8751 N   0  0  0  0  0  0  0  0  0  0  0  0
    6.2587  -14.0564   19.8456 C   0  0  0  0  0  0  0  0  0  0  0  0
    7.2828  -13.1317   19.2253 C   0  0  0  0  0  0  0  0  0  0  0  0
    8.3117  -12.9998   20.3511 C   0  0  0  0  0  0  0  0  0  0  0  0
    8.2919  -14.3789   20.9456 C   0  0  1  0  0  0  0  0  0  0  0  0
    8.8043  -14.3954   22.3415 C   0  0  0  0  0  0  0  0  0  0  0  0
   10.0439  -14.2579   22.6007 O   0  0  0  0  0  0  0  0  0  0  0  0
    5.8944  -11.8175   25.8294 C   0  0  0  0  0  0  0  0  0  0  0  0
    7.0207  -12.4974   25.0252 C   0  0  0  0  0  0  0  0  0  0  0  0
    7.3441  -13.8337   25.5942 C   0  0  2  0  0  0  0  0  0  0  0  0
    7.5301  -13.8184   27.0838 C   0  0  0  0  0  0  0  0  0  0  0  0
    8.4153  -14.5760   24.8413 C   0  0  2  0  0  0  0  0  0  0  0  0
    7.9559  -14.5627   23.4486 N   0  0  0  0  0  0  0  0  0  0  0  0
    8.6841  -15.9349   25.3035 C   0  0  0  0  0  0  0  0  0  0  0  0
    7.7340  -16.7576   25.5292 O   0  0  0  0  0  0  0  0  0  0  0  0
   12.4374  -17.7381   24.9662 O   0  0  0  0  0  0  0  0  0  0  0  0
   11.2754  -18.4727   25.0878 C   0  0  0  0  0  0  0  0  0  0  0  0
   10.2303  -17.8028   25.9528 C   0  0  2  0  0  0  0  0  0  0  0  0
    9.9926  -16.4313   25.5280 N   0  0  0  0  0  0  0  0  0  0  0  0
   10.6292  -17.8666   27.3792 C   0  0  0  0  0  0  0  0  0  0  0  0
   10.7863  -16.7938   28.0508 O   0  0  0  0  0  0  0  0  0  0  0  0
   10.8374  -19.0651   28.0064 O   0  0  0  0  0  0  0  0  0  0  0  0
  1  2  1  0
  1  5  1  0
  2  3  1  0
  3  4  1  0
  5  6  1  1
  5  4  1  0
  6 13  1  0
  7  6  2  0
  8  9  1  0
  9 10  1  0
 10 11  1  1
 10 12  1  0
 12 14  1  0
 12 13  1  6
 14 15  2  0
 14 19  1  0
 16 17  1  0
 18 17  1  6
 18 20  1  0
 19 18  1  0
 20 22  1  0
 21 20  2  0
M  END
$$$$
