PIS.pdb
     RDKit          3D

 22 22  0  0  1  0  0  0  0  0999 V2000
    8.5172  -15.1203   19.9099 N   0  0  0  0  0  0  0  0  0  0  0  0
    8.0835  -16.0098   18.8777 C   0  0  0  0  0  0  0  0  0  0  0  0
    6.7997  -16.6527   19.3543 C   0  0  0  0  0  0  0  0  0  0  0  0
    6.9207  -16.5103   20.8738 C   0  0  0  0  0  0  0  0  0  0  0  0
    7.5960  -15.1750   21.0022 C   0  0  1  0  0  0  0  0  0  0  0  0
    8.2808  -15.0165   22.3126 C   0  0  0  0  0  0  0  0  0  0  0  0
    9.4996  -15.3497   22.4751 O   0  0  0  0  0  0  0  0  0  0  0  0
    7.0279  -11.7580   27.3746 C   0  0  0  0  0  0  0  0  0  0  0  0
    7.9654  -12.7982   26.7290 C   0  0  0  0  0  0  0  0  0  0  0  0
    7.3979  -13.2979   25.4476 C   0  0  2  0  0  0  0  0  0  0  0  0
    5.9502  -13.6828   25.5463 C   0  0  0  0  0  0  0  0  0  0  0  0
    8.2645  -14.3109   24.7487 C   0  0  2  0  0  0  0  0  0  0  0  0
    7.6271  -14.4932   23.4406 N   0  0  0  0  0  0  0  0  0  0  0  0
    8.4327  -15.5836   25.4446 C   0  0  0  0  0  0  0  0  0  0  0  0
    7.4549  -16.3912   25.5932 O   0  0  0  0  0  0  0  0  0  0  0  0
   12.0215  -17.5238   25.4365 O   0  0  0  0  0  0  0  0  0  0  0  0
   10.8066  -18.1491   25.6304 C   0  0  0  0  0  0  0  0  0  0  0  0
    9.8578  -17.3580   26.5039 C   0  0  2  0  0  0  0  0  0  0  0  0
    9.6689  -16.0087   25.9924 N   0  0  0  0  0  0  0  0  0  0  0  0
   10.3438  -17.3431   27.9044 C   0  0  0  0  0  0  0  0  0  0  0  0
   10.5828  -18.4381   28.5130 O   0  0  0  0  0  0  0  0  0  0  0  0
   10.5466  -16.1668   28.5742 O   0  0  0  0  0  0  0  0  0  0  0  0
  1  2  1  0
  1  5  1  0
  2  3  1  0
  3  4  1  0
  5  6  1  1
  5  4  1  0
  6 13  1  0
  7  6  2  0
  8  9  1  0
  9 10  1  0
 10 11  1  1
 10 12  1  0
 12 14  1  0
 12 13  1  6
 14 15  2  0
 14 19  1  0
 16 17  1  0
 18 17  1  6
 18 20  1  0
 19 18  1  0
 20 22  1  0
 21 20  2  0
M  END
$$$$
