PIS.pdb
     RDKit          3D

 22 22  0  0  1  0  0  0  0  0999 V2000
    8.0395  -14.8042   20.1089 N   0  0  0  0  0  0  0  0  0  0  0  0
    7.6234  -15.6678   19.0479 C   0  0  0  0  0  0  0  0  0  0  0  0
    6.5346  -16.5603   19.6014 C   0  0  0  0  0  0  0  0  0  0  0  0
    6.8299  -16.5241   21.1031 C   0  0  0  0  0  0  0  0  0  0  0  0
    7.2913  -15.1070   21.2892 C   0  0  1  0  0  0  0  0  0  0  0  0
    8.1078  -14.9401   22.5207 C   0  0  0  0  0  0  0  0  0  0  0  0
    9.3741  -15.0785   22.5076 O   0  0  0  0  0  0  0  0  0  0  0  0
    5.9807  -11.6338   26.2677 C   0  0  0  0  0  0  0  0  0  0  0  0
    6.9847  -12.3434   25.3371 C   0  0  0  0  0  0  0  0  0  0  0  0
    7.3862  -13.6612   25.8991 C   0  0  2  0  0  0  0  0  0  0  0  0
    7.8327  -13.5881   27.3306 C   0  0  0  0  0  0  0  0  0  0  0  0
    8.2977  -14.4562   25.0032 C   0  0  2  0  0  0  0  0  0  0  0  0
    7.5334  -14.6219   23.7626 N   0  0  0  0  0  0  0  0  0  0  0  0
    8.7403  -15.7420   25.5354 C   0  0  0  0  0  0  0  0  0  0  0  0
    7.9005  -16.6268   25.9125 O   0  0  0  0  0  0  0  0  0  0  0  0
   12.7851  -16.9234   25.4033 O   0  0  0  0  0  0  0  0  0  0  0  0
   11.7752  -17.8624   25.3475 C   0  0  0  0  0  0  0  0  0  0  0  0
   10.5168  -17.4332   26.0694 C   0  0  2  0  0  0  0  0  0  0  0  0
   10.1064  -16.0962   25.6669 N   0  0  0  0  0  0  0  0  0  0  0  0
   10.7132  -17.5208   27.5362 C   0  0  0  0  0  0  0  0  0  0  0  0
   10.5531  -16.4888   28.2684 O   0  0  0  0  0  0  0  0  0  0  0  0
   11.0677  -18.6983   28.1371 O   0  0  0  0  0  0  0  0  0  0  0  0
  1  2  1  0
  1  5  1  0
  2  3  1  0
  3  4  1  0
  5  6  1  1
  5  4  1  0
  6 13  1  0
  7  6  2  0
  8  9  1  0
  9 10  1  0
 10 11  1  1
 10 12  1  0
 12 14  1  0
 12 13  1  6
 14 15  2  0
 14 19  1  0
 16 17  1  0
 18 17  1  6
 18 20  1  0
 19 18  1  0
 20 22  1  0
 21 20  2  0
M  END
$$$$
