KIF.pdb
     RDKit          3D

 29 29  0  0  1  0  0  0  0  0999 V2000
   22.8517  -18.1623  -17.7925 N   0  0  0  0  0  0  0  0  0  0  0  0
   23.5878  -17.5962  -16.6872 C   0  0  1  0  0  0  0  0  0  0  0  0
   22.7538  -16.9019  -15.6903 C   0  0  0  0  0  0  0  0  0  0  0  0
   21.6976  -15.9806  -16.0980 C   0  0  0  0  0  0  0  0  0  0  0  0
   21.9416  -14.7984  -16.9247 C   0  0  0  0  0  0  0  0  0  0  0  0
   20.9367  -14.3533  -17.9174 C   0  0  0  0  0  0  0  0  0  0  0  0
   20.6022  -12.9439  -17.5452 N   0  0  0  0  0  0  0  0  0  0  0  0
   24.2566  -18.7716  -16.0099 C   0  0  0  0  0  0  0  0  0  0  0  0
   23.5798  -19.8245  -15.9150 O   0  0  0  0  0  0  0  0  0  0  0  0
   28.8874  -20.2101  -17.8809 C   0  0  0  0  0  0  0  0  0  0  0  0
   27.5785  -20.1844  -17.1951 C   0  0  0  0  0  0  0  0  0  0  0  0
   27.5071  -20.0683  -15.7448 C   0  0  2  0  0  0  0  0  0  0  0  0
   28.4013  -21.1566  -15.1144 C   0  0  0  0  0  0  0  0  0  0  0  0
   26.1899  -20.0152  -15.0574 C   0  0  2  0  0  0  0  0  0  0  0  0
   25.5462  -18.7265  -15.5083 N   0  0  0  0  0  0  0  0  0  0  0  0
   26.2739  -19.9647  -13.5979 C   0  0  0  0  0  0  0  0  0  0  0  0
   26.7467  -18.9010  -13.0271 O   0  0  0  0  0  0  0  0  0  0  0  0
   25.8712  -20.9732  -12.6750 N   0  0  0  0  0  0  0  0  0  0  0  0
   26.2381  -20.8786  -11.2673 C   0  0  1  0  0  0  0  0  0  0  0  0
   25.4987  -19.6777  -10.6418 C   0  0  0  0  0  0  0  0  0  0  0  0
   25.8110  -19.5889   -9.1920 C   0  0  0  0  0  0  0  0  0  0  0  0
   26.7029  -18.6054   -8.8004 C   0  0  0  0  0  0  0  0  0  0  0  0
   27.0555  -18.4439   -7.4863 C   0  0  0  0  0  0  0  0  0  0  0  0
   26.5032  -19.2817   -6.5617 C   0  0  0  0  0  0  0  0  0  0  0  0
   25.6071  -20.2771   -6.9185 C   0  0  0  0  0  0  0  0  0  0  0  0
   25.2677  -20.4188   -8.2533 C   0  0  0  0  0  0  0  0  0  0  0  0
   25.8208  -22.0457  -10.5248 C   0  0  0  0  0  0  0  0  0  0  0  0
   26.5920  -22.5329   -9.6514 O   0  0  0  0  0  0  0  0  0  0  0  0
   24.6153  -22.6611  -10.7175 O   0  0  0  0  0  0  0  0  0  0  0  0
  2  3  1  0
  2  1  1  6
  3  4  1  0
  4  5  1  0
  5  6  1  0
  6  7  1  0
  8  2  1  0
  9  8  2  0
 11 10  1  0
 12 11  1  0
 12 14  1  0
 12 13  1  1
 14 15  1  6
 15  8  1  0
 16 14  1  0
 16 17  2  0
 18 16  1  0
 19 20  1  1
 19 18  1  0
 20 21  1  0
 21 26  2  0
 21 22  1  0
 22 23  2  0
 23 24  1  0
 25 24  2  0
 26 25  1  0
 27 19  1  0
 28 27  2  0
 29 27  1  0
M  END
$$$$
