KIF.pdb
     RDKit          3D

 29 29  0  0  1  0  0  0  0  0999 V2000
   22.5173  -30.5148  -20.0238 N   0  0  0  0  0  0  0  0  0  0  0  0
   23.1715  -30.1027  -18.8047 C   0  0  1  0  0  0  0  0  0  0  0  0
   22.7083  -30.8062  -17.5956 C   0  0  0  0  0  0  0  0  0  0  0  0
   21.4228  -30.4882  -16.9817 C   0  0  0  0  0  0  0  0  0  0  0  0
   20.8915  -29.1276  -16.8956 C   0  0  0  0  0  0  0  0  0  0  0  0
   19.5896  -28.8679  -16.2392 C   0  0  0  0  0  0  0  0  0  0  0  0
   19.3547  -27.3978  -16.3820 N   0  0  0  0  0  0  0  0  0  0  0  0
   24.6352  -30.4247  -19.0092 C   0  0  0  0  0  0  0  0  0  0  0  0
   24.8955  -31.4426  -19.6962 O   0  0  0  0  0  0  0  0  0  0  0  0
   27.9588  -27.2481  -21.3184 C   0  0  0  0  0  0  0  0  0  0  0  0
   27.3534  -28.4570  -20.7214 C   0  0  0  0  0  0  0  0  0  0  0  0
   27.7345  -28.8899  -19.3838 C   0  0  2  0  0  0  0  0  0  0  0  0
   29.2708  -29.0212  -19.3227 C   0  0  0  0  0  0  0  0  0  0  0  0
   27.0863  -30.0749  -18.7624 C   0  0  2  0  0  0  0  0  0  0  0  0
   25.6621  -29.6605  -18.4820 N   0  0  0  0  0  0  0  0  0  0  0  0
   27.6734  -30.4823  -17.4861 C   0  0  0  0  0  0  0  0  0  0  0  0
   27.3096  -29.8760  -16.3993 O   0  0  0  0  0  0  0  0  0  0  0  0
   28.6274  -31.5178  -17.2665 N   0  0  0  0  0  0  0  0  0  0  0  0
   28.9415  -31.9615  -15.9139 C   0  0  1  0  0  0  0  0  0  0  0  0
   27.6540  -32.5023  -15.2579 C   0  0  0  0  0  0  0  0  0  0  0  0
   27.9511  -32.9952  -13.8882 C   0  0  0  0  0  0  0  0  0  0  0  0
   28.1402  -34.3582  -13.7382 C   0  0  0  0  0  0  0  0  0  0  0  0
   28.4178  -34.9098  -12.5150 C   0  0  0  0  0  0  0  0  0  0  0  0
   28.5049  -34.0787  -11.4364 C   0  0  0  0  0  0  0  0  0  0  0  0
   28.3212  -32.7096  -11.5504 C   0  0  0  0  0  0  0  0  0  0  0  0
   28.0418  -32.1779  -12.7979 C   0  0  0  0  0  0  0  0  0  0  0  0
   29.8882  -33.0529  -15.9138 C   0  0  0  0  0  0  0  0  0  0  0  0
   30.3216  -33.4972  -14.8139 O   0  0  0  0  0  0  0  0  0  0  0  0
   30.3471  -33.6429  -17.0585 O   0  0  0  0  0  0  0  0  0  0  0  0
  2  3  1  0
  2  1  1  6
  3  4  1  0
  4  5  1  0
  5  6  1  0
  6  7  1  0
  8  2  1  0
  9  8  2  0
 11 10  1  0
 12 11  1  0
 12 14  1  0
 12 13  1  6
 14 15  1  1
 15  8  1  0
 16 14  1  0
 16 17  2  0
 18 16  1  0
 19 20  1  6
 19 18  1  0
 20 21  1  0
 21 26  2  0
 21 22  1  0
 22 23  2  0
 23 24  1  0
 25 24  2  0
 26 25  1  0
 27 19  1  0
 28 27  2  0
 29 27  1  0
M  END
$$$$
