KIF.pdb
     RDKit          3D

 29 29  0  0  1  0  0  0  0  0999 V2000
   27.9998  -22.1123  -16.7294 N   0  0  0  0  0  0  0  0  0  0  0  0
   27.5530  -20.9059  -16.0745 C   0  0  1  0  0  0  0  0  0  0  0  0
   26.5180  -20.1591  -16.8110 C   0  0  0  0  0  0  0  0  0  0  0  0
   26.8125  -19.5205  -18.0900 C   0  0  0  0  0  0  0  0  0  0  0  0
   27.4794  -18.2230  -18.2021 C   0  0  0  0  0  0  0  0  0  0  0  0
   27.6322  -17.5664  -19.5208 C   0  0  0  0  0  0  0  0  0  0  0  0
   28.3775  -16.2977  -19.2532 N   0  0  0  0  0  0  0  0  0  0  0  0
   26.9629  -21.3617  -14.7586 C   0  0  0  0  0  0  0  0  0  0  0  0
   26.3823  -22.4747  -14.7591 O   0  0  0  0  0  0  0  0  0  0  0  0
   29.6894  -21.0466  -10.2933 C   0  0  0  0  0  0  0  0  0  0  0  0
   28.6634  -21.4825  -11.2637 C   0  0  0  0  0  0  0  0  0  0  0  0
   27.3292  -20.8981  -11.2399 C   0  0  2  0  0  0  0  0  0  0  0  0
   26.6730  -21.2127   -9.8791 C   0  0  0  0  0  0  0  0  0  0  0  0
   26.3741  -21.1561  -12.3497 C   0  0  2  0  0  0  0  0  0  0  0  0
   27.0391  -20.6179  -13.5934 N   0  0  0  0  0  0  0  0  0  0  0  0
   25.0929  -20.4633  -12.2148 C   0  0  0  0  0  0  0  0  0  0  0  0
   25.0787  -19.1703  -12.1209 O   0  0  0  0  0  0  0  0  0  0  0  0
   23.7941  -21.0490  -12.1867 N   0  0  0  0  0  0  0  0  0  0  0  0
   22.6118  -20.2206  -11.9841 C   0  0  1  0  0  0  0  0  0  0  0  0
   22.4681  -19.2599  -13.1828 C   0  0  0  0  0  0  0  0  0  0  0  0
   22.4835  -20.0289  -14.4538 C   0  0  0  0  0  0  0  0  0  0  0  0
   22.2795  -21.3951  -14.3642 C   0  0  0  0  0  0  0  0  0  0  0  0
   22.2767  -22.1910  -15.4795 C   0  0  0  0  0  0  0  0  0  0  0  0
   22.4814  -21.6026  -16.6934 C   0  0  0  0  0  0  0  0  0  0  0  0
   22.6888  -20.2380  -16.8199 C   0  0  0  0  0  0  0  0  0  0  0  0
   22.6868  -19.4565  -15.6769 C   0  0  0  0  0  0  0  0  0  0  0  0
   21.4028  -21.0110  -11.9483 C   0  0  0  0  0  0  0  0  0  0  0  0
   21.4757  -22.2622  -12.1040 O   0  0  0  0  0  0  0  0  0  0  0  0
   20.1631  -20.4700  -11.7495 O   0  0  0  0  0  0  0  0  0  0  0  0
  2  3  1  0
  2  1  1  6
  3  4  1  0
  4  5  1  0
  5  6  1  0
  6  7  1  0
  8  2  1  0
  9  8  2  0
 11 10  1  0
 12 11  1  0
 12 14  1  0
 12 13  1  1
 14 15  1  6
 15  8  1  0
 16 14  1  0
 16 17  2  0
 18 16  1  0
 19 20  1  6
 19 18  1  0
 20 21  1  0
 21 26  2  0
 21 22  1  0
 22 23  2  0
 23 24  1  0
 25 24  2  0
 26 25  1  0
 27 19  1  0
 28 27  2  0
 29 27  1  0
M  END
$$$$
