KIF.pdb
     RDKit          3D

 29 29  0  0  1  0  0  0  0  0999 V2000
   28.7316  -23.4565  -17.4854 N   0  0  0  0  0  0  0  0  0  0  0  0
   27.4273  -23.2673  -16.8964 C   0  0  1  0  0  0  0  0  0  0  0  0
   26.8232  -24.4929  -16.3447 C   0  0  0  0  0  0  0  0  0  0  0  0
   26.1961  -25.4839  -17.2137 C   0  0  0  0  0  0  0  0  0  0  0  0
   25.8636  -26.8389  -16.7731 C   0  0  0  0  0  0  0  0  0  0  0  0
   25.3669  -27.8445  -17.7403 C   0  0  0  0  0  0  0  0  0  0  0  0
   24.1291  -27.2520  -18.3348 N   0  0  0  0  0  0  0  0  0  0  0  0
   27.6404  -22.2911  -15.7609 C   0  0  0  0  0  0  0  0  0  0  0  0
   28.7404  -22.3601  -15.1601 O   0  0  0  0  0  0  0  0  0  0  0  0
   27.7830  -17.2986  -16.4123 C   0  0  0  0  0  0  0  0  0  0  0  0
   27.9231  -18.6199  -15.7651 C   0  0  0  0  0  0  0  0  0  0  0  0
   26.9551  -19.0609  -14.7699 C   0  0  2  0  0  0  0  0  0  0  0  0
   26.9103  -18.0250  -13.6270 C   0  0  0  0  0  0  0  0  0  0  0  0
   27.0166  -20.4405  -14.2190 C   0  0  2  0  0  0  0  0  0  0  0  0
   26.6951  -21.3560  -15.3754 N   0  0  0  0  0  0  0  0  0  0  0  0
   26.0348  -20.7142  -13.1698 C   0  0  0  0  0  0  0  0  0  0  0  0
   24.7769  -20.7707  -13.4785 O   0  0  0  0  0  0  0  0  0  0  0  0
   26.2919  -20.9537  -11.7888 N   0  0  0  0  0  0  0  0  0  0  0  0
   25.2017  -21.2801  -10.8777 C   0  0  1  0  0  0  0  0  0  0  0  0
   25.7930  -21.9296   -9.6094 C   0  0  0  0  0  0  0  0  0  0  0  0
   26.7205  -20.9819   -8.9395 C   0  0  0  0  0  0  0  0  0  0  0  0
   26.1493  -19.9572   -8.2048 C   0  0  0  0  0  0  0  0  0  0  0  0
   26.9202  -19.0321   -7.5511 C   0  0  0  0  0  0  0  0  0  0  0  0
   28.2773  -19.1431   -7.6405 C   0  0  0  0  0  0  0  0  0  0  0  0
   28.8827  -20.1563   -8.3672 C   0  0  0  0  0  0  0  0  0  0  0  0
   28.0805  -21.0781   -9.0182 C   0  0  0  0  0  0  0  0  0  0  0  0
   24.4970  -20.0974  -10.4391 C   0  0  0  0  0  0  0  0  0  0  0  0
   25.0478  -18.9674  -10.5602 O   0  0  0  0  0  0  0  0  0  0  0  0
   23.2443  -20.1346   -9.8929 O   0  0  0  0  0  0  0  0  0  0  0  0
  2  3  1  0
  2  1  1  1
  3  4  1  0
  4  5  1  0
  5  6  1  0
  6  7  1  0
  8  2  1  0
  9  8  2  0
 11 10  1  0
 12 11  1  0
 12 14  1  0
 12 13  1  1
 14 15  1  6
 15  8  1  0
 16 14  1  0
 16 17  2  0
 18 16  1  0
 19 20  1  1
 19 18  1  0
 20 21  1  0
 21 26  2  0
 21 22  1  0
 22 23  2  0
 23 24  1  0
 25 24  2  0
 26 25  1  0
 27 19  1  0
 28 27  2  0
 29 27  1  0
M  END
$$$$
