KIF.pdb
     RDKit          3D

 29 29  0  0  1  0  0  0  0  0999 V2000
   22.0983  -21.0923  -14.1586 N   0  0  0  0  0  0  0  0  0  0  0  0
   22.5377  -20.2018  -13.1108 C   0  0  1  0  0  0  0  0  0  0  0  0
   21.5633  -20.0134  -12.0215 C   0  0  0  0  0  0  0  0  0  0  0  0
   20.2037  -20.5342  -12.1249 C   0  0  0  0  0  0  0  0  0  0  0  0
   19.0126  -19.6956  -11.9878 C   0  0  0  0  0  0  0  0  0  0  0  0
   17.6591  -20.2854  -12.1036 C   0  0  0  0  0  0  0  0  0  0  0  0
   17.0182  -20.0841  -10.7674 N   0  0  0  0  0  0  0  0  0  0  0  0
   23.7769  -20.8478  -12.5321 C   0  0  0  0  0  0  0  0  0  0  0  0
   23.7304  -22.0890  -12.3506 O   0  0  0  0  0  0  0  0  0  0  0  0
   28.1389  -20.2300  -15.0532 C   0  0  0  0  0  0  0  0  0  0  0  0
   27.1112  -20.7382  -14.1203 C   0  0  0  0  0  0  0  0  0  0  0  0
   27.2322  -20.5009  -12.6882 C   0  0  2  0  0  0  0  0  0  0  0  0
   28.5874  -21.0586  -12.2047 C   0  0  0  0  0  0  0  0  0  0  0  0
   26.1423  -20.9083  -11.7626 C   0  0  2  0  0  0  0  0  0  0  0  0
   24.9214  -20.1399  -12.2071 N   0  0  0  0  0  0  0  0  0  0  0  0
   26.3808  -20.5611  -10.3618 C   0  0  0  0  0  0  0  0  0  0  0  0
   26.5013  -19.3136  -10.0300 O   0  0  0  0  0  0  0  0  0  0  0  0
   26.4884  -21.4553   -9.2575 N   0  0  0  0  0  0  0  0  0  0  0  0
   27.1649  -21.0435   -8.0336 C   0  0  1  0  0  0  0  0  0  0  0  0
   26.4707  -19.7798   -7.4845 C   0  0  0  0  0  0  0  0  0  0  0  0
   27.1276  -19.3474   -6.2240 C   0  0  0  0  0  0  0  0  0  0  0  0
   27.8456  -18.1646   -6.2633 C   0  0  0  0  0  0  0  0  0  0  0  0
   28.4879  -17.6824   -5.1531 C   0  0  0  0  0  0  0  0  0  0  0  0
   28.4040  -18.4001   -3.9957 C   0  0  0  0  0  0  0  0  0  0  0  0
   27.6939  -19.5881   -3.9206 C   0  0  0  0  0  0  0  0  0  0  0  0
   27.0541  -20.0531   -5.0571 C   0  0  0  0  0  0  0  0  0  0  0  0
   27.0610  -22.0473   -6.9996 C   0  0  0  0  0  0  0  0  0  0  0  0
   27.7953  -21.9606   -5.9758 O   0  0  0  0  0  0  0  0  0  0  0  0
   26.1949  -23.1028   -7.0686 O   0  0  0  0  0  0  0  0  0  0  0  0
  2  3  1  0
  2  1  1  6
  3  4  1  0
  4  5  1  0
  5  6  1  0
  6  7  1  0
  8  2  1  0
  9  8  2  0
 11 10  1  0
 12 11  1  0
 12 14  1  0
 12 13  1  1
 14 15  1  6
 15  8  1  0
 16 14  1  0
 16 17  2  0
 18 16  1  0
 19 20  1  1
 19 18  1  0
 20 21  1  0
 21 26  2  0
 21 22  1  0
 22 23  2  0
 23 24  1  0
 25 24  2  0
 26 25  1  0
 27 19  1  0
 28 27  2  0
 29 27  1  0
M  END
$$$$
