KIF.pdb
     RDKit          3D

 29 29  0  0  1  0  0  0  0  0999 V2000
   28.2778  -21.1341  -10.1703 N   0  0  0  0  0  0  0  0  0  0  0  0
   26.8958  -20.9264   -9.8090 C   0  0  1  0  0  0  0  0  0  0  0  0
   26.6848  -19.9127   -8.7604 C   0  0  0  0  0  0  0  0  0  0  0  0
   27.4922  -19.9034   -7.5445 C   0  0  0  0  0  0  0  0  0  0  0  0
   27.2909  -18.9452   -6.4572 C   0  0  0  0  0  0  0  0  0  0  0  0
   28.2852  -18.8246   -5.3662 C   0  0  0  0  0  0  0  0  0  0  0  0
   28.7501  -20.2193   -5.0914 N   0  0  0  0  0  0  0  0  0  0  0  0
   26.2205  -20.4470  -11.0746 C   0  0  0  0  0  0  0  0  0  0  0  0
   26.6337  -19.3638  -11.5558 O   0  0  0  0  0  0  0  0  0  0  0  0
   27.9071  -22.0725  -15.0084 C   0  0  0  0  0  0  0  0  0  0  0  0
   27.0731  -21.3281  -14.0415 C   0  0  0  0  0  0  0  0  0  0  0  0
   25.6283  -21.5123  -14.0174 C   0  0  2  0  0  0  0  0  0  0  0  0
   25.0897  -21.4073  -15.4597 C   0  0  0  0  0  0  0  0  0  0  0  0
   24.7832  -20.7174  -13.0877 C   0  0  2  0  0  0  0  0  0  0  0  0
   25.1968  -21.1394  -11.6987 N   0  0  0  0  0  0  0  0  0  0  0  0
   23.3487  -20.9784  -13.2056 C   0  0  0  0  0  0  0  0  0  0  0  0
   22.8786  -22.1215  -12.8143 O   0  0  0  0  0  0  0  0  0  0  0  0
   22.3489  -20.0937  -13.7040 N   0  0  0  0  0  0  0  0  0  0  0  0
   20.9546  -20.5140  -13.7719 C   0  0  1  0  0  0  0  0  0  0  0  0
   20.0922  -19.4989  -12.9933 C   0  0  0  0  0  0  0  0  0  0  0  0
   20.2187  -19.7406  -11.5329 C   0  0  0  0  0  0  0  0  0  0  0  0
   20.8947  -18.7850  -10.7940 C   0  0  0  0  0  0  0  0  0  0  0  0
   21.0648  -18.9177   -9.4409 C   0  0  0  0  0  0  0  0  0  0  0  0
   20.5484  -20.0234   -8.8304 C   0  0  0  0  0  0  0  0  0  0  0  0
   19.8660  -20.9996   -9.5392 C   0  0  0  0  0  0  0  0  0  0  0  0
   19.7082  -20.8410  -10.9056 C   0  0  0  0  0  0  0  0  0  0  0  0
   20.4596  -20.5126  -15.1293 C   0  0  0  0  0  0  0  0  0  0  0  0
   19.3047  -20.9644  -15.3681 O   0  0  0  0  0  0  0  0  0  0  0  0
   21.1842  -20.0390  -16.1874 O   0  0  0  0  0  0  0  0  0  0  0  0
  2  3  1  0
  2  1  1  6
  3  4  1  0
  4  5  1  0
  5  6  1  0
  6  7  1  0
  8  2  1  0
  9  8  2  0
 11 10  1  0
 12 11  1  0
 12 14  1  0
 12 13  1  6
 14 15  1  1
 15  8  1  0
 16 14  1  0
 16 17  2  0
 18 16  1  0
 19 20  1  1
 19 18  1  0
 20 21  1  0
 21 26  2  0
 21 22  1  0
 22 23  2  0
 23 24  1  0
 25 24  2  0
 26 25  1  0
 27 19  1  0
 28 27  2  0
 29 27  1  0
M  END
$$$$
