KIF.pdb
     RDKit          3D

 29 29  0  0  1  0  0  0  0  0999 V2000
   27.2544  -23.6922  -17.5374 N   0  0  0  0  0  0  0  0  0  0  0  0
   26.1394  -23.1478  -16.7997 C   0  0  1  0  0  0  0  0  0  0  0  0
   25.2950  -24.1572  -16.1368 C   0  0  0  0  0  0  0  0  0  0  0  0
   24.4555  -25.0667  -16.9105 C   0  0  0  0  0  0  0  0  0  0  0  0
   24.9932  -26.1691  -17.7083 C   0  0  0  0  0  0  0  0  0  0  0  0
   25.6897  -27.3013  -17.0553 C   0  0  0  0  0  0  0  0  0  0  0  0
   24.6103  -28.2464  -16.6330 N   0  0  0  0  0  0  0  0  0  0  0  0
   26.7569  -22.2715  -15.7327 C   0  0  0  0  0  0  0  0  0  0  0  0
   27.9098  -22.5844  -15.3472 O   0  0  0  0  0  0  0  0  0  0  0  0
   26.5181  -17.4849  -16.5531 C   0  0  0  0  0  0  0  0  0  0  0  0
   27.2563  -18.4480  -15.7093 C   0  0  0  0  0  0  0  0  0  0  0  0
   26.6634  -18.9591  -14.4808 C   0  0  2  0  0  0  0  0  0  0  0  0
   27.0816  -18.0455  -13.3095 C   0  0  0  0  0  0  0  0  0  0  0  0
   26.8211  -20.3893  -14.1066 C   0  0  2  0  0  0  0  0  0  0  0  0
   26.1150  -21.1735  -15.1860 N   0  0  0  0  0  0  0  0  0  0  0  0
   26.1957  -20.7515  -12.8348 C   0  0  0  0  0  0  0  0  0  0  0  0
   24.9083  -20.8951  -12.7802 O   0  0  0  0  0  0  0  0  0  0  0  0
   26.8474  -20.9940  -11.5909 N   0  0  0  0  0  0  0  0  0  0  0  0
   26.0834  -21.4201  -10.4248 C   0  0  1  0  0  0  0  0  0  0  0  0
   27.0676  -21.8520   -9.3180 C   0  0  0  0  0  0  0  0  0  0  0  0
   27.1767  -20.7840   -8.2910 C   0  0  0  0  0  0  0  0  0  0  0  0
   27.8643  -21.0957   -7.1308 C   0  0  0  0  0  0  0  0  0  0  0  0
   28.0183  -20.1789   -6.1242 C   0  0  0  0  0  0  0  0  0  0  0  0
   27.4739  -18.9389   -6.2912 C   0  0  0  0  0  0  0  0  0  0  0  0
   26.7793  -18.5928   -7.4396 C   0  0  0  0  0  0  0  0  0  0  0  0
   26.6382  -19.5380   -8.4414 C   0  0  0  0  0  0  0  0  0  0  0  0
   25.2990  -20.3392   -9.8733 C   0  0  0  0  0  0  0  0  0  0  0  0
   24.2946  -20.6059   -9.1558 O   0  0  0  0  0  0  0  0  0  0  0  0
   25.5906  -19.0208  -10.0875 O   0  0  0  0  0  0  0  0  0  0  0  0
  2  3  1  0
  2  1  1  1
  3  4  1  0
  4  5  1  0
  5  6  1  0
  6  7  1  0
  8  2  1  0
  9  8  2  0
 11 10  1  0
 12 11  1  0
 12 14  1  0
 12 13  1  1
 14 15  1  6
 15  8  1  0
 16 14  1  0
 16 17  2  0
 18 16  1  0
 19 20  1  1
 19 18  1  0
 20 21  1  0
 21 26  2  0
 21 22  1  0
 22 23  2  0
 23 24  1  0
 25 24  2  0
 26 25  1  0
 27 19  1  0
 28 27  2  0
 29 27  1  0
M  END
$$$$
