KIF.pdb
     RDKit          3D

 29 29  0  0  1  0  0  0  0  0999 V2000
   28.3306  -22.2247  -15.6061 N   0  0  0  0  0  0  0  0  0  0  0  0
   27.7008  -20.9817  -15.2291 C   0  0  1  0  0  0  0  0  0  0  0  0
   27.2040  -20.1810  -16.3621 C   0  0  0  0  0  0  0  0  0  0  0  0
   28.1016  -19.7331  -17.4223 C   0  0  0  0  0  0  0  0  0  0  0  0
   27.6711  -18.8744  -18.5260 C   0  0  0  0  0  0  0  0  0  0  0  0
   28.6423  -18.4148  -19.5454 C   0  0  0  0  0  0  0  0  0  0  0  0
   27.8703  -17.5167  -20.4587 N   0  0  0  0  0  0  0  0  0  0  0  0
   26.5180  -21.3775  -14.3735 C   0  0  0  0  0  0  0  0  0  0  0  0
   26.0482  -22.5263  -14.5618 O   0  0  0  0  0  0  0  0  0  0  0  0
   27.0173  -20.9779   -9.2370 C   0  0  0  0  0  0  0  0  0  0  0  0
   26.5328  -21.3728  -10.5763 C   0  0  0  0  0  0  0  0  0  0  0  0
   25.3257  -20.7747  -11.1306 C   0  0  2  0  0  0  0  0  0  0  0  0
   24.1657  -20.9815  -10.1342 C   0  0  0  0  0  0  0  0  0  0  0  0
   24.8886  -21.1038  -12.5130 C   0  0  2  0  0  0  0  0  0  0  0  0
   25.9554  -20.5437  -13.4223 N   0  0  0  0  0  0  0  0  0  0  0  0
   23.6222  -20.4867  -12.9071 C   0  0  0  0  0  0  0  0  0  0  0  0
   23.4969  -19.1982  -12.8379 O   0  0  0  0  0  0  0  0  0  0  0  0
   22.4565  -21.1453  -13.3951 N   0  0  0  0  0  0  0  0  0  0  0  0
   21.2458  -20.3882  -13.6886 C   0  0  1  0  0  0  0  0  0  0  0  0
   20.8261  -20.6697  -15.1463 C   0  0  0  0  0  0  0  0  0  0  0  0
   21.8805  -20.1942  -16.0786 C   0  0  0  0  0  0  0  0  0  0  0  0
   21.7018  -18.9433  -16.6439 C   0  0  0  0  0  0  0  0  0  0  0  0
   22.6178  -18.4171  -17.5166 C   0  0  0  0  0  0  0  0  0  0  0  0
   23.7216  -19.1596  -17.8199 C   0  0  0  0  0  0  0  0  0  0  0  0
   23.9324  -20.4154  -17.2724 C   0  0  0  0  0  0  0  0  0  0  0  0
   22.9912  -20.9238  -16.3933 C   0  0  0  0  0  0  0  0  0  0  0  0
   20.1388  -20.8041  -12.8583 C   0  0  0  0  0  0  0  0  0  0  0  0
   20.2737  -21.8067  -12.1024 O   0  0  0  0  0  0  0  0  0  0  0  0
   18.9333  -20.1595  -12.8442 O   0  0  0  0  0  0  0  0  0  0  0  0
  2  3  1  0
  2  1  1  6
  3  4  1  0
  4  5  1  0
  5  6  1  0
  6  7  1  0
  8  2  1  0
  9  8  2  0
 11 10  1  0
 12 11  1  0
 12 14  1  0
 12 13  1  1
 14 15  1  6
 15  8  1  0
 16 14  1  0
 16 17  2  0
 18 16  1  0
 19 20  1  6
 19 18  1  0
 20 21  1  0
 21 26  2  0
 21 22  1  0
 22 23  2  0
 23 24  1  0
 25 24  2  0
 26 25  1  0
 27 19  1  0
 28 27  2  0
 29 27  1  0
M  END
$$$$
