KIF.pdb
     RDKit          3D

 29 29  0  0  1  0  0  0  0  0999 V2000
   27.8781  -21.8780  -15.6618 N   0  0  0  0  0  0  0  0  0  0  0  0
   27.5066  -20.6909  -14.9291 C   0  0  1  0  0  0  0  0  0  0  0  0
   26.8007  -19.6752  -15.7301 C   0  0  0  0  0  0  0  0  0  0  0  0
   27.4329  -19.0533  -16.8895 C   0  0  0  0  0  0  0  0  0  0  0  0
   28.8476  -18.6817  -16.9266 C   0  0  0  0  0  0  0  0  0  0  0  0
   29.4403  -18.0960  -18.1509 C   0  0  0  0  0  0  0  0  0  0  0  0
   30.8850  -17.8772  -17.8319 N   0  0  0  0  0  0  0  0  0  0  0  0
   26.5719  -21.1702  -13.8409 C   0  0  0  0  0  0  0  0  0  0  0  0
   25.8179  -22.1309  -14.1313 O   0  0  0  0  0  0  0  0  0  0  0  0
   27.7282  -20.2101   -8.5655 C   0  0  0  0  0  0  0  0  0  0  0  0
   27.1346  -20.9883   -9.6730 C   0  0  0  0  0  0  0  0  0  0  0  0
   25.8782  -20.5691  -10.2793 C   0  0  2  0  0  0  0  0  0  0  0  0
   24.7420  -20.7633   -9.2534 C   0  0  0  0  0  0  0  0  0  0  0  0
   25.4724  -21.0932  -11.6101 C   0  0  2  0  0  0  0  0  0  0  0  0
   26.5219  -20.6041  -12.5785 N   0  0  0  0  0  0  0  0  0  0  0  0
   24.1830  -20.5930  -12.0866 C   0  0  0  0  0  0  0  0  0  0  0  0
   24.1133  -19.4005  -12.5905 O   0  0  0  0  0  0  0  0  0  0  0  0
   22.9358  -21.2822  -12.0840 N   0  0  0  0  0  0  0  0  0  0  0  0
   21.7406  -20.6537  -12.6334 C   0  0  1  0  0  0  0  0  0  0  0  0
   21.6659  -20.9649  -14.1427 C   0  0  0  0  0  0  0  0  0  0  0  0
   20.4164  -20.4011  -14.7156 C   0  0  0  0  0  0  0  0  0  0  0  0
   19.3512  -21.2702  -14.8773 C   0  0  0  0  0  0  0  0  0  0  0  0
   18.1569  -20.8463  -15.3981 C   0  0  0  0  0  0  0  0  0  0  0  0
   18.0382  -19.5354  -15.7580 C   0  0  0  0  0  0  0  0  0  0  0  0
   19.0839  -18.6379  -15.6099 C   0  0  0  0  0  0  0  0  0  0  0  0
   20.2802  -19.0923  -15.0810 C   0  0  0  0  0  0  0  0  0  0  0  0
   20.5344  -21.1905  -12.0465 C   0  0  0  0  0  0  0  0  0  0  0  0
   20.4485  -22.4323  -11.8335 O   0  0  0  0  0  0  0  0  0  0  0  0
   19.4633  -20.4144  -11.7009 O   0  0  0  0  0  0  0  0  0  0  0  0
  2  3  1  0
  2  1  1  6
  3  4  1  0
  4  5  1  0
  5  6  1  0
  6  7  1  0
  8  2  1  0
  9  8  2  0
 11 10  1  0
 12 11  1  0
 12 14  1  0
 12 13  1  1
 14 15  1  6
 15  8  1  0
 16 14  1  0
 16 17  2  0
 18 16  1  0
 19 20  1  6
 19 18  1  0
 20 21  1  0
 21 26  2  0
 21 22  1  0
 22 23  2  0
 23 24  1  0
 25 24  2  0
 26 25  1  0
 27 19  1  0
 28 27  2  0
 29 27  1  0
M  END
$$$$
