KIF.pdb
     RDKit          3D

 29 29  0  0  1  0  0  0  0  0999 V2000
   28.1879  -21.7495  -15.5164 N   0  0  0  0  0  0  0  0  0  0  0  0
   27.3437  -20.6152  -15.2256 C   0  0  1  0  0  0  0  0  0  0  0  0
   26.7317  -19.9900  -16.4113 C   0  0  0  0  0  0  0  0  0  0  0  0
   27.5524  -19.3801  -17.4529 C   0  0  0  0  0  0  0  0  0  0  0  0
   28.5714  -18.3667  -17.1784 C   0  0  0  0  0  0  0  0  0  0  0  0
   29.8090  -18.3043  -17.9896 C   0  0  0  0  0  0  0  0  0  0  0  0
   29.3652  -17.9422  -19.3712 N   0  0  0  0  0  0  0  0  0  0  0  0
   26.2357  -21.1569  -14.3501 C   0  0  0  0  0  0  0  0  0  0  0  0
   25.9155  -22.3575  -14.5282 O   0  0  0  0  0  0  0  0  0  0  0  0
   26.8147  -20.6711   -9.2691 C   0  0  0  0  0  0  0  0  0  0  0  0
   26.3476  -21.1205  -10.5974 C   0  0  0  0  0  0  0  0  0  0  0  0
   25.0353  -20.7255  -11.0911 C   0  0  2  0  0  0  0  0  0  0  0  0
   23.9673  -21.1581  -10.0646 C   0  0  0  0  0  0  0  0  0  0  0  0
   24.6087  -21.0868  -12.4687 C   0  0  2  0  0  0  0  0  0  0  0  0
   25.5852  -20.3988  -13.3916 N   0  0  0  0  0  0  0  0  0  0  0  0
   23.2723  -20.6137  -12.8289 C   0  0  0  0  0  0  0  0  0  0  0  0
   23.0185  -19.3429  -12.7904 O   0  0  0  0  0  0  0  0  0  0  0  0
   22.1628  -21.4018  -13.2515 N   0  0  0  0  0  0  0  0  0  0  0  0
   20.8721  -20.7801  -13.5212 C   0  0  1  0  0  0  0  0  0  0  0  0
   20.4854  -21.0568  -14.9889 C   0  0  0  0  0  0  0  0  0  0  0  0
   21.3132  -20.2223  -15.8975 C   0  0  0  0  0  0  0  0  0  0  0  0
   22.4895  -20.7812  -16.3665 C   0  0  0  0  0  0  0  0  0  0  0  0
   23.3216  -20.0911  -17.2085 C   0  0  0  0  0  0  0  0  0  0  0  0
   22.9626  -18.8279  -17.5790 C   0  0  0  0  0  0  0  0  0  0  0  0
   21.7922  -18.2375  -17.1285 C   0  0  0  0  0  0  0  0  0  0  0  0
   20.9693  -18.9567  -16.2785 C   0  0  0  0  0  0  0  0  0  0  0  0
   19.8221  -21.3502  -12.7088 C   0  0  0  0  0  0  0  0  0  0  0  0
   20.0674  -22.3700  -12.0053 O   0  0  0  0  0  0  0  0  0  0  0  0
   18.5562  -20.8364  -12.6570 O   0  0  0  0  0  0  0  0  0  0  0  0
  2  3  1  0
  2  1  1  6
  3  4  1  0
  4  5  1  0
  5  6  1  0
  6  7  1  0
  8  2  1  0
  9  8  2  0
 11 10  1  0
 12 11  1  0
 12 14  1  0
 12 13  1  1
 14 15  1  6
 15  8  1  0
 16 14  1  0
 16 17  2  0
 18 16  1  0
 19 20  1  6
 19 18  1  0
 20 21  1  0
 21 26  2  0
 21 22  1  0
 22 23  2  0
 23 24  1  0
 25 24  2  0
 26 25  1  0
 27 19  1  0
 28 27  2  0
 29 27  1  0
M  END
$$$$
