QKN.pdb
     RDKit          3D

 27 26  0  0  1  0  0  0  0  0999 V2000
    7.3134  -17.9541   15.2535 N   0  0  0  0  0  0  0  0  0  0  0  0
    6.7282  -18.4212   14.0466 C   0  0  0  0  0  0  0  0  0  0  0  0
    7.4086  -18.5976   13.0038 O   0  0  0  0  0  0  0  0  0  0  0  0
    5.2532  -18.6966   14.0721 C   0  0  0  0  0  0  0  0  0  0  0  0
    4.7090  -18.3580   15.4401 C   0  0  0  0  0  0  0  0  0  0  0  0
    5.1069  -19.3867   16.4695 C   0  0  2  0  0  0  0  0  0  0  0  0
    4.7212  -20.6884   15.9971 N   0  0  0  0  0  0  0  0  0  0  0  0
    4.5975  -19.0603   17.8033 C   0  0  0  0  0  0  0  0  0  0  0  0
    4.9278  -17.9742   18.3272 O   0  0  0  0  0  0  0  0  0  0  0  0
    3.7261  -19.9115   18.5756 N   0  0  0  0  0  0  0  0  0  0  0  0
    3.3820  -19.6049   19.9309 C   0  0  1  0  0  0  0  0  0  0  0  0
    2.2938  -20.4365   20.4676 C   0  0  0  0  0  0  0  0  0  0  0  0
    1.6416  -20.1656   21.7435 C   0  0  0  0  0  0  0  0  0  0  0  0
    0.5612  -21.0557   22.2367 C   0  0  0  0  0  0  0  0  0  0  0  0
    0.0637  -20.5743   23.6260 C   0  0  0  0  0  0  0  0  0  0  0  0
   -0.9072  -21.5063   24.1520 N   0  0  0  0  0  0  0  0  0  0  0  0
    4.5851  -19.5434   20.8073 C   0  0  0  0  0  0  0  0  0  0  0  0
    5.6111  -19.0127   20.3305 O   0  0  0  0  0  0  0  0  0  0  0  0
    7.5458  -19.1828   24.9009 N   0  0  0  0  0  0  0  0  0  0  0  0
    6.8780  -18.0627   24.3197 C   0  0  0  0  0  0  0  0  0  0  0  0
    7.2860  -16.9186   24.6563 O   0  0  0  0  0  0  0  0  0  0  0  0
    5.7691  -18.2923   23.3761 C   0  0  0  0  0  0  0  0  0  0  0  0
    5.5515  -19.7360   23.1611 C   0  0  2  0  0  0  0  0  0  0  0  0
    4.6133  -20.0472   22.1213 N   0  0  0  0  0  0  0  0  0  0  0  0
    5.3157  -20.4731   24.4345 C   0  0  0  0  0  0  0  0  0  0  0  0
    6.0184  -20.3355   25.4654 O   0  0  0  0  0  0  0  0  0  0  0  0
    4.2614  -21.3931   24.5688 O   0  0  0  0  0  0  0  0  0  0  0  0
  1  2  1  0
  2  3  2  0
  4  5  1  0
  4  2  1  0
  5  6  1  0
  6  8  1  0
  6  7  1  6
  8  9  2  0
 10 11  1  0
 10  8  1  0
 11 12  1  1
 13 14  1  0
 13 12  1  0
 14 15  1  0
 16 15  1  0
 17 24  1  0
 17 11  1  0
 18 17  2  0
 19 20  1  0
 20 21  2  0
 20 22  1  0
 23 22  1  1
 23 24  1  0
 25 27  1  0
 25 23  1  0
 26 25  2  0
M  END
$$$$
