QKN.pdb
     RDKit          3D

 27 26  0  0  1  0  0  0  0  0999 V2000
   11.4985  -19.8768   19.9336 N   0  0  0  0  0  0  0  0  0  0  0  0
   10.6593  -19.0363   19.1548 C   0  0  0  0  0  0  0  0  0  0  0  0
   11.0715  -18.4723   18.1090 O   0  0  0  0  0  0  0  0  0  0  0  0
    9.2509  -18.8506   19.6385 C   0  0  0  0  0  0  0  0  0  0  0  0
    9.2729  -18.1193   20.9602 C   0  0  0  0  0  0  0  0  0  0  0  0
    8.8322  -16.6841   20.8115 C   0  0  2  0  0  0  0  0  0  0  0  0
    9.4789  -16.1176   19.6595 N   0  0  0  0  0  0  0  0  0  0  0  0
    9.0256  -15.9156   22.0432 C   0  0  0  0  0  0  0  0  0  0  0  0
   10.1443  -15.9398   22.6011 O   0  0  0  0  0  0  0  0  0  0  0  0
    8.0053  -15.1164   22.6760 N   0  0  0  0  0  0  0  0  0  0  0  0
    8.2082  -14.5148   23.9590 C   0  0  1  0  0  0  0  0  0  0  0  0
    7.1779  -13.5289   24.3197 C   0  0  0  0  0  0  0  0  0  0  0  0
    7.1536  -12.8383   25.6040 C   0  0  0  0  0  0  0  0  0  0  0  0
    6.0451  -11.9080   25.9336 C   0  0  0  0  0  0  0  0  0  0  0  0
    6.2747  -11.2765   27.3328 C   0  0  0  0  0  0  0  0  0  0  0  0
    5.2575  -10.2854   27.5994 N   0  0  0  0  0  0  0  0  0  0  0  0
    8.4658  -15.5345   25.0141 C   0  0  0  0  0  0  0  0  0  0  0  0
    7.7827  -16.5801   24.9751 O   0  0  0  0  0  0  0  0  0  0  0  0
   10.0062  -19.9625   27.5063 N   0  0  0  0  0  0  0  0  0  0  0  0
    9.7345  -18.6078   27.8664 C   0  0  0  0  0  0  0  0  0  0  0  0
    9.9425  -18.2846   29.0667 O   0  0  0  0  0  0  0  0  0  0  0  0
    9.2352  -17.6739   26.8411 C   0  0  0  0  0  0  0  0  0  0  0  0
    9.8854  -16.3551   26.9692 C   0  0  2  0  0  0  0  0  0  0  0  0
    9.4258  -15.3722   26.0307 N   0  0  0  0  0  0  0  0  0  0  0  0
   11.3689  -16.4578   27.0658 C   0  0  0  0  0  0  0  0  0  0  0  0
   12.0206  -16.2388   28.1159 O   0  0  0  0  0  0  0  0  0  0  0  0
   12.1560  -16.8187   25.9585 O   0  0  0  0  0  0  0  0  0  0  0  0
  1  2  1  0
  2  3  2  0
  4  5  1  0
  4  2  1  0
  5  6  1  0
  6  8  1  0
  6  7  1  6
  8  9  2  0
 10 11  1  0
 10  8  1  0
 11 12  1  1
 13 14  1  0
 13 12  1  0
 14 15  1  0
 16 15  1  0
 17 24  1  0
 17 11  1  0
 18 17  2  0
 19 20  1  0
 20 21  2  0
 20 22  1  0
 23 22  1  6
 23 24  1  0
 25 27  1  0
 25 23  1  0
 26 25  2  0
M  END
$$$$
