QKN.pdb
     RDKit          3D

 27 26  0  0  1  0  0  0  0  0999 V2000
    8.6508  -13.1886   12.7961 N   0  0  0  0  0  0  0  0  0  0  0  0
    8.0539  -14.4770   12.7660 C   0  0  0  0  0  0  0  0  0  0  0  0
    8.3246  -15.3131   11.8663 O   0  0  0  0  0  0  0  0  0  0  0  0
    7.0804  -14.7976   13.8622 C   0  0  0  0  0  0  0  0  0  0  0  0
    7.8444  -15.1230   15.1243 C   0  0  0  0  0  0  0  0  0  0  0  0
    8.3091  -16.5583   15.1413 C   0  0  2  0  0  0  0  0  0  0  0  0
    7.6995  -17.2559   14.0421 N   0  0  0  0  0  0  0  0  0  0  0  0
    8.0959  -17.1934   16.4436 C   0  0  0  0  0  0  0  0  0  0  0  0
    8.3685  -16.5510   17.4811 O   0  0  0  0  0  0  0  0  0  0  0  0
    7.5850  -18.5297   16.6268 N   0  0  0  0  0  0  0  0  0  0  0  0
    7.3354  -19.0680   17.9295 C   0  0  1  0  0  0  0  0  0  0  0  0
    6.1313  -19.9099   18.0009 C   0  0  0  0  0  0  0  0  0  0  0  0
    5.7602  -20.6671   19.1908 C   0  0  0  0  0  0  0  0  0  0  0  0
    4.5871  -21.5759   19.1650 C   0  0  0  0  0  0  0  0  0  0  0  0
    4.3528  -22.1874   20.5723 C   0  0  0  0  0  0  0  0  0  0  0  0
    3.3899  -23.2616   20.4891 N   0  0  0  0  0  0  0  0  0  0  0  0
    8.5524  -19.7022   18.5092 C   0  0  0  0  0  0  0  0  0  0  0  0
    9.2915  -20.3376   17.7271 O   0  0  0  0  0  0  0  0  0  0  0  0
   11.2702  -22.0667   22.7188 N   0  0  0  0  0  0  0  0  0  0  0  0
   11.3164  -22.0774   21.2918 C   0  0  0  0  0  0  0  0  0  0  0  0
   12.3828  -22.4871   20.7593 O   0  0  0  0  0  0  0  0  0  0  0  0
   10.1425  -21.6191   20.5273 C   0  0  0  0  0  0  0  0  0  0  0  0
   10.0639  -20.1454   20.5167 C   0  0  2  0  0  0  0  0  0  0  0  0
    8.8965  -19.6171   19.8714 N   0  0  0  0  0  0  0  0  0  0  0  0
   11.3397  -19.5095   20.0828 C   0  0  0  0  0  0  0  0  0  0  0  0
   12.1616  -18.9778   20.8685 O   0  0  0  0  0  0  0  0  0  0  0  0
   11.7175  -19.4645   18.7295 O   0  0  0  0  0  0  0  0  0  0  0  0
  1  2  1  0
  2  3  2  0
  4  5  1  0
  4  2  1  0
  5  6  1  0
  6  8  1  0
  6  7  1  6
  8  9  2  0
 10 11  1  0
 10  8  1  0
 11 12  1  6
 13 14  1  0
 13 12  1  0
 14 15  1  0
 16 15  1  0
 17 24  1  0
 17 11  1  0
 18 17  2  0
 19 20  1  0
 20 21  2  0
 20 22  1  0
 23 22  1  6
 23 24  1  0
 25 27  1  0
 25 23  1  0
 26 25  2  0
M  END
$$$$
