QKN.pdb
     RDKit          3D

 27 26  0  0  1  0  0  0  0  0999 V2000
   12.3003  -14.5247   19.4455 N   0  0  0  0  0  0  0  0  0  0  0  0
   12.1952  -14.3146   18.0448 C   0  0  0  0  0  0  0  0  0  0  0  0
   13.1323  -14.6050   17.2579 O   0  0  0  0  0  0  0  0  0  0  0  0
   10.9085  -13.7275   17.5432 C   0  0  0  0  0  0  0  0  0  0  0  0
    9.8017  -14.7419   17.7114 C   0  0  0  0  0  0  0  0  0  0  0  0
    8.7290  -14.2474   18.6500 C   0  0  2  0  0  0  0  0  0  0  0  0
    8.6383  -12.8171   18.5379 N   0  0  0  0  0  0  0  0  0  0  0  0
    8.9277  -14.7277   20.0192 C   0  0  0  0  0  0  0  0  0  0  0  0
    9.6533  -14.0654   20.7926 O   0  0  0  0  0  0  0  0  0  0  0  0
    8.3393  -15.9299   20.5564 N   0  0  0  0  0  0  0  0  0  0  0  0
    8.5970  -16.3598   21.8973 C   0  0  1  0  0  0  0  0  0  0  0  0
    7.6887  -17.4185   22.3640 C   0  0  0  0  0  0  0  0  0  0  0  0
    7.6687  -18.7590   21.7899 C   0  0  0  0  0  0  0  0  0  0  0  0
    6.6504  -19.7463   22.2270 C   0  0  0  0  0  0  0  0  0  0  0  0
    6.8069  -21.0667   21.4261 C   0  0  0  0  0  0  0  0  0  0  0  0
    5.8102  -22.0224   21.8516 N   0  0  0  0  0  0  0  0  0  0  0  0
   10.0396  -16.6611   22.1146 C   0  0  0  0  0  0  0  0  0  0  0  0
   10.6890  -17.0790   21.1321 O   0  0  0  0  0  0  0  0  0  0  0  0
   15.2626  -16.2077   23.1704 N   0  0  0  0  0  0  0  0  0  0  0  0
   14.2981  -16.1119   24.2187 C   0  0  0  0  0  0  0  0  0  0  0  0
   14.6862  -16.4133   25.3793 O   0  0  0  0  0  0  0  0  0  0  0  0
   12.9265  -15.6753   23.9011 C   0  0  0  0  0  0  0  0  0  0  0  0
   12.0407  -16.8365   23.6882 C   0  0  2  0  0  0  0  0  0  0  0  0
   10.6873  -16.4981   23.3537 N   0  0  0  0  0  0  0  0  0  0  0  0
   12.1643  -17.8539   24.7699 C   0  0  0  0  0  0  0  0  0  0  0  0
   12.8863  -18.8776   24.6914 O   0  0  0  0  0  0  0  0  0  0  0  0
   11.4638  -17.7290   25.9823 O   0  0  0  0  0  0  0  0  0  0  0  0
  1  2  1  0
  2  3  2  0
  4  5  1  0
  4  2  1  0
  5  6  1  0
  6  8  1  0
  6  7  1  1
  8  9  2  0
 10 11  1  0
 10  8  1  0
 11 12  1  6
 13 14  1  0
 13 12  1  0
 14 15  1  0
 16 15  1  0
 17 24  1  0
 17 11  1  0
 18 17  2  0
 19 20  1  0
 20 21  2  0
 20 22  1  0
 23 22  1  1
 23 24  1  0
 25 27  1  0
 25 23  1  0
 26 25  2  0
M  END
$$$$
