QKN.pdb
     RDKit          3D

 27 26  0  0  1  0  0  0  0  0999 V2000
   16.0762  -20.6349   15.1077 N   0  0  0  0  0  0  0  0  0  0  0  0
   15.8483  -20.9198   13.7351 C   0  0  0  0  0  0  0  0  0  0  0  0
   16.7809  -21.2643   12.9649 O   0  0  0  0  0  0  0  0  0  0  0  0
   14.4367  -20.7906   13.2425 C   0  0  0  0  0  0  0  0  0  0  0  0
   13.5378  -20.4307   14.4020 C   0  0  0  0  0  0  0  0  0  0  0  0
   12.1006  -20.2797   13.9685 C   0  0  2  0  0  0  0  0  0  0  0  0
   12.0181  -19.2234   12.9969 N   0  0  0  0  0  0  0  0  0  0  0  0
   11.1937  -20.1162   15.1068 C   0  0  0  0  0  0  0  0  0  0  0  0
   10.9014  -18.9610   15.4856 O   0  0  0  0  0  0  0  0  0  0  0  0
   10.5987  -21.2064   15.8401 N   0  0  0  0  0  0  0  0  0  0  0  0
    9.7297  -20.9782   16.9545 C   0  0  1  0  0  0  0  0  0  0  0  0
    8.4969  -21.7799   16.9173 C   0  0  0  0  0  0  0  0  0  0  0  0
    7.4912  -21.7409   17.9726 C   0  0  0  0  0  0  0  0  0  0  0  0
    6.2841  -22.6004   17.8894 C   0  0  0  0  0  0  0  0  0  0  0  0
    5.3916  -22.3924   19.1423 C   0  0  0  0  0  0  0  0  0  0  0  0
    4.1756  -23.1624   19.0147 N   0  0  0  0  0  0  0  0  0  0  0  0
   10.4604  -21.0519   18.2507 C   0  0  0  0  0  0  0  0  0  0  0  0
   11.2372  -22.0171   18.4130 O   0  0  0  0  0  0  0  0  0  0  0  0
   12.4877  -19.9410   22.7849 N   0  0  0  0  0  0  0  0  0  0  0  0
   11.6770  -18.8028   22.4925 C   0  0  0  0  0  0  0  0  0  0  0  0
   11.7692  -17.8208   23.2772 O   0  0  0  0  0  0  0  0  0  0  0  0
   10.7913  -18.8298   21.3146 C   0  0  0  0  0  0  0  0  0  0  0  0
   10.9570  -20.0875   20.5603 C   0  0  2  0  0  0  0  0  0  0  0  0
   10.3150  -20.1000   19.2773 N   0  0  0  0  0  0  0  0  0  0  0  0
   10.6787  -21.2921   21.3921 C   0  0  0  0  0  0  0  0  0  0  0  0
   11.3817  -21.6479   22.3692 O   0  0  0  0  0  0  0  0  0  0  0  0
    9.5801  -22.1295   21.1315 O   0  0  0  0  0  0  0  0  0  0  0  0
  1  2  1  0
  2  3  2  0
  4  5  1  0
  4  2  1  0
  5  6  1  0
  6  8  1  0
  6  7  1  6
  8  9  2  0
 10 11  1  0
 10  8  1  0
 11 12  1  1
 13 14  1  0
 13 12  1  0
 14 15  1  0
 16 15  1  0
 17 24  1  0
 17 11  1  0
 18 17  2  0
 19 20  1  0
 20 21  2  0
 20 22  1  0
 23 22  1  1
 23 24  1  0
 25 27  1  0
 25 23  1  0
 26 25  2  0
M  END
$$$$
