QKN.pdb
     RDKit          3D

 27 26  0  0  1  0  0  0  0  0999 V2000
   17.2183  -13.1846   15.5013 N   0  0  0  0  0  0  0  0  0  0  0  0
   16.9901  -13.9049   16.7039 C   0  0  0  0  0  0  0  0  0  0  0  0
   17.7723  -13.8230   17.6853 O   0  0  0  0  0  0  0  0  0  0  0  0
   15.7668  -14.7728   16.7512 C   0  0  0  0  0  0  0  0  0  0  0  0
   14.7280  -14.1182   17.6314 C   0  0  0  0  0  0  0  0  0  0  0  0
   13.8233  -15.1369   18.2795 C   0  0  2  0  0  0  0  0  0  0  0  0
   13.1515  -15.8818   17.2498 N   0  0  0  0  0  0  0  0  0  0  0  0
   12.9225  -14.5308   19.2624 C   0  0  0  0  0  0  0  0  0  0  0  0
   13.3823  -13.6901   20.0657 O   0  0  0  0  0  0  0  0  0  0  0  0
   11.5172  -14.8339   19.3785 N   0  0  0  0  0  0  0  0  0  0  0  0
   10.6893  -14.2012   20.3601 C   0  0  1  0  0  0  0  0  0  0  0  0
    9.3947  -13.7414   19.8345 C   0  0  0  0  0  0  0  0  0  0  0  0
    9.0877  -13.6914   18.4097 C   0  0  0  0  0  0  0  0  0  0  0  0
    7.8513  -14.3244   17.8869 C   0  0  0  0  0  0  0  0  0  0  0  0
    7.7387  -14.0945   16.3559 C   0  0  0  0  0  0  0  0  0  0  0  0
    6.3992  -13.6704   16.0183 N   0  0  0  0  0  0  0  0  0  0  0  0
   10.5831  -15.0155   21.6030 C   0  0  0  0  0  0  0  0  0  0  0  0
    9.6084  -14.7887   22.3515 O   0  0  0  0  0  0  0  0  0  0  0  0
   11.3632  -18.4286   25.3134 N   0  0  0  0  0  0  0  0  0  0  0  0
   10.1852  -18.3918   24.5076 C   0  0  0  0  0  0  0  0  0  0  0  0
    9.2146  -19.1021   24.8845 O   0  0  0  0  0  0  0  0  0  0  0  0
   10.1608  -17.5448   23.3015 C   0  0  0  0  0  0  0  0  0  0  0  0
   11.4668  -16.8902   23.0916 C   0  0  2  0  0  0  0  0  0  0  0  0
   11.5146  -16.0081   21.9612 N   0  0  0  0  0  0  0  0  0  0  0  0
   12.6040  -17.8504   23.1632 C   0  0  0  0  0  0  0  0  0  0  0  0
   13.3665  -18.1082   22.2001 O   0  0  0  0  0  0  0  0  0  0  0  0
   12.9067  -18.5470   24.3461 O   0  0  0  0  0  0  0  0  0  0  0  0
  1  2  1  0
  2  3  2  0
  4  5  1  0
  4  2  1  0
  5  6  1  0
  6  8  1  0
  6  7  1  6
  8  9  2  0
 10 11  1  0
 10  8  1  0
 11 12  1  6
 13 14  1  0
 13 12  1  0
 14 15  1  0
 16 15  1  0
 17 24  1  0
 17 11  1  0
 18 17  2  0
 19 20  1  0
 20 21  2  0
 20 22  1  0
 23 22  1  6
 23 24  1  0
 25 27  1  0
 25 23  1  0
 26 25  2  0
M  END
$$$$
