QKN.pdb
     RDKit          3D

 27 26  0  0  1  0  0  0  0  0999 V2000
    8.3603  -12.5116   16.3724 N   0  0  0  0  0  0  0  0  0  0  0  0
    7.3892  -13.5159   16.1163 C   0  0  0  0  0  0  0  0  0  0  0  0
    6.7754  -13.5816   15.0205 O   0  0  0  0  0  0  0  0  0  0  0  0
    7.1273  -14.5008   17.2179 C   0  0  0  0  0  0  0  0  0  0  0  0
    7.9954  -14.1583   18.4059 C   0  0  0  0  0  0  0  0  0  0  0  0
    8.3456  -15.3839   19.2132 C   0  0  2  0  0  0  0  0  0  0  0  0
    7.2642  -16.3261   19.1182 N   0  0  0  0  0  0  0  0  0  0  0  0
    8.7283  -15.0505   20.5870 C   0  0  0  0  0  0  0  0  0  0  0  0
    9.7270  -14.3223   20.7764 O   0  0  0  0  0  0  0  0  0  0  0  0
    8.0285  -15.5058   21.7631 N   0  0  0  0  0  0  0  0  0  0  0  0
    8.5070  -15.2196   23.0816 C   0  0  1  0  0  0  0  0  0  0  0  0
    7.4373  -14.9342   24.0501 C   0  0  0  0  0  0  0  0  0  0  0  0
    7.0567  -13.5810   24.4383 C   0  0  0  0  0  0  0  0  0  0  0  0
    7.1598  -13.1509   25.8551 C   0  0  0  0  0  0  0  0  0  0  0  0
    6.6770  -11.6834   26.0053 C   0  0  0  0  0  0  0  0  0  0  0  0
    6.6526  -11.3128   27.4017 N   0  0  0  0  0  0  0  0  0  0  0  0
    9.4891  -16.2382   23.5475 C   0  0  0  0  0  0  0  0  0  0  0  0
    9.0969  -17.4233   23.6059 O   0  0  0  0  0  0  0  0  0  0  0  0
   14.5567  -18.3549   24.0623 N   0  0  0  0  0  0  0  0  0  0  0  0
   14.1539  -17.2697   24.8980 C   0  0  0  0  0  0  0  0  0  0  0  0
   14.6599  -17.2203   26.0513 O   0  0  0  0  0  0  0  0  0  0  0  0
   13.1877  -16.2821   24.3844 C   0  0  0  0  0  0  0  0  0  0  0  0
   11.8139  -16.8199   24.4240 C   0  0  2  0  0  0  0  0  0  0  0  0
   10.8115  -15.9278   23.9165 N   0  0  0  0  0  0  0  0  0  0  0  0
   11.4772  -17.4274   25.7423 C   0  0  0  0  0  0  0  0  0  0  0  0
   10.9314  -16.8025   26.6841 O   0  0  0  0  0  0  0  0  0  0  0  0
   11.7537  -18.7766   26.0239 O   0  0  0  0  0  0  0  0  0  0  0  0
  1  2  1  0
  2  3  2  0
  4  5  1  0
  4  2  1  0
  5  6  1  0
  6  8  1  0
  6  7  1  1
  8  9  2  0
 10 11  1  0
 10  8  1  0
 11 12  1  1
 13 14  1  0
 13 12  1  0
 14 15  1  0
 16 15  1  0
 17 24  1  0
 17 11  1  0
 18 17  2  0
 19 20  1  0
 20 21  2  0
 20 22  1  0
 23 22  1  1
 23 24  1  0
 25 27  1  0
 25 23  1  0
 26 25  2  0
M  END
$$$$
