QKN.pdb
     RDKit          3D

 27 26  0  0  1  0  0  0  0  0999 V2000
   13.3028  -18.9481   15.4299 N   0  0  0  0  0  0  0  0  0  0  0  0
   12.2211  -19.1000   14.5221 C   0  0  0  0  0  0  0  0  0  0  0  0
   12.3361  -19.7582   13.4567 O   0  0  0  0  0  0  0  0  0  0  0  0
   10.9275  -18.4362   14.8938 C   0  0  0  0  0  0  0  0  0  0  0  0
   11.1020  -17.7104   16.2072 C   0  0  0  0  0  0  0  0  0  0  0  0
    9.9152  -17.9096   17.1172 C   0  0  2  0  0  0  0  0  0  0  0  0
    8.7156  -17.8913   16.3252 N   0  0  0  0  0  0  0  0  0  0  0  0
    9.9085  -16.9612   18.2332 C   0  0  0  0  0  0  0  0  0  0  0  0
   10.9501  -16.8166   18.9095 O   0  0  0  0  0  0  0  0  0  0  0  0
    8.7706  -16.1642   18.6209 N   0  0  0  0  0  0  0  0  0  0  0  0
    8.6633  -15.5916   19.9285 C   0  0  1  0  0  0  0  0  0  0  0  0
    7.4424  -14.7956   20.1273 C   0  0  0  0  0  0  0  0  0  0  0  0
    7.1021  -14.1658   21.3979 C   0  0  0  0  0  0  0  0  0  0  0  0
    7.8183  -12.9451   21.8447 C   0  0  0  0  0  0  0  0  0  0  0  0
    7.3380  -12.5312   23.2615 C   0  0  0  0  0  0  0  0  0  0  0  0
    8.1829  -11.4804   23.7811 N   0  0  0  0  0  0  0  0  0  0  0  0
    8.9084  -16.6006   20.9967 C   0  0  0  0  0  0  0  0  0  0  0  0
    8.7041  -17.7988   20.7068 O   0  0  0  0  0  0  0  0  0  0  0  0
   12.4526  -19.4002   23.4430 N   0  0  0  0  0  0  0  0  0  0  0  0
   12.4974  -17.9765   23.3452 C   0  0  0  0  0  0  0  0  0  0  0  0
   13.3447  -17.3824   24.0647 O   0  0  0  0  0  0  0  0  0  0  0  0
   11.5722  -17.2857   22.4290 C   0  0  0  0  0  0  0  0  0  0  0  0
   10.2973  -16.9747   23.1044 C   0  0  2  0  0  0  0  0  0  0  0  0
    9.3508  -16.2672   22.2907 N   0  0  0  0  0  0  0  0  0  0  0  0
   10.4981  -16.3841   24.4577 C   0  0  0  0  0  0  0  0  0  0  0  0
   11.2308  -16.8899   25.3424 O   0  0  0  0  0  0  0  0  0  0  0  0
    9.8654  -15.1888   24.8412 O   0  0  0  0  0  0  0  0  0  0  0  0
  1  2  1  0
  2  3  2  0
  4  5  1  0
  4  2  1  0
  5  6  1  0
  6  8  1  0
  6  7  1  6
  8  9  2  0
 10 11  1  0
 10  8  1  0
 11 12  1  1
 13 14  1  0
 13 12  1  0
 14 15  1  0
 16 15  1  0
 17 24  1  0
 17 11  1  0
 18 17  2  0
 19 20  1  0
 20 21  2  0
 20 22  1  0
 23 22  1  6
 23 24  1  0
 25 27  1  0
 25 23  1  0
 26 25  2  0
M  END
$$$$
