QKN.pdb
     RDKit          3D

 27 26  0  0  1  0  0  0  0  0999 V2000
   10.2294  -18.5624   16.2660 N   0  0  0  0  0  0  0  0  0  0  0  0
   11.0632  -18.0894   17.3139 C   0  0  0  0  0  0  0  0  0  0  0  0
   12.1346  -18.6707   17.6234 O   0  0  0  0  0  0  0  0  0  0  0  0
   10.6058  -16.8577   18.0390 C   0  0  0  0  0  0  0  0  0  0  0  0
   10.9944  -16.9663   19.4949 C   0  0  0  0  0  0  0  0  0  0  0  0
    9.7869  -17.1315   20.3842 C   0  0  2  0  0  0  0  0  0  0  0  0
    8.6110  -16.7687   19.6413 N   0  0  0  0  0  0  0  0  0  0  0  0
    9.9342  -16.4184   21.6549 C   0  0  0  0  0  0  0  0  0  0  0  0
   11.0651  -16.3540   22.1843 O   0  0  0  0  0  0  0  0  0  0  0  0
    8.8541  -15.7707   22.3580 N   0  0  0  0  0  0  0  0  0  0  0  0
    9.0334  -15.2136   23.6644 C   0  0  1  0  0  0  0  0  0  0  0  0
    7.9135  -14.3683   24.1058 C   0  0  0  0  0  0  0  0  0  0  0  0
    7.8935  -13.6841   25.3936 C   0  0  0  0  0  0  0  0  0  0  0  0
    6.7194  -12.8672   25.7899 C   0  0  0  0  0  0  0  0  0  0  0  0
    6.9269  -12.2882   27.2150 C   0  0  0  0  0  0  0  0  0  0  0  0
    5.7159  -11.6413   27.6655 N   0  0  0  0  0  0  0  0  0  0  0  0
    9.4384  -16.2482   24.6568 C   0  0  0  0  0  0  0  0  0  0  0  0
    8.7554  -17.2938   24.7011 O   0  0  0  0  0  0  0  0  0  0  0  0
   13.3428  -19.7442   26.4842 N   0  0  0  0  0  0  0  0  0  0  0  0
   13.1224  -18.4019   26.9176 C   0  0  0  0  0  0  0  0  0  0  0  0
   13.4443  -18.1262   28.1046 O   0  0  0  0  0  0  0  0  0  0  0  0
   12.5422  -17.4253   25.9783 C   0  0  0  0  0  0  0  0  0  0  0  0
   11.1487  -17.1062   26.3450 C   0  0  2  0  0  0  0  0  0  0  0  0
   10.5345  -16.1000   25.5273 N   0  0  0  0  0  0  0  0  0  0  0  0
   10.9801  -16.8873   27.8093 C   0  0  0  0  0  0  0  0  0  0  0  0
   10.9185  -15.7549   28.3470 O   0  0  0  0  0  0  0  0  0  0  0  0
   10.8737  -17.9633   28.7076 O   0  0  0  0  0  0  0  0  0  0  0  0
  1  2  1  0
  2  3  2  0
  4  5  1  0
  4  2  1  0
  5  6  1  0
  6  8  1  0
  6  7  1  6
  8  9  2  0
 10 11  1  0
 10  8  1  0
 11 12  1  1
 13 14  1  0
 13 12  1  0
 14 15  1  0
 16 15  1  0
 17 24  1  0
 17 11  1  0
 18 17  2  0
 19 20  1  0
 20 21  2  0
 20 22  1  0
 23 22  1  1
 23 24  1  0
 25 27  1  0
 25 23  1  0
 26 25  2  0
M  END
$$$$
