QKN.pdb
     RDKit          3D

 27 26  0  0  1  0  0  0  0  0999 V2000
    8.6742  -13.9164   15.5570 N   0  0  0  0  0  0  0  0  0  0  0  0
    8.4512  -15.0904   16.3246 C   0  0  0  0  0  0  0  0  0  0  0  0
    8.7799  -16.2297   15.9057 O   0  0  0  0  0  0  0  0  0  0  0  0
    7.8024  -14.9090   17.6656 C   0  0  0  0  0  0  0  0  0  0  0  0
    8.8529  -15.0275   18.7448 C   0  0  0  0  0  0  0  0  0  0  0  0
    8.4195  -15.9642   19.8453 C   0  0  2  0  0  0  0  0  0  0  0  0
    7.0575  -16.3584   19.6089 N   0  0  0  0  0  0  0  0  0  0  0  0
    8.6557  -15.4007   21.1763 C   0  0  0  0  0  0  0  0  0  0  0  0
    9.8191  -15.0728   21.4960 O   0  0  0  0  0  0  0  0  0  0  0  0
    7.6296  -15.1896   22.1677 N   0  0  0  0  0  0  0  0  0  0  0  0
    7.9473  -14.8080   23.5103 C   0  0  1  0  0  0  0  0  0  0  0  0
    6.9643  -13.8956   24.1144 C   0  0  0  0  0  0  0  0  0  0  0  0
    6.9903  -13.5186   25.5229 C   0  0  0  0  0  0  0  0  0  0  0  0
    6.9189  -12.0897   25.9176 C   0  0  0  0  0  0  0  0  0  0  0  0
    6.7317  -11.9674   27.4536 C   0  0  0  0  0  0  0  0  0  0  0  0
    6.6915  -10.5746   27.8361 N   0  0  0  0  0  0  0  0  0  0  0  0
    8.2785  -15.9877   24.3577 C   0  0  0  0  0  0  0  0  0  0  0  0
    7.4206  -16.8930   24.4347 O   0  0  0  0  0  0  0  0  0  0  0  0
   12.1516  -20.0994   25.2394 N   0  0  0  0  0  0  0  0  0  0  0  0
   10.8533  -19.5681   25.5053 C   0  0  0  0  0  0  0  0  0  0  0  0
   10.1615  -20.1626   26.3750 O   0  0  0  0  0  0  0  0  0  0  0  0
   10.3947  -18.3776   24.7671 C   0  0  0  0  0  0  0  0  0  0  0  0
   10.0117  -17.2971   25.6966 C   0  0  2  0  0  0  0  0  0  0  0  0
    9.4912  -16.1217   25.0596 N   0  0  0  0  0  0  0  0  0  0  0  0
   11.0635  -17.0222   26.7157 C   0  0  0  0  0  0  0  0  0  0  0  0
   11.1123  -17.5761   27.8409 O   0  0  0  0  0  0  0  0  0  0  0  0
   12.0988  -16.1019   26.4761 O   0  0  0  0  0  0  0  0  0  0  0  0
  1  2  1  0
  2  3  2  0
  4  5  1  0
  4  2  1  0
  5  6  1  0
  6  8  1  0
  6  7  1  6
  8  9  2  0
 10 11  1  0
 10  8  1  0
 11 12  1  1
 13 14  1  0
 13 12  1  0
 14 15  1  0
 16 15  1  0
 17 24  1  0
 17 11  1  0
 18 17  2  0
 19 20  1  0
 20 21  2  0
 20 22  1  0
 23 22  1  6
 23 24  1  0
 25 27  1  0
 25 23  1  0
 26 25  2  0
M  END
$$$$
