YFY.pdb
     RDKit          3D

 36 38  0  0  1  0  0  0  0  0999 V2000
   17.0061  -25.0368  -11.1576 O   0  0  0  0  0  0  0  0  0  0  0  0
   17.9782  -24.2208  -11.6959 C   0  0  0  0  0  0  0  0  0  0  0  0
   19.2305  -24.7340  -11.8721 C   0  0  0  0  0  0  0  0  0  0  0  0
   20.2083  -23.9275  -12.4088 C   0  0  0  0  0  0  0  0  0  0  0  0
   19.9309  -22.6290  -12.7615 C   0  0  0  0  0  0  0  0  0  0  0  0
   21.0158  -21.7728  -13.3451 C   0  0  0  0  0  0  0  0  0  0  0  0
   21.9070  -21.3465  -12.2083 C   0  0  2  0  0  0  0  0  0  0  0  0
   21.1819  -20.5017  -11.2891 N   0  0  0  0  0  0  0  0  0  0  0  0
   23.1828  -20.7337  -12.6445 C   0  0  0  0  0  0  0  0  0  0  0  0
   23.1459  -19.5159  -13.0113 O   0  0  0  0  0  0  0  0  0  0  0  0
   18.6700  -22.1226  -12.5806 C   0  0  0  0  0  0  0  0  0  0  0  0
   17.6884  -22.9252  -12.0441 C   0  0  0  0  0  0  0  0  0  0  0  0
   24.4230  -21.4214  -12.6727 N   0  0  0  0  0  0  0  0  0  0  0  0
   25.6523  -20.8506  -13.1180 C   0  0  1  0  0  0  0  0  0  0  0  0
   26.7462  -21.1487  -12.1206 C   0  0  0  0  0  0  0  0  0  0  0  0
   26.4493  -20.7249  -10.7591 C   0  0  0  0  0  0  0  0  0  0  0  0
   25.9931  -21.5733   -9.7655 C   0  0  0  0  0  0  0  0  0  0  0  0
   25.7187  -21.1573   -8.4886 C   0  0  0  0  0  0  0  0  0  0  0  0
   25.8948  -19.8416   -8.1475 C   0  0  0  0  0  0  0  0  0  0  0  0
   26.3459  -18.9647   -9.1024 C   0  0  0  0  0  0  0  0  0  0  0  0
   26.6213  -19.4068  -10.4018 C   0  0  0  0  0  0  0  0  0  0  0  0
   26.0265  -21.1271  -14.5064 C   0  0  0  0  0  0  0  0  0  0  0  0
   26.1876  -22.2859  -14.9879 O   0  0  0  0  0  0  0  0  0  0  0  0
   23.1611  -14.8489  -16.6943 O   0  0  0  0  0  0  0  0  0  0  0  0
   23.7160  -16.1001  -16.9622 C   0  0  0  0  0  0  0  0  0  0  0  0
   24.6806  -16.2872  -17.9220 C   0  0  0  0  0  0  0  0  0  0  0  0
   25.1930  -17.5472  -18.1434 C   0  0  0  0  0  0  0  0  0  0  0  0
   24.7848  -18.6739  -17.4380 C   0  0  0  0  0  0  0  0  0  0  0  0
   25.3433  -20.0135  -17.7022 C   0  0  0  0  0  0  0  0  0  0  0  0
   26.5633  -20.3284  -16.8473 C   0  0  2  0  0  0  0  0  0  0  0  0
   26.2376  -20.0733  -15.4341 N   0  0  0  0  0  0  0  0  0  0  0  0
   27.6322  -19.3876  -17.2145 C   0  0  0  0  0  0  0  0  0  0  0  0
   28.1106  -18.3638  -16.4102 O   0  0  0  0  0  0  0  0  0  0  0  0
   23.8097  -18.4501  -16.4761 C   0  0  0  0  0  0  0  0  0  0  0  0
   23.2892  -17.1959  -16.2446 C   0  0  0  0  0  0  0  0  0  0  0  0
   28.1713  -19.4989  -18.3429 O   0  0  0  0  0  0  0  0  0  0  0  0
  2  1  1  0
  3  2  2  0
  4  3  1  0
  5 11  1  0
  5  4  2  0
  6  5  1  0
  7  6  1  0
  7  8  1  1
  9  7  1  0
 10  9  2  0
 11 12  2  0
 12  2  1  0
 13  9  1  0
 14 13  1  0
 14 15  1  1
 16 15  1  0
 16 17  2  0
 18 17  1  0
 19 18  2  0
 20 21  2  0
 20 19  1  0
 21 16  1  0
 22 14  1  0
 23 22  2  0
 25 24  1  0
 25 26  2  0
 27 26  1  0
 28 27  2  0
 29 28  1  0
 30 29  1  6
 30 31  1  0
 31 22  1  0
 32 30  1  0
 32 33  1  0
 34 35  2  0
 34 28  1  0
 35 25  1  0
 36 32  2  0
M  END
$$$$
