YFY.pdb
     RDKit          3D

 36 38  0  0  1  0  0  0  0  0999 V2000
   31.4588  -15.7633  -19.9417 O   0  0  0  0  0  0  0  0  0  0  0  0
   30.4429  -16.4011  -19.2621 C   0  0  0  0  0  0  0  0  0  0  0  0
   30.6140  -16.6577  -17.9326 C   0  0  0  0  0  0  0  0  0  0  0  0
   29.6057  -17.2940  -17.2448 C   0  0  0  0  0  0  0  0  0  0  0  0
   28.4472  -17.6650  -17.8831 C   0  0  0  0  0  0  0  0  0  0  0  0
   27.3643  -18.3566  -17.1085 C   0  0  0  0  0  0  0  0  0  0  0  0
   27.8722  -19.7319  -16.7635 C   0  0  2  0  0  0  0  0  0  0  0  0
   28.0461  -20.5198  -17.9606 N   0  0  0  0  0  0  0  0  0  0  0  0
   27.0573  -20.4334  -15.7450 C   0  0  0  0  0  0  0  0  0  0  0  0
   25.9700  -20.9651  -16.1375 O   0  0  0  0  0  0  0  0  0  0  0  0
   28.2847  -17.4029  -19.2188 C   0  0  0  0  0  0  0  0  0  0  0  0
   29.2903  -16.7667  -19.9112 C   0  0  0  0  0  0  0  0  0  0  0  0
   27.4202  -20.5429  -14.3782 N   0  0  0  0  0  0  0  0  0  0  0  0
   26.4985  -20.7762  -13.3147 C   0  0  1  0  0  0  0  0  0  0  0  0
   27.1806  -20.5486  -11.9868 C   0  0  0  0  0  0  0  0  0  0  0  0
   26.2864  -20.5886  -10.8377 C   0  0  0  0  0  0  0  0  0  0  0  0
   26.0002  -19.4946  -10.0401 C   0  0  0  0  0  0  0  0  0  0  0  0
   25.1557  -19.5500   -8.9619 C   0  0  0  0  0  0  0  0  0  0  0  0
   24.5489  -20.7337   -8.6314 C   0  0  0  0  0  0  0  0  0  0  0  0
   24.8045  -21.8449   -9.3958 C   0  0  0  0  0  0  0  0  0  0  0  0
   25.6698  -21.7702  -10.4936 C   0  0  0  0  0  0  0  0  0  0  0  0
   25.1972  -20.1151  -13.4321 C   0  0  0  0  0  0  0  0  0  0  0  0
   25.0363  -18.9009  -13.7488 O   0  0  0  0  0  0  0  0  0  0  0  0
   17.2979  -17.2913  -15.3317 O   0  0  0  0  0  0  0  0  0  0  0  0
   18.5372  -17.9143  -15.1858 C   0  0  0  0  0  0  0  0  0  0  0  0
   18.7240  -19.2506  -15.4428 C   0  0  0  0  0  0  0  0  0  0  0  0
   19.9719  -19.8125  -15.2812 C   0  0  0  0  0  0  0  0  0  0  0  0
   21.0863  -19.0937  -14.8625 C   0  0  0  0  0  0  0  0  0  0  0  0
   22.4092  -19.7228  -14.6883 C   0  0  0  0  0  0  0  0  0  0  0  0
   22.6728  -20.1664  -13.2557 C   0  0  2  0  0  0  0  0  0  0  0  0
   23.9897  -20.8220  -13.1912 N   0  0  0  0  0  0  0  0  0  0  0  0
   21.6724  -21.1846  -12.9025 C   0  0  0  0  0  0  0  0  0  0  0  0
   21.7238  -22.5209  -13.2706 O   0  0  0  0  0  0  0  0  0  0  0  0
   20.8631  -17.7470  -14.6117 C   0  0  0  0  0  0  0  0  0  0  0  0
   19.6210  -17.1728  -14.7694 C   0  0  0  0  0  0  0  0  0  0  0  0
   20.6811  -20.8413  -12.2127 O   0  0  0  0  0  0  0  0  0  0  0  0
  2  1  1  0
  3  2  2  0
  4  3  1  0
  5 11  1  0
  5  4  2  0
  6  5  1  0
  7  6  1  0
  7  8  1  6
  9  7  1  0
 10  9  2  0
 11 12  2  0
 12  2  1  0
 13  9  1  0
 14 13  1  0
 14 15  1  1
 16 15  1  0
 16 17  2  0
 18 17  1  0
 19 18  2  0
 20 21  2  0
 20 19  1  0
 21 16  1  0
 22 14  1  0
 23 22  2  0
 25 24  1  0
 25 26  2  0
 27 26  1  0
 28 27  2  0
 29 28  1  0
 30 29  1  6
 30 31  1  0
 31 22  1  0
 32 30  1  0
 32 33  1  0
 34 35  2  0
 34 28  1  0
 35 25  1  0
 36 32  2  0
M  END
$$$$
