YFY.pdb
     RDKit          3D

 36 38  0  0  1  0  0  0  0  0999 V2000
   17.2026   -2.8553  -18.9736 O   0  0  0  0  0  0  0  0  0  0  0  0
   18.1353   -2.2297  -18.1741 C   0  0  0  0  0  0  0  0  0  0  0  0
   17.6894   -1.4271  -17.1643 C   0  0  0  0  0  0  0  0  0  0  0  0
   18.6126   -0.7979  -16.3603 C   0  0  0  0  0  0  0  0  0  0  0  0
   19.9591   -0.9731  -16.5688 C   0  0  0  0  0  0  0  0  0  0  0  0
   20.9430   -0.2755  -15.6765 C   0  0  0  0  0  0  0  0  0  0  0  0
   21.0618    1.1433  -16.1676 C   0  0  2  0  0  0  0  0  0  0  0  0
   21.6880    1.1756  -17.4681 N   0  0  0  0  0  0  0  0  0  0  0  0
   21.7207    2.0569  -15.2060 C   0  0  0  0  0  0  0  0  0  0  0  0
   22.9755    2.2254  -15.3325 O   0  0  0  0  0  0  0  0  0  0  0  0
   20.3972   -1.7813  -17.5857 C   0  0  0  0  0  0  0  0  0  0  0  0
   19.4779   -2.4129  -18.3927 C   0  0  0  0  0  0  0  0  0  0  0  0
   21.0373    2.7435  -14.1700 N   0  0  0  0  0  0  0  0  0  0  0  0
   21.6356    3.7163  -13.3152 C   0  0  1  0  0  0  0  0  0  0  0  0
   20.9190    5.0373  -13.4626 C   0  0  0  0  0  0  0  0  0  0  0  0
   21.1890    5.7306  -14.7147 C   0  0  0  0  0  0  0  0  0  0  0  0
   20.4430    5.5651  -15.8685 C   0  0  0  0  0  0  0  0  0  0  0  0
   20.7112    6.2262  -17.0390 C   0  0  0  0  0  0  0  0  0  0  0  0
   21.7640    7.1015  -17.1017 C   0  0  0  0  0  0  0  0  0  0  0  0
   22.5310    7.2963  -15.9801 C   0  0  0  0  0  0  0  0  0  0  0  0
   22.2428    6.6127  -14.7930 C   0  0  0  0  0  0  0  0  0  0  0  0
   21.8471    3.3102  -11.9244 C   0  0  0  0  0  0  0  0  0  0  0  0
   20.9311    2.9167  -11.1456 O   0  0  0  0  0  0  0  0  0  0  0  0
   26.2173    2.0456   -4.2154 O   0  0  0  0  0  0  0  0  0  0  0  0
   25.8616    2.1729   -5.5580 C   0  0  0  0  0  0  0  0  0  0  0  0
   25.2069    1.1788   -6.2434 C   0  0  0  0  0  0  0  0  0  0  0  0
   24.8804    1.3603   -7.5699 C   0  0  0  0  0  0  0  0  0  0  0  0
   25.1798    2.5179   -8.2800 C   0  0  0  0  0  0  0  0  0  0  0  0
   24.8271    2.6820   -9.7030 C   0  0  0  0  0  0  0  0  0  0  0  0
   23.3626    3.0406   -9.9152 C   0  0  2  0  0  0  0  0  0  0  0  0
   23.1417    3.3311  -11.3418 N   0  0  0  0  0  0  0  0  0  0  0  0
   23.0866    4.2837   -9.1797 C   0  0  0  0  0  0  0  0  0  0  0  0
   23.4992    5.5511   -9.5637 O   0  0  0  0  0  0  0  0  0  0  0  0
   25.8409    3.5018   -7.5582 C   0  0  0  0  0  0  0  0  0  0  0  0
   26.1729    3.3333   -6.2320 C   0  0  0  0  0  0  0  0  0  0  0  0
   22.4260    4.2191   -8.1140 O   0  0  0  0  0  0  0  0  0  0  0  0
  2  1  1  0
  3  2  2  0
  4  3  1  0
  5 11  1  0
  5  4  2  0
  6  5  1  0
  7  6  1  0
  7  8  1  6
  9  7  1  0
 10  9  2  0
 11 12  2  0
 12  2  1  0
 13  9  1  0
 14 13  1  0
 14 15  1  1
 16 15  1  0
 16 17  2  0
 18 17  1  0
 19 18  2  0
 20 21  2  0
 20 19  1  0
 21 16  1  0
 22 14  1  0
 23 22  2  0
 25 24  1  0
 25 26  2  0
 27 26  1  0
 28 27  2  0
 29 28  1  0
 30 29  1  6
 30 31  1  0
 31 22  1  0
 32 30  1  0
 32 33  1  0
 34 35  2  0
 34 28  1  0
 35 25  1  0
 36 32  2  0
M  END
$$$$
