YFY.pdb
     RDKit          3D

 36 38  0  0  1  0  0  0  0  0999 V2000
   16.9141  -25.1032  -13.1638 O   0  0  0  0  0  0  0  0  0  0  0  0
   17.6916  -24.1502  -13.7867 C   0  0  0  0  0  0  0  0  0  0  0  0
   17.0676  -23.0911  -14.3797 C   0  0  0  0  0  0  0  0  0  0  0  0
   17.8347  -22.1341  -15.0042 C   0  0  0  0  0  0  0  0  0  0  0  0
   19.2041  -22.2410  -15.0314 C   0  0  0  0  0  0  0  0  0  0  0  0
   20.0155  -21.1826  -15.7188 C   0  0  0  0  0  0  0  0  0  0  0  0
   20.6095  -20.3092  -14.6452 C   0  0  2  0  0  0  0  0  0  0  0  0
   19.5649  -19.6896  -13.8646 N   0  0  0  0  0  0  0  0  0  0  0  0
   21.5910  -19.3220  -15.1508 C   0  0  0  0  0  0  0  0  0  0  0  0
   21.1276  -18.2563  -15.6690 O   0  0  0  0  0  0  0  0  0  0  0  0
   19.8217  -23.3085  -14.4330 C   0  0  0  0  0  0  0  0  0  0  0  0
   19.0588  -24.2684  -13.8069 C   0  0  0  0  0  0  0  0  0  0  0  0
   22.9968  -19.4990  -15.0872 N   0  0  0  0  0  0  0  0  0  0  0  0
   23.9496  -18.6025  -15.6563 C   0  0  1  0  0  0  0  0  0  0  0  0
   25.1772  -18.5359  -14.7796 C   0  0  0  0  0  0  0  0  0  0  0  0
   26.2211  -17.6488  -15.2743 C   0  0  0  0  0  0  0  0  0  0  0  0
   27.2766  -18.0614  -16.0684 C   0  0  0  0  0  0  0  0  0  0  0  0
   28.2509  -17.2125  -16.5256 C   0  0  0  0  0  0  0  0  0  0  0  0
   28.2053  -15.8826  -16.1971 C   0  0  0  0  0  0  0  0  0  0  0  0
   27.1752  -15.4296  -15.4109 C   0  0  0  0  0  0  0  0  0  0  0  0
   26.1887  -16.3107  -14.9527 C   0  0  0  0  0  0  0  0  0  0  0  0
   24.2473  -18.7940  -17.0771 C   0  0  0  0  0  0  0  0  0  0  0  0
   24.5005  -19.9123  -17.6118 O   0  0  0  0  0  0  0  0  0  0  0  0
   18.9975  -21.0123  -20.2808 O   0  0  0  0  0  0  0  0  0  0  0  0
   20.0568  -20.1061  -20.2398 C   0  0  0  0  0  0  0  0  0  0  0  0
   20.1206  -19.0896  -19.3181 C   0  0  0  0  0  0  0  0  0  0  0  0
   21.1923  -18.2233  -19.3251 C   0  0  0  0  0  0  0  0  0  0  0  0
   22.2435  -18.3139  -20.2310 C   0  0  0  0  0  0  0  0  0  0  0  0
   23.3743  -17.3666  -20.2223 C   0  0  0  0  0  0  0  0  0  0  0  0
   24.5620  -17.8658  -19.4107 C   0  0  2  0  0  0  0  0  0  0  0  0
   24.2688  -17.6966  -17.9776 N   0  0  0  0  0  0  0  0  0  0  0  0
   25.7152  -17.0053  -19.7140 C   0  0  0  0  0  0  0  0  0  0  0  0
   26.2515  -16.0528  -18.8603 O   0  0  0  0  0  0  0  0  0  0  0  0
   22.1480  -19.3514  -21.1479 C   0  0  0  0  0  0  0  0  0  0  0  0
   21.0825  -20.2243  -21.1519 C   0  0  0  0  0  0  0  0  0  0  0  0
   26.2774  -17.1227  -20.8305 O   0  0  0  0  0  0  0  0  0  0  0  0
  2  1  1  0
  3  2  2  0
  4  3  1  0
  5 11  1  0
  5  4  2  0
  6  5  1  0
  7  6  1  0
  7  8  1  6
  9  7  1  0
 10  9  2  0
 11 12  2  0
 12  2  1  0
 13  9  1  0
 14 13  1  0
 14 15  1  1
 16 15  1  0
 16 17  2  0
 18 17  1  0
 19 18  2  0
 20 21  2  0
 20 19  1  0
 21 16  1  0
 22 14  1  0
 23 22  2  0
 25 24  1  0
 25 26  2  0
 27 26  1  0
 28 27  2  0
 29 28  1  0
 30 29  1  6
 30 31  1  0
 31 22  1  0
 32 30  1  0
 32 33  1  0
 34 35  2  0
 34 28  1  0
 35 25  1  0
 36 32  2  0
M  END
$$$$
