YFY.pdb
     RDKit          3D

 36 38  0  0  1  0  0  0  0  0999 V2000
   16.9319  -16.1227  -16.7074 O   0  0  0  0  0  0  0  0  0  0  0  0
   17.5881  -14.9257  -16.5144 C   0  0  0  0  0  0  0  0  0  0  0  0
   16.9268  -13.7690  -16.8099 C   0  0  0  0  0  0  0  0  0  0  0  0
   17.5730  -12.5686  -16.6207 C   0  0  0  0  0  0  0  0  0  0  0  0
   18.8606  -12.5330  -16.1430 C   0  0  0  0  0  0  0  0  0  0  0  0
   19.5404  -11.2102  -15.9457 C   0  0  0  0  0  0  0  0  0  0  0  0
   19.7267  -10.5973  -17.3088 C   0  0  2  0  0  0  0  0  0  0  0  0
   20.6920  -11.3515  -18.0728 N   0  0  0  0  0  0  0  0  0  0  0  0
   20.0445   -9.1511  -17.2770 C   0  0  0  0  0  0  0  0  0  0  0  0
   21.2488   -8.8271  -17.0249 O   0  0  0  0  0  0  0  0  0  0  0  0
   19.5166  -13.7002  -15.8491 C   0  0  0  0  0  0  0  0  0  0  0  0
   18.8746  -14.9036  -16.0366 C   0  0  0  0  0  0  0  0  0  0  0  0
   19.0928   -8.1257  -17.5106 N   0  0  0  0  0  0  0  0  0  0  0  0
   19.3631   -6.7304  -17.3869 C   0  0  1  0  0  0  0  0  0  0  0  0
   18.2918   -5.9365  -18.0957 C   0  0  0  0  0  0  0  0  0  0  0  0
   18.4669   -4.4924  -18.0223 C   0  0  0  0  0  0  0  0  0  0  0  0
   19.4047   -3.7873  -18.7559 C   0  0  0  0  0  0  0  0  0  0  0  0
   19.5559   -2.4273  -18.6746 C   0  0  0  0  0  0  0  0  0  0  0  0
   18.7531   -1.7012  -17.8338 C   0  0  0  0  0  0  0  0  0  0  0  0
   17.8086   -2.3604  -17.0869 C   0  0  0  0  0  0  0  0  0  0  0  0
   17.6680   -3.7499  -17.1825 C   0  0  0  0  0  0  0  0  0  0  0  0
   19.6607   -6.2481  -16.0367 C   0  0  0  0  0  0  0  0  0  0  0  0
   18.9177   -6.4334  -15.0296 O   0  0  0  0  0  0  0  0  0  0  0  0
   26.3504   -6.4810  -18.0510 O   0  0  0  0  0  0  0  0  0  0  0  0
   25.3821   -6.3837  -17.0520 C   0  0  0  0  0  0  0  0  0  0  0  0
   24.5569   -7.4312  -16.7225 C   0  0  0  0  0  0  0  0  0  0  0  0
   23.6176   -7.2774  -15.7259 C   0  0  0  0  0  0  0  0  0  0  0  0
   23.4459   -6.0964  -15.0120 C   0  0  0  0  0  0  0  0  0  0  0  0
   22.4253   -5.9559  -13.9561 C   0  0  0  0  0  0  0  0  0  0  0  0
   21.2263   -5.1262  -14.3946 C   0  0  2  0  0  0  0  0  0  0  0  0
   20.8467   -5.5174  -15.7625 N   0  0  0  0  0  0  0  0  0  0  0  0
   21.6443   -3.7177  -14.4549 C   0  0  0  0  0  0  0  0  0  0  0  0
   22.0286   -2.9480  -13.3669 O   0  0  0  0  0  0  0  0  0  0  0  0
   24.2953   -5.0587  -15.3696 C   0  0  0  0  0  0  0  0  0  0  0  0
   25.2385   -5.1992  -16.3636 C   0  0  0  0  0  0  0  0  0  0  0  0
   21.6626   -3.1420  -15.5705 O   0  0  0  0  0  0  0  0  0  0  0  0
  2  1  1  0
  3  2  2  0
  4  3  1  0
  5 11  1  0
  5  4  2  0
  6  5  1  0
  7  6  1  0
  7  8  1  1
  9  7  1  0
 10  9  2  0
 11 12  2  0
 12  2  1  0
 13  9  1  0
 14 13  1  0
 14 15  1  1
 16 15  1  0
 16 17  2  0
 18 17  1  0
 19 18  2  0
 20 21  2  0
 20 19  1  0
 21 16  1  0
 22 14  1  0
 23 22  2  0
 25 24  1  0
 25 26  2  0
 27 26  1  0
 28 27  2  0
 29 28  1  0
 30 29  1  6
 30 31  1  0
 31 22  1  0
 32 30  1  0
 32 33  1  0
 34 35  2  0
 34 28  1  0
 35 25  1  0
 36 32  2  0
M  END
$$$$
