YFY.pdb
     RDKit          3D

 36 38  0  0  1  0  0  0  0  0999 V2000
   28.1026  -29.1277  -20.3748 O   0  0  0  0  0  0  0  0  0  0  0  0
   27.9783  -28.2022  -19.3606 C   0  0  0  0  0  0  0  0  0  0  0  0
   27.0638  -27.1996  -19.5066 C   0  0  0  0  0  0  0  0  0  0  0  0
   26.9319  -26.2704  -18.4998 C   0  0  0  0  0  0  0  0  0  0  0  0
   27.7057  -26.3488  -17.3673 C   0  0  0  0  0  0  0  0  0  0  0  0
   27.5402  -25.3228  -16.2854 C   0  0  0  0  0  0  0  0  0  0  0  0
   27.8402  -23.9791  -16.8960 C   0  0  2  0  0  0  0  0  0  0  0  0
   29.2008  -23.9366  -17.3767 N   0  0  0  0  0  0  0  0  0  0  0  0
   27.5230  -22.8346  -16.0110 C   0  0  0  0  0  0  0  0  0  0  0  0
   28.3872  -22.5259  -15.1296 O   0  0  0  0  0  0  0  0  0  0  0  0
   28.6215  -27.3596  -17.2299 C   0  0  0  0  0  0  0  0  0  0  0  0
   28.7573  -28.2915  -18.2341 C   0  0  0  0  0  0  0  0  0  0  0  0
   26.3271  -22.0766  -16.0943 N   0  0  0  0  0  0  0  0  0  0  0  0
   25.9528  -21.0556  -15.1709 C   0  0  1  0  0  0  0  0  0  0  0  0
   25.6591  -19.7748  -15.9150 C   0  0  0  0  0  0  0  0  0  0  0  0
   26.8370  -19.1114  -16.4569 C   0  0  0  0  0  0  0  0  0  0  0  0
   27.4060  -19.4198  -17.6801 C   0  0  0  0  0  0  0  0  0  0  0  0
   28.5154  -18.7848  -18.1752 C   0  0  0  0  0  0  0  0  0  0  0  0
   29.1140  -17.7905  -17.4462 C   0  0  0  0  0  0  0  0  0  0  0  0
   28.5825  -17.4520  -16.2266 C   0  0  0  0  0  0  0  0  0  0  0  0
   27.4490  -18.1110  -15.7363 C   0  0  0  0  0  0  0  0  0  0  0  0
   24.9283  -21.4175  -14.1893 C   0  0  0  0  0  0  0  0  0  0  0  0
   23.7225  -21.6739  -14.4735 O   0  0  0  0  0  0  0  0  0  0  0  0
   27.1229  -17.8561   -7.6572 O   0  0  0  0  0  0  0  0  0  0  0  0
   26.6095  -18.9397   -8.3696 C   0  0  0  0  0  0  0  0  0  0  0  0
   27.3475  -19.6202   -9.3072 C   0  0  0  0  0  0  0  0  0  0  0  0
   26.7876  -20.6841   -9.9809 C   0  0  0  0  0  0  0  0  0  0  0  0
   25.4864  -21.1257   -9.7671 C   0  0  0  0  0  0  0  0  0  0  0  0
   24.9085  -22.2619  -10.5098 C   0  0  0  0  0  0  0  0  0  0  0  0
   24.2150  -21.8394  -11.7978 C   0  0  2  0  0  0  0  0  0  0  0  0
   25.2359  -21.5091  -12.8063 N   0  0  0  0  0  0  0  0  0  0  0  0
   23.4671  -20.6023  -11.5280 C   0  0  0  0  0  0  0  0  0  0  0  0
   22.1905  -20.5384  -10.9894 O   0  0  0  0  0  0  0  0  0  0  0  0
   24.7688  -20.4168   -8.8139 C   0  0  0  0  0  0  0  0  0  0  0  0
   25.3164  -19.3518   -8.1332 C   0  0  0  0  0  0  0  0  0  0  0  0
   24.0060  -19.5013  -11.7992 O   0  0  0  0  0  0  0  0  0  0  0  0
  2  1  1  0
  3  2  2  0
  4  3  1  0
  5 11  1  0
  5  4  2  0
  6  5  1  0
  7  6  1  0
  7  8  1  1
  9  7  1  0
 10  9  2  0
 11 12  2  0
 12  2  1  0
 13  9  1  0
 14 13  1  0
 14 15  1  6
 16 15  1  0
 16 17  2  0
 18 17  1  0
 19 18  2  0
 20 21  2  0
 20 19  1  0
 21 16  1  0
 22 14  1  0
 23 22  2  0
 25 24  1  0
 25 26  2  0
 27 26  1  0
 28 27  2  0
 29 28  1  0
 30 29  1  1
 30 31  1  0
 31 22  1  0
 32 30  1  0
 32 33  1  0
 34 35  2  0
 34 28  1  0
 35 25  1  0
 36 32  2  0
M  END
$$$$
