YFY.pdb
     RDKit          3D

 36 38  0  0  1  0  0  0  0  0999 V2000
   30.4150  -29.2288  -19.5239 O   0  0  0  0  0  0  0  0  0  0  0  0
   29.8095  -28.2879  -18.7184 C   0  0  0  0  0  0  0  0  0  0  0  0
   28.8268  -27.5092  -19.2574 C   0  0  0  0  0  0  0  0  0  0  0  0
   28.2159  -26.5669  -18.4617 C   0  0  0  0  0  0  0  0  0  0  0  0
   28.5872  -26.4111  -17.1481 C   0  0  0  0  0  0  0  0  0  0  0  0
   27.9037  -25.3765  -16.3036 C   0  0  0  0  0  0  0  0  0  0  0  0
   28.3683  -24.0282  -16.7879 C   0  0  2  0  0  0  0  0  0  0  0  0
   29.7703  -23.8438  -16.4964 N   0  0  0  0  0  0  0  0  0  0  0  0
   27.5421  -22.8994  -16.3012 C   0  0  0  0  0  0  0  0  0  0  0  0
   27.9138  -22.3298  -15.2259 O   0  0  0  0  0  0  0  0  0  0  0  0
   29.5753  -27.1980  -16.6158 C   0  0  0  0  0  0  0  0  0  0  0  0
   30.1895  -28.1421  -17.4076 C   0  0  0  0  0  0  0  0  0  0  0  0
   26.3787  -22.4273  -16.9610 N   0  0  0  0  0  0  0  0  0  0  0  0
   25.6031  -21.3107  -16.5290 C   0  0  1  0  0  0  0  0  0  0  0  0
   25.7292  -20.1833  -17.5256 C   0  0  0  0  0  0  0  0  0  0  0  0
   26.9985  -19.4711  -17.4693 C   0  0  0  0  0  0  0  0  0  0  0  0
   27.2427  -18.3867  -16.6450 C   0  0  0  0  0  0  0  0  0  0  0  0
   28.4440  -17.7279  -16.6045 C   0  0  0  0  0  0  0  0  0  0  0  0
   29.4748  -18.1397  -17.4086 C   0  0  0  0  0  0  0  0  0  0  0  0
   29.2763  -19.2119  -18.2425 C   0  0  0  0  0  0  0  0  0  0  0  0
   28.0428  -19.8731  -18.2709 C   0  0  0  0  0  0  0  0  0  0  0  0
   24.2229  -21.5982  -16.1330 C   0  0  0  0  0  0  0  0  0  0  0  0
   23.4490  -22.3846  -16.7520 O   0  0  0  0  0  0  0  0  0  0  0  0
   16.5646  -21.0627  -11.5715 O   0  0  0  0  0  0  0  0  0  0  0  0
   17.8798  -20.8973  -12.0052 C   0  0  0  0  0  0  0  0  0  0  0  0
   18.2637  -19.8517  -12.8090 C   0  0  0  0  0  0  0  0  0  0  0  0
   19.5783  -19.7389  -13.2069 C   0  0  0  0  0  0  0  0  0  0  0  0
   20.5697  -20.6412  -12.8370 C   0  0  0  0  0  0  0  0  0  0  0  0
   21.9682  -20.5020  -13.2856 C   0  0  0  0  0  0  0  0  0  0  0  0
   22.2555  -21.2528  -14.5786 C   0  0  2  0  0  0  0  0  0  0  0  0
   23.6463  -20.9921  -14.9859 N   0  0  0  0  0  0  0  0  0  0  0  0
   21.3921  -20.6958  -15.6307 C   0  0  0  0  0  0  0  0  0  0  0  0
   20.2027  -21.2563  -16.0722 O   0  0  0  0  0  0  0  0  0  0  0  0
   20.1484  -21.6850  -12.0251 C   0  0  0  0  0  0  0  0  0  0  0  0
   18.8377  -21.8093  -11.6201 C   0  0  0  0  0  0  0  0  0  0  0  0
   21.7383  -19.6267  -16.1906 O   0  0  0  0  0  0  0  0  0  0  0  0
  2  1  1  0
  3  2  2  0
  4  3  1  0
  5 11  1  0
  5  4  2  0
  6  5  1  0
  7  6  1  0
  7  8  1  1
  9  7  1  0
 10  9  2  0
 11 12  2  0
 12  2  1  0
 13  9  1  0
 14 13  1  0
 14 15  1  6
 16 15  1  0
 16 17  2  0
 18 17  1  0
 19 18  2  0
 20 21  2  0
 20 19  1  0
 21 16  1  0
 22 14  1  0
 23 22  2  0
 25 24  1  0
 25 26  2  0
 27 26  1  0
 28 27  2  0
 29 28  1  0
 30 29  1  1
 30 31  1  0
 31 22  1  0
 32 30  1  0
 32 33  1  0
 34 35  2  0
 34 28  1  0
 35 25  1  0
 36 32  2  0
M  END
$$$$
