YFY.pdb
     RDKit          3D

 36 38  0  0  1  0  0  0  0  0999 V2000
   17.7465  -14.4794  -17.3179 O   0  0  0  0  0  0  0  0  0  0  0  0
   18.5772  -15.4870  -16.8761 C   0  0  0  0  0  0  0  0  0  0  0  0
   18.0821  -16.7576  -16.8205 C   0  0  0  0  0  0  0  0  0  0  0  0
   18.9034  -17.7708  -16.3808 C   0  0  0  0  0  0  0  0  0  0  0  0
   20.1985  -17.5101  -16.0041 C   0  0  0  0  0  0  0  0  0  0  0  0
   21.0717  -18.6341  -15.5295 C   0  0  0  0  0  0  0  0  0  0  0  0
   22.1045  -18.8777  -16.5982 C   0  0  2  0  0  0  0  0  0  0  0  0
   21.4787  -19.3793  -17.7987 N   0  0  0  0  0  0  0  0  0  0  0  0
   23.2333  -19.7293  -16.1575 C   0  0  0  0  0  0  0  0  0  0  0  0
   22.9958  -20.9687  -15.9945 O   0  0  0  0  0  0  0  0  0  0  0  0
   20.6868  -16.2306  -16.0634 C   0  0  0  0  0  0  0  0  0  0  0  0
   19.8693  -15.2136  -16.5026 C   0  0  0  0  0  0  0  0  0  0  0  0
   24.5434  -19.2439  -15.9133 N   0  0  0  0  0  0  0  0  0  0  0  0
   25.4537  -19.8149  -14.9749 C   0  0  1  0  0  0  0  0  0  0  0  0
   26.7879  -19.1133  -15.0639 C   0  0  0  0  0  0  0  0  0  0  0  0
   27.8240  -19.6832  -14.2136 C   0  0  0  0  0  0  0  0  0  0  0  0
   28.3329  -19.0593  -13.0881 C   0  0  0  0  0  0  0  0  0  0  0  0
   29.3085  -19.6105  -12.2986 C   0  0  0  0  0  0  0  0  0  0  0  0
   29.8262  -20.8400  -12.6131 C   0  0  0  0  0  0  0  0  0  0  0  0
   29.3502  -21.4949  -13.7217 C   0  0  0  0  0  0  0  0  0  0  0  0
   28.3536  -20.9171  -14.5168 C   0  0  0  0  0  0  0  0  0  0  0  0
   24.9570  -19.9694  -13.6062 C   0  0  0  0  0  0  0  0  0  0  0  0
   24.3729  -19.0598  -12.9489 O   0  0  0  0  0  0  0  0  0  0  0  0
   26.4423  -19.3609   -5.3855 O   0  0  0  0  0  0  0  0  0  0  0  0
   26.4009  -19.5870   -6.7611 C   0  0  0  0  0  0  0  0  0  0  0  0
   26.6547  -20.8192   -7.3124 C   0  0  0  0  0  0  0  0  0  0  0  0
   26.5994  -20.9838   -8.6796 C   0  0  0  0  0  0  0  0  0  0  0  0
   26.2949  -19.9535   -9.5625 C   0  0  0  0  0  0  0  0  0  0  0  0
   26.2521  -20.1552  -11.0233 C   0  0  0  0  0  0  0  0  0  0  0  0
   25.2774  -21.2465  -11.4446 C   0  0  2  0  0  0  0  0  0  0  0  0
   25.1029  -21.1958  -12.9058 N   0  0  0  0  0  0  0  0  0  0  0  0
   23.9679  -20.9429  -10.8484 C   0  0  0  0  0  0  0  0  0  0  0  0
   23.3077  -19.7265  -10.9400 O   0  0  0  0  0  0  0  0  0  0  0  0
   26.0439  -18.7224   -8.9730 C   0  0  0  0  0  0  0  0  0  0  0  0
   26.0957  -18.5443   -7.6081 C   0  0  0  0  0  0  0  0  0  0  0  0
   23.3792  -21.8412  -10.1982 O   0  0  0  0  0  0  0  0  0  0  0  0
  2  1  1  0
  3  2  2  0
  4  3  1  0
  5 11  1  0
  5  4  2  0
  6  5  1  0
  7  6  1  0
  7  8  1  6
  9  7  1  0
 10  9  2  0
 11 12  2  0
 12  2  1  0
 13  9  1  0
 14 13  1  0
 14 15  1  1
 16 15  1  0
 16 17  2  0
 18 17  1  0
 19 18  2  0
 20 21  2  0
 20 19  1  0
 21 16  1  0
 22 14  1  0
 23 22  2  0
 25 24  1  0
 25 26  2  0
 27 26  1  0
 28 27  2  0
 29 28  1  0
 30 29  1  1
 30 31  1  0
 31 22  1  0
 32 30  1  0
 32 33  1  0
 34 35  2  0
 34 28  1  0
 35 25  1  0
 36 32  2  0
M  END
$$$$
