YFY.pdb
     RDKit          3D

 36 38  0  0  1  0  0  0  0  0999 V2000
   24.8556  -16.6849  -22.0114 O   0  0  0  0  0  0  0  0  0  0  0  0
   24.2486  -17.4026  -21.0029 C   0  0  0  0  0  0  0  0  0  0  0  0
   24.1311  -16.8210  -19.7739 C   0  0  0  0  0  0  0  0  0  0  0  0
   23.5266  -17.5291  -18.7601 C   0  0  0  0  0  0  0  0  0  0  0  0
   23.0495  -18.7986  -18.9792 C   0  0  0  0  0  0  0  0  0  0  0  0
   22.3944  -19.5471  -17.8561 C   0  0  0  0  0  0  0  0  0  0  0  0
   23.4933  -20.0742  -16.9713 C   0  0  2  0  0  0  0  0  0  0  0  0
   24.3174  -21.0122  -17.6960 N   0  0  0  0  0  0  0  0  0  0  0  0
   23.0125  -20.6288  -15.6848 C   0  0  0  0  0  0  0  0  0  0  0  0
   22.6545  -21.8498  -15.6770 O   0  0  0  0  0  0  0  0  0  0  0  0
   23.1723  -19.3743  -20.2172 C   0  0  0  0  0  0  0  0  0  0  0  0
   23.7761  -18.6701  -21.2346 C   0  0  0  0  0  0  0  0  0  0  0  0
   22.9332  -19.8830  -14.4810 N   0  0  0  0  0  0  0  0  0  0  0  0
   22.3869  -20.3778  -13.2596 C   0  0  1  0  0  0  0  0  0  0  0  0
   22.9607  -19.6090  -12.0934 C   0  0  0  0  0  0  0  0  0  0  0  0
   22.5908  -20.1353  -10.7867 C   0  0  0  0  0  0  0  0  0  0  0  0
   23.3420  -21.0603  -10.0830 C   0  0  0  0  0  0  0  0  0  0  0  0
   22.9788  -21.5452   -8.8534 C   0  0  0  0  0  0  0  0  0  0  0  0
   21.8193  -21.1118   -8.2649 C   0  0  0  0  0  0  0  0  0  0  0  0
   21.0431  -20.1941   -8.9280 C   0  0  0  0  0  0  0  0  0  0  0  0
   21.4292  -19.7095  -10.1833 C   0  0  0  0  0  0  0  0  0  0  0  0
   20.9302  -20.5198  -13.2150 C   0  0  0  0  0  0  0  0  0  0  0  0
   20.1115  -19.5917  -13.4775 O   0  0  0  0  0  0  0  0  0  0  0  0
   17.7554  -20.3587  -18.8608 O   0  0  0  0  0  0  0  0  0  0  0  0
   17.9258  -20.9718  -17.6197 C   0  0  0  0  0  0  0  0  0  0  0  0
   19.0735  -21.6476  -17.2840 C   0  0  0  0  0  0  0  0  0  0  0  0
   19.1860  -22.2343  -16.0421 C   0  0  0  0  0  0  0  0  0  0  0  0
   18.1838  -22.1852  -15.0792 C   0  0  0  0  0  0  0  0  0  0  0  0
   18.3268  -22.8308  -13.7604 C   0  0  0  0  0  0  0  0  0  0  0  0
   18.8665  -21.8890  -12.6927 C   0  0  2  0  0  0  0  0  0  0  0  0
   20.3228  -21.7541  -12.8638 N   0  0  0  0  0  0  0  0  0  0  0  0
   18.6481  -22.5150  -11.3802 C   0  0  0  0  0  0  0  0  0  0  0  0
   19.6417  -23.0377  -10.5657 O   0  0  0  0  0  0  0  0  0  0  0  0
   17.0384  -21.4950  -15.4503 C   0  0  0  0  0  0  0  0  0  0  0  0
   16.9131  -20.9039  -16.6882 C   0  0  0  0  0  0  0  0  0  0  0  0
   17.4754  -22.5955  -10.9388 O   0  0  0  0  0  0  0  0  0  0  0  0
  2  1  1  0
  3  2  2  0
  4  3  1  0
  5 11  1  0
  5  4  2  0
  6  5  1  0
  7  6  1  0
  7  8  1  6
  9  7  1  0
 10  9  2  0
 11 12  2  0
 12  2  1  0
 13  9  1  0
 14 13  1  0
 14 15  1  1
 16 15  1  0
 16 17  2  0
 18 17  1  0
 19 18  2  0
 20 21  2  0
 20 19  1  0
 21 16  1  0
 22 14  1  0
 23 22  2  0
 25 24  1  0
 25 26  2  0
 27 26  1  0
 28 27  2  0
 29 28  1  0
 30 29  1  6
 30 31  1  0
 31 22  1  0
 32 30  1  0
 32 33  1  0
 34 35  2  0
 34 28  1  0
 35 25  1  0
 36 32  2  0
M  END
$$$$
