FAR.pdb
     RDKit          3D

 28 28  0  0  1  0  0  0  0  0999 V2000
   26.7103  -21.0290  -14.2096 N   0  0  0  0  0  0  0  0  0  0  0  0
   25.9589  -21.3824  -13.0269 C   0  0  1  0  0  0  0  0  0  0  0  0
   26.3473  -20.4080  -11.9299 C   0  0  0  0  0  0  0  0  0  0  0  0
   27.7318  -20.6583  -11.4525 C   0  0  0  0  0  0  0  0  0  0  0  0
   27.9900  -21.5949  -10.4727 C   0  0  0  0  0  0  0  0  0  0  0  0
   29.2937  -21.8115  -10.0414 C   0  0  0  0  0  0  0  0  0  0  0  0
   30.3633  -21.1155  -10.5619 C   0  0  0  0  0  0  0  0  0  0  0  0
   30.1051  -20.1807  -11.5399 C   0  0  0  0  0  0  0  0  0  0  0  0
   28.7985  -19.9595  -11.9764 C   0  0  0  0  0  0  0  0  0  0  0  0
   24.5198  -21.1720  -13.3230 C   0  0  0  0  0  0  0  0  0  0  0  0
   24.1065  -20.0013  -13.6161 O   0  0  0  0  0  0  0  0  0  0  0  0
   21.8065  -22.5314  -15.0078 C   0  0  0  0  0  0  0  0  0  0  0  0
   22.1755  -21.9447  -13.6749 C   0  0  2  0  0  0  0  0  0  0  0  0
   23.5425  -22.1910  -13.3065 N   0  0  0  0  0  0  0  0  0  0  0  0
   21.2220  -22.4042  -12.6201 C   0  0  0  0  0  0  0  0  0  0  0  0
   21.5370  -23.3883  -11.9395 O   0  0  0  0  0  0  0  0  0  0  0  0
   12.9562  -21.4032  -10.8729 N   0  0  0  0  0  0  0  0  0  0  0  0
   13.3820  -21.5278   -9.5218 C   0  0  0  0  0  0  0  0  0  0  0  0
   12.5108  -21.9487   -8.6616 N   0  0  0  0  0  0  0  0  0  0  0  0
   14.7107  -21.1999   -9.1525 N   0  0  0  0  0  0  0  0  0  0  0  0
   15.6569  -20.7952  -10.1530 C   0  0  0  0  0  0  0  0  0  0  0  0
   16.8302  -21.7432  -10.2631 C   0  0  0  0  0  0  0  0  0  0  0  0
   17.8108  -21.2979  -11.3210 C   0  0  0  0  0  0  0  0  0  0  0  0
   18.9892  -22.2230  -11.4498 C   0  0  2  0  0  0  0  0  0  0  0  0
   19.9853  -21.7683  -12.3682 N   0  0  0  0  0  0  0  0  0  0  0  0
   18.5834  -23.6274  -11.6899 C   0  0  0  0  0  0  0  0  0  0  0  0
   18.4234  -24.5800  -10.7001 O   0  0  0  0  0  0  0  0  0  0  0  0
   18.3652  -23.9951  -12.8695 O   0  0  0  0  0  0  0  0  0  0  0  0
  2  3  1  0
  2  1  1  6
  4  9  2  0
  4  3  1  0
  5  4  1  0
  6  7  1  0
  6  5  2  0
  7  8  2  0
  8  9  1  0
 10 11  2  0
 10  2  1  0
 13 12  1  6
 13 14  1  0
 14 10  1  0
 15 13  1  0
 16 15  2  0
 17 18  1  0
 18 19  2  0
 20 21  1  0
 20 18  1  0
 21 22  1  0
 22 23  1  0
 24 23  1  6
 24 25  1  0
 25 15  1  0
 26 24  1  0
 27 26  1  0
 28 26  2  0
M  END
$$$$
