FAR.pdb
     RDKit          3D

 28 28  0  0  1  0  0  0  0  0999 V2000
   28.4579  -20.7821   -9.7056 N   0  0  0  0  0  0  0  0  0  0  0  0
   27.0338  -20.8725   -9.4777 C   0  0  1  0  0  0  0  0  0  0  0  0
   26.6174  -19.6431   -8.6910 C   0  0  0  0  0  0  0  0  0  0  0  0
   27.0803  -19.7232   -7.2815 C   0  0  0  0  0  0  0  0  0  0  0  0
   27.8353  -18.7138   -6.7202 C   0  0  0  0  0  0  0  0  0  0  0  0
   28.2577  -18.8110   -5.3994 C   0  0  0  0  0  0  0  0  0  0  0  0
   27.9480  -19.8965   -4.6087 C   0  0  0  0  0  0  0  0  0  0  0  0
   27.1945  -20.9038   -5.1693 C   0  0  0  0  0  0  0  0  0  0  0  0
   26.7679  -20.8112   -6.4945 C   0  0  0  0  0  0  0  0  0  0  0  0
   26.3575  -20.8093  -10.7974 C   0  0  0  0  0  0  0  0  0  0  0  0
   26.9283  -20.2036  -11.7640 O   0  0  0  0  0  0  0  0  0  0  0  0
   23.9420  -22.6870  -12.8060 C   0  0  0  0  0  0  0  0  0  0  0  0
   24.5285  -21.3654  -12.3980 C   0  0  2  0  0  0  0  0  0  0  0  0
   25.0975  -21.3813  -11.0786 N   0  0  0  0  0  0  0  0  0  0  0  0
   23.5194  -20.2748  -12.5573 C   0  0  0  0  0  0  0  0  0  0  0  0
   22.8777  -19.9252  -11.5588 O   0  0  0  0  0  0  0  0  0  0  0  0
   27.0050  -19.0959  -15.4581 N   0  0  0  0  0  0  0  0  0  0  0  0
   27.0053  -17.7364  -15.8760 C   0  0  0  0  0  0  0  0  0  0  0  0
   28.0290  -17.0151  -15.5478 N   0  0  0  0  0  0  0  0  0  0  0  0
   25.9195  -17.2121  -16.6211 N   0  0  0  0  0  0  0  0  0  0  0  0
   24.6216  -17.8176  -16.5256 C   0  0  0  0  0  0  0  0  0  0  0  0
   23.7708  -17.2038  -15.4363 C   0  0  0  0  0  0  0  0  0  0  0  0
   22.4332  -17.8935  -15.3169 C   0  0  0  0  0  0  0  0  0  0  0  0
   22.2717  -18.6313  -14.0167 C   0  0  2  0  0  0  0  0  0  0  0  0
   23.2681  -19.6304  -13.7897 N   0  0  0  0  0  0  0  0  0  0  0  0
   20.8935  -19.1379  -13.8201 C   0  0  0  0  0  0  0  0  0  0  0  0
   19.8165  -18.3594  -13.4372 O   0  0  0  0  0  0  0  0  0  0  0  0
   20.6703  -20.3579  -14.0106 O   0  0  0  0  0  0  0  0  0  0  0  0
  2  3  1  0
  2  1  1  6
  4  9  2  0
  4  3  1  0
  5  4  1  0
  6  7  1  0
  6  5  2  0
  7  8  2  0
  8  9  1  0
 10 11  2  0
 10  2  1  0
 13 12  1  1
 13 14  1  0
 14 10  1  0
 15 13  1  0
 16 15  2  0
 17 18  1  0
 18 19  2  0
 20 21  1  0
 20 18  1  0
 21 22  1  0
 22 23  1  0
 24 23  1  6
 24 25  1  0
 25 15  1  0
 26 24  1  0
 27 26  1  0
 28 26  2  0
M  END
$$$$
