FAR.pdb
     RDKit          3D

 28 28  0  0  1  0  0  0  0  0999 V2000
   28.9030  -21.5497   -9.1695 N   0  0  0  0  0  0  0  0  0  0  0  0
   27.5020  -21.2082   -9.0756 C   0  0  1  0  0  0  0  0  0  0  0  0
   27.4002  -19.8993   -8.3138 C   0  0  0  0  0  0  0  0  0  0  0  0
   27.8217  -20.0654   -6.8988 C   0  0  0  0  0  0  0  0  0  0  0  0
   27.0695  -20.8096   -6.0132 C   0  0  0  0  0  0  0  0  0  0  0  0
   27.4835  -20.9505   -4.6936 C   0  0  0  0  0  0  0  0  0  0  0  0
   28.6387  -20.3658   -4.2213 C   0  0  0  0  0  0  0  0  0  0  0  0
   29.3891  -19.6231   -5.1056 C   0  0  0  0  0  0  0  0  0  0  0  0
   28.9782  -19.4785   -6.4311 C   0  0  0  0  0  0  0  0  0  0  0  0
   27.0002  -20.9653  -10.4511 C   0  0  0  0  0  0  0  0  0  0  0  0
   27.7032  -20.2734  -11.2600 O   0  0  0  0  0  0  0  0  0  0  0  0
   25.0174  -22.5946  -12.9885 C   0  0  0  0  0  0  0  0  0  0  0  0
   25.3958  -21.2981  -12.3303 C   0  0  2  0  0  0  0  0  0  0  0  0
   25.7728  -21.4514  -10.9522 N   0  0  0  0  0  0  0  0  0  0  0  0
   24.3079  -20.2883  -12.5022 C   0  0  0  0  0  0  0  0  0  0  0  0
   23.5889  -20.0359  -11.5273 O   0  0  0  0  0  0  0  0  0  0  0  0
   22.0493  -13.5372  -15.1549 N   0  0  0  0  0  0  0  0  0  0  0  0
   21.0788  -13.9195  -16.1216 C   0  0  0  0  0  0  0  0  0  0  0  0
   20.0393  -13.1588  -16.2517 N   0  0  0  0  0  0  0  0  0  0  0  0
   21.2611  -15.0893  -16.9010 N   0  0  0  0  0  0  0  0  0  0  0  0
   22.3544  -15.9767  -16.6229 C   0  0  0  0  0  0  0  0  0  0  0  0
   22.1426  -16.7854  -15.3625 C   0  0  0  0  0  0  0  0  0  0  0  0
   23.2635  -17.7711  -15.1363 C   0  0  0  0  0  0  0  0  0  0  0  0
   23.0219  -18.6669  -13.9530 C   0  0  2  0  0  0  0  0  0  0  0  0
   24.0663  -19.6143  -13.7206 N   0  0  0  0  0  0  0  0  0  0  0  0
   21.6769  -19.2875  -13.9775 C   0  0  0  0  0  0  0  0  0  0  0  0
   20.5546  -18.7568  -13.3680 O   0  0  0  0  0  0  0  0  0  0  0  0
   21.5282  -20.3721  -14.5906 O   0  0  0  0  0  0  0  0  0  0  0  0
  2  3  1  0
  2  1  1  6
  4  9  2  0
  4  3  1  0
  5  4  1  0
  6  7  1  0
  6  5  2  0
  7  8  2  0
  8  9  1  0
 10 11  2  0
 10  2  1  0
 13 12  1  1
 13 14  1  0
 14 10  1  0
 15 13  1  0
 16 15  2  0
 17 18  1  0
 18 19  2  0
 20 21  1  0
 20 18  1  0
 21 22  1  0
 22 23  1  0
 24 23  1  6
 24 25  1  0
 25 15  1  0
 26 24  1  0
 27 26  1  0
 28 26  2  0
M  END
$$$$
