FAR.pdb
     RDKit          3D

 28 28  0  0  1  0  0  0  0  0999 V2000
   26.2322  -10.3826  -15.2608 N   0  0  0  0  0  0  0  0  0  0  0  0
   26.0300   -9.1528  -15.9922 C   0  0  1  0  0  0  0  0  0  0  0  0
   26.0541   -9.4911  -17.4716 C   0  0  0  0  0  0  0  0  0  0  0  0
   27.4259   -9.8411  -17.9219 C   0  0  0  0  0  0  0  0  0  0  0  0
   27.7322  -11.1163  -18.3510 C   0  0  0  0  0  0  0  0  0  0  0  0
   29.0232  -11.4207  -18.7672 C   0  0  0  0  0  0  0  0  0  0  0  0
   30.0329  -10.4826  -18.7698 C   0  0  0  0  0  0  0  0  0  0  0  0
   29.7267   -9.2100  -18.3415 C   0  0  0  0  0  0  0  0  0  0  0  0
   28.4326   -8.8992  -17.9228 C   0  0  0  0  0  0  0  0  0  0  0  0
   24.6709   -8.6508  -15.6702 C   0  0  0  0  0  0  0  0  0  0  0  0
   23.7368   -9.4856  -15.4298 O   0  0  0  0  0  0  0  0  0  0  0  0
   22.9322   -5.4294  -14.7925 C   0  0  0  0  0  0  0  0  0  0  0  0
   22.9897   -6.8554  -15.2622 C   0  0  2  0  0  0  0  0  0  0  0  0
   24.3169   -7.2853  -15.6064 N   0  0  0  0  0  0  0  0  0  0  0  0
   22.0239   -7.0759  -16.3809 C   0  0  0  0  0  0  0  0  0  0  0  0
   22.4273   -6.9109  -17.5389 O   0  0  0  0  0  0  0  0  0  0  0  0
   16.7415  -12.4937  -15.0492 N   0  0  0  0  0  0  0  0  0  0  0  0
   17.7349  -13.0080  -15.9274 C   0  0  0  0  0  0  0  0  0  0  0  0
   17.7099  -14.2791  -16.1721 N   0  0  0  0  0  0  0  0  0  0  0  0
   18.7038  -12.1472  -16.5014 N   0  0  0  0  0  0  0  0  0  0  0  0
   18.7757  -10.7722  -16.0959 C   0  0  0  0  0  0  0  0  0  0  0  0
   18.4818   -9.8144  -17.2288 C   0  0  0  0  0  0  0  0  0  0  0  0
   18.4749   -8.3795  -16.7595 C   0  0  0  0  0  0  0  0  0  0  0  0
   19.6944   -7.6169  -17.1982 C   0  0  2  0  0  0  0  0  0  0  0  0
   20.6801   -7.4617  -16.1751 N   0  0  0  0  0  0  0  0  0  0  0  0
   19.3536   -6.3399  -17.8675 C   0  0  0  0  0  0  0  0  0  0  0  0
   19.0750   -6.2083  -19.2157 O   0  0  0  0  0  0  0  0  0  0  0  0
   19.3103   -5.2936  -17.1762 O   0  0  0  0  0  0  0  0  0  0  0  0
  2  3  1  0
  2  1  1  1
  4  9  2  0
  4  3  1  0
  5  4  1  0
  6  7  1  0
  6  5  2  0
  7  8  2  0
  8  9  1  0
 10 11  2  0
 10  2  1  0
 13 12  1  6
 13 14  1  0
 14 10  1  0
 15 13  1  0
 16 15  2  0
 17 18  1  0
 18 19  2  0
 20 21  1  0
 20 18  1  0
 21 22  1  0
 22 23  1  0
 24 23  1  1
 24 25  1  0
 25 15  1  0
 26 24  1  0
 27 26  1  0
 28 26  2  0
M  END
$$$$
