FAR.pdb
     RDKit          3D

 28 28  0  0  1  0  0  0  0  0999 V2000
   28.7306  -20.5636   -9.0822 N   0  0  0  0  0  0  0  0  0  0  0  0
   27.3940  -21.0584   -8.8433 C   0  0  1  0  0  0  0  0  0  0  0  0
   26.8090  -20.2590   -7.6933 C   0  0  0  0  0  0  0  0  0  0  0  0
   27.7463  -20.2067   -6.5419 C   0  0  0  0  0  0  0  0  0  0  0  0
   28.2136  -19.0025   -6.0566 C   0  0  0  0  0  0  0  0  0  0  0  0
   29.0906  -18.9783   -4.9783 C   0  0  0  0  0  0  0  0  0  0  0  0
   29.5232  -20.1312   -4.3592 C   0  0  0  0  0  0  0  0  0  0  0  0
   29.0566  -21.3329   -4.8439 C   0  0  0  0  0  0  0  0  0  0  0  0
   28.1761  -21.3628   -5.9259 C   0  0  0  0  0  0  0  0  0  0  0  0
   26.5796  -20.7681  -10.0498 C   0  0  0  0  0  0  0  0  0  0  0  0
   26.3720  -19.5556  -10.3871 O   0  0  0  0  0  0  0  0  0  0  0  0
   25.5186  -21.9232  -13.2796 C   0  0  0  0  0  0  0  0  0  0  0  0
   25.0814  -21.4197  -11.9332 C   0  0  2  0  0  0  0  0  0  0  0  0
   25.9989  -21.7528  -10.8787 N   0  0  0  0  0  0  0  0  0  0  0  0
   23.6922  -21.8789  -11.6299 C   0  0  0  0  0  0  0  0  0  0  0  0
   23.5520  -22.9509  -11.0281 O   0  0  0  0  0  0  0  0  0  0  0  0
   15.2714  -21.9919  -12.2395 N   0  0  0  0  0  0  0  0  0  0  0  0
   15.4502  -20.6160  -11.9271 C   0  0  0  0  0  0  0  0  0  0  0  0
   14.4005  -19.9472  -11.5709 N   0  0  0  0  0  0  0  0  0  0  0  0
   16.7338  -20.0203  -12.0083 N   0  0  0  0  0  0  0  0  0  0  0  0
   17.8745  -20.8140  -12.3678 C   0  0  0  0  0  0  0  0  0  0  0  0
   18.8339  -21.0111  -11.2154 C   0  0  0  0  0  0  0  0  0  0  0  0
   20.2139  -20.4939  -11.5427 C   0  0  0  0  0  0  0  0  0  0  0  0
   21.1908  -21.5945  -11.8520 C   0  0  2  0  0  0  0  0  0  0  0  0
   22.5404  -21.1475  -11.9978 N   0  0  0  0  0  0  0  0  0  0  0  0
   20.7432  -22.4499  -12.9757 C   0  0  0  0  0  0  0  0  0  0  0  0
   21.0194  -22.2056  -14.3087 O   0  0  0  0  0  0  0  0  0  0  0  0
   20.0644  -23.4729  -12.7169 O   0  0  0  0  0  0  0  0  0  0  0  0
  2  3  1  0
  2  1  1  6
  4  9  2  0
  4  3  1  0
  5  4  1  0
  6  7  1  0
  6  5  2  0
  7  8  2  0
  8  9  1  0
 10 11  2  0
 10  2  1  0
 13 12  1  6
 13 14  1  0
 14 10  1  0
 15 13  1  0
 16 15  2  0
 17 18  1  0
 18 19  2  0
 20 21  1  0
 20 18  1  0
 21 22  1  0
 22 23  1  0
 24 23  1  6
 24 25  1  0
 25 15  1  0
 26 24  1  0
 27 26  1  0
 28 26  2  0
M  END
$$$$
