FAR.pdb
     RDKit          3D

 28 28  0  0  1  0  0  0  0  0999 V2000
   22.7493  -26.7689  -15.0698 N   0  0  0  0  0  0  0  0  0  0  0  0
   21.3148  -26.8949  -15.1905 C   0  0  1  0  0  0  0  0  0  0  0  0
   21.0266  -27.6058  -16.5002 C   0  0  0  0  0  0  0  0  0  0  0  0
   21.4695  -26.7937  -17.6628 C   0  0  0  0  0  0  0  0  0  0  0  0
   22.4982  -27.2179  -18.4788 C   0  0  0  0  0  0  0  0  0  0  0  0
   22.8958  -26.4407  -19.5606 C   0  0  0  0  0  0  0  0  0  0  0  0
   22.2932  -25.2379  -19.8600 C   0  0  0  0  0  0  0  0  0  0  0  0
   21.2665  -24.8149  -19.0453 C   0  0  0  0  0  0  0  0  0  0  0  0
   20.8635  -25.5911  -17.9582 C   0  0  0  0  0  0  0  0  0  0  0  0
   20.8417  -27.7730  -14.0914 C   0  0  0  0  0  0  0  0  0  0  0  0
   19.6163  -28.1258  -14.0565 O   0  0  0  0  0  0  0  0  0  0  0  0
   22.1748  -29.5641  -11.0338 C   0  0  0  0  0  0  0  0  0  0  0  0
   21.1195  -28.9617  -11.9174 C   0  0  2  0  0  0  0  0  0  0  0  0
   21.6606  -28.2639  -13.0511 N   0  0  0  0  0  0  0  0  0  0  0  0
   20.1994  -28.0978  -11.1175 C   0  0  0  0  0  0  0  0  0  0  0  0
   20.4575  -26.8903  -11.0377 O   0  0  0  0  0  0  0  0  0  0  0  0
   14.9693  -23.3595  -11.4391 N   0  0  0  0  0  0  0  0  0  0  0  0
   14.7004  -23.3814  -10.0427 C   0  0  0  0  0  0  0  0  0  0  0  0
   13.7019  -22.6744   -9.6196 N   0  0  0  0  0  0  0  0  0  0  0  0
   15.5047  -24.1528   -9.1668 N   0  0  0  0  0  0  0  0  0  0  0  0
   16.6255  -24.8888   -9.6790 C   0  0  0  0  0  0  0  0  0  0  0  0
   16.2089  -26.0888  -10.4998 C   0  0  0  0  0  0  0  0  0  0  0  0
   17.4032  -26.8615  -11.0055 C   0  0  0  0  0  0  0  0  0  0  0  0
   17.9611  -27.8092   -9.9799 C   0  0  2  0  0  0  0  0  0  0  0  0
   19.0562  -28.5963  -10.4531 N   0  0  0  0  0  0  0  0  0  0  0  0
   16.9082  -28.6216   -9.3272 C   0  0  0  0  0  0  0  0  0  0  0  0
   16.3114  -28.3116   -8.1187 O   0  0  0  0  0  0  0  0  0  0  0  0
   16.5185  -29.6687   -9.8983 O   0  0  0  0  0  0  0  0  0  0  0  0
  2  3  1  0
  2  1  1  1
  4  9  2  0
  4  3  1  0
  5  4  1  0
  6  7  1  0
  6  5  2  0
  7  8  2  0
  8  9  1  0
 10 11  2  0
 10  2  1  0
 13 12  1  1
 13 14  1  0
 14 10  1  0
 15 13  1  0
 16 15  2  0
 17 18  1  0
 18 19  2  0
 20 21  1  0
 20 18  1  0
 21 22  1  0
 22 23  1  0
 24 23  1  6
 24 25  1  0
 25 15  1  0
 26 24  1  0
 27 26  1  0
 28 26  2  0
M  END
$$$$
