FAR.pdb
     RDKit          3D

 28 28  0  0  1  0  0  0  0  0999 V2000
   27.3593  -21.6057   -8.4998 N   0  0  0  0  0  0  0  0  0  0  0  0
   26.4031  -20.5349   -8.3343 C   0  0  1  0  0  0  0  0  0  0  0  0
   27.1650  -19.3102   -7.8615 C   0  0  0  0  0  0  0  0  0  0  0  0
   27.8728  -19.5766   -6.5827 C   0  0  0  0  0  0  0  0  0  0  0  0
   29.2251  -19.8501   -6.5594 C   0  0  0  0  0  0  0  0  0  0  0  0
   29.8659  -20.0968   -5.3507 C   0  0  0  0  0  0  0  0  0  0  0  0
   29.1936  -20.0797   -4.1477 C   0  0  0  0  0  0  0  0  0  0  0  0
   27.8439  -19.8067   -4.1714 C   0  0  0  0  0  0  0  0  0  0  0  0
   27.1959  -19.5583   -5.3818 C   0  0  0  0  0  0  0  0  0  0  0  0
   25.8365  -20.2212   -9.6697 C   0  0  0  0  0  0  0  0  0  0  0  0
   24.9800  -19.2824   -9.7807 O   0  0  0  0  0  0  0  0  0  0  0  0
   26.5798  -20.6481  -13.2705 C   0  0  0  0  0  0  0  0  0  0  0  0
   25.6058  -20.5415  -12.1316 C   0  0  2  0  0  0  0  0  0  0  0  0
   26.1777  -20.8964  -10.8620 N   0  0  0  0  0  0  0  0  0  0  0  0
   24.3698  -21.3278  -12.4262 C   0  0  0  0  0  0  0  0  0  0  0  0
   24.4974  -22.5206  -12.7295 O   0  0  0  0  0  0  0  0  0  0  0  0
   18.0651  -24.5652   -8.1546 N   0  0  0  0  0  0  0  0  0  0  0  0
   19.2127  -23.7260   -8.1939 C   0  0  0  0  0  0  0  0  0  0  0  0
   19.9342  -23.6570   -7.1212 N   0  0  0  0  0  0  0  0  0  0  0  0
   19.5361  -23.0034   -9.3696 N   0  0  0  0  0  0  0  0  0  0  0  0
   19.4204  -23.6311  -10.6553 C   0  0  0  0  0  0  0  0  0  0  0  0
   19.8777  -22.7350  -11.7846 C   0  0  0  0  0  0  0  0  0  0  0  0
   21.1725  -22.0337  -11.4519 C   0  0  0  0  0  0  0  0  0  0  0  0
   21.8577  -21.4686  -12.6653 C   0  0  2  0  0  0  0  0  0  0  0  0
   23.0714  -20.7725  -12.3739 N   0  0  0  0  0  0  0  0  0  0  0  0
   20.9373  -20.6863  -13.5229 C   0  0  0  0  0  0  0  0  0  0  0  0
   19.9973  -21.2368  -14.3749 O   0  0  0  0  0  0  0  0  0  0  0  0
   21.0020  -19.4337  -13.4854 O   0  0  0  0  0  0  0  0  0  0  0  0
  2  3  1  0
  2  1  1  6
  4  9  2  0
  4  3  1  0
  5  4  1  0
  6  7  1  0
  6  5  2  0
  7  8  2  0
  8  9  1  0
 10 11  2  0
 10  2  1  0
 13 12  1  6
 13 14  1  0
 14 10  1  0
 15 13  1  0
 16 15  2  0
 17 18  1  0
 18 19  2  0
 20 21  1  0
 20 18  1  0
 21 22  1  0
 22 23  1  0
 24 23  1  1
 24 25  1  0
 25 15  1  0
 26 24  1  0
 27 26  1  0
 28 26  2  0
M  END
$$$$
