FAR.pdb
     RDKit          3D

 28 28  0  0  1  0  0  0  0  0999 V2000
   25.7059  -21.8743  -13.6003 N   0  0  0  0  0  0  0  0  0  0  0  0
   24.8408  -21.3436  -14.6291 C   0  0  1  0  0  0  0  0  0  0  0  0
   24.5467  -22.4685  -15.6047 C   0  0  0  0  0  0  0  0  0  0  0  0
   25.7707  -22.8760  -16.3418 C   0  0  0  0  0  0  0  0  0  0  0  0
   26.4315  -24.0477  -16.0345 C   0  0  0  0  0  0  0  0  0  0  0  0
   27.5754  -24.4081  -16.7375 C   0  0  0  0  0  0  0  0  0  0  0  0
   28.0892  -23.6281  -17.7510 C   0  0  0  0  0  0  0  0  0  0  0  0
   27.4292  -22.4587  -18.0574 C   0  0  0  0  0  0  0  0  0  0  0  0
   26.2808  -22.0923  -17.3549 C   0  0  0  0  0  0  0  0  0  0  0  0
   23.5576  -20.9590  -13.9900 C   0  0  0  0  0  0  0  0  0  0  0  0
   23.2406  -21.4719  -12.8659 O   0  0  0  0  0  0  0  0  0  0  0  0
   20.5348  -18.7781  -14.6782 C   0  0  0  0  0  0  0  0  0  0  0  0
   21.3708  -19.7638  -13.9123 C   0  0  2  0  0  0  0  0  0  0  0  0
   22.6322  -20.0454  -14.5403 N   0  0  0  0  0  0  0  0  0  0  0  0
   20.5919  -21.0099  -13.6414 C   0  0  0  0  0  0  0  0  0  0  0  0
   21.2095  -22.0801  -13.5785 O   0  0  0  0  0  0  0  0  0  0  0  0
   18.9757  -24.7812   -6.8477 N   0  0  0  0  0  0  0  0  0  0  0  0
   17.7373  -25.1012   -7.4695 C   0  0  0  0  0  0  0  0  0  0  0  0
   16.9388  -25.8934   -6.8286 N   0  0  0  0  0  0  0  0  0  0  0  0
   17.4094  -24.5637   -8.7395 N   0  0  0  0  0  0  0  0  0  0  0  0
   18.4056  -23.8728   -9.5079 C   0  0  0  0  0  0  0  0  0  0  0  0
   17.8688  -23.3487  -10.8212 C   0  0  0  0  0  0  0  0  0  0  0  0
   18.9319  -22.6215  -11.6087 C   0  0  0  0  0  0  0  0  0  0  0  0
   18.4297  -22.1080  -12.9298 C   0  0  2  0  0  0  0  0  0  0  0  0
   19.1910  -21.0188  -13.4556 N   0  0  0  0  0  0  0  0  0  0  0  0
   16.9730  -21.8384  -12.9161 C   0  0  0  0  0  0  0  0  0  0  0  0
   15.9979  -22.7689  -13.2258 O   0  0  0  0  0  0  0  0  0  0  0  0
   16.5791  -20.6888  -12.6034 O   0  0  0  0  0  0  0  0  0  0  0  0
  2  3  1  0
  2  1  1  1
  4  9  2  0
  4  3  1  0
  5  4  1  0
  6  7  1  0
  6  5  2  0
  7  8  2  0
  8  9  1  0
 10 11  2  0
 10  2  1  0
 13 12  1  6
 13 14  1  0
 14 10  1  0
 15 13  1  0
 16 15  2  0
 17 18  1  0
 18 19  2  0
 20 21  1  0
 20 18  1  0
 21 22  1  0
 22 23  1  0
 24 23  1  1
 24 25  1  0
 25 15  1  0
 26 24  1  0
 27 26  1  0
 28 26  2  0
M  END
$$$$
