YVY.pdb
     RDKit          3D

 32 33  0  0  1  0  0  0  0  0999 V2000
   33.1638  -22.7452   -8.9089 O   0  0  0  0  0  0  0  0  0  0  0  0
   31.9917  -22.3141   -9.5105 C   0  0  0  0  0  0  0  0  0  0  0  0
   31.6746  -22.6001  -10.8139 C   0  0  0  0  0  0  0  0  0  0  0  0
   30.4953  -22.1510  -11.3756 C   0  0  0  0  0  0  0  0  0  0  0  0
   29.5850  -21.3968  -10.6546 C   0  0  0  0  0  0  0  0  0  0  0  0
   28.3150  -20.9167  -11.2699 C   0  0  0  0  0  0  0  0  0  0  0  0
   28.6289  -20.3805  -12.6393 C   0  0  2  0  0  0  0  0  0  0  0  0
   29.6107  -19.3393  -12.5345 N   0  0  0  0  0  0  0  0  0  0  0  0
   27.3825  -19.8981  -13.2898 C   0  0  0  0  0  0  0  0  0  0  0  0
   26.9457  -18.7532  -13.0071 O   0  0  0  0  0  0  0  0  0  0  0  0
   29.9159  -21.1160   -9.3448 C   0  0  0  0  0  0  0  0  0  0  0  0
   31.0993  -21.5615   -8.7662 C   0  0  0  0  0  0  0  0  0  0  0  0
   24.0967  -19.8885  -16.9029 C   0  0  0  0  0  0  0  0  0  0  0  0
   25.4178  -20.3306  -16.3203 C   0  0  1  0  0  0  0  0  0  0  0  0
   26.5383  -19.6010  -17.0054 C   0  0  0  0  0  0  0  0  0  0  0  0
   25.4501  -20.1524  -14.8160 C   0  0  2  0  0  0  0  0  0  0  0  0
   26.6454  -20.6679  -14.2268 N   0  0  0  0  0  0  0  0  0  0  0  0
   24.2171  -20.7655  -14.2037 C   0  0  0  0  0  0  0  0  0  0  0  0
   24.1034  -22.0187  -14.3310 O   0  0  0  0  0  0  0  0  0  0  0  0
   16.4450  -21.0827  -10.0468 O   0  0  0  0  0  0  0  0  0  0  0  0
   17.6956  -20.6968  -10.5580 C   0  0  0  0  0  0  0  0  0  0  0  0
   17.7557  -19.9748  -11.7296 C   0  0  0  0  0  0  0  0  0  0  0  0
   19.0087  -19.6241  -12.1829 C   0  0  0  0  0  0  0  0  0  0  0  0
   20.1639  -19.9692  -11.5107 C   0  0  0  0  0  0  0  0  0  0  0  0
   21.4975  -19.5857  -12.0275 C   0  0  0  0  0  0  0  0  0  0  0  0
   22.0434  -20.4753  -13.0820 C   0  0  2  0  0  0  0  0  0  0  0  0
   23.2900  -19.9363  -13.5450 N   0  0  0  0  0  0  0  0  0  0  0  0
   21.1078  -20.7983  -14.1850 C   0  0  0  0  0  0  0  0  0  0  0  0
   20.8792  -20.0171  -15.1378 O   0  0  0  0  0  0  0  0  0  0  0  0
   20.1029  -20.6914  -10.3393 C   0  0  0  0  0  0  0  0  0  0  0  0
   18.8369  -21.0478   -9.8777 C   0  0  0  0  0  0  0  0  0  0  0  0
   20.4292  -22.0064  -14.2078 O   0  0  0  0  0  0  0  0  0  0  0  0
  2  1  1  0
  3  2  2  0
  4  3  1  0
  5 11  1  0
  5  4  2  0
  6  7  1  0
  6  5  1  0
  7  8  1  1
  9  7  1  0
  9 17  1  0
 10  9  2  0
 11 12  2  0
 12  2  1  0
 14 13  1  6
 14 15  1  0
 14 16  1  0
 16 17  1  1
 16 18  1  0
 18 27  1  0
 19 18  2  0
 20 21  1  0
 21 31  2  0
 21 22  1  0
 22 23  2  0
 23 24  1  0
 24 25  1  0
 26 25  1  1
 26 28  1  0
 27 26  1  0
 28 29  2  0
 28 32  1  0
 30 24  2  0
 31 30  1  0
M  END
$$$$
