YVY.pdb
     RDKit          3D

 32 33  0  0  1  0  0  0  0  0999 V2000
   24.3465  -30.2583  -20.5082 O   0  0  0  0  0  0  0  0  0  0  0  0
   24.6008  -31.1411  -19.4702 C   0  0  0  0  0  0  0  0  0  0  0  0
   24.8649  -32.4717  -19.6719 C   0  0  0  0  0  0  0  0  0  0  0  0
   25.1133  -33.3182  -18.6089 C   0  0  0  0  0  0  0  0  0  0  0  0
   25.1072  -32.8665  -17.3000 C   0  0  0  0  0  0  0  0  0  0  0  0
   25.3764  -33.7879  -16.1598 C   0  0  0  0  0  0  0  0  0  0  0  0
   26.7488  -33.4855  -15.6243 C   0  0  2  0  0  0  0  0  0  0  0  0
   27.7373  -33.8719  -16.5900 N   0  0  0  0  0  0  0  0  0  0  0  0
   26.9475  -34.1799  -14.3253 C   0  0  0  0  0  0  0  0  0  0  0  0
   27.5992  -35.2552  -14.2970 O   0  0  0  0  0  0  0  0  0  0  0  0
   24.8402  -31.5260  -17.1108 C   0  0  0  0  0  0  0  0  0  0  0  0
   24.5884  -30.6623  -18.1712 C   0  0  0  0  0  0  0  0  0  0  0  0
   27.6438  -34.1100   -9.5423 C   0  0  0  0  0  0  0  0  0  0  0  0
   27.4641  -33.4430  -10.8850 C   0  0  1  0  0  0  0  0  0  0  0  0
   28.7994  -32.9898  -11.4037 C   0  0  0  0  0  0  0  0  0  0  0  0
   26.7436  -34.3476  -11.8639 C   0  0  2  0  0  0  0  0  0  0  0  0
   26.4358  -33.6912  -13.0951 N   0  0  0  0  0  0  0  0  0  0  0  0
   25.5107  -34.9216  -11.2145 C   0  0  0  0  0  0  0  0  0  0  0  0
   24.5121  -34.1483  -11.1475 O   0  0  0  0  0  0  0  0  0  0  0  0
   22.3213  -37.6692  -16.0858 O   0  0  0  0  0  0  0  0  0  0  0  0
   22.7302  -37.7659  -14.7450 C   0  0  0  0  0  0  0  0  0  0  0  0
   21.9069  -37.2889  -13.7489 C   0  0  0  0  0  0  0  0  0  0  0  0
   22.3598  -37.4105  -12.4533 C   0  0  0  0  0  0  0  0  0  0  0  0
   23.5784  -37.9804  -12.1442 C   0  0  0  0  0  0  0  0  0  0  0  0
   24.0425  -38.0890  -10.7423 C   0  0  0  0  0  0  0  0  0  0  0  0
   24.3822  -36.8003  -10.0901 C   0  0  2  0  0  0  0  0  0  0  0  0
   25.5377  -36.2443  -10.7339 N   0  0  0  0  0  0  0  0  0  0  0  0
   24.5110  -36.8518   -8.6147 C   0  0  0  0  0  0  0  0  0  0  0  0
   23.5773  -37.2096   -7.8594 O   0  0  0  0  0  0  0  0  0  0  0  0
   24.4012  -38.4569  -13.1409 C   0  0  0  0  0  0  0  0  0  0  0  0
   23.9462  -38.3356  -14.4528 C   0  0  0  0  0  0  0  0  0  0  0  0
   25.6980  -36.4960   -7.9940 O   0  0  0  0  0  0  0  0  0  0  0  0
  2  1  1  0
  3  2  2  0
  4  3  1  0
  5 11  1  0
  5  4  2  0
  6  7  1  0
  6  5  1  0
  7  8  1  6
  9  7  1  0
  9 17  1  0
 10  9  2  0
 11 12  2  0
 12  2  1  0
 14 13  1  1
 14 15  1  0
 14 16  1  0
 16 17  1  6
 16 18  1  0
 18 27  1  0
 19 18  2  0
 20 21  1  0
 21 31  2  0
 21 22  1  0
 22 23  2  0
 23 24  1  0
 24 25  1  0
 26 25  1  6
 26 28  1  0
 27 26  1  0
 28 29  2  0
 28 32  1  0
 30 24  2  0
 31 30  1  0
M  END
$$$$
