YVY.pdb
     RDKit          3D

 32 33  0  0  1  0  0  0  0  0999 V2000
   35.3816  -29.5423  -18.8006 O   0  0  0  0  0  0  0  0  0  0  0  0
   34.1667  -30.1963  -18.6673 C   0  0  0  0  0  0  0  0  0  0  0  0
   33.5957  -30.9210  -19.6822 C   0  0  0  0  0  0  0  0  0  0  0  0
   32.3825  -31.5582  -19.5079 C   0  0  0  0  0  0  0  0  0  0  0  0
   31.6915  -31.4956  -18.3096 C   0  0  0  0  0  0  0  0  0  0  0  0
   30.3829  -32.1868  -18.1314 C   0  0  0  0  0  0  0  0  0  0  0  0
   30.5737  -33.3096  -17.1494 C   0  0  2  0  0  0  0  0  0  0  0  0
   31.4796  -34.2783  -17.6971 N   0  0  0  0  0  0  0  0  0  0  0  0
   29.2583  -33.9146  -16.8134 C   0  0  0  0  0  0  0  0  0  0  0  0
   28.7752  -34.7942  -17.5715 O   0  0  0  0  0  0  0  0  0  0  0  0
   32.2767  -30.7636  -17.2969 C   0  0  0  0  0  0  0  0  0  0  0  0
   33.4972  -30.1170  -17.4581 C   0  0  0  0  0  0  0  0  0  0  0  0
   26.0508  -35.7355  -13.8011 C   0  0  0  0  0  0  0  0  0  0  0  0
   27.3728  -35.0819  -14.1253 C   0  0  1  0  0  0  0  0  0  0  0  0
   28.4367  -36.1353  -14.2512 C   0  0  0  0  0  0  0  0  0  0  0  0
   27.2750  -34.2121  -15.3621 C   0  0  2  0  0  0  0  0  0  0  0  0
   28.5041  -33.5507  -15.6677 N   0  0  0  0  0  0  0  0  0  0  0  0
   26.1385  -33.2344  -15.2088 C   0  0  0  0  0  0  0  0  0  0  0  0
   26.1069  -32.5923  -14.1197 O   0  0  0  0  0  0  0  0  0  0  0  0
   19.7127  -27.6560  -17.0735 O   0  0  0  0  0  0  0  0  0  0  0  0
   20.8453  -28.4837  -16.9924 C   0  0  0  0  0  0  0  0  0  0  0  0
   21.7249  -28.3284  -15.9438 C   0  0  0  0  0  0  0  0  0  0  0  0
   22.8173  -29.1677  -15.9161 C   0  0  0  0  0  0  0  0  0  0  0  0
   23.0402  -30.1268  -16.8834 C   0  0  0  0  0  0  0  0  0  0  0  0
   24.2287  -31.0085  -16.8320 C   0  0  0  0  0  0  0  0  0  0  0  0
   24.0434  -32.2709  -16.0747 C   0  0  2  0  0  0  0  0  0  0  0  0
   25.2050  -33.0942  -16.2528 N   0  0  0  0  0  0  0  0  0  0  0  0
   22.7769  -32.9915  -16.3449 C   0  0  0  0  0  0  0  0  0  0  0  0
   22.6542  -33.8372  -17.2614 O   0  0  0  0  0  0  0  0  0  0  0  0
   22.1603  -30.2811  -17.9319 C   0  0  0  0  0  0  0  0  0  0  0  0
   21.0539  -29.4339  -17.9631 C   0  0  0  0  0  0  0  0  0  0  0  0
   21.6480  -32.7526  -15.5775 O   0  0  0  0  0  0  0  0  0  0  0  0
  2  1  1  0
  3  2  2  0
  4  3  1  0
  5 11  1  0
  5  4  2  0
  6  7  1  0
  6  5  1  0
  7  8  1  6
  9  7  1  0
  9 17  1  0
 10  9  2  0
 11 12  2  0
 12  2  1  0
 14 13  1  6
 14 15  1  0
 14 16  1  0
 16 17  1  1
 16 18  1  0
 18 27  1  0
 19 18  2  0
 20 21  1  0
 21 31  2  0
 21 22  1  0
 22 23  2  0
 23 24  1  0
 24 25  1  0
 26 25  1  6
 26 28  1  0
 27 26  1  0
 28 29  2  0
 28 32  1  0
 30 24  2  0
 31 30  1  0
M  END
$$$$
