YVY.pdb
     RDKit          3D

 32 33  0  0  1  0  0  0  0  0999 V2000
   16.1898  -22.5578  -15.8194 O   0  0  0  0  0  0  0  0  0  0  0  0
   16.6739  -21.2657  -15.6867 C   0  0  0  0  0  0  0  0  0  0  0  0
   16.1363  -20.1965  -16.3566 C   0  0  0  0  0  0  0  0  0  0  0  0
   16.6489  -18.9239  -16.1961 C   0  0  0  0  0  0  0  0  0  0  0  0
   17.7213  -18.6700  -15.3578 C   0  0  0  0  0  0  0  0  0  0  0  0
   18.2673  -17.2931  -15.1914 C   0  0  0  0  0  0  0  0  0  0  0  0
   19.1765  -17.0038  -16.3538 C   0  0  2  0  0  0  0  0  0  0  0  0
   20.3927  -17.7518  -16.2106 N   0  0  0  0  0  0  0  0  0  0  0  0
   19.4360  -15.5428  -16.4396 C   0  0  0  0  0  0  0  0  0  0  0  0
   20.3276  -15.0337  -15.7133 O   0  0  0  0  0  0  0  0  0  0  0  0
   18.2529  -19.7541  -14.6899 C   0  0  0  0  0  0  0  0  0  0  0  0
   17.7472  -21.0406  -14.8417 C   0  0  0  0  0  0  0  0  0  0  0  0
   20.9880  -13.4504  -18.8877 C   0  0  0  0  0  0  0  0  0  0  0  0
   19.6186  -12.8502  -18.6761 C   0  0  1  0  0  0  0  0  0  0  0  0
   18.7329  -13.1967  -19.8393 C   0  0  0  0  0  0  0  0  0  0  0  0
   19.0219  -13.2787  -17.3510 C   0  0  2  0  0  0  0  0  0  0  0  0
   18.7238  -14.6754  -17.3081 N   0  0  0  0  0  0  0  0  0  0  0  0
   17.8084  -12.4396  -17.0436 C   0  0  0  0  0  0  0  0  0  0  0  0
   16.6973  -13.0425  -17.0821 O   0  0  0  0  0  0  0  0  0  0  0  0
   17.3852   -8.7041  -10.3106 O   0  0  0  0  0  0  0  0  0  0  0  0
   17.0453   -9.2063  -11.5781 C   0  0  0  0  0  0  0  0  0  0  0  0
   16.3425   -8.4111  -12.4563 C   0  0  0  0  0  0  0  0  0  0  0  0
   16.0373   -8.9562  -13.6844 C   0  0  0  0  0  0  0  0  0  0  0  0
   16.4082  -10.2373  -14.0399 C   0  0  0  0  0  0  0  0  0  0  0  0
   16.0578  -10.7994  -15.3642 C   0  0  0  0  0  0  0  0  0  0  0  0
   16.8261  -10.2456  -16.5063 C   0  0  2  0  0  0  0  0  0  0  0  0
   17.9733  -11.0751  -16.7403 N   0  0  0  0  0  0  0  0  0  0  0  0
   17.1646   -8.8064  -16.4035 C   0  0  0  0  0  0  0  0  0  0  0  0
   18.3415   -8.3863  -16.3100 O   0  0  0  0  0  0  0  0  0  0  0  0
   17.1107  -11.0319  -13.1609 C   0  0  0  0  0  0  0  0  0  0  0  0
   17.4214  -10.4837  -11.9177 C   0  0  0  0  0  0  0  0  0  0  0  0
   16.1689   -7.8424  -16.4049 O   0  0  0  0  0  0  0  0  0  0  0  0
  2  1  1  0
  3  2  2  0
  4  3  1  0
  5 11  1  0
  5  4  2  0
  6  7  1  0
  6  5  1  0
  7  8  1  1
  9  7  1  0
  9 17  1  0
 10  9  2  0
 11 12  2  0
 12  2  1  0
 14 13  1  6
 14 15  1  0
 14 16  1  0
 16 17  1  6
 16 18  1  0
 18 27  1  0
 19 18  2  0
 20 21  1  0
 21 31  2  0
 21 22  1  0
 22 23  2  0
 23 24  1  0
 24 25  1  0
 26 25  1  1
 26 28  1  0
 27 26  1  0
 28 29  2  0
 28 32  1  0
 30 24  2  0
 31 30  1  0
M  END
$$$$
