YVY.pdb
     RDKit          3D

 32 33  0  0  1  0  0  0  0  0999 V2000
   17.1573  -19.5962  -15.4370 O   0  0  0  0  0  0  0  0  0  0  0  0
   18.3667  -20.0279  -14.9151 C   0  0  0  0  0  0  0  0  0  0  0  0
   19.3778  -19.1682  -14.5691 C   0  0  0  0  0  0  0  0  0  0  0  0
   20.5687  -19.6399  -14.0517 C   0  0  0  0  0  0  0  0  0  0  0  0
   20.7955  -20.9922  -13.8598 C   0  0  0  0  0  0  0  0  0  0  0  0
   22.0841  -21.4913  -13.3008 C   0  0  0  0  0  0  0  0  0  0  0  0
   23.1100  -21.4789  -14.4002 C   0  0  2  0  0  0  0  0  0  0  0  0
   22.7988  -22.4995  -15.3597 N   0  0  0  0  0  0  0  0  0  0  0  0
   24.4683  -21.6605  -13.8245 C   0  0  0  0  0  0  0  0  0  0  0  0
   24.8325  -22.8078  -13.4601 O   0  0  0  0  0  0  0  0  0  0  0  0
   19.7706  -21.8463  -14.2118 C   0  0  0  0  0  0  0  0  0  0  0  0
   18.5666  -21.3858  -14.7336 C   0  0  0  0  0  0  0  0  0  0  0  0
   28.9058  -20.0035  -12.4027 C   0  0  0  0  0  0  0  0  0  0  0  0
   27.6501  -19.7594  -13.2050 C   0  0  1  0  0  0  0  0  0  0  0  0
   27.9840  -19.7480  -14.6699 C   0  0  0  0  0  0  0  0  0  0  0  0
   26.5702  -20.7677  -12.8690 C   0  0  2  0  0  0  0  0  0  0  0  0
   25.3926  -20.5964  -13.6598 N   0  0  0  0  0  0  0  0  0  0  0  0
   26.2644  -20.7143  -11.3943 C   0  0  0  0  0  0  0  0  0  0  0  0
   25.1440  -20.2180  -11.0813 O   0  0  0  0  0  0  0  0  0  0  0  0
   28.3511  -19.6261   -2.9812 O   0  0  0  0  0  0  0  0  0  0  0  0
   28.3124  -20.0724   -4.3130 C   0  0  0  0  0  0  0  0  0  0  0  0
   27.7557  -21.2990   -4.6010 C   0  0  0  0  0  0  0  0  0  0  0  0
   27.7452  -21.6844   -5.9238 C   0  0  0  0  0  0  0  0  0  0  0  0
   28.2628  -20.8944   -6.9304 C   0  0  0  0  0  0  0  0  0  0  0  0
   28.2456  -21.3396   -8.3426 C   0  0  0  0  0  0  0  0  0  0  0  0
   26.9744  -21.0900   -9.0657 C   0  0  2  0  0  0  0  0  0  0  0  0
   27.2121  -21.2042  -10.4762 N   0  0  0  0  0  0  0  0  0  0  0  0
   26.2714  -19.8384   -8.6973 C   0  0  0  0  0  0  0  0  0  0  0  0
   26.6963  -18.7003   -9.0048 O   0  0  0  0  0  0  0  0  0  0  0  0
   28.8195  -19.6681   -6.6414 C   0  0  0  0  0  0  0  0  0  0  0  0
   28.8317  -19.2749   -5.3043 C   0  0  0  0  0  0  0  0  0  0  0  0
   25.0871  -19.8760   -7.9785 O   0  0  0  0  0  0  0  0  0  0  0  0
  2  1  1  0
  3  2  2  0
  4  3  1  0
  5 11  1  0
  5  4  2  0
  6  7  1  0
  6  5  1  0
  7  8  1  6
  9  7  1  0
  9 17  1  0
 10  9  2  0
 11 12  2  0
 12  2  1  0
 14 13  1  1
 14 15  1  0
 14 16  1  0
 16 17  1  6
 16 18  1  0
 18 27  1  0
 19 18  2  0
 20 21  1  0
 21 31  2  0
 21 22  1  0
 22 23  2  0
 23 24  1  0
 24 25  1  0
 26 25  1  1
 26 28  1  0
 27 26  1  0
 28 29  2  0
 28 32  1  0
 30 24  2  0
 31 30  1  0
M  END
$$$$
