YVY.pdb
     RDKit          3D

 32 33  0  0  1  0  0  0  0  0999 V2000
   14.3134   -3.0821  -22.0634 O   0  0  0  0  0  0  0  0  0  0  0  0
   15.4060   -2.4833  -21.4557 C   0  0  0  0  0  0  0  0  0  0  0  0
   16.6830   -2.9694  -21.5738 C   0  0  0  0  0  0  0  0  0  0  0  0
   17.7448   -2.3422  -20.9515 C   0  0  0  0  0  0  0  0  0  0  0  0
   17.5710   -1.2021  -20.1853 C   0  0  0  0  0  0  0  0  0  0  0  0
   18.7233   -0.5325  -19.5177 C   0  0  0  0  0  0  0  0  0  0  0  0
   19.2319    0.5492  -20.4302 C   0  0  2  0  0  0  0  0  0  0  0  0
   19.8624   -0.0442  -21.5745 N   0  0  0  0  0  0  0  0  0  0  0  0
   20.1635    1.4383  -19.6879 C   0  0  0  0  0  0  0  0  0  0  0  0
   21.4032    1.2548  -19.7940 O   0  0  0  0  0  0  0  0  0  0  0  0
   16.2816   -0.7234  -20.0745 C   0  0  0  0  0  0  0  0  0  0  0  0
   15.2032   -1.3443  -20.6952 C   0  0  0  0  0  0  0  0  0  0  0  0
   21.2976    5.7219  -17.6717 C   0  0  0  0  0  0  0  0  0  0  0  0
   20.4103    4.8265  -18.5030 C   0  0  1  0  0  0  0  0  0  0  0  0
   20.5807    5.1609  -19.9578 C   0  0  0  0  0  0  0  0  0  0  0  0
   20.6710    3.3621  -18.2149 C   0  0  2  0  0  0  0  0  0  0  0  0
   19.7272    2.4996  -18.8529 N   0  0  0  0  0  0  0  0  0  0  0  0
   20.7154    3.1358  -16.7255 C   0  0  0  0  0  0  0  0  0  0  0  0
   19.6108    3.2423  -16.1187 O   0  0  0  0  0  0  0  0  0  0  0  0
   17.4670   -1.9984  -15.2275 O   0  0  0  0  0  0  0  0  0  0  0  0
   18.6271   -1.2264  -15.0477 C   0  0  0  0  0  0  0  0  0  0  0  0
   18.5643   -0.0727  -14.2977 C   0  0  0  0  0  0  0  0  0  0  0  0
   19.7328    0.6436  -14.1556 C   0  0  0  0  0  0  0  0  0  0  0  0
   20.9226    0.2428  -14.7291 C   0  0  0  0  0  0  0  0  0  0  0  0
   22.1607    1.0385  -14.5664 C   0  0  0  0  0  0  0  0  0  0  0  0
   21.9904    2.5049  -14.7147 C   0  0  2  0  0  0  0  0  0  0  0  0
   21.9441    2.8283  -16.1119 N   0  0  0  0  0  0  0  0  0  0  0  0
   22.9599    3.3346  -13.9610 C   0  0  0  0  0  0  0  0  0  0  0  0
   23.7250    4.1606  -14.5110 O   0  0  0  0  0  0  0  0  0  0  0  0
   20.9844   -0.9109  -15.4792 C   0  0  0  0  0  0  0  0  0  0  0  0
   19.8043   -1.6381  -15.6250 C   0  0  0  0  0  0  0  0  0  0  0  0
   23.0641    3.2271  -12.5832 O   0  0  0  0  0  0  0  0  0  0  0  0
  2  1  1  0
  3  2  2  0
  4  3  1  0
  5 11  1  0
  5  4  2  0
  6  7  1  0
  6  5  1  0
  7  8  1  6
  9  7  1  0
  9 17  1  0
 10  9  2  0
 11 12  2  0
 12  2  1  0
 14 13  1  1
 14 15  1  0
 14 16  1  0
 16 17  1  1
 16 18  1  0
 18 27  1  0
 19 18  2  0
 20 21  1  0
 21 31  2  0
 21 22  1  0
 22 23  2  0
 23 24  1  0
 24 25  1  0
 26 25  1  6
 26 28  1  0
 27 26  1  0
 28 29  2  0
 28 32  1  0
 30 24  2  0
 31 30  1  0
M  END
$$$$
