YVY.pdb
     RDKit          3D

 32 33  0  0  1  0  0  0  0  0999 V2000
   22.3447  -15.0419  -21.3202 O   0  0  0  0  0  0  0  0  0  0  0  0
   22.6129  -16.0671  -20.4267 C   0  0  0  0  0  0  0  0  0  0  0  0
   22.3941  -17.3886  -20.7217 C   0  0  0  0  0  0  0  0  0  0  0  0
   22.6751  -18.3802  -19.8021 C   0  0  0  0  0  0  0  0  0  0  0  0
   23.1869  -18.0889  -18.5489 C   0  0  0  0  0  0  0  0  0  0  0  0
   23.4869  -19.1662  -17.5634 C   0  0  0  0  0  0  0  0  0  0  0  0
   24.9639  -19.4456  -17.6068 C   0  0  2  0  0  0  0  0  0  0  0  0
   25.2908  -20.1138  -18.8339 N   0  0  0  0  0  0  0  0  0  0  0  0
   25.3602  -20.2486  -16.4205 C   0  0  0  0  0  0  0  0  0  0  0  0
   24.9825  -21.4452  -16.3347 O   0  0  0  0  0  0  0  0  0  0  0  0
   23.4024  -16.7559  -18.2647 C   0  0  0  0  0  0  0  0  0  0  0  0
   23.1242  -15.7471  -19.1805 C   0  0  0  0  0  0  0  0  0  0  0  0
   28.8400  -20.9499  -14.9635 C   0  0  0  0  0  0  0  0  0  0  0  0
   27.9452  -20.4528  -13.8534 C   0  0  1  0  0  0  0  0  0  0  0  0
   28.3466  -19.0562  -13.4718 C   0  0  0  0  0  0  0  0  0  0  0  0
   26.4816  -20.5472  -14.2339 C   0  0  2  0  0  0  0  0  0  0  0  0
   26.1532  -19.7342  -15.3620 N   0  0  0  0  0  0  0  0  0  0  0  0
   25.6227  -20.2179  -13.0401 C   0  0  0  0  0  0  0  0  0  0  0  0
   25.1933  -19.0298  -12.9809 O   0  0  0  0  0  0  0  0  0  0  0  0
   19.7345  -18.4052  -14.1276 O   0  0  0  0  0  0  0  0  0  0  0  0
   20.6104  -19.1498  -13.3196 C   0  0  0  0  0  0  0  0  0  0  0  0
   20.7399  -18.8299  -11.9861 C   0  0  0  0  0  0  0  0  0  0  0  0
   21.6128  -19.5942  -11.2429 C   0  0  0  0  0  0  0  0  0  0  0  0
   22.3345  -20.6369  -11.7881 C   0  0  0  0  0  0  0  0  0  0  0  0
   23.2724  -21.4351  -10.9661 C   0  0  0  0  0  0  0  0  0  0  0  0
   24.6511  -20.8937  -10.8799 C   0  0  2  0  0  0  0  0  0  0  0  0
   25.3542  -21.2188  -12.0877 N   0  0  0  0  0  0  0  0  0  0  0  0
   25.4014  -21.2636   -9.6566 C   0  0  0  0  0  0  0  0  0  0  0  0
   26.4084  -22.0093   -9.6720 O   0  0  0  0  0  0  0  0  0  0  0  0
   22.2045  -20.9559  -13.1218 C   0  0  0  0  0  0  0  0  0  0  0  0
   21.3222  -20.1849  -13.8767 C   0  0  0  0  0  0  0  0  0  0  0  0
   25.0097  -20.7899   -8.4145 O   0  0  0  0  0  0  0  0  0  0  0  0
  2  1  1  0
  3  2  2  0
  4  3  1  0
  5 11  1  0
  5  4  2  0
  6  7  1  0
  6  5  1  0
  7  8  1  6
  9  7  1  0
  9 17  1  0
 10  9  2  0
 11 12  2  0
 12  2  1  0
 14 13  1  6
 14 15  1  0
 14 16  1  0
 16 17  1  6
 16 18  1  0
 18 27  1  0
 19 18  2  0
 20 21  1  0
 21 31  2  0
 21 22  1  0
 22 23  2  0
 23 24  1  0
 24 25  1  0
 26 25  1  6
 26 28  1  0
 27 26  1  0
 28 29  2  0
 28 32  1  0
 30 24  2  0
 31 30  1  0
M  END
$$$$
