YVY.pdb
     RDKit          3D

 32 33  0  0  1  0  0  0  0  0999 V2000
   49.3276  -15.5365   -5.6655 O   0  0  0  0  0  0  0  0  0  0  0  0
   48.1866  -14.7529   -5.5898 C   0  0  0  0  0  0  0  0  0  0  0  0
   47.0491  -15.0222   -6.3071 C   0  0  0  0  0  0  0  0  0  0  0  0
   45.9328  -14.2153   -6.2026 C   0  0  0  0  0  0  0  0  0  0  0  0
   45.9102  -13.1053   -5.3752 C   0  0  0  0  0  0  0  0  0  0  0  0
   44.7006  -12.2408   -5.2694 C   0  0  0  0  0  0  0  0  0  0  0  0
   44.7457  -11.2303   -6.3822 C   0  0  2  0  0  0  0  0  0  0  0  0
   45.7570  -10.2516   -6.1021 N   0  0  0  0  0  0  0  0  0  0  0  0
   43.4074  -10.6059   -6.5510 C   0  0  0  0  0  0  0  0  0  0  0  0
   42.9934   -9.7964   -5.6821 O   0  0  0  0  0  0  0  0  0  0  0  0
   47.0607  -12.8455   -4.6592 C   0  0  0  0  0  0  0  0  0  0  0  0
   48.1918  -13.6489   -4.7544 C   0  0  0  0  0  0  0  0  0  0  0  0
   42.3080   -8.0907   -8.6124 C   0  0  0  0  0  0  0  0  0  0  0  0
   41.2858   -9.1712   -8.8730 C   0  0  1  0  0  0  0  0  0  0  0  0
   41.5177   -9.7648  -10.2336 C   0  0  0  0  0  0  0  0  0  0  0  0
   41.2931  -10.2196   -7.7791 C   0  0  2  0  0  0  0  0  0  0  0  0
   42.5564  -10.8753   -7.6542 N   0  0  0  0  0  0  0  0  0  0  0  0
   40.1745  -11.2031   -8.0086 C   0  0  0  0  0  0  0  0  0  0  0  0
   40.4413  -12.1720   -8.7765 O   0  0  0  0  0  0  0  0  0  0  0  0
   32.5730  -15.4314   -6.7874 O   0  0  0  0  0  0  0  0  0  0  0  0
   33.6710  -14.5595   -6.6943 C   0  0  0  0  0  0  0  0  0  0  0  0
   34.7436  -14.9024   -5.9011 C   0  0  0  0  0  0  0  0  0  0  0  0
   35.7915  -14.0092   -5.8483 C   0  0  0  0  0  0  0  0  0  0  0  0
   35.7882  -12.8202   -6.5492 C   0  0  0  0  0  0  0  0  0  0  0  0
   36.9254  -11.8755   -6.4655 C   0  0  0  0  0  0  0  0  0  0  0  0
   37.8357  -11.8810   -7.6371 C   0  0  2  0  0  0  0  0  0  0  0  0
   38.9344  -10.9958   -7.3759 N   0  0  0  0  0  0  0  0  0  0  0  0
   37.1864  -11.6265   -8.9448 C   0  0  0  0  0  0  0  0  0  0  0  0
   37.0070  -10.4752   -9.4059 O   0  0  0  0  0  0  0  0  0  0  0  0
   34.7150  -12.4779   -7.3420 C   0  0  0  0  0  0  0  0  0  0  0  0
   33.6532  -13.3792   -7.3979 C   0  0  0  0  0  0  0  0  0  0  0  0
   36.7384  -12.6769   -9.7299 O   0  0  0  0  0  0  0  0  0  0  0  0
  2  1  1  0
  3  2  2  0
  4  3  1  0
  5 11  1  0
  5  4  2  0
  6  7  1  0
  6  5  1  0
  7  8  1  1
  9  7  1  0
  9 17  1  0
 10  9  2  0
 11 12  2  0
 12  2  1  0
 14 13  1  1
 14 15  1  0
 14 16  1  0
 16 17  1  6
 16 18  1  0
 18 27  1  0
 19 18  2  0
 20 21  1  0
 21 31  2  0
 21 22  1  0
 22 23  2  0
 23 24  1  0
 24 25  1  0
 26 25  1  1
 26 28  1  0
 27 26  1  0
 28 29  2  0
 28 32  1  0
 30 24  2  0
 31 30  1  0
M  END
$$$$
