YVY.pdb
     RDKit          3D

 32 33  0  0  1  0  0  0  0  0999 V2000
   17.3645  -14.7547  -16.8451 O   0  0  0  0  0  0  0  0  0  0  0  0
   18.1633  -13.6512  -16.5890 C   0  0  0  0  0  0  0  0  0  0  0  0
   18.6088  -13.3298  -15.3323 C   0  0  0  0  0  0  0  0  0  0  0  0
   19.4038  -12.2203  -15.1199 C   0  0  0  0  0  0  0  0  0  0  0  0
   19.7853  -11.3871  -16.1579 C   0  0  0  0  0  0  0  0  0  0  0  0
   20.6434  -10.1921  -15.9185 C   0  0  0  0  0  0  0  0  0  0  0  0
   21.9322  -10.3801  -16.6702 C   0  0  2  0  0  0  0  0  0  0  0  0
   22.7078  -11.4123  -16.0439 N   0  0  0  0  0  0  0  0  0  0  0  0
   22.6741   -9.0935  -16.7290 C   0  0  0  0  0  0  0  0  0  0  0  0
   23.4528   -8.7900  -15.7892 O   0  0  0  0  0  0  0  0  0  0  0  0
   19.3305  -11.7214  -17.4170 C   0  0  0  0  0  0  0  0  0  0  0  0
   18.5297  -12.8351  -17.6456 C   0  0  0  0  0  0  0  0  0  0  0  0
   24.8456   -5.5100  -19.1866 C   0  0  0  0  0  0  0  0  0  0  0  0
   24.1019   -6.8232  -19.1361 C   0  0  1  0  0  0  0  0  0  0  0  0
   25.0617   -7.9538  -19.3767 C   0  0  0  0  0  0  0  0  0  0  0  0
   23.3405   -6.9818  -17.8358 C   0  0  2  0  0  0  0  0  0  0  0  0
   22.5520   -8.1730  -17.8021 N   0  0  0  0  0  0  0  0  0  0  0  0
   22.5059   -5.7531  -17.5809 C   0  0  0  0  0  0  0  0  0  0  0  0
   21.5621   -5.5487  -18.3975 O   0  0  0  0  0  0  0  0  0  0  0  0
   18.8241    0.9336  -13.2967 O   0  0  0  0  0  0  0  0  0  0  0  0
   19.5963   -0.1808  -13.6658 C   0  0  0  0  0  0  0  0  0  0  0  0
   20.9601   -0.0451  -13.8035 C   0  0  0  0  0  0  0  0  0  0  0  0
   21.6658   -1.1713  -14.1670 C   0  0  0  0  0  0  0  0  0  0  0  0
   21.0555   -2.3895  -14.3882 C   0  0  0  0  0  0  0  0  0  0  0  0
   21.8394   -3.5807  -14.7870 C   0  0  0  0  0  0  0  0  0  0  0  0
   22.0556   -3.7319  -16.2471 C   0  0  2  0  0  0  0  0  0  0  0  0
   22.8131   -4.9274  -16.4832 N   0  0  0  0  0  0  0  0  0  0  0  0
   22.6216   -2.5445  -16.9298 C   0  0  0  0  0  0  0  0  0  0  0  0
   23.8418   -2.2601  -16.9067 O   0  0  0  0  0  0  0  0  0  0  0  0
   19.6915   -2.5242  -14.2505 C   0  0  0  0  0  0  0  0  0  0  0  0
   18.9744   -1.3870  -13.8827 C   0  0  0  0  0  0  0  0  0  0  0  0
   21.8044   -1.6774  -17.6376 O   0  0  0  0  0  0  0  0  0  0  0  0
  2  1  1  0
  3  2  2  0
  4  3  1  0
  5 11  1  0
  5  4  2  0
  6  7  1  0
  6  5  1  0
  7  8  1  1
  9  7  1  0
  9 17  1  0
 10  9  2  0
 11 12  2  0
 12  2  1  0
 14 13  1  1
 14 15  1  0
 14 16  1  0
 16 17  1  6
 16 18  1  0
 18 27  1  0
 19 18  2  0
 20 21  1  0
 21 31  2  0
 21 22  1  0
 22 23  2  0
 23 24  1  0
 24 25  1  0
 26 25  1  1
 26 28  1  0
 27 26  1  0
 28 29  2  0
 28 32  1  0
 30 24  2  0
 31 30  1  0
M  END
$$$$
