PKR.pdb
     RDKit          3D

 28 28  0  0  1  0  0  0  0  0999 V2000
    7.8941  -19.0964   19.2280 N   0  0  0  0  0  0  0  0  0  0  0  0
    7.1598  -19.3136   18.0132 C   0  0  0  0  0  0  0  0  0  0  0  0
    8.0465  -18.9925   16.8608 C   0  0  0  0  0  0  0  0  0  0  0  0
    9.3916  -18.7087   17.4355 C   0  0  0  0  0  0  0  0  0  0  0  0
    9.2702  -18.9646   18.9009 C   0  0  1  0  0  0  0  0  0  0  0  0
    9.8615  -17.8294   19.7028 C   0  0  0  0  0  0  0  0  0  0  0  0
   11.1112  -17.7337   19.8093 O   0  0  0  0  0  0  0  0  0  0  0  0
    8.9851  -16.9139   20.3050 N   0  0  0  0  0  0  0  0  0  0  0  0
    9.3722  -15.7779   21.0899 C   0  0  1  0  0  0  0  0  0  0  0  0
    8.3537  -14.6310   21.0545 C   0  0  0  0  0  0  0  0  0  0  0  0
    8.1089  -14.1706   19.6420 C   0  0  0  0  0  0  0  0  0  0  0  0
    7.0986  -13.0631   19.6361 C   0  0  0  0  0  0  0  0  0  0  0  0
    6.8761  -12.5410   18.2449 C   0  0  0  0  0  0  0  0  0  0  0  0
    5.8572  -11.5135   18.2365 N   0  0  0  0  0  0  0  0  0  0  0  0
    9.7914  -16.0637   22.4557 C   0  0  0  0  0  0  0  0  0  0  0  0
    8.9418  -16.4774   23.3087 O   0  0  0  0  0  0  0  0  0  0  0  0
   14.6112  -20.3630   22.6788 N   0  0  0  0  0  0  0  0  0  0  0  0
   14.3986  -21.3306   23.7078 C   0  0  0  0  0  0  0  0  0  0  0  0
   15.1823  -22.3278   23.7763 N   0  0  0  0  0  0  0  0  0  0  0  0
   13.3323  -21.1586   24.6171 N   0  0  0  0  0  0  0  0  0  0  0  0
   12.1450  -20.4700   24.2164 C   0  0  0  0  0  0  0  0  0  0  0  0
   12.1886  -19.0337   24.7016 C   0  0  0  0  0  0  0  0  0  0  0  0
   11.6532  -18.1644   23.5698 C   0  0  0  0  0  0  0  0  0  0  0  0
   11.6217  -16.7156   24.0529 C   0  0  2  0  0  0  0  0  0  0  0  0
   11.1189  -15.9141   22.9335 N   0  0  0  0  0  0  0  0  0  0  0  0
   13.0204  -16.3518   24.3894 C   0  0  0  0  0  0  0  0  0  0  0  0
   13.6495  -16.8657   25.3255 O   0  0  0  0  0  0  0  0  0  0  0  0
   13.6349  -15.3785   23.5947 O   0  0  0  0  0  0  0  0  0  0  0  0
  1  2  1  0
  3  2  1  0
  4  3  1  0
  5  4  1  0
  5  1  1  0
  6  8  1  0
  5  6  1  1
  7  6  2  0
  9  8  1  0
 10 11  1  0
  9 10  1  1
 12 11  1  0
 13 14  1  0
 13 12  1  0
 15 16  2  0
 15  9  1  0
 17 18  1  0
 18 19  2  0
 20 18  1  0
 20 21  1  0
 21 22  1  0
 22 23  1  0
 24 23  1  6
 24 25  1  0
 24 26  1  0
 25 15  1  0
 26 28  1  0
 27 26  2  0
M  END
$$$$
