PKR.pdb
     RDKit          3D

 28 28  0  0  1  0  0  0  0  0999 V2000
    9.4105  -20.2762   17.6591 N   0  0  0  0  0  0  0  0  0  0  0  0
    8.7059  -20.6359   16.4608 C   0  0  0  0  0  0  0  0  0  0  0  0
    9.3219  -19.9117   15.3147 C   0  0  0  0  0  0  0  0  0  0  0  0
   10.5187  -19.2104   15.8586 C   0  0  0  0  0  0  0  0  0  0  0  0
   10.6169  -19.6235   17.2895 C   0  0  1  0  0  0  0  0  0  0  0  0
   10.8265  -18.4278   18.1884 C   0  0  0  0  0  0  0  0  0  0  0  0
   11.9752  -17.9254   18.2901 O   0  0  0  0  0  0  0  0  0  0  0  0
    9.7199  -17.9166   18.8832 N   0  0  0  0  0  0  0  0  0  0  0  0
    9.7438  -16.8112   19.7966 C   0  0  1  0  0  0  0  0  0  0  0  0
    8.7985  -15.6687   19.4030 C   0  0  0  0  0  0  0  0  0  0  0  0
    8.9957  -14.4734   20.2970 C   0  0  0  0  0  0  0  0  0  0  0  0
    8.0551  -13.3773   19.8955 C   0  0  0  0  0  0  0  0  0  0  0  0
    8.1766  -12.1958   20.8155 C   0  0  0  0  0  0  0  0  0  0  0  0
    7.2000  -11.1810   20.4835 N   0  0  0  0  0  0  0  0  0  0  0  0
    9.5973  -17.1499   21.2061 C   0  0  0  0  0  0  0  0  0  0  0  0
    8.4997  -17.6324   21.6339 O   0  0  0  0  0  0  0  0  0  0  0  0
   12.0128  -20.1798   28.9212 N   0  0  0  0  0  0  0  0  0  0  0  0
   12.8750  -20.6510   27.8844 C   0  0  0  0  0  0  0  0  0  0  0  0
   14.0025  -21.1394   28.2060 N   0  0  0  0  0  0  0  0  0  0  0  0
   12.4587  -20.5641   26.5381 N   0  0  0  0  0  0  0  0  0  0  0  0
   12.7957  -19.4196   25.7500 C   0  0  0  0  0  0  0  0  0  0  0  0
   11.5417  -18.6401   25.4033 C   0  0  0  0  0  0  0  0  0  0  0  0
   11.7049  -18.1479   23.9699 C   0  0  0  0  0  0  0  0  0  0  0  0
   10.4251  -17.4182   23.5659 C   0  0  2  0  0  0  0  0  0  0  0  0
   10.6150  -16.9807   22.1800 N   0  0  0  0  0  0  0  0  0  0  0  0
   10.2923  -16.2589   24.4826 C   0  0  0  0  0  0  0  0  0  0  0  0
   10.5610  -15.0956   24.1501 O   0  0  0  0  0  0  0  0  0  0  0  0
    9.8394  -16.5205   25.7799 O   0  0  0  0  0  0  0  0  0  0  0  0
  1  2  1  0
  3  2  1  0
  4  3  1  0
  5  4  1  0
  5  1  1  0
  6  8  1  0
  5  6  1  1
  7  6  2  0
  9  8  1  0
 10 11  1  0
  9 10  1  6
 12 11  1  0
 13 14  1  0
 13 12  1  0
 15 16  2  0
 15  9  1  0
 17 18  1  0
 18 19  2  0
 20 18  1  0
 20 21  1  0
 21 22  1  0
 22 23  1  0
 24 23  1  1
 24 25  1  0
 24 26  1  0
 25 15  1  0
 26 28  1  0
 27 26  2  0
M  END
$$$$
