PKR.pdb
     RDKit          3D

 28 28  0  0  1  0  0  0  0  0999 V2000
    8.1975  -15.1593   17.8161 N   0  0  0  0  0  0  0  0  0  0  0  0
    7.3857  -14.2480   17.0595 C   0  0  0  0  0  0  0  0  0  0  0  0
    7.4393  -12.9116   17.7141 C   0  0  0  0  0  0  0  0  0  0  0  0
    8.4336  -13.0269   18.8177 C   0  0  0  0  0  0  0  0  0  0  0  0
    8.9991  -14.4042   18.7136 C   0  0  1  0  0  0  0  0  0  0  0  0
    9.0133  -15.0903   20.0593 C   0  0  0  0  0  0  0  0  0  0  0  0
    9.7132  -14.6125   20.9888 O   0  0  0  0  0  0  0  0  0  0  0  0
    8.2363  -16.2470   20.2237 N   0  0  0  0  0  0  0  0  0  0  0  0
    8.1082  -17.0029   21.4357 C   0  0  1  0  0  0  0  0  0  0  0  0
    7.0570  -18.1176   21.3560 C   0  0  0  0  0  0  0  0  0  0  0  0
    6.9718  -18.8725   22.6560 C   0  0  0  0  0  0  0  0  0  0  0  0
    6.0101  -20.0143   22.5190 C   0  0  0  0  0  0  0  0  0  0  0  0
    5.8475  -20.7442   23.8221 C   0  0  0  0  0  0  0  0  0  0  0  0
    5.0058  -21.9098   23.6588 N   0  0  0  0  0  0  0  0  0  0  0  0
    9.3528  -17.4971   22.0097 C   0  0  0  0  0  0  0  0  0  0  0  0
   10.0029  -18.4197   21.4208 O   0  0  0  0  0  0  0  0  0  0  0  0
   14.2469  -13.5584   18.7497 N   0  0  0  0  0  0  0  0  0  0  0  0
   13.5138  -14.0935   19.8526 C   0  0  0  0  0  0  0  0  0  0  0  0
   12.3418  -13.6567   20.0733 N   0  0  0  0  0  0  0  0  0  0  0  0
   14.1027  -15.0867   20.6652 N   0  0  0  0  0  0  0  0  0  0  0  0
   13.6889  -15.2472   22.0245 C   0  0  0  0  0  0  0  0  0  0  0  0
   12.6620  -16.3585   22.1271 C   0  0  0  0  0  0  0  0  0  0  0  0
   12.2182  -16.4223   23.5839 C   0  0  0  0  0  0  0  0  0  0  0  0
   11.1933  -17.5464   23.7232 C   0  0  2  0  0  0  0  0  0  0  0  0
    9.9236  -17.0175   23.2167 N   0  0  0  0  0  0  0  0  0  0  0  0
   11.1057  -17.8614   25.1706 C   0  0  0  0  0  0  0  0  0  0  0  0
   10.1284  -17.5646   25.8725 O   0  0  0  0  0  0  0  0  0  0  0  0
   12.1937  -18.5266   25.7453 O   0  0  0  0  0  0  0  0  0  0  0  0
  1  2  1  0
  3  2  1  0
  4  3  1  0
  5  4  1  0
  5  1  1  0
  6  8  1  0
  5  6  1  1
  7  6  2  0
  9  8  1  0
 10 11  1  0
  9 10  1  6
 12 11  1  0
 13 14  1  0
 13 12  1  0
 15 16  2  0
 15  9  1  0
 17 18  1  0
 18 19  2  0
 20 18  1  0
 20 21  1  0
 21 22  1  0
 22 23  1  0
 24 23  1  1
 24 25  1  0
 24 26  1  0
 25 15  1  0
 26 28  1  0
 27 26  2  0
M  END
$$$$
