PKR.pdb
     RDKit          3D

 28 28  0  0  1  0  0  0  0  0999 V2000
    7.1883  -14.7260   19.2938 N   0  0  0  0  0  0  0  0  0  0  0  0
    6.6019  -13.8895   18.2846 C   0  0  0  0  0  0  0  0  0  0  0  0
    7.5673  -12.8067   17.9485 C   0  0  0  0  0  0  0  0  0  0  0  0
    8.8170  -13.1136   18.6994 C   0  0  0  0  0  0  0  0  0  0  0  0
    8.5728  -14.4197   19.3792 C   0  0  1  0  0  0  0  0  0  0  0  0
    8.9764  -14.3606   20.8335 C   0  0  0  0  0  0  0  0  0  0  0  0
   10.1956  -14.2848   21.1337 O   0  0  0  0  0  0  0  0  0  0  0  0
    7.9651  -14.3921   21.8057 N   0  0  0  0  0  0  0  0  0  0  0  0
    8.1591  -14.2474   23.2192 C   0  0  1  0  0  0  0  0  0  0  0  0
    7.0083  -13.5192   23.9258 C   0  0  0  0  0  0  0  0  0  0  0  0
    7.3713  -13.1906   25.3496 C   0  0  0  0  0  0  0  0  0  0  0  0
    6.2926  -12.3542   25.9694 C   0  0  0  0  0  0  0  0  0  0  0  0
    6.6170  -12.0254   27.3991 C   0  0  0  0  0  0  0  0  0  0  0  0
    5.6332  -11.1224   27.9565 N   0  0  0  0  0  0  0  0  0  0  0  0
    8.5296  -15.4604   23.9361 C   0  0  0  0  0  0  0  0  0  0  0  0
    7.6772  -16.3931   24.0918 O   0  0  0  0  0  0  0  0  0  0  0  0
   14.9495  -20.0882   23.9651 N   0  0  0  0  0  0  0  0  0  0  0  0
   14.0028  -21.1135   24.2701 C   0  0  0  0  0  0  0  0  0  0  0  0
   14.4345  -22.2633   24.5934 N   0  0  0  0  0  0  0  0  0  0  0  0
   12.6214  -20.8284   24.2062 N   0  0  0  0  0  0  0  0  0  0  0  0
   12.1690  -19.5296   23.8150 C   0  0  0  0  0  0  0  0  0  0  0  0
   12.0875  -18.6212   25.0267 C   0  0  0  0  0  0  0  0  0  0  0  0
   11.6384  -17.2525   24.5283 C   0  0  0  0  0  0  0  0  0  0  0  0
   10.1965  -17.0282   24.9801 C   0  0  2  0  0  0  0  0  0  0  0  0
    9.8107  -15.6992   24.4970 N   0  0  0  0  0  0  0  0  0  0  0  0
   10.2054  -17.0798   26.4631 C   0  0  0  0  0  0  0  0  0  0  0  0
   10.4202  -18.1178   27.1053 O   0  0  0  0  0  0  0  0  0  0  0  0
    9.9563  -15.8838   27.1442 O   0  0  0  0  0  0  0  0  0  0  0  0
  1  2  1  0
  3  2  1  0
  4  3  1  0
  5  4  1  0
  5  1  1  0
  6  8  1  0
  5  6  1  1
  7  6  2  0
  9  8  1  0
 10 11  1  0
  9 10  1  1
 12 11  1  0
 13 14  1  0
 13 12  1  0
 15 16  2  0
 15  9  1  0
 17 18  1  0
 18 19  2  0
 20 18  1  0
 20 21  1  0
 21 22  1  0
 22 23  1  0
 24 23  1  1
 24 25  1  0
 24 26  1  0
 25 15  1  0
 26 28  1  0
 27 26  2  0
M  END
$$$$
