PKR.pdb
     RDKit          3D

 28 28  0  0  1  0  0  0  0  0999 V2000
    8.6919  -14.7934   17.4296 N   0  0  0  0  0  0  0  0  0  0  0  0
    8.1062  -14.1302   16.2987 C   0  0  0  0  0  0  0  0  0  0  0  0
    7.4790  -12.8631   16.7662 C   0  0  0  0  0  0  0  0  0  0  0  0
    7.8379  -12.7260   18.2058 C   0  0  0  0  0  0  0  0  0  0  0  0
    8.7432  -13.8728   18.5104 C   0  0  1  0  0  0  0  0  0  0  0  0
    8.3223  -14.5769   19.7788 C   0  0  0  0  0  0  0  0  0  0  0  0
    8.1976  -13.9144   20.8408 O   0  0  0  0  0  0  0  0  0  0  0  0
    8.0832  -15.9584   19.7240 N   0  0  0  0  0  0  0  0  0  0  0  0
    7.7389  -16.7923   20.8388 C   0  0  1  0  0  0  0  0  0  0  0  0
    7.3612  -18.2250   20.4406 C   0  0  0  0  0  0  0  0  0  0  0  0
    5.8678  -18.3765   20.3239 C   0  0  0  0  0  0  0  0  0  0  0  0
    5.5300  -19.7734   19.8975 C   0  0  0  0  0  0  0  0  0  0  0  0
    4.0505  -19.9332   19.6902 C   0  0  0  0  0  0  0  0  0  0  0  0
    3.7291  -21.2858   19.2890 N   0  0  0  0  0  0  0  0  0  0  0  0
    8.6826  -16.7890   21.9487 C   0  0  0  0  0  0  0  0  0  0  0  0
    9.9236  -16.9692   21.7294 O   0  0  0  0  0  0  0  0  0  0  0  0
   10.2639  -13.3946   29.9747 N   0  0  0  0  0  0  0  0  0  0  0  0
   10.2852  -14.8167   29.8420 C   0  0  0  0  0  0  0  0  0  0  0  0
   11.1703  -15.4733   30.4733 N   0  0  0  0  0  0  0  0  0  0  0  0
    9.3309  -15.4546   29.0198 N   0  0  0  0  0  0  0  0  0  0  0  0
    8.9248  -14.8565   27.7862 C   0  0  0  0  0  0  0  0  0  0  0  0
    9.6570  -15.5066   26.6279 C   0  0  0  0  0  0  0  0  0  0  0  0
    8.6230  -15.7729   25.5401 C   0  0  0  0  0  0  0  0  0  0  0  0
    9.3358  -16.4079   24.3475 C   0  0  2  0  0  0  0  0  0  0  0  0
    8.3208  -16.5940   23.3066 N   0  0  0  0  0  0  0  0  0  0  0  0
    9.8687  -17.7104   24.8183 C   0  0  0  0  0  0  0  0  0  0  0  0
    9.2582  -18.7811   24.6883 O   0  0  0  0  0  0  0  0  0  0  0  0
   11.1238  -17.7001   25.4355 O   0  0  0  0  0  0  0  0  0  0  0  0
  1  2  1  0
  3  2  1  0
  4  3  1  0
  5  4  1  0
  5  1  1  0
  6  8  1  0
  5  6  1  1
  7  6  2  0
  9  8  1  0
 10 11  1  0
  9 10  1  6
 12 11  1  0
 13 14  1  0
 13 12  1  0
 15 16  2  0
 15  9  1  0
 17 18  1  0
 18 19  2  0
 20 18  1  0
 20 21  1  0
 21 22  1  0
 22 23  1  0
 24 23  1  1
 24 25  1  0
 24 26  1  0
 25 15  1  0
 26 28  1  0
 27 26  2  0
M  END
$$$$
