PKR.pdb
     RDKit          3D

 28 28  0  0  1  0  0  0  0  0999 V2000
   10.5352  -20.2986   18.2529 N   0  0  0  0  0  0  0  0  0  0  0  0
   10.5880  -20.8451   16.9261 C   0  0  0  0  0  0  0  0  0  0  0  0
   11.8756  -20.4385   16.2982 C   0  0  0  0  0  0  0  0  0  0  0  0
   12.6559  -19.7418   17.3592 C   0  0  0  0  0  0  0  0  0  0  0  0
   11.8357  -19.8457   18.6019 C   0  0  1  0  0  0  0  0  0  0  0  0
   11.7232  -18.5076   19.2935 C   0  0  0  0  0  0  0  0  0  0  0  0
   12.7590  -17.9595   19.7507 O   0  0  0  0  0  0  0  0  0  0  0  0
   10.4537  -17.9195   19.4008 N   0  0  0  0  0  0  0  0  0  0  0  0
   10.1688  -16.6488   20.0014 C   0  0  1  0  0  0  0  0  0  0  0  0
    9.0027  -15.9039   19.3388 C   0  0  0  0  0  0  0  0  0  0  0  0
    8.9164  -14.4855   19.8364 C   0  0  0  0  0  0  0  0  0  0  0  0
    7.8153  -13.7618   19.1214 C   0  0  0  0  0  0  0  0  0  0  0  0
    7.8428  -12.2921   19.4321 C   0  0  0  0  0  0  0  0  0  0  0  0
    6.7406  -11.6086   18.7903 N   0  0  0  0  0  0  0  0  0  0  0  0
   10.0332  -16.6490   21.4520 C   0  0  0  0  0  0  0  0  0  0  0  0
    9.3974  -17.5875   22.0315 O   0  0  0  0  0  0  0  0  0  0  0  0
    7.7328  -12.2271   26.2873 N   0  0  0  0  0  0  0  0  0  0  0  0
    6.5041  -12.9388   26.4420 C   0  0  0  0  0  0  0  0  0  0  0  0
    5.4271  -12.2754   26.5563 N   0  0  0  0  0  0  0  0  0  0  0  0
    6.5141  -14.3505   26.4641 N   0  0  0  0  0  0  0  0  0  0  0  0
    6.9462  -15.0881   25.3179 C   0  0  0  0  0  0  0  0  0  0  0  0
    8.4435  -14.9319   25.1339 C   0  0  0  0  0  0  0  0  0  0  0  0
    8.8437  -15.8209   23.9622 C   0  0  0  0  0  0  0  0  0  0  0  0
   10.3515  -15.6898   23.7552 C   0  0  2  0  0  0  0  0  0  0  0  0
   10.5713  -15.6526   22.3066 N   0  0  0  0  0  0  0  0  0  0  0  0
   10.9677  -16.8957   24.3620 C   0  0  0  0  0  0  0  0  0  0  0  0
   10.4530  -18.0218   24.3081 O   0  0  0  0  0  0  0  0  0  0  0  0
   12.1895  -16.7243   25.0210 O   0  0  0  0  0  0  0  0  0  0  0  0
  1  2  1  0
  3  2  1  0
  4  3  1  0
  5  4  1  0
  5  1  1  0
  6  8  1  0
  5  6  1  6
  7  6  2  0
  9  8  1  0
 10 11  1  0
  9 10  1  6
 12 11  1  0
 13 14  1  0
 13 12  1  0
 15 16  2  0
 15  9  1  0
 17 18  1  0
 18 19  2  0
 20 18  1  0
 20 21  1  0
 21 22  1  0
 22 23  1  0
 24 23  1  6
 24 25  1  0
 24 26  1  0
 25 15  1  0
 26 28  1  0
 27 26  2  0
M  END
$$$$
