PKR.pdb
     RDKit          3D

 28 28  0  0  1  0  0  0  0  0999 V2000
    7.7480  -15.2041   19.5400 N   0  0  0  0  0  0  0  0  0  0  0  0
    6.9493  -14.5997   18.5110 C   0  0  0  0  0  0  0  0  0  0  0  0
    7.4787  -13.2340   18.2425 C   0  0  0  0  0  0  0  0  0  0  0  0
    8.7192  -13.0995   19.0569 C   0  0  0  0  0  0  0  0  0  0  0  0
    8.9262  -14.4277   19.7052 C   0  0  1  0  0  0  0  0  0  0  0  0
    9.2137  -14.2749   21.1802 C   0  0  0  0  0  0  0  0  0  0  0  0
   10.3716  -13.9558   21.5540 O   0  0  0  0  0  0  0  0  0  0  0  0
    8.1668  -14.4964   22.0878 N   0  0  0  0  0  0  0  0  0  0  0  0
    8.2530  -14.3617   23.5130 C   0  0  1  0  0  0  0  0  0  0  0  0
    6.9790  -13.7972   24.1548 C   0  0  0  0  0  0  0  0  0  0  0  0
    7.1989  -13.4928   25.6128 C   0  0  0  0  0  0  0  0  0  0  0  0
    5.9361  -12.9559   26.2164 C   0  0  0  0  0  0  0  0  0  0  0  0
    6.1130  -12.6763   27.6820 C   0  0  0  0  0  0  0  0  0  0  0  0
    4.9154  -12.0893   28.2433 N   0  0  0  0  0  0  0  0  0  0  0  0
    8.7260  -15.5363   24.2336 C   0  0  0  0  0  0  0  0  0  0  0  0
    7.9978  -16.5785   24.2994 O   0  0  0  0  0  0  0  0  0  0  0  0
   15.4429  -15.5288   21.8589 N   0  0  0  0  0  0  0  0  0  0  0  0
   14.8172  -16.7754   22.1666 C   0  0  0  0  0  0  0  0  0  0  0  0
   14.7663  -17.6692   21.2657 N   0  0  0  0  0  0  0  0  0  0  0  0
   14.2746  -16.9844   23.4533 N   0  0  0  0  0  0  0  0  0  0  0  0
   13.3713  -18.0674   23.6893 C   0  0  0  0  0  0  0  0  0  0  0  0
   11.9621  -17.5379   23.8736 C   0  0  0  0  0  0  0  0  0  0  0  0
   11.8511  -17.0588   25.3163 C   0  0  0  0  0  0  0  0  0  0  0  0
   10.3748  -16.8236   25.6302 C   0  0  2  0  0  0  0  0  0  0  0  0
    9.9790  -15.6198   24.8937 N   0  0  0  0  0  0  0  0  0  0  0  0
   10.2829  -16.6119   27.0961 C   0  0  0  0  0  0  0  0  0  0  0  0
   10.0048  -17.5160   27.8969 O   0  0  0  0  0  0  0  0  0  0  0  0
   10.5270  -15.3187   27.5700 O   0  0  0  0  0  0  0  0  0  0  0  0
  1  2  1  0
  3  2  1  0
  4  3  1  0
  5  4  1  0
  5  1  1  0
  6  8  1  0
  5  6  1  1
  7  6  2  0
  9  8  1  0
 10 11  1  0
  9 10  1  1
 12 11  1  0
 13 14  1  0
 13 12  1  0
 15 16  2  0
 15  9  1  0
 17 18  1  0
 18 19  2  0
 20 18  1  0
 20 21  1  0
 21 22  1  0
 22 23  1  0
 24 23  1  1
 24 25  1  0
 24 26  1  0
 25 15  1  0
 26 28  1  0
 27 26  2  0
M  END
$$$$
