PKR.pdb
     RDKit          3D

 28 28  0  0  1  0  0  0  0  0999 V2000
    7.5382  -14.7666   19.1209 N   0  0  0  0  0  0  0  0  0  0  0  0
    6.4821  -13.8683   18.7471 C   0  0  0  0  0  0  0  0  0  0  0  0
    6.9863  -12.4719   18.8622 C   0  0  0  0  0  0  0  0  0  0  0  0
    8.4369  -12.5771   19.1856 C   0  0  0  0  0  0  0  0  0  0  0  0
    8.7553  -14.0350   19.1574 C   0  0  1  0  0  0  0  0  0  0  0  0
    9.5409  -14.4446   20.3808 C   0  0  0  0  0  0  0  0  0  0  0  0
   10.7065  -14.0008   20.5436 O   0  0  0  0  0  0  0  0  0  0  0  0
    8.9340  -15.3140   21.2999 N   0  0  0  0  0  0  0  0  0  0  0  0
    9.5266  -15.7927   22.5150 C   0  0  1  0  0  0  0  0  0  0  0  0
    8.6030  -16.7075   23.3299 C   0  0  0  0  0  0  0  0  0  0  0  0
    9.2507  -17.1092   24.6284 C   0  0  0  0  0  0  0  0  0  0  0  0
    8.3208  -17.9875   25.4102 C   0  0  0  0  0  0  0  0  0  0  0  0
    8.9048  -18.3371   26.7496 C   0  0  0  0  0  0  0  0  0  0  0  0
    7.9358  -19.0325   27.5690 N   0  0  0  0  0  0  0  0  0  0  0  0
   10.8570  -16.3725   22.3863 C   0  0  0  0  0  0  0  0  0  0  0  0
   11.0294  -17.4200   21.6837 O   0  0  0  0  0  0  0  0  0  0  0  0
   17.9445  -13.3987   19.3630 N   0  0  0  0  0  0  0  0  0  0  0  0
   16.7209  -13.9927   18.9268 C   0  0  0  0  0  0  0  0  0  0  0  0
   16.3252  -13.7691   17.7409 N   0  0  0  0  0  0  0  0  0  0  0  0
   15.9858  -14.8075   19.8152 N   0  0  0  0  0  0  0  0  0  0  0  0
   16.4166  -14.9727   21.1686 C   0  0  0  0  0  0  0  0  0  0  0  0
   15.5780  -16.0338   21.8549 C   0  0  0  0  0  0  0  0  0  0  0  0
   14.2236  -15.4040   22.1587 C   0  0  0  0  0  0  0  0  0  0  0  0
   13.3355  -16.4667   22.8033 C   0  0  2  0  0  0  0  0  0  0  0  0
   12.0222  -15.8472   23.0020 N   0  0  0  0  0  0  0  0  0  0  0  0
   13.9674  -16.8157   24.0998 C   0  0  0  0  0  0  0  0  0  0  0  0
   13.4927  -16.4884   25.1968 O   0  0  0  0  0  0  0  0  0  0  0  0
   15.1565  -17.5508   24.0521 O   0  0  0  0  0  0  0  0  0  0  0  0
  1  2  1  0
  3  2  1  0
  4  3  1  0
  5  4  1  0
  5  1  1  0
  6  8  1  0
  5  6  1  1
  7  6  2  0
  9  8  1  0
 10 11  1  0
  9 10  1  6
 12 11  1  0
 13 14  1  0
 13 12  1  0
 15 16  2  0
 15  9  1  0
 17 18  1  0
 18 19  2  0
 20 18  1  0
 20 21  1  0
 21 22  1  0
 22 23  1  0
 24 23  1  1
 24 25  1  0
 24 26  1  0
 25 15  1  0
 26 28  1  0
 27 26  2  0
M  END
$$$$
