YIQ.pdb
     RDKit          3D

 30 30  0  0  1  0  0  0  0  0999 V2000
    7.0697  -14.1968   15.0237 O   0  0  0  0  0  0  0  0  0  0  0  0
    7.2577  -14.3848   16.3950 C   0  0  0  0  0  0  0  0  0  0  0  0
    6.9736  -15.6263   16.9237 C   0  0  0  0  0  0  0  0  0  0  0  0
    7.1431  -15.8652   18.2781 C   0  0  0  0  0  0  0  0  0  0  0  0
    7.5974  -14.8680   19.1163 C   0  0  0  0  0  0  0  0  0  0  0  0
    7.7868  -15.1004   20.5716 C   0  0  0  0  0  0  0  0  0  0  0  0
    8.8274  -14.1471   21.1075 C   0  0  2  0  0  0  0  0  0  0  0  0
   10.0749  -14.3856   20.4340 N   0  0  0  0  0  0  0  0  0  0  0  0
    8.9597  -14.2386   22.5840 C   0  0  0  0  0  0  0  0  0  0  0  0
    9.9693  -14.8487   23.0625 O   0  0  0  0  0  0  0  0  0  0  0  0
    7.8745  -13.6350   18.5629 C   0  0  0  0  0  0  0  0  0  0  0  0
    7.7108  -13.3816   17.2161 C   0  0  0  0  0  0  0  0  0  0  0  0
    6.5323  -11.9436   27.8658 C   0  0  0  0  0  0  0  0  0  0  0  0
    7.4835  -12.8648   27.1353 C   0  0  0  0  0  0  0  0  0  0  0  0
    7.2340  -12.9243   25.6699 C   0  0  2  0  0  0  0  0  0  0  0  0
    5.7987  -13.2622   25.3543 C   0  0  0  0  0  0  0  0  0  0  0  0
    8.2403  -13.7573   24.9529 C   0  0  2  0  0  0  0  0  0  0  0  0
    8.0462  -13.6975   23.4938 N   0  0  0  0  0  0  0  0  0  0  0  0
    8.2506  -15.1939   25.3649 C   0  0  0  0  0  0  0  0  0  0  0  0
    7.3200  -15.9915   25.0887 O   0  0  0  0  0  0  0  0  0  0  0  0
   12.2213  -19.1662   23.9530 N   0  0  0  0  0  0  0  0  0  0  0  0
   11.6690  -19.8913   25.0353 C   0  0  0  0  0  0  0  0  0  0  0  0
   12.0234  -21.0735   25.2160 O   0  0  0  0  0  0  0  0  0  0  0  0
   10.6965  -19.2441   25.9182 C   0  0  0  0  0  0  0  0  0  0  0  0
   10.4159  -17.8151   25.6165 C   0  0  0  0  0  0  0  0  0  0  0  0
    9.3659  -17.1698   26.4691 C   0  0  2  0  0  0  0  0  0  0  0  0
    9.3432  -15.7420   26.1091 N   0  0  0  0  0  0  0  0  0  0  0  0
    9.6979  -17.2751   27.9096 C   0  0  0  0  0  0  0  0  0  0  0  0
    9.6501  -18.3876   28.4774 O   0  0  0  0  0  0  0  0  0  0  0  0
   10.0684  -16.1703   28.6736 O   0  0  0  0  0  0  0  0  0  0  0  0
  2  1  1  0
  3  2  2  0
  4  3  1  0
  5 11  1  0
  5  4  2  0
  6  5  1  0
  7  9  1  0
  7  6  1  0
  7  8  1  6
  9 10  2  0
 11 12  2  0
 12  2  1  0
 14 13  1  0
 15 14  1  0
 15 16  1  1
 17 15  1  0
 17 18  1  6
 18  9  1  0
 19 17  1  0
 20 19  2  0
 21 22  1  0
 22 24  1  0
 22 23  2  0
 24 25  1  0
 26 25  1  6
 26 27  1  0
 27 19  1  0
 28 30  1  0
 28 26  1  0
 29 28  2  0
M  END
$$$$
