YIQ.pdb
     RDKit          3D

 30 30  0  0  1  0  0  0  0  0999 V2000
    7.5691  -19.7997   17.4481 O   0  0  0  0  0  0  0  0  0  0  0  0
    7.8745  -19.1944   18.6694 C   0  0  0  0  0  0  0  0  0  0  0  0
    9.1988  -18.9296   18.9481 C   0  0  0  0  0  0  0  0  0  0  0  0
    9.5553  -18.3304   20.1455 C   0  0  0  0  0  0  0  0  0  0  0  0
    8.5941  -17.9903   21.0750 C   0  0  0  0  0  0  0  0  0  0  0  0
    8.9521  -17.3472   22.3656 C   0  0  0  0  0  0  0  0  0  0  0  0
    8.9433  -15.8462   22.2055 C   0  0  2  0  0  0  0  0  0  0  0  0
    9.8523  -15.4802   21.1536 N   0  0  0  0  0  0  0  0  0  0  0  0
    9.2488  -15.1476   23.4801 C   0  0  0  0  0  0  0  0  0  0  0  0
   10.4656  -14.8872   23.7487 O   0  0  0  0  0  0  0  0  0  0  0  0
    7.2766  -18.2656   20.7724 C   0  0  0  0  0  0  0  0  0  0  0  0
    6.9056  -18.8620   19.5841 C   0  0  0  0  0  0  0  0  0  0  0  0
    5.7581  -11.5364   25.6176 C   0  0  0  0  0  0  0  0  0  0  0  0
    6.9988  -12.2787   25.1741 C   0  0  0  0  0  0  0  0  0  0  0  0
    7.4890  -13.2575   26.1814 C   0  0  2  0  0  0  0  0  0  0  0  0
    7.7225  -12.6158   27.5258 C   0  0  0  0  0  0  0  0  0  0  0  0
    8.6288  -14.0740   25.6764 C   0  0  2  0  0  0  0  0  0  0  0  0
    8.2865  -14.7522   24.4143 N   0  0  0  0  0  0  0  0  0  0  0  0
    9.1191  -15.1035   26.6425 C   0  0  0  0  0  0  0  0  0  0  0  0
    9.4716  -14.8272   27.8164 O   0  0  0  0  0  0  0  0  0  0  0  0
   10.7791  -21.0260   25.0523 N   0  0  0  0  0  0  0  0  0  0  0  0
   11.6603  -19.9194   25.0243 C   0  0  0  0  0  0  0  0  0  0  0  0
   12.7007  -19.9908   24.3398 O   0  0  0  0  0  0  0  0  0  0  0  0
   11.3368  -18.7174   25.7955 C   0  0  0  0  0  0  0  0  0  0  0  0
   10.0042  -18.7249   26.4558 C   0  0  0  0  0  0  0  0  0  0  0  0
    9.6659  -17.4934   27.2399 C   0  0  2  0  0  0  0  0  0  0  0  0
    9.2131  -16.4820   26.2699 N   0  0  0  0  0  0  0  0  0  0  0  0
   10.8543  -16.9556   27.9432 C   0  0  0  0  0  0  0  0  0  0  0  0
   11.1521  -17.3881   29.0775 O   0  0  0  0  0  0  0  0  0  0  0  0
   11.6700  -15.9723   27.3872 O   0  0  0  0  0  0  0  0  0  0  0  0
  2  1  1  0
  3  2  2  0
  4  3  1  0
  5 11  1  0
  5  4  2  0
  6  5  1  0
  7  9  1  0
  7  6  1  0
  7  8  1  6
  9 10  2  0
 11 12  2  0
 12  2  1  0
 14 13  1  0
 15 14  1  0
 15 16  1  1
 17 15  1  0
 17 18  1  6
 18  9  1  0
 19 17  1  0
 20 19  2  0
 21 22  1  0
 22 24  1  0
 22 23  2  0
 24 25  1  0
 26 25  1  6
 26 27  1  0
 27 19  1  0
 28 30  1  0
 28 26  1  0
 29 28  2  0
M  END
$$$$
