YIQ.pdb
     RDKit          3D

 30 30  0  0  1  0  0  0  0  0999 V2000
   10.8794  -14.5114   31.7328 O   0  0  0  0  0  0  0  0  0  0  0  0
   10.7042  -15.2730   30.5750 C   0  0  0  0  0  0  0  0  0  0  0  0
   10.8579  -16.6401   30.6694 C   0  0  0  0  0  0  0  0  0  0  0  0
   10.6950  -17.4411   29.5505 C   0  0  0  0  0  0  0  0  0  0  0  0
   10.3774  -16.8854   28.3284 C   0  0  0  0  0  0  0  0  0  0  0  0
   10.1979  -17.7238   27.1149 C   0  0  0  0  0  0  0  0  0  0  0  0
    8.7318  -17.8036   26.7643 C   0  0  2  0  0  0  0  0  0  0  0  0
    8.3489  -19.1851   26.6557 N   0  0  0  0  0  0  0  0  0  0  0  0
    8.4093  -17.0332   25.5362 C   0  0  0  0  0  0  0  0  0  0  0  0
    8.2058  -17.6764   24.4566 O   0  0  0  0  0  0  0  0  0  0  0  0
   10.2291  -15.5155   28.2603 C   0  0  0  0  0  0  0  0  0  0  0  0
   10.3881  -14.7043   29.3657 C   0  0  0  0  0  0  0  0  0  0  0  0
    5.9576  -12.3074   26.2481 C   0  0  0  0  0  0  0  0  0  0  0  0
    6.2483  -13.6372   25.5892 C   0  0  0  0  0  0  0  0  0  0  0  0
    7.3514  -13.5703   24.5933 C   0  0  2  0  0  0  0  0  0  0  0  0
    6.9809  -12.7333   23.3950 C   0  0  0  0  0  0  0  0  0  0  0  0
    7.9062  -14.9139   24.2649 C   0  0  2  0  0  0  0  0  0  0  0  0
    8.3125  -15.6395   25.4809 N   0  0  0  0  0  0  0  0  0  0  0  0
    9.0701  -14.8828   23.3280 C   0  0  0  0  0  0  0  0  0  0  0  0
    9.9197  -13.9572   23.3230 O   0  0  0  0  0  0  0  0  0  0  0  0
   13.6872  -15.7006   24.1773 N   0  0  0  0  0  0  0  0  0  0  0  0
   12.9808  -16.9206   24.0560 C   0  0  0  0  0  0  0  0  0  0  0  0
   13.2502  -17.8565   24.8355 O   0  0  0  0  0  0  0  0  0  0  0  0
   11.9526  -17.0615   23.0231 C   0  0  0  0  0  0  0  0  0  0  0  0
   11.6580  -15.8278   22.2465 C   0  0  0  0  0  0  0  0  0  0  0  0
   10.4048  -15.8661   21.4256 C   0  0  2  0  0  0  0  0  0  0  0  0
    9.2778  -15.9269   22.3716 N   0  0  0  0  0  0  0  0  0  0  0  0
   10.3535  -17.0762   20.5716 C   0  0  0  0  0  0  0  0  0  0  0  0
   11.2011  -17.2328   19.6664 O   0  0  0  0  0  0  0  0  0  0  0  0
    9.3861  -18.0656   20.7352 O   0  0  0  0  0  0  0  0  0  0  0  0
  2  1  1  0
  3  2  2  0
  4  3  1  0
  5 11  1  0
  5  4  2  0
  6  5  1  0
  7  9  1  0
  7  6  1  0
  7  8  1  6
  9 10  2  0
 11 12  2  0
 12  2  1  0
 14 13  1  0
 15 14  1  0
 15 16  1  6
 17 15  1  0
 17 18  1  1
 18  9  1  0
 19 17  1  0
 20 19  2  0
 21 22  1  0
 22 24  1  0
 22 23  2  0
 24 25  1  0
 26 25  1  1
 26 27  1  0
 27 19  1  0
 28 30  1  0
 28 26  1  0
 29 28  2  0
M  END
$$$$
