YIQ.pdb
     RDKit          3D

 30 30  0  0  1  0  0  0  0  0999 V2000
    6.1757  -23.6465   29.8846 O   0  0  0  0  0  0  0  0  0  0  0  0
    6.4733  -22.7020   28.8994 C   0  0  0  0  0  0  0  0  0  0  0  0
    7.7581  -22.6701   28.3995 C   0  0  0  0  0  0  0  0  0  0  0  0
    8.1052  -21.7523   27.4211 C   0  0  0  0  0  0  0  0  0  0  0  0
    7.1740  -20.8589   26.9332 C   0  0  0  0  0  0  0  0  0  0  0  0
    7.5228  -19.8659   25.8844 C   0  0  0  0  0  0  0  0  0  0  0  0
    6.2671  -19.1964   25.3804 C   0  0  2  0  0  0  0  0  0  0  0  0
    5.5681  -20.1025   24.5102 N   0  0  0  0  0  0  0  0  0  0  0  0
    6.5539  -17.8956   24.7235 C   0  0  0  0  0  0  0  0  0  0  0  0
    6.5609  -17.8509   23.4513 O   0  0  0  0  0  0  0  0  0  0  0  0
    5.8958  -20.9113   27.4496 C   0  0  0  0  0  0  0  0  0  0  0  0
    5.5347  -21.8194   28.4242 C   0  0  0  0  0  0  0  0  0  0  0  0
    5.8752  -12.8973   26.8857 C   0  0  0  0  0  0  0  0  0  0  0  0
    6.0688  -13.9101   25.7794 C   0  0  0  0  0  0  0  0  0  0  0  0
    7.4796  -14.3598   25.6353 C   0  0  2  0  0  0  0  0  0  0  0  0
    8.3895  -13.2369   25.2054 C   0  0  0  0  0  0  0  0  0  0  0  0
    7.6020  -15.6039   24.8241 C   0  0  2  0  0  0  0  0  0  0  0  0
    6.8191  -16.7062   25.4090 N   0  0  0  0  0  0  0  0  0  0  0  0
    9.0076  -16.0763   24.6371 C   0  0  0  0  0  0  0  0  0  0  0  0
    9.6850  -16.5910   25.5616 O   0  0  0  0  0  0  0  0  0  0  0  0
   11.3902  -18.0329   19.3968 N   0  0  0  0  0  0  0  0  0  0  0  0
   12.6116  -17.7940   20.0698 C   0  0  0  0  0  0  0  0  0  0  0  0
   13.6592  -18.3022   19.6223 O   0  0  0  0  0  0  0  0  0  0  0  0
   12.6233  -16.9597   21.2732 C   0  0  0  0  0  0  0  0  0  0  0  0
   11.2971  -16.4374   21.6978 C   0  0  0  0  0  0  0  0  0  0  0  0
   11.0038  -16.5374   23.1640 C   0  0  2  0  0  0  0  0  0  0  0  0
    9.6635  -15.9631   23.3702 N   0  0  0  0  0  0  0  0  0  0  0  0
   11.9697  -15.7487   23.9647 C   0  0  0  0  0  0  0  0  0  0  0  0
   12.8692  -16.3348   24.6047 O   0  0  0  0  0  0  0  0  0  0  0  0
   11.9201  -14.3581   24.0373 O   0  0  0  0  0  0  0  0  0  0  0  0
  2  1  1  0
  3  2  2  0
  4  3  1  0
  5 11  1  0
  5  4  2  0
  6  5  1  0
  7  9  1  0
  7  6  1  0
  7  8  1  6
  9 10  2  0
 11 12  2  0
 12  2  1  0
 14 13  1  0
 15 14  1  0
 15 16  1  6
 17 15  1  0
 17 18  1  1
 18  9  1  0
 19 17  1  0
 20 19  2  0
 21 22  1  0
 22 24  1  0
 22 23  2  0
 24 25  1  0
 26 25  1  6
 26 27  1  0
 27 19  1  0
 28 30  1  0
 28 26  1  0
 29 28  2  0
M  END
$$$$
