YIQ.pdb
     RDKit          3D

 30 30  0  0  1  0  0  0  0  0999 V2000
    5.5218  -23.5127   16.1064 O   0  0  0  0  0  0  0  0  0  0  0  0
    6.1980  -22.5987   16.9179 C   0  0  0  0  0  0  0  0  0  0  0  0
    5.6293  -21.3571   17.1087 C   0  0  0  0  0  0  0  0  0  0  0  0
    6.2595  -20.4140   17.9046 C   0  0  0  0  0  0  0  0  0  0  0  0
    7.4621  -20.7013   18.5167 C   0  0  0  0  0  0  0  0  0  0  0  0
    8.1565  -19.7063   19.3743 C   0  0  0  0  0  0  0  0  0  0  0  0
    8.3810  -18.4326   18.5958 C   0  0  2  0  0  0  0  0  0  0  0  0
    9.2271  -18.7138   17.4681 N   0  0  0  0  0  0  0  0  0  0  0  0
    8.9254  -17.3459   19.4493 C   0  0  0  0  0  0  0  0  0  0  0  0
   10.1604  -17.3810   19.7559 O   0  0  0  0  0  0  0  0  0  0  0  0
    8.0102  -21.9503   18.3101 C   0  0  0  0  0  0  0  0  0  0  0  0
    7.3948  -22.9003   17.5203 C   0  0  0  0  0  0  0  0  0  0  0  0
    6.8341  -12.2233   19.5792 C   0  0  0  0  0  0  0  0  0  0  0  0
    7.7581  -13.4205   19.5895 C   0  0  0  0  0  0  0  0  0  0  0  0
    7.8817  -14.0552   20.9292 C   0  0  2  0  0  0  0  0  0  0  0  0
    8.2765  -13.0605   21.9915 C   0  0  0  0  0  0  0  0  0  0  0  0
    8.7096  -15.2940   20.8998 C   0  0  2  0  0  0  0  0  0  0  0  0
    8.1713  -16.2777   19.9444 N   0  0  0  0  0  0  0  0  0  0  0  0
    8.8560  -15.9636   22.2278 C   0  0  0  0  0  0  0  0  0  0  0  0
    7.8796  -16.4110   22.8798 O   0  0  0  0  0  0  0  0  0  0  0  0
   11.0867  -20.9681   23.4724 N   0  0  0  0  0  0  0  0  0  0  0  0
   11.8767  -20.0192   22.7813 C   0  0  0  0  0  0  0  0  0  0  0  0
   12.7646  -20.4220   22.0033 O   0  0  0  0  0  0  0  0  0  0  0  0
   11.6390  -18.5897   22.9914 C   0  0  0  0  0  0  0  0  0  0  0  0
   10.4772  -18.2589   23.8590 C   0  0  0  0  0  0  0  0  0  0  0  0
   10.2757  -16.8005   24.1388 C   0  0  2  0  0  0  0  0  0  0  0  0
   10.1416  -16.1311   22.8339 N   0  0  0  0  0  0  0  0  0  0  0  0
   11.4452  -16.2162   24.8367 C   0  0  0  0  0  0  0  0  0  0  0  0
   11.7504  -16.6194   25.9797 O   0  0  0  0  0  0  0  0  0  0  0  0
   12.2348  -15.2201   24.2660 O   0  0  0  0  0  0  0  0  0  0  0  0
  2  1  1  0
  3  2  2  0
  4  3  1  0
  5 11  1  0
  5  4  2  0
  6  5  1  0
  7  9  1  0
  7  6  1  0
  7  8  1  6
  9 10  2  0
 11 12  2  0
 12  2  1  0
 14 13  1  0
 15 14  1  0
 15 16  1  1
 17 15  1  0
 17 18  1  6
 18  9  1  0
 19 17  1  0
 20 19  2  0
 21 22  1  0
 22 24  1  0
 22 23  2  0
 24 25  1  0
 26 25  1  6
 26 27  1  0
 27 19  1  0
 28 30  1  0
 28 26  1  0
 29 28  2  0
M  END
$$$$
