YIQ.pdb
     RDKit          3D

 30 30  0  0  1  0  0  0  0  0999 V2000
    7.0075  -16.5628   15.9405 O   0  0  0  0  0  0  0  0  0  0  0  0
    7.3430  -16.5534   17.2965 C   0  0  0  0  0  0  0  0  0  0  0  0
    6.5692  -15.7959   18.1502 C   0  0  0  0  0  0  0  0  0  0  0  0
    6.8595  -15.7523   19.5044 C   0  0  0  0  0  0  0  0  0  0  0  0
    7.9239  -16.4639   20.0184 C   0  0  0  0  0  0  0  0  0  0  0  0
    8.2546  -16.4326   21.4665 C   0  0  0  0  0  0  0  0  0  0  0  0
    9.0522  -15.1897   21.7792 C   0  0  2  0  0  0  0  0  0  0  0  0
   10.2890  -15.2281   21.0473 N   0  0  0  0  0  0  0  0  0  0  0  0
    9.2683  -15.0182   23.2386 C   0  0  0  0  0  0  0  0  0  0  0  0
   10.4468  -15.1691   23.6958 O   0  0  0  0  0  0  0  0  0  0  0  0
    8.6825  -17.2139   19.1436 C   0  0  0  0  0  0  0  0  0  0  0  0
    8.4060  -17.2675   17.7924 C   0  0  0  0  0  0  0  0  0  0  0  0
    6.0971  -11.5103   25.8748 C   0  0  0  0  0  0  0  0  0  0  0  0
    7.3172  -12.2939   25.4453 C   0  0  0  0  0  0  0  0  0  0  0  0
    7.4827  -13.5745   26.1841 C   0  0  2  0  0  0  0  0  0  0  0  0
    7.6264  -13.3556   27.6691 C   0  0  0  0  0  0  0  0  0  0  0  0
    8.5268  -14.4504   25.5814 C   0  0  2  0  0  0  0  0  0  0  0  0
    8.2606  -14.7001   24.1542 N   0  0  0  0  0  0  0  0  0  0  0  0
    8.6878  -15.7697   26.2649 C   0  0  0  0  0  0  0  0  0  0  0  0
    8.8188  -15.8839   27.5093 O   0  0  0  0  0  0  0  0  0  0  0  0
    5.6131  -18.4122   24.2286 N   0  0  0  0  0  0  0  0  0  0  0  0
    6.6630  -19.2872   23.8624 C   0  0  0  0  0  0  0  0  0  0  0  0
    6.8907  -19.4871   22.6524 O   0  0  0  0  0  0  0  0  0  0  0  0
    7.4584  -19.9388   24.9051 C   0  0  0  0  0  0  0  0  0  0  0  0
    8.8008  -19.3454   25.1451 C   0  0  0  0  0  0  0  0  0  0  0  0
    8.8581  -18.2866   26.2040 C   0  0  2  0  0  0  0  0  0  0  0  0
    8.7007  -16.9917   25.5203 N   0  0  0  0  0  0  0  0  0  0  0  0
   10.1682  -18.2838   26.8969 C   0  0  0  0  0  0  0  0  0  0  0  0
   10.9192  -17.2895   26.7994 O   0  0  0  0  0  0  0  0  0  0  0  0
   10.6084  -19.3587   27.6666 O   0  0  0  0  0  0  0  0  0  0  0  0
  2  1  1  0
  3  2  2  0
  4  3  1  0
  5 11  1  0
  5  4  2  0
  6  5  1  0
  7  9  1  0
  7  6  1  0
  7  8  1  6
  9 10  2  0
 11 12  2  0
 12  2  1  0
 14 13  1  0
 15 14  1  0
 15 16  1  1
 17 15  1  0
 17 18  1  6
 18  9  1  0
 19 17  1  0
 20 19  2  0
 21 22  1  0
 22 24  1  0
 22 23  2  0
 24 25  1  0
 26 25  1  6
 26 27  1  0
 27 19  1  0
 28 30  1  0
 28 26  1  0
 29 28  2  0
M  END
$$$$
