YIQ.pdb
     RDKit          3D

 30 30  0  0  1  0  0  0  0  0999 V2000
    5.4484  -10.4713   27.9148 O   0  0  0  0  0  0  0  0  0  0  0  0
    6.1128  -11.5689   27.3626 C   0  0  0  0  0  0  0  0  0  0  0  0
    5.7318  -11.9922   26.1068 C   0  0  0  0  0  0  0  0  0  0  0  0
    6.3591  -13.0762   25.5139 C   0  0  0  0  0  0  0  0  0  0  0  0
    7.3714  -13.7471   26.1685 C   0  0  0  0  0  0  0  0  0  0  0  0
    8.0585  -14.9119   25.5532 C   0  0  0  0  0  0  0  0  0  0  0  0
    7.0829  -15.6845   24.6987 C   0  0  2  0  0  0  0  0  0  0  0  0
    6.5689  -16.7925   25.4568 N   0  0  0  0  0  0  0  0  0  0  0  0
    7.6882  -16.1163   23.4129 C   0  0  0  0  0  0  0  0  0  0  0  0
    8.0511  -17.3308   23.2948 O   0  0  0  0  0  0  0  0  0  0  0  0
    7.7340  -13.3040   27.4237 C   0  0  0  0  0  0  0  0  0  0  0  0
    7.1189  -12.2259   28.0275 C   0  0  0  0  0  0  0  0  0  0  0  0
    7.4030  -12.4557   19.7659 C   0  0  0  0  0  0  0  0  0  0  0  0
    7.2699  -13.9460   19.9860 C   0  0  0  0  0  0  0  0  0  0  0  0
    8.5793  -14.6493   20.0498 C   0  0  2  0  0  0  0  0  0  0  0  0
    9.0430  -15.1047   18.6892 C   0  0  0  0  0  0  0  0  0  0  0  0
    8.6098  -15.7044   21.1018 C   0  0  2  0  0  0  0  0  0  0  0  0
    7.8895  -15.2764   22.3134 N   0  0  0  0  0  0  0  0  0  0  0  0
    9.9856  -16.1302   21.5014 C   0  0  0  0  0  0  0  0  0  0  0  0
   10.5482  -15.7288   22.5506 O   0  0  0  0  0  0  0  0  0  0  0  0
   12.3071  -19.1937   25.5242 N   0  0  0  0  0  0  0  0  0  0  0  0
   12.3889  -19.8829   24.2912 C   0  0  0  0  0  0  0  0  0  0  0  0
   12.1570  -21.1083   24.2657 O   0  0  0  0  0  0  0  0  0  0  0  0
   12.7430  -19.1491   23.0744 C   0  0  0  0  0  0  0  0  0  0  0  0
   11.6302  -18.3918   22.4419 C   0  0  0  0  0  0  0  0  0  0  0  0
   11.9898  -17.6336   21.2003 C   0  0  2  0  0  0  0  0  0  0  0  0
   10.7444  -17.0340   20.6919 N   0  0  0  0  0  0  0  0  0  0  0  0
   12.5274  -18.5334   20.1528 C   0  0  0  0  0  0  0  0  0  0  0  0
   11.7503  -19.2745   19.5131 O   0  0  0  0  0  0  0  0  0  0  0  0
   13.8846  -18.5916   19.8424 O   0  0  0  0  0  0  0  0  0  0  0  0
  2  1  1  0
  3  2  2  0
  4  3  1  0
  5 11  1  0
  5  4  2  0
  6  5  1  0
  7  9  1  0
  7  6  1  0
  7  8  1  1
  9 10  2  0
 11 12  2  0
 12  2  1  0
 14 13  1  0
 15 14  1  0
 15 16  1  6
 17 15  1  0
 17 18  1  1
 18  9  1  0
 19 17  1  0
 20 19  2  0
 21 22  1  0
 22 24  1  0
 22 23  2  0
 24 25  1  0
 26 25  1  1
 26 27  1  0
 27 19  1  0
 28 30  1  0
 28 26  1  0
 29 28  2  0
M  END
$$$$
