YIQ.pdb
     RDKit          3D

 30 30  0  0  1  0  0  0  0  0999 V2000
    7.2962  -11.9222   16.5937 O   0  0  0  0  0  0  0  0  0  0  0  0
    7.4284  -12.8533   17.6265 C   0  0  0  0  0  0  0  0  0  0  0  0
    8.6219  -12.8906   18.3163 C   0  0  0  0  0  0  0  0  0  0  0  0
    8.8045  -13.7956   19.3496 C   0  0  0  0  0  0  0  0  0  0  0  0
    7.7985  -14.6708   19.7035 C   0  0  0  0  0  0  0  0  0  0  0  0
    7.9710  -15.6500   20.8076 C   0  0  0  0  0  0  0  0  0  0  0  0
    9.3339  -15.4761   21.4332 C   0  0  2  0  0  0  0  0  0  0  0  0
   10.2260  -16.4696   20.9005 N   0  0  0  0  0  0  0  0  0  0  0  0
    9.2751  -15.5116   22.9168 C   0  0  0  0  0  0  0  0  0  0  0  0
   10.1367  -16.2132   23.5380 O   0  0  0  0  0  0  0  0  0  0  0  0
    6.6143  -14.6135   18.9981 C   0  0  0  0  0  0  0  0  0  0  0  0
    6.4171  -13.7179   17.9665 C   0  0  0  0  0  0  0  0  0  0  0  0
    6.7313  -12.4002   27.6937 C   0  0  0  0  0  0  0  0  0  0  0  0
    7.6257  -13.4921   27.1505 C   0  0  0  0  0  0  0  0  0  0  0  0
    7.4728  -13.7018   25.6856 C   0  0  2  0  0  0  0  0  0  0  0  0
    6.0322  -13.9099   25.2919 C   0  0  0  0  0  0  0  0  0  0  0  0
    8.4162  -14.7256   25.1540 C   0  0  2  0  0  0  0  0  0  0  0  0
    8.3325  -14.8231   23.6865 N   0  0  0  0  0  0  0  0  0  0  0  0
    8.2209  -16.0926   25.7255 C   0  0  0  0  0  0  0  0  0  0  0  0
    7.2553  -16.8333   25.4130 O   0  0  0  0  0  0  0  0  0  0  0  0
   11.4221  -21.0527   30.3174 N   0  0  0  0  0  0  0  0  0  0  0  0
   11.4220  -19.9990   29.3731 C   0  0  0  0  0  0  0  0  0  0  0  0
   12.4898  -19.4008   29.1329 O   0  0  0  0  0  0  0  0  0  0  0  0
   10.1749  -19.6319   28.6992 C   0  0  0  0  0  0  0  0  0  0  0  0
   10.2018  -18.3334   27.9746 C   0  0  0  0  0  0  0  0  0  0  0  0
    8.9584  -17.9958   27.2093 C   0  0  2  0  0  0  0  0  0  0  0  0
    9.1429  -16.6356   26.6758 N   0  0  0  0  0  0  0  0  0  0  0  0
    7.7663  -17.9860   28.0898 C   0  0  0  0  0  0  0  0  0  0  0  0
    7.0863  -19.0261   28.2244 O   0  0  0  0  0  0  0  0  0  0  0  0
    7.3622  -16.8497   28.7875 O   0  0  0  0  0  0  0  0  0  0  0  0
  2  1  1  0
  3  2  2  0
  4  3  1  0
  5 11  1  0
  5  4  2  0
  6  5  1  0
  7  9  1  0
  7  6  1  0
  7  8  1  6
  9 10  2  0
 11 12  2  0
 12  2  1  0
 14 13  1  0
 15 14  1  0
 15 16  1  1
 17 15  1  0
 17 18  1  6
 18  9  1  0
 19 17  1  0
 20 19  2  0
 21 22  1  0
 22 24  1  0
 22 23  2  0
 24 25  1  0
 26 25  1  1
 26 27  1  0
 27 19  1  0
 28 30  1  0
 28 26  1  0
 29 28  2  0
M  END
$$$$
