ISV.pdb
     RDKit          3D

 22 21  0  0  1  0  0  0  0  0999 V2000
    7.5546  -12.2859   18.2677 C   0  0  0  0  0  0  0  0  0  0  0  0
    7.8659  -13.7084   18.6138 C   0  0  0  0  0  0  0  0  0  0  0  0
    7.7009  -14.0092   20.0763 C   0  0  2  0  0  0  0  0  0  0  0  0
    8.4763  -13.0010   20.8974 C   0  0  0  0  0  0  0  0  0  0  0  0
    8.0336  -15.4363   20.3925 C   0  0  2  0  0  0  0  0  0  0  0  0
    7.1262  -16.2437   19.5455 N   0  0  0  0  0  0  0  0  0  0  0  0
    7.7720  -15.8007   21.8079 C   0  0  0  0  0  0  0  0  0  0  0  0
    6.5801  -15.8043   22.2527 O   0  0  0  0  0  0  0  0  0  0  0  0
   10.4241  -17.6818   24.2196 O   0  0  0  0  0  0  0  0  0  0  0  0
    9.0859  -17.7510   24.5663 C   0  0  0  0  0  0  0  0  0  0  0  0
    8.4430  -16.4303   24.1272 C   0  0  2  0  0  0  0  0  0  0  0  0
    8.7828  -16.1591   22.7320 N   0  0  0  0  0  0  0  0  0  0  0  0
    9.0111  -15.3526   24.9729 C   0  0  0  0  0  0  0  0  0  0  0  0
   10.0680  -14.7449   24.7148 O   0  0  0  0  0  0  0  0  0  0  0  0
    7.6610  -12.0005   26.1843 C   0  0  0  0  0  0  0  0  0  0  0  0
    7.9602  -12.8475   27.4054 C   0  0  1  0  0  0  0  0  0  0  0  0
    6.6658  -13.3951   27.9657 C   0  0  0  0  0  0  0  0  0  0  0  0
    8.9254  -13.9777   27.0805 C   0  0  2  0  0  0  0  0  0  0  0  0
    8.3407  -14.9414   26.1812 N   0  0  0  0  0  0  0  0  0  0  0  0
    9.3143  -14.5922   28.3698 C   0  0  0  0  0  0  0  0  0  0  0  0
   10.0591  -13.9545   29.3417 O   0  0  0  0  0  0  0  0  0  0  0  0
    8.9431  -15.7710   28.5957 O   0  0  0  0  0  0  0  0  0  0  0  0
  2  1  1  0
  3  2  1  0
  3  5  1  0
  3  4  1  1
  5  7  1  0
  5  6  1  6
  7 12  1  0
  7  8  2  0
 11 10  1  1
 10  9  1  0
 11 13  1  0
 12 11  1  0
 13 14  2  0
 16 15  1  6
 16 18  1  0
 17 16  1  0
 18 20  1  0
 19 13  1  0
 18 19  1  6
 20 21  1  0
 22 20  2  0
M  END
$$$$
