ISV.pdb
     RDKit          3D

 22 21  0  0  1  0  0  0  0  0999 V2000
    7.7721  -12.2409   19.2539 C   0  0  0  0  0  0  0  0  0  0  0  0
    7.6826  -13.7135   19.5058 C   0  0  0  0  0  0  0  0  0  0  0  0
    7.6946  -14.0637   20.9665 C   0  0  2  0  0  0  0  0  0  0  0  0
    8.9422  -13.5049   21.6171 C   0  0  0  0  0  0  0  0  0  0  0  0
    7.4987  -15.5332   21.1887 C   0  0  2  0  0  0  0  0  0  0  0  0
    6.2149  -15.8586   20.5262 N   0  0  0  0  0  0  0  0  0  0  0  0
    7.3714  -15.8987   22.6222 C   0  0  0  0  0  0  0  0  0  0  0  0
    6.4865  -15.3380   23.3442 O   0  0  0  0  0  0  0  0  0  0  0  0
    9.2286  -19.0920   24.4659 O   0  0  0  0  0  0  0  0  0  0  0  0
    8.0774  -18.5625   25.0227 C   0  0  0  0  0  0  0  0  0  0  0  0
    8.0821  -17.0612   24.7124 C   0  0  2  0  0  0  0  0  0  0  0  0
    8.1863  -16.8587   23.2689 N   0  0  0  0  0  0  0  0  0  0  0  0
    9.2784  -16.4733   25.3625 C   0  0  0  0  0  0  0  0  0  0  0  0
   10.3752  -16.3118   24.7934 O   0  0  0  0  0  0  0  0  0  0  0  0
    9.5372  -13.1334   27.1832 C   0  0  0  0  0  0  0  0  0  0  0  0
   10.0468  -14.1986   28.1338 C   0  0  1  0  0  0  0  0  0  0  0  0
    9.0130  -14.4466   29.2104 C   0  0  0  0  0  0  0  0  0  0  0  0
   10.3803  -15.4898   27.4018 C   0  0  2  0  0  0  0  0  0  0  0  0
    9.2264  -16.0441   26.7378 N   0  0  0  0  0  0  0  0  0  0  0  0
   10.9369  -16.4211   28.4087 C   0  0  0  0  0  0  0  0  0  0  0  0
   12.1543  -16.2499   29.0370 O   0  0  0  0  0  0  0  0  0  0  0  0
   10.2584  -17.4339   28.7123 O   0  0  0  0  0  0  0  0  0  0  0  0
  2  1  1  0
  3  2  1  0
  3  5  1  0
  3  4  1  6
  5  7  1  0
  5  6  1  6
  7 12  1  0
  7  8  2  0
 11 10  1  6
 10  9  1  0
 11 13  1  0
 12 11  1  0
 13 14  2  0
 16 15  1  6
 16 18  1  0
 17 16  1  0
 18 20  1  0
 19 13  1  0
 18 19  1  1
 20 21  1  0
 22 20  2  0
M  END
$$$$
