ISV.pdb
     RDKit          3D

 22 21  0  0  1  0  0  0  0  0999 V2000
    5.8697  -10.8785   26.5379 C   0  0  0  0  0  0  0  0  0  0  0  0
    5.5555  -12.1332   25.7849 C   0  0  0  0  0  0  0  0  0  0  0  0
    6.7307  -13.0618   25.6698 C   0  0  2  0  0  0  0  0  0  0  0  0
    7.8923  -12.3402   25.0204 C   0  0  0  0  0  0  0  0  0  0  0  0
    6.3601  -14.3484   24.9955 C   0  0  2  0  0  0  0  0  0  0  0  0
    5.2041  -14.8692   25.7606 N   0  0  0  0  0  0  0  0  0  0  0  0
    7.4348  -15.3714   25.0509 C   0  0  0  0  0  0  0  0  0  0  0  0
    7.6589  -15.9988   26.1348 O   0  0  0  0  0  0  0  0  0  0  0  0
   11.0905  -17.7782   23.0058 O   0  0  0  0  0  0  0  0  0  0  0  0
   10.0947  -16.8412   22.7912 C   0  0  0  0  0  0  0  0  0  0  0  0
    9.3124  -16.7141   24.1035 C   0  0  2  0  0  0  0  0  0  0  0  0
    8.2563  -15.7158   23.9506 N   0  0  0  0  0  0  0  0  0  0  0  0
   10.2590  -16.2490   25.1461 C   0  0  0  0  0  0  0  0  0  0  0  0
   11.0588  -15.3055   24.9936 O   0  0  0  0  0  0  0  0  0  0  0  0
   11.3016  -15.1679   29.6576 C   0  0  0  0  0  0  0  0  0  0  0  0
   10.4490  -15.4909   28.4464 C   0  0  1  0  0  0  0  0  0  0  0  0
   10.0600  -14.2056   27.7493 C   0  0  0  0  0  0  0  0  0  0  0  0
   11.1702  -16.4253   27.4867 C   0  0  2  0  0  0  0  0  0  0  0  0
   10.2999  -16.8919   26.4358 N   0  0  0  0  0  0  0  0  0  0  0  0
   11.7035  -17.5431   28.2974 C   0  0  0  0  0  0  0  0  0  0  0  0
   12.8640  -17.4785   29.0425 O   0  0  0  0  0  0  0  0  0  0  0  0
   11.0592  -18.6216   28.3092 O   0  0  0  0  0  0  0  0  0  0  0  0
  2  1  1  0
  3  2  1  0
  3  5  1  0
  3  4  1  6
  5  7  1  0
  5  6  1  1
  7 12  1  0
  7  8  2  0
 11 10  1  6
 10  9  1  0
 11 13  1  0
 12 11  1  0
 13 14  2  0
 16 15  1  1
 16 18  1  0
 17 16  1  0
 18 20  1  0
 19 13  1  0
 18 19  1  6
 20 21  1  0
 22 20  2  0
M  END
$$$$
