ISV.pdb
     RDKit          3D

 22 21  0  0  1  0  0  0  0  0999 V2000
    7.6056  -12.1043   18.1508 C   0  0  0  0  0  0  0  0  0  0  0  0
    8.0367  -13.5096   18.4327 C   0  0  0  0  0  0  0  0  0  0  0  0
    7.7317  -13.9496   19.8362 C   0  0  2  0  0  0  0  0  0  0  0  0
    8.3504  -12.9819   20.8225 C   0  0  0  0  0  0  0  0  0  0  0  0
    8.1139  -15.3807   20.0667 C   0  0  2  0  0  0  0  0  0  0  0  0
    7.3060  -16.1592   19.1002 N   0  0  0  0  0  0  0  0  0  0  0  0
    7.7779  -15.8663   21.4291 C   0  0  0  0  0  0  0  0  0  0  0  0
    6.5609  -16.0257   21.7640 O   0  0  0  0  0  0  0  0  0  0  0  0
    8.4389  -18.2134   25.4087 O   0  0  0  0  0  0  0  0  0  0  0  0
    8.8824  -17.9210   24.1306 C   0  0  0  0  0  0  0  0  0  0  0  0
    8.3209  -16.5411   23.7691 C   0  0  2  0  0  0  0  0  0  0  0  0
    8.7420  -16.1786   22.4175 N   0  0  0  0  0  0  0  0  0  0  0  0
    8.8923  -15.5608   24.7240 C   0  0  0  0  0  0  0  0  0  0  0  0
   10.0962  -15.2410   24.7614 O   0  0  0  0  0  0  0  0  0  0  0  0
    7.4833  -11.9128   25.5887 C   0  0  0  0  0  0  0  0  0  0  0  0
    7.6051  -12.7755   26.8292 C   0  0  1  0  0  0  0  0  0  0  0  0
    6.2366  -13.2901   27.2189 C   0  0  0  0  0  0  0  0  0  0  0  0
    8.5722  -13.9303   26.6158 C   0  0  2  0  0  0  0  0  0  0  0  0
    8.0484  -14.9059   25.6922 N   0  0  0  0  0  0  0  0  0  0  0  0
    8.8365  -14.5189   27.9480 C   0  0  0  0  0  0  0  0  0  0  0  0
    9.5395  -13.8846   28.9528 O   0  0  0  0  0  0  0  0  0  0  0  0
    8.3927  -15.6709   28.1811 O   0  0  0  0  0  0  0  0  0  0  0  0
  2  1  1  0
  3  2  1  0
  3  5  1  0
  3  4  1  1
  5  7  1  0
  5  6  1  6
  7 12  1  0
  7  8  2  0
 11 10  1  1
 10  9  1  0
 11 13  1  0
 12 11  1  0
 13 14  2  0
 16 15  1  6
 16 18  1  0
 17 16  1  0
 18 20  1  0
 19 13  1  0
 18 19  1  6
 20 21  1  0
 22 20  2  0
M  END
$$$$
