ISV.pdb
     RDKit          3D

 22 21  0  0  1  0  0  0  0  0999 V2000
    5.8959  -11.1402   26.8180 C   0  0  0  0  0  0  0  0  0  0  0  0
    5.6488  -12.2952   25.8989 C   0  0  0  0  0  0  0  0  0  0  0  0
    6.8357  -13.2062   25.7644 C   0  0  2  0  0  0  0  0  0  0  0  0
    8.0387  -12.4147   25.2972 C   0  0  0  0  0  0  0  0  0  0  0  0
    6.5267  -14.4019   24.9145 C   0  0  2  0  0  0  0  0  0  0  0  0
    5.2910  -14.9794   25.4910 N   0  0  0  0  0  0  0  0  0  0  0  0
    7.5797  -15.4474   24.9666 C   0  0  0  0  0  0  0  0  0  0  0  0
    7.7570  -16.1173   26.0335 O   0  0  0  0  0  0  0  0  0  0  0  0
   10.0135  -15.8449   21.9540 O   0  0  0  0  0  0  0  0  0  0  0  0
   10.1773  -17.0035   22.6932 C   0  0  0  0  0  0  0  0  0  0  0  0
    9.4750  -16.7776   24.0370 C   0  0  2  0  0  0  0  0  0  0  0  0
    8.4295  -15.7687   23.8809 N   0  0  0  0  0  0  0  0  0  0  0  0
   10.4887  -16.2680   24.9921 C   0  0  0  0  0  0  0  0  0  0  0  0
   11.3903  -15.4622   24.6909 O   0  0  0  0  0  0  0  0  0  0  0  0
   10.8395  -13.9640   27.4937 C   0  0  0  0  0  0  0  0  0  0  0  0
   11.1545  -15.2501   28.2319 C   0  0  1  0  0  0  0  0  0  0  0  0
    9.9570  -15.6587   29.0615 C   0  0  0  0  0  0  0  0  0  0  0  0
   11.5493  -16.3638   27.2737 C   0  0  2  0  0  0  0  0  0  0  0  0
   10.4780  -16.6980   26.3681 N   0  0  0  0  0  0  0  0  0  0  0  0
   11.9495  -17.5215   28.1048 C   0  0  0  0  0  0  0  0  0  0  0  0
   13.1205  -17.5879   28.8331 O   0  0  0  0  0  0  0  0  0  0  0  0
   11.1741  -18.5088   28.1515 O   0  0  0  0  0  0  0  0  0  0  0  0
  2  1  1  0
  3  2  1  0
  3  5  1  0
  3  4  1  6
  5  7  1  0
  5  6  1  1
  7 12  1  0
  7  8  2  0
 11 10  1  6
 10  9  1  0
 11 13  1  0
 12 11  1  0
 13 14  2  0
 16 15  1  6
 16 18  1  0
 17 16  1  0
 18 20  1  0
 19 13  1  0
 18 19  1  6
 20 21  1  0
 22 20  2  0
M  END
$$$$
