ISV.pdb
     RDKit          3D

 22 21  0  0  1  0  0  0  0  0999 V2000
    7.7852  -12.3253   19.4251 C   0  0  0  0  0  0  0  0  0  0  0  0
    7.4322  -13.7708   19.5866 C   0  0  0  0  0  0  0  0  0  0  0  0
    8.6307  -14.6762   19.5673 C   0  0  2  0  0  0  0  0  0  0  0  0
    9.3356  -14.5648   18.2322 C   0  0  0  0  0  0  0  0  0  0  0  0
    8.2741  -16.0806   19.9517 C   0  0  2  0  0  0  0  0  0  0  0  0
    7.3916  -16.5682   18.8671 N   0  0  0  0  0  0  0  0  0  0  0  0
    7.5136  -16.1662   21.2241 C   0  0  0  0  0  0  0  0  0  0  0  0
    6.2803  -15.8552   21.2488 O   0  0  0  0  0  0  0  0  0  0  0  0
    8.6455  -18.2051   24.5450 O   0  0  0  0  0  0  0  0  0  0  0  0
    7.3183  -17.8336   24.4184 C   0  0  0  0  0  0  0  0  0  0  0  0
    7.3008  -16.4849   23.6897 C   0  0  2  0  0  0  0  0  0  0  0  0
    8.0753  -16.5844   22.4544 N   0  0  0  0  0  0  0  0  0  0  0  0
    7.9472  -15.4879   24.5771 C   0  0  0  0  0  0  0  0  0  0  0  0
    9.1694  -15.2443   24.5819 O   0  0  0  0  0  0  0  0  0  0  0  0
    7.4400  -11.7104   27.7925 C   0  0  0  0  0  0  0  0  0  0  0  0
    6.7623  -12.8046   26.9916 C   0  0  1  0  0  0  0  0  0  0  0  0
    5.9552  -12.1816   25.8736 C   0  0  0  0  0  0  0  0  0  0  0  0
    7.7708  -13.7989   26.4361 C   0  0  2  0  0  0  0  0  0  0  0  0
    7.1608  -14.7236   25.5130 N   0  0  0  0  0  0  0  0  0  0  0  0
    8.3703  -14.4942   27.5973 C   0  0  0  0  0  0  0  0  0  0  0  0
    9.3493  -13.9534   28.4068 O   0  0  0  0  0  0  0  0  0  0  0  0
    7.9627  -15.6520   27.8648 O   0  0  0  0  0  0  0  0  0  0  0  0
  2  1  1  0
  3  2  1  0
  3  5  1  0
  3  4  1  6
  5  7  1  0
  5  6  1  6
  7 12  1  0
  7  8  2  0
 11 10  1  1
 10  9  1  0
 11 13  1  0
 12 11  1  0
 13 14  2  0
 16 15  1  6
 16 18  1  0
 17 16  1  0
 18 20  1  0
 19 13  1  0
 18 19  1  6
 20 21  1  0
 22 20  2  0
M  END
$$$$
