ISV.pdb
     RDKit          3D

 22 21  0  0  1  0  0  0  0  0999 V2000
    6.2803  -11.4670   26.8494 C   0  0  0  0  0  0  0  0  0  0  0  0
    5.8993  -12.8185   26.3313 C   0  0  0  0  0  0  0  0  0  0  0  0
    6.9690  -13.4488   25.4856 C   0  0  2  0  0  0  0  0  0  0  0  0
    7.3878  -12.4905   24.3910 C   0  0  0  0  0  0  0  0  0  0  0  0
    6.5592  -14.8015   24.9860 C   0  0  2  0  0  0  0  0  0  0  0  0
    6.4085  -15.6350   26.2006 N   0  0  0  0  0  0  0  0  0  0  0  0
    7.5825  -15.4437   24.1229 C   0  0  0  0  0  0  0  0  0  0  0  0
    7.7689  -15.0213   22.9374 O   0  0  0  0  0  0  0  0  0  0  0  0
   11.2351  -15.8823   22.3662 O   0  0  0  0  0  0  0  0  0  0  0  0
    9.9920  -15.6183   22.9146 C   0  0  0  0  0  0  0  0  0  0  0  0
    9.7434  -16.6838   23.9884 C   0  0  2  0  0  0  0  0  0  0  0  0
    8.3967  -16.5265   24.5335 N   0  0  0  0  0  0  0  0  0  0  0  0
   10.7259  -16.4607   25.0767 C   0  0  0  0  0  0  0  0  0  0  0  0
   11.9605  -16.4336   24.9095 O   0  0  0  0  0  0  0  0  0  0  0  0
   10.6854  -13.6632   27.6564 C   0  0  0  0  0  0  0  0  0  0  0  0
   10.8498  -14.9537   28.4345 C   0  0  1  0  0  0  0  0  0  0  0  0
    9.5734  -15.2495   29.1912 C   0  0  0  0  0  0  0  0  0  0  0  0
   11.2148  -16.1153   27.5224 C   0  0  2  0  0  0  0  0  0  0  0  0
   10.2810  -16.2565   26.4327 N   0  0  0  0  0  0  0  0  0  0  0  0
   11.2595  -17.3277   28.3705 C   0  0  0  0  0  0  0  0  0  0  0  0
   10.4475  -18.4302   28.1941 O   0  0  0  0  0  0  0  0  0  0  0  0
   12.0899  -17.3567   29.3128 O   0  0  0  0  0  0  0  0  0  0  0  0
  2  1  1  0
  3  2  1  0
  3  5  1  0
  3  4  1  6
  5  7  1  0
  5  6  1  1
  7 12  1  0
  7  8  2  0
 11 10  1  6
 10  9  1  0
 11 13  1  0
 12 11  1  0
 13 14  2  0
 16 15  1  6
 16 18  1  0
 17 16  1  0
 18 20  1  0
 19 13  1  0
 18 19  1  6
 20 21  1  0
 22 20  2  0
M  END
$$$$
