ISV.pdb
     RDKit          3D

 22 21  0  0  1  0  0  0  0  0999 V2000
    7.5204  -12.0647   19.1514 C   0  0  0  0  0  0  0  0  0  0  0  0
    7.8070  -13.5301   19.2543 C   0  0  0  0  0  0  0  0  0  0  0  0
    7.8493  -14.0245   20.6721 C   0  0  2  0  0  0  0  0  0  0  0  0
    8.8169  -13.1850   21.4789 C   0  0  0  0  0  0  0  0  0  0  0  0
    8.1184  -15.4977   20.7406 C   0  0  2  0  0  0  0  0  0  0  0  0
    7.0530  -16.1256   19.9261 N   0  0  0  0  0  0  0  0  0  0  0  0
    8.0190  -16.0497   22.1153 C   0  0  0  0  0  0  0  0  0  0  0  0
    6.8825  -16.1520   22.6778 O   0  0  0  0  0  0  0  0  0  0  0  0
   10.4501  -18.6578   23.7239 O   0  0  0  0  0  0  0  0  0  0  0  0
    9.2366  -18.4365   24.3516 C   0  0  0  0  0  0  0  0  0  0  0  0
    8.9522  -16.9332   24.2541 C   0  0  2  0  0  0  0  0  0  0  0  0
    9.1310  -16.4884   22.8737 N   0  0  0  0  0  0  0  0  0  0  0  0
    9.9405  -16.2339   25.1107 C   0  0  0  0  0  0  0  0  0  0  0  0
   11.1047  -15.9638   24.7577 O   0  0  0  0  0  0  0  0  0  0  0  0
    9.5205  -12.9237   27.0157 C   0  0  0  0  0  0  0  0  0  0  0  0
    9.9704  -13.9703   28.0159 C   0  0  1  0  0  0  0  0  0  0  0  0
    8.8035  -14.3548   28.8990 C   0  0  0  0  0  0  0  0  0  0  0  0
   10.5465  -15.1961   27.3233 C   0  0  2  0  0  0  0  0  0  0  0  0
    9.5865  -15.8174   26.4448 N   0  0  0  0  0  0  0  0  0  0  0  0
   10.9953  -16.1190   28.3901 C   0  0  0  0  0  0  0  0  0  0  0  0
   12.0713  -15.8813   29.2218 O   0  0  0  0  0  0  0  0  0  0  0  0
   10.3564  -17.1888   28.5502 O   0  0  0  0  0  0  0  0  0  0  0  0
  2  1  1  0
  3  2  1  0
  3  5  1  0
  3  4  1  1
  5  7  1  0
  5  6  1  6
  7 12  1  0
  7  8  2  0
 11 10  1  6
 10  9  1  0
 11 13  1  0
 12 11  1  0
 13 14  2  0
 16 15  1  6
 16 18  1  0
 17 16  1  0
 18 20  1  0
 19 13  1  0
 18 19  1  1
 20 21  1  0
 22 20  2  0
M  END
$$$$
