ASF.pdb
     RDKit          3D

 23 23  0  0  1  0  0  0  0  0999 V2000
    8.2993  -12.0968   19.8937 C   0  0  0  0  0  0  0  0  0  0  0  0
    8.3735  -13.5166   19.4172 C   0  0  2  0  0  0  0  0  0  0  0  0
    7.5143  -13.7385   18.2519 N   0  0  0  0  0  0  0  0  0  0  0  0
    8.0694  -14.4979   20.4774 C   0  0  0  0  0  0  0  0  0  0  0  0
    6.8750  -14.7636   20.7637 O   0  0  0  0  0  0  0  0  0  0  0  0
   10.8094  -17.3475   21.5748 O   0  0  0  0  0  0  0  0  0  0  0  0
    9.4431  -17.4845   21.7598 C   0  0  0  0  0  0  0  0  0  0  0  0
    8.7964  -16.1952   22.2068 C   0  0  2  0  0  0  0  0  0  0  0  0
    9.0727  -15.1807   21.2159 N   0  0  0  0  0  0  0  0  0  0  0  0
    9.2864  -15.8185   23.5506 C   0  0  0  0  0  0  0  0  0  0  0  0
   10.3438  -15.1434   23.6334 O   0  0  0  0  0  0  0  0  0  0  0  0
    8.6398  -16.1692   24.7662 N   0  0  0  0  0  0  0  0  0  0  0  0
    9.1928  -15.8377   26.0688 C   0  0  1  0  0  0  0  0  0  0  0  0
    8.1222  -15.3494   26.9860 C   0  0  0  0  0  0  0  0  0  0  0  0
    7.6232  -14.0202   26.6576 C   0  0  0  0  0  0  0  0  0  0  0  0
    8.4105  -12.8703   26.7327 C   0  0  0  0  0  0  0  0  0  0  0  0
    7.9537  -11.6200   26.4156 C   0  0  0  0  0  0  0  0  0  0  0  0
    6.6557  -11.4531   25.9974 C   0  0  0  0  0  0  0  0  0  0  0  0
    5.8468  -12.5515   25.9084 C   0  0  0  0  0  0  0  0  0  0  0  0
    6.3230  -13.8181   26.2337 C   0  0  0  0  0  0  0  0  0  0  0  0
    9.9135  -17.0216   26.5747 C   0  0  0  0  0  0  0  0  0  0  0  0
    9.9158  -18.2202   25.8509 O   0  0  0  0  0  0  0  0  0  0  0  0
   10.5256  -16.9333   27.6708 O   0  0  0  0  0  0  0  0  0  0  0  0
  2  4  1  0
  2  3  1  0
  2  1  1  1
  4  5  2  0
  6  7  1  0
  8  7  1  6
  8 10  1  0
  9  8  1  0
  9  4  1  0
 10 12  1  0
 10 11  2  0
 12 13  1  0
 13 14  1  1
 14 15  1  0
 15 16  2  0
 15 20  1  0
 16 17  1  0
 17 18  2  0
 19 18  1  0
 20 19  2  0
 21 22  1  0
 21 13  1  0
 23 21  2  0
M  END
$$$$
