ASF.pdb
     RDKit          3D

 23 23  0  0  1  0  0  0  0  0999 V2000
    7.4413  -12.4082   19.1260 C   0  0  0  0  0  0  0  0  0  0  0  0
    8.4745  -13.3423   19.6816 C   0  0  2  0  0  0  0  0  0  0  0  0
    8.9621  -14.2733   18.6614 N   0  0  0  0  0  0  0  0  0  0  0  0
    8.0058  -14.0794   20.8717 C   0  0  0  0  0  0  0  0  0  0  0  0
    7.5813  -13.4506   21.8734 O   0  0  0  0  0  0  0  0  0  0  0  0
    8.6772  -18.2624   21.5973 O   0  0  0  0  0  0  0  0  0  0  0  0
    7.4154  -17.6987   21.6978 C   0  0  0  0  0  0  0  0  0  0  0  0
    7.4723  -16.2384   22.0778 C   0  0  2  0  0  0  0  0  0  0  0  0
    8.0047  -15.4976   20.9575 N   0  0  0  0  0  0  0  0  0  0  0  0
    8.2797  -16.0621   23.3046 C   0  0  0  0  0  0  0  0  0  0  0  0
    9.4766  -15.6966   23.1846 O   0  0  0  0  0  0  0  0  0  0  0  0
    7.7929  -16.2789   24.6217 N   0  0  0  0  0  0  0  0  0  0  0  0
    8.6067  -16.0463   25.8032 C   0  0  1  0  0  0  0  0  0  0  0  0
    7.7900  -15.4369   26.8930 C   0  0  0  0  0  0  0  0  0  0  0  0
    7.4368  -14.0428   26.6580 C   0  0  0  0  0  0  0  0  0  0  0  0
    8.3858  -13.0287   26.5205 C   0  0  0  0  0  0  0  0  0  0  0  0
    8.0636  -11.7191   26.2885 C   0  0  0  0  0  0  0  0  0  0  0  0
    6.7449  -11.3493   26.1798 C   0  0  0  0  0  0  0  0  0  0  0  0
    5.7798  -12.3091   26.3076 C   0  0  0  0  0  0  0  0  0  0  0  0
    6.1201  -13.6378   26.5434 C   0  0  0  0  0  0  0  0  0  0  0  0
    9.2412  -17.3239   26.1805 C   0  0  0  0  0  0  0  0  0  0  0  0
    8.9214  -18.5077   25.5046 O   0  0  0  0  0  0  0  0  0  0  0  0
   10.0752  -17.3289   27.1230 O   0  0  0  0  0  0  0  0  0  0  0  0
  2  4  1  0
  2  3  1  0
  2  1  1  6
  4  5  2  0
  6  7  1  0
  8  7  1  6
  8 10  1  0
  9  8  1  0
  9  4  1  0
 10 12  1  0
 10 11  2  0
 12 13  1  0
 13 14  1  1
 14 15  1  0
 15 16  2  0
 15 20  1  0
 16 17  1  0
 17 18  2  0
 19 18  1  0
 20 19  2  0
 21 22  1  0
 21 13  1  0
 23 21  2  0
M  END
$$$$
