ASF.pdb
     RDKit          3D

 23 23  0  0  1  0  0  0  0  0999 V2000
    8.4549  -12.1468   19.7276 C   0  0  0  0  0  0  0  0  0  0  0  0
    8.4962  -13.5677   19.2500 C   0  0  2  0  0  0  0  0  0  0  0  0
    7.6535  -13.7626   18.0680 N   0  0  0  0  0  0  0  0  0  0  0  0
    8.1428  -14.5408   20.3024 C   0  0  0  0  0  0  0  0  0  0  0  0
    6.9373  -14.8220   20.5190 O   0  0  0  0  0  0  0  0  0  0  0  0
   10.9157  -17.2636   21.6448 O   0  0  0  0  0  0  0  0  0  0  0  0
    9.5480  -17.4774   21.7056 C   0  0  0  0  0  0  0  0  0  0  0  0
    8.7912  -16.2244   22.0760 C   0  0  2  0  0  0  0  0  0  0  0  0
    9.1094  -15.1988   21.1094 N   0  0  0  0  0  0  0  0  0  0  0  0
    9.1239  -15.8180   23.4587 C   0  0  0  0  0  0  0  0  0  0  0  0
   10.0856  -15.0274   23.6341 O   0  0  0  0  0  0  0  0  0  0  0  0
    8.4263  -16.2626   24.6139 N   0  0  0  0  0  0  0  0  0  0  0  0
    8.8813  -15.9684   25.9625 C   0  0  1  0  0  0  0  0  0  0  0  0
    7.7368  -15.5542   26.8254 C   0  0  0  0  0  0  0  0  0  0  0  0
    7.3278  -14.1679   26.6397 C   0  0  0  0  0  0  0  0  0  0  0  0
    6.0627  -13.8017   26.1780 C   0  0  0  0  0  0  0  0  0  0  0  0
    5.6663  -12.5026   26.0115 C   0  0  0  0  0  0  0  0  0  0  0  0
    6.5359  -11.4803   26.3052 C   0  0  0  0  0  0  0  0  0  0  0  0
    7.7868  -11.7912   26.7608 C   0  0  0  0  0  0  0  0  0  0  0  0
    8.1782  -13.1164   26.9262 C   0  0  0  0  0  0  0  0  0  0  0  0
    9.6089  -17.1485   26.4676 C   0  0  0  0  0  0  0  0  0  0  0  0
   10.3734  -17.0698   27.6381 O   0  0  0  0  0  0  0  0  0  0  0  0
    9.5297  -18.2276   25.8248 O   0  0  0  0  0  0  0  0  0  0  0  0
  2  4  1  0
  2  3  1  0
  2  1  1  1
  4  5  2  0
  6  7  1  0
  8  7  1  6
  8 10  1  0
  9  8  1  0
  9  4  1  0
 10 12  1  0
 10 11  2  0
 12 13  1  0
 13 14  1  1
 14 15  1  0
 15 16  2  0
 15 20  1  0
 16 17  1  0
 17 18  2  0
 19 18  1  0
 20 19  2  0
 21 22  1  0
 21 13  1  0
 23 21  2  0
M  END
$$$$
