ASF.pdb
     RDKit          3D

 23 23  0  0  1  0  0  0  0  0999 V2000
    7.8020  -19.3345   19.2386 C   0  0  0  0  0  0  0  0  0  0  0  0
    8.1095  -19.0909   20.6859 C   0  0  2  0  0  0  0  0  0  0  0  0
    6.9485  -19.3643   21.5360 N   0  0  0  0  0  0  0  0  0  0  0  0
    8.6312  -17.7344   20.9447 C   0  0  0  0  0  0  0  0  0  0  0  0
    9.8308  -17.4628   20.6872 O   0  0  0  0  0  0  0  0  0  0  0  0
    6.0437  -14.7551   22.2098 O   0  0  0  0  0  0  0  0  0  0  0  0
    7.1735  -14.3839   21.4987 C   0  0  0  0  0  0  0  0  0  0  0  0
    8.3205  -15.3430   21.7097 C   0  0  2  0  0  0  0  0  0  0  0  0
    7.8379  -16.6857   21.4826 N   0  0  0  0  0  0  0  0  0  0  0  0
    8.8869  -15.1697   23.0651 C   0  0  0  0  0  0  0  0  0  0  0  0
    9.5605  -14.1352   23.3033 O   0  0  0  0  0  0  0  0  0  0  0  0
    8.7216  -16.0991   24.1270 N   0  0  0  0  0  0  0  0  0  0  0  0
    9.3665  -15.9318   25.4187 C   0  0  1  0  0  0  0  0  0  0  0  0
    8.3496  -15.7393   26.4934 C   0  0  0  0  0  0  0  0  0  0  0  0
    7.7384  -14.4165   26.4989 C   0  0  0  0  0  0  0  0  0  0  0  0
    6.3727  -14.2070   26.3021 C   0  0  0  0  0  0  0  0  0  0  0  0
    5.7885  -12.9696   26.3168 C   0  0  0  0  0  0  0  0  0  0  0  0
    6.5592  -11.8532   26.5343 C   0  0  0  0  0  0  0  0  0  0  0  0
    7.9028  -12.0097   26.7322 C   0  0  0  0  0  0  0  0  0  0  0  0
    8.4853  -13.2735   26.7150 C   0  0  0  0  0  0  0  0  0  0  0  0
   10.2530  -17.0901   25.6410 C   0  0  0  0  0  0  0  0  0  0  0  0
   10.3132  -18.1334   24.7090 O   0  0  0  0  0  0  0  0  0  0  0  0
   10.9538  -17.1227   26.6859 O   0  0  0  0  0  0  0  0  0  0  0  0
  2  4  1  0
  2  3  1  0
  2  1  1  6
  4  5  2  0
  6  7  1  0
  8  7  1  1
  8 10  1  0
  9  8  1  0
  9  4  1  0
 10 12  1  0
 10 11  2  0
 12 13  1  0
 13 14  1  1
 14 15  1  0
 15 16  2  0
 15 20  1  0
 16 17  1  0
 17 18  2  0
 19 18  1  0
 20 19  2  0
 21 22  1  0
 21 13  1  0
 23 21  2  0
M  END
$$$$
