ASF.pdb
     RDKit          3D

 23 23  0  0  1  0  0  0  0  0999 V2000
    7.1791  -12.7148   19.0356 C   0  0  0  0  0  0  0  0  0  0  0  0
    8.4299  -13.0771   19.7792 C   0  0  2  0  0  0  0  0  0  0  0  0
    9.4799  -13.5437   18.8708 N   0  0  0  0  0  0  0  0  0  0  0  0
    8.1982  -14.0650   20.8514 C   0  0  0  0  0  0  0  0  0  0  0  0
    7.2443  -13.9087   21.6544 O   0  0  0  0  0  0  0  0  0  0  0  0
    9.0533  -18.6243   22.3076 O   0  0  0  0  0  0  0  0  0  0  0  0
    9.3030  -17.5553   21.4621 C   0  0  0  0  0  0  0  0  0  0  0  0
    8.7188  -16.2654   21.9863 C   0  0  2  0  0  0  0  0  0  0  0  0
    9.0107  -15.2155   21.0376 N   0  0  0  0  0  0  0  0  0  0  0  0
    9.2558  -15.9729   23.3331 C   0  0  0  0  0  0  0  0  0  0  0  0
   10.3936  -15.4451   23.4210 O   0  0  0  0  0  0  0  0  0  0  0  0
    8.5697  -16.2492   24.5462 N   0  0  0  0  0  0  0  0  0  0  0  0
    9.1391  -15.9534   25.8503 C   0  0  1  0  0  0  0  0  0  0  0  0
    8.0753  -15.5224   26.8034 C   0  0  0  0  0  0  0  0  0  0  0  0
    7.6182  -14.1538   26.5996 C   0  0  0  0  0  0  0  0  0  0  0  0
    6.2836  -13.8237   26.3592 C   0  0  0  0  0  0  0  0  0  0  0  0
    5.8437  -12.5407   26.1779 C   0  0  0  0  0  0  0  0  0  0  0  0
    6.7376  -11.4986   26.2292 C   0  0  0  0  0  0  0  0  0  0  0  0
    8.0562  -11.7740   26.4625 C   0  0  0  0  0  0  0  0  0  0  0  0
    8.4914  -13.0832   26.6453 C   0  0  0  0  0  0  0  0  0  0  0  0
    9.8938  -17.1390   26.2997 C   0  0  0  0  0  0  0  0  0  0  0  0
   10.8187  -17.0429   27.3467 O   0  0  0  0  0  0  0  0  0  0  0  0
    9.6907  -18.2388   25.7226 O   0  0  0  0  0  0  0  0  0  0  0  0
  2  4  1  0
  2  3  1  0
  2  1  1  6
  4  5  2  0
  6  7  1  0
  8  7  1  6
  8 10  1  0
  9  8  1  0
  9  4  1  0
 10 12  1  0
 10 11  2  0
 12 13  1  0
 13 14  1  1
 14 15  1  0
 15 16  2  0
 15 20  1  0
 16 17  1  0
 17 18  2  0
 19 18  1  0
 20 19  2  0
 21 22  1  0
 21 13  1  0
 23 21  2  0
M  END
$$$$
