ASF.pdb
     RDKit          3D

 23 23  0  0  1  0  0  0  0  0999 V2000
    8.9710  -12.3647   19.2619 C   0  0  0  0  0  0  0  0  0  0  0  0
    8.3806  -13.7088   18.9559 C   0  0  2  0  0  0  0  0  0  0  0  0
    7.1960  -13.5943   18.1020 N   0  0  0  0  0  0  0  0  0  0  0  0
    8.0698  -14.4922   20.1679 C   0  0  0  0  0  0  0  0  0  0  0  0
    7.0911  -14.1729   20.8886 O   0  0  0  0  0  0  0  0  0  0  0  0
   10.1109  -18.0932   21.1023 O   0  0  0  0  0  0  0  0  0  0  0  0
    8.7916  -17.8509   21.4499 C   0  0  0  0  0  0  0  0  0  0  0  0
    8.5435  -16.3954   21.7660 C   0  0  2  0  0  0  0  0  0  0  0  0
    8.8308  -15.6179   20.5826 N   0  0  0  0  0  0  0  0  0  0  0  0
    9.3617  -15.9792   22.9259 C   0  0  0  0  0  0  0  0  0  0  0  0
   10.5346  -15.5777   22.7164 O   0  0  0  0  0  0  0  0  0  0  0  0
    8.9109  -16.0014   24.2731 N   0  0  0  0  0  0  0  0  0  0  0  0
    9.7724  -15.6533   25.3907 C   0  0  1  0  0  0  0  0  0  0  0  0
    9.8480  -14.1724   25.5554 C   0  0  0  0  0  0  0  0  0  0  0  0
    8.5754  -13.5498   25.8968 C   0  0  0  0  0  0  0  0  0  0  0  0
    7.6209  -13.1937   24.9429 C   0  0  0  0  0  0  0  0  0  0  0  0
    6.4188  -12.6191   25.2551 C   0  0  0  0  0  0  0  0  0  0  0  0
    6.1036  -12.3659   26.5682 C   0  0  0  0  0  0  0  0  0  0  0  0
    7.0084  -12.6980   27.5377 C   0  0  0  0  0  0  0  0  0  0  0  0
    8.2277  -13.2820   27.2076 C   0  0  0  0  0  0  0  0  0  0  0  0
    9.2765  -16.3591   26.5878 C   0  0  0  0  0  0  0  0  0  0  0  0
   10.0350  -16.3905   27.7644 O   0  0  0  0  0  0  0  0  0  0  0  0
    8.1582  -16.9337   26.5303 O   0  0  0  0  0  0  0  0  0  0  0  0
  2  4  1  0
  2  3  1  0
  2  1  1  1
  4  5  2  0
  6  7  1  0
  8  7  1  6
  8 10  1  0
  9  8  1  0
  9  4  1  0
 10 12  1  0
 10 11  2  0
 12 13  1  0
 13 14  1  1
 14 15  1  0
 15 16  2  0
 15 20  1  0
 16 17  1  0
 17 18  2  0
 19 18  1  0
 20 19  2  0
 21 22  1  0
 21 13  1  0
 23 21  2  0
M  END
$$$$
