ASF.pdb
     RDKit          3D

 23 23  0  0  1  0  0  0  0  0999 V2000
    7.5710  -13.1783   18.0734 C   0  0  0  0  0  0  0  0  0  0  0  0
    8.7948  -13.5999   18.8305 C   0  0  2  0  0  0  0  0  0  0  0  0
    9.8382  -14.0988   17.9318 N   0  0  0  0  0  0  0  0  0  0  0  0
    8.5071  -14.5896   19.8875 C   0  0  0  0  0  0  0  0  0  0  0  0
    7.5896  -14.3727   20.7184 O   0  0  0  0  0  0  0  0  0  0  0  0
   11.2843  -17.5475   21.0317 O   0  0  0  0  0  0  0  0  0  0  0  0
    9.9540  -17.9143   20.9059 C   0  0  0  0  0  0  0  0  0  0  0  0
    9.0190  -16.7459   21.1076 C   0  0  2  0  0  0  0  0  0  0  0  0
    9.2242  -15.8079   20.0280 N   0  0  0  0  0  0  0  0  0  0  0  0
    9.2460  -16.1349   22.4354 C   0  0  0  0  0  0  0  0  0  0  0  0
   10.2962  -15.4672   22.6142 O   0  0  0  0  0  0  0  0  0  0  0  0
    8.3519  -16.2507   23.5336 N   0  0  0  0  0  0  0  0  0  0  0  0
    8.3268  -15.2908   24.6247 C   0  0  1  0  0  0  0  0  0  0  0  0
    7.1638  -14.3666   24.4857 C   0  0  0  0  0  0  0  0  0  0  0  0
    7.0151  -13.4327   25.5944 C   0  0  0  0  0  0  0  0  0  0  0  0
    5.8376  -13.3081   26.3333 C   0  0  0  0  0  0  0  0  0  0  0  0
    5.6927  -12.4421   27.3829 C   0  0  0  0  0  0  0  0  0  0  0  0
    6.7429  -11.6383   27.7550 C   0  0  0  0  0  0  0  0  0  0  0  0
    7.9168  -11.7259   27.0598 C   0  0  0  0  0  0  0  0  0  0  0  0
    8.0520  -12.6106   25.9941 C   0  0  0  0  0  0  0  0  0  0  0  0
    8.3399  -16.0415   25.8949 C   0  0  0  0  0  0  0  0  0  0  0  0
    8.1965  -17.4343   25.9034 O   0  0  0  0  0  0  0  0  0  0  0  0
    8.4815  -15.4049   26.9713 O   0  0  0  0  0  0  0  0  0  0  0  0
  2  4  1  0
  2  3  1  0
  2  1  1  6
  4  5  2  0
  6  7  1  0
  8  7  1  6
  8 10  1  0
  9  8  1  0
  9  4  1  0
 10 12  1  0
 10 11  2  0
 12 13  1  0
 13 14  1  6
 14 15  1  0
 15 16  2  0
 15 20  1  0
 16 17  1  0
 17 18  2  0
 19 18  1  0
 20 19  2  0
 21 22  1  0
 21 13  1  0
 23 21  2  0
M  END
$$$$
