ASF.pdb
     RDKit          3D

 23 23  0  0  1  0  0  0  0  0999 V2000
   10.5736  -15.4728   15.2137 C   0  0  0  0  0  0  0  0  0  0  0  0
    9.4913  -16.4908   15.4158 C   0  0  2  0  0  0  0  0  0  0  0  0
    8.2717  -16.1308   14.6891 N   0  0  0  0  0  0  0  0  0  0  0  0
    9.1900  -16.7380   16.8397 C   0  0  0  0  0  0  0  0  0  0  0  0
    8.3478  -16.0220   17.4373 O   0  0  0  0  0  0  0  0  0  0  0  0
   11.3243  -19.6077   18.9950 O   0  0  0  0  0  0  0  0  0  0  0  0
    9.9763  -19.4630   19.2817 C   0  0  0  0  0  0  0  0  0  0  0  0
    9.4732  -18.0740   18.9694 C   0  0  2  0  0  0  0  0  0  0  0  0
    9.8115  -17.7654   17.5991 N   0  0  0  0  0  0  0  0  0  0  0  0
   10.0438  -17.0987   19.9239 C   0  0  0  0  0  0  0  0  0  0  0  0
   11.0663  -16.4533   19.5790 O   0  0  0  0  0  0  0  0  0  0  0  0
    9.5126  -16.8373   21.2154 N   0  0  0  0  0  0  0  0  0  0  0  0
   10.0989  -15.8607   22.1181 C   0  0  1  0  0  0  0  0  0  0  0  0
    9.0702  -14.8804   22.5729 C   0  0  0  0  0  0  0  0  0  0  0  0
    8.4169  -14.1622   21.4863 C   0  0  0  0  0  0  0  0  0  0  0  0
    7.1344  -14.4713   21.0307 C   0  0  0  0  0  0  0  0  0  0  0  0
    6.5088  -13.7951   20.0188 C   0  0  0  0  0  0  0  0  0  0  0  0
    7.1497  -12.7509   19.3970 C   0  0  0  0  0  0  0  0  0  0  0  0
    8.4080  -12.4118   19.8099 C   0  0  0  0  0  0  0  0  0  0  0  0
    9.0338  -13.1072   20.8402 C   0  0  0  0  0  0  0  0  0  0  0  0
   10.7515  -16.5913   23.2215 C   0  0  0  0  0  0  0  0  0  0  0  0
   11.6475  -15.9404   24.0782 O   0  0  0  0  0  0  0  0  0  0  0  0
   10.4876  -17.8120   23.3770 O   0  0  0  0  0  0  0  0  0  0  0  0
  2  4  1  0
  2  3  1  0
  2  1  1  1
  4  5  2  0
  6  7  1  0
  8  7  1  1
  8 10  1  0
  9  8  1  0
  9  4  1  0
 10 12  1  0
 10 11  2  0
 12 13  1  0
 13 14  1  1
 14 15  1  0
 15 16  2  0
 15 20  1  0
 16 17  1  0
 17 18  2  0
 19 18  1  0
 20 19  2  0
 21 22  1  0
 21 13  1  0
 23 21  2  0
M  END
$$$$
