ASF.pdb
     RDKit          3D

 23 23  0  0  1  0  0  0  0  0999 V2000
    8.4559  -12.0393   19.5817 C   0  0  0  0  0  0  0  0  0  0  0  0
    8.5121  -13.4590   19.1021 C   0  0  2  0  0  0  0  0  0  0  0  0
    7.7463  -13.6402   17.8667 N   0  0  0  0  0  0  0  0  0  0  0  0
    8.0795  -14.4313   20.1252 C   0  0  0  0  0  0  0  0  0  0  0  0
    6.8651  -14.7379   20.2269 O   0  0  0  0  0  0  0  0  0  0  0  0
   10.4891  -17.4269   21.4836 O   0  0  0  0  0  0  0  0  0  0  0  0
    9.1050  -17.3976   21.5412 C   0  0  0  0  0  0  0  0  0  0  0  0
    8.5818  -16.0567   21.9977 C   0  0  2  0  0  0  0  0  0  0  0  0
    8.9773  -15.0607   21.0286 N   0  0  0  0  0  0  0  0  0  0  0  0
    9.0810  -15.7505   23.3560 C   0  0  0  0  0  0  0  0  0  0  0  0
   10.2034  -15.1954   23.4690 O   0  0  0  0  0  0  0  0  0  0  0  0
    8.3742  -16.0422   24.5536 N   0  0  0  0  0  0  0  0  0  0  0  0
    8.9411  -15.8094   25.8714 C   0  0  1  0  0  0  0  0  0  0  0  0
    7.8780  -15.4073   26.8379 C   0  0  0  0  0  0  0  0  0  0  0  0
    7.3684  -14.0582   26.6286 C   0  0  0  0  0  0  0  0  0  0  0  0
    6.0822  -13.7940   26.1555 C   0  0  0  0  0  0  0  0  0  0  0  0
    5.5915  -12.5307   25.9667 C   0  0  0  0  0  0  0  0  0  0  0  0
    6.3812  -11.4422   26.2483 C   0  0  0  0  0  0  0  0  0  0  0  0
    7.6491  -11.6524   26.7144 C   0  0  0  0  0  0  0  0  0  0  0  0
    8.1368  -12.9422   26.9023 C   0  0  0  0  0  0  0  0  0  0  0  0
    9.6800  -17.0220   26.2724 C   0  0  0  0  0  0  0  0  0  0  0  0
    9.6502  -18.1732   25.4760 O   0  0  0  0  0  0  0  0  0  0  0  0
   10.3373  -17.0016   27.3455 O   0  0  0  0  0  0  0  0  0  0  0  0
  2  4  1  0
  2  3  1  0
  2  1  1  1
  4  5  2  0
  6  7  1  0
  8  7  1  6
  8 10  1  0
  9  8  1  0
  9  4  1  0
 10 12  1  0
 10 11  2  0
 12 13  1  0
 13 14  1  1
 14 15  1  0
 15 16  2  0
 15 20  1  0
 16 17  1  0
 17 18  2  0
 19 18  1  0
 20 19  2  0
 21 22  1  0
 21 13  1  0
 23 21  2  0
M  END
$$$$
