FVG.pdb
     RDKit          3D

 23 23  0  0  1  0  0  0  0  0999 V2000
    6.3651  -18.2219   25.9493 N   0  0  0  0  0  0  0  0  0  0  0  0
    6.6453  -16.8323   25.6739 C   0  0  1  0  0  0  0  0  0  0  0  0
    7.3656  -16.2213   26.8562 C   0  0  0  0  0  0  0  0  0  0  0  0
    7.0822  -14.7734   26.8535 C   0  0  0  0  0  0  0  0  0  0  0  0
    5.8061  -14.3608   26.4730 C   0  0  0  0  0  0  0  0  0  0  0  0
    5.5184  -13.0236   26.4622 C   0  0  0  0  0  0  0  0  0  0  0  0
    6.4964  -12.1116   26.8278 C   0  0  0  0  0  0  0  0  0  0  0  0
    7.7570  -12.5464   27.2020 C   0  0  0  0  0  0  0  0  0  0  0  0
    8.0564  -13.8946   27.2159 C   0  0  0  0  0  0  0  0  0  0  0  0
    7.5224  -16.6642   24.4914 C   0  0  0  0  0  0  0  0  0  0  0  0
    8.3347  -17.5933   24.2446 O   0  0  0  0  0  0  0  0  0  0  0  0
    8.5946  -14.2718   20.3798 C   0  0  0  0  0  0  0  0  0  0  0  0
    7.6736  -14.3616   21.5782 C   0  0  1  0  0  0  0  0  0  0  0  0
    6.3122  -14.7932   21.1225 C   0  0  0  0  0  0  0  0  0  0  0  0
    8.2343  -15.4446   22.4803 C   0  0  2  0  0  0  0  0  0  0  0  0
    7.4514  -15.5167   23.6792 N   0  0  0  0  0  0  0  0  0  0  0  0
    9.6389  -15.0988   22.9032 C   0  0  0  0  0  0  0  0  0  0  0  0
    9.8978  -14.1067   23.6332 O   0  0  0  0  0  0  0  0  0  0  0  0
   10.7408  -15.8911   22.4879 N   0  0  0  0  0  0  0  0  0  0  0  0
   12.0994  -15.5709   22.8585 C   0  0  0  0  0  0  0  0  0  0  0  0
   13.0760  -16.4821   22.2053 C   0  0  0  0  0  0  0  0  0  0  0  0
   12.7182  -17.6176   21.8051 O   0  0  0  0  0  0  0  0  0  0  0  0
   14.4013  -16.1197   22.0147 O   0  0  0  0  0  0  0  0  0  0  0  0
  2 10  1  0
  2  1  1  1
  3  2  1  0
  4  3  1  0
  5  4  2  0
  6  5  1  0
  7  8  1  0
  7  6  2  0
  8  9  2  0
  9  4  1  0
 10 11  2  0
 13 12  1  6
 13 14  1  0
 15 13  1  0
 16 10  1  0
 15 16  1  1
 17 19  1  0
 17 15  1  0
 18 17  2  0
 20 21  1  0
 20 19  1  0
 21 23  1  0
 22 21  2  0
M  END
$$$$
