FVG.pdb
     RDKit          3D

 23 23  0  0  1  0  0  0  0  0999 V2000
    5.9844  -17.9979   25.8379 N   0  0  0  0  0  0  0  0  0  0  0  0
    6.4257  -16.6458   25.5879 C   0  0  1  0  0  0  0  0  0  0  0  0
    7.1627  -16.1253   26.8028 C   0  0  0  0  0  0  0  0  0  0  0  0
    7.1099  -14.6515   26.7609 C   0  0  0  0  0  0  0  0  0  0  0  0
    5.8628  -14.0493   26.6019 C   0  0  0  0  0  0  0  0  0  0  0  0
    5.7871  -12.6842   26.5600 C   0  0  0  0  0  0  0  0  0  0  0  0
    6.9460  -11.9322   26.6758 C   0  0  0  0  0  0  0  0  0  0  0  0
    8.1736  -12.5540   26.8329 C   0  0  0  0  0  0  0  0  0  0  0  0
    8.2594  -13.9317   26.8764 C   0  0  0  0  0  0  0  0  0  0  0  0
    7.3607  -16.5677   24.4409 C   0  0  0  0  0  0  0  0  0  0  0  0
    8.0448  -17.5937   24.1893 O   0  0  0  0  0  0  0  0  0  0  0  0
    8.8337  -14.2890   20.3972 C   0  0  0  0  0  0  0  0  0  0  0  0
    7.9448  -14.2163   21.6208 C   0  0  1  0  0  0  0  0  0  0  0  0
    6.5137  -14.3650   21.2001 C   0  0  0  0  0  0  0  0  0  0  0  0
    8.3055  -15.4028   22.4943 C   0  0  2  0  0  0  0  0  0  0  0  0
    7.4797  -15.3984   23.6663 N   0  0  0  0  0  0  0  0  0  0  0  0
    9.7306  -15.2884   22.9711 C   0  0  0  0  0  0  0  0  0  0  0  0
   10.1632  -14.2646   23.5618 O   0  0  0  0  0  0  0  0  0  0  0  0
   10.6537  -16.3473   22.7691 N   0  0  0  0  0  0  0  0  0  0  0  0
   12.0377  -16.2459   23.1693 C   0  0  0  0  0  0  0  0  0  0  0  0
   12.9539  -16.3180   22.0005 C   0  0  0  0  0  0  0  0  0  0  0  0
   14.1947  -16.2007   22.1559 O   0  0  0  0  0  0  0  0  0  0  0  0
   12.4816  -16.5147   20.7111 O   0  0  0  0  0  0  0  0  0  0  0  0
  2 10  1  0
  2  1  1  1
  3  2  1  0
  4  3  1  0
  5  4  2  0
  6  5  1  0
  7  8  1  0
  7  6  2  0
  8  9  2  0
  9  4  1  0
 10 11  2  0
 13 12  1  6
 13 14  1  0
 15 13  1  0
 16 10  1  0
 15 16  1  1
 17 19  1  0
 17 15  1  0
 18 17  2  0
 20 21  1  0
 20 19  1  0
 21 23  1  0
 22 21  2  0
M  END
$$$$
