FVG.pdb
     RDKit          3D

 23 23  0  0  1  0  0  0  0  0999 V2000
    5.9341  -17.8278   25.5406 N   0  0  0  0  0  0  0  0  0  0  0  0
    6.4237  -16.5212   25.1686 C   0  0  1  0  0  0  0  0  0  0  0  0
    7.3959  -16.0311   26.2198 C   0  0  0  0  0  0  0  0  0  0  0  0
    7.1249  -14.5988   26.4471 C   0  0  0  0  0  0  0  0  0  0  0  0
    8.2094  -13.7669   26.7212 C   0  0  0  0  0  0  0  0  0  0  0  0
    7.9844  -12.4348   26.9358 C   0  0  0  0  0  0  0  0  0  0  0  0
    6.6897  -11.9427   26.8765 C   0  0  0  0  0  0  0  0  0  0  0  0
    5.6286  -12.7896   26.6024 C   0  0  0  0  0  0  0  0  0  0  0  0
    5.8464  -14.1359   26.3845 C   0  0  0  0  0  0  0  0  0  0  0  0
    7.1496  -16.5447   23.8770 C   0  0  0  0  0  0  0  0  0  0  0  0
    7.2621  -17.6596   23.3039 O   0  0  0  0  0  0  0  0  0  0  0  0
    8.6330  -13.9007   20.0559 C   0  0  0  0  0  0  0  0  0  0  0  0
    8.0212  -13.8974   21.4408 C   0  0  1  0  0  0  0  0  0  0  0  0
    6.6008  -13.4264   21.3514 C   0  0  0  0  0  0  0  0  0  0  0  0
    8.0115  -15.3373   21.9179 C   0  0  2  0  0  0  0  0  0  0  0  0
    7.6901  -15.3729   23.3146 N   0  0  0  0  0  0  0  0  0  0  0  0
    9.3832  -15.9454   21.7759 C   0  0  0  0  0  0  0  0  0  0  0  0
    9.8817  -16.2291   20.6555 O   0  0  0  0  0  0  0  0  0  0  0  0
   10.1776  -16.2259   22.9180 N   0  0  0  0  0  0  0  0  0  0  0  0
   11.4346  -16.9309   22.8243 C   0  0  0  0  0  0  0  0  0  0  0  0
   12.5122  -16.0620   22.2814 C   0  0  0  0  0  0  0  0  0  0  0  0
   12.2679  -15.2465   21.3580 O   0  0  0  0  0  0  0  0  0  0  0  0
   13.8107  -16.1168   22.7660 O   0  0  0  0  0  0  0  0  0  0  0  0
  2 10  1  0
  2  1  1  1
  3  2  1  0
  4  3  1  0
  5  4  2  0
  6  5  1  0
  7  8  1  0
  7  6  2  0
  8  9  2  0
  9  4  1  0
 10 11  2  0
 13 12  1  6
 13 14  1  0
 15 13  1  0
 16 10  1  0
 15 16  1  1
 17 19  1  0
 17 15  1  0
 18 17  2  0
 20 21  1  0
 20 19  1  0
 21 23  1  0
 22 21  2  0
M  END
$$$$
