FVG.pdb
     RDKit          3D

 23 23  0  0  1  0  0  0  0  0999 V2000
    7.3676  -17.7042   26.5971 N   0  0  0  0  0  0  0  0  0  0  0  0
    8.0274  -16.5833   25.9698 C   0  0  1  0  0  0  0  0  0  0  0  0
    9.4914  -16.5834   26.3533 C   0  0  0  0  0  0  0  0  0  0  0  0
    9.6817  -15.5543   27.3933 C   0  0  0  0  0  0  0  0  0  0  0  0
   10.2785  -15.9428   28.5917 C   0  0  0  0  0  0  0  0  0  0  0  0
   10.4661  -15.0073   29.5718 C   0  0  0  0  0  0  0  0  0  0  0  0
   10.0610  -13.6995   29.3540 C   0  0  0  0  0  0  0  0  0  0  0  0
    9.4703  -13.3380   28.1546 C   0  0  0  0  0  0  0  0  0  0  0  0
    9.2769  -14.2760   27.1594 C   0  0  0  0  0  0  0  0  0  0  0  0
    7.9615  -16.6537   24.4911 C   0  0  0  0  0  0  0  0  0  0  0  0
    7.4625  -17.6946   23.9894 O   0  0  0  0  0  0  0  0  0  0  0  0
    7.3651  -13.8942   20.5825 C   0  0  0  0  0  0  0  0  0  0  0  0
    7.5893  -14.0239   22.0743 C   0  0  1  0  0  0  0  0  0  0  0  0
    6.3064  -13.7321   22.7928 C   0  0  0  0  0  0  0  0  0  0  0  0
    7.9582  -15.4717   22.3367 C   0  0  2  0  0  0  0  0  0  0  0  0
    8.4356  -15.6039   23.6821 N   0  0  0  0  0  0  0  0  0  0  0  0
    9.0886  -15.8960   21.4348 C   0  0  0  0  0  0  0  0  0  0  0  0
    8.9508  -16.0072   20.1887 O   0  0  0  0  0  0  0  0  0  0  0  0
   10.3719  -16.1910   21.9645 N   0  0  0  0  0  0  0  0  0  0  0  0
   11.4709  -16.6086   21.1257 C   0  0  0  0  0  0  0  0  0  0  0  0
   12.7332  -16.7410   21.9003 C   0  0  0  0  0  0  0  0  0  0  0  0
   12.9955  -15.9404   22.8318 O   0  0  0  0  0  0  0  0  0  0  0  0
   13.6574  -17.7391   21.6289 O   0  0  0  0  0  0  0  0  0  0  0  0
  2 10  1  0
  2  1  1  1
  3  2  1  0
  4  3  1  0
  5  4  2  0
  6  5  1  0
  7  8  1  0
  7  6  2  0
  8  9  2  0
  9  4  1  0
 10 11  2  0
 13 12  1  6
 13 14  1  0
 15 13  1  0
 16 10  1  0
 15 16  1  1
 17 19  1  0
 17 15  1  0
 18 17  2  0
 20 21  1  0
 20 19  1  0
 21 23  1  0
 22 21  2  0
M  END
$$$$
