FVG.pdb
     RDKit          3D

 23 23  0  0  1  0  0  0  0  0999 V2000
    6.7983  -17.4473   25.8764 N   0  0  0  0  0  0  0  0  0  0  0  0
    7.1096  -16.1746   25.2694 C   0  0  1  0  0  0  0  0  0  0  0  0
    8.0757  -15.4184   26.1555 C   0  0  0  0  0  0  0  0  0  0  0  0
    7.4504  -14.1273   26.4999 C   0  0  0  0  0  0  0  0  0  0  0  0
    6.2073  -13.8364   25.9399 C   0  0  0  0  0  0  0  0  0  0  0  0
    5.6066  -12.6457   26.2437 C   0  0  0  0  0  0  0  0  0  0  0  0
    6.2430  -11.7579   27.0973 C   0  0  0  0  0  0  0  0  0  0  0  0
    7.4780  -12.0699   27.6411 C   0  0  0  0  0  0  0  0  0  0  0  0
    8.0919  -13.2698   27.3400 C   0  0  0  0  0  0  0  0  0  0  0  0
    7.7590  -16.3317   23.9466 C   0  0  0  0  0  0  0  0  0  0  0  0
    7.8645  -17.5023   23.4963 O   0  0  0  0  0  0  0  0  0  0  0  0
    8.4148  -13.9046   19.7882 C   0  0  0  0  0  0  0  0  0  0  0  0
    7.9297  -13.9202   21.2224 C   0  0  1  0  0  0  0  0  0  0  0  0
    6.4359  -13.7958   21.2391 C   0  0  0  0  0  0  0  0  0  0  0  0
    8.2965  -15.2770   21.7932 C   0  0  2  0  0  0  0  0  0  0  0  0
    8.2371  -15.2220   23.2246 N   0  0  0  0  0  0  0  0  0  0  0  0
    9.7170  -15.6298   21.4342 C   0  0  0  0  0  0  0  0  0  0  0  0
   10.0881  -15.8024   20.2439 O   0  0  0  0  0  0  0  0  0  0  0  0
   10.7062  -15.7832   22.4403 N   0  0  0  0  0  0  0  0  0  0  0  0
   12.0567  -16.1922   22.1329 C   0  0  0  0  0  0  0  0  0  0  0  0
   12.8864  -16.3142   23.3607 C   0  0  0  0  0  0  0  0  0  0  0  0
   12.3434  -16.4504   24.4851 O   0  0  0  0  0  0  0  0  0  0  0  0
   14.2723  -16.2830   23.3138 O   0  0  0  0  0  0  0  0  0  0  0  0
  2 10  1  0
  2  1  1  1
  3  2  1  0
  4  3  1  0
  5  4  2  0
  6  5  1  0
  7  8  1  0
  7  6  2  0
  8  9  2  0
  9  4  1  0
 10 11  2  0
 13 12  1  6
 13 14  1  0
 15 13  1  0
 16 10  1  0
 15 16  1  1
 17 19  1  0
 17 15  1  0
 18 17  2  0
 20 21  1  0
 20 19  1  0
 21 23  1  0
 22 21  2  0
M  END
$$$$
