FVG.pdb
     RDKit          3D

 23 23  0  0  1  0  0  0  0  0999 V2000
    6.1795  -17.8254   25.4964 N   0  0  0  0  0  0  0  0  0  0  0  0
    6.6337  -16.4789   25.2392 C   0  0  1  0  0  0  0  0  0  0  0  0
    7.5643  -16.0421   26.3497 C   0  0  0  0  0  0  0  0  0  0  0  0
    7.4170  -14.5828   26.5091 C   0  0  0  0  0  0  0  0  0  0  0  0
    6.1266  -14.0555   26.5115 C   0  0  0  0  0  0  0  0  0  0  0  0
    5.9633  -12.7053   26.6577 C   0  0  0  0  0  0  0  0  0  0  0  0
    7.0784  -11.8940   26.7996 C   0  0  0  0  0  0  0  0  0  0  0  0
    8.3505  -12.4418   26.7941 C   0  0  0  0  0  0  0  0  0  0  0  0
    8.5248  -13.8040   26.6470 C   0  0  0  0  0  0  0  0  0  0  0  0
    7.3898  -16.3788   23.9686 C   0  0  0  0  0  0  0  0  0  0  0  0
    7.9088  -17.4368   23.5265 O   0  0  0  0  0  0  0  0  0  0  0  0
    8.0452  -12.7454   22.0451 C   0  0  0  0  0  0  0  0  0  0  0  0
    7.2914  -13.8222   21.2936 C   0  0  1  0  0  0  0  0  0  0  0  0
    7.6854  -13.7823   19.8477 C   0  0  0  0  0  0  0  0  0  0  0  0
    7.7404  -15.1523   21.8683 C   0  0  2  0  0  0  0  0  0  0  0  0
    7.5226  -15.1553   23.2853 N   0  0  0  0  0  0  0  0  0  0  0  0
    9.2211  -15.3401   21.6595 C   0  0  0  0  0  0  0  0  0  0  0  0
    9.7522  -15.2917   20.5195 O   0  0  0  0  0  0  0  0  0  0  0  0
   10.0867  -15.5826   22.7578 N   0  0  0  0  0  0  0  0  0  0  0  0
   11.5039  -15.8001   22.5846 C   0  0  0  0  0  0  0  0  0  0  0  0
   12.1997  -15.9513   23.8898 C   0  0  0  0  0  0  0  0  0  0  0  0
   11.5411  -16.0535   24.9544 O   0  0  0  0  0  0  0  0  0  0  0  0
   13.5834  -15.9848   23.9823 O   0  0  0  0  0  0  0  0  0  0  0  0
  2 10  1  0
  2  1  1  1
  3  2  1  0
  4  3  1  0
  5  4  2  0
  6  5  1  0
  7  8  1  0
  7  6  2  0
  8  9  2  0
  9  4  1  0
 10 11  2  0
 13 12  1  1
 13 14  1  0
 15 13  1  0
 16 10  1  0
 15 16  1  1
 17 19  1  0
 17 15  1  0
 18 17  2  0
 20 21  1  0
 20 19  1  0
 21 23  1  0
 22 21  2  0
M  END
$$$$
