FVG.pdb
     RDKit          3D

 23 23  0  0  1  0  0  0  0  0999 V2000
    6.2148  -17.4140   26.0620 N   0  0  0  0  0  0  0  0  0  0  0  0
    6.6721  -16.2093   25.4101 C   0  0  1  0  0  0  0  0  0  0  0  0
    7.6717  -15.5044   26.3013 C   0  0  0  0  0  0  0  0  0  0  0  0
    7.1245  -14.1721   26.6213 C   0  0  0  0  0  0  0  0  0  0  0  0
    5.7609  -13.9634   26.4207 C   0  0  0  0  0  0  0  0  0  0  0  0
    5.2292  -12.7367   26.7099 C   0  0  0  0  0  0  0  0  0  0  0  0
    6.0531  -11.7323   27.1938 C   0  0  0  0  0  0  0  0  0  0  0  0
    7.4051  -11.9643   27.3847 C   0  0  0  0  0  0  0  0  0  0  0  0
    7.9505  -13.1997   27.0954 C   0  0  0  0  0  0  0  0  0  0  0  0
    7.3544  -16.4948   24.1260 C   0  0  0  0  0  0  0  0  0  0  0  0
    7.1788  -17.6365   23.6262 O   0  0  0  0  0  0  0  0  0  0  0  0
    6.4859  -14.9797   21.3155 C   0  0  0  0  0  0  0  0  0  0  0  0
    7.9814  -14.7645   21.2176 C   0  0  1  0  0  0  0  0  0  0  0  0
    8.3140  -13.3858   21.7033 C   0  0  0  0  0  0  0  0  0  0  0  0
    8.6294  -15.7645   22.1563 C   0  0  2  0  0  0  0  0  0  0  0  0
    8.1634  -15.5329   23.4923 N   0  0  0  0  0  0  0  0  0  0  0  0
   10.1234  -15.5679   22.1810 C   0  0  0  0  0  0  0  0  0  0  0  0
   10.6830  -14.7539   22.9611 O   0  0  0  0  0  0  0  0  0  0  0  0
   10.9697  -16.3047   21.3120 N   0  0  0  0  0  0  0  0  0  0  0  0
   12.3978  -16.0936   21.2703 C   0  0  0  0  0  0  0  0  0  0  0  0
   13.0953  -16.8436   22.3482 C   0  0  0  0  0  0  0  0  0  0  0  0
   14.3499  -16.8555   22.4063 O   0  0  0  0  0  0  0  0  0  0  0  0
   12.3985  -17.5494   23.3179 O   0  0  0  0  0  0  0  0  0  0  0  0
  2 10  1  0
  2  1  1  1
  3  2  1  0
  4  3  1  0
  5  4  2  0
  6  5  1  0
  7  8  1  0
  7  6  2  0
  8  9  2  0
  9  4  1  0
 10 11  2  0
 13 12  1  1
 13 14  1  0
 15 13  1  0
 16 10  1  0
 15 16  1  1
 17 19  1  0
 17 15  1  0
 18 17  2  0
 20 21  1  0
 20 19  1  0
 21 23  1  0
 22 21  2  0
M  END
$$$$
