FVG.pdb
     RDKit          3D

 23 23  0  0  1  0  0  0  0  0999 V2000
    6.1033  -17.2321   25.2604 N   0  0  0  0  0  0  0  0  0  0  0  0
    6.5997  -15.9444   24.8350 C   0  0  1  0  0  0  0  0  0  0  0  0
    7.6112  -15.4389   25.8408 C   0  0  0  0  0  0  0  0  0  0  0  0
    7.1664  -14.1064   26.2918 C   0  0  0  0  0  0  0  0  0  0  0  0
    7.2922  -13.8025   27.6465 C   0  0  0  0  0  0  0  0  0  0  0  0
    6.8869  -12.5736   28.0898 C   0  0  0  0  0  0  0  0  0  0  0  0
    6.3623  -11.6611   27.1876 C   0  0  0  0  0  0  0  0  0  0  0  0
    6.2475  -11.9867   25.8463 C   0  0  0  0  0  0  0  0  0  0  0  0
    6.6542  -13.2251   25.3898 C   0  0  0  0  0  0  0  0  0  0  0  0
    7.2845  -16.0166   23.5228 C   0  0  0  0  0  0  0  0  0  0  0  0
    7.6282  -17.1580   23.1187 O   0  0  0  0  0  0  0  0  0  0  0  0
    8.4341  -13.9092   19.2909 C   0  0  0  0  0  0  0  0  0  0  0  0
    7.8808  -13.6924   20.6835 C   0  0  1  0  0  0  0  0  0  0  0  0
    6.4045  -13.4476   20.5949 C   0  0  0  0  0  0  0  0  0  0  0  0
    8.0997  -14.9848   21.4470 C   0  0  2  0  0  0  0  0  0  0  0  0
    7.5399  -14.8609   22.7610 N   0  0  0  0  0  0  0  0  0  0  0  0
    9.5734  -15.2425   21.6290 C   0  0  0  0  0  0  0  0  0  0  0  0
   10.3178  -14.4648   22.2811 O   0  0  0  0  0  0  0  0  0  0  0  0
   10.1877  -16.3901   21.0632 N   0  0  0  0  0  0  0  0  0  0  0  0
   11.5740  -16.7158   21.3038 C   0  0  0  0  0  0  0  0  0  0  0  0
   12.2695  -17.1148   20.0517 C   0  0  0  0  0  0  0  0  0  0  0  0
   11.6312  -17.6502   19.1117 O   0  0  0  0  0  0  0  0  0  0  0  0
   13.6306  -16.9144   19.8745 O   0  0  0  0  0  0  0  0  0  0  0  0
  2 10  1  0
  2  1  1  1
  3  2  1  0
  4  3  1  0
  5  4  2  0
  6  5  1  0
  7  8  1  0
  7  6  2  0
  8  9  2  0
  9  4  1  0
 10 11  2  0
 13 12  1  6
 13 14  1  0
 15 13  1  0
 16 10  1  0
 15 16  1  1
 17 19  1  0
 17 15  1  0
 18 17  2  0
 20 21  1  0
 20 19  1  0
 21 23  1  0
 22 21  2  0
M  END
$$$$
