KFT.pdb
     RDKit          3D

 28 28  0  0  1  0  0  0  0  0999 V2000
    8.5732  -16.3305   19.5951 N   0  0  0  0  0  0  0  0  0  0  0  0
    9.4481  -16.9650   20.5564 C   0  0  1  0  0  0  0  0  0  0  0  0
   10.8400  -17.1393   20.0496 C   0  0  0  0  0  0  0  0  0  0  0  0
   10.9088  -17.7082   18.6699 C   0  0  0  0  0  0  0  0  0  0  0  0
   12.0173  -18.7171   18.5770 C   0  0  0  0  0  0  0  0  0  0  0  0
   12.0650  -19.3275   17.1701 C   0  0  0  0  0  0  0  0  0  0  0  0
   13.2480  -20.1800   17.1217 N   0  0  0  0  0  0  0  0  0  0  0  0
    9.5437  -16.1412   21.8084 C   0  0  0  0  0  0  0  0  0  0  0  0
   10.6573  -15.8229   22.2755 O   0  0  0  0  0  0  0  0  0  0  0  0
    8.3791  -15.7237   22.4614 N   0  0  0  0  0  0  0  0  0  0  0  0
    8.3467  -15.0127   23.7195 C   0  0  1  0  0  0  0  0  0  0  0  0
    7.2322  -14.0265   23.8092 C   0  0  0  0  0  0  0  0  0  0  0  0
    7.1085  -13.3354   25.0870 C   0  0  0  0  0  0  0  0  0  0  0  0
    7.9923  -12.3413   25.4494 C   0  0  0  0  0  0  0  0  0  0  0  0
    7.9218  -11.6600   26.6392 C   0  0  0  0  0  0  0  0  0  0  0  0
    6.9175  -11.9721   27.5376 C   0  0  0  0  0  0  0  0  0  0  0  0
    6.0060  -12.9693   27.2089 C   0  0  0  0  0  0  0  0  0  0  0  0
    6.1114  -13.6414   25.9852 C   0  0  0  0  0  0  0  0  0  0  0  0
    8.4663  -15.9281   24.8684 C   0  0  0  0  0  0  0  0  0  0  0  0
    7.5451  -16.7351   25.1543 O   0  0  0  0  0  0  0  0  0  0  0  0
   10.6594  -18.3698   24.8713 C   0  0  0  0  0  0  0  0  0  0  0  0
   10.9950  -17.8249   26.2429 C   0  0  1  0  0  0  0  0  0  0  0  0
   12.1330  -17.0614   26.1386 O   0  0  0  0  0  0  0  0  0  0  0  0
    9.7960  -17.0037   26.7006 C   0  0  2  0  0  0  0  0  0  0  0  0
    9.6179  -15.9470   25.7016 N   0  0  0  0  0  0  0  0  0  0  0  0
   10.0367  -16.3873   28.0043 C   0  0  0  0  0  0  0  0  0  0  0  0
   10.1693  -17.1025   29.0247 O   0  0  0  0  0  0  0  0  0  0  0  0
   10.1218  -15.0218   28.1326 O   0  0  0  0  0  0  0  0  0  0  0  0
  2  1  1  6
  2  8  1  0
  2  3  1  0
  4  3  1  0
  5  4  1  0
  6  5  1  0
  7  6  1  0
  8  9  2  0
 10 11  1  0
 10  8  1  0
 12 13  1  0
 11 12  1  1
 13 18  2  0
 14 15  2  0
 14 13  1  0
 15 16  1  0
 16 17  2  0
 18 17  1  0
 19 20  2  0
 19 11  1  0
 22 21  1  6
 22 24  1  0
 23 22  1  0
 24 26  1  0
 24 25  1  6
 25 19  1  0
 26 28  1  0
 27 26  2  0
M  END
$$$$
