KFT.pdb
     RDKit          3D

 28 28  0  0  1  0  0  0  0  0999 V2000
   10.6059  -16.4835   19.6889 N   0  0  0  0  0  0  0  0  0  0  0  0
    9.4295  -16.7275   20.4943 C   0  0  1  0  0  0  0  0  0  0  0  0
    9.2228  -18.1729   20.7990 C   0  0  0  0  0  0  0  0  0  0  0  0
    9.2833  -19.0541   19.5941 C   0  0  0  0  0  0  0  0  0  0  0  0
    9.0879  -20.4900   19.9884 C   0  0  0  0  0  0  0  0  0  0  0  0
    9.0857  -21.3881   18.7443 C   0  0  0  0  0  0  0  0  0  0  0  0
    8.9185  -22.7586   19.2157 N   0  0  0  0  0  0  0  0  0  0  0  0
    9.5358  -16.0183   21.8137 C   0  0  0  0  0  0  0  0  0  0  0  0
   10.6413  -15.8965   22.3818 O   0  0  0  0  0  0  0  0  0  0  0  0
    8.3905  -15.4873   22.4166 N   0  0  0  0  0  0  0  0  0  0  0  0
    8.3574  -14.8588   23.7179 C   0  0  1  0  0  0  0  0  0  0  0  0
    7.2219  -13.9068   23.8825 C   0  0  0  0  0  0  0  0  0  0  0  0
    7.0960  -13.3044   25.2041 C   0  0  0  0  0  0  0  0  0  0  0  0
    8.0010  -12.3646   25.6495 C   0  0  0  0  0  0  0  0  0  0  0  0
    7.9295  -11.7673   26.8835 C   0  0  0  0  0  0  0  0  0  0  0  0
    6.9017  -12.1126   27.7424 C   0  0  0  0  0  0  0  0  0  0  0  0
    5.9683  -13.0571   27.3300 C   0  0  0  0  0  0  0  0  0  0  0  0
    6.0755  -13.6438   26.0633 C   0  0  0  0  0  0  0  0  0  0  0  0
    8.5119  -15.8424   24.8045 C   0  0  0  0  0  0  0  0  0  0  0  0
    7.5816  -16.6357   25.0994 O   0  0  0  0  0  0  0  0  0  0  0  0
   10.6627  -18.4494   24.7462 C   0  0  0  0  0  0  0  0  0  0  0  0
   11.0512  -17.8544   26.0825 C   0  0  1  0  0  0  0  0  0  0  0  0
   12.1855  -17.0986   25.9064 O   0  0  0  0  0  0  0  0  0  0  0  0
    9.8717  -17.0132   26.5544 C   0  0  2  0  0  0  0  0  0  0  0  0
    9.7085  -15.9452   25.5649 N   0  0  0  0  0  0  0  0  0  0  0  0
   10.1328  -16.4122   27.8613 C   0  0  0  0  0  0  0  0  0  0  0  0
   10.2264  -15.1677   27.9753 O   0  0  0  0  0  0  0  0  0  0  0  0
   10.2785  -17.1961   28.9805 O   0  0  0  0  0  0  0  0  0  0  0  0
  2  1  1  6
  2  8  1  0
  2  3  1  0
  4  3  1  0
  5  4  1  0
  6  5  1  0
  7  6  1  0
  8  9  2  0
 10 11  1  0
 10  8  1  0
 12 13  1  0
 11 12  1  1
 13 18  2  0
 14 15  2  0
 14 13  1  0
 15 16  1  0
 16 17  2  0
 18 17  1  0
 19 20  2  0
 19 11  1  0
 22 21  1  6
 22 24  1  0
 23 22  1  0
 24 26  1  0
 24 25  1  6
 25 19  1  0
 26 28  1  0
 27 26  2  0
M  END
$$$$
