KFT.pdb
     RDKit          3D

 28 28  0  0  1  0  0  0  0  0999 V2000
    8.1473  -17.0805   19.6480 N   0  0  0  0  0  0  0  0  0  0  0  0
    9.5123  -17.0808   20.1265 C   0  0  1  0  0  0  0  0  0  0  0  0
   10.4705  -16.4846   19.1512 C   0  0  0  0  0  0  0  0  0  0  0  0
   10.5494  -17.2279   17.8576 C   0  0  0  0  0  0  0  0  0  0  0  0
    9.4101  -16.8358   16.9611 C   0  0  0  0  0  0  0  0  0  0  0  0
    9.5828  -17.4677   15.5736 C   0  0  0  0  0  0  0  0  0  0  0  0
    8.3761  -17.1544   14.8160 N   0  0  0  0  0  0  0  0  0  0  0  0
    9.6291  -16.2804   21.3918 C   0  0  0  0  0  0  0  0  0  0  0  0
   10.7475  -16.0558   21.9000 O   0  0  0  0  0  0  0  0  0  0  0  0
    8.4790  -15.7795   22.0110 N   0  0  0  0  0  0  0  0  0  0  0  0
    8.4556  -15.1061   23.2899 C   0  0  1  0  0  0  0  0  0  0  0  0
    7.3665  -14.0942   23.4020 C   0  0  0  0  0  0  0  0  0  0  0  0
    7.2047  -13.4914   24.7196 C   0  0  0  0  0  0  0  0  0  0  0  0
    6.2008  -13.8985   25.5724 C   0  0  0  0  0  0  0  0  0  0  0  0
    6.0036  -13.3647   26.8218 C   0  0  0  0  0  0  0  0  0  0  0  0
    6.8462  -12.3631   27.2689 C   0  0  0  0  0  0  0  0  0  0  0  0
    7.8712  -11.9247   26.4380 C   0  0  0  0  0  0  0  0  0  0  0  0
    8.0398  -12.4944   25.1702 C   0  0  0  0  0  0  0  0  0  0  0  0
    8.5428  -16.0587   24.4112 C   0  0  0  0  0  0  0  0  0  0  0  0
    7.6158  -16.8767   24.6418 O   0  0  0  0  0  0  0  0  0  0  0  0
   11.4962  -18.9269   26.8367 C   0  0  0  0  0  0  0  0  0  0  0  0
   11.1792  -17.8843   25.7864 C   0  0  1  0  0  0  0  0  0  0  0  0
   11.0924  -18.5114   24.5666 O   0  0  0  0  0  0  0  0  0  0  0  0
    9.8618  -17.2335   26.1894 C   0  0  2  0  0  0  0  0  0  0  0  0
    9.6682  -16.1025   25.2785 N   0  0  0  0  0  0  0  0  0  0  0  0
    9.9108  -16.7331   27.5622 C   0  0  0  0  0  0  0  0  0  0  0  0
    9.9705  -17.5348   28.5235 O   0  0  0  0  0  0  0  0  0  0  0  0
    9.8930  -15.3836   27.8208 O   0  0  0  0  0  0  0  0  0  0  0  0
  2  1  1  6
  2  8  1  0
  2  3  1  0
  4  3  1  0
  5  4  1  0
  6  5  1  0
  7  6  1  0
  8  9  2  0
 10 11  1  0
 10  8  1  0
 12 13  1  0
 11 12  1  1
 13 18  2  0
 14 15  2  0
 14 13  1  0
 15 16  1  0
 16 17  2  0
 18 17  1  0
 19 20  2  0
 19 11  1  0
 22 21  1  1
 22 24  1  0
 23 22  1  0
 24 26  1  0
 24 25  1  6
 25 19  1  0
 26 28  1  0
 27 26  2  0
M  END
$$$$
