KFT.pdb
     RDKit          3D

 28 28  0  0  1  0  0  0  0  0999 V2000
    7.9842  -16.7378   19.6562 N   0  0  0  0  0  0  0  0  0  0  0  0
    9.1509  -15.8847   19.7122 C   0  0  1  0  0  0  0  0  0  0  0  0
    9.0940  -14.7570   18.7375 C   0  0  0  0  0  0  0  0  0  0  0  0
    8.3964  -15.1017   17.4621 C   0  0  0  0  0  0  0  0  0  0  0  0
    8.3010  -13.8921   16.5772 C   0  0  0  0  0  0  0  0  0  0  0  0
    7.6060  -14.2516   15.2573 C   0  0  0  0  0  0  0  0  0  0  0  0
    7.8415  -13.1403   14.3419 N   0  0  0  0  0  0  0  0  0  0  0  0
    9.2922  -15.2712   21.0755 C   0  0  0  0  0  0  0  0  0  0  0  0
   10.2970  -14.5876   21.3631 O   0  0  0  0  0  0  0  0  0  0  0  0
    8.2931  -15.4633   22.0358 N   0  0  0  0  0  0  0  0  0  0  0  0
    8.3491  -14.9760   23.3956 C   0  0  1  0  0  0  0  0  0  0  0  0
    7.2145  -14.0739   23.7443 C   0  0  0  0  0  0  0  0  0  0  0  0
    7.2396  -13.5298   25.0966 C   0  0  0  0  0  0  0  0  0  0  0  0
    8.0198  -12.4380   25.4124 C   0  0  0  0  0  0  0  0  0  0  0  0
    8.0810  -11.8867   26.6682 C   0  0  0  0  0  0  0  0  0  0  0  0
    7.3268  -12.4412   27.6866 C   0  0  0  0  0  0  0  0  0  0  0  0
    6.5266  -13.5437   27.4083 C   0  0  0  0  0  0  0  0  0  0  0  0
    6.4915  -14.0771   26.1143 C   0  0  0  0  0  0  0  0  0  0  0  0
    8.6015  -16.0644   24.3566 C   0  0  0  0  0  0  0  0  0  0  0  0
    7.7308  -16.9422   24.5870 O   0  0  0  0  0  0  0  0  0  0  0  0
   10.8740  -18.5803   24.0432 C   0  0  0  0  0  0  0  0  0  0  0  0
   11.2740  -18.0524   25.4041 C   0  0  1  0  0  0  0  0  0  0  0  0
   12.3613  -17.2269   25.2456 O   0  0  0  0  0  0  0  0  0  0  0  0
   10.0682  -17.3080   25.9642 C   0  0  2  0  0  0  0  0  0  0  0  0
    9.8299  -16.1778   25.0629 N   0  0  0  0  0  0  0  0  0  0  0  0
   10.3334  -16.7951   27.3073 C   0  0  0  0  0  0  0  0  0  0  0  0
   10.4162  -15.5605   27.5054 O   0  0  0  0  0  0  0  0  0  0  0  0
   10.4947  -17.6522   28.3692 O   0  0  0  0  0  0  0  0  0  0  0  0
  2  1  1  1
  2  8  1  0
  2  3  1  0
  4  3  1  0
  5  4  1  0
  6  5  1  0
  7  6  1  0
  8  9  2  0
 10 11  1  0
 10  8  1  0
 12 13  1  0
 11 12  1  1
 13 18  2  0
 14 15  2  0
 14 13  1  0
 15 16  1  0
 16 17  2  0
 18 17  1  0
 19 20  2  0
 19 11  1  0
 22 21  1  6
 22 24  1  0
 23 22  1  0
 24 26  1  0
 24 25  1  6
 25 19  1  0
 26 28  1  0
 27 26  2  0
M  END
$$$$
