KFT.pdb
     RDKit          3D

 28 28  0  0  1  0  0  0  0  0999 V2000
    9.3523  -16.6438   19.2337 N   0  0  0  0  0  0  0  0  0  0  0  0
    8.4019  -16.9487   20.2805 C   0  0  1  0  0  0  0  0  0  0  0  0
    8.3460  -18.4024   20.6098 C   0  0  0  0  0  0  0  0  0  0  0  0
    7.8542  -19.2535   19.4847 C   0  0  0  0  0  0  0  0  0  0  0  0
    9.0061  -19.7174   18.6402 C   0  0  0  0  0  0  0  0  0  0  0  0
    8.5140  -20.6788   17.5504 C   0  0  0  0  0  0  0  0  0  0  0  0
    7.5722  -21.5917   18.1893 N   0  0  0  0  0  0  0  0  0  0  0  0
    8.7644  -16.2316   21.5491 C   0  0  0  0  0  0  0  0  0  0  0  0
    9.9581  -16.1292   21.9016 O   0  0  0  0  0  0  0  0  0  0  0  0
    7.7611  -15.6712   22.3468 N   0  0  0  0  0  0  0  0  0  0  0  0
    7.9918  -14.9367   23.5703 C   0  0  1  0  0  0  0  0  0  0  0  0
    6.9756  -13.8746   23.8192 C   0  0  0  0  0  0  0  0  0  0  0  0
    7.1045  -13.1693   25.0886 C   0  0  0  0  0  0  0  0  0  0  0  0
    6.2265  -13.4005   26.1260 C   0  0  0  0  0  0  0  0  0  0  0  0
    6.3021  -12.7642   27.3402 C   0  0  0  0  0  0  0  0  0  0  0  0
    7.3059  -11.8373   27.5555 C   0  0  0  0  0  0  0  0  0  0  0  0
    8.2116  -11.5760   26.5335 C   0  0  0  0  0  0  0  0  0  0  0  0
    8.1012  -12.2458   25.3090 C   0  0  0  0  0  0  0  0  0  0  0  0
    8.2477  -15.8370   24.7086 C   0  0  0  0  0  0  0  0  0  0  0  0
    7.3381  -16.5704   25.1739 O   0  0  0  0  0  0  0  0  0  0  0  0
   10.4053  -18.5283   24.7025 C   0  0  0  0  0  0  0  0  0  0  0  0
   10.9074  -17.7815   25.9195 C   0  0  1  0  0  0  0  0  0  0  0  0
   12.0097  -17.0474   25.5524 O   0  0  0  0  0  0  0  0  0  0  0  0
    9.7649  -16.8953   26.3999 C   0  0  2  0  0  0  0  0  0  0  0  0
    9.5230  -15.9234   25.3307 N   0  0  0  0  0  0  0  0  0  0  0  0
   10.1235  -16.1763   27.6214 C   0  0  0  0  0  0  0  0  0  0  0  0
   10.2351  -14.9282   27.6082 O   0  0  0  0  0  0  0  0  0  0  0  0
   10.3425  -16.8520   28.7977 O   0  0  0  0  0  0  0  0  0  0  0  0
  2  1  1  6
  2  8  1  0
  2  3  1  0
  4  3  1  0
  5  4  1  0
  6  5  1  0
  7  6  1  0
  8  9  2  0
 10 11  1  0
 10  8  1  0
 12 13  1  0
 11 12  1  1
 13 18  2  0
 14 15  2  0
 14 13  1  0
 15 16  1  0
 16 17  2  0
 18 17  1  0
 19 20  2  0
 19 11  1  0
 22 21  1  6
 22 24  1  0
 23 22  1  0
 24 26  1  0
 24 25  1  6
 25 19  1  0
 26 28  1  0
 27 26  2  0
M  END
$$$$
