KFT.pdb
     RDKit          3D

 28 28  0  0  1  0  0  0  0  0999 V2000
   10.3342  -16.4919   19.6535 N   0  0  0  0  0  0  0  0  0  0  0  0
    9.6658  -17.1430   20.7586 C   0  0  1  0  0  0  0  0  0  0  0  0
   10.2770  -18.4558   21.1160 C   0  0  0  0  0  0  0  0  0  0  0  0
   10.0543  -19.5196   20.0909 C   0  0  0  0  0  0  0  0  0  0  0  0
   10.5716  -20.8388   20.5883 C   0  0  0  0  0  0  0  0  0  0  0  0
   10.2105  -21.9580   19.6027 C   0  0  0  0  0  0  0  0  0  0  0  0
   10.8053  -23.1843   20.1229 N   0  0  0  0  0  0  0  0  0  0  0  0
    9.7269  -16.2876   21.9914 C   0  0  0  0  0  0  0  0  0  0  0  0
   10.8261  -15.9092   22.4477 O   0  0  0  0  0  0  0  0  0  0  0  0
    8.5461  -15.9081   22.6385 N   0  0  0  0  0  0  0  0  0  0  0  0
    8.4831  -15.1103   23.8423 C   0  0  1  0  0  0  0  0  0  0  0  0
    7.3077  -14.1940   23.8797 C   0  0  0  0  0  0  0  0  0  0  0  0
    7.1487  -13.4291   25.1107 C   0  0  0  0  0  0  0  0  0  0  0  0
    6.1791  -13.7567   26.0344 C   0  0  0  0  0  0  0  0  0  0  0  0
    5.9861  -13.0704   27.2077 C   0  0  0  0  0  0  0  0  0  0  0  0
    6.7972  -11.9884   27.4985 C   0  0  0  0  0  0  0  0  0  0  0  0
    7.7871  -11.6261   26.5919 C   0  0  0  0  0  0  0  0  0  0  0  0
    7.9526  -12.3514   25.4057 C   0  0  0  0  0  0  0  0  0  0  0  0
    8.6768  -15.9295   25.0520 C   0  0  0  0  0  0  0  0  0  0  0  0
    7.8610  -16.8359   25.3600 O   0  0  0  0  0  0  0  0  0  0  0  0
   11.1992  -18.0595   25.4257 C   0  0  0  0  0  0  0  0  0  0  0  0
   11.3473  -17.3482   26.7534 C   0  0  1  0  0  0  0  0  0  0  0  0
   12.3821  -16.4498   26.6499 O   0  0  0  0  0  0  0  0  0  0  0  0
   10.0188  -16.6591   27.0392 C   0  0  2  0  0  0  0  0  0  0  0  0
    9.7851  -15.7407   25.9219 N   0  0  0  0  0  0  0  0  0  0  0  0
   10.0721  -15.8899   28.2814 C   0  0  0  0  0  0  0  0  0  0  0  0
   10.2295  -16.4747   29.3785 O   0  0  0  0  0  0  0  0  0  0  0  0
    9.9520  -14.5211   28.2677 O   0  0  0  0  0  0  0  0  0  0  0  0
  2  1  1  6
  2  8  1  0
  2  3  1  0
  4  3  1  0
  5  4  1  0
  6  5  1  0
  7  6  1  0
  8  9  2  0
 10 11  1  0
 10  8  1  0
 12 13  1  0
 11 12  1  1
 13 18  2  0
 14 15  2  0
 14 13  1  0
 15 16  1  0
 16 17  2  0
 18 17  1  0
 19 20  2  0
 19 11  1  0
 22 21  1  6
 22 24  1  0
 23 22  1  0
 24 26  1  0
 24 25  1  6
 25 19  1  0
 26 28  1  0
 27 26  2  0
M  END
$$$$
