KFT.pdb
     RDKit          3D

 28 28  0  0  1  0  0  0  0  0999 V2000
    8.1527  -18.4002   18.5384 N   0  0  0  0  0  0  0  0  0  0  0  0
    9.5131  -17.9775   18.2876 C   0  0  1  0  0  0  0  0  0  0  0  0
    9.6345  -17.0821   17.1009 C   0  0  0  0  0  0  0  0  0  0  0  0
    8.6831  -17.4159   15.9984 C   0  0  0  0  0  0  0  0  0  0  0  0
    8.8884  -16.4890   14.8347 C   0  0  0  0  0  0  0  0  0  0  0  0
    7.8703  -16.7914   13.7273 C   0  0  0  0  0  0  0  0  0  0  0  0
    8.1512  -15.8668   12.6343 N   0  0  0  0  0  0  0  0  0  0  0  0
   10.0546  -17.2145   19.4622 C   0  0  0  0  0  0  0  0  0  0  0  0
   11.1987  -16.7155   19.4223 O   0  0  0  0  0  0  0  0  0  0  0  0
    9.2756  -17.0577   20.6136 N   0  0  0  0  0  0  0  0  0  0  0  0
    9.6759  -16.3153   21.7875 C   0  0  1  0  0  0  0  0  0  0  0  0
    8.6006  -15.4292   22.3180 C   0  0  0  0  0  0  0  0  0  0  0  0
    8.0911  -14.4336   21.3827 C   0  0  0  0  0  0  0  0  0  0  0  0
    8.7981  -13.2816   21.1111 C   0  0  0  0  0  0  0  0  0  0  0  0
    8.3645  -12.3125   20.2407 C   0  0  0  0  0  0  0  0  0  0  0  0
    7.1555  -12.4810   19.5903 C   0  0  0  0  0  0  0  0  0  0  0  0
    6.4123  -13.6299   19.8374 C   0  0  0  0  0  0  0  0  0  0  0  0
    6.8888  -14.5954   20.7324 C   0  0  0  0  0  0  0  0  0  0  0  0
   10.3231  -17.1821   22.7884 C   0  0  0  0  0  0  0  0  0  0  0  0
    9.7321  -18.1898   23.2541 O   0  0  0  0  0  0  0  0  0  0  0  0
   14.4893  -18.5821   24.9758 C   0  0  0  0  0  0  0  0  0  0  0  0
   13.7900  -17.6045   24.0560 C   0  0  1  0  0  0  0  0  0  0  0  0
   14.2554  -17.8038   22.7784 O   0  0  0  0  0  0  0  0  0  0  0  0
   12.2955  -17.8788   24.1691 C   0  0  2  0  0  0  0  0  0  0  0  0
   11.6355  -16.9274   23.2716 N   0  0  0  0  0  0  0  0  0  0  0  0
   11.8131  -17.6578   25.5314 C   0  0  0  0  0  0  0  0  0  0  0  0
   11.1714  -16.6186   25.8119 O   0  0  0  0  0  0  0  0  0  0  0  0
   12.0526  -18.5801   26.5215 O   0  0  0  0  0  0  0  0  0  0  0  0
  2  1  1  1
  2  8  1  0
  2  3  1  0
  4  3  1  0
  5  4  1  0
  6  5  1  0
  7  6  1  0
  8  9  2  0
 10 11  1  0
 10  8  1  0
 12 13  1  0
 11 12  1  1
 13 18  2  0
 14 15  2  0
 14 13  1  0
 15 16  1  0
 16 17  2  0
 18 17  1  0
 19 20  2  0
 19 11  1  0
 22 21  1  1
 22 24  1  0
 23 22  1  0
 24 26  1  0
 24 25  1  6
 25 19  1  0
 26 28  1  0
 27 26  2  0
M  END
$$$$
