KFT.pdb
     RDKit          3D

 28 28  0  0  1  0  0  0  0  0999 V2000
    7.6975  -16.5703   19.8268 N   0  0  0  0  0  0  0  0  0  0  0  0
    8.9064  -15.7780   19.8801 C   0  0  1  0  0  0  0  0  0  0  0  0
    8.8310  -14.5449   19.0444 C   0  0  0  0  0  0  0  0  0  0  0  0
    8.0948  -14.7364   17.7585 C   0  0  0  0  0  0  0  0  0  0  0  0
    8.6718  -13.8516   16.6910 C   0  0  0  0  0  0  0  0  0  0  0  0
    7.8426  -13.9595   15.4045 C   0  0  0  0  0  0  0  0  0  0  0  0
    8.2761  -12.8729   14.5327 N   0  0  0  0  0  0  0  0  0  0  0  0
    9.1837  -15.3308   21.2866 C   0  0  0  0  0  0  0  0  0  0  0  0
   10.2876  -14.8304   21.5878 O   0  0  0  0  0  0  0  0  0  0  0  0
    8.2011  -15.4730   22.2722 N   0  0  0  0  0  0  0  0  0  0  0  0
    8.3144  -14.9860   23.6285 C   0  0  1  0  0  0  0  0  0  0  0  0
    7.2176  -14.0517   24.0115 C   0  0  0  0  0  0  0  0  0  0  0  0
    7.3329  -13.4611   25.3394 C   0  0  0  0  0  0  0  0  0  0  0  0
    6.4826  -13.8286   26.3605 C   0  0  0  0  0  0  0  0  0  0  0  0
    6.5469  -13.3040   27.6275 C   0  0  0  0  0  0  0  0  0  0  0  0
    7.5096  -12.3539   27.9170 C   0  0  0  0  0  0  0  0  0  0  0  0
    8.3865  -11.9566   26.9138 C   0  0  0  0  0  0  0  0  0  0  0  0
    8.2887  -12.5152   25.6337 C   0  0  0  0  0  0  0  0  0  0  0  0
    8.5663  -16.0803   24.5832 C   0  0  0  0  0  0  0  0  0  0  0  0
    7.6805  -16.9357   24.8389 O   0  0  0  0  0  0  0  0  0  0  0  0
   10.4850  -18.7501   24.2066 C   0  0  0  0  0  0  0  0  0  0  0  0
   11.0953  -18.2273   25.4891 C   0  0  1  0  0  0  0  0  0  0  0  0
   12.2278  -17.5166   25.1712 O   0  0  0  0  0  0  0  0  0  0  0  0
   10.0418  -17.3537   26.1590 C   0  0  2  0  0  0  0  0  0  0  0  0
    9.8109  -16.2245   25.2546 N   0  0  0  0  0  0  0  0  0  0  0  0
   10.5113  -16.8419   27.4455 C   0  0  0  0  0  0  0  0  0  0  0  0
   10.7004  -15.6133   27.6039 O   0  0  0  0  0  0  0  0  0  0  0  0
   10.7511  -17.6934   28.4970 O   0  0  0  0  0  0  0  0  0  0  0  0
  2  1  1  1
  2  8  1  0
  2  3  1  0
  4  3  1  0
  5  4  1  0
  6  5  1  0
  7  6  1  0
  8  9  2  0
 10 11  1  0
 10  8  1  0
 12 13  1  0
 11 12  1  1
 13 18  2  0
 14 15  2  0
 14 13  1  0
 15 16  1  0
 16 17  2  0
 18 17  1  0
 19 20  2  0
 19 11  1  0
 22 21  1  6
 22 24  1  0
 23 22  1  0
 24 26  1  0
 24 25  1  6
 25 19  1  0
 26 28  1  0
 27 26  2  0
M  END
$$$$
