KFT.pdb
     RDKit          3D

 28 28  0  0  1  0  0  0  0  0999 V2000
    9.6295  -16.4781   19.0211 N   0  0  0  0  0  0  0  0  0  0  0  0
    8.4326  -16.3687   19.8258 C   0  0  1  0  0  0  0  0  0  0  0  0
    7.7343  -17.6738   20.0100 C   0  0  0  0  0  0  0  0  0  0  0  0
    8.3521  -18.7976   19.2434 C   0  0  0  0  0  0  0  0  0  0  0  0
    7.6076  -20.0759   19.5021 C   0  0  0  0  0  0  0  0  0  0  0  0
    8.1492  -21.1979   18.6064 C   0  0  0  0  0  0  0  0  0  0  0  0
    7.4026  -22.4044   18.9463 N   0  0  0  0  0  0  0  0  0  0  0  0
    8.7636  -15.8579   21.1987 C   0  0  0  0  0  0  0  0  0  0  0  0
    9.9023  -16.0287   21.6822 O   0  0  0  0  0  0  0  0  0  0  0  0
    7.7924  -15.1842   21.9471 N   0  0  0  0  0  0  0  0  0  0  0  0
    7.9935  -14.6563   23.2776 C   0  0  1  0  0  0  0  0  0  0  0  0
    6.9380  -13.6883   23.6921 C   0  0  0  0  0  0  0  0  0  0  0  0
    7.0467  -13.1896   25.0577 C   0  0  0  0  0  0  0  0  0  0  0  0
    6.1222  -13.5362   26.0199 C   0  0  0  0  0  0  0  0  0  0  0  0
    6.1770  -13.0949   27.3188 C   0  0  0  0  0  0  0  0  0  0  0  0
    7.2072  -12.2563   27.7042 C   0  0  0  0  0  0  0  0  0  0  0  0
    8.1600  -11.8836   26.7627 C   0  0  0  0  0  0  0  0  0  0  0  0
    8.0695  -12.3549   25.4474 C   0  0  0  0  0  0  0  0  0  0  0  0
    8.2809  -15.7240   24.2520 C   0  0  0  0  0  0  0  0  0  0  0  0
    7.4429  -16.6322   24.4862 O   0  0  0  0  0  0  0  0  0  0  0  0
   11.7373  -18.4477   26.2593 C   0  0  0  0  0  0  0  0  0  0  0  0
   11.2761  -17.3520   25.3226 C   0  0  1  0  0  0  0  0  0  0  0  0
   11.3208  -17.8347   24.0367 O   0  0  0  0  0  0  0  0  0  0  0  0
    9.8608  -16.9747   25.7425 C   0  0  2  0  0  0  0  0  0  0  0  0
    9.5078  -15.7826   24.9675 N   0  0  0  0  0  0  0  0  0  0  0  0
    9.7943  -16.6507   27.1666 C   0  0  0  0  0  0  0  0  0  0  0  0
    9.4485  -17.5241   27.9960 O   0  0  0  0  0  0  0  0  0  0  0  0
   10.1082  -15.3913   27.6176 O   0  0  0  0  0  0  0  0  0  0  0  0
  2  1  1  6
  2  8  1  0
  2  3  1  0
  4  3  1  0
  5  4  1  0
  6  5  1  0
  7  6  1  0
  8  9  2  0
 10 11  1  0
 10  8  1  0
 12 13  1  0
 11 12  1  1
 13 18  2  0
 14 15  2  0
 14 13  1  0
 15 16  1  0
 16 17  2  0
 18 17  1  0
 19 20  2  0
 19 11  1  0
 22 21  1  1
 22 24  1  0
 23 22  1  0
 24 26  1  0
 24 25  1  6
 25 19  1  0
 26 28  1  0
 27 26  2  0
M  END
$$$$
