KFT.pdb
     RDKit          3D

 28 28  0  0  1  0  0  0  0  0999 V2000
    6.9878  -16.3473   21.2775 N   0  0  0  0  0  0  0  0  0  0  0  0
    8.2891  -15.7245   21.3815 C   0  0  1  0  0  0  0  0  0  0  0  0
    8.3355  -14.3676   20.7638 C   0  0  0  0  0  0  0  0  0  0  0  0
    7.6775  -14.2960   19.4244 C   0  0  0  0  0  0  0  0  0  0  0  0
    8.5244  -13.5044   18.4696 C   0  0  0  0  0  0  0  0  0  0  0  0
    7.7842  -13.3060   17.1403 C   0  0  0  0  0  0  0  0  0  0  0  0
    8.6428  -12.4774   16.3008 N   0  0  0  0  0  0  0  0  0  0  0  0
    8.6818  -15.5578   22.8213 C   0  0  0  0  0  0  0  0  0  0  0  0
    9.7620  -15.0098   23.1254 O   0  0  0  0  0  0  0  0  0  0  0  0
    7.8346  -16.0180   23.8350 N   0  0  0  0  0  0  0  0  0  0  0  0
    8.1289  -15.9575   25.2490 C   0  0  1  0  0  0  0  0  0  0  0  0
    7.0113  -15.3935   26.0587 C   0  0  0  0  0  0  0  0  0  0  0  0
    6.9484  -13.9379   26.1115 C   0  0  0  0  0  0  0  0  0  0  0  0
    8.0477  -13.1886   26.4731 C   0  0  0  0  0  0  0  0  0  0  0  0
    8.0427  -11.8173   26.5396 C   0  0  0  0  0  0  0  0  0  0  0  0
    6.8825  -11.1304   26.2311 C   0  0  0  0  0  0  0  0  0  0  0  0
    5.7518  -11.8504   25.8617 C   0  0  0  0  0  0  0  0  0  0  0  0
    5.7968  -13.2486   25.8057 C   0  0  0  0  0  0  0  0  0  0  0  0
    8.6831  -17.2290   25.7471 C   0  0  0  0  0  0  0  0  0  0  0  0
    7.9842  -18.2742   25.7782 O   0  0  0  0  0  0  0  0  0  0  0  0
   11.3949  -19.1049   24.5065 C   0  0  0  0  0  0  0  0  0  0  0  0
   11.7990  -18.9173   25.9529 C   0  0  1  0  0  0  0  0  0  0  0  0
   12.7055  -17.8865   26.0187 O   0  0  0  0  0  0  0  0  0  0  0  0
   10.5271  -18.6105   26.7337 C   0  0  2  0  0  0  0  0  0  0  0  0
   10.0224  -17.3384   26.2108 N   0  0  0  0  0  0  0  0  0  0  0  0
   10.7999  -18.4606   28.1622 C   0  0  0  0  0  0  0  0  0  0  0  0
   10.6674  -17.3439   28.7153 O   0  0  0  0  0  0  0  0  0  0  0  0
   11.2031  -19.5346   28.9186 O   0  0  0  0  0  0  0  0  0  0  0  0
  2  1  1  1
  2  8  1  0
  2  3  1  0
  4  3  1  0
  5  4  1  0
  6  5  1  0
  7  6  1  0
  8  9  2  0
 10 11  1  0
 10  8  1  0
 12 13  1  0
 11 12  1  1
 13 18  2  0
 14 15  2  0
 14 13  1  0
 15 16  1  0
 16 17  2  0
 18 17  1  0
 19 20  2  0
 19 11  1  0
 22 21  1  6
 22 24  1  0
 23 22  1  0
 24 26  1  0
 24 25  1  6
 25 19  1  0
 26 28  1  0
 27 26  2  0
M  END
$$$$
