MSW.pdb
     RDKit          3D

 29 30  0  0  1  0  0  0  0  0999 V2000
   26.0849   -3.9443  -21.2669 C   0  0  0  0  0  0  0  0  0  0  0  0
   24.8885   -4.6502  -20.0784 S   0  0  0  0  0  0  0  0  0  0  0  0
   24.6066   -6.4144  -20.4720 C   0  0  0  0  0  0  0  0  0  0  0  0
   23.5739   -6.9961  -19.5229 C   0  0  0  0  0  0  0  0  0  0  0  0
   24.2861   -7.3011  -18.2169 C   0  0  2  0  0  0  0  0  0  0  0  0
   25.1216   -8.4788  -18.3559 N   0  0  0  0  0  0  0  0  0  0  0  0
   23.2487   -7.4615  -17.1923 C   0  0  0  0  0  0  0  0  0  0  0  0
   22.5569   -8.5241  -17.2039 O   0  0  0  0  0  0  0  0  0  0  0  0
   22.3027   -4.5278  -14.3134 O   0  0  0  0  0  0  0  0  0  0  0  0
   22.2054   -5.8496  -13.9430 C   0  0  0  0  0  0  0  0  0  0  0  0
   21.9724   -6.7431  -15.1832 C   0  0  2  0  0  0  0  0  0  0  0  0
   22.9774   -6.4812  -16.1783 N   0  0  0  0  0  0  0  0  0  0  0  0
   20.6116   -6.4106  -15.6859 C   0  0  0  0  0  0  0  0  0  0  0  0
   20.3764   -5.3773  -16.3606 O   0  0  0  0  0  0  0  0  0  0  0  0
   19.4877   -7.2474  -15.4298 N   0  0  0  0  0  0  0  0  0  0  0  0
   18.1578   -6.8409  -15.8321 C   0  0  1  0  0  0  0  0  0  0  0  0
   17.7095   -7.9187  -16.8321 C   0  0  0  0  0  0  0  0  0  0  0  0
   17.6543   -9.2556  -16.2538 C   0  0  0  0  0  0  0  0  0  0  0  0
   16.7176   -9.6742  -15.3380 C   0  0  0  0  0  0  0  0  0  0  0  0
   16.9831  -10.9573  -15.0359 N   0  0  0  0  0  0  0  0  0  0  0  0
   18.0759  -11.3603  -15.7463 C   0  0  0  0  0  0  0  0  0  0  0  0
   18.7391  -12.5848  -15.7845 C   0  0  0  0  0  0  0  0  0  0  0  0
   19.8274  -12.6831  -16.6163 C   0  0  0  0  0  0  0  0  0  0  0  0
   20.2584  -11.6286  -17.3842 C   0  0  0  0  0  0  0  0  0  0  0  0
   19.6213  -10.4302  -17.3553 C   0  0  0  0  0  0  0  0  0  0  0  0
   18.5083  -10.2979  -16.5190 C   0  0  0  0  0  0  0  0  0  0  0  0
   17.1995   -6.8987  -14.6963 C   0  0  0  0  0  0  0  0  0  0  0  0
   17.5391   -7.4284  -13.6069 O   0  0  0  0  0  0  0  0  0  0  0  0
   15.9175   -6.3836  -14.7867 O   0  0  0  0  0  0  0  0  0  0  0  0
  2  1  1  0
  3  2  1  0
  4  5  1  0
  4  3  1  0
  5  7  1  0
  5  6  1  6
  7  8  2  0
  9 10  1  0
 11 10  1  1
 11 13  1  0
 12 11  1  0
 12  7  1  0
 13 14  2  0
 15 16  1  0
 15 13  1  0
 16 27  1  0
 16 17  1  6
 18 17  1  0
 19 18  2  0
 20 21  1  0
 20 19  1  0
 21 26  2  0
 22 21  1  0
 22 23  2  0
 23 24  1  0
 24 25  2  0
 26 18  1  0
 26 25  1  0
 27 28  2  0
 27 29  1  0
M  END
$$$$
