MSW.pdb
     RDKit          3D

 29 30  0  0  1  0  0  0  0  0999 V2000
   28.8590  -24.2086  -16.5196 C   0  0  0  0  0  0  0  0  0  0  0  0
   27.2201  -25.0177  -16.4788 S   0  0  0  0  0  0  0  0  0  0  0  0
   25.9096  -23.7469  -16.5985 C   0  0  0  0  0  0  0  0  0  0  0  0
   26.0340  -22.7673  -15.4450 C   0  0  0  0  0  0  0  0  0  0  0  0
   24.8571  -21.8124  -15.5383 C   0  0  2  0  0  0  0  0  0  0  0  0
   24.9667  -20.9837  -16.7240 N   0  0  0  0  0  0  0  0  0  0  0  0
   24.8451  -21.0275  -14.2991 C   0  0  0  0  0  0  0  0  0  0  0  0
   25.8602  -20.3157  -14.0329 O   0  0  0  0  0  0  0  0  0  0  0  0
   21.8846  -21.4338  -11.4050 O   0  0  0  0  0  0  0  0  0  0  0  0
   22.4571  -20.1840  -11.4697 C   0  0  0  0  0  0  0  0  0  0  0  0
   23.8388  -20.2570  -12.1601 C   0  0  2  0  0  0  0  0  0  0  0  0
   23.7458  -21.0217  -13.3748 N   0  0  0  0  0  0  0  0  0  0  0  0
   24.7586  -20.9007  -11.1830 C   0  0  0  0  0  0  0  0  0  0  0  0
   25.0212  -22.1288  -11.2128 O   0  0  0  0  0  0  0  0  0  0  0  0
   25.3990  -20.1594  -10.1489 N   0  0  0  0  0  0  0  0  0  0  0  0
   26.1983  -20.8307   -9.1458 C   0  0  1  0  0  0  0  0  0  0  0  0
   27.2745  -19.8041   -8.7576 C   0  0  0  0  0  0  0  0  0  0  0  0
   28.2198  -20.3050   -7.7676 C   0  0  0  0  0  0  0  0  0  0  0  0
   29.1151  -21.3257   -7.9865 C   0  0  0  0  0  0  0  0  0  0  0  0
   29.8147  -21.5088   -6.8529 N   0  0  0  0  0  0  0  0  0  0  0  0
   29.3764  -20.6193   -5.9160 C   0  0  0  0  0  0  0  0  0  0  0  0
   29.7769  -20.4101   -4.5982 C   0  0  0  0  0  0  0  0  0  0  0  0
   29.1344  -19.4192   -3.8971 C   0  0  0  0  0  0  0  0  0  0  0  0
   28.1362  -18.6581   -4.4554 C   0  0  0  0  0  0  0  0  0  0  0  0
   27.7365  -18.8526   -5.7381 C   0  0  0  0  0  0  0  0  0  0  0  0
   28.3720  -19.8536   -6.4796 C   0  0  0  0  0  0  0  0  0  0  0  0
   25.4144  -21.1028   -7.9116 C   0  0  0  0  0  0  0  0  0  0  0  0
   24.3889  -20.4229   -7.6495 O   0  0  0  0  0  0  0  0  0  0  0  0
   25.7722  -22.0953   -7.0151 O   0  0  0  0  0  0  0  0  0  0  0  0
  2  1  1  0
  3  2  1  0
  4  5  1  0
  4  3  1  0
  5  7  1  0
  5  6  1  6
  7  8  2  0
  9 10  1  0
 11 10  1  1
 11 13  1  0
 12 11  1  0
 12  7  1  0
 13 14  2  0
 15 16  1  0
 15 13  1  0
 16 27  1  0
 16 17  1  1
 18 17  1  0
 19 18  2  0
 20 21  1  0
 20 19  1  0
 21 26  2  0
 22 21  1  0
 22 23  2  0
 23 24  1  0
 24 25  2  0
 26 18  1  0
 26 25  1  0
 27 28  2  0
 27 29  1  0
M  END
$$$$
