MSW.pdb
     RDKit          3D

 29 30  0  0  1  0  0  0  0  0999 V2000
   30.1772  -20.3388   -9.5235 C   0  0  0  0  0  0  0  0  0  0  0  0
   28.8488  -21.2180   -8.6264 S   0  0  0  0  0  0  0  0  0  0  0  0
   27.3791  -20.1362   -8.4998 C   0  0  0  0  0  0  0  0  0  0  0  0
   26.8494  -19.8210   -9.8876 C   0  0  0  0  0  0  0  0  0  0  0  0
   25.9276  -20.9600  -10.2855 C   0  0  2  0  0  0  0  0  0  0  0  0
   26.6654  -22.2063  -10.3695 N   0  0  0  0  0  0  0  0  0  0  0  0
   25.3085  -20.5825  -11.5607 C   0  0  0  0  0  0  0  0  0  0  0  0
   24.7937  -19.4276  -11.6560 O   0  0  0  0  0  0  0  0  0  0  0  0
   24.3439  -23.2822  -14.5084 O   0  0  0  0  0  0  0  0  0  0  0  0
   24.7618  -22.0744  -15.0188 C   0  0  0  0  0  0  0  0  0  0  0  0
   24.6851  -20.9738  -13.9355 C   0  0  2  0  0  0  0  0  0  0  0  0
   25.2566  -21.4498  -12.7043 N   0  0  0  0  0  0  0  0  0  0  0  0
   23.2417  -20.6491  -13.7736 C   0  0  0  0  0  0  0  0  0  0  0  0
   22.5146  -21.2176  -12.9213 O   0  0  0  0  0  0  0  0  0  0  0  0
   22.5938  -19.6702  -14.5804 N   0  0  0  0  0  0  0  0  0  0  0  0
   21.1837  -19.3896  -14.4110 C   0  0  1  0  0  0  0  0  0  0  0  0
   20.9279  -18.1509  -15.2845 C   0  0  0  0  0  0  0  0  0  0  0  0
   20.8053  -18.4604  -16.7035 C   0  0  0  0  0  0  0  0  0  0  0  0
   19.6128  -18.5984  -17.3745 C   0  0  0  0  0  0  0  0  0  0  0  0
   19.8941  -18.8825  -18.6583 N   0  0  0  0  0  0  0  0  0  0  0  0
   21.2488  -18.9279  -18.8130 C   0  0  0  0  0  0  0  0  0  0  0  0
   22.0311  -19.1817  -19.9374 C   0  0  0  0  0  0  0  0  0  0  0  0
   23.3942  -19.1547  -19.7724 C   0  0  0  0  0  0  0  0  0  0  0  0
   23.9784  -18.8916  -18.5571 C   0  0  0  0  0  0  0  0  0  0  0  0
   23.2272  -18.6435  -17.4539 C   0  0  0  0  0  0  0  0  0  0  0  0
   21.8354  -18.6625  -17.5890 C   0  0  0  0  0  0  0  0  0  0  0  0
   20.3370  -20.4775  -14.9688 C   0  0  0  0  0  0  0  0  0  0  0  0
   20.8585  -21.4065  -15.6381 O   0  0  0  0  0  0  0  0  0  0  0  0
   18.9658  -20.5144  -14.7807 O   0  0  0  0  0  0  0  0  0  0  0  0
  2  1  1  0
  3  2  1  0
  4  5  1  0
  4  3  1  0
  5  7  1  0
  5  6  1  6
  7  8  2  0
  9 10  1  0
 11 10  1  6
 11 13  1  0
 12 11  1  0
 12  7  1  0
 13 14  2  0
 15 16  1  0
 15 13  1  0
 16 27  1  0
 16 17  1  6
 18 17  1  0
 19 18  2  0
 20 21  1  0
 20 19  1  0
 21 26  2  0
 22 21  1  0
 22 23  2  0
 23 24  1  0
 24 25  2  0
 26 18  1  0
 26 25  1  0
 27 28  2  0
 27 29  1  0
M  END
$$$$
