MSW.pdb
     RDKit          3D

 29 30  0  0  1  0  0  0  0  0999 V2000
   56.9243   27.5547 -102.9254 C   0  0  0  0  0  0  0  0  0  0  0  0
   58.6294   28.1572 -103.1936 S   0  0  0  0  0  0  0  0  0  0  0  0
   59.1979   29.0599 -101.7075 C   0  0  0  0  0  0  0  0  0  0  0  0
   59.8244   30.3818 -102.1150 C   0  0  0  0  0  0  0  0  0  0  0  0
   60.0145   31.1977 -100.8487 C   0  0  2  0  0  0  0  0  0  0  0  0
   59.0361   32.2666 -100.7803 N   0  0  0  0  0  0  0  0  0  0  0  0
   61.3945   31.6946 -100.8641 C   0  0  0  0  0  0  0  0  0  0  0  0
   61.6847   32.6756 -100.1149 O   0  0  0  0  0  0  0  0  0  0  0  0
   64.4757   32.2867 -103.0177 O   0  0  0  0  0  0  0  0  0  0  0  0
   63.7387   31.3725 -103.7355 C   0  0  0  0  0  0  0  0  0  0  0  0
   62.3335   31.2025 -103.1131 C   0  0  2  0  0  0  0  0  0  0  0  0
   62.4321   31.1283 -101.6800 N   0  0  0  0  0  0  0  0  0  0  0  0
   61.7746   29.9469 -103.6841 C   0  0  0  0  0  0  0  0  0  0  0  0
   60.8044   29.9430 -104.4822 O   0  0  0  0  0  0  0  0  0  0  0  0
   62.3078   28.6671 -103.3575 N   0  0  0  0  0  0  0  0  0  0  0  0
   61.6691   27.8337 -102.3609 C   0  0  1  0  0  0  0  0  0  0  0  0
   60.6705   28.7672 -101.6579 C   0  0  0  0  0  0  0  0  0  0  0  0
   61.1095   29.1903 -100.3339 C   0  0  0  0  0  0  0  0  0  0  0  0
   60.4787   30.1419  -99.5671 C   0  0  0  0  0  0  0  0  0  0  0  0
   61.1663   30.2658  -98.4183 N   0  0  0  0  0  0  0  0  0  0  0  0
   62.2259   29.4068  -98.4440 C   0  0  0  0  0  0  0  0  0  0  0  0
   63.2246   29.1610  -97.5044 C   0  0  0  0  0  0  0  0  0  0  0  0
   64.1695   28.2175  -97.8256 C   0  0  0  0  0  0  0  0  0  0  0  0
   64.1467   27.5365  -99.0186 C   0  0  0  0  0  0  0  0  0  0  0  0
   63.1793   27.7675  -99.9426 C   0  0  0  0  0  0  0  0  0  0  0  0
   62.2014   28.7218  -99.6452 C   0  0  0  0  0  0  0  0  0  0  0  0
   60.8625   26.7518 -102.9858 C   0  0  0  0  0  0  0  0  0  0  0  0
   60.5736   26.8027 -104.2092 O   0  0  0  0  0  0  0  0  0  0  0  0
   60.4030   25.6639 -102.2631 O   0  0  0  0  0  0  0  0  0  0  0  0
  2  1  1  0
  3  2  1  0
  4  5  1  0
  4  3  1  0
  5  7  1  0
  5  6  1  6
  7  8  2  0
  9 10  1  0
 11 10  1  6
 11 13  1  0
 12 11  1  0
 12  7  1  0
 13 14  2  0
 15 16  1  0
 15 13  1  0
 16 27  1  0
 16 17  1  6
 18 17  1  0
 19 18  2  0
 20 21  1  0
 20 19  1  0
 21 26  2  0
 22 21  1  0
 22 23  2  0
 23 24  1  0
 24 25  2  0
 26 18  1  0
 26 25  1  0
 27 28  2  0
 27 29  1  0
M  END
$$$$
