MSW.pdb
     RDKit          3D

 29 30  0  0  1  0  0  0  0  0999 V2000
   23.5042  -22.9319  -15.9400 C   0  0  0  0  0  0  0  0  0  0  0  0
   24.0129  -23.0337  -17.6930 S   0  0  0  0  0  0  0  0  0  0  0  0
   25.6187  -23.9018  -17.8126 C   0  0  0  0  0  0  0  0  0  0  0  0
   26.4729  -23.5758  -16.6002 C   0  0  0  0  0  0  0  0  0  0  0  0
   27.2832  -22.3380  -16.9418 C   0  0  2  0  0  0  0  0  0  0  0  0
   28.3892  -22.6790  -17.8165 N   0  0  0  0  0  0  0  0  0  0  0  0
   27.7264  -21.7538  -15.6714 C   0  0  0  0  0  0  0  0  0  0  0  0
   28.5780  -22.3945  -14.9842 O   0  0  0  0  0  0  0  0  0  0  0  0
   26.1007  -18.2562  -13.5919 O   0  0  0  0  0  0  0  0  0  0  0  0
   27.4441  -18.5022  -13.7617 C   0  0  0  0  0  0  0  0  0  0  0  0
   27.7041  -20.0211  -13.8885 C   0  0  2  0  0  0  0  0  0  0  0  0
   27.2488  -20.4966  -15.1674 N   0  0  0  0  0  0  0  0  0  0  0  0
   26.9583  -20.6654  -12.7733 C   0  0  0  0  0  0  0  0  0  0  0  0
   25.7816  -21.0857  -12.9038 O   0  0  0  0  0  0  0  0  0  0  0  0
   27.5361  -20.8441  -11.4837 N   0  0  0  0  0  0  0  0  0  0  0  0
   26.7610  -21.4089  -10.3992 C   0  0  1  0  0  0  0  0  0  0  0  0
   27.7505  -21.5086   -9.2271 C   0  0  0  0  0  0  0  0  0  0  0  0
   27.4547  -20.5821   -8.1415 C   0  0  0  0  0  0  0  0  0  0  0  0
   26.4015  -19.6978   -8.1322 C   0  0  0  0  0  0  0  0  0  0  0  0
   26.4502  -19.0128   -6.9761 N   0  0  0  0  0  0  0  0  0  0  0  0
   27.5201  -19.4486   -6.2505 C   0  0  0  0  0  0  0  0  0  0  0  0
   27.9948  -19.0587   -5.0001 C   0  0  0  0  0  0  0  0  0  0  0  0
   29.1145  -19.6977   -4.5270 C   0  0  0  0  0  0  0  0  0  0  0  0
   29.7528  -20.6809   -5.2434 C   0  0  0  0  0  0  0  0  0  0  0  0
   29.3007  -21.0693   -6.4631 C   0  0  0  0  0  0  0  0  0  0  0  0
   28.1614  -20.4385   -6.9727 C   0  0  0  0  0  0  0  0  0  0  0  0
   25.6811  -20.4864   -9.9584 C   0  0  0  0  0  0  0  0  0  0  0  0
   24.7423  -20.9093   -9.2355 O   0  0  0  0  0  0  0  0  0  0  0  0
   25.6614  -19.1495  -10.3178 O   0  0  0  0  0  0  0  0  0  0  0  0
  2  1  1  0
  3  2  1  0
  4  5  1  0
  4  3  1  0
  5  7  1  0
  5  6  1  6
  7  8  2  0
  9 10  1  0
 11 10  1  6
 11 13  1  0
 12 11  1  0
 12  7  1  0
 13 14  2  0
 15 16  1  0
 15 13  1  0
 16 27  1  0
 16 17  1  1
 18 17  1  0
 19 18  2  0
 20 21  1  0
 20 19  1  0
 21 26  2  0
 22 21  1  0
 22 23  2  0
 23 24  1  0
 24 25  2  0
 26 18  1  0
 26 25  1  0
 27 28  2  0
 27 29  1  0
M  END
$$$$
