MSW.pdb
     RDKit          3D

 29 30  0  0  1  0  0  0  0  0999 V2000
   30.8171  -22.1605   -9.4530 C   0  0  0  0  0  0  0  0  0  0  0  0
   29.9131  -21.8946  -11.0197 S   0  0  0  0  0  0  0  0  0  0  0  0
   28.1794  -21.4399  -10.6537 C   0  0  0  0  0  0  0  0  0  0  0  0
   27.4211  -21.2128  -11.9496 C   0  0  0  0  0  0  0  0  0  0  0  0
   28.1315  -20.0973  -12.6957 C   0  0  2  0  0  0  0  0  0  0  0  0
   28.0568  -18.8565  -11.9477 N   0  0  0  0  0  0  0  0  0  0  0  0
   27.5025  -19.9996  -14.0172 C   0  0  0  0  0  0  0  0  0  0  0  0
   26.5940  -19.1307  -14.1836 O   0  0  0  0  0  0  0  0  0  0  0  0
   28.1152  -22.8050  -16.9853 O   0  0  0  0  0  0  0  0  0  0  0  0
   27.8673  -21.5422  -17.4730 C   0  0  0  0  0  0  0  0  0  0  0  0
   27.1911  -20.6679  -16.3917 C   0  0  2  0  0  0  0  0  0  0  0  0
   27.8620  -20.8332  -15.1301 N   0  0  0  0  0  0  0  0  0  0  0  0
   25.7752  -21.1202  -16.3164 C   0  0  0  0  0  0  0  0  0  0  0  0
   25.4075  -22.0622  -15.5710 O   0  0  0  0  0  0  0  0  0  0  0  0
   24.7465  -20.5101  -17.0899 N   0  0  0  0  0  0  0  0  0  0  0  0
   23.3687  -20.9318  -16.9497 C   0  0  1  0  0  0  0  0  0  0  0  0
   22.9380  -20.3964  -15.5747 C   0  0  0  0  0  0  0  0  0  0  0  0
   22.7442  -18.9519  -15.5525 C   0  0  0  0  0  0  0  0  0  0  0  0
   21.5454  -18.3193  -15.7849 C   0  0  0  0  0  0  0  0  0  0  0  0
   21.7530  -16.9948  -15.6821 N   0  0  0  0  0  0  0  0  0  0  0  0
   23.0672  -16.7762  -15.3882 C   0  0  0  0  0  0  0  0  0  0  0  0
   23.7721  -15.5921  -15.1842 C   0  0  0  0  0  0  0  0  0  0  0  0
   25.1108  -15.7005  -14.8971 C   0  0  0  0  0  0  0  0  0  0  0  0
   25.7441  -16.9167  -14.8120 C   0  0  0  0  0  0  0  0  0  0  0  0
   25.0685  -18.0775  -15.0093 C   0  0  0  0  0  0  0  0  0  0  0  0
   23.7032  -18.0012  -15.3025 C   0  0  0  0  0  0  0  0  0  0  0  0
   22.4886  -20.2721  -17.9506 C   0  0  0  0  0  0  0  0  0  0  0  0
   22.9533  -19.3934  -18.7217 O   0  0  0  0  0  0  0  0  0  0  0  0
   21.1465  -20.5889  -18.0743 O   0  0  0  0  0  0  0  0  0  0  0  0
  2  1  1  0
  3  2  1  0
  4  5  1  0
  4  3  1  0
  5  7  1  0
  5  6  1  1
  7  8  2  0
  9 10  1  0
 11 10  1  6
 11 13  1  0
 12 11  1  0
 12  7  1  0
 13 14  2  0
 15 16  1  0
 15 13  1  0
 16 27  1  0
 16 17  1  1
 18 17  1  0
 19 18  2  0
 20 21  1  0
 20 19  1  0
 21 26  2  0
 22 21  1  0
 22 23  2  0
 23 24  1  0
 24 25  2  0
 26 18  1  0
 26 25  1  0
 27 28  2  0
 27 29  1  0
M  END
$$$$
