VCR.pdb
     RDKit          3D

 25 24  0  0  1  0  0  0  0  0999 V2000
   30.3029  -21.4877   -8.6450 C   0  0  0  0  0  0  0  0  0  0  0  0
   30.6829  -22.4052   -9.8173 C   0  0  2  0  0  0  0  0  0  0  0  0
   32.1513  -22.2496  -10.0151 C   0  0  0  0  0  0  0  0  0  0  0  0
   29.8384  -21.9217  -10.9789 C   0  0  2  0  0  0  0  0  0  0  0  0
   30.2840  -20.5277  -11.1814 N   0  0  0  0  0  0  0  0  0  0  0  0
   28.3965  -21.8653  -10.6857 C   0  0  0  0  0  0  0  0  0  0  0  0
   27.7289  -22.9281  -10.6680 O   0  0  0  0  0  0  0  0  0  0  0  0
   27.6525  -20.6772  -10.4061 N   0  0  0  0  0  0  0  0  0  0  0  0
   26.2130  -20.6863  -10.2684 C   0  0  1  0  0  0  0  0  0  0  0  0
   25.8462  -19.5690   -9.2612 C   0  0  0  0  0  0  0  0  0  0  0  0
   26.6766  -19.9612   -7.6838 S   0  0  0  0  0  0  0  0  0  0  0  0
   25.4684  -20.5180  -11.5175 C   0  0  0  0  0  0  0  0  0  0  0  0
   25.8613  -19.6440  -12.3682 O   0  0  0  0  0  0  0  0  0  0  0  0
   18.4459  -24.2762  -11.8303 N   0  0  0  0  0  0  0  0  0  0  0  0
   18.4332  -23.6350  -13.0816 C   0  0  0  0  0  0  0  0  0  0  0  0
   17.3061  -23.2877  -13.6044 N   0  0  0  0  0  0  0  0  0  0  0  0
   19.6748  -23.3868  -13.7395 N   0  0  0  0  0  0  0  0  0  0  0  0
   20.9166  -23.7276  -13.0852 C   0  0  0  0  0  0  0  0  0  0  0  0
   21.6742  -22.4578  -12.7610 C   0  0  0  0  0  0  0  0  0  0  0  0
   22.8885  -22.2516  -13.6185 C   0  0  0  0  0  0  0  0  0  0  0  0
   23.6514  -21.0509  -13.2097 C   0  0  2  0  0  0  0  0  0  0  0  0
   24.3144  -21.2417  -11.9130 N   0  0  0  0  0  0  0  0  0  0  0  0
   22.7935  -19.8545  -13.1766 C   0  0  0  0  0  0  0  0  0  0  0  0
   22.4660  -19.1260  -14.2910 O   0  0  0  0  0  0  0  0  0  0  0  0
   22.3327  -19.4681  -12.0765 O   0  0  0  0  0  0  0  0  0  0  0  0
  2  1  1  1
  2  3  1  0
  4  2  1  0
  4  5  1  1
  6  4  1  0
  7  6  2  0
  8  6  1  0
  9  8  1  0
  9 10  1  1
 11 10  1  0
 12 22  1  0
 12  9  1  0
 13 12  2  0
 14 15  1  0
 15 16  2  0
 17 18  1  0
 17 15  1  0
 19 18  1  0
 20 19  1  0
 21 20  1  1
 21 22  1  0
 23 21  1  0
 24 23  1  0
 25 23  2  0
M  END
$$$$
