VCR.pdb
     RDKit          3D

 25 24  0  0  1  0  0  0  0  0999 V2000
   25.3828  -12.2651  -15.8069 C   0  0  0  0  0  0  0  0  0  0  0  0
   24.5130  -13.3802  -16.4075 C   0  0  2  0  0  0  0  0  0  0  0  0
   25.3921  -14.1471  -17.3340 C   0  0  0  0  0  0  0  0  0  0  0  0
   23.3667  -12.6567  -17.0849 C   0  0  2  0  0  0  0  0  0  0  0  0
   24.0299  -11.8409  -18.1228 N   0  0  0  0  0  0  0  0  0  0  0  0
   22.6499  -11.7186  -16.2048 C   0  0  0  0  0  0  0  0  0  0  0  0
   21.9640  -12.1668  -15.2540 O   0  0  0  0  0  0  0  0  0  0  0  0
   22.6587  -10.2944  -16.3276 N   0  0  0  0  0  0  0  0  0  0  0  0
   21.8064   -9.4483  -15.5221 C   0  0  1  0  0  0  0  0  0  0  0  0
   22.6985   -8.3204  -14.9480 C   0  0  0  0  0  0  0  0  0  0  0  0
   21.6606   -7.3187  -13.8296 S   0  0  0  0  0  0  0  0  0  0  0  0
   20.6507   -8.8847  -16.2218 C   0  0  0  0  0  0  0  0  0  0  0  0
   20.8204   -8.3242  -17.3615 O   0  0  0  0  0  0  0  0  0  0  0  0
   11.6836   -9.3481  -16.3073 N   0  0  0  0  0  0  0  0  0  0  0  0
   12.0437   -8.3435  -17.2228 C   0  0  0  0  0  0  0  0  0  0  0  0
   11.1284   -7.7740  -17.9314 N   0  0  0  0  0  0  0  0  0  0  0  0
   13.4191   -7.9824  -17.3414 N   0  0  0  0  0  0  0  0  0  0  0  0
   14.4136   -8.6661  -16.5477 C   0  0  0  0  0  0  0  0  0  0  0  0
   15.7864   -8.1387  -16.9063 C   0  0  0  0  0  0  0  0  0  0  0  0
   16.8929   -8.7614  -16.1061 C   0  0  0  0  0  0  0  0  0  0  0  0
   18.2156   -8.2106  -16.4774 C   0  0  2  0  0  0  0  0  0  0  0  0
   19.3075   -8.8882  -15.7659 N   0  0  0  0  0  0  0  0  0  0  0  0
   18.2766   -6.7575  -16.2470 C   0  0  0  0  0  0  0  0  0  0  0  0
   18.7698   -6.1924  -15.0992 O   0  0  0  0  0  0  0  0  0  0  0  0
   17.8561   -5.9832  -17.1389 O   0  0  0  0  0  0  0  0  0  0  0  0
  2  1  1  6
  2  3  1  0
  4  2  1  0
  4  5  1  6
  6  4  1  0
  7  6  2  0
  8  6  1  0
  9  8  1  0
  9 10  1  6
 11 10  1  0
 12 22  1  0
 12  9  1  0
 13 12  2  0
 14 15  1  0
 15 16  2  0
 17 18  1  0
 17 15  1  0
 19 18  1  0
 20 19  1  0
 21 20  1  1
 21 22  1  0
 23 21  1  0
 24 23  1  0
 25 23  2  0
M  END
$$$$
