VCR.pdb
     RDKit          3D

 25 24  0  0  1  0  0  0  0  0999 V2000
   18.2837  -22.9180   -9.4195 C   0  0  0  0  0  0  0  0  0  0  0  0
   19.4258  -23.8840   -9.0689 C   0  0  2  0  0  0  0  0  0  0  0  0
   18.8196  -24.9759   -8.2567 C   0  0  0  0  0  0  0  0  0  0  0  0
   20.4376  -23.0360   -8.3249 C   0  0  2  0  0  0  0  0  0  0  0  0
   19.6434  -22.3998   -7.2538 N   0  0  0  0  0  0  0  0  0  0  0  0
   21.0095  -21.9445   -9.1312 C   0  0  0  0  0  0  0  0  0  0  0  0
   20.4990  -20.7995   -9.0693 O   0  0  0  0  0  0  0  0  0  0  0  0
   22.1316  -22.0616  -10.0089 N   0  0  0  0  0  0  0  0  0  0  0  0
   22.6110  -20.9474  -10.7963 C   0  0  1  0  0  0  0  0  0  0  0  0
   24.1496  -21.0896  -10.8945 C   0  0  0  0  0  0  0  0  0  0  0  0
   24.8483  -20.5910   -9.2837 S   0  0  0  0  0  0  0  0  0  0  0  0
   22.0189  -20.8287  -12.1298 C   0  0  0  0  0  0  0  0  0  0  0  0
   21.7869  -21.8902  -12.8090 O   0  0  0  0  0  0  0  0  0  0  0  0
   18.4484  -14.9185  -14.6724 N   0  0  0  0  0  0  0  0  0  0  0  0
   18.9823  -14.8670  -15.9722 C   0  0  0  0  0  0  0  0  0  0  0  0
   19.2687  -13.7228  -16.4948 N   0  0  0  0  0  0  0  0  0  0  0  0
   19.1922  -16.0891  -16.6781 N   0  0  0  0  0  0  0  0  0  0  0  0
   18.9003  -17.3499  -16.0366 C   0  0  0  0  0  0  0  0  0  0  0  0
   20.1720  -18.1651  -15.9376 C   0  0  0  0  0  0  0  0  0  0  0  0
   20.7494  -18.2047  -14.5529 C   0  0  0  0  0  0  0  0  0  0  0  0
   21.0759  -19.5863  -14.1339 C   0  0  2  0  0  0  0  0  0  0  0  0
   21.6554  -19.6242  -12.7847 N   0  0  0  0  0  0  0  0  0  0  0  0
   21.9757  -20.2417  -15.0977 C   0  0  0  0  0  0  0  0  0  0  0  0
   21.5356  -21.0268  -16.1322 O   0  0  0  0  0  0  0  0  0  0  0  0
   23.2136  -20.0844  -14.9767 O   0  0  0  0  0  0  0  0  0  0  0  0
  2  1  1  1
  2  3  1  0
  4  2  1  0
  4  5  1  1
  6  4  1  0
  7  6  2  0
  8  6  1  0
  9  8  1  0
  9 10  1  6
 11 10  1  0
 12 22  1  0
 12  9  1  0
 13 12  2  0
 14 15  1  0
 15 16  2  0
 17 18  1  0
 17 15  1  0
 19 18  1  0
 20 19  1  0
 21 20  1  6
 21 22  1  0
 23 21  1  0
 24 23  1  0
 25 23  2  0
M  END
$$$$
