VCR.pdb
     RDKit          3D

 25 24  0  0  1  0  0  0  0  0999 V2000
   27.3196  -16.1524  -16.8066 C   0  0  0  0  0  0  0  0  0  0  0  0
   26.0153  -16.0518  -16.0009 C   0  0  2  0  0  0  0  0  0  0  0  0
   26.4088  -15.7263  -14.6014 C   0  0  0  0  0  0  0  0  0  0  0  0
   25.3502  -17.4032  -16.1676 C   0  0  2  0  0  0  0  0  0  0  0  0
   25.2794  -17.5820  -17.6324 N   0  0  0  0  0  0  0  0  0  0  0  0
   23.9655  -17.4524  -15.6690 C   0  0  0  0  0  0  0  0  0  0  0  0
   23.7575  -17.5476  -14.4349 O   0  0  0  0  0  0  0  0  0  0  0  0
   22.7894  -17.3982  -16.4798 N   0  0  0  0  0  0  0  0  0  0  0  0
   21.4624  -17.3540  -15.9068 C   0  0  1  0  0  0  0  0  0  0  0  0
   20.6232  -16.3884  -16.7792 C   0  0  0  0  0  0  0  0  0  0  0  0
   20.4888  -14.8100  -15.8726 S   0  0  0  0  0  0  0  0  0  0  0  0
   20.7943  -18.6509  -15.7861 C   0  0  0  0  0  0  0  0  0  0  0  0
   20.8696  -19.4870  -16.7543 O   0  0  0  0  0  0  0  0  0  0  0  0
   17.6092  -25.2571  -12.7885 N   0  0  0  0  0  0  0  0  0  0  0  0
   18.9712  -25.4068  -12.4728 C   0  0  0  0  0  0  0  0  0  0  0  0
   19.5427  -26.5486  -12.6573 N   0  0  0  0  0  0  0  0  0  0  0  0
   19.6841  -24.2847  -11.9545 N   0  0  0  0  0  0  0  0  0  0  0  0
   19.0127  -23.0155  -11.7978 C   0  0  0  0  0  0  0  0  0  0  0  0
   18.8671  -22.3578  -13.1534 C   0  0  0  0  0  0  0  0  0  0  0  0
   19.6175  -21.0635  -13.2727 C   0  0  0  0  0  0  0  0  0  0  0  0
   19.4419  -20.4484  -14.6075 C   0  0  2  0  0  0  0  0  0  0  0  0
   20.0426  -19.1097  -14.6742 N   0  0  0  0  0  0  0  0  0  0  0  0
   18.0213  -20.3933  -14.9912 C   0  0  0  0  0  0  0  0  0  0  0  0
   17.3272  -21.4685  -15.4834 O   0  0  0  0  0  0  0  0  0  0  0  0
   17.4009  -19.3107  -14.8690 O   0  0  0  0  0  0  0  0  0  0  0  0
  2  1  1  6
  2  3  1  0
  4  2  1  0
  4  5  1  6
  6  4  1  0
  7  6  2  0
  8  6  1  0
  9  8  1  0
  9 10  1  6
 11 10  1  0
 12 22  1  0
 12  9  1  0
 13 12  2  0
 14 15  1  0
 15 16  2  0
 17 18  1  0
 17 15  1  0
 19 18  1  0
 20 19  1  0
 21 20  1  1
 21 22  1  0
 23 21  1  0
 24 23  1  0
 25 23  2  0
M  END
$$$$
