VCR.pdb
     RDKit          3D

 25 24  0  0  1  0  0  0  0  0999 V2000
   26.6491  -19.6647  -18.6771 C   0  0  0  0  0  0  0  0  0  0  0  0
   26.3080  -20.9587  -19.4319 C   0  0  2  0  0  0  0  0  0  0  0  0
   26.7292  -20.7456  -20.8449 C   0  0  0  0  0  0  0  0  0  0  0  0
   24.8152  -21.1374  -19.2422 C   0  0  2  0  0  0  0  0  0  0  0  0
   24.2293  -19.9854  -19.9578 N   0  0  0  0  0  0  0  0  0  0  0  0
   24.3749  -21.0319  -17.8409 C   0  0  0  0  0  0  0  0  0  0  0  0
   24.7754  -21.8769  -17.0036 O   0  0  0  0  0  0  0  0  0  0  0  0
   23.5063  -20.0244  -17.3178 N   0  0  0  0  0  0  0  0  0  0  0  0
   23.0812  -20.0181  -15.9356 C   0  0  1  0  0  0  0  0  0  0  0  0
   22.9055  -18.5366  -15.5214 C   0  0  0  0  0  0  0  0  0  0  0  0
   24.5736  -17.8295  -15.3001 S   0  0  0  0  0  0  0  0  0  0  0  0
   21.8617  -20.7785  -15.6573 C   0  0  0  0  0  0  0  0  0  0  0  0
   20.8681  -20.6853  -16.4610 O   0  0  0  0  0  0  0  0  0  0  0  0
   19.2986  -26.2987   -9.2876 N   0  0  0  0  0  0  0  0  0  0  0  0
   19.9319  -26.6193  -10.5013 C   0  0  0  0  0  0  0  0  0  0  0  0
   20.6248  -27.7041  -10.5875 N   0  0  0  0  0  0  0  0  0  0  0  0
   19.7884  -25.7295  -11.6076 N   0  0  0  0  0  0  0  0  0  0  0  0
   19.0394  -24.5042  -11.4530 C   0  0  0  0  0  0  0  0  0  0  0  0
   19.0641  -23.7369  -12.7577 C   0  0  0  0  0  0  0  0  0  0  0  0
   20.3367  -22.9721  -12.9766 C   0  0  0  0  0  0  0  0  0  0  0  0
   20.3629  -22.3190  -14.3046 C   0  0  2  0  0  0  0  0  0  0  0  0
   21.6433  -21.6443  -14.5552 N   0  0  0  0  0  0  0  0  0  0  0  0
   19.2451  -21.3732  -14.4605 C   0  0  0  0  0  0  0  0  0  0  0  0
   18.1920  -21.5789  -15.3142 O   0  0  0  0  0  0  0  0  0  0  0  0
   19.2443  -20.3174  -13.7844 O   0  0  0  0  0  0  0  0  0  0  0  0
  2  1  1  1
  2  3  1  0
  4  2  1  0
  4  5  1  6
  6  4  1  0
  7  6  2  0
  8  6  1  0
  9  8  1  0
  9 10  1  6
 11 10  1  0
 12 22  1  0
 12  9  1  0
 13 12  2  0
 14 15  1  0
 15 16  2  0
 17 18  1  0
 17 15  1  0
 19 18  1  0
 20 19  1  0
 21 20  1  1
 21 22  1  0
 23 21  1  0
 24 23  1  0
 25 23  2  0
M  END
$$$$
