VCR.pdb
     RDKit          3D

 25 24  0  0  1  0  0  0  0  0999 V2000
   28.0361  -18.3711  -17.1243 C   0  0  0  0  0  0  0  0  0  0  0  0
   27.0121  -19.1355  -16.2712 C   0  0  2  0  0  0  0  0  0  0  0  0
   26.1237  -18.1083  -15.6588 C   0  0  0  0  0  0  0  0  0  0  0  0
   27.8433  -19.9200  -15.2763 C   0  0  2  0  0  0  0  0  0  0  0  0
   28.5177  -20.9385  -16.1072 N   0  0  0  0  0  0  0  0  0  0  0  0
   27.0456  -20.6511  -14.2774 C   0  0  0  0  0  0  0  0  0  0  0  0
   26.4336  -21.6923  -14.6193 O   0  0  0  0  0  0  0  0  0  0  0  0
   26.8942  -20.2817  -12.9049 N   0  0  0  0  0  0  0  0  0  0  0  0
   25.9608  -20.9520  -12.0270 C   0  0  1  0  0  0  0  0  0  0  0  0
   26.2060  -20.4039  -10.5999 C   0  0  0  0  0  0  0  0  0  0  0  0
   25.0099  -21.2194   -9.4883 S   0  0  0  0  0  0  0  0  0  0  0  0
   24.5511  -20.8132  -12.3966 C   0  0  0  0  0  0  0  0  0  0  0  0
   24.0608  -19.6418  -12.5680 O   0  0  0  0  0  0  0  0  0  0  0  0
   17.0512  -24.7888  -12.5180 N   0  0  0  0  0  0  0  0  0  0  0  0
   16.8739  -24.0190  -13.6812 C   0  0  0  0  0  0  0  0  0  0  0  0
   15.6836  -23.6680  -14.0336 N   0  0  0  0  0  0  0  0  0  0  0  0
   18.0229  -23.6477  -14.4414 N   0  0  0  0  0  0  0  0  0  0  0  0
   19.3436  -23.9716  -13.9544 C   0  0  0  0  0  0  0  0  0  0  0  0
   20.0997  -22.6906  -13.6741 C   0  0  0  0  0  0  0  0  0  0  0  0
   21.5435  -22.9127  -13.3297 C   0  0  0  0  0  0  0  0  0  0  0  0
   22.2209  -21.6486  -12.9636 C   0  0  2  0  0  0  0  0  0  0  0  0
   23.6260  -21.8695  -12.5968 N   0  0  0  0  0  0  0  0  0  0  0  0
   21.5102  -20.9529  -11.8777 C   0  0  0  0  0  0  0  0  0  0  0  0
   20.6371  -19.9163  -12.0858 O   0  0  0  0  0  0  0  0  0  0  0  0
   21.7062  -21.3156  -10.6936 O   0  0  0  0  0  0  0  0  0  0  0  0
  2  1  1  6
  2  3  1  0
  4  2  1  0
  4  5  1  6
  6  4  1  0
  7  6  2  0
  8  6  1  0
  9  8  1  0
  9 10  1  1
 11 10  1  0
 12 22  1  0
 12  9  1  0
 13 12  2  0
 14 15  1  0
 15 16  2  0
 17 18  1  0
 17 15  1  0
 19 18  1  0
 20 19  1  0
 21 20  1  1
 21 22  1  0
 23 21  1  0
 24 23  1  0
 25 23  2  0
M  END
$$$$
