WEC.pdb
     RDKit          3D

 30 31  0  0  1  0  0  0  0  0999 V2000
    6.4384  -19.1379   22.9456 N   0  0  0  0  0  0  0  0  0  0  0  0
    7.1150  -17.9631   23.4241 C   0  0  1  0  0  0  0  0  0  0  0  0
    6.0816  -17.0309   24.0194 C   0  0  0  0  0  0  0  0  0  0  0  0
    6.4355  -15.6166   23.6410 C   0  0  0  0  0  0  0  0  0  0  0  0
    6.6299  -15.1500   22.3638 C   0  0  0  0  0  0  0  0  0  0  0  0
    6.9320  -13.8409   22.4136 N   0  0  0  0  0  0  0  0  0  0  0  0
    6.9371  -13.4463   23.7124 C   0  0  0  0  0  0  0  0  0  0  0  0
    7.1816  -12.2273   24.2984 C   0  0  0  0  0  0  0  0  0  0  0  0
    7.1146  -12.1218   25.6566 C   0  0  0  0  0  0  0  0  0  0  0  0
    6.8082  -13.2074   26.4499 C   0  0  0  0  0  0  0  0  0  0  0  0
    6.5622  -14.4321   25.8669 C   0  0  0  0  0  0  0  0  0  0  0  0
    6.6282  -14.5465   24.4921 C   0  0  0  0  0  0  0  0  0  0  0  0
    8.0332  -18.3391   24.5483 C   0  0  0  0  0  0  0  0  0  0  0  0
    7.5691  -18.7817   25.6120 O   0  0  0  0  0  0  0  0  0  0  0  0
    9.4339  -18.1968   24.4162 N   0  0  0  0  0  0  0  0  0  0  0  0
   10.4232  -18.3016   25.4296 C   0  0  1  0  0  0  0  0  0  0  0  0
   11.4104  -19.4439   25.2615 C   0  0  0  0  0  0  0  0  0  0  0  0
   10.9818  -20.2775   24.0917 C   0  0  0  0  0  0  0  0  0  0  0  0
   11.8966  -21.4398   23.8766 C   0  0  0  0  0  0  0  0  0  0  0  0
   12.9024  -21.6897   24.5777 O   0  0  0  0  0  0  0  0  0  0  0  0
   11.0094  -17.0538   25.9142 C   0  0  0  0  0  0  0  0  0  0  0  0
   11.5269  -16.2661   25.1065 O   0  0  0  0  0  0  0  0  0  0  0  0
   11.5979  -22.2898   22.8254 O   0  0  0  0  0  0  0  0  0  0  0  0
   10.9780  -16.7612   27.3034 N   0  0  0  0  0  0  0  0  0  0  0  0
   11.7478  -15.6850   27.8961 C   0  0  1  0  0  0  0  0  0  0  0  0
   11.0216  -15.0318   29.0575 C   0  0  0  0  0  0  0  0  0  0  0  0
    9.3606  -14.5867   28.4793 S   0  0  0  0  0  0  0  0  0  0  0  0
   13.0891  -16.1295   28.3095 C   0  0  0  0  0  0  0  0  0  0  0  0
   13.3566  -17.3542   28.2320 O   0  0  0  0  0  0  0  0  0  0  0  0
   14.0456  -15.2432   28.7739 O   0  0  0  0  0  0  0  0  0  0  0  0
  2  1  1  1
  2  3  1  0
  2 13  1  0
  3  4  1  0
  4 12  1  0
  4  5  2  0
  5  6  1  0
  7  6  1  0
  7  8  2  0
  9  8  1  0
 10  9  2  0
 11 12  2  0
 11 10  1  0
 12  7  1  0
 13 14  2  0
 15 13  1  0
 15 16  1  0
 16 21  1  0
 16 17  1  6
 18 17  1  0
 19 20  2  0
 19 18  1  0
 21 22  2  0
 23 19  1  0
 24 25  1  0
 24 21  1  0
 25 28  1  0
 26 27  1  0
 25 26  1  1
 28 29  2  0
 28 30  1  0
M  END
$$$$
