WEC.pdb
     RDKit          3D

 30 31  0  0  1  0  0  0  0  0999 V2000
    6.9904  -17.2449   23.8854 N   0  0  0  0  0  0  0  0  0  0  0  0
    8.1938  -16.4763   23.7189 C   0  0  1  0  0  0  0  0  0  0  0  0
    8.5327  -15.8337   25.0469 C   0  0  0  0  0  0  0  0  0  0  0  0
    7.3995  -14.9242   25.4437 C   0  0  0  0  0  0  0  0  0  0  0  0
    6.1357  -15.3235   25.8042 C   0  0  0  0  0  0  0  0  0  0  0  0
    5.3951  -14.2386   26.0905 N   0  0  0  0  0  0  0  0  0  0  0  0
    6.1632  -13.1323   25.9206 C   0  0  0  0  0  0  0  0  0  0  0  0
    5.8905  -11.7946   26.0801 C   0  0  0  0  0  0  0  0  0  0  0  0
    6.8768  -10.8854   25.8335 C   0  0  0  0  0  0  0  0  0  0  0  0
    8.1354  -11.2784   25.4295 C   0  0  0  0  0  0  0  0  0  0  0  0
    8.4137  -12.6189   25.2681 C   0  0  0  0  0  0  0  0  0  0  0  0
    7.4199  -13.5454   25.5160 C   0  0  0  0  0  0  0  0  0  0  0  0
    9.3334  -17.3966   23.3989 C   0  0  0  0  0  0  0  0  0  0  0  0
    9.3291  -18.5653   23.8194 O   0  0  0  0  0  0  0  0  0  0  0  0
   10.4249  -16.9514   22.6178 N   0  0  0  0  0  0  0  0  0  0  0  0
   11.7933  -17.3105   22.7417 C   0  0  1  0  0  0  0  0  0  0  0  0
   12.7295  -16.6698   21.7313 C   0  0  0  0  0  0  0  0  0  0  0  0
   12.2234  -16.9710   20.3529 C   0  0  0  0  0  0  0  0  0  0  0  0
   13.0074  -16.2477   19.3060 C   0  0  0  0  0  0  0  0  0  0  0  0
   14.0281  -15.5604   19.5330 O   0  0  0  0  0  0  0  0  0  0  0  0
   12.3318  -17.4096   24.0965 C   0  0  0  0  0  0  0  0  0  0  0  0
   12.5844  -16.3740   24.7323 O   0  0  0  0  0  0  0  0  0  0  0  0
   12.5615  -16.3544   17.9997 O   0  0  0  0  0  0  0  0  0  0  0  0
   12.5583  -18.6908   24.6655 N   0  0  0  0  0  0  0  0  0  0  0  0
   13.1856  -18.8747   25.9596 C   0  0  1  0  0  0  0  0  0  0  0  0
   12.3779  -19.7865   26.8647 C   0  0  0  0  0  0  0  0  0  0  0  0
   10.7631  -19.0021   27.1259 S   0  0  0  0  0  0  0  0  0  0  0  0
   14.5695  -19.3621   25.8371 C   0  0  0  0  0  0  0  0  0  0  0  0
   15.0199  -19.5807   24.6852 O   0  0  0  0  0  0  0  0  0  0  0  0
   15.3715  -19.5811   26.9438 O   0  0  0  0  0  0  0  0  0  0  0  0
  2  1  1  1
  2  3  1  0
  2 13  1  0
  3  4  1  0
  4 12  1  0
  4  5  2  0
  5  6  1  0
  7  6  1  0
  7  8  2  0
  9  8  1  0
 10  9  2  0
 11 12  2  0
 11 10  1  0
 12  7  1  0
 13 14  2  0
 15 13  1  0
 15 16  1  0
 16 21  1  0
 16 17  1  6
 18 17  1  0
 19 20  2  0
 19 18  1  0
 21 22  2  0
 23 19  1  0
 24 25  1  0
 24 21  1  0
 25 28  1  0
 26 27  1  0
 25 26  1  1
 28 29  2  0
 28 30  1  0
M  END
$$$$
