WEC.pdb
     RDKit          3D

 30 31  0  0  1  0  0  0  0  0999 V2000
    6.6004  -17.4032   24.1092 N   0  0  0  0  0  0  0  0  0  0  0  0
    7.7786  -16.6346   23.8124 C   0  0  1  0  0  0  0  0  0  0  0  0
    8.2870  -16.0297   25.1035 C   0  0  0  0  0  0  0  0  0  0  0  0
    7.2791  -15.0225   25.5918 C   0  0  0  0  0  0  0  0  0  0  0  0
    6.0581  -15.3119   26.1505 C   0  0  0  0  0  0  0  0  0  0  0  0
    5.4328  -14.1636   26.4634 N   0  0  0  0  0  0  0  0  0  0  0  0
    6.2340  -13.1248   26.1144 C   0  0  0  0  0  0  0  0  0  0  0  0
    6.0680  -11.7644   26.2200 C   0  0  0  0  0  0  0  0  0  0  0  0
    7.0618  -10.9414   25.7781 C   0  0  0  0  0  0  0  0  0  0  0  0
    8.2237  -11.4434   25.2305 C   0  0  0  0  0  0  0  0  0  0  0  0
    8.3948  -12.8069   25.1224 C   0  0  0  0  0  0  0  0  0  0  0  0
    7.3926  -13.6466   25.5678 C   0  0  0  0  0  0  0  0  0  0  0  0
    8.8622  -17.5499   23.3264 C   0  0  0  0  0  0  0  0  0  0  0  0
    8.8467  -18.7536   23.6327 O   0  0  0  0  0  0  0  0  0  0  0  0
    9.9128  -17.0604   22.5164 N   0  0  0  0  0  0  0  0  0  0  0  0
   11.2869  -17.4169   22.5563 C   0  0  1  0  0  0  0  0  0  0  0  0
   12.1174  -16.9451   21.3750 C   0  0  0  0  0  0  0  0  0  0  0  0
   11.4973  -17.4698   20.1151 C   0  0  0  0  0  0  0  0  0  0  0  0
   12.2532  -17.0309   18.9027 C   0  0  0  0  0  0  0  0  0  0  0  0
   13.3139  -16.3675   18.9301 O   0  0  0  0  0  0  0  0  0  0  0  0
   11.9580  -17.3233   23.8511 C   0  0  0  0  0  0  0  0  0  0  0  0
   12.7841  -16.4183   24.0486 O   0  0  0  0  0  0  0  0  0  0  0  0
   11.7319  -17.3902   17.6716 O   0  0  0  0  0  0  0  0  0  0  0  0
   11.6542  -18.2704   24.8646 N   0  0  0  0  0  0  0  0  0  0  0  0
   12.3969  -18.3555   26.1068 C   0  0  1  0  0  0  0  0  0  0  0  0
   11.5643  -17.9337   27.3034 C   0  0  0  0  0  0  0  0  0  0  0  0
   10.0418  -18.9200   27.2816 S   0  0  0  0  0  0  0  0  0  0  0  0
   12.9642  -19.6974   26.3192 C   0  0  0  0  0  0  0  0  0  0  0  0
   12.6423  -20.6094   25.5179 O   0  0  0  0  0  0  0  0  0  0  0  0
   13.8294  -19.9718   27.3642 O   0  0  0  0  0  0  0  0  0  0  0  0
  2  1  1  1
  2  3  1  0
  2 13  1  0
  3  4  1  0
  4 12  1  0
  4  5  2  0
  5  6  1  0
  7  6  1  0
  7  8  2  0
  9  8  1  0
 10  9  2  0
 11 12  2  0
 11 10  1  0
 12  7  1  0
 13 14  2  0
 15 13  1  0
 15 16  1  0
 16 21  1  0
 16 17  1  6
 18 17  1  0
 19 20  2  0
 19 18  1  0
 21 22  2  0
 23 19  1  0
 24 25  1  0
 24 21  1  0
 25 28  1  0
 26 27  1  0
 25 26  1  1
 28 29  2  0
 28 30  1  0
M  END
$$$$
