WEC.pdb
     RDKit          3D

 30 31  0  0  1  0  0  0  0  0999 V2000
    7.4263  -17.5063   21.8938 N   0  0  0  0  0  0  0  0  0  0  0  0
    8.0735  -16.5699   22.7719 C   0  0  1  0  0  0  0  0  0  0  0  0
    7.0852  -16.1664   23.8451 C   0  0  0  0  0  0  0  0  0  0  0  0
    7.1900  -14.6793   24.0603 C   0  0  0  0  0  0  0  0  0  0  0  0
    7.5737  -13.7552   23.1193 C   0  0  0  0  0  0  0  0  0  0  0  0
    7.5508  -12.5290   23.6702 N   0  0  0  0  0  0  0  0  0  0  0  0
    7.1554  -12.6424   24.9639 C   0  0  0  0  0  0  0  0  0  0  0  0
    6.9701  -11.7036   25.9506 C   0  0  0  0  0  0  0  0  0  0  0  0
    6.5578  -12.1143   27.1841 C   0  0  0  0  0  0  0  0  0  0  0  0
    6.3241  -13.4450   27.4603 C   0  0  0  0  0  0  0  0  0  0  0  0
    6.5086  -14.3903   26.4740 C   0  0  0  0  0  0  0  0  0  0  0  0
    6.9260  -13.9818   25.2224 C   0  0  0  0  0  0  0  0  0  0  0  0
    9.2044  -17.2515   23.4823 C   0  0  0  0  0  0  0  0  0  0  0  0
    8.9742  -18.1755   24.2799 O   0  0  0  0  0  0  0  0  0  0  0  0
   10.5431  -16.8557   23.2569 N   0  0  0  0  0  0  0  0  0  0  0  0
   11.7084  -17.2773   23.9505 C   0  0  1  0  0  0  0  0  0  0  0  0
   13.0034  -17.1933   23.1607 C   0  0  0  0  0  0  0  0  0  0  0  0
   13.1733  -15.7872   22.6697 C   0  0  0  0  0  0  0  0  0  0  0  0
   14.1290  -15.7140   21.5229 C   0  0  0  0  0  0  0  0  0  0  0  0
   13.8712  -15.1870   20.4177 O   0  0  0  0  0  0  0  0  0  0  0  0
   11.8221  -16.8853   25.3537 C   0  0  0  0  0  0  0  0  0  0  0  0
   12.6934  -17.4076   26.0667 O   0  0  0  0  0  0  0  0  0  0  0  0
   15.3820  -16.2719   21.7111 O   0  0  0  0  0  0  0  0  0  0  0  0
   10.9328  -15.9116   25.8805 N   0  0  0  0  0  0  0  0  0  0  0  0
   11.0240  -15.4205   27.2415 C   0  0  1  0  0  0  0  0  0  0  0  0
   10.1488  -14.2025   27.4722 C   0  0  0  0  0  0  0  0  0  0  0  0
   10.3819  -13.6836   29.1949 S   0  0  0  0  0  0  0  0  0  0  0  0
   10.7193  -16.4702   28.2279 C   0  0  0  0  0  0  0  0  0  0  0  0
    9.7551  -17.2402   27.9937 O   0  0  0  0  0  0  0  0  0  0  0  0
   11.4587  -16.6248   29.3878 O   0  0  0  0  0  0  0  0  0  0  0  0
  2  1  1  6
  2  3  1  0
  2 13  1  0
  3  4  1  0
  4 12  1  0
  4  5  2  0
  5  6  1  0
  7  6  1  0
  7  8  2  0
  9  8  1  0
 10  9  2  0
 11 12  2  0
 11 10  1  0
 12  7  1  0
 13 14  2  0
 15 13  1  0
 15 16  1  0
 16 21  1  0
 16 17  1  6
 18 17  1  0
 19 20  2  0
 19 18  1  0
 21 22  2  0
 23 19  1  0
 24 25  1  0
 24 21  1  0
 25 28  1  0
 26 27  1  0
 25 26  1  6
 28 29  2  0
 28 30  1  0
M  END
$$$$
