WEC.pdb
     RDKit          3D

 30 31  0  0  1  0  0  0  0  0999 V2000
    6.3710  -17.6007   24.6940 N   0  0  0  0  0  0  0  0  0  0  0  0
    7.4538  -16.8424   24.1287 C   0  0  1  0  0  0  0  0  0  0  0  0
    8.0637  -15.9974   25.2266 C   0  0  0  0  0  0  0  0  0  0  0  0
    7.0807  -14.9214   25.6069 C   0  0  0  0  0  0  0  0  0  0  0  0
    5.8414  -15.1240   26.1635 C   0  0  0  0  0  0  0  0  0  0  0  0
    5.2483  -13.9343   26.3647 N   0  0  0  0  0  0  0  0  0  0  0  0
    6.0887  -12.9545   25.9447 C   0  0  0  0  0  0  0  0  0  0  0  0
    5.9652  -11.5856   25.9306 C   0  0  0  0  0  0  0  0  0  0  0  0
    6.9927  -10.8346   25.4404 C   0  0  0  0  0  0  0  0  0  0  0  0
    8.1470  -11.4173   24.9611 C   0  0  0  0  0  0  0  0  0  0  0  0
    8.2757  -12.7897   24.9730 C   0  0  0  0  0  0  0  0  0  0  0  0
    7.2392  -13.5568   25.4680 C   0  0  0  0  0  0  0  0  0  0  0  0
    8.5341  -17.7778   23.6745 C   0  0  0  0  0  0  0  0  0  0  0  0
    8.7579  -18.8254   24.3031 O   0  0  0  0  0  0  0  0  0  0  0  0
    9.3109  -17.4838   22.5300 N   0  0  0  0  0  0  0  0  0  0  0  0
   10.6495  -17.8721   22.2581 C   0  0  1  0  0  0  0  0  0  0  0  0
   11.1128  -17.6574   20.8274 C   0  0  0  0  0  0  0  0  0  0  0  0
   12.4064  -16.9004   20.8526 C   0  0  0  0  0  0  0  0  0  0  0  0
   12.9572  -16.7016   19.4774 C   0  0  0  0  0  0  0  0  0  0  0  0
   14.1507  -16.4231   19.2252 O   0  0  0  0  0  0  0  0  0  0  0  0
   11.6494  -17.5607   23.2773 C   0  0  0  0  0  0  0  0  0  0  0  0
   12.0420  -16.3911   23.4127 O   0  0  0  0  0  0  0  0  0  0  0  0
   12.0743  -16.8379   18.4198 O   0  0  0  0  0  0  0  0  0  0  0  0
   12.1570  -18.6023   24.0982 N   0  0  0  0  0  0  0  0  0  0  0  0
   12.3397  -18.4553   25.5289 C   0  0  1  0  0  0  0  0  0  0  0  0
   11.0512  -18.0784   26.2365 C   0  0  0  0  0  0  0  0  0  0  0  0
   11.4629  -17.7347   27.9696 S   0  0  0  0  0  0  0  0  0  0  0  0
   12.9294  -19.6600   26.1360 C   0  0  0  0  0  0  0  0  0  0  0  0
   12.4142  -20.7725   25.8635 O   0  0  0  0  0  0  0  0  0  0  0  0
   14.0201  -19.5952   26.9858 O   0  0  0  0  0  0  0  0  0  0  0  0
  2  1  1  1
  2  3  1  0
  2 13  1  0
  3  4  1  0
  4 12  1  0
  4  5  2  0
  5  6  1  0
  7  6  1  0
  7  8  2  0
  9  8  1  0
 10  9  2  0
 11 12  2  0
 11 10  1  0
 12  7  1  0
 13 14  2  0
 15 13  1  0
 15 16  1  0
 16 21  1  0
 16 17  1  6
 18 17  1  0
 19 20  2  0
 19 18  1  0
 21 22  2  0
 23 19  1  0
 24 25  1  0
 24 21  1  0
 25 28  1  0
 26 27  1  0
 25 26  1  1
 28 29  2  0
 28 30  1  0
M  END
$$$$
