WEC.pdb
     RDKit          3D

 30 31  0  0  1  0  0  0  0  0999 V2000
    7.3969  -17.3973   21.6411 N   0  0  0  0  0  0  0  0  0  0  0  0
    7.9149  -16.3830   22.5185 C   0  0  1  0  0  0  0  0  0  0  0  0
    6.7508  -15.7519   23.2519 C   0  0  0  0  0  0  0  0  0  0  0  0
    7.0093  -14.2737   23.3819 C   0  0  0  0  0  0  0  0  0  0  0  0
    7.4553  -13.4439   22.3823 C   0  0  0  0  0  0  0  0  0  0  0  0
    7.5708  -12.1944   22.8649 N   0  0  0  0  0  0  0  0  0  0  0  0
    7.2040  -12.1989   24.1719 C   0  0  0  0  0  0  0  0  0  0  0  0
    7.1421  -11.1956   25.1093 C   0  0  0  0  0  0  0  0  0  0  0  0
    6.7272  -11.4970   26.3731 C   0  0  0  0  0  0  0  0  0  0  0  0
    6.3705  -12.7809   26.7280 C   0  0  0  0  0  0  0  0  0  0  0  0
    6.4310  -13.7906   25.7915 C   0  0  0  0  0  0  0  0  0  0  0  0
    6.8502  -13.4929   24.5096 C   0  0  0  0  0  0  0  0  0  0  0  0
    8.7717  -17.0226   23.5696 C   0  0  0  0  0  0  0  0  0  0  0  0
    8.2703  -17.3917   24.6444 O   0  0  0  0  0  0  0  0  0  0  0  0
   10.1562  -17.2147   23.3554 N   0  0  0  0  0  0  0  0  0  0  0  0
   11.1406  -17.6108   24.2992 C   0  0  1  0  0  0  0  0  0  0  0  0
   12.4086  -18.2039   23.7089 C   0  0  0  0  0  0  0  0  0  0  0  0
   12.9362  -17.2633   22.6678 C   0  0  0  0  0  0  0  0  0  0  0  0
   14.1199  -17.8344   21.9560 C   0  0  0  0  0  0  0  0  0  0  0  0
   15.1431  -18.2771   22.5240 O   0  0  0  0  0  0  0  0  0  0  0  0
   11.3547  -16.7271   25.4432 C   0  0  0  0  0  0  0  0  0  0  0  0
   12.0231  -15.6912   25.3001 O   0  0  0  0  0  0  0  0  0  0  0  0
   14.0662  -17.8694   20.5730 O   0  0  0  0  0  0  0  0  0  0  0  0
   10.7939  -17.0676   26.7026 N   0  0  0  0  0  0  0  0  0  0  0  0
   11.3293  -16.5783   27.9579 C   0  0  1  0  0  0  0  0  0  0  0  0
   10.5394  -15.4009   28.4989 C   0  0  0  0  0  0  0  0  0  0  0  0
    9.1042  -15.1645   27.4146 S   0  0  0  0  0  0  0  0  0  0  0  0
   11.4257  -17.6442   28.9690 C   0  0  0  0  0  0  0  0  0  0  0  0
   10.9825  -18.7816   28.6737 O   0  0  0  0  0  0  0  0  0  0  0  0
   11.9842  -17.4247   30.2164 O   0  0  0  0  0  0  0  0  0  0  0  0
  2  1  1  6
  2  3  1  0
  2 13  1  0
  3  4  1  0
  4 12  1  0
  4  5  2  0
  5  6  1  0
  7  6  1  0
  7  8  2  0
  9  8  1  0
 10  9  2  0
 11 12  2  0
 11 10  1  0
 12  7  1  0
 13 14  2  0
 15 13  1  0
 15 16  1  0
 16 21  1  0
 16 17  1  6
 18 17  1  0
 19 20  2  0
 19 18  1  0
 21 22  2  0
 23 19  1  0
 24 25  1  0
 24 21  1  0
 25 28  1  0
 26 27  1  0
 25 26  1  1
 28 29  2  0
 28 30  1  0
M  END
$$$$
