WEC.pdb
     RDKit          3D

 30 31  0  0  1  0  0  0  0  0999 V2000
    6.3307  -17.7998   23.3184 N   0  0  0  0  0  0  0  0  0  0  0  0
    7.0960  -16.8057   24.0205 C   0  0  1  0  0  0  0  0  0  0  0  0
    6.5454  -16.6896   25.4257 C   0  0  0  0  0  0  0  0  0  0  0  0
    7.1431  -15.4699   26.0767 C   0  0  0  0  0  0  0  0  0  0  0  0
    8.1684  -15.4666   26.9907 C   0  0  0  0  0  0  0  0  0  0  0  0
    8.4334  -14.1989   27.3519 N   0  0  0  0  0  0  0  0  0  0  0  0
    7.5903  -13.3722   26.6821 C   0  0  0  0  0  0  0  0  0  0  0  0
    7.4495  -12.0050   26.6906 C   0  0  0  0  0  0  0  0  0  0  0  0
    6.4978  -11.4339   25.8979 C   0  0  0  0  0  0  0  0  0  0  0  0
    5.6781  -12.1961   25.0924 C   0  0  0  0  0  0  0  0  0  0  0  0
    5.8154  -13.5677   25.0804 C   0  0  0  0  0  0  0  0  0  0  0  0
    6.7771  -14.1530   25.8805 C   0  0  0  0  0  0  0  0  0  0  0  0
    8.5120  -17.2768   24.1658 C   0  0  0  0  0  0  0  0  0  0  0  0
    8.7486  -18.4343   24.5493 O   0  0  0  0  0  0  0  0  0  0  0  0
    9.5943  -16.4160   23.8703 N   0  0  0  0  0  0  0  0  0  0  0  0
   10.9798  -16.7271   23.8529 C   0  0  1  0  0  0  0  0  0  0  0  0
   11.7652  -16.1406   22.6923 C   0  0  0  0  0  0  0  0  0  0  0  0
   12.4365  -17.2602   21.9554 C   0  0  0  0  0  0  0  0  0  0  0  0
   13.4770  -16.7537   21.0096 C   0  0  0  0  0  0  0  0  0  0  0  0
   14.4090  -17.4464   20.5434 O   0  0  0  0  0  0  0  0  0  0  0  0
   11.6792  -16.7072   25.1359 C   0  0  0  0  0  0  0  0  0  0  0  0
   12.9050  -16.8992   25.1681 O   0  0  0  0  0  0  0  0  0  0  0  0
   13.3911  -15.4244   20.6322 O   0  0  0  0  0  0  0  0  0  0  0  0
   10.9447  -16.4681   26.3274 N   0  0  0  0  0  0  0  0  0  0  0  0
   11.5463  -16.5277   27.6452 C   0  0  1  0  0  0  0  0  0  0  0  0
   10.9798  -15.4777   28.5829 C   0  0  0  0  0  0  0  0  0  0  0  0
   10.7578  -13.9542   27.6232 S   0  0  0  0  0  0  0  0  0  0  0  0
   11.4337  -17.8687   28.2424 C   0  0  0  0  0  0  0  0  0  0  0  0
   10.7659  -18.7363   27.6270 O   0  0  0  0  0  0  0  0  0  0  0  0
   12.0368  -18.1893   29.4463 O   0  0  0  0  0  0  0  0  0  0  0  0
  2  1  1  6
  2  3  1  0
  2 13  1  0
  3  4  1  0
  4 12  1  0
  4  5  2  0
  5  6  1  0
  7  6  1  0
  7  8  2  0
  9  8  1  0
 10  9  2  0
 11 12  2  0
 11 10  1  0
 12  7  1  0
 13 14  2  0
 15 13  1  0
 15 16  1  0
 16 21  1  0
 16 17  1  6
 18 17  1  0
 19 20  2  0
 19 18  1  0
 21 22  2  0
 23 19  1  0
 24 25  1  0
 24 21  1  0
 25 28  1  0
 26 27  1  0
 25 26  1  1
 28 29  2  0
 28 30  1  0
M  END
$$$$
