WEC.pdb
     RDKit          3D

 30 31  0  0  1  0  0  0  0  0999 V2000
    6.8760  -17.1488   23.6323 N   0  0  0  0  0  0  0  0  0  0  0  0
    8.1390  -16.4660   23.7055 C   0  0  1  0  0  0  0  0  0  0  0  0
    8.3345  -15.9831   25.1267 C   0  0  0  0  0  0  0  0  0  0  0  0
    7.2788  -14.9536   25.4339 C   0  0  0  0  0  0  0  0  0  0  0  0
    5.9855  -15.2163   25.8149 C   0  0  0  0  0  0  0  0  0  0  0  0
    5.3357  -14.0540   26.0009 N   0  0  0  0  0  0  0  0  0  0  0  0
    6.1925  -13.0327   25.7449 C   0  0  0  0  0  0  0  0  0  0  0  0
    6.0301  -11.6685   25.7876 C   0  0  0  0  0  0  0  0  0  0  0  0
    7.0884  -10.8671   25.4741 C   0  0  0  0  0  0  0  0  0  0  0  0
    8.3114  -11.3946   25.1171 C   0  0  0  0  0  0  0  0  0  0  0  0
    8.4793  -12.7622   25.0728 C   0  0  0  0  0  0  0  0  0  0  0  0
    7.4121  -13.5800   25.3890 C   0  0  0  0  0  0  0  0  0  0  0  0
    9.2485  -17.4391   23.4401 C   0  0  0  0  0  0  0  0  0  0  0  0
    9.2399  -18.5579   23.9795 O   0  0  0  0  0  0  0  0  0  0  0  0
   10.3159  -17.1006   22.5766 N   0  0  0  0  0  0  0  0  0  0  0  0
   11.6981  -17.3811   22.7429 C   0  0  1  0  0  0  0  0  0  0  0  0
   12.6003  -16.9028   21.6182 C   0  0  0  0  0  0  0  0  0  0  0  0
   12.0328  -17.3791   20.3151 C   0  0  0  0  0  0  0  0  0  0  0  0
   12.2691  -16.3937   19.2164 C   0  0  0  0  0  0  0  0  0  0  0  0
   12.9387  -15.3436   19.3375 O   0  0  0  0  0  0  0  0  0  0  0  0
   12.2516  -17.2107   24.0846 C   0  0  0  0  0  0  0  0  0  0  0  0
   12.7080  -16.1072   24.4231 O   0  0  0  0  0  0  0  0  0  0  0  0
   11.7016  -16.6755   17.9854 O   0  0  0  0  0  0  0  0  0  0  0  0
   12.2589  -18.3115   24.9815 N   0  0  0  0  0  0  0  0  0  0  0  0
   12.9606  -18.2854   26.2499 C   0  0  1  0  0  0  0  0  0  0  0  0
   12.0116  -18.3476   27.4324 C   0  0  0  0  0  0  0  0  0  0  0  0
   10.5979  -19.3733   26.9420 S   0  0  0  0  0  0  0  0  0  0  0  0
   13.9720  -19.3514   26.3424 C   0  0  0  0  0  0  0  0  0  0  0  0
   14.7147  -19.3759   27.3550 O   0  0  0  0  0  0  0  0  0  0  0  0
   14.1203  -20.3105   25.3555 O   0  0  0  0  0  0  0  0  0  0  0  0
  2  1  1  1
  2  3  1  0
  2 13  1  0
  3  4  1  0
  4 12  1  0
  4  5  2  0
  5  6  1  0
  7  6  1  0
  7  8  2  0
  9  8  1  0
 10  9  2  0
 11 12  2  0
 11 10  1  0
 12  7  1  0
 13 14  2  0
 15 13  1  0
 15 16  1  0
 16 21  1  0
 16 17  1  6
 18 17  1  0
 19 20  2  0
 19 18  1  0
 21 22  2  0
 23 19  1  0
 24 25  1  0
 24 21  1  0
 25 28  1  0
 26 27  1  0
 25 26  1  1
 28 29  2  0
 28 30  1  0
M  END
$$$$
