WEC.pdb
     RDKit          3D

 30 31  0  0  1  0  0  0  0  0999 V2000
    6.5474  -17.5491   24.7753 N   0  0  0  0  0  0  0  0  0  0  0  0
    7.7033  -16.7988   24.3654 C   0  0  1  0  0  0  0  0  0  0  0  0
    8.1435  -15.9347   25.5276 C   0  0  0  0  0  0  0  0  0  0  0  0
    7.1183  -14.8512   25.7361 C   0  0  0  0  0  0  0  0  0  0  0  0
    5.8958  -15.0061   26.3430 C   0  0  0  0  0  0  0  0  0  0  0  0
    5.2529  -13.8254   26.3480 N   0  0  0  0  0  0  0  0  0  0  0  0
    6.0440  -12.8986   25.7497 C   0  0  0  0  0  0  0  0  0  0  0  0
    5.8597  -11.5590   25.5029 C   0  0  0  0  0  0  0  0  0  0  0  0
    6.8471  -10.8617   24.8712 C   0  0  0  0  0  0  0  0  0  0  0  0
    8.0205  -11.4698   24.4771 C   0  0  0  0  0  0  0  0  0  0  0  0
    8.2100  -12.8130   24.7224 C   0  0  0  0  0  0  0  0  0  0  0  0
    7.2144  -13.5256   25.3617 C   0  0  0  0  0  0  0  0  0  0  0  0
    8.8382  -17.7401   24.0931 C   0  0  0  0  0  0  0  0  0  0  0  0
    8.7919  -18.9102   24.5072 O   0  0  0  0  0  0  0  0  0  0  0  0
    9.9727  -17.3132   23.3649 N   0  0  0  0  0  0  0  0  0  0  0  0
   11.3374  -17.6164   23.6148 C   0  0  1  0  0  0  0  0  0  0  0  0
   12.2479  -17.5736   22.3994 C   0  0  0  0  0  0  0  0  0  0  0  0
   12.0153  -16.2830   21.6734 C   0  0  0  0  0  0  0  0  0  0  0  0
   12.1647  -16.4458   20.1952 C   0  0  0  0  0  0  0  0  0  0  0  0
   13.1818  -16.9085   19.6320 O   0  0  0  0  0  0  0  0  0  0  0  0
   11.9239  -17.0708   24.8370 C   0  0  0  0  0  0  0  0  0  0  0  0
   12.5794  -16.0181   24.7847 O   0  0  0  0  0  0  0  0  0  0  0  0
   11.0960  -16.0532   19.4075 O   0  0  0  0  0  0  0  0  0  0  0  0
   11.7346  -17.7541   26.0673 N   0  0  0  0  0  0  0  0  0  0  0  0
   11.6760  -17.0696   27.3440 C   0  0  1  0  0  0  0  0  0  0  0  0
   10.5714  -16.0300   27.3879 C   0  0  0  0  0  0  0  0  0  0  0  0
   10.7386  -15.1244   28.9509 S   0  0  0  0  0  0  0  0  0  0  0  0
   11.5449  -18.0108   28.4686 C   0  0  0  0  0  0  0  0  0  0  0  0
   10.8174  -19.0224   28.3116 O   0  0  0  0  0  0  0  0  0  0  0  0
   12.1942  -17.8092   29.6743 O   0  0  0  0  0  0  0  0  0  0  0  0
  2  1  1  1
  2  3  1  0
  2 13  1  0
  3  4  1  0
  4 12  1  0
  4  5  2  0
  5  6  1  0
  7  6  1  0
  7  8  2  0
  9  8  1  0
 10  9  2  0
 11 12  2  0
 11 10  1  0
 12  7  1  0
 13 14  2  0
 15 13  1  0
 15 16  1  0
 16 21  1  0
 16 17  1  6
 18 17  1  0
 19 20  2  0
 19 18  1  0
 21 22  2  0
 23 19  1  0
 24 25  1  0
 24 21  1  0
 25 28  1  0
 26 27  1  0
 25 26  1  6
 28 29  2  0
 28 30  1  0
M  END
$$$$
