WEC.pdb
     RDKit          3D

 30 31  0  0  1  0  0  0  0  0999 V2000
    6.9107  -17.4773   24.9037 N   0  0  0  0  0  0  0  0  0  0  0  0
    7.8755  -16.5061   24.4645 C   0  0  1  0  0  0  0  0  0  0  0  0
    8.2154  -15.6124   25.6379 C   0  0  0  0  0  0  0  0  0  0  0  0
    7.0788  -14.6476   25.8522 C   0  0  0  0  0  0  0  0  0  0  0  0
    5.8007  -14.9809   26.2292 C   0  0  0  0  0  0  0  0  0  0  0  0
    5.0615  -13.8616   26.3199 N   0  0  0  0  0  0  0  0  0  0  0  0
    5.8446  -12.7983   26.0057 C   0  0  0  0  0  0  0  0  0  0  0  0
    5.5794  -11.4509   25.9473 C   0  0  0  0  0  0  0  0  0  0  0  0
    6.5812  -10.5950   25.5949 C   0  0  0  0  0  0  0  0  0  0  0  0
    7.8481  -11.0513   25.2976 C   0  0  0  0  0  0  0  0  0  0  0  0
    8.1191  -12.4017   25.3547 C   0  0  0  0  0  0  0  0  0  0  0  0
    7.1095  -13.2744   25.7108 C   0  0  0  0  0  0  0  0  0  0  0  0
    9.1491  -17.2026   24.0889 C   0  0  0  0  0  0  0  0  0  0  0  0
    9.4057  -18.3267   24.5509 O   0  0  0  0  0  0  0  0  0  0  0  0
   10.0730  -16.5945   23.2079 N   0  0  0  0  0  0  0  0  0  0  0  0
   11.4690  -16.8330   23.1033 C   0  0  1  0  0  0  0  0  0  0  0  0
   12.1175  -16.3545   21.8155 C   0  0  0  0  0  0  0  0  0  0  0  0
   13.5867  -16.6437   21.8843 C   0  0  0  0  0  0  0  0  0  0  0  0
   14.2937  -16.2125   20.6401 C   0  0  0  0  0  0  0  0  0  0  0  0
   14.4662  -15.0209   20.2994 O   0  0  0  0  0  0  0  0  0  0  0  0
   12.2695  -16.6184   24.3069 C   0  0  0  0  0  0  0  0  0  0  0  0
   13.1908  -15.7869   24.2893 O   0  0  0  0  0  0  0  0  0  0  0  0
   14.7863  -17.2113   19.8176 O   0  0  0  0  0  0  0  0  0  0  0  0
   11.9806  -17.3654   25.4795 N   0  0  0  0  0  0  0  0  0  0  0  0
   12.0403  -16.7917   26.8097 C   0  0  1  0  0  0  0  0  0  0  0  0
   11.1476  -15.5725   26.9496 C   0  0  0  0  0  0  0  0  0  0  0  0
   11.3580  -14.9349   28.6350 S   0  0  0  0  0  0  0  0  0  0  0  0
   11.7279  -17.7833   27.8522 C   0  0  0  0  0  0  0  0  0  0  0  0
   11.9933  -17.4916   29.0446 O   0  0  0  0  0  0  0  0  0  0  0  0
   11.1582  -19.0087   27.5528 O   0  0  0  0  0  0  0  0  0  0  0  0
  2  1  1  1
  2  3  1  0
  2 13  1  0
  3  4  1  0
  4 12  1  0
  4  5  2  0
  5  6  1  0
  7  6  1  0
  7  8  2  0
  9  8  1  0
 10  9  2  0
 11 12  2  0
 11 10  1  0
 12  7  1  0
 13 14  2  0
 15 13  1  0
 15 16  1  0
 16 21  1  0
 16 17  1  6
 18 17  1  0
 19 20  2  0
 19 18  1  0
 21 22  2  0
 23 19  1  0
 24 25  1  0
 24 21  1  0
 25 28  1  0
 26 27  1  0
 25 26  1  6
 28 29  2  0
 28 30  1  0
M  END
$$$$
