ISY.pdb
     RDKit          3D

 27 27  0  0  1  0  0  0  0  0999 V2000
   27.9736  -12.1621  -15.6582 C   0  0  0  0  0  0  0  0  0  0  0  0
   26.5773  -12.3924  -16.1281 C   0  0  0  0  0  0  0  0  0  0  0  0
   25.7308  -11.1802  -16.2933 C   0  0  2  0  0  0  0  0  0  0  0  0
   25.6391  -10.3515  -15.0271 C   0  0  0  0  0  0  0  0  0  0  0  0
   24.3709  -11.4356  -16.8457 C   0  0  2  0  0  0  0  0  0  0  0  0
   24.4026  -12.2889  -17.9922 N   0  0  0  0  0  0  0  0  0  0  0  0
   23.6322  -10.1931  -17.1702 C   0  0  0  0  0  0  0  0  0  0  0  0
   24.0403   -9.4218  -18.1074 O   0  0  0  0  0  0  0  0  0  0  0  0
   19.7532  -10.0012  -16.4321 O   0  0  0  0  0  0  0  0  0  0  0  0
   20.3551   -9.0994  -17.2818 C   0  0  0  0  0  0  0  0  0  0  0  0
   21.7108   -8.6224  -16.7562 C   0  0  2  0  0  0  0  0  0  0  0  0
   22.4816   -9.8378  -16.4633 N   0  0  0  0  0  0  0  0  0  0  0  0
   21.5232   -7.9137  -15.4450 C   0  0  0  0  0  0  0  0  0  0  0  0
   21.4387   -8.5508  -14.3602 O   0  0  0  0  0  0  0  0  0  0  0  0
   24.2249   -1.3015  -17.4058 O   0  0  0  0  0  0  0  0  0  0  0  0
   23.8179   -2.2670  -16.4960 C   0  0  0  0  0  0  0  0  0  0  0  0
   24.2763   -3.5666  -16.5326 C   0  0  0  0  0  0  0  0  0  0  0  0
   23.8571   -4.5246  -15.6105 C   0  0  0  0  0  0  0  0  0  0  0  0
   22.9568   -4.1972  -14.6180 C   0  0  0  0  0  0  0  0  0  0  0  0
   22.4792   -5.1525  -13.6361 C   0  0  0  0  0  0  0  0  0  0  0  0
   21.2229   -5.8284  -14.0777 C   0  0  2  0  0  0  0  0  0  0  0  0
   21.4336   -6.5003  -15.3744 N   0  0  0  0  0  0  0  0  0  0  0  0
   20.1424   -4.8593  -14.2668 C   0  0  0  0  0  0  0  0  0  0  0  0
   19.6229   -4.6940  -15.3909 O   0  0  0  0  0  0  0  0  0  0  0  0
   22.4991   -2.8752  -14.5916 C   0  0  0  0  0  0  0  0  0  0  0  0
   22.9179   -1.9305  -15.5073 C   0  0  0  0  0  0  0  0  0  0  0  0
   19.6737   -4.1114  -13.2092 O   0  0  0  0  0  0  0  0  0  0  0  0
  1  2  1  0
  2  3  1  0
  3  4  1  1
  5  3  1  0
  5  6  1  6
  7  5  1  0
  8  7  2  0
  9 10  1  0
 11 10  1  1
 11 12  1  0
 12  7  1  0
 13 22  1  0
 13 11  1  0
 14 13  2  0
 16 15  1  0
 17 16  2  0
 18 17  1  0
 19 25  1  0
 19 18  2  0
 21 20  1  6
 20 19  1  0
 21 22  1  0
 23 21  1  0
 24 23  2  0
 25 26  2  0
 26 16  1  0
 27 23  1  0
M  END
$$$$
