ISY.pdb
     RDKit          3D

 27 27  0  0  1  0  0  0  0  0999 V2000
   27.0754  -17.2078  -14.9097 C   0  0  0  0  0  0  0  0  0  0  0  0
   25.6695  -16.9756  -15.3488 C   0  0  0  0  0  0  0  0  0  0  0  0
   25.3858  -15.6568  -15.9761 C   0  0  2  0  0  0  0  0  0  0  0  0
   25.7405  -14.4902  -15.0753 C   0  0  0  0  0  0  0  0  0  0  0  0
   24.0030  -15.4999  -16.5079 C   0  0  2  0  0  0  0  0  0  0  0  0
   23.5700  -16.6484  -17.2406 N   0  0  0  0  0  0  0  0  0  0  0  0
   23.8342  -14.2858  -17.3399 C   0  0  0  0  0  0  0  0  0  0  0  0
   24.5696  -14.0989  -18.3715 O   0  0  0  0  0  0  0  0  0  0  0  0
   20.4038  -12.7848  -17.9794 O   0  0  0  0  0  0  0  0  0  0  0  0
   21.4866  -12.2988  -18.6787 C   0  0  0  0  0  0  0  0  0  0  0  0
   22.7067  -12.0803  -17.7813 C   0  0  2  0  0  0  0  0  0  0  0  0
   22.8750  -13.3235  -17.0176 N   0  0  0  0  0  0  0  0  0  0  0  0
   22.4087  -11.0035  -16.7771 C   0  0  0  0  0  0  0  0  0  0  0  0
   21.7832  -11.2541  -15.7114 O   0  0  0  0  0  0  0  0  0  0  0  0
   21.4667   -2.6557  -13.8838 O   0  0  0  0  0  0  0  0  0  0  0  0
   21.9444   -3.8696  -14.3570 C   0  0  0  0  0  0  0  0  0  0  0  0
   22.0829   -4.9811  -13.5532 C   0  0  0  0  0  0  0  0  0  0  0  0
   22.5646   -6.1935  -14.0448 C   0  0  0  0  0  0  0  0  0  0  0  0
   22.9232   -6.3208  -15.3707 C   0  0  0  0  0  0  0  0  0  0  0  0
   23.4369   -7.5539  -15.9368 C   0  0  0  0  0  0  0  0  0  0  0  0
   22.3728   -8.5927  -16.0739 C   0  0  2  0  0  0  0  0  0  0  0  0
   22.8185   -9.6624  -16.9871 N   0  0  0  0  0  0  0  0  0  0  0  0
   21.1512   -8.0227  -16.6440 C   0  0  0  0  0  0  0  0  0  0  0  0
   20.2082   -7.6668  -15.9058 O   0  0  0  0  0  0  0  0  0  0  0  0
   22.7779   -5.1858  -16.1760 C   0  0  0  0  0  0  0  0  0  0  0  0
   22.3002   -3.9876  -15.6837 C   0  0  0  0  0  0  0  0  0  0  0  0
   21.0165   -7.8642  -18.0057 O   0  0  0  0  0  0  0  0  0  0  0  0
  1  2  1  0
  2  3  1  0
  3  4  1  1
  5  3  1  0
  5  6  1  6
  7  5  1  0
  8  7  2  0
  9 10  1  0
 11 10  1  6
 11 12  1  0
 12  7  1  0
 13 22  1  0
 13 11  1  0
 14 13  2  0
 16 15  1  0
 17 16  2  0
 18 17  1  0
 19 25  1  0
 19 18  2  0
 21 20  1  6
 20 19  1  0
 21 22  1  0
 23 21  1  0
 24 23  2  0
 25 26  2  0
 26 16  1  0
 27 23  1  0
M  END
$$$$
