ISY.pdb
     RDKit          3D

 27 27  0  0  1  0  0  0  0  0999 V2000
   20.8676  -18.0415  -14.7116 C   0  0  0  0  0  0  0  0  0  0  0  0
   22.1807  -18.3935  -15.3244 C   0  0  0  0  0  0  0  0  0  0  0  0
   22.5317  -19.8390  -15.3419 C   0  0  2  0  0  0  0  0  0  0  0  0
   22.3868  -20.4946  -13.9827 C   0  0  0  0  0  0  0  0  0  0  0  0
   23.8638  -20.1538  -15.9303 C   0  0  2  0  0  0  0  0  0  0  0  0
   23.9790  -19.7054  -17.2828 N   0  0  0  0  0  0  0  0  0  0  0  0
   24.2092  -21.5922  -15.8516 C   0  0  0  0  0  0  0  0  0  0  0  0
   24.3123  -22.1734  -14.7152 O   0  0  0  0  0  0  0  0  0  0  0  0
   23.9427  -23.7620  -19.2246 O   0  0  0  0  0  0  0  0  0  0  0  0
   23.9852  -24.4585  -18.0368 C   0  0  0  0  0  0  0  0  0  0  0  0
   24.8366  -23.7519  -16.9797 C   0  0  2  0  0  0  0  0  0  0  0  0
   24.4298  -22.3410  -17.0095 N   0  0  0  0  0  0  0  0  0  0  0  0
   26.2813  -23.7848  -17.3902 C   0  0  0  0  0  0  0  0  0  0  0  0
   26.7847  -22.8691  -18.0957 O   0  0  0  0  0  0  0  0  0  0  0  0
   28.1822  -31.1752  -17.2219 O   0  0  0  0  0  0  0  0  0  0  0  0
   28.4383  -29.8290  -17.0034 C   0  0  0  0  0  0  0  0  0  0  0  0
   27.5687  -29.0057  -16.3203 C   0  0  0  0  0  0  0  0  0  0  0  0
   27.8413  -27.6548  -16.1093 C   0  0  0  0  0  0  0  0  0  0  0  0
   29.0071  -27.0912  -16.5849 C   0  0  0  0  0  0  0  0  0  0  0  0
   29.3413  -25.6912  -16.4025 C   0  0  0  0  0  0  0  0  0  0  0  0
   28.5745  -24.8073  -17.3303 C   0  0  2  0  0  0  0  0  0  0  0  0
   27.1368  -24.8465  -17.0009 N   0  0  0  0  0  0  0  0  0  0  0  0
   28.7098  -25.2562  -18.7169 C   0  0  0  0  0  0  0  0  0  0  0  0
   27.7471  -25.7832  -19.3137 O   0  0  0  0  0  0  0  0  0  0  0  0
   29.8813  -27.9372  -17.2764 C   0  0  0  0  0  0  0  0  0  0  0  0
   29.6061  -29.2744  -17.4822 C   0  0  0  0  0  0  0  0  0  0  0  0
   29.9000  -25.1047  -19.3935 O   0  0  0  0  0  0  0  0  0  0  0  0
  1  2  1  0
  2  3  1  0
  3  4  1  1
  5  3  1  0
  5  6  1  6
  7  5  1  0
  8  7  2  0
  9 10  1  0
 11 10  1  6
 11 12  1  0
 12  7  1  0
 13 22  1  0
 13 11  1  0
 14 13  2  0
 16 15  1  0
 17 16  2  0
 18 17  1  0
 19 25  1  0
 19 18  2  0
 21 20  1  1
 20 19  1  0
 21 22  1  0
 23 21  1  0
 24 23  2  0
 25 26  2  0
 26 16  1  0
 27 23  1  0
M  END
$$$$
