ISY.pdb
     RDKit          3D

 27 27  0  0  1  0  0  0  0  0999 V2000
   15.6417  -14.4627  -15.7951 C   0  0  0  0  0  0  0  0  0  0  0  0
   16.2835  -13.3508  -16.5536 C   0  0  0  0  0  0  0  0  0  0  0  0
   17.4764  -12.7261  -15.9213 C   0  0  2  0  0  0  0  0  0  0  0  0
   17.2021  -12.2269  -14.5164 C   0  0  0  0  0  0  0  0  0  0  0  0
   18.1304  -11.6609  -16.7319 C   0  0  2  0  0  0  0  0  0  0  0  0
   18.6714  -12.1653  -17.9552 N   0  0  0  0  0  0  0  0  0  0  0  0
   19.1804  -10.9264  -15.9886 C   0  0  0  0  0  0  0  0  0  0  0  0
   18.9183  -10.3899  -14.8557 O   0  0  0  0  0  0  0  0  0  0  0  0
   22.6644   -9.9965  -17.9557 O   0  0  0  0  0  0  0  0  0  0  0  0
   22.8133  -10.3135  -16.6234 C   0  0  0  0  0  0  0  0  0  0  0  0
   21.5361  -10.0588  -15.8199 C   0  0  2  0  0  0  0  0  0  0  0  0
   20.4716  -10.8029  -16.5057 N   0  0  0  0  0  0  0  0  0  0  0  0
   21.1635   -8.6064  -15.9106 C   0  0  0  0  0  0  0  0  0  0  0  0
   20.3765   -8.1845  -16.8007 O   0  0  0  0  0  0  0  0  0  0  0  0
   20.2660    0.0087  -14.4186 O   0  0  0  0  0  0  0  0  0  0  0  0
   20.6095   -1.3302  -14.2970 C   0  0  0  0  0  0  0  0  0  0  0  0
   21.8839   -1.7980  -14.5374 C   0  0  0  0  0  0  0  0  0  0  0  0
   22.2123   -3.1470  -14.4106 C   0  0  0  0  0  0  0  0  0  0  0  0
   21.2581   -4.0697  -14.0352 C   0  0  0  0  0  0  0  0  0  0  0  0
   21.5390   -5.4861  -13.8940 C   0  0  0  0  0  0  0  0  0  0  0  0
   21.4173   -6.2130  -15.1928 C   0  0  2  0  0  0  0  0  0  0  0  0
   21.6816   -7.6516  -14.9992 N   0  0  0  0  0  0  0  0  0  0  0  0
   22.3968   -5.7232  -16.1639 C   0  0  0  0  0  0  0  0  0  0  0  0
   23.5845   -6.1085  -16.1220 O   0  0  0  0  0  0  0  0  0  0  0  0
   19.9688   -3.5824  -13.7940 C   0  0  0  0  0  0  0  0  0  0  0  0
   19.6492   -2.2452  -13.9211 C   0  0  0  0  0  0  0  0  0  0  0  0
   22.0294   -4.8297  -17.1458 O   0  0  0  0  0  0  0  0  0  0  0  0
  1  2  1  0
  2  3  1  0
  3  4  1  1
  5  3  1  0
  5  6  1  6
  7  5  1  0
  8  7  2  0
  9 10  1  0
 11 10  1  6
 11 12  1  0
 12  7  1  0
 13 22  1  0
 13 11  1  0
 14 13  2  0
 16 15  1  0
 17 16  2  0
 18 17  1  0
 19 25  1  0
 19 18  2  0
 21 20  1  1
 20 19  1  0
 21 22  1  0
 23 21  1  0
 24 23  2  0
 25 26  2  0
 26 16  1  0
 27 23  1  0
M  END
$$$$
