ISY.pdb
     RDKit          3D

 27 27  0  0  1  0  0  0  0  0999 V2000
   22.2096   -7.9362  -21.4065 C   0  0  0  0  0  0  0  0  0  0  0  0
   21.4258   -8.3931  -20.2232 C   0  0  0  0  0  0  0  0  0  0  0  0
   21.0832   -9.8402  -20.1804 C   0  0  2  0  0  0  0  0  0  0  0  0
   20.3449  -10.3053  -21.4201 C   0  0  0  0  0  0  0  0  0  0  0  0
   20.3620  -10.2779  -18.9523 C   0  0  2  0  0  0  0  0  0  0  0  0
   21.0939   -9.9845  -17.7600 N   0  0  0  0  0  0  0  0  0  0  0  0
   19.9978  -11.7136  -18.9723 C   0  0  0  0  0  0  0  0  0  0  0  0
   19.3457  -12.2038  -19.9595 O   0  0  0  0  0  0  0  0  0  0  0  0
   20.6858  -15.9390  -16.6166 O   0  0  0  0  0  0  0  0  0  0  0  0
   20.9448  -14.6006  -16.8153 C   0  0  0  0  0  0  0  0  0  0  0  0
   20.0848  -14.0023  -17.9306 C   0  0  2  0  0  0  0  0  0  0  0  0
   20.3551  -12.5587  -17.9196 N   0  0  0  0  0  0  0  0  0  0  0  0
   18.6309  -14.1635  -17.5890 C   0  0  0  0  0  0  0  0  0  0  0  0
   18.0507  -13.3727  -16.7966 O   0  0  0  0  0  0  0  0  0  0  0  0
   10.1378  -16.2126  -17.5299 O   0  0  0  0  0  0  0  0  0  0  0  0
   11.4864  -16.1677  -17.8538 C   0  0  0  0  0  0  0  0  0  0  0  0
   12.3065  -17.2739  -17.7880 C   0  0  0  0  0  0  0  0  0  0  0  0
   13.6598  -17.2115  -18.1170 C   0  0  0  0  0  0  0  0  0  0  0  0
   14.2292  -16.0230  -18.5247 C   0  0  0  0  0  0  0  0  0  0  0  0
   15.6319  -15.8958  -18.8727 C   0  0  0  0  0  0  0  0  0  0  0  0
   16.4507  -15.4031  -17.7251 C   0  0  2  0  0  0  0  0  0  0  0  0
   17.8525  -15.2110  -18.1436 N   0  0  0  0  0  0  0  0  0  0  0  0
   16.4588  -16.3734  -16.6293 C   0  0  0  0  0  0  0  0  0  0  0  0
   15.5168  -16.4186  -15.8101 O   0  0  0  0  0  0  0  0  0  0  0  0
   13.3864  -14.9078  -18.5876 C   0  0  0  0  0  0  0  0  0  0  0  0
   12.0467  -14.9755  -18.2606 C   0  0  0  0  0  0  0  0  0  0  0  0
   17.5035  -17.2587  -16.4800 O   0  0  0  0  0  0  0  0  0  0  0  0
  1  2  1  0
  2  3  1  0
  3  4  1  6
  5  3  1  0
  5  6  1  1
  7  5  1  0
  8  7  2  0
  9 10  1  0
 11 10  1  1
 11 12  1  0
 12  7  1  0
 13 22  1  0
 13 11  1  0
 14 13  2  0
 16 15  1  0
 17 16  2  0
 18 17  1  0
 19 25  1  0
 19 18  2  0
 21 20  1  6
 20 19  1  0
 21 22  1  0
 23 21  1  0
 24 23  2  0
 25 26  2  0
 26 16  1  0
 27 23  1  0
M  END
$$$$
