ISY.pdb
     RDKit          3D

 27 27  0  0  1  0  0  0  0  0999 V2000
   26.7998   -8.7374  -23.9137 C   0  0  0  0  0  0  0  0  0  0  0  0
   27.2606   -8.5980  -22.5024 C   0  0  0  0  0  0  0  0  0  0  0  0
   26.2094   -8.2948  -21.4944 C   0  0  2  0  0  0  0  0  0  0  0  0
   25.4246   -7.0404  -21.8241 C   0  0  0  0  0  0  0  0  0  0  0  0
   26.6869   -8.2523  -20.0838 C   0  0  2  0  0  0  0  0  0  0  0  0
   27.3685   -9.4505  -19.7055 N   0  0  0  0  0  0  0  0  0  0  0  0
   25.6057   -7.9666  -19.1122 C   0  0  0  0  0  0  0  0  0  0  0  0
   25.1265   -8.9025  -18.3812 O   0  0  0  0  0  0  0  0  0  0  0  0
   23.8484   -6.0898  -15.6073 O   0  0  0  0  0  0  0  0  0  0  0  0
   24.6635   -6.5434  -16.6209 C   0  0  0  0  0  0  0  0  0  0  0  0
   24.0391   -6.3399  -18.0031 C   0  0  2  0  0  0  0  0  0  0  0  0
   25.0878   -6.6771  -18.9744 N   0  0  0  0  0  0  0  0  0  0  0  0
   23.7257   -4.8849  -18.2063 C   0  0  0  0  0  0  0  0  0  0  0  0
   24.6400   -4.0335  -18.3766 O   0  0  0  0  0  0  0  0  0  0  0  0
   16.3791   -5.4007  -17.0280 O   0  0  0  0  0  0  0  0  0  0  0  0
   17.4906   -4.7924  -17.5938 C   0  0  0  0  0  0  0  0  0  0  0  0
   18.3460   -5.4513  -18.4510 C   0  0  0  0  0  0  0  0  0  0  0  0
   19.4587   -4.8252  -19.0109 C   0  0  0  0  0  0  0  0  0  0  0  0
   19.7430   -3.5070  -18.7201 C   0  0  0  0  0  0  0  0  0  0  0  0
   20.8894   -2.8055  -19.2665 C   0  0  0  0  0  0  0  0  0  0  0  0
   22.1065   -2.9766  -18.4183 C   0  0  2  0  0  0  0  0  0  0  0  0
   22.3894   -4.4103  -18.2149 N   0  0  0  0  0  0  0  0  0  0  0  0
   21.9124   -2.3850  -17.0936 C   0  0  0  0  0  0  0  0  0  0  0  0
   21.7577   -1.1524  -16.9617 O   0  0  0  0  0  0  0  0  0  0  0  0
   18.8674   -2.8494  -17.8490 C   0  0  0  0  0  0  0  0  0  0  0  0
   17.7668   -3.4746  -17.2975 C   0  0  0  0  0  0  0  0  0  0  0  0
   21.8934   -3.1748  -15.9653 O   0  0  0  0  0  0  0  0  0  0  0  0
  1  2  1  0
  2  3  1  0
  3  4  1  6
  5  3  1  0
  5  6  1  1
  7  5  1  0
  8  7  2  0
  9 10  1  0
 11 10  1  1
 11 12  1  0
 12  7  1  0
 13 22  1  0
 13 11  1  0
 14 13  2  0
 16 15  1  0
 17 16  2  0
 18 17  1  0
 19 25  1  0
 19 18  2  0
 21 20  1  6
 20 19  1  0
 21 22  1  0
 23 21  1  0
 24 23  2  0
 25 26  2  0
 26 16  1  0
 27 23  1  0
M  END
$$$$
