ISY.pdb
     RDKit          3D

 27 27  0  0  1  0  0  0  0  0999 V2000
   12.8670  -19.8619    1.2375 C   0  0  0  0  0  0  0  0  0  0  0  0
   14.2643  -19.4859    1.5975 C   0  0  0  0  0  0  0  0  0  0  0  0
   14.4545  -18.8673    2.9370 C   0  0  2  0  0  0  0  0  0  0  0  0
   13.5973  -17.6336    3.1406 C   0  0  0  0  0  0  0  0  0  0  0  0
   15.8707  -18.5807    3.3000 C   0  0  2  0  0  0  0  0  0  0  0  0
   16.7326  -19.6911    3.0403 N   0  0  0  0  0  0  0  0  0  0  0  0
   16.0335  -18.1423    4.7057 C   0  0  0  0  0  0  0  0  0  0  0  0
   15.4802  -17.0630    5.1168 O   0  0  0  0  0  0  0  0  0  0  0  0
   18.7712  -20.1237    7.0543 O   0  0  0  0  0  0  0  0  0  0  0  0
   17.6339  -19.6934    7.7016 C   0  0  0  0  0  0  0  0  0  0  0  0
   16.9898  -18.4919    7.0065 C   0  0  2  0  0  0  0  0  0  0  0  0
   16.7910  -18.8924    5.6076 N   0  0  0  0  0  0  0  0  0  0  0  0
   17.9571  -17.3427    6.9847 C   0  0  0  0  0  0  0  0  0  0  0  0
   18.5912  -17.0377    5.9384 O   0  0  0  0  0  0  0  0  0  0  0  0
   21.7703   -9.7052    7.0481 O   0  0  0  0  0  0  0  0  0  0  0  0
   20.9538  -10.8263    7.0941 C   0  0  0  0  0  0  0  0  0  0  0  0
   19.7730  -10.8603    7.8050 C   0  0  0  0  0  0  0  0  0  0  0  0
   18.9641  -11.9952    7.8407 C   0  0  0  0  0  0  0  0  0  0  0  0
   19.3255  -13.1369    7.1559 C   0  0  0  0  0  0  0  0  0  0  0  0
   18.5284  -14.3491    7.1620 C   0  0  0  0  0  0  0  0  0  0  0  0
   19.0949  -15.3867    8.0744 C   0  0  2  0  0  0  0  0  0  0  0  0
   18.1960  -16.5550    8.1393 N   0  0  0  0  0  0  0  0  0  0  0  0
   19.2291  -14.8719    9.4380 C   0  0  0  0  0  0  0  0  0  0  0  0
   18.2379  -14.8059   10.1955 O   0  0  0  0  0  0  0  0  0  0  0  0
   20.5258  -13.0896    6.4382 C   0  0  0  0  0  0  0  0  0  0  0  0
   21.3229  -11.9627    6.4063 C   0  0  0  0  0  0  0  0  0  0  0  0
   20.4510  -14.4521    9.9155 O   0  0  0  0  0  0  0  0  0  0  0  0
  1  2  1  0
  2  3  1  0
  3  4  1  6
  5  3  1  0
  5  6  1  1
  7  5  1  0
  8  7  2  0
  9 10  1  0
 11 10  1  1
 11 12  1  0
 12  7  1  0
 13 22  1  0
 13 11  1  0
 14 13  2  0
 16 15  1  0
 17 16  2  0
 18 17  1  0
 19 25  1  0
 19 18  2  0
 21 20  1  6
 20 19  1  0
 21 22  1  0
 23 21  1  0
 24 23  2  0
 25 26  2  0
 26 16  1  0
 27 23  1  0
M  END
$$$$
