ISY.pdb
     RDKit          3D

 27 27  0  0  1  0  0  0  0  0999 V2000
   23.0613  -13.6533  -15.0162 C   0  0  0  0  0  0  0  0  0  0  0  0
   22.2222  -13.2499  -16.1809 C   0  0  0  0  0  0  0  0  0  0  0  0
   22.4593  -11.8840  -16.7206 C   0  0  2  0  0  0  0  0  0  0  0  0
   22.2746  -10.8004  -15.6765 C   0  0  0  0  0  0  0  0  0  0  0  0
   21.6892  -11.5540  -17.9525 C   0  0  2  0  0  0  0  0  0  0  0  0
   21.8467  -12.5435  -18.9720 N   0  0  0  0  0  0  0  0  0  0  0  0
   22.0152  -10.2173  -18.5015 C   0  0  0  0  0  0  0  0  0  0  0  0
   23.0240  -10.0619  -19.2748 O   0  0  0  0  0  0  0  0  0  0  0  0
   20.6954   -6.2321  -20.3595 O   0  0  0  0  0  0  0  0  0  0  0  0
   20.5726   -7.5033  -19.8432 C   0  0  0  0  0  0  0  0  0  0  0  0
   21.5367   -7.7537  -18.6815 C   0  0  2  0  0  0  0  0  0  0  0  0
   21.2336   -9.1033  -18.1880 N   0  0  0  0  0  0  0  0  0  0  0  0
   21.2251   -6.8107  -17.5545 C   0  0  0  0  0  0  0  0  0  0  0  0
   20.1831   -6.9423  -16.8570 O   0  0  0  0  0  0  0  0  0  0  0  0
   19.9805   -8.9805  -11.7615 O   0  0  0  0  0  0  0  0  0  0  0  0
   20.6160   -8.0278  -12.5451 C   0  0  0  0  0  0  0  0  0  0  0  0
   21.8605   -8.2303  -13.1029 C   0  0  0  0  0  0  0  0  0  0  0  0
   22.4851   -7.2623  -13.8880 C   0  0  0  0  0  0  0  0  0  0  0  0
   21.8684   -6.0533  -14.1349 C   0  0  0  0  0  0  0  0  0  0  0  0
   22.4720   -5.0062  -14.9374 C   0  0  0  0  0  0  0  0  0  0  0  0
   21.7078   -4.7544  -16.1954 C   0  0  2  0  0  0  0  0  0  0  0  0
   22.0900   -5.7349  -17.2296 N   0  0  0  0  0  0  0  0  0  0  0  0
   22.0028   -3.4256  -16.7335 C   0  0  0  0  0  0  0  0  0  0  0  0
   22.4944   -3.2939  -17.8744 O   0  0  0  0  0  0  0  0  0  0  0  0
   20.6058   -5.8601  -13.5634 C   0  0  0  0  0  0  0  0  0  0  0  0
   19.9919   -6.8225  -12.7867 C   0  0  0  0  0  0  0  0  0  0  0  0
   21.7423   -2.2926  -15.9947 O   0  0  0  0  0  0  0  0  0  0  0  0
  1  2  1  0
  2  3  1  0
  3  4  1  1
  5  3  1  0
  5  6  1  6
  7  5  1  0
  8  7  2  0
  9 10  1  0
 11 10  1  6
 11 12  1  0
 12  7  1  0
 13 22  1  0
 13 11  1  0
 14 13  2  0
 16 15  1  0
 17 16  2  0
 18 17  1  0
 19 25  1  0
 19 18  2  0
 21 20  1  1
 20 19  1  0
 21 22  1  0
 23 21  1  0
 24 23  2  0
 25 26  2  0
 26 16  1  0
 27 23  1  0
M  END
$$$$
