ISY.pdb
     RDKit          3D

 27 27  0  0  1  0  0  0  0  0999 V2000
   19.6369  -13.5570  -17.0033 C   0  0  0  0  0  0  0  0  0  0  0  0
   18.7431  -12.8155  -16.0681 C   0  0  0  0  0  0  0  0  0  0  0  0
   18.5519  -11.3674  -16.3505 C   0  0  2  0  0  0  0  0  0  0  0  0
   19.8618  -10.6105  -16.4472 C   0  0  0  0  0  0  0  0  0  0  0  0
   17.6148  -10.6670  -15.4281 C   0  0  2  0  0  0  0  0  0  0  0  0
   16.3376  -11.3059  -15.3644 N   0  0  0  0  0  0  0  0  0  0  0  0
   17.4384   -9.2333  -15.7567 C   0  0  0  0  0  0  0  0  0  0  0  0
   16.6360   -8.8752  -16.6884 O   0  0  0  0  0  0  0  0  0  0  0  0
   16.2503   -6.5522  -13.9513 O   0  0  0  0  0  0  0  0  0  0  0  0
   16.6837   -6.3545  -15.2438 C   0  0  0  0  0  0  0  0  0  0  0  0
   18.1227   -6.8312  -15.4530 C   0  0  2  0  0  0  0  0  0  0  0  0
   18.1409   -8.2467  -15.0616 N   0  0  0  0  0  0  0  0  0  0  0  0
   19.0354   -6.1161  -14.4979 C   0  0  0  0  0  0  0  0  0  0  0  0
   18.9096   -6.2426  -13.2498 O   0  0  0  0  0  0  0  0  0  0  0  0
   22.9207  -10.6664  -14.2217 O   0  0  0  0  0  0  0  0  0  0  0  0
   22.7919   -9.2852  -14.2607 C   0  0  0  0  0  0  0  0  0  0  0  0
   22.8328   -8.5652  -15.4356 C   0  0  0  0  0  0  0  0  0  0  0  0
   22.7018   -7.1774  -15.4571 C   0  0  0  0  0  0  0  0  0  0  0  0
   22.5248   -6.4706  -14.2858 C   0  0  0  0  0  0  0  0  0  0  0  0
   22.3899   -5.0267  -14.2453 C   0  0  0  0  0  0  0  0  0  0  0  0
   20.9784   -4.6029  -14.0045 C   0  0  2  0  0  0  0  0  0  0  0  0
   20.0749   -5.2703  -14.9613 N   0  0  0  0  0  0  0  0  0  0  0  0
   20.8211   -3.1609  -14.1997 C   0  0  0  0  0  0  0  0  0  0  0  0
   20.1362   -2.7158  -15.1449 O   0  0  0  0  0  0  0  0  0  0  0  0
   22.4849   -7.2128  -13.1002 C   0  0  0  0  0  0  0  0  0  0  0  0
   22.6151   -8.5873  -13.0850 C   0  0  0  0  0  0  0  0  0  0  0  0
   21.4226   -2.2644  -13.3441 O   0  0  0  0  0  0  0  0  0  0  0  0
  1  2  1  0
  2  3  1  0
  3  4  1  1
  5  3  1  0
  5  6  1  6
  7  5  1  0
  8  7  2  0
  9 10  1  0
 11 10  1  1
 11 12  1  0
 12  7  1  0
 13 22  1  0
 13 11  1  0
 14 13  2  0
 16 15  1  0
 17 16  2  0
 18 17  1  0
 19 25  1  0
 19 18  2  0
 21 20  1  6
 20 19  1  0
 21 22  1  0
 23 21  1  0
 24 23  2  0
 25 26  2  0
 26 16  1  0
 27 23  1  0
M  END
$$$$
