ISY.pdb
     RDKit          3D

 27 27  0  0  1  0  0  0  0  0999 V2000
   32.9872  -24.1119  -12.1117 C   0  0  0  0  0  0  0  0  0  0  0  0
   33.1463  -22.6691  -12.4528 C   0  0  0  0  0  0  0  0  0  0  0  0
   31.9722  -21.7963  -12.1829 C   0  0  2  0  0  0  0  0  0  0  0  0
   31.5371  -21.8302  -10.7311 C   0  0  0  0  0  0  0  0  0  0  0  0
   30.8041  -22.0214  -13.0799 C   0  0  2  0  0  0  0  0  0  0  0  0
   31.1591  -21.9442  -14.4625 N   0  0  0  0  0  0  0  0  0  0  0  0
   29.6738  -21.1043  -12.8042 C   0  0  0  0  0  0  0  0  0  0  0  0
   29.7309  -19.8773  -13.1663 O   0  0  0  0  0  0  0  0  0  0  0  0
   25.8743  -21.9242  -12.9111 O   0  0  0  0  0  0  0  0  0  0  0  0
   26.3761  -20.6597  -12.6949 C   0  0  0  0  0  0  0  0  0  0  0  0
   27.4883  -20.6483  -11.6440 C   0  0  2  0  0  0  0  0  0  0  0  0
   28.5283  -21.5559  -12.1457 N   0  0  0  0  0  0  0  0  0  0  0  0
   26.9810  -21.2513  -10.3651 C   0  0  0  0  0  0  0  0  0  0  0  0
   27.7282  -21.9470   -9.6252 O   0  0  0  0  0  0  0  0  0  0  0  0
   28.8594  -19.8553   -3.3243 O   0  0  0  0  0  0  0  0  0  0  0  0
   28.1802  -19.7217   -4.5270 C   0  0  0  0  0  0  0  0  0  0  0  0
   28.5482  -18.8106   -5.4941 C   0  0  0  0  0  0  0  0  0  0  0  0
   27.8547  -18.6892   -6.6974 C   0  0  0  0  0  0  0  0  0  0  0  0
   26.7622  -19.4887   -6.9620 C   0  0  0  0  0  0  0  0  0  0  0  0
   25.9979  -19.4027   -8.1921 C   0  0  0  0  0  0  0  0  0  0  0  0
   25.3471  -20.7014   -8.5386 C   0  0  2  0  0  0  0  0  0  0  0  0
   25.6419  -21.0625   -9.9385 N   0  0  0  0  0  0  0  0  0  0  0  0
   23.8914  -20.6099   -8.4162 C   0  0  0  0  0  0  0  0  0  0  0  0
   23.2109  -20.0475   -9.3000 O   0  0  0  0  0  0  0  0  0  0  0  0
   26.3990  -20.4093   -5.9728 C   0  0  0  0  0  0  0  0  0  0  0  0
   27.0896  -20.5252   -4.7828 C   0  0  0  0  0  0  0  0  0  0  0  0
   23.2412  -21.1441   -7.3257 O   0  0  0  0  0  0  0  0  0  0  0  0
  1  2  1  0
  2  3  1  0
  3  4  1  1
  5  3  1  0
  5  6  1  6
  7  5  1  0
  8  7  2  0
  9 10  1  0
 11 10  1  6
 11 12  1  0
 12  7  1  0
 13 22  1  0
 13 11  1  0
 14 13  2  0
 16 15  1  0
 17 16  2  0
 18 17  1  0
 19 25  1  0
 19 18  2  0
 21 20  1  6
 20 19  1  0
 21 22  1  0
 23 21  1  0
 24 23  2  0
 25 26  2  0
 26 16  1  0
 27 23  1  0
M  END
$$$$
