ISY.pdb
     RDKit          3D

 27 27  0  0  1  0  0  0  0  0999 V2000
   23.4238  -16.6062  -22.9194 C   0  0  0  0  0  0  0  0  0  0  0  0
   22.2053  -16.2815  -22.1236 C   0  0  0  0  0  0  0  0  0  0  0  0
   21.8355  -17.2544  -21.0607 C   0  0  2  0  0  0  0  0  0  0  0  0
   21.7193  -18.6741  -21.5794 C   0  0  0  0  0  0  0  0  0  0  0  0
   20.6262  -16.8902  -20.2704 C   0  0  2  0  0  0  0  0  0  0  0  0
   20.8134  -15.6921  -19.5135 N   0  0  0  0  0  0  0  0  0  0  0  0
   20.1670  -17.9778  -19.3755 C   0  0  0  0  0  0  0  0  0  0  0  0
   19.8892  -19.1344  -19.8499 O   0  0  0  0  0  0  0  0  0  0  0  0
   19.8095  -17.2006  -15.2914 O   0  0  0  0  0  0  0  0  0  0  0  0
   20.2444  -18.4376  -15.7139 C   0  0  0  0  0  0  0  0  0  0  0  0
   19.6476  -18.8320  -17.0666 C   0  0  2  0  0  0  0  0  0  0  0  0
   20.0268  -17.7655  -18.0025 N   0  0  0  0  0  0  0  0  0  0  0  0
   18.1479  -18.8086  -16.9830 C   0  0  0  0  0  0  0  0  0  0  0  0
   17.4999  -17.7340  -17.1062 O   0  0  0  0  0  0  0  0  0  0  0  0
    9.6738  -21.1273  -17.2091 O   0  0  0  0  0  0  0  0  0  0  0  0
   11.0564  -21.0690  -17.3121 C   0  0  0  0  0  0  0  0  0  0  0  0
   11.7071  -20.1459  -18.1028 C   0  0  0  0  0  0  0  0  0  0  0  0
   13.0975  -20.1010  -18.1951 C   0  0  0  0  0  0  0  0  0  0  0  0
   13.8773  -20.9924  -17.4877 C   0  0  0  0  0  0  0  0  0  0  0  0
   15.3268  -20.9984  -17.5497 C   0  0  0  0  0  0  0  0  0  0  0  0
   15.9285  -19.9444  -16.6795 C   0  0  2  0  0  0  0  0  0  0  0  0
   17.4008  -19.9934  -16.7624 N   0  0  0  0  0  0  0  0  0  0  0  0
   15.5702  -20.1531  -15.2758 C   0  0  0  0  0  0  0  0  0  0  0  0
   16.3269  -20.7892  -14.5119 O   0  0  0  0  0  0  0  0  0  0  0  0
   13.2050  -21.9240  -16.6890 C   0  0  0  0  0  0  0  0  0  0  0  0
   11.8277  -21.9637  -16.6013 C   0  0  0  0  0  0  0  0  0  0  0  0
   14.3930  -19.6505  -14.7669 O   0  0  0  0  0  0  0  0  0  0  0  0
  1  2  1  0
  2  3  1  0
  3  4  1  6
  5  3  1  0
  5  6  1  1
  7  5  1  0
  8  7  2  0
  9 10  1  0
 11 10  1  1
 11 12  1  0
 12  7  1  0
 13 22  1  0
 13 11  1  0
 14 13  2  0
 16 15  1  0
 17 16  2  0
 18 17  1  0
 19 25  1  0
 19 18  2  0
 21 20  1  6
 20 19  1  0
 21 22  1  0
 23 21  1  0
 24 23  2  0
 25 26  2  0
 26 16  1  0
 27 23  1  0
M  END
$$$$
