SKA.pdb
     RDKit          3D

 21 20  0  0  1  0  0  0  0  0999 V2000
   24.6642  -12.6820  -17.2818 O   0  0  0  0  0  0  0  0  0  0  0  0
   25.8137  -11.9044  -17.4166 C   0  0  0  0  0  0  0  0  0  0  0  0
   25.7826  -10.8238  -16.3389 C   0  0  2  0  0  0  0  0  0  0  0  0
   25.6926  -11.4316  -15.0319 N   0  0  0  0  0  0  0  0  0  0  0  0
   24.7263   -9.8357  -16.5919 C   0  0  0  0  0  0  0  0  0  0  0  0
   24.6576   -9.1261  -17.6265 O   0  0  0  0  0  0  0  0  0  0  0  0
   23.7174   -9.6635  -15.6160 N   0  0  0  0  0  0  0  0  0  0  0  0
   22.5693   -8.8109  -15.7874 C   0  0  1  0  0  0  0  0  0  0  0  0
   21.3817   -9.5093  -15.1738 C   0  0  0  0  0  0  0  0  0  0  0  0
   20.6792  -10.4434  -16.0966 C   0  0  0  0  0  0  0  0  0  0  0  0
   19.5498  -11.2069  -15.4520 C   0  0  0  0  0  0  0  0  0  0  0  0
   18.7346  -11.9868  -16.4223 C   0  0  0  0  0  0  0  0  0  0  0  0
   17.7928  -12.8901  -15.8158 N   0  0  0  0  0  0  0  0  0  0  0  0
   22.7500   -7.4877  -15.1386 C   0  0  0  0  0  0  0  0  0  0  0  0
   22.8957   -7.4155  -13.8912 O   0  0  0  0  0  0  0  0  0  0  0  0
   23.2043   -3.9262  -16.2973 C   0  0  0  0  0  0  0  0  0  0  0  0
   22.8900   -4.9686  -15.2414 C   0  0  2  0  0  0  0  0  0  0  0  0
   22.7699   -6.2590  -15.8549 N   0  0  0  0  0  0  0  0  0  0  0  0
   21.7525   -4.5993  -14.4031 C   0  0  0  0  0  0  0  0  0  0  0  0
   20.6058   -5.0154  -14.7063 O   0  0  0  0  0  0  0  0  0  0  0  0
   21.8620   -3.8033  -13.2729 O   0  0  0  0  0  0  0  0  0  0  0  0
  1  2  1  0
  2  3  1  0
  3  4  1  1
  5  3  1  0
  5  7  1  0
  6  5  2  0
  8  7  1  0
  8 14  1  0
  8  9  1  1
 10  9  1  0
 11 10  1  0
 12 11  1  0
 13 12  1  0
 14 15  2  0
 17 16  1  6
 17 19  1  0
 18 14  1  0
 18 17  1  0
 19 21  1  0
 20 19  2  0
M  END
$$$$
