SKA.pdb
     RDKit          3D

 21 20  0  0  1  0  0  0  0  0999 V2000
   23.0644  -21.4621  -11.2496 O   0  0  0  0  0  0  0  0  0  0  0  0
   24.2794  -22.0549  -11.5908 C   0  0  0  0  0  0  0  0  0  0  0  0
   25.3761  -21.0032  -11.4445 C   0  0  2  0  0  0  0  0  0  0  0  0
   25.4329  -20.5347  -10.0795 N   0  0  0  0  0  0  0  0  0  0  0  0
   25.2219  -19.9191  -12.4227 C   0  0  0  0  0  0  0  0  0  0  0  0
   24.6579  -18.8233  -12.1779 O   0  0  0  0  0  0  0  0  0  0  0  0
   25.7370  -20.1095  -13.7259 N   0  0  0  0  0  0  0  0  0  0  0  0
   25.7608  -19.0861  -14.7392 C   0  0  1  0  0  0  0  0  0  0  0  0
   27.0103  -19.2813  -15.5609 C   0  0  0  0  0  0  0  0  0  0  0  0
   27.1912  -18.2765  -16.6450 C   0  0  0  0  0  0  0  0  0  0  0  0
   28.4244  -18.4964  -17.4843 C   0  0  0  0  0  0  0  0  0  0  0  0
   28.6213  -17.4553  -18.5290 C   0  0  0  0  0  0  0  0  0  0  0  0
   29.7292  -17.7033  -19.4134 N   0  0  0  0  0  0  0  0  0  0  0  0
   24.5736  -19.1479  -15.6285 C   0  0  0  0  0  0  0  0  0  0  0  0
   24.2169  -20.2482  -16.1229 O   0  0  0  0  0  0  0  0  0  0  0  0
   21.9117  -16.7136  -16.7556 C   0  0  0  0  0  0  0  0  0  0  0  0
   22.6108  -18.0592  -16.7854 C   0  0  2  0  0  0  0  0  0  0  0  0
   23.7886  -18.0116  -15.9690 N   0  0  0  0  0  0  0  0  0  0  0  0
   22.8460  -18.5444  -18.1427 C   0  0  0  0  0  0  0  0  0  0  0  0
   23.9397  -18.2865  -18.7060 O   0  0  0  0  0  0  0  0  0  0  0  0
   21.9198  -19.2854  -18.8611 O   0  0  0  0  0  0  0  0  0  0  0  0
  1  2  1  0
  2  3  1  0
  3  4  1  1
  5  3  1  0
  5  7  1  0
  6  5  2  0
  8  7  1  0
  8 14  1  0
  8  9  1  6
 10  9  1  0
 11 10  1  0
 12 11  1  0
 13 12  1  0
 14 15  2  0
 17 16  1  6
 17 19  1  0
 18 14  1  0
 18 17  1  0
 19 21  1  0
 20 19  2  0
M  END
$$$$
