SKA.pdb
     RDKit          3D

 21 20  0  0  1  0  0  0  0  0999 V2000
   21.1475   -6.0668  -13.9986 O   0  0  0  0  0  0  0  0  0  0  0  0
   21.7568   -7.3209  -14.0119 C   0  0  0  0  0  0  0  0  0  0  0  0
   21.7845   -7.8177  -15.4550 C   0  0  2  0  0  0  0  0  0  0  0  0
   22.5029   -6.8806  -16.2867 N   0  0  0  0  0  0  0  0  0  0  0  0
   20.4355   -8.1167  -15.9518 C   0  0  0  0  0  0  0  0  0  0  0  0
   19.7896   -7.3717  -16.7306 O   0  0  0  0  0  0  0  0  0  0  0  0
   19.8142   -9.3163  -15.5336 N   0  0  0  0  0  0  0  0  0  0  0  0
   18.5715   -9.8084  -16.0703 C   0  0  1  0  0  0  0  0  0  0  0  0
   18.5819  -11.3118  -15.9507 C   0  0  0  0  0  0  0  0  0  0  0  0
   17.3639  -11.9757  -16.4922 C   0  0  0  0  0  0  0  0  0  0  0  0
   17.3809  -13.4787  -16.3718 C   0  0  0  0  0  0  0  0  0  0  0  0
   16.1507  -14.1276  -16.9005 C   0  0  0  0  0  0  0  0  0  0  0  0
   16.1424  -15.5625  -16.7917 N   0  0  0  0  0  0  0  0  0  0  0  0
   17.3933   -9.2664  -15.3476 C   0  0  0  0  0  0  0  0  0  0  0  0
   17.3764   -9.2625  -14.0897 O   0  0  0  0  0  0  0  0  0  0  0  0
   14.2837   -7.3517  -16.2366 C   0  0  0  0  0  0  0  0  0  0  0  0
   15.0731   -8.2702  -15.3237 C   0  0  2  0  0  0  0  0  0  0  0  0
   16.2476   -8.7352  -16.0022 N   0  0  0  0  0  0  0  0  0  0  0  0
   14.2558   -9.3355  -14.7492 C   0  0  0  0  0  0  0  0  0  0  0  0
   14.2903  -10.4815  -15.2646 O   0  0  0  0  0  0  0  0  0  0  0  0
   13.4291   -9.1570  -13.6502 O   0  0  0  0  0  0  0  0  0  0  0  0
  1  2  1  0
  2  3  1  0
  3  4  1  6
  5  3  1  0
  5  7  1  0
  6  5  2  0
  8  7  1  0
  8 14  1  0
  8  9  1  1
 10  9  1  0
 11 10  1  0
 12 11  1  0
 13 12  1  0
 14 15  2  0
 17 16  1  6
 17 19  1  0
 18 14  1  0
 18 17  1  0
 19 21  1  0
 20 19  2  0
M  END
$$$$
