SKA.pdb
     RDKit          3D

 21 20  0  0  1  0  0  0  0  0999 V2000
   12.7326  -13.5927  -12.8246 O   0  0  0  0  0  0  0  0  0  0  0  0
   13.5211  -13.6782  -13.9714 C   0  0  0  0  0  0  0  0  0  0  0  0
   14.8399  -12.9617  -13.6929 C   0  0  2  0  0  0  0  0  0  0  0  0
   15.4730  -13.5278  -12.5248 N   0  0  0  0  0  0  0  0  0  0  0  0
   14.6590  -11.5072  -13.6057 C   0  0  0  0  0  0  0  0  0  0  0  0
   14.1088  -10.8104  -14.4948 O   0  0  0  0  0  0  0  0  0  0  0  0
   15.1302  -10.8377  -12.4525 N   0  0  0  0  0  0  0  0  0  0  0  0
   14.9733   -9.4247  -12.2219 C   0  0  1  0  0  0  0  0  0  0  0  0
   14.6203   -9.2322  -10.7683 C   0  0  0  0  0  0  0  0  0  0  0  0
   13.1641   -9.3369  -10.4748 C   0  0  0  0  0  0  0  0  0  0  0  0
   12.8217   -9.1885   -9.0138 C   0  0  0  0  0  0  0  0  0  0  0  0
   11.3576   -9.1803   -8.7480 C   0  0  0  0  0  0  0  0  0  0  0  0
   11.0056   -8.9735   -7.3681 N   0  0  0  0  0  0  0  0  0  0  0  0
   16.2099   -8.6638  -12.5318 C   0  0  0  0  0  0  0  0  0  0  0  0
   17.2850   -8.9477  -11.9436 O   0  0  0  0  0  0  0  0  0  0  0  0
   17.7488   -6.9115  -15.2493 C   0  0  0  0  0  0  0  0  0  0  0  0
   17.4381   -6.8355  -13.7667 C   0  0  2  0  0  0  0  0  0  0  0  0
   16.2619   -7.6031  -13.4781 N   0  0  0  0  0  0  0  0  0  0  0  0
   17.3912   -5.4635  -13.2683 C   0  0  0  0  0  0  0  0  0  0  0  0
   16.2965   -4.9925  -12.8689 O   0  0  0  0  0  0  0  0  0  0  0  0
   18.5006   -4.6336  -13.2077 O   0  0  0  0  0  0  0  0  0  0  0  0
  1  2  1  0
  2  3  1  0
  3  4  1  1
  5  3  1  0
  5  7  1  0
  6  5  2  0
  8  7  1  0
  8 14  1  0
  8  9  1  1
 10  9  1  0
 11 10  1  0
 12 11  1  0
 13 12  1  0
 14 15  2  0
 17 16  1  6
 17 19  1  0
 18 14  1  0
 18 17  1  0
 19 21  1  0
 20 19  2  0
M  END
$$$$
