SKA.pdb
     RDKit          3D

 21 20  0  0  1  0  0  0  0  0999 V2000
    8.8890  -10.9100  -10.2541 O   0  0  0  0  0  0  0  0  0  0  0  0
   10.1722  -10.3844  -10.3995 C   0  0  0  0  0  0  0  0  0  0  0  0
   11.0986  -11.5142  -10.8416 C   0  0  2  0  0  0  0  0  0  0  0  0
   10.6534  -12.7675  -10.2785 N   0  0  0  0  0  0  0  0  0  0  0  0
   12.5039  -11.2119  -10.5426 C   0  0  0  0  0  0  0  0  0  0  0  0
   13.0736  -11.5043   -9.4615 O   0  0  0  0  0  0  0  0  0  0  0  0
   13.2746  -10.5498  -11.5263 N   0  0  0  0  0  0  0  0  0  0  0  0
   14.6310  -10.1095  -11.3242 C   0  0  1  0  0  0  0  0  0  0  0  0
   15.3564  -10.2352  -12.6404 C   0  0  0  0  0  0  0  0  0  0  0  0
   16.7911   -9.8398  -12.5869 C   0  0  0  0  0  0  0  0  0  0  0  0
   17.5062   -9.9491  -13.9099 C   0  0  0  0  0  0  0  0  0  0  0  0
   18.3537  -11.1668  -14.0246 C   0  0  0  0  0  0  0  0  0  0  0  0
   19.1499  -11.2258  -15.2218 N   0  0  0  0  0  0  0  0  0  0  0  0
   14.7014   -8.7020  -10.8571 C   0  0  0  0  0  0  0  0  0  0  0  0
   14.1675   -7.7881  -11.5369 O   0  0  0  0  0  0  0  0  0  0  0  0
   15.8592   -6.9659   -7.7132 C   0  0  0  0  0  0  0  0  0  0  0  0
   15.3569   -6.9663   -9.1443 C   0  0  2  0  0  0  0  0  0  0  0  0
   15.3518   -8.3058   -9.6557 N   0  0  0  0  0  0  0  0  0  0  0  0
   16.0619   -6.0079   -9.9913 C   0  0  0  0  0  0  0  0  0  0  0  0
   16.9167   -6.4266  -10.8122 O   0  0  0  0  0  0  0  0  0  0  0  0
   15.8420   -4.6395   -9.9445 O   0  0  0  0  0  0  0  0  0  0  0  0
  1  2  1  0
  2  3  1  0
  3  4  1  1
  5  3  1  0
  5  7  1  0
  6  5  2  0
  8  7  1  0
  8 14  1  0
  8  9  1  6
 10  9  1  0
 11 10  1  0
 12 11  1  0
 13 12  1  0
 14 15  2  0
 17 16  1  1
 17 19  1  0
 18 14  1  0
 18 17  1  0
 19 21  1  0
 20 19  2  0
M  END
$$$$
