SKA.pdb
     RDKit          3D

 21 20  0  0  1  0  0  0  0  0999 V2000
   27.5600  -14.4774  -16.2329 O   0  0  0  0  0  0  0  0  0  0  0  0
   26.6285  -13.9260  -17.1119 C   0  0  0  0  0  0  0  0  0  0  0  0
   27.1538  -12.5664  -17.5654 C   0  0  2  0  0  0  0  0  0  0  0  0
   27.4289  -11.7346  -16.4172 N   0  0  0  0  0  0  0  0  0  0  0  0
   26.2527  -11.9332  -18.5365 C   0  0  0  0  0  0  0  0  0  0  0  0
   26.3918  -12.0113  -19.7828 O   0  0  0  0  0  0  0  0  0  0  0  0
   25.1554  -11.1858  -18.0494 N   0  0  0  0  0  0  0  0  0  0  0  0
   24.1910  -10.5287  -18.8936 C   0  0  1  0  0  0  0  0  0  0  0  0
   22.8208  -10.8020  -18.3260 C   0  0  0  0  0  0  0  0  0  0  0  0
   22.0407  -11.8230  -19.0788 C   0  0  0  0  0  0  0  0  0  0  0  0
   20.6680  -12.0850  -18.5124 C   0  0  0  0  0  0  0  0  0  0  0  0
   19.8803  -13.0685  -19.3038 C   0  0  0  0  0  0  0  0  0  0  0  0
   18.5330  -13.2636  -18.8371 N   0  0  0  0  0  0  0  0  0  0  0  0
   24.4107   -9.0620  -18.9621 C   0  0  0  0  0  0  0  0  0  0  0  0
   24.5672   -8.4012  -17.9032 O   0  0  0  0  0  0  0  0  0  0  0  0
   25.3135   -6.6027  -21.6322 C   0  0  0  0  0  0  0  0  0  0  0  0
   24.7262   -6.9263  -20.2718 C   0  0  2  0  0  0  0  0  0  0  0  0
   24.4576   -8.3319  -20.1819 N   0  0  0  0  0  0  0  0  0  0  0  0
   23.5864   -6.0789  -19.9318 C   0  0  0  0  0  0  0  0  0  0  0  0
   22.4216   -6.5229  -20.0933 O   0  0  0  0  0  0  0  0  0  0  0  0
   23.7127   -4.7913  -19.4327 O   0  0  0  0  0  0  0  0  0  0  0  0
  1  2  1  0
  2  3  1  0
  3  4  1  1
  5  3  1  0
  5  7  1  0
  6  5  2  0
  8  7  1  0
  8 14  1  0
  8  9  1  1
 10  9  1  0
 11 10  1  0
 12 11  1  0
 13 12  1  0
 14 15  2  0
 17 16  1  6
 17 19  1  0
 18 14  1  0
 18 17  1  0
 19 21  1  0
 20 19  2  0
M  END
$$$$
