SKA.pdb
     RDKit          3D

 21 20  0  0  1  0  0  0  0  0999 V2000
   27.2022  -25.8132  -18.5810 O   0  0  0  0  0  0  0  0  0  0  0  0
   27.8240  -24.5658  -18.5427 C   0  0  0  0  0  0  0  0  0  0  0  0
   28.3804  -24.3580  -17.1364 C   0  0  2  0  0  0  0  0  0  0  0  0
   29.1163  -25.5281  -16.7180 N   0  0  0  0  0  0  0  0  0  0  0  0
   27.3288  -23.9662  -16.1895 C   0  0  0  0  0  0  0  0  0  0  0  0
   27.2962  -24.3221  -14.9849 O   0  0  0  0  0  0  0  0  0  0  0  0
   26.2815  -23.1358  -16.6516 N   0  0  0  0  0  0  0  0  0  0  0  0
   25.2778  -22.5555  -15.7970 C   0  0  1  0  0  0  0  0  0  0  0  0
   24.8859  -21.2236  -16.3861 C   0  0  0  0  0  0  0  0  0  0  0  0
   24.7418  -20.1316  -15.3840 C   0  0  0  0  0  0  0  0  0  0  0  0
   24.3470  -18.8032  -15.9783 C   0  0  0  0  0  0  0  0  0  0  0  0
   22.8760  -18.5802  -16.0015 C   0  0  0  0  0  0  0  0  0  0  0  0
   22.4782  -17.2941  -16.5102 N   0  0  0  0  0  0  0  0  0  0  0  0
   24.0728  -23.4150  -15.6813 C   0  0  0  0  0  0  0  0  0  0  0  0
   23.5842  -23.9516  -16.7088 O   0  0  0  0  0  0  0  0  0  0  0  0
   22.1871  -25.0461  -12.8817 C   0  0  0  0  0  0  0  0  0  0  0  0
   22.2784  -24.5449  -14.3103 C   0  0  2  0  0  0  0  0  0  0  0  0
   23.4139  -23.6805  -14.4490 N   0  0  0  0  0  0  0  0  0  0  0  0
   21.0259  -23.9644  -14.7871 C   0  0  0  0  0  0  0  0  0  0  0  0
   20.9203  -22.7146  -14.8684 O   0  0  0  0  0  0  0  0  0  0  0  0
   19.9263  -24.7213  -15.1624 O   0  0  0  0  0  0  0  0  0  0  0  0
  1  2  1  0
  2  3  1  0
  3  4  1  1
  5  3  1  0
  5  7  1  0
  6  5  2  0
  8  7  1  0
  8 14  1  0
  8  9  1  6
 10  9  1  0
 11 10  1  0
 12 11  1  0
 13 12  1  0
 14 15  2  0
 17 16  1  1
 17 19  1  0
 18 14  1  0
 18 17  1  0
 19 21  1  0
 20 19  2  0
M  END
$$$$
