SKA.pdb
     RDKit          3D

 21 20  0  0  1  0  0  0  0  0999 V2000
   16.5997  -13.3313  -14.6223 O   0  0  0  0  0  0  0  0  0  0  0  0
   17.5639  -12.3326  -14.7538 C   0  0  0  0  0  0  0  0  0  0  0  0
   17.9455  -12.2353  -16.2286 C   0  0  2  0  0  0  0  0  0  0  0  0
   18.4923  -13.4929  -16.6818 N   0  0  0  0  0  0  0  0  0  0  0  0
   18.8312  -11.0928  -16.4855 C   0  0  0  0  0  0  0  0  0  0  0  0
   20.0784  -11.1812  -16.6094 O   0  0  0  0  0  0  0  0  0  0  0  0
   18.2549   -9.8067  -16.6027 N   0  0  0  0  0  0  0  0  0  0  0  0
   19.0085   -8.6081  -16.8671 C   0  0  1  0  0  0  0  0  0  0  0  0
   18.0514   -7.5703  -17.3974 C   0  0  0  0  0  0  0  0  0  0  0  0
   17.4984   -7.8816  -18.7445 C   0  0  0  0  0  0  0  0  0  0  0  0
   16.4627   -6.8961  -19.2240 C   0  0  0  0  0  0  0  0  0  0  0  0
   15.8470   -7.2724  -20.5254 C   0  0  0  0  0  0  0  0  0  0  0  0
   14.7762   -6.4088  -20.9476 N   0  0  0  0  0  0  0  0  0  0  0  0
   19.6761   -8.0838  -15.6490 C   0  0  0  0  0  0  0  0  0  0  0  0
   19.0023   -7.8648  -14.6096 O   0  0  0  0  0  0  0  0  0  0  0  0
   23.0758   -8.0108  -14.2517 C   0  0  0  0  0  0  0  0  0  0  0  0
   21.7349   -7.3184  -14.4034 C   0  0  2  0  0  0  0  0  0  0  0  0
   21.0689   -7.8040  -15.5766 N   0  0  0  0  0  0  0  0  0  0  0  0
   21.8390   -5.8632  -14.3366 C   0  0  0  0  0  0  0  0  0  0  0  0
   21.6401   -5.1852  -15.3761 O   0  0  0  0  0  0  0  0  0  0  0  0
   22.1495   -5.1712  -13.1756 O   0  0  0  0  0  0  0  0  0  0  0  0
  1  2  1  0
  2  3  1  0
  3  4  1  1
  5  3  1  0
  5  7  1  0
  6  5  2  0
  8  7  1  0
  8 14  1  0
  8  9  1  1
 10  9  1  0
 11 10  1  0
 12 11  1  0
 13 12  1  0
 14 15  2  0
 17 16  1  6
 17 19  1  0
 18 14  1  0
 18 17  1  0
 19 21  1  0
 20 19  2  0
M  END
$$$$
