SKA.pdb
     RDKit          3D

 21 20  0  0  1  0  0  0  0  0999 V2000
   15.4692  -26.3889   -5.1734 O   0  0  0  0  0  0  0  0  0  0  0  0
   16.0122  -25.5384   -6.1357 C   0  0  0  0  0  0  0  0  0  0  0  0
   17.5201  -25.7724   -6.1765 C   0  0  2  0  0  0  0  0  0  0  0  0
   18.1365  -25.2332   -4.9869 N   0  0  0  0  0  0  0  0  0  0  0  0
   18.1147  -25.2625   -7.4185 C   0  0  0  0  0  0  0  0  0  0  0  0
   18.5315  -24.0869   -7.5700 O   0  0  0  0  0  0  0  0  0  0  0  0
   18.2305  -26.1415   -8.5203 N   0  0  0  0  0  0  0  0  0  0  0  0
   18.8063  -25.7717   -9.7877 C   0  0  1  0  0  0  0  0  0  0  0  0
   19.4298  -27.0069  -10.3877 C   0  0  0  0  0  0  0  0  0  0  0  0
   20.0901  -26.7799  -11.7030 C   0  0  0  0  0  0  0  0  0  0  0  0
   20.6681  -28.0278  -12.3214 C   0  0  0  0  0  0  0  0  0  0  0  0
   21.2436  -27.8041  -13.6753 C   0  0  0  0  0  0  0  0  0  0  0  0
   21.8907  -28.9571  -14.2435 N   0  0  0  0  0  0  0  0  0  0  0  0
   17.7942  -25.2265  -10.7271 C   0  0  0  0  0  0  0  0  0  0  0  0
   16.6820  -25.8006  -10.8533 O   0  0  0  0  0  0  0  0  0  0  0  0
   17.3296  -21.9893  -12.5525 C   0  0  0  0  0  0  0  0  0  0  0  0
   17.0009  -23.4549  -12.3421 C   0  0  2  0  0  0  0  0  0  0  0  0
   18.0043  -24.0631  -11.5181 N   0  0  0  0  0  0  0  0  0  0  0  0
   16.7482  -24.1632  -13.5941 C   0  0  0  0  0  0  0  0  0  0  0  0
   17.6475  -24.8969  -14.0765 O   0  0  0  0  0  0  0  0  0  0  0  0
   15.5555  -24.0742  -14.2958 O   0  0  0  0  0  0  0  0  0  0  0  0
  1  2  1  0
  2  3  1  0
  3  4  1  1
  5  3  1  0
  5  7  1  0
  6  5  2  0
  8  7  1  0
  8 14  1  0
  8  9  1  6
 10  9  1  0
 11 10  1  0
 12 11  1  0
 13 12  1  0
 14 15  2  0
 17 16  1  6
 17 19  1  0
 18 14  1  0
 18 17  1  0
 19 21  1  0
 20 19  2  0
M  END
$$$$
