SKA.pdb
     RDKit          3D

 21 20  0  0  1  0  0  0  0  0999 V2000
   21.2661  -10.9443    5.3381 O   0  0  0  0  0  0  0  0  0  0  0  0
   20.7724  -11.8761    6.2504 C   0  0  0  0  0  0  0  0  0  0  0  0
   19.2641  -11.9871    6.0433 C   0  0  2  0  0  0  0  0  0  0  0  0
   18.6138  -10.7762    6.4869 N   0  0  0  0  0  0  0  0  0  0  0  0
   18.7187  -13.1991    6.6673 C   0  0  0  0  0  0  0  0  0  0  0  0
   18.3542  -13.2715    7.8675 O   0  0  0  0  0  0  0  0  0  0  0  0
   18.5909  -14.3647    5.8766 N   0  0  0  0  0  0  0  0  0  0  0  0
   18.0811  -15.6188    6.3684 C   0  0  1  0  0  0  0  0  0  0  0  0
   17.5174  -16.3786    5.1939 C   0  0  0  0  0  0  0  0  0  0  0  0
   16.8939  -17.6824    5.5528 C   0  0  0  0  0  0  0  0  0  0  0  0
   16.3917  -18.4679    4.3676 C   0  0  0  0  0  0  0  0  0  0  0  0
   15.7106  -19.7359    4.7450 C   0  0  0  0  0  0  0  0  0  0  0  0
   15.3024  -20.5461    3.6279 N   0  0  0  0  0  0  0  0  0  0  0  0
   19.1340  -16.4360    7.0224 C   0  0  0  0  0  0  0  0  0  0  0  0
   20.2432  -16.6020    6.4528 O   0  0  0  0  0  0  0  0  0  0  0  0
   19.7241  -17.9023   10.4211 C   0  0  0  0  0  0  0  0  0  0  0  0
   19.9621  -17.8769    8.9234 C   0  0  2  0  0  0  0  0  0  0  0  0
   18.9673  -17.0627    8.2884 N   0  0  0  0  0  0  0  0  0  0  0  0
   20.0938  -19.2132    8.3490 C   0  0  0  0  0  0  0  0  0  0  0  0
   19.1109  -19.7267    7.7574 O   0  0  0  0  0  0  0  0  0  0  0  0
   21.2579  -19.9638    8.4176 O   0  0  0  0  0  0  0  0  0  0  0  0
  1  2  1  0
  2  3  1  0
  3  4  1  1
  5  3  1  0
  5  7  1  0
  6  5  2  0
  8  7  1  0
  8 14  1  0
  8  9  1  6
 10  9  1  0
 11 10  1  0
 12 11  1  0
 13 12  1  0
 14 15  2  0
 17 16  1  1
 17 19  1  0
 18 14  1  0
 18 17  1  0
 19 21  1  0
 20 19  2  0
M  END
$$$$
