GWC.pdb
     RDKit          3D

 25 26  0  0  1  0  0  0  0  0999 V2000
   26.5245  -24.6316  -16.3488 N   0  0  0  0  0  0  0  0  0  0  0  0
   27.1363  -23.5072  -15.6954 C   0  0  0  0  0  0  0  0  0  0  0  0
   26.2307  -23.0074  -14.6157 C   0  0  0  0  0  0  0  0  0  0  0  0
   25.4174  -23.7998  -14.1010 O   0  0  0  0  0  0  0  0  0  0  0  0
   26.3100  -21.6507  -14.1986 N   0  0  0  0  0  0  0  0  0  0  0  0
   25.5026  -21.1926  -13.1083 C   0  0  1  0  0  0  0  0  0  0  0  0
   26.1027  -20.0057  -12.3736 C   0  0  0  0  0  0  0  0  0  0  0  0
   27.1822  -20.3824  -11.4687 C   0  0  0  0  0  0  0  0  0  0  0  0
   28.4322  -20.8445  -11.7991 C   0  0  0  0  0  0  0  0  0  0  0  0
   29.1263  -21.0762  -10.6499 N   0  0  0  0  0  0  0  0  0  0  0  0
   28.3396  -20.7702   -9.6167 C   0  0  0  0  0  0  0  0  0  0  0  0
   28.5127  -20.8078   -8.2499 C   0  0  0  0  0  0  0  0  0  0  0  0
   27.5114  -20.4258   -7.3723 C   0  0  0  0  0  0  0  0  0  0  0  0
   26.2958  -19.9914   -7.8620 C   0  0  0  0  0  0  0  0  0  0  0  0
   26.1298  -19.9564   -9.2137 C   0  0  0  0  0  0  0  0  0  0  0  0
   27.1232  -20.3353  -10.0945 C   0  0  0  0  0  0  0  0  0  0  0  0
   24.1482  -20.7650  -13.5360 C   0  0  0  0  0  0  0  0  0  0  0  0
   24.0650  -19.9293  -14.4472 O   0  0  0  0  0  0  0  0  0  0  0  0
   23.0091  -21.2915  -12.9261 N   0  0  0  0  0  0  0  0  0  0  0  0
   21.6524  -20.9925  -13.2346 C   0  0  1  0  0  0  0  0  0  0  0  0
   20.7944  -22.2291  -13.2841 C   0  0  0  0  0  0  0  0  0  0  0  0
   21.5880  -23.3736  -14.4647 S   0  0  0  0  0  0  0  0  0  0  0  0
   21.0100  -19.9503  -12.3856 C   0  0  0  0  0  0  0  0  0  0  0  0
   19.7120  -19.5985  -12.7888 O   0  0  0  0  0  0  0  0  0  0  0  0
   21.5043  -19.3960  -11.4004 O   0  0  0  0  0  0  0  0  0  0  0  0
  1  2  1  0
  2  3  1  0
  3  4  2  0
  5  3  1  0
  6  5  1  0
  6  7  1  6
  8  7  1  0
  8 16  1  0
  9 10  1  0
  9  8  2  0
 10 11  1  0
 11 16  2  0
 11 12  1  0
 12 13  2  0
 13 14  1  0
 15 14  2  0
 16 15  1  0
 17  6  1  0
 18 17  2  0
 19 17  1  0
 20 19  1  0
 20 23  1  0
 20 21  1  1
 22 21  1  0
 23 25  2  0
 23 24  1  0
M  END
$$$$
