GWC.pdb
     RDKit          3D

 25 26  0  0  1  0  0  0  0  0999 V2000
   26.5356  -17.5669  -17.1433 N   0  0  0  0  0  0  0  0  0  0  0  0
   25.5894  -17.4163  -16.0720 C   0  0  0  0  0  0  0  0  0  0  0  0
   24.9873  -18.7467  -15.7509 C   0  0  0  0  0  0  0  0  0  0  0  0
   25.4207  -19.7580  -16.3372 O   0  0  0  0  0  0  0  0  0  0  0  0
   23.9407  -18.8361  -14.7930 N   0  0  0  0  0  0  0  0  0  0  0  0
   23.3104  -20.0972  -14.5425 C   0  0  1  0  0  0  0  0  0  0  0  0
   23.0979  -20.3796  -13.0648 C   0  0  0  0  0  0  0  0  0  0  0  0
   24.3471  -20.5232  -12.3268 C   0  0  0  0  0  0  0  0  0  0  0  0
   25.6259  -20.4899  -12.8258 C   0  0  0  0  0  0  0  0  0  0  0  0
   26.4984  -20.6645  -11.7941 N   0  0  0  0  0  0  0  0  0  0  0  0
   25.7943  -20.8051  -10.6697 C   0  0  0  0  0  0  0  0  0  0  0  0
   26.1435  -21.0052   -9.3515 C   0  0  0  0  0  0  0  0  0  0  0  0
   25.1938  -21.1201   -8.3497 C   0  0  0  0  0  0  0  0  0  0  0  0
   23.8514  -21.0349   -8.6609 C   0  0  0  0  0  0  0  0  0  0  0  0
   23.5116  -20.8374   -9.9653 C   0  0  0  0  0  0  0  0  0  0  0  0
   24.4524  -20.7216  -10.9690 C   0  0  0  0  0  0  0  0  0  0  0  0
   21.9733  -20.2073  -15.1751 C   0  0  0  0  0  0  0  0  0  0  0  0
   21.2473  -19.2031  -15.1744 O   0  0  0  0  0  0  0  0  0  0  0  0
   21.5537  -21.4073  -15.7502 N   0  0  0  0  0  0  0  0  0  0  0  0
   20.4086  -21.6143  -16.5692 C   0  0  1  0  0  0  0  0  0  0  0  0
   20.6531  -21.2150  -18.0005 C   0  0  0  0  0  0  0  0  0  0  0  0
   20.2672  -19.4347  -18.1237 S   0  0  0  0  0  0  0  0  0  0  0  0
   19.8058  -22.9754  -16.5071 C   0  0  0  0  0  0  0  0  0  0  0  0
   18.5899  -23.0990  -17.1982 O   0  0  0  0  0  0  0  0  0  0  0  0
   20.2681  -23.9592  -15.9237 O   0  0  0  0  0  0  0  0  0  0  0  0
  1  2  1  0
  2  3  1  0
  3  4  2  0
  5  3  1  0
  6  5  1  0
  6  7  1  1
  8  7  1  0
  8 16  1  0
  9 10  1  0
  9  8  2  0
 10 11  1  0
 11 16  2  0
 11 12  1  0
 12 13  2  0
 13 14  1  0
 15 14  2  0
 16 15  1  0
 17  6  1  0
 18 17  2  0
 19 17  1  0
 20 19  1  0
 20 23  1  0
 20 21  1  6
 22 21  1  0
 23 25  2  0
 23 24  1  0
M  END
$$$$
