GWC.pdb
     RDKit          3D

 25 26  0  0  1  0  0  0  0  0999 V2000
   29.3380  -22.7003  -14.7781 N   0  0  0  0  0  0  0  0  0  0  0  0
   28.8615  -21.3796  -14.4708 C   0  0  0  0  0  0  0  0  0  0  0  0
   27.9949  -21.4355  -13.2535 C   0  0  0  0  0  0  0  0  0  0  0  0
   26.9074  -22.0416  -13.3193 O   0  0  0  0  0  0  0  0  0  0  0  0
   28.4200  -20.8025  -12.0538 N   0  0  0  0  0  0  0  0  0  0  0  0
   27.5332  -20.7349  -10.9315 C   0  0  1  0  0  0  0  0  0  0  0  0
   28.1753  -20.1306   -9.6941 C   0  0  0  0  0  0  0  0  0  0  0  0
   27.4041  -20.3662   -8.4794 C   0  0  0  0  0  0  0  0  0  0  0  0
   26.1212  -20.8452   -8.3788 C   0  0  0  0  0  0  0  0  0  0  0  0
   25.7855  -20.9117   -7.0600 N   0  0  0  0  0  0  0  0  0  0  0  0
   26.8260  -20.4867   -6.3413 C   0  0  0  0  0  0  0  0  0  0  0  0
   27.0478  -20.3416   -4.9887 C   0  0  0  0  0  0  0  0  0  0  0  0
   28.2489  -19.8666   -4.4885 C   0  0  0  0  0  0  0  0  0  0  0  0
   29.2672  -19.5223   -5.3548 C   0  0  0  0  0  0  0  0  0  0  0  0
   29.0429  -19.6672   -6.6907 C   0  0  0  0  0  0  0  0  0  0  0  0
   27.8486  -20.1403   -7.1966 C   0  0  0  0  0  0  0  0  0  0  0  0
   26.3239  -19.9199  -11.2027 C   0  0  0  0  0  0  0  0  0  0  0  0
   26.4770  -18.8221  -11.7566 O   0  0  0  0  0  0  0  0  0  0  0  0
   25.0578  -20.3819  -10.8418 N   0  0  0  0  0  0  0  0  0  0  0  0
   23.8499  -20.2473  -11.5822 C   0  0  1  0  0  0  0  0  0  0  0  0
   23.9403  -20.8920  -12.9401 C   0  0  0  0  0  0  0  0  0  0  0  0
   24.4873  -19.5953  -14.1032 S   0  0  0  0  0  0  0  0  0  0  0  0
   22.6096  -20.6852  -10.8826 C   0  0  0  0  0  0  0  0  0  0  0  0
   21.4255  -20.4181  -11.5881 O   0  0  0  0  0  0  0  0  0  0  0  0
   22.5416  -21.2392   -9.7824 O   0  0  0  0  0  0  0  0  0  0  0  0
  1  2  1  0
  2  3  1  0
  3  4  2  0
  5  3  1  0
  6  5  1  0
  6  7  1  1
  8  7  1  0
  8 16  1  0
  9 10  1  0
  9  8  2  0
 10 11  1  0
 11 16  2  0
 11 12  1  0
 12 13  2  0
 13 14  1  0
 15 14  2  0
 16 15  1  0
 17  6  1  0
 18 17  2  0
 19 17  1  0
 20 19  1  0
 20 23  1  0
 20 21  1  6
 22 21  1  0
 23 25  2  0
 23 24  1  0
M  END
$$$$
