GKV.pdb
     RDKit          3D

 21 20  0  0  1  0  0  0  0  0999 V2000
   19.0983  -19.3666  -15.6373 N   0  0  0  0  0  0  0  0  0  0  0  0
   20.4603  -18.9850  -15.8357 C   0  0  0  0  0  0  0  0  0  0  0  0
   21.3940  -19.9539  -15.2101 C   0  0  0  0  0  0  0  0  0  0  0  0
   21.1952  -20.3074  -14.0181 O   0  0  0  0  0  0  0  0  0  0  0  0
   22.5063  -20.5192  -15.8589 N   0  0  0  0  0  0  0  0  0  0  0  0
   23.4222  -21.3798  -15.1935 C   0  0  1  0  0  0  0  0  0  0  0  0
   24.1598  -22.3255  -16.1076 C   0  0  0  0  0  0  0  0  0  0  0  0
   25.0599  -23.2713  -15.3690 C   0  0  0  0  0  0  0  0  0  0  0  0
   25.8238  -24.1852  -16.3008 C   0  0  0  0  0  0  0  0  0  0  0  0
   25.1690  -25.5476  -16.3565 C   0  0  0  0  0  0  0  0  0  0  0  0
   25.9010  -26.4381  -17.2551 N   0  0  0  0  0  0  0  0  0  0  0  0
   24.3612  -20.6471  -14.2926 C   0  0  0  0  0  0  0  0  0  0  0  0
   24.8146  -19.5550  -14.7163 O   0  0  0  0  0  0  0  0  0  0  0  0
   26.2402  -19.9786   -9.7168 C   0  0  0  0  0  0  0  0  0  0  0  0
   25.5572  -20.8681  -10.7035 C   0  0  2  0  0  0  0  0  0  0  0  0
   26.0932  -22.2813  -10.6985 C   0  0  0  0  0  0  0  0  0  0  0  0
   25.5825  -20.3192  -12.1102 C   0  0  2  0  0  0  0  0  0  0  0  0
   24.7694  -21.0842  -13.0218 N   0  0  0  0  0  0  0  0  0  0  0  0
   26.9910  -20.3213  -12.5891 C   0  0  0  0  0  0  0  0  0  0  0  0
   27.4686  -21.3198  -13.1911 O   0  0  0  0  0  0  0  0  0  0  0  0
   27.8463  -19.2408  -12.4031 O   0  0  0  0  0  0  0  0  0  0  0  0
  2  1  1  0
  3  2  1  0
  4  3  2  0
  5  3  1  0
  6  5  1  0
  6 12  1  0
  6  7  1  6
  8  7  1  0
  9  8  1  0
  9 10  1  0
 10 11  1  0
 12 13  2  0
 15 14  1  1
 16 15  1  0
 17 15  1  0
 18 12  1  0
 17 18  1  6
 19 21  1  0
 19 17  1  0
 20 19  2  0
M  END
$$$$
