GKV.pdb
     RDKit          3D

 21 20  0  0  1  0  0  0  0  0999 V2000
   23.9662  -16.1835  -17.6712 N   0  0  0  0  0  0  0  0  0  0  0  0
   24.5562  -16.2267  -16.3712 C   0  0  0  0  0  0  0  0  0  0  0  0
   24.8569  -17.6191  -15.9556 C   0  0  0  0  0  0  0  0  0  0  0  0
   23.9021  -18.3867  -15.6648 O   0  0  0  0  0  0  0  0  0  0  0  0
   26.1521  -18.1585  -15.8595 N   0  0  0  0  0  0  0  0  0  0  0  0
   26.3901  -19.5123  -15.4952 C   0  0  1  0  0  0  0  0  0  0  0  0
   27.6894  -20.0745  -16.0147 C   0  0  0  0  0  0  0  0  0  0  0  0
   27.8272  -21.5488  -15.7747 C   0  0  0  0  0  0  0  0  0  0  0  0
   29.0720  -22.1223  -16.4137 C   0  0  0  0  0  0  0  0  0  0  0  0
   29.1628  -23.6090  -16.1495 C   0  0  0  0  0  0  0  0  0  0  0  0
   30.4168  -24.1519  -16.6680 N   0  0  0  0  0  0  0  0  0  0  0  0
   26.2356  -19.7576  -14.0303 C   0  0  0  0  0  0  0  0  0  0  0  0
   26.9887  -19.1053  -13.2653 O   0  0  0  0  0  0  0  0  0  0  0  0
   23.0566  -22.2523  -12.2126 C   0  0  0  0  0  0  0  0  0  0  0  0
   23.6145  -20.9610  -11.7102 C   0  0  2  0  0  0  0  0  0  0  0  0
   22.8361  -19.7547  -12.1829 C   0  0  0  0  0  0  0  0  0  0  0  0
   25.0780  -20.7826  -12.0374 C   0  0  2  0  0  0  0  0  0  0  0  0
   25.3212  -20.6533  -13.4521 N   0  0  0  0  0  0  0  0  0  0  0  0
   25.8218  -21.9614  -11.5175 C   0  0  0  0  0  0  0  0  0  0  0  0
   26.2464  -22.8547  -12.2980 O   0  0  0  0  0  0  0  0  0  0  0  0
   26.0865  -22.1420  -10.1644 O   0  0  0  0  0  0  0  0  0  0  0  0
  2  1  1  0
  3  2  1  0
  4  3  2  0
  5  3  1  0
  6  5  1  0
  6 12  1  0
  6  7  1  1
  8  7  1  0
  9  8  1  0
  9 10  1  0
 10 11  1  0
 12 13  2  0
 15 14  1  6
 16 15  1  0
 17 15  1  0
 18 12  1  0
 17 18  1  6
 19 21  1  0
 19 17  1  0
 20 19  2  0
M  END
$$$$
