GKV.pdb
     RDKit          3D

 21 20  0  0  1  0  0  0  0  0999 V2000
   28.3645  -18.3696  -16.7265 N   0  0  0  0  0  0  0  0  0  0  0  0
   27.6311  -18.0964  -15.5317 C   0  0  0  0  0  0  0  0  0  0  0  0
   26.5471  -19.0873  -15.3195 C   0  0  0  0  0  0  0  0  0  0  0  0
   25.6893  -19.2538  -16.2260 O   0  0  0  0  0  0  0  0  0  0  0  0
   26.4010  -19.8705  -14.1607 N   0  0  0  0  0  0  0  0  0  0  0  0
   25.3316  -20.7928  -13.9924 C   0  0  1  0  0  0  0  0  0  0  0  0
   25.6085  -21.8869  -12.9923 C   0  0  0  0  0  0  0  0  0  0  0  0
   24.5470  -22.9466  -12.9746 C   0  0  0  0  0  0  0  0  0  0  0  0
   24.3940  -23.6309  -14.3144 C   0  0  0  0  0  0  0  0  0  0  0  0
   23.2340  -24.6011  -14.2811 C   0  0  0  0  0  0  0  0  0  0  0  0
   23.6860  -25.9362  -13.8945 N   0  0  0  0  0  0  0  0  0  0  0  0
   24.0231  -20.1253  -13.7237 C   0  0  0  0  0  0  0  0  0  0  0  0
   23.9432  -19.4395  -12.6742 O   0  0  0  0  0  0  0  0  0  0  0  0
   19.8502  -18.0532  -15.2302 C   0  0  0  0  0  0  0  0  0  0  0  0
   21.1096  -18.8075  -15.5059 C   0  0  2  0  0  0  0  0  0  0  0  0
   20.9840  -19.7678  -16.6663 C   0  0  0  0  0  0  0  0  0  0  0  0
   21.6372  -19.5392  -14.2946 C   0  0  2  0  0  0  0  0  0  0  0  0
   22.8889  -20.2070  -14.5481 N   0  0  0  0  0  0  0  0  0  0  0  0
   20.6223  -20.5422  -13.8739 C   0  0  0  0  0  0  0  0  0  0  0  0
   20.7514  -21.7590  -14.1745 O   0  0  0  0  0  0  0  0  0  0  0  0
   19.4930  -20.2009  -13.1378 O   0  0  0  0  0  0  0  0  0  0  0  0
  2  1  1  0
  3  2  1  0
  4  3  2  0
  5  3  1  0
  6  5  1  0
  6 12  1  0
  6  7  1  1
  8  7  1  0
  9  8  1  0
  9 10  1  0
 10 11  1  0
 12 13  2  0
 15 14  1  1
 16 15  1  0
 17 15  1  0
 18 12  1  0
 17 18  1  6
 19 21  1  0
 19 17  1  0
 20 19  2  0
M  END
$$$$
