GKV.pdb
     RDKit          3D

 21 20  0  0  1  0  0  0  0  0999 V2000
   26.2882  -18.1328  -16.3842 N   0  0  0  0  0  0  0  0  0  0  0  0
   25.6924  -17.4672  -15.2697 C   0  0  0  0  0  0  0  0  0  0  0  0
   24.9865  -16.2307  -15.6876 C   0  0  0  0  0  0  0  0  0  0  0  0
   25.4971  -15.5134  -16.5875 O   0  0  0  0  0  0  0  0  0  0  0  0
   23.7665  -15.7892  -15.1449 N   0  0  0  0  0  0  0  0  0  0  0  0
   23.0853  -14.6401  -15.6328 C   0  0  1  0  0  0  0  0  0  0  0  0
   21.5837  -14.7754  -15.6611 C   0  0  0  0  0  0  0  0  0  0  0  0
   21.1146  -15.9212  -16.5079 C   0  0  0  0  0  0  0  0  0  0  0  0
   19.8958  -16.6039  -15.9290 C   0  0  0  0  0  0  0  0  0  0  0  0
   19.4693  -17.7570  -16.8103 C   0  0  0  0  0  0  0  0  0  0  0  0
   18.3174  -18.4496  -16.2363 N   0  0  0  0  0  0  0  0  0  0  0  0
   23.5076  -13.3796  -14.9526 C   0  0  0  0  0  0  0  0  0  0  0  0
   23.4550  -13.3694  -13.6976 O   0  0  0  0  0  0  0  0  0  0  0  0
   25.8858  -10.2394  -16.7684 C   0  0  0  0  0  0  0  0  0  0  0  0
   25.7450  -10.5602  -15.3164 C   0  0  2  0  0  0  0  0  0  0  0  0
   26.7497  -11.5814  -14.8344 C   0  0  0  0  0  0  0  0  0  0  0  0
   24.3503  -11.0022  -14.9416 C   0  0  2  0  0  0  0  0  0  0  0  0
   23.9539  -12.2187  -15.6052 N   0  0  0  0  0  0  0  0  0  0  0  0
   23.4011   -9.9149  -15.3021 C   0  0  0  0  0  0  0  0  0  0  0  0
   22.5625  -10.0689  -16.2297 O   0  0  0  0  0  0  0  0  0  0  0  0
   23.3851   -8.6881  -14.6477 O   0  0  0  0  0  0  0  0  0  0  0  0
  2  1  1  0
  3  2  1  0
  4  3  2  0
  5  3  1  0
  6  5  1  0
  6 12  1  0
  6  7  1  1
  8  7  1  0
  9  8  1  0
  9 10  1  0
 10 11  1  0
 12 13  2  0
 15 14  1  6
 16 15  1  0
 17 15  1  0
 18 12  1  0
 17 18  1  6
 19 21  1  0
 19 17  1  0
 20 19  2  0
M  END
$$$$
