GKV.pdb
     RDKit          3D

 21 20  0  0  1  0  0  0  0  0999 V2000
   28.3120  -22.8978  -15.8416 N   0  0  0  0  0  0  0  0  0  0  0  0
   27.0281  -23.4035  -16.2102 C   0  0  0  0  0  0  0  0  0  0  0  0
   25.9386  -22.4997  -15.7653 C   0  0  0  0  0  0  0  0  0  0  0  0
   26.2278  -21.5040  -15.0511 O   0  0  0  0  0  0  0  0  0  0  0  0
   24.5804  -22.6731  -16.0864 N   0  0  0  0  0  0  0  0  0  0  0  0
   23.5721  -21.7686  -15.6532 C   0  0  1  0  0  0  0  0  0  0  0  0
   22.4896  -21.5133  -16.6715 C   0  0  0  0  0  0  0  0  0  0  0  0
   23.0159  -20.9437  -17.9555 C   0  0  0  0  0  0  0  0  0  0  0  0
   21.9202  -20.6991  -18.9687 C   0  0  0  0  0  0  0  0  0  0  0  0
   20.8989  -19.7294  -18.4166 C   0  0  0  0  0  0  0  0  0  0  0  0
   19.8692  -19.4385  -19.4122 N   0  0  0  0  0  0  0  0  0  0  0  0
   22.9969  -22.1303  -14.3234 C   0  0  0  0  0  0  0  0  0  0  0  0
   22.6533  -23.3278  -14.1628 O   0  0  0  0  0  0  0  0  0  0  0  0
   22.3762  -19.2776  -11.0376 C   0  0  0  0  0  0  0  0  0  0  0  0
   22.8006  -20.6980  -10.8547 C   0  0  2  0  0  0  0  0  0  0  0  0
   24.2956  -20.8547  -10.6965 C   0  0  0  0  0  0  0  0  0  0  0  0
   22.3070  -21.6083  -11.9541 C   0  0  2  0  0  0  0  0  0  0  0  0
   22.8142  -21.2406  -13.2521 N   0  0  0  0  0  0  0  0  0  0  0  0
   20.8204  -21.5547  -11.9750 C   0  0  0  0  0  0  0  0  0  0  0  0
   20.1435  -21.9815  -11.0017 O   0  0  0  0  0  0  0  0  0  0  0  0
   20.1051  -21.0399  -13.0506 O   0  0  0  0  0  0  0  0  0  0  0  0
  2  1  1  0
  3  2  1  0
  4  3  2  0
  5  3  1  0
  6  5  1  0
  6 12  1  0
  6  7  1  6
  8  7  1  0
  9  8  1  0
  9 10  1  0
 10 11  1  0
 12 13  2  0
 15 14  1  6
 16 15  1  0
 17 15  1  0
 18 12  1  0
 17 18  1  6
 19 21  1  0
 19 17  1  0
 20 19  2  0
M  END
$$$$
