GKV.pdb
     RDKit          3D

 21 20  0  0  1  0  0  0  0  0999 V2000
   26.0573  -17.3516  -18.2619 N   0  0  0  0  0  0  0  0  0  0  0  0
   25.2017  -16.9885  -17.1773 C   0  0  0  0  0  0  0  0  0  0  0  0
   24.3592  -18.1300  -16.7426 C   0  0  0  0  0  0  0  0  0  0  0  0
   23.2380  -18.3012  -17.2891 O   0  0  0  0  0  0  0  0  0  0  0  0
   24.7238  -19.0540  -15.7471 N   0  0  0  0  0  0  0  0  0  0  0  0
   23.9114  -20.1707  -15.4076 C   0  0  1  0  0  0  0  0  0  0  0  0
   24.6571  -21.3001  -14.7425 C   0  0  0  0  0  0  0  0  0  0  0  0
   25.5089  -22.0824  -15.6978 C   0  0  0  0  0  0  0  0  0  0  0  0
   26.9197  -21.5449  -15.7841 C   0  0  0  0  0  0  0  0  0  0  0  0
   27.7310  -22.3510  -16.7741 C   0  0  0  0  0  0  0  0  0  0  0  0
   29.0896  -21.8231  -16.8826 N   0  0  0  0  0  0  0  0  0  0  0  0
   22.6920  -19.7907  -14.6339 C   0  0  0  0  0  0  0  0  0  0  0  0
   22.8777  -19.2268  -13.5269 O   0  0  0  0  0  0  0  0  0  0  0  0
   18.8974  -19.1376  -16.3995 C   0  0  0  0  0  0  0  0  0  0  0  0
   19.3402  -18.6270  -15.0675 C   0  0  2  0  0  0  0  0  0  0  0  0
   20.0498  -17.2949  -15.1489 C   0  0  0  0  0  0  0  0  0  0  0  0
   20.1966  -19.6145  -14.3111 C   0  0  2  0  0  0  0  0  0  0  0  0
   21.3688  -20.0149  -15.0480 N   0  0  0  0  0  0  0  0  0  0  0  0
   19.3724  -20.8158  -14.0100 C   0  0  0  0  0  0  0  0  0  0  0  0
   19.6153  -21.9224  -14.5613 O   0  0  0  0  0  0  0  0  0  0  0  0
   18.3054  -20.7871  -13.1188 O   0  0  0  0  0  0  0  0  0  0  0  0
  2  1  1  0
  3  2  1  0
  4  3  2  0
  5  3  1  0
  6  5  1  0
  6 12  1  0
  6  7  1  1
  8  7  1  0
  9  8  1  0
  9 10  1  0
 10 11  1  0
 12 13  2  0
 15 14  1  6
 16 15  1  0
 17 15  1  0
 18 12  1  0
 17 18  1  6
 19 21  1  0
 19 17  1  0
 20 19  2  0
M  END
$$$$
