AFE.pdb
     RDKit          3D

 26 26  0  0  1  0  0  0  0  0999 V2000
   22.6249  -11.7676  -18.5838 C   0  0  0  0  0  0  0  0  0  0  0  0
   22.1747  -10.3568  -18.9491 C   0  0  2  0  0  0  0  0  0  0  0  0
   23.0961   -9.8643  -19.9517 N   0  0  0  0  0  0  0  0  0  0  0  0
   22.1945   -9.5002  -17.7509 C   0  0  0  0  0  0  0  0  0  0  0  0
   21.4726   -9.7447  -16.7516 O   0  0  0  0  0  0  0  0  0  0  0  0
   23.0377   -8.3643  -17.6917 N   0  0  0  0  0  0  0  0  0  0  0  0
   22.9772   -7.4856  -16.5407 C   0  0  1  0  0  0  0  0  0  0  0  0
   24.3570   -7.0691  -16.0910 C   0  0  0  0  0  0  0  0  0  0  0  0
   25.2377   -8.1939  -15.7721 C   0  0  0  0  0  0  0  0  0  0  0  0
   26.3841   -8.4404  -16.4932 C   0  0  0  0  0  0  0  0  0  0  0  0
   27.2494   -9.4790  -16.2418 C   0  0  0  0  0  0  0  0  0  0  0  0
   26.9425  -10.3354  -15.1876 C   0  0  0  0  0  0  0  0  0  0  0  0
   25.8020  -10.1155  -14.4466 C   0  0  0  0  0  0  0  0  0  0  0  0
   24.9513   -9.0585  -14.7273 C   0  0  0  0  0  0  0  0  0  0  0  0
   22.2838   -6.2395  -16.9874 C   0  0  0  0  0  0  0  0  0  0  0  0
   22.5250   -5.7072  -18.1021 O   0  0  0  0  0  0  0  0  0  0  0  0
   21.3261   -5.5994  -16.1831 N   0  0  0  0  0  0  0  0  0  0  0  0
   20.5629   -4.4165  -16.6127 C   0  0  1  0  0  0  0  0  0  0  0  0
   19.4199   -4.8091  -17.4701 C   0  0  0  0  0  0  0  0  0  0  0  0
   18.5599   -5.8496  -16.8316 C   0  0  0  0  0  0  0  0  0  0  0  0
   17.1195   -5.6950  -17.0605 C   0  0  0  0  0  0  0  0  0  0  0  0
   16.6857   -5.0074  -17.9985 O   0  0  0  0  0  0  0  0  0  0  0  0
   20.1105   -3.6881  -15.4073 C   0  0  0  0  0  0  0  0  0  0  0  0
   19.6099   -2.4058  -15.3911 O   0  0  0  0  0  0  0  0  0  0  0  0
   16.2308   -6.3299  -16.2117 O   0  0  0  0  0  0  0  0  0  0  0  0
   20.1739   -4.2576  -14.2622 O   0  0  0  0  0  0  0  0  0  0  0  0
  2  4  1  0
  2  1  1  1
  3  2  1  0
  4  5  2  0
  6  7  1  0
  6  4  1  0
  7  8  1  6
  8  9  1  0
  9 14  2  0
 10 11  2  0
 10  9  1  0
 11 12  1  0
 12 13  2  0
 14 13  1  0
 15 16  2  0
 15  7  1  0
 17 15  1  0
 18 23  1  0
 18 17  1  0
 18 19  1  1
 20 19  1  0
 20 21  1  0
 21 25  1  0
 22 21  2  0
 23 24  1  0
 26 23  2  0
M  END
$$$$
