AFE.pdb
     RDKit          3D

 26 26  0  0  1  0  0  0  0  0999 V2000
   29.6582  -20.8312  -12.9727 C   0  0  0  0  0  0  0  0  0  0  0  0
   28.4104  -19.9559  -12.9185 C   0  0  2  0  0  0  0  0  0  0  0  0
   28.7257  -18.8202  -12.0774 N   0  0  0  0  0  0  0  0  0  0  0  0
   27.2842  -20.7254  -12.3623 C   0  0  0  0  0  0  0  0  0  0  0  0
   26.9162  -21.8163  -12.8663 O   0  0  0  0  0  0  0  0  0  0  0  0
   26.5771  -20.2512  -11.2309 N   0  0  0  0  0  0  0  0  0  0  0  0
   25.4352  -20.9939  -10.7360 C   0  0  1  0  0  0  0  0  0  0  0  0
   25.2105  -20.7447   -9.2638 C   0  0  0  0  0  0  0  0  0  0  0  0
   26.4377  -20.4535   -8.5212 C   0  0  0  0  0  0  0  0  0  0  0  0
   27.4333  -21.3928   -8.3747 C   0  0  0  0  0  0  0  0  0  0  0  0
   28.6062  -21.1785   -7.6899 C   0  0  0  0  0  0  0  0  0  0  0  0
   28.7958  -19.9278   -7.1079 C   0  0  0  0  0  0  0  0  0  0  0  0
   27.8179  -18.9659   -7.2366 C   0  0  0  0  0  0  0  0  0  0  0  0
   26.6470  -19.2155   -7.9339 C   0  0  0  0  0  0  0  0  0  0  0  0
   24.2338  -20.4570  -11.4440 C   0  0  0  0  0  0  0  0  0  0  0  0
   24.0025  -19.2222  -11.5189 O   0  0  0  0  0  0  0  0  0  0  0  0
   23.3012  -21.3065  -12.0625 N   0  0  0  0  0  0  0  0  0  0  0  0
   22.1808  -20.8224  -12.8852 C   0  0  1  0  0  0  0  0  0  0  0  0
   22.2599  -21.3712  -14.2594 C   0  0  0  0  0  0  0  0  0  0  0  0
   22.4587  -20.3065  -15.2873 C   0  0  0  0  0  0  0  0  0  0  0  0
   23.7728  -20.3056  -15.9387 C   0  0  0  0  0  0  0  0  0  0  0  0
   24.0700  -19.4528  -16.7902 O   0  0  0  0  0  0  0  0  0  0  0  0
   20.9144  -21.2032  -12.2222 C   0  0  0  0  0  0  0  0  0  0  0  0
   19.6894  -20.6162  -12.4452 O   0  0  0  0  0  0  0  0  0  0  0  0
   24.6959  -21.2763  -15.5938 O   0  0  0  0  0  0  0  0  0  0  0  0
   20.9107  -22.1502  -11.3604 O   0  0  0  0  0  0  0  0  0  0  0  0
  2  4  1  0
  2  1  1  1
  3  2  1  0
  4  5  2  0
  6  7  1  0
  6  4  1  0
  7  8  1  1
  8  9  1  0
  9 14  2  0
 10 11  2  0
 10  9  1  0
 11 12  1  0
 12 13  2  0
 14 13  1  0
 15 16  2  0
 15  7  1  0
 17 15  1  0
 18 23  1  0
 18 17  1  0
 18 19  1  6
 20 19  1  0
 20 21  1  0
 21 25  1  0
 22 21  2  0
 23 24  1  0
 26 23  2  0
M  END
$$$$
