AFE.pdb
     RDKit          3D

 26 26  0  0  1  0  0  0  0  0999 V2000
   22.3720   -8.6126  -21.5526 C   0  0  0  0  0  0  0  0  0  0  0  0
   22.8911   -9.6781  -20.5926 C   0  0  2  0  0  0  0  0  0  0  0  0
   22.4882  -10.9622  -21.1268 N   0  0  0  0  0  0  0  0  0  0  0  0
   22.3197   -9.4636  -19.2520 C   0  0  0  0  0  0  0  0  0  0  0  0
   21.0908   -9.6007  -19.0276 O   0  0  0  0  0  0  0  0  0  0  0  0
   23.1497   -9.0926  -18.1664 N   0  0  0  0  0  0  0  0  0  0  0  0
   22.6029   -9.0588  -16.8247 C   0  0  1  0  0  0  0  0  0  0  0  0
   23.3502   -9.9899  -15.9004 C   0  0  0  0  0  0  0  0  0  0  0  0
   23.1523  -11.4077  -16.2055 C   0  0  0  0  0  0  0  0  0  0  0  0
   24.1603  -12.1793  -16.7379 C   0  0  0  0  0  0  0  0  0  0  0  0
   24.0350  -13.5137  -17.0449 C   0  0  0  0  0  0  0  0  0  0  0  0
   22.8061  -14.1209  -16.7996 C   0  0  0  0  0  0  0  0  0  0  0  0
   21.7770  -13.3756  -16.2671 C   0  0  0  0  0  0  0  0  0  0  0  0
   21.9375  -12.0319  -15.9693 C   0  0  0  0  0  0  0  0  0  0  0  0
   22.8269   -7.6762  -16.3040 C   0  0  0  0  0  0  0  0  0  0  0  0
   23.8161   -6.9839  -16.6591 O   0  0  0  0  0  0  0  0  0  0  0  0
   21.9419   -7.0796  -15.3904 N   0  0  0  0  0  0  0  0  0  0  0  0
   22.1111   -5.7142  -14.8676 C   0  0  1  0  0  0  0  0  0  0  0  0
   21.2445   -4.7589  -15.5970 C   0  0  0  0  0  0  0  0  0  0  0  0
   21.4569   -3.3475  -15.1582 C   0  0  0  0  0  0  0  0  0  0  0  0
   20.5894   -2.3563  -15.8031 C   0  0  0  0  0  0  0  0  0  0  0  0
   20.6035   -1.1643  -15.4569 O   0  0  0  0  0  0  0  0  0  0  0  0
   21.8057   -5.7259  -13.4201 C   0  0  0  0  0  0  0  0  0  0  0  0
   21.0434   -6.6722  -12.7734 O   0  0  0  0  0  0  0  0  0  0  0  0
   19.7404   -2.7625  -16.8167 O   0  0  0  0  0  0  0  0  0  0  0  0
   22.2655   -4.7969  -12.6684 O   0  0  0  0  0  0  0  0  0  0  0  0
  2  4  1  0
  2  1  1  6
  3  2  1  0
  4  5  2  0
  6  7  1  0
  6  4  1  0
  7  8  1  1
  8  9  1  0
  9 14  2  0
 10 11  2  0
 10  9  1  0
 11 12  1  0
 12 13  2  0
 14 13  1  0
 15 16  2  0
 15  7  1  0
 17 15  1  0
 18 23  1  0
 18 17  1  0
 18 19  1  6
 20 19  1  0
 20 21  1  0
 21 25  1  0
 22 21  2  0
 23 24  1  0
 26 23  2  0
M  END
$$$$
