AFE.pdb
     RDKit          3D

 26 26  0  0  1  0  0  0  0  0999 V2000
   25.0830  -24.3190  -18.1957 C   0  0  0  0  0  0  0  0  0  0  0  0
   26.1003  -24.3199  -17.0592 C   0  0  2  0  0  0  0  0  0  0  0  0
   26.6322  -25.6636  -16.9677 N   0  0  0  0  0  0  0  0  0  0  0  0
   25.4434  -23.9277  -15.8005 C   0  0  0  0  0  0  0  0  0  0  0  0
   24.7254  -24.7296  -15.1519 O   0  0  0  0  0  0  0  0  0  0  0  0
   25.6050  -22.6204  -15.2809 N   0  0  0  0  0  0  0  0  0  0  0  0
   25.0196  -22.2809  -13.9993 C   0  0  1  0  0  0  0  0  0  0  0  0
   25.7937  -21.1813  -13.3128 C   0  0  0  0  0  0  0  0  0  0  0  0
   25.3365  -20.8999  -11.9512 C   0  0  0  0  0  0  0  0  0  0  0  0
   24.2568  -20.0817  -11.7066 C   0  0  0  0  0  0  0  0  0  0  0  0
   23.7810  -19.7808  -10.4521 C   0  0  0  0  0  0  0  0  0  0  0  0
   24.4371  -20.3426   -9.3599 C   0  0  0  0  0  0  0  0  0  0  0  0
   25.5212  -21.1660   -9.5714 C   0  0  0  0  0  0  0  0  0  0  0  0
   25.9747  -21.4485  -10.8499 C   0  0  0  0  0  0  0  0  0  0  0  0
   23.6599  -21.7288  -14.2808 C   0  0  0  0  0  0  0  0  0  0  0  0
   23.4699  -20.8403  -15.1517 O   0  0  0  0  0  0  0  0  0  0  0  0
   22.5238  -22.1755  -13.5853 N   0  0  0  0  0  0  0  0  0  0  0  0
   21.1891  -21.5738  -13.7363 C   0  0  1  0  0  0  0  0  0  0  0  0
   20.2191  -22.5659  -14.2564 C   0  0  0  0  0  0  0  0  0  0  0  0
   19.7505  -23.5120  -13.2005 C   0  0  0  0  0  0  0  0  0  0  0  0
   18.7966  -24.5299  -13.6535 C   0  0  0  0  0  0  0  0  0  0  0  0
   18.3756  -25.4075  -12.8831 O   0  0  0  0  0  0  0  0  0  0  0  0
   20.7654  -21.0389  -12.4237 C   0  0  0  0  0  0  0  0  0  0  0  0
   21.3116  -21.3836  -11.2080 O   0  0  0  0  0  0  0  0  0  0  0  0
   18.3606  -24.5074  -14.9659 O   0  0  0  0  0  0  0  0  0  0  0  0
   19.8139  -20.1842  -12.3654 O   0  0  0  0  0  0  0  0  0  0  0  0
  2  4  1  0
  2  1  1  6
  3  2  1  0
  4  5  2  0
  6  7  1  0
  6  4  1  0
  7  8  1  6
  8  9  1  0
  9 14  2  0
 10 11  2  0
 10  9  1  0
 11 12  1  0
 12 13  2  0
 14 13  1  0
 15 16  2  0
 15  7  1  0
 17 15  1  0
 18 23  1  0
 18 17  1  0
 18 19  1  1
 20 19  1  0
 20 21  1  0
 21 25  1  0
 22 21  2  0
 23 24  1  0
 26 23  2  0
M  END
$$$$
