AFE.pdb
     RDKit          3D

 26 26  0  0  1  0  0  0  0  0999 V2000
   23.3742  -13.0632  -18.1460 C   0  0  0  0  0  0  0  0  0  0  0  0
   22.6594  -11.7237  -18.2916 C   0  0  2  0  0  0  0  0  0  0  0  0
   23.0984  -11.1430  -19.5434 N   0  0  0  0  0  0  0  0  0  0  0  0
   23.0022  -10.8488  -17.1573 C   0  0  0  0  0  0  0  0  0  0  0  0
   22.7414  -11.1717  -15.9711 O   0  0  0  0  0  0  0  0  0  0  0  0
   23.6425   -9.6048  -17.3753 N   0  0  0  0  0  0  0  0  0  0  0  0
   23.9529   -8.7506  -16.2464 C   0  0  1  0  0  0  0  0  0  0  0  0
   25.3757   -8.2491  -16.3083 C   0  0  0  0  0  0  0  0  0  0  0  0
   26.3786   -9.3143  -16.2655 C   0  0  0  0  0  0  0  0  0  0  0  0
   27.3313   -9.4491  -17.2499 C   0  0  0  0  0  0  0  0  0  0  0  0
   28.2976  -10.4273  -17.2645 C   0  0  0  0  0  0  0  0  0  0  0  0
   28.3099  -11.3395  -16.2126 C   0  0  0  0  0  0  0  0  0  0  0  0
   27.3695  -11.2315  -15.2116 C   0  0  0  0  0  0  0  0  0  0  0  0
   26.4091  -10.2329  -15.2279 C   0  0  0  0  0  0  0  0  0  0  0  0
   23.0748   -7.5473  -16.3638 C   0  0  0  0  0  0  0  0  0  0  0  0
   22.8765   -6.9736  -17.4663 O   0  0  0  0  0  0  0  0  0  0  0  0
   22.4256   -6.9959  -15.2464 N   0  0  0  0  0  0  0  0  0  0  0  0
   21.5523   -5.8131  -15.3150 C   0  0  1  0  0  0  0  0  0  0  0  0
   20.1677   -6.1558  -14.9135 C   0  0  0  0  0  0  0  0  0  0  0  0
   19.4152   -6.8509  -15.9999 C   0  0  0  0  0  0  0  0  0  0  0  0
   18.0132   -7.1530  -15.6930 C   0  0  0  0  0  0  0  0  0  0  0  0
   17.1354   -6.2778  -15.7592 O   0  0  0  0  0  0  0  0  0  0  0  0
   22.1225   -4.7592  -14.4473 C   0  0  0  0  0  0  0  0  0  0  0  0
   21.8574   -3.4123  -14.5491 O   0  0  0  0  0  0  0  0  0  0  0  0
   17.6670   -8.4401  -15.3231 O   0  0  0  0  0  0  0  0  0  0  0  0
   22.9367   -5.0804  -13.5128 O   0  0  0  0  0  0  0  0  0  0  0  0
  2  4  1  0
  2  1  1  1
  3  2  1  0
  4  5  2  0
  6  7  1  0
  6  4  1  0
  7  8  1  6
  8  9  1  0
  9 14  2  0
 10 11  2  0
 10  9  1  0
 11 12  1  0
 12 13  2  0
 14 13  1  0
 15 16  2  0
 15  7  1  0
 17 15  1  0
 18 23  1  0
 18 17  1  0
 18 19  1  1
 20 19  1  0
 20 21  1  0
 21 25  1  0
 22 21  2  0
 23 24  1  0
 26 23  2  0
M  END
$$$$
