AFE.pdb
     RDKit          3D

 26 26  0  0  1  0  0  0  0  0999 V2000
   27.0279  -21.4554  -17.5812 C   0  0  0  0  0  0  0  0  0  0  0  0
   27.8778  -21.5531  -16.3184 C   0  0  2  0  0  0  0  0  0  0  0  0
   28.7111  -22.7290  -16.4585 N   0  0  0  0  0  0  0  0  0  0  0  0
   27.0056  -21.6646  -15.1366 C   0  0  0  0  0  0  0  0  0  0  0  0
   26.3957  -22.7289  -14.8633 O   0  0  0  0  0  0  0  0  0  0  0  0
   26.8283  -20.5622  -14.2660 N   0  0  0  0  0  0  0  0  0  0  0  0
   25.9854  -20.7015  -13.0952 C   0  0  1  0  0  0  0  0  0  0  0  0
   26.2825  -19.6328  -12.0708 C   0  0  0  0  0  0  0  0  0  0  0  0
   26.7360  -20.1603  -10.7830 C   0  0  0  0  0  0  0  0  0  0  0  0
   25.9187  -20.1627   -9.6754 C   0  0  0  0  0  0  0  0  0  0  0  0
   26.2875  -20.6439   -8.4413 C   0  0  0  0  0  0  0  0  0  0  0  0
   27.5730  -21.1620   -8.3071 C   0  0  0  0  0  0  0  0  0  0  0  0
   28.4154  -21.1738   -9.3972 C   0  0  0  0  0  0  0  0  0  0  0  0
   28.0113  -20.6805  -10.6273 C   0  0  0  0  0  0  0  0  0  0  0  0
   24.5798  -20.4741  -13.5483 C   0  0  0  0  0  0  0  0  0  0  0  0
   24.2850  -19.5720  -14.3749 O   0  0  0  0  0  0  0  0  0  0  0  0
   23.5154  -21.2583  -13.0726 N   0  0  0  0  0  0  0  0  0  0  0  0
   22.1169  -21.0712  -13.4916 C   0  0  1  0  0  0  0  0  0  0  0  0
   21.4940  -22.3686  -13.8443 C   0  0  0  0  0  0  0  0  0  0  0  0
   20.0443  -22.2332  -14.1754 C   0  0  0  0  0  0  0  0  0  0  0  0
   19.3777  -23.4757  -14.5789 C   0  0  0  0  0  0  0  0  0  0  0  0
   19.9714  -24.5654  -14.5483 O   0  0  0  0  0  0  0  0  0  0  0  0
   21.3855  -20.3998  -12.3950 C   0  0  0  0  0  0  0  0  0  0  0  0
   20.2665  -19.6126  -12.5473 O   0  0  0  0  0  0  0  0  0  0  0  0
   18.0613  -23.4273  -15.0009 O   0  0  0  0  0  0  0  0  0  0  0  0
   21.7927  -20.5319  -11.1882 O   0  0  0  0  0  0  0  0  0  0  0  0
  2  4  1  0
  2  1  1  6
  3  2  1  0
  4  5  2  0
  6  7  1  0
  6  4  1  0
  7  8  1  1
  8  9  1  0
  9 14  2  0
 10 11  2  0
 10  9  1  0
 11 12  1  0
 12 13  2  0
 14 13  1  0
 15 16  2  0
 15  7  1  0
 17 15  1  0
 18 23  1  0
 18 17  1  0
 18 19  1  1
 20 19  1  0
 20 21  1  0
 21 25  1  0
 22 21  2  0
 23 24  1  0
 26 23  2  0
M  END
$$$$
