AFE.pdb
     RDKit          3D

 26 26  0  0  1  0  0  0  0  0999 V2000
   17.9663   -7.7695  -17.6414 C   0  0  0  0  0  0  0  0  0  0  0  0
   19.3814   -7.7047  -17.0759 C   0  0  2  0  0  0  0  0  0  0  0  0
   20.1344   -8.7754  -17.6949 N   0  0  0  0  0  0  0  0  0  0  0  0
   19.3423   -7.8672  -15.6124 C   0  0  0  0  0  0  0  0  0  0  0  0
   18.9776   -8.9438  -15.0764 O   0  0  0  0  0  0  0  0  0  0  0  0
   19.7191   -6.8017  -14.7594 N   0  0  0  0  0  0  0  0  0  0  0  0
   19.8489   -7.0352  -13.3349 C   0  0  1  0  0  0  0  0  0  0  0  0
   21.2656   -6.8073  -12.8650 C   0  0  0  0  0  0  0  0  0  0  0  0
   22.2115   -7.8232  -13.3296 C   0  0  0  0  0  0  0  0  0  0  0  0
   22.3021   -9.0561  -12.7242 C   0  0  0  0  0  0  0  0  0  0  0  0
   23.1691  -10.0494  -13.1148 C   0  0  0  0  0  0  0  0  0  0  0  0
   24.0088   -9.7869  -14.1941 C   0  0  0  0  0  0  0  0  0  0  0  0
   23.9423   -8.5622  -14.8216 C   0  0  0  0  0  0  0  0  0  0  0  0
   23.0564   -7.5831  -14.4019 C   0  0  0  0  0  0  0  0  0  0  0  0
   19.0063   -6.0071  -12.6524 C   0  0  0  0  0  0  0  0  0  0  0  0
   19.2034   -4.7741  -12.8101 O   0  0  0  0  0  0  0  0  0  0  0  0
   17.9500   -6.3673  -11.7990 N   0  0  0  0  0  0  0  0  0  0  0  0
   17.0653   -5.3907  -11.1431 C   0  0  1  0  0  0  0  0  0  0  0  0
   15.6572   -5.8510  -11.1735 C   0  0  0  0  0  0  0  0  0  0  0  0
   15.0864   -5.8477  -12.5533 C   0  0  0  0  0  0  0  0  0  0  0  0
   13.7003   -6.3160  -12.6563 C   0  0  0  0  0  0  0  0  0  0  0  0
   12.7580   -5.6462  -12.2043 O   0  0  0  0  0  0  0  0  0  0  0  0
   17.5388   -5.1875   -9.7564 C   0  0  0  0  0  0  0  0  0  0  0  0
   17.1047   -4.1992   -8.9021 O   0  0  0  0  0  0  0  0  0  0  0  0
   13.4430   -7.5285  -13.2701 O   0  0  0  0  0  0  0  0  0  0  0  0
   18.4272   -5.9705   -9.2695 O   0  0  0  0  0  0  0  0  0  0  0  0
  2  4  1  0
  2  1  1  6
  3  2  1  0
  4  5  2  0
  6  7  1  0
  6  4  1  0
  7  8  1  1
  8  9  1  0
  9 14  2  0
 10 11  2  0
 10  9  1  0
 11 12  1  0
 12 13  2  0
 14 13  1  0
 15 16  2  0
 15  7  1  0
 17 15  1  0
 18 23  1  0
 18 17  1  0
 18 19  1  1
 20 19  1  0
 20 21  1  0
 21 25  1  0
 22 21  2  0
 23 24  1  0
 26 23  2  0
M  END
$$$$
