FSG.pdb
     RDKit          3D

 22 22  0  0  1  0  0  0  0  0999 V2000
   12.0399  -15.7131   17.9550 N   0  0  0  0  0  0  0  0  0  0  0  0
   11.3572  -15.2400   19.1359 C   0  0  1  0  0  0  0  0  0  0  0  0
    9.8940  -15.6908   19.0353 C   0  0  0  0  0  0  0  0  0  0  0  0
    9.0670  -14.5192   19.3773 C   0  0  0  0  0  0  0  0  0  0  0  0
    9.6088  -13.2571   19.3052 C   0  0  0  0  0  0  0  0  0  0  0  0
    8.8404  -12.1648   19.6232 C   0  0  0  0  0  0  0  0  0  0  0  0
    7.5252  -12.3519   20.0136 C   0  0  0  0  0  0  0  0  0  0  0  0
    6.9564  -13.5990   20.0952 C   0  0  0  0  0  0  0  0  0  0  0  0
    7.7502  -14.6762   19.7705 C   0  0  0  0  0  0  0  0  0  0  0  0
   11.9342  -15.8804   20.3180 C   0  0  0  0  0  0  0  0  0  0  0  0
   12.8777  -16.7054   20.1919 O   0  0  0  0  0  0  0  0  0  0  0  0
   10.6352  -15.0194   24.2512 O   0  0  0  0  0  0  0  0  0  0  0  0
   11.9668  -15.1257   23.8882 C   0  0  0  0  0  0  0  0  0  0  0  0
   12.1654  -16.1125   22.7557 C   0  0  2  0  0  0  0  0  0  0  0  0
   11.4586  -15.5973   21.6112 N   0  0  0  0  0  0  0  0  0  0  0  0
   11.6478  -17.4474   23.0700 C   0  0  0  0  0  0  0  0  0  0  0  0
   10.5181  -17.7861   22.6396 O   0  0  0  0  0  0  0  0  0  0  0  0
   12.3874  -18.3727   23.8489 N   0  0  0  0  0  0  0  0  0  0  0  0
   11.8026  -19.6459   24.1458 C   0  0  0  0  0  0  0  0  0  0  0  0
   11.8610  -19.9406   25.5986 C   0  0  0  0  0  0  0  0  0  0  0  0
   11.3530  -21.0905   26.1391 O   0  0  0  0  0  0  0  0  0  0  0  0
   12.3962  -19.1081   26.3738 O   0  0  0  0  0  0  0  0  0  0  0  0
  2  1  1  6
  2 10  1  0
  3  2  1  0
  4  3  1  0
  4  5  2  0
  6  5  1  0
  7  6  2  0
  8  9  2  0
  8  7  1  0
  9  4  1  0
 10 15  1  0
 10 11  2  0
 12 13  1  0
 14 13  1  1
 14 16  1  0
 15 14  1  0
 16 17  2  0
 16 18  1  0
 18 19  1  0
 19 20  1  0
 20 21  1  0
 22 20  2  0
M  END
$$$$
