FSG.pdb
     RDKit          3D

 22 22  0  0  1  0  0  0  0  0999 V2000
    6.0680  -17.5730   25.7288 N   0  0  0  0  0  0  0  0  0  0  0  0
    6.6210  -16.3007   25.3290 C   0  0  1  0  0  0  0  0  0  0  0  0
    7.2876  -15.6786   26.5631 C   0  0  0  0  0  0  0  0  0  0  0  0
    7.0640  -14.2240   26.4753 C   0  0  0  0  0  0  0  0  0  0  0  0
    7.9706  -13.4332   25.8085 C   0  0  0  0  0  0  0  0  0  0  0  0
    7.7642  -12.0786   25.7257 C   0  0  0  0  0  0  0  0  0  0  0  0
    6.6407  -11.5267   26.3177 C   0  0  0  0  0  0  0  0  0  0  0  0
    5.7181  -12.2899   26.9899 C   0  0  0  0  0  0  0  0  0  0  0  0
    5.9505  -13.6454   27.0572 C   0  0  0  0  0  0  0  0  0  0  0  0
    7.6658  -16.5198   24.3286 C   0  0  0  0  0  0  0  0  0  0  0  0
    8.5389  -17.4090   24.5119 O   0  0  0  0  0  0  0  0  0  0  0  0
    8.1341  -14.1788   20.7792 O   0  0  0  0  0  0  0  0  0  0  0  0
    8.1921  -15.5612   20.8239 C   0  0  0  0  0  0  0  0  0  0  0  0
    8.7190  -16.0607   22.1538 C   0  0  2  0  0  0  0  0  0  0  0  0
    7.7244  -15.7546   23.1498 N   0  0  0  0  0  0  0  0  0  0  0  0
    9.9833  -15.4256   22.5369 C   0  0  0  0  0  0  0  0  0  0  0  0
    9.9644  -14.2873   23.0663 O   0  0  0  0  0  0  0  0  0  0  0  0
   11.2336  -16.0603   22.3271 N   0  0  0  0  0  0  0  0  0  0  0  0
   12.4274  -15.3832   22.7364 C   0  0  0  0  0  0  0  0  0  0  0  0
   13.6307  -16.2150   22.4893 C   0  0  0  0  0  0  0  0  0  0  0  0
   14.6748  -15.7899   21.7134 O   0  0  0  0  0  0  0  0  0  0  0  0
   13.7055  -17.3576   23.0081 O   0  0  0  0  0  0  0  0  0  0  0  0
  2  1  1  1
  2 10  1  0
  3  2  1  0
  4  3  1  0
  4  5  2  0
  6  5  1  0
  7  6  2  0
  8  9  2  0
  8  7  1  0
  9  4  1  0
 10 15  1  0
 10 11  2  0
 12 13  1  0
 14 13  1  6
 14 16  1  0
 15 14  1  0
 16 17  2  0
 16 18  1  0
 18 19  1  0
 19 20  1  0
 20 21  1  0
 22 20  2  0
M  END
$$$$
