FSG.pdb
     RDKit          3D

 22 22  0  0  1  0  0  0  0  0999 V2000
    6.5596  -16.7913   26.0288 N   0  0  0  0  0  0  0  0  0  0  0  0
    6.9692  -15.7660   25.0987 C   0  0  1  0  0  0  0  0  0  0  0  0
    8.0875  -14.9556   25.7674 C   0  0  0  0  0  0  0  0  0  0  0  0
    7.4663  -13.7192   26.2762 C   0  0  0  0  0  0  0  0  0  0  0  0
    8.1492  -12.9317   27.1735 C   0  0  0  0  0  0  0  0  0  0  0  0
    7.5726  -11.7800   27.6485 C   0  0  0  0  0  0  0  0  0  0  0  0
    6.3059  -11.4273   27.2144 C   0  0  0  0  0  0  0  0  0  0  0  0
    5.5995  -12.1927   26.3196 C   0  0  0  0  0  0  0  0  0  0  0  0
    6.2022  -13.3423   25.8600 C   0  0  0  0  0  0  0  0  0  0  0  0
    7.5352  -16.3937   23.9045 C   0  0  0  0  0  0  0  0  0  0  0  0
    7.9427  -17.5848   23.9502 O   0  0  0  0  0  0  0  0  0  0  0  0
    7.2649  -14.3993   20.5826 O   0  0  0  0  0  0  0  0  0  0  0  0
    7.8762  -15.6134   20.3210 C   0  0  0  0  0  0  0  0  0  0  0  0
    8.3596  -16.2862   21.5896 C   0  0  2  0  0  0  0  0  0  0  0  0
    7.6392  -15.6951   22.6880 N   0  0  0  0  0  0  0  0  0  0  0  0
    9.7967  -16.1057   21.8145 C   0  0  0  0  0  0  0  0  0  0  0  0
   10.2016  -15.0785   22.4121 O   0  0  0  0  0  0  0  0  0  0  0  0
   10.7487  -17.0602   21.3757 N   0  0  0  0  0  0  0  0  0  0  0  0
   12.1351  -16.8261   21.6482 C   0  0  0  0  0  0  0  0  0  0  0  0
   12.9883  -17.8806   21.0473 C   0  0  0  0  0  0  0  0  0  0  0  0
   12.4699  -18.9685   20.3988 O   0  0  0  0  0  0  0  0  0  0  0  0
   14.2388  -17.7817   21.1309 O   0  0  0  0  0  0  0  0  0  0  0  0
  2  1  1  1
  2 10  1  0
  3  2  1  0
  4  3  1  0
  4  5  2  0
  6  5  1  0
  7  6  2  0
  8  9  2  0
  8  7  1  0
  9  4  1  0
 10 15  1  0
 10 11  2  0
 12 13  1  0
 14 13  1  6
 14 16  1  0
 15 14  1  0
 16 17  2  0
 16 18  1  0
 18 19  1  0
 19 20  1  0
 20 21  1  0
 22 20  2  0
M  END
$$$$
