FSG.pdb
     RDKit          3D

 22 22  0  0  1  0  0  0  0  0999 V2000
    6.7504  -17.0262   26.0667 N   0  0  0  0  0  0  0  0  0  0  0  0
    7.1939  -15.9600   25.2002 C   0  0  1  0  0  0  0  0  0  0  0  0
    8.1453  -15.0708   26.0116 C   0  0  0  0  0  0  0  0  0  0  0  0
    7.3867  -13.8588   26.3709 C   0  0  0  0  0  0  0  0  0  0  0  0
    8.0168  -12.8303   27.0320 C   0  0  0  0  0  0  0  0  0  0  0  0
    7.3122  -11.7009   27.3675 C   0  0  0  0  0  0  0  0  0  0  0  0
    5.9713  -11.6144   27.0334 C   0  0  0  0  0  0  0  0  0  0  0  0
    5.3149  -12.6241   26.3738 C   0  0  0  0  0  0  0  0  0  0  0  0
    6.0461  -13.7449   26.0498 C   0  0  0  0  0  0  0  0  0  0  0  0
    7.9606  -16.5256   24.0899 C   0  0  0  0  0  0  0  0  0  0  0  0
    8.5510  -17.6297   24.2282 O   0  0  0  0  0  0  0  0  0  0  0  0
    8.5313  -14.5776   20.3235 O   0  0  0  0  0  0  0  0  0  0  0  0
    8.2442  -15.9226   20.4812 C   0  0  0  0  0  0  0  0  0  0  0  0
    8.8020  -16.4697   21.7793 C   0  0  2  0  0  0  0  0  0  0  0  0
    8.0591  -15.8621   22.8535 N   0  0  0  0  0  0  0  0  0  0  0  0
   10.2250  -16.1662   21.9572 C   0  0  0  0  0  0  0  0  0  0  0  0
   10.5594  -15.1209   22.5671 O   0  0  0  0  0  0  0  0  0  0  0  0
   11.2407  -17.0208   21.4593 N   0  0  0  0  0  0  0  0  0  0  0  0
   12.6102  -16.6580   21.6685 C   0  0  0  0  0  0  0  0  0  0  0  0
   13.5291  -17.6186   21.0097 C   0  0  0  0  0  0  0  0  0  0  0  0
   14.8883  -17.4594   21.0119 O   0  0  0  0  0  0  0  0  0  0  0  0
   13.0516  -18.6226   20.4228 O   0  0  0  0  0  0  0  0  0  0  0  0
  2  1  1  1
  2 10  1  0
  3  2  1  0
  4  3  1  0
  4  5  2  0
  6  5  1  0
  7  6  2  0
  8  9  2  0
  8  7  1  0
  9  4  1  0
 10 15  1  0
 10 11  2  0
 12 13  1  0
 14 13  1  6
 14 16  1  0
 15 14  1  0
 16 17  2  0
 16 18  1  0
 18 19  1  0
 19 20  1  0
 20 21  1  0
 22 20  2  0
M  END
$$$$
