FSG.pdb
     RDKit          3D

 22 22  0  0  1  0  0  0  0  0999 V2000
    5.7299  -16.6211   22.1877 N   0  0  0  0  0  0  0  0  0  0  0  0
    6.9824  -16.1259   22.7075 C   0  0  1  0  0  0  0  0  0  0  0  0
    6.8774  -14.5973   22.7875 C   0  0  0  0  0  0  0  0  0  0  0  0
    7.4898  -14.0672   21.5556 C   0  0  0  0  0  0  0  0  0  0  0  0
    6.7109  -13.4003   20.6388 C   0  0  0  0  0  0  0  0  0  0  0  0
    7.2792  -12.9060   19.4911 C   0  0  0  0  0  0  0  0  0  0  0  0
    8.6345  -13.0874   19.2732 C   0  0  0  0  0  0  0  0  0  0  0  0
    9.4376  -13.7486   20.1696 C   0  0  0  0  0  0  0  0  0  0  0  0
    8.8411  -14.2337   21.3118 C   0  0  0  0  0  0  0  0  0  0  0  0
    7.1725  -16.6253   24.0695 C   0  0  0  0  0  0  0  0  0  0  0  0
    6.2745  -16.4537   24.9360 O   0  0  0  0  0  0  0  0  0  0  0  0
    7.7237  -19.8248   24.7561 O   0  0  0  0  0  0  0  0  0  0  0  0
    7.6394  -19.0486   25.8992 C   0  0  0  0  0  0  0  0  0  0  0  0
    8.4824  -17.7941   25.7923 C   0  0  2  0  0  0  0  0  0  0  0  0
    8.3472  -17.3018   24.4453 N   0  0  0  0  0  0  0  0  0  0  0  0
    9.9013  -18.0399   26.0660 C   0  0  0  0  0  0  0  0  0  0  0  0
   10.6996  -18.1695   25.1056 O   0  0  0  0  0  0  0  0  0  0  0  0
   10.4028  -18.1362   27.3886 N   0  0  0  0  0  0  0  0  0  0  0  0
   11.7858  -18.4555   27.5795 C   0  0  0  0  0  0  0  0  0  0  0  0
   12.0359  -19.9053   27.3887 C   0  0  0  0  0  0  0  0  0  0  0  0
   12.9981  -20.3826   26.5408 O   0  0  0  0  0  0  0  0  0  0  0  0
   11.3424  -20.7380   28.0260 O   0  0  0  0  0  0  0  0  0  0  0  0
  2  1  1  1
  2 10  1  0
  3  2  1  0
  4  3  1  0
  4  5  2  0
  6  5  1  0
  7  6  2  0
  8  9  2  0
  8  7  1  0
  9  4  1  0
 10 15  1  0
 10 11  2  0
 12 13  1  0
 14 13  1  6
 14 16  1  0
 15 14  1  0
 16 17  2  0
 16 18  1  0
 18 19  1  0
 19 20  1  0
 20 21  1  0
 22 20  2  0
M  END
$$$$
