FSG.pdb
     RDKit          3D

 22 22  0  0  1  0  0  0  0  0999 V2000
    6.9306  -16.4509   26.1601 N   0  0  0  0  0  0  0  0  0  0  0  0
    7.1820  -15.6483   24.9867 C   0  0  1  0  0  0  0  0  0  0  0  0
    8.2158  -14.5812   25.3696 C   0  0  0  0  0  0  0  0  0  0  0  0
    7.4743  -13.4951   26.0360 C   0  0  0  0  0  0  0  0  0  0  0  0
    7.9966  -12.9035   27.1624 C   0  0  0  0  0  0  0  0  0  0  0  0
    7.3077  -11.8920   27.7844 C   0  0  0  0  0  0  0  0  0  0  0  0
    6.0915  -11.4811   27.2653 C   0  0  0  0  0  0  0  0  0  0  0  0
    5.5447  -12.0523   26.1428 C   0  0  0  0  0  0  0  0  0  0  0  0
    6.2573  -13.0644   25.5396 C   0  0  0  0  0  0  0  0  0  0  0  0
    7.7794  -16.4857   23.9463 C   0  0  0  0  0  0  0  0  0  0  0  0
    8.3723  -17.5526   24.2576 O   0  0  0  0  0  0  0  0  0  0  0  0
    8.6029  -15.2550   19.7862 O   0  0  0  0  0  0  0  0  0  0  0  0
    8.0555  -16.4377   20.2529 C   0  0  0  0  0  0  0  0  0  0  0  0
    8.5662  -16.7883   21.6356 C   0  0  2  0  0  0  0  0  0  0  0  0
    7.7097  -16.1286   22.5875 N   0  0  0  0  0  0  0  0  0  0  0  0
    9.9470  -16.3494   21.8578 C   0  0  0  0  0  0  0  0  0  0  0  0
   10.1607  -15.2033   22.3239 O   0  0  0  0  0  0  0  0  0  0  0  0
   11.0545  -17.1834   21.5612 N   0  0  0  0  0  0  0  0  0  0  0  0
   12.3748  -16.6951   21.8248 C   0  0  0  0  0  0  0  0  0  0  0  0
   13.4070  -17.6536   21.3594 C   0  0  0  0  0  0  0  0  0  0  0  0
   14.7472  -17.3849   21.4265 O   0  0  0  0  0  0  0  0  0  0  0  0
   13.0483  -18.7601   20.8825 O   0  0  0  0  0  0  0  0  0  0  0  0
  2  1  1  1
  2 10  1  0
  3  2  1  0
  4  3  1  0
  4  5  2  0
  6  5  1  0
  7  6  2  0
  8  9  2  0
  8  7  1  0
  9  4  1  0
 10 15  1  0
 10 11  2  0
 12 13  1  0
 14 13  1  6
 14 16  1  0
 15 14  1  0
 16 17  2  0
 16 18  1  0
 18 19  1  0
 19 20  1  0
 20 21  1  0
 22 20  2  0
M  END
$$$$
