RWR.pdb
     RDKit          3D

 37 38  0  0  1  0  0  0  0  0999 V2000
    9.5965  -14.9038   16.3710 N   0  0  0  0  0  0  0  0  0  0  0  0
    8.6426  -13.8390   16.3867 C   0  0  0  0  0  0  0  0  0  0  0  0
    8.1369  -13.3704   15.2880 N   0  0  0  0  0  0  0  0  0  0  0  0
    8.2058  -13.2463   17.6032 N   0  0  0  0  0  0  0  0  0  0  0  0
    7.5394  -14.0205   18.6243 C   0  0  0  0  0  0  0  0  0  0  0  0
    8.5783  -14.6330   19.5882 C   0  0  0  0  0  0  0  0  0  0  0  0
    7.9275  -15.7970   20.2594 C   0  0  0  0  0  0  0  0  0  0  0  0
    8.8014  -16.6289   21.1264 C   0  0  2  0  0  0  0  0  0  0  0  0
    8.0794  -17.8119   21.6314 N   0  0  0  0  0  0  0  0  0  0  0  0
    9.2846  -15.8411   22.2797 C   0  0  0  0  0  0  0  0  0  0  0  0
    9.9959  -14.8136   22.2042 O   0  0  0  0  0  0  0  0  0  0  0  0
    7.4861  -12.5839   15.2444 N   0  0  0  0  0  0  0  0  0  0  0  0
    8.9279  -16.2628   23.6037 C   0  0  1  0  0  0  0  0  0  0  0  0
    9.4484  -15.5494   24.7465 C   0  0  0  0  0  0  0  0  0  0  0  0
    8.5438  -15.8176   25.9153 C   0  0  0  0  0  0  0  0  0  0  0  0
    7.3226  -14.9878   25.9348 C   0  0  0  0  0  0  0  0  0  0  0  0
    5.9985  -15.3254   25.7521 N   0  0  0  0  0  0  0  0  0  0  0  0
    5.2814  -14.1954   25.8631 C   0  0  0  0  0  0  0  0  0  0  0  0
    6.0655  -13.1369   26.1086 C   0  0  0  0  0  0  0  0  0  0  0  0
    5.8297  -11.7882   26.3028 C   0  0  0  0  0  0  0  0  0  0  0  0
    6.8554  -10.9118   26.5435 C   0  0  0  0  0  0  0  0  0  0  0  0
    8.1466  -11.3775   26.5941 C   0  0  0  0  0  0  0  0  0  0  0  0
    8.3712  -12.7202   26.4001 C   0  0  0  0  0  0  0  0  0  0  0  0
    7.3424  -13.6283   26.1539 C   0  0  0  0  0  0  0  0  0  0  0  0
   10.8372  -16.0558   25.0786 O   0  0  0  0  0  0  0  0  0  0  0  0
   11.7697  -15.2510   25.3246 N   0  0  0  0  0  0  0  0  0  0  0  0
   14.5172  -22.5683   29.9127 C   0  0  0  0  0  0  0  0  0  0  0  0
   13.6657  -21.5451   30.4830 N   0  0  0  0  0  0  0  0  0  0  0  0
   13.1644  -21.6430   31.5821 N   0  0  0  0  0  0  0  0  0  0  0  0
   13.4107  -20.3656   29.6943 C   0  0  0  0  0  0  0  0  0  0  0  0
   12.4908  -20.4666   28.5962 C   0  0  0  0  0  0  0  0  0  0  0  0
   13.0430  -19.6335   27.4544 C   0  0  0  0  0  0  0  0  0  0  0  0
   11.9040  -18.8888   26.8259 C   0  0  1  0  0  0  0  0  0  0  0  0
   12.2964  -18.0347   25.6603 N   0  0  0  0  0  0  0  0  0  0  0  0
   11.0716  -17.4472   25.1068 C   0  0  0  0  0  0  0  0  0  0  0  0
   13.0497  -18.7516   24.6165 O   0  0  0  0  0  0  0  0  0  0  0  0
   12.5559  -19.5550   23.7995 O   0  0  0  0  0  0  0  0  0  0  0  0
  2  1  1  0
  3  2  2  0
  4  2  1  0
  5  4  1  0
  6  5  1  0
  7  6  1  0
  8 10  1  0
  8  9  1  1
  8  7  1  0
 10 12  1  0
 11 10  2  0
 12 13  1  0
 13 14  1  1
 14 15  1  0
 15 16  2  0
 15 23  1  0
 16 17  1  0
 17 18  1  0
 18 19  2  0
 19 20  1  0
 21 20  2  0
 22 21  1  0
 23 22  2  0
 23 18  1  0
 24 13  1  0
 25 24  2  0
 27 29  1  0
 27 26  1  0
 28 27  2  0
 30 31  1  0
 30 29  1  0
 31 32  1  0
 33 32  1  1
 33 34  1  0
 34 24  1  0
 35 37  1  0
 35 33  1  0
 36 35  2  0
M  END
$$$$
