RWR.pdb
     RDKit          3D

 37 38  0  0  1  0  0  0  0  0999 V2000
    8.0324  -12.3914   16.8023 N   0  0  0  0  0  0  0  0  0  0  0  0
    8.4444  -13.7597   16.8484 C   0  0  0  0  0  0  0  0  0  0  0  0
    9.3676  -14.2129   16.0581 N   0  0  0  0  0  0  0  0  0  0  0  0
    7.8628  -14.6838   17.7593 N   0  0  0  0  0  0  0  0  0  0  0  0
    6.9042  -14.2623   18.7543 C   0  0  0  0  0  0  0  0  0  0  0  0
    7.5299  -14.3478   20.1631 C   0  0  0  0  0  0  0  0  0  0  0  0
    6.8625  -15.4769   20.8763 C   0  0  0  0  0  0  0  0  0  0  0  0
    7.7537  -16.5503   21.3872 C   0  0  2  0  0  0  0  0  0  0  0  0
    6.9729  -17.6613   21.9632 N   0  0  0  0  0  0  0  0  0  0  0  0
    8.6585  -16.0182   22.4275 C   0  0  0  0  0  0  0  0  0  0  0  0
    9.5088  -15.1163   22.2514 O   0  0  0  0  0  0  0  0  0  0  0  0
    9.7095  -15.1758   16.0665 N   0  0  0  0  0  0  0  0  0  0  0  0
    8.5811  -16.5587   23.7541 C   0  0  1  0  0  0  0  0  0  0  0  0
    9.5488  -16.1570   24.7482 C   0  0  0  0  0  0  0  0  0  0  0  0
    8.8524  -16.0928   26.0776 C   0  0  0  0  0  0  0  0  0  0  0  0
    7.6713  -15.2069   26.0968 C   0  0  0  0  0  0  0  0  0  0  0  0
    6.3261  -15.4933   26.0013 N   0  0  0  0  0  0  0  0  0  0  0  0
    5.6657  -14.3259   26.0668 C   0  0  0  0  0  0  0  0  0  0  0  0
    6.5067  -13.2913   26.1999 C   0  0  0  0  0  0  0  0  0  0  0  0
    6.3403  -11.9229   26.3099 C   0  0  0  0  0  0  0  0  0  0  0  0
    7.4142  -11.0814   26.4395 C   0  0  0  0  0  0  0  0  0  0  0  0
    8.6848  -11.6030   26.4612 C   0  0  0  0  0  0  0  0  0  0  0  0
    8.8403  -12.9648   26.3515 C   0  0  0  0  0  0  0  0  0  0  0  0
    7.7616  -13.8381   26.2188 C   0  0  0  0  0  0  0  0  0  0  0  0
   10.6590  -17.1848   24.8284 O   0  0  0  0  0  0  0  0  0  0  0  0
   10.4579  -18.3031   25.3640 N   0  0  0  0  0  0  0  0  0  0  0  0
   13.1950  -15.1904   18.2237 C   0  0  0  0  0  0  0  0  0  0  0  0
   14.3276  -14.7299   18.9997 N   0  0  0  0  0  0  0  0  0  0  0  0
   15.0518  -13.8286   18.6365 N   0  0  0  0  0  0  0  0  0  0  0  0
   14.5932  -15.3851   20.2561 C   0  0  0  0  0  0  0  0  0  0  0  0
   13.6605  -16.3742   20.7186 C   0  0  0  0  0  0  0  0  0  0  0  0
   14.1549  -16.8818   22.0606 C   0  0  0  0  0  0  0  0  0  0  0  0
   13.1895  -17.9175   22.5528 C   0  0  1  0  0  0  0  0  0  0  0  0
   12.9522  -17.8838   24.0309 N   0  0  0  0  0  0  0  0  0  0  0  0
   11.9264  -16.8689   24.2938 C   0  0  0  0  0  0  0  0  0  0  0  0
   14.1631  -17.6212   24.8282 O   0  0  0  0  0  0  0  0  0  0  0  0
   14.3977  -16.5650   25.4495 O   0  0  0  0  0  0  0  0  0  0  0  0
  2  1  1  0
  3  2  2  0
  4  2  1  0
  5  4  1  0
  6  5  1  0
  7  6  1  0
  8 10  1  0
  8  9  1  1
  8  7  1  0
 10 12  1  0
 11 10  2  0
 12 13  1  0
 13 14  1  1
 14 15  1  0
 15 16  2  0
 15 23  1  0
 16 17  1  0
 17 18  1  0
 18 19  2  0
 19 20  1  0
 21 20  2  0
 22 21  1  0
 23 22  2  0
 23 18  1  0
 24 13  1  0
 25 24  2  0
 27 29  1  0
 27 26  1  0
 28 27  2  0
 30 31  1  0
 30 29  1  0
 31 32  1  0
 33 32  1  6
 33 34  1  0
 34 24  1  0
 35 37  1  0
 35 33  1  0
 36 35  2  0
M  END
$$$$
