RWR.pdb
     RDKit          3D

 37 38  0  0  1  0  0  0  0  0999 V2000
    8.4781  -13.2158   16.0609 N   0  0  0  0  0  0  0  0  0  0  0  0
    8.5389  -13.2437   17.4890 C   0  0  0  0  0  0  0  0  0  0  0  0
    8.4590  -12.1546   18.1888 N   0  0  0  0  0  0  0  0  0  0  0  0
    8.6895  -14.4626   18.2057 N   0  0  0  0  0  0  0  0  0  0  0  0
    8.8191  -15.7292   17.5236 C   0  0  0  0  0  0  0  0  0  0  0  0
    7.6378  -16.6528   17.8910 C   0  0  0  0  0  0  0  0  0  0  0  0
    8.2168  -17.9349   18.3906 C   0  0  0  0  0  0  0  0  0  0  0  0
    7.8601  -18.3200   19.7806 C   0  0  2  0  0  0  0  0  0  0  0  0
    6.4026  -18.2481   19.9955 N   0  0  0  0  0  0  0  0  0  0  0  0
    8.5265  -17.4261   20.7507 C   0  0  0  0  0  0  0  0  0  0  0  0
    9.7600  -17.2221   20.8143 O   0  0  0  0  0  0  0  0  0  0  0  0
    8.5663  -12.1146   19.2042 N   0  0  0  0  0  0  0  0  0  0  0  0
    7.7229  -16.7235   21.7091 C   0  0  1  0  0  0  0  0  0  0  0  0
    8.3440  -15.7813   22.6104 C   0  0  0  0  0  0  0  0  0  0  0  0
    7.2574  -14.9801   23.2689 C   0  0  0  0  0  0  0  0  0  0  0  0
    7.7414  -14.0449   24.3041 C   0  0  0  0  0  0  0  0  0  0  0  0
    8.9720  -13.4480   24.4774 N   0  0  0  0  0  0  0  0  0  0  0  0
    8.8925  -12.6871   25.5811 C   0  0  0  0  0  0  0  0  0  0  0  0
    7.6761  -12.7544   26.1389 C   0  0  0  0  0  0  0  0  0  0  0  0
    7.0942  -12.1775   27.2528 C   0  0  0  0  0  0  0  0  0  0  0  0
    5.7913  -12.4343   27.5913 C   0  0  0  0  0  0  0  0  0  0  0  0
    5.0431  -13.2817   26.8110 C   0  0  0  0  0  0  0  0  0  0  0  0
    5.6302  -13.8504   25.7052 C   0  0  0  0  0  0  0  0  0  0  0  0
    6.9537  -13.6026   25.3435 C   0  0  0  0  0  0  0  0  0  0  0  0
    9.1164  -16.5267   23.6797 O   0  0  0  0  0  0  0  0  0  0  0  0
    8.6559  -17.5809   24.1840 N   0  0  0  0  0  0  0  0  0  0  0  0
   14.0377  -14.7185   19.2847 C   0  0  0  0  0  0  0  0  0  0  0  0
   14.9177  -15.1186   20.3630 N   0  0  0  0  0  0  0  0  0  0  0  0
   16.0789  -15.4184   20.1885 N   0  0  0  0  0  0  0  0  0  0  0  0
   14.3717  -15.1597   21.6967 C   0  0  0  0  0  0  0  0  0  0  0  0
   14.7982  -16.2129   22.5748 C   0  0  0  0  0  0  0  0  0  0  0  0
   13.6523  -17.1997   22.7012 C   0  0  0  0  0  0  0  0  0  0  0  0
   12.3846  -16.4221   22.8892 C   0  0  2  0  0  0  0  0  0  0  0  0
   11.5912  -16.8216   24.0946 N   0  0  0  0  0  0  0  0  0  0  0  0
   10.3631  -16.0196   24.1047 C   0  0  0  0  0  0  0  0  0  0  0  0
   12.3190  -16.6785   25.3676 O   0  0  0  0  0  0  0  0  0  0  0  0
   12.1478  -15.7579   26.1921 O   0  0  0  0  0  0  0  0  0  0  0  0
  2  1  1  0
  3  2  2  0
  4  2  1  0
  5  4  1  0
  6  5  1  0
  7  6  1  0
  8 10  1  0
  8  9  1  6
  8  7  1  0
 10 12  1  0
 11 10  2  0
 12 13  1  0
 13 14  1  1
 14 15  1  0
 15 16  2  0
 15 23  1  0
 16 17  1  0
 17 18  1  0
 18 19  2  0
 19 20  1  0
 21 20  2  0
 22 21  1  0
 23 22  2  0
 23 18  1  0
 24 13  1  0
 25 24  2  0
 27 29  1  0
 27 26  1  0
 28 27  2  0
 30 31  1  0
 30 29  1  0
 31 32  1  0
 33 32  1  6
 33 34  1  0
 34 24  1  0
 35 37  1  0
 35 33  1  0
 36 35  2  0
M  END
$$$$
