RWR.pdb
     RDKit          3D

 37 38  0  0  1  0  0  0  0  0999 V2000
   10.2234  -14.6661   14.4183 N   0  0  0  0  0  0  0  0  0  0  0  0
    8.9944  -14.0589   14.0122 C   0  0  0  0  0  0  0  0  0  0  0  0
    8.4648  -14.3160   12.8565 N   0  0  0  0  0  0  0  0  0  0  0  0
    8.2985  -13.1478   14.8535 N   0  0  0  0  0  0  0  0  0  0  0  0
    8.5138  -13.1228   16.2815 C   0  0  0  0  0  0  0  0  0  0  0  0
    7.7814  -14.3066   16.9491 C   0  0  0  0  0  0  0  0  0  0  0  0
    7.9306  -14.1438   18.4257 C   0  0  0  0  0  0  0  0  0  0  0  0
    8.6374  -15.2383   19.1398 C   0  0  2  0  0  0  0  0  0  0  0  0
    7.8505  -16.4857   19.1146 N   0  0  0  0  0  0  0  0  0  0  0  0
    8.8829  -14.8617   20.5476 C   0  0  0  0  0  0  0  0  0  0  0  0
    9.5920  -13.9012   20.9243 O   0  0  0  0  0  0  0  0  0  0  0  0
    7.6081  -13.8821   12.5074 N   0  0  0  0  0  0  0  0  0  0  0  0
    8.2750  -15.6402   21.5880 C   0  0  1  0  0  0  0  0  0  0  0  0
    8.4750  -15.2691   22.9694 C   0  0  0  0  0  0  0  0  0  0  0  0
    7.1490  -14.8483   23.5359 C   0  0  0  0  0  0  0  0  0  0  0  0
    7.1315  -14.7345   25.0079 C   0  0  0  0  0  0  0  0  0  0  0  0
    7.1973  -15.7008   25.9891 N   0  0  0  0  0  0  0  0  0  0  0  0
    7.1369  -15.0697   27.1729 C   0  0  0  0  0  0  0  0  0  0  0  0
    7.0349  -13.7426   27.0187 C   0  0  0  0  0  0  0  0  0  0  0  0
    6.9447  -12.6755   27.8936 C   0  0  0  0  0  0  0  0  0  0  0  0
    6.8494  -11.3861   27.4393 C   0  0  0  0  0  0  0  0  0  0  0  0
    6.8430  -11.1429   26.0874 C   0  0  0  0  0  0  0  0  0  0  0  0
    6.9334  -12.2103   25.2252 C   0  0  0  0  0  0  0  0  0  0  0  0
    7.0310  -13.5292   25.6665 C   0  0  0  0  0  0  0  0  0  0  0  0
    8.9835  -16.4620   23.7529 O   0  0  0  0  0  0  0  0  0  0  0  0
    8.4592  -17.5940   23.6067 N   0  0  0  0  0  0  0  0  0  0  0  0
   17.8576  -18.2754   22.5633 C   0  0  0  0  0  0  0  0  0  0  0  0
   16.9013  -17.4114   23.2237 N   0  0  0  0  0  0  0  0  0  0  0  0
   17.1396  -16.8406   24.2659 N   0  0  0  0  0  0  0  0  0  0  0  0
   15.6124  -17.2356   22.6023 C   0  0  0  0  0  0  0  0  0  0  0  0
   14.6691  -16.3528   23.2293 C   0  0  0  0  0  0  0  0  0  0  0  0
   13.6358  -17.2098   23.9367 C   0  0  0  0  0  0  0  0  0  0  0  0
   12.3430  -16.4517   23.9691 C   0  0  1  0  0  0  0  0  0  0  0  0
   11.2296  -17.1646   24.6723 N   0  0  0  0  0  0  0  0  0  0  0  0
   10.0560  -16.2849   24.6531 C   0  0  0  0  0  0  0  0  0  0  0  0
   11.5534  -17.5735   26.0502 O   0  0  0  0  0  0  0  0  0  0  0  0
   11.0752  -17.0601   27.0819 O   0  0  0  0  0  0  0  0  0  0  0  0
  2  1  1  0
  3  2  2  0
  4  2  1  0
  5  4  1  0
  6  5  1  0
  7  6  1  0
  8 10  1  0
  8  9  1  1
  8  7  1  0
 10 12  1  0
 11 10  2  0
 12 13  1  0
 13 14  1  1
 14 15  1  0
 15 16  2  0
 15 23  1  0
 16 17  1  0
 17 18  1  0
 18 19  2  0
 19 20  1  0
 21 20  2  0
 22 21  1  0
 23 22  2  0
 23 18  1  0
 24 13  1  0
 25 24  2  0
 27 29  1  0
 27 26  1  0
 28 27  2  0
 30 31  1  0
 30 29  1  0
 31 32  1  0
 33 32  1  6
 33 34  1  0
 34 24  1  0
 35 37  1  0
 35 33  1  0
 36 35  2  0
M  END
$$$$
