RWR.pdb
     RDKit          3D

 37 38  0  0  1  0  0  0  0  0999 V2000
    8.4086  -14.7759   15.2118 N   0  0  0  0  0  0  0  0  0  0  0  0
    7.6695  -13.8336   15.9927 C   0  0  0  0  0  0  0  0  0  0  0  0
    7.3490  -12.6694   15.5192 N   0  0  0  0  0  0  0  0  0  0  0  0
    7.2534  -14.1281   17.3201 N   0  0  0  0  0  0  0  0  0  0  0  0
    7.5582  -15.3946   17.9441 C   0  0  0  0  0  0  0  0  0  0  0  0
    6.8998  -15.4710   19.3385 C   0  0  0  0  0  0  0  0  0  0  0  0
    7.9630  -15.1838   20.3465 C   0  0  0  0  0  0  0  0  0  0  0  0
    8.4241  -16.3368   21.1623 C   0  0  2  0  0  0  0  0  0  0  0  0
    7.2825  -17.1262   21.6615 N   0  0  0  0  0  0  0  0  0  0  0  0
    9.2165  -15.8670   22.3180 C   0  0  0  0  0  0  0  0  0  0  0  0
   10.1600  -15.0462   22.2600 O   0  0  0  0  0  0  0  0  0  0  0  0
    6.8600  -11.9472   16.0515 N   0  0  0  0  0  0  0  0  0  0  0  0
    8.9043  -16.3746   23.6230 C   0  0  1  0  0  0  0  0  0  0  0  0
    9.7662  -16.0599   24.7383 C   0  0  0  0  0  0  0  0  0  0  0  0
    8.9381  -16.0920   25.9912 C   0  0  0  0  0  0  0  0  0  0  0  0
    7.7086  -15.2773   25.9218 C   0  0  0  0  0  0  0  0  0  0  0  0
    6.4016  -15.6350   25.6681 N   0  0  0  0  0  0  0  0  0  0  0  0
    5.6664  -14.5121   25.7137 C   0  0  0  0  0  0  0  0  0  0  0  0
    6.4225  -13.4393   25.9835 C   0  0  0  0  0  0  0  0  0  0  0  0
    6.1604  -12.0901   26.1360 C   0  0  0  0  0  0  0  0  0  0  0  0
    7.1600  -11.1963   26.4189 C   0  0  0  0  0  0  0  0  0  0  0  0
    8.4512  -11.6447   26.5551 C   0  0  0  0  0  0  0  0  0  0  0  0
    8.7021  -12.9881   26.4020 C   0  0  0  0  0  0  0  0  0  0  0  0
    7.7000  -13.9137   26.1140 C   0  0  0  0  0  0  0  0  0  0  0  0
   10.8611  -17.1010   24.8507 O   0  0  0  0  0  0  0  0  0  0  0  0
   10.5851  -18.2904   25.1454 N   0  0  0  0  0  0  0  0  0  0  0  0
   20.2906  -18.4716   23.2670 C   0  0  0  0  0  0  0  0  0  0  0  0
   19.2167  -17.5089   23.1368 N   0  0  0  0  0  0  0  0  0  0  0  0
   19.3938  -16.3118   23.2036 N   0  0  0  0  0  0  0  0  0  0  0  0
   17.8834  -18.0134   22.9217 C   0  0  0  0  0  0  0  0  0  0  0  0
   16.7761  -17.1257   23.1405 C   0  0  0  0  0  0  0  0  0  0  0  0
   15.6820  -17.9160   23.8342 C   0  0  0  0  0  0  0  0  0  0  0  0
   14.4514  -17.0618   23.8887 C   0  0  1  0  0  0  0  0  0  0  0  0
   13.3152  -17.6684   24.6524 N   0  0  0  0  0  0  0  0  0  0  0  0
   12.1995  -16.7166   24.6209 C   0  0  0  0  0  0  0  0  0  0  0  0
   13.6508  -18.0340   26.0397 O   0  0  0  0  0  0  0  0  0  0  0  0
   13.4290  -17.3249   27.0420 O   0  0  0  0  0  0  0  0  0  0  0  0
  2  1  1  0
  3  2  2  0
  4  2  1  0
  5  4  1  0
  6  5  1  0
  7  6  1  0
  8 10  1  0
  8  9  1  1
  8  7  1  0
 10 12  1  0
 11 10  2  0
 12 13  1  0
 13 14  1  1
 14 15  1  0
 15 16  2  0
 15 23  1  0
 16 17  1  0
 17 18  1  0
 18 19  2  0
 19 20  1  0
 21 20  2  0
 22 21  1  0
 23 22  2  0
 23 18  1  0
 24 13  1  0
 25 24  2  0
 27 29  1  0
 27 26  1  0
 28 27  2  0
 30 31  1  0
 30 29  1  0
 31 32  1  0
 33 32  1  6
 33 34  1  0
 34 24  1  0
 35 37  1  0
 35 33  1  0
 36 35  2  0
M  END
$$$$
