RWR.pdb
     RDKit          3D

 37 38  0  0  1  0  0  0  0  0999 V2000
    7.0958  -15.0467   16.0563 N   0  0  0  0  0  0  0  0  0  0  0  0
    7.6908  -13.7647   16.2716 C   0  0  0  0  0  0  0  0  0  0  0  0
    7.5262  -12.7944   15.4267 N   0  0  0  0  0  0  0  0  0  0  0  0
    8.4880  -13.4951   17.4178 N   0  0  0  0  0  0  0  0  0  0  0  0
    7.9011  -13.3534   18.7300 C   0  0  0  0  0  0  0  0  0  0  0  0
    7.2918  -14.6966   19.1863 C   0  0  0  0  0  0  0  0  0  0  0  0
    7.4252  -14.7614   20.6719 C   0  0  0  0  0  0  0  0  0  0  0  0
    8.0696  -15.9822   21.2214 C   0  0  2  0  0  0  0  0  0  0  0  0
    7.0611  -16.9619   21.6671 N   0  0  0  0  0  0  0  0  0  0  0  0
    8.9341  -15.6371   22.3693 C   0  0  0  0  0  0  0  0  0  0  0  0
    9.8373  -14.7702   22.3573 O   0  0  0  0  0  0  0  0  0  0  0  0
    7.9968  -11.8897   15.4917 N   0  0  0  0  0  0  0  0  0  0  0  0
    8.7487  -16.3345   23.6092 C   0  0  1  0  0  0  0  0  0  0  0  0
    9.7078  -16.1654   24.6757 C   0  0  0  0  0  0  0  0  0  0  0  0
    8.9647  -16.1989   25.9808 C   0  0  0  0  0  0  0  0  0  0  0  0
    7.7485  -15.3619   26.0032 C   0  0  0  0  0  0  0  0  0  0  0  0
    6.4257  -15.6854   25.7885 N   0  0  0  0  0  0  0  0  0  0  0  0
    5.7137  -14.5543   25.9195 C   0  0  0  0  0  0  0  0  0  0  0  0
    6.4999  -13.5084   26.2082 C   0  0  0  0  0  0  0  0  0  0  0  0
    6.2692  -12.1642   26.4365 C   0  0  0  0  0  0  0  0  0  0  0  0
    7.2959  -11.3017   26.7193 C   0  0  0  0  0  0  0  0  0  0  0  0
    8.5832  -11.7772   26.7786 C   0  0  0  0  0  0  0  0  0  0  0  0
    8.8029  -13.1153   26.5504 C   0  0  0  0  0  0  0  0  0  0  0  0
    7.7729  -14.0093   26.2611 C   0  0  0  0  0  0  0  0  0  0  0  0
   10.7061  -17.3049   24.6537 O   0  0  0  0  0  0  0  0  0  0  0  0
   10.3384  -18.4720   24.3701 N   0  0  0  0  0  0  0  0  0  0  0  0
   13.6914  -14.4039   18.4150 C   0  0  0  0  0  0  0  0  0  0  0  0
   15.0251  -14.4943   18.9719 N   0  0  0  0  0  0  0  0  0  0  0  0
   16.0272  -14.3235   18.3119 N   0  0  0  0  0  0  0  0  0  0  0  0
   15.1489  -14.8049   20.3742 C   0  0  0  0  0  0  0  0  0  0  0  0
   13.9497  -14.9040   21.1580 C   0  0  0  0  0  0  0  0  0  0  0  0
   13.9102  -16.2939   21.7659 C   0  0  0  0  0  0  0  0  0  0  0  0
   12.8403  -16.3145   22.8156 C   0  0  1  0  0  0  0  0  0  0  0  0
   13.1395  -17.2056   23.9812 N   0  0  0  0  0  0  0  0  0  0  0  0
   12.0582  -17.0385   24.9581 C   0  0  0  0  0  0  0  0  0  0  0  0
   14.4507  -16.9581   24.6058 O   0  0  0  0  0  0  0  0  0  0  0  0
   14.6414  -16.2548   25.6186 O   0  0  0  0  0  0  0  0  0  0  0  0
  2  1  1  0
  3  2  2  0
  4  2  1  0
  5  4  1  0
  6  5  1  0
  7  6  1  0
  8 10  1  0
  8  9  1  1
  8  7  1  0
 10 12  1  0
 11 10  2  0
 12 13  1  0
 13 14  1  1
 14 15  1  0
 15 16  2  0
 15 23  1  0
 16 17  1  0
 17 18  1  0
 18 19  2  0
 19 20  1  0
 21 20  2  0
 22 21  1  0
 23 22  2  0
 23 18  1  0
 24 13  1  0
 25 24  2  0
 27 29  1  0
 27 26  1  0
 28 27  2  0
 30 31  1  0
 30 29  1  0
 31 32  1  0
 33 32  1  6
 33 34  1  0
 34 24  1  0
 35 37  1  0
 35 33  1  0
 36 35  2  0
M  END
$$$$
