PCN.pdb
     RDKit          3D

 22 22  0  0  1  0  0  0  0  0999 V2000
    8.8422  -13.3153   19.4368 N   0  0  0  0  0  0  0  0  0  0  0  0
    8.2214  -13.6217   18.1605 C   0  0  0  0  0  0  0  0  0  0  0  0
    7.1731  -14.6916   18.4841 C   0  0  0  0  0  0  0  0  0  0  0  0
    6.7977  -14.3880   19.9172 C   0  0  0  0  0  0  0  0  0  0  0  0
    7.7707  -13.3338   20.4109 C   0  0  1  0  0  0  0  0  0  0  0  0
    8.3073  -13.8124   21.6959 C   0  0  0  0  0  0  0  0  0  0  0  0
    9.4559  -14.3193   21.7003 O   0  0  0  0  0  0  0  0  0  0  0  0
    7.5633  -13.7152   22.9203 N   0  0  0  0  0  0  0  0  0  0  0  0
    8.1389  -14.2960   24.0785 C   0  0  1  0  0  0  0  0  0  0  0  0
    7.1935  -13.9607   25.2445 C   0  0  0  0  0  0  0  0  0  0  0  0
    7.2164  -12.1980   25.5801 S   0  0  0  0  0  0  0  0  0  0  0  0
    8.2076  -15.7761   24.0473 C   0  0  0  0  0  0  0  0  0  0  0  0
    7.5304  -16.3062   23.1341 O   0  0  0  0  0  0  0  0  0  0  0  0
   10.2370  -19.4212   22.3686 N   0  0  0  0  0  0  0  0  0  0  0  0
   10.9135  -18.1662   22.3624 C   0  0  0  0  0  0  0  0  0  0  0  0
   11.6497  -17.9297   21.3505 O   0  0  0  0  0  0  0  0  0  0  0  0
   10.7817  -17.1892   23.4517 C   0  0  0  0  0  0  0  0  0  0  0  0
    9.8636  -17.5773   24.5561 C   0  0  2  0  0  0  0  0  0  0  0  0
    8.9524  -16.5464   24.9421 N   0  0  0  0  0  0  0  0  0  0  0  0
   10.5652  -18.2553   25.6698 C   0  0  0  0  0  0  0  0  0  0  0  0
   10.5240  -19.4897   25.8762 O   0  0  0  0  0  0  0  0  0  0  0  0
   11.3437  -17.5204   26.5846 O   0  0  0  0  0  0  0  0  0  0  0  0
  1  5  1  0
  2  1  1  0
  3  2  1  0
  3  4  1  0
  4  5  1  0
  6  8  1  0
  5  6  1  1
  7  6  2  0
  9 10  1  1
  9  8  1  0
 11 10  1  0
 12  9  1  0
 12 19  1  0
 13 12  2  0
 15 14  1  0
 16 15  2  0
 17 15  1  0
 18 19  1  0
 18 17  1  6
 20 18  1  0
 21 20  2  0
 22 20  1  0
M  END
$$$$
