PCN.pdb
     RDKit          3D

 22 22  0  0  1  0  0  0  0  0999 V2000
    6.7536  -14.7841   20.8643 N   0  0  0  0  0  0  0  0  0  0  0  0
    6.0614  -14.1532   19.7548 C   0  0  0  0  0  0  0  0  0  0  0  0
    6.7070  -12.7690   19.6292 C   0  0  0  0  0  0  0  0  0  0  0  0
    8.1090  -12.9910   20.1506 C   0  0  0  0  0  0  0  0  0  0  0  0
    8.1413  -14.3891   20.7390 C   0  0  1  0  0  0  0  0  0  0  0  0
    8.7245  -14.2750   22.0862 C   0  0  0  0  0  0  0  0  0  0  0  0
    9.9592  -14.0652   22.1757 O   0  0  0  0  0  0  0  0  0  0  0  0
    7.9310  -14.3954   23.2770 N   0  0  0  0  0  0  0  0  0  0  0  0
    8.6177  -14.4081   24.5172 C   0  0  1  0  0  0  0  0  0  0  0  0
    7.6469  -13.8176   25.5540 C   0  0  0  0  0  0  0  0  0  0  0  0
    6.1798  -14.8419   25.6903 S   0  0  0  0  0  0  0  0  0  0  0  0
    8.9441  -15.7640   25.0186 C   0  0  0  0  0  0  0  0  0  0  0  0
    8.0304  -16.6083   24.8585 O   0  0  0  0  0  0  0  0  0  0  0  0
   11.8370  -18.3829   23.2198 N   0  0  0  0  0  0  0  0  0  0  0  0
   12.2472  -17.5818   24.3255 C   0  0  0  0  0  0  0  0  0  0  0  0
   12.9916  -16.5854   24.0519 O   0  0  0  0  0  0  0  0  0  0  0  0
   11.8447  -17.8731   25.7081 C   0  0  0  0  0  0  0  0  0  0  0  0
   10.4811  -17.4175   26.0905 C   0  0  2  0  0  0  0  0  0  0  0  0
   10.1549  -16.1073   25.6224 N   0  0  0  0  0  0  0  0  0  0  0  0
   10.1700  -17.6796   27.5141 C   0  0  0  0  0  0  0  0  0  0  0  0
    9.7578  -16.8083   28.3135 O   0  0  0  0  0  0  0  0  0  0  0  0
   10.3255  -18.9683   28.0602 O   0  0  0  0  0  0  0  0  0  0  0  0
  1  5  1  0
  2  1  1  0
  3  2  1  0
  3  4  1  0
  4  5  1  0
  6  8  1  0
  5  6  1  1
  7  6  2  0
  9 10  1  1
  9  8  1  0
 11 10  1  0
 12  9  1  0
 12 19  1  0
 13 12  2  0
 15 14  1  0
 16 15  2  0
 17 15  1  0
 18 19  1  0
 18 17  1  1
 20 18  1  0
 21 20  2  0
 22 20  1  0
M  END
$$$$
