PCN.pdb
     RDKit          3D

 22 22  0  0  1  0  0  0  0  0999 V2000
    6.8801  -14.5071   20.1243 N   0  0  0  0  0  0  0  0  0  0  0  0
    6.4322  -13.7414   18.9750 C   0  0  0  0  0  0  0  0  0  0  0  0
    7.1683  -12.4021   19.0882 C   0  0  0  0  0  0  0  0  0  0  0  0
    8.4411  -12.7659   19.8193 C   0  0  0  0  0  0  0  0  0  0  0  0
    8.2884  -14.2051   20.2748 C   0  0  1  0  0  0  0  0  0  0  0  0
    8.6301  -14.2413   21.7066 C   0  0  0  0  0  0  0  0  0  0  0  0
    9.8456  -14.2711   22.0196 O   0  0  0  0  0  0  0  0  0  0  0  0
    7.6264  -14.2432   22.7335 N   0  0  0  0  0  0  0  0  0  0  0  0
    8.0707  -14.1507   24.0767 C   0  0  1  0  0  0  0  0  0  0  0  0
    6.8502  -13.7158   24.9058 C   0  0  0  0  0  0  0  0  0  0  0  0
    7.2813  -13.6116   26.6446 S   0  0  0  0  0  0  0  0  0  0  0  0
    8.5009  -15.4407   24.6659 C   0  0  0  0  0  0  0  0  0  0  0  0
    7.6611  -16.3658   24.5544 O   0  0  0  0  0  0  0  0  0  0  0  0
   13.3316  -18.6624   26.1220 N   0  0  0  0  0  0  0  0  0  0  0  0
   12.1973  -18.4959   25.2744 C   0  0  0  0  0  0  0  0  0  0  0  0
   11.7141  -19.5594   24.7671 O   0  0  0  0  0  0  0  0  0  0  0  0
   11.6059  -17.1814   24.9905 C   0  0  0  0  0  0  0  0  0  0  0  0
   10.2753  -16.9283   25.6059 C   0  0  2  0  0  0  0  0  0  0  0  0
    9.7287  -15.6444   25.2980 N   0  0  0  0  0  0  0  0  0  0  0  0
   10.2243  -17.3150   27.0343 C   0  0  0  0  0  0  0  0  0  0  0  0
   10.6089  -18.4223   27.4749 O   0  0  0  0  0  0  0  0  0  0  0  0
    9.7250  -16.4247   28.0043 O   0  0  0  0  0  0  0  0  0  0  0  0
  1  5  1  0
  2  1  1  0
  3  2  1  0
  3  4  1  0
  4  5  1  0
  6  8  1  0
  5  6  1  1
  7  6  2  0
  9 10  1  1
  9  8  1  0
 11 10  1  0
 12  9  1  0
 12 19  1  0
 13 12  2  0
 15 14  1  0
 16 15  2  0
 17 15  1  0
 18 19  1  0
 18 17  1  1
 20 18  1  0
 21 20  2  0
 22 20  1  0
M  END
$$$$
