PCN.pdb
     RDKit          3D

 22 22  0  0  1  0  0  0  0  0999 V2000
    6.7133  -14.6440   20.8843 N   0  0  0  0  0  0  0  0  0  0  0  0
    6.1333  -13.9309   19.7604 C   0  0  0  0  0  0  0  0  0  0  0  0
    6.9460  -12.6357   19.6594 C   0  0  0  0  0  0  0  0  0  0  0  0
    8.2960  -13.0283   20.2164 C   0  0  0  0  0  0  0  0  0  0  0  0
    8.1416  -14.4212   20.7978 C   0  0  1  0  0  0  0  0  0  0  0  0
    8.6980  -14.3822   22.1605 C   0  0  0  0  0  0  0  0  0  0  0  0
    9.9435  -14.2816   22.2836 O   0  0  0  0  0  0  0  0  0  0  0  0
    7.8670  -14.4548   23.3294 N   0  0  0  0  0  0  0  0  0  0  0  0
    8.5169  -14.4646   24.5894 C   0  0  1  0  0  0  0  0  0  0  0  0
    7.5408  -13.8125   25.5833 C   0  0  0  0  0  0  0  0  0  0  0  0
    5.9819  -14.7012   25.6022 S   0  0  0  0  0  0  0  0  0  0  0  0
    8.7751  -15.8198   25.1307 C   0  0  0  0  0  0  0  0  0  0  0  0
    7.8015  -16.6058   25.0432 O   0  0  0  0  0  0  0  0  0  0  0  0
   12.5780  -17.2804   23.5349 N   0  0  0  0  0  0  0  0  0  0  0  0
   11.5844  -18.0837   24.1675 C   0  0  0  0  0  0  0  0  0  0  0  0
   10.8042  -18.7262   23.3926 O   0  0  0  0  0  0  0  0  0  0  0  0
   11.4524  -18.1776   25.6277 C   0  0  0  0  0  0  0  0  0  0  0  0
   10.2444  -17.5310   26.2071 C   0  0  2  0  0  0  0  0  0  0  0  0
    9.9864  -16.2214   25.6966 N   0  0  0  0  0  0  0  0  0  0  0  0
   10.1771  -17.6636   27.6802 C   0  0  0  0  0  0  0  0  0  0  0  0
   10.3633  -18.7377   28.2966 O   0  0  0  0  0  0  0  0  0  0  0  0
    9.8922  -16.5486   28.4918 O   0  0  0  0  0  0  0  0  0  0  0  0
  1  5  1  0
  2  1  1  0
  3  2  1  0
  3  4  1  0
  4  5  1  0
  6  8  1  0
  5  6  1  1
  7  6  2  0
  9 10  1  1
  9  8  1  0
 11 10  1  0
 12  9  1  0
 12 19  1  0
 13 12  2  0
 15 14  1  0
 16 15  2  0
 17 15  1  0
 18 19  1  0
 18 17  1  1
 20 18  1  0
 21 20  2  0
 22 20  1  0
M  END
$$$$
