PCN.pdb
     RDKit          3D

 22 22  0  0  1  0  0  0  0  0999 V2000
    7.0084  -14.7399   20.6697 N   0  0  0  0  0  0  0  0  0  0  0  0
    6.6849  -14.1668   19.3755 C   0  0  0  0  0  0  0  0  0  0  0  0
    7.4049  -12.8141   19.3575 C   0  0  0  0  0  0  0  0  0  0  0  0
    8.5929  -13.0408   20.2652 C   0  0  0  0  0  0  0  0  0  0  0  0
    8.3928  -14.3954   20.9185 C   0  0  1  0  0  0  0  0  0  0  0  0
    8.5807  -14.2062   22.3666 C   0  0  0  0  0  0  0  0  0  0  0  0
    9.7563  -14.1487   22.8036 O   0  0  0  0  0  0  0  0  0  0  0  0
    7.4736  -14.0880   23.2734 N   0  0  0  0  0  0  0  0  0  0  0  0
    7.7745  -13.9473   24.6517 C   0  0  1  0  0  0  0  0  0  0  0  0
    6.6497  -13.0876   25.2533 C   0  0  0  0  0  0  0  0  0  0  0  0
    6.9201  -12.8458   27.0107 S   0  0  0  0  0  0  0  0  0  0  0  0
    7.7430  -15.2175   25.4146 C   0  0  0  0  0  0  0  0  0  0  0  0
    6.8026  -15.9860   25.1009 O   0  0  0  0  0  0  0  0  0  0  0  0
   10.3476  -19.5214   26.6809 N   0  0  0  0  0  0  0  0  0  0  0  0
   10.3568  -18.7960   25.4535 C   0  0  0  0  0  0  0  0  0  0  0  0
   10.8828  -19.3870   24.4556 O   0  0  0  0  0  0  0  0  0  0  0  0
    9.7969  -17.4436   25.3277 C   0  0  0  0  0  0  0  0  0  0  0  0
    9.2197  -16.8682   26.5723 C   0  0  2  0  0  0  0  0  0  0  0  0
    8.6652  -15.5618   26.4043 N   0  0  0  0  0  0  0  0  0  0  0  0
   10.1089  -17.0354   27.7442 C   0  0  0  0  0  0  0  0  0  0  0  0
    9.8821  -17.8252   28.6892 O   0  0  0  0  0  0  0  0  0  0  0  0
   11.2980  -16.2899   27.8587 O   0  0  0  0  0  0  0  0  0  0  0  0
  1  5  1  0
  2  1  1  0
  3  2  1  0
  3  4  1  0
  4  5  1  0
  6  8  1  0
  5  6  1  1
  7  6  2  0
  9 10  1  1
  9  8  1  0
 11 10  1  0
 12  9  1  0
 12 19  1  0
 13 12  2  0
 15 14  1  0
 16 15  2  0
 17 15  1  0
 18 19  1  0
 18 17  1  6
 20 18  1  0
 21 20  2  0
 22 20  1  0
M  END
$$$$
