PCN.pdb
     RDKit          3D

 22 22  0  0  1  0  0  0  0  0999 V2000
    6.9622  -14.7766   19.9199 N   0  0  0  0  0  0  0  0  0  0  0  0
    6.5163  -14.0127   18.7685 C   0  0  0  0  0  0  0  0  0  0  0  0
    7.2367  -12.6657   18.8919 C   0  0  0  0  0  0  0  0  0  0  0  0
    8.5067  -13.0176   19.6334 C   0  0  0  0  0  0  0  0  0  0  0  0
    8.3658  -14.4595   20.0838 C   0  0  1  0  0  0  0  0  0  0  0  0
    8.6949  -14.4958   21.5185 C   0  0  0  0  0  0  0  0  0  0  0  0
    9.9063  -14.4443   21.8446 O   0  0  0  0  0  0  0  0  0  0  0  0
    7.6838  -14.5869   22.5341 N   0  0  0  0  0  0  0  0  0  0  0  0
    8.1102  -14.5146   23.8843 C   0  0  1  0  0  0  0  0  0  0  0  0
    6.8483  -14.2456   24.7215 C   0  0  0  0  0  0  0  0  0  0  0  0
    7.2843  -13.9849   26.4426 S   0  0  0  0  0  0  0  0  0  0  0  0
    8.6664  -15.7813   24.4157 C   0  0  0  0  0  0  0  0  0  0  0  0
    7.9193  -16.7776   24.2651 O   0  0  0  0  0  0  0  0  0  0  0  0
   11.0400  -18.2299   22.8742 N   0  0  0  0  0  0  0  0  0  0  0  0
   12.0286  -17.6112   23.6945 C   0  0  0  0  0  0  0  0  0  0  0  0
   13.1002  -17.2511   23.1080 O   0  0  0  0  0  0  0  0  0  0  0  0
   11.8401  -17.3933   25.1351 C   0  0  0  0  0  0  0  0  0  0  0  0
   10.4448  -17.1084   25.5653 C   0  0  2  0  0  0  0  0  0  0  0  0
    9.9117  -15.8925   25.0365 N   0  0  0  0  0  0  0  0  0  0  0  0
   10.2424  -17.3125   27.0178 C   0  0  0  0  0  0  0  0  0  0  0  0
   10.5181  -18.3744   27.6216 O   0  0  0  0  0  0  0  0  0  0  0  0
    9.7129  -16.2856   27.8228 O   0  0  0  0  0  0  0  0  0  0  0  0
  1  5  1  0
  2  1  1  0
  3  2  1  0
  3  4  1  0
  4  5  1  0
  6  8  1  0
  5  6  1  1
  7  6  2  0
  9 10  1  1
  9  8  1  0
 11 10  1  0
 12  9  1  0
 12 19  1  0
 13 12  2  0
 15 14  1  0
 16 15  2  0
 17 15  1  0
 18 19  1  0
 18 17  1  1
 20 18  1  0
 21 20  2  0
 22 20  1  0
M  END
$$$$
