PCN.pdb
     RDKit          3D

 22 22  0  0  1  0  0  0  0  0999 V2000
    6.8714  -14.8086   20.7522 N   0  0  0  0  0  0  0  0  0  0  0  0
    6.4355  -14.2988   19.4645 C   0  0  0  0  0  0  0  0  0  0  0  0
    7.2237  -12.9986   19.2731 C   0  0  0  0  0  0  0  0  0  0  0  0
    8.4927  -13.2429   20.0585 C   0  0  0  0  0  0  0  0  0  0  0  0
    8.2923  -14.5380   20.8228 C   0  0  1  0  0  0  0  0  0  0  0  0
    8.6542  -14.2702   22.2247 C   0  0  0  0  0  0  0  0  0  0  0  0
    9.8730  -14.1633   22.5065 O   0  0  0  0  0  0  0  0  0  0  0  0
    7.6661  -14.1309   23.2574 N   0  0  0  0  0  0  0  0  0  0  0  0
    8.1310  -13.8658   24.5703 C   0  0  1  0  0  0  0  0  0  0  0  0
    6.9541  -13.2222   25.3230 C   0  0  0  0  0  0  0  0  0  0  0  0
    7.4435  -12.7891   26.9943 S   0  0  0  0  0  0  0  0  0  0  0  0
    8.4750  -15.0779   25.3506 C   0  0  0  0  0  0  0  0  0  0  0  0
    7.5357  -15.9009   25.4685 O   0  0  0  0  0  0  0  0  0  0  0  0
   11.3188  -19.6908   26.2818 N   0  0  0  0  0  0  0  0  0  0  0  0
   11.7716  -18.3954   26.6688 C   0  0  0  0  0  0  0  0  0  0  0  0
   12.5960  -18.3549   27.6386 O   0  0  0  0  0  0  0  0  0  0  0  0
   11.3240  -17.1665   25.9995 C   0  0  0  0  0  0  0  0  0  0  0  0
   10.1023  -16.5342   26.5658 C   0  0  2  0  0  0  0  0  0  0  0  0
    9.7272  -15.3160   25.9198 N   0  0  0  0  0  0  0  0  0  0  0  0
   10.1157  -16.4909   28.0458 C   0  0  0  0  0  0  0  0  0  0  0  0
   10.2397  -15.4399   28.7152 O   0  0  0  0  0  0  0  0  0  0  0  0
    9.9829  -17.6711   28.8024 O   0  0  0  0  0  0  0  0  0  0  0  0
  1  5  1  0
  2  1  1  0
  3  2  1  0
  3  4  1  0
  4  5  1  0
  6  8  1  0
  5  6  1  1
  7  6  2  0
  9 10  1  1
  9  8  1  0
 11 10  1  0
 12  9  1  0
 12 19  1  0
 13 12  2  0
 15 14  1  0
 16 15  2  0
 17 15  1  0
 18 19  1  0
 18 17  1  6
 20 18  1  0
 21 20  2  0
 22 20  1  0
M  END
$$$$
