PCN.pdb
     RDKit          3D

 22 22  0  0  1  0  0  0  0  0999 V2000
    7.0240  -15.0914   21.2558 N   0  0  0  0  0  0  0  0  0  0  0  0
    6.4255  -14.5268   20.0595 C   0  0  0  0  0  0  0  0  0  0  0  0
    7.2173  -13.2412   19.7973 C   0  0  0  0  0  0  0  0  0  0  0  0
    8.5768  -13.5442   20.3859 C   0  0  0  0  0  0  0  0  0  0  0  0
    8.4481  -14.8595   21.1313 C   0  0  1  0  0  0  0  0  0  0  0  0
    9.0127  -14.6491   22.4748 C   0  0  0  0  0  0  0  0  0  0  0  0
   10.2514  -14.4669   22.5693 O   0  0  0  0  0  0  0  0  0  0  0  0
    8.1970  -14.6473   23.6566 N   0  0  0  0  0  0  0  0  0  0  0  0
    8.8290  -14.3177   24.8822 C   0  0  1  0  0  0  0  0  0  0  0  0
    7.8434  -13.4185   25.6477 C   0  0  0  0  0  0  0  0  0  0  0  0
    8.5767  -12.8556   27.1857 S   0  0  0  0  0  0  0  0  0  0  0  0
    9.0705  -15.4766   25.7737 C   0  0  0  0  0  0  0  0  0  0  0  0
    8.0279  -16.0517   26.1682 O   0  0  0  0  0  0  0  0  0  0  0  0
   12.8171  -17.8421   24.4439 N   0  0  0  0  0  0  0  0  0  0  0  0
   11.7865  -18.2720   25.3303 C   0  0  0  0  0  0  0  0  0  0  0  0
   10.9098  -19.0525   24.8362 O   0  0  0  0  0  0  0  0  0  0  0  0
   11.7225  -17.8496   26.7360 C   0  0  0  0  0  0  0  0  0  0  0  0
   10.5727  -16.9758   27.0932 C   0  0  2  0  0  0  0  0  0  0  0  0
   10.3366  -15.9183   26.1616 N   0  0  0  0  0  0  0  0  0  0  0  0
   10.5805  -16.5769   28.5191 C   0  0  0  0  0  0  0  0  0  0  0  0
   10.5025  -17.3841   29.4733 O   0  0  0  0  0  0  0  0  0  0  0  0
   10.6816  -15.2215   28.8875 O   0  0  0  0  0  0  0  0  0  0  0  0
  1  5  1  0
  2  1  1  0
  3  2  1  0
  3  4  1  0
  4  5  1  0
  6  8  1  0
  5  6  1  1
  7  6  2  0
  9 10  1  1
  9  8  1  0
 11 10  1  0
 12  9  1  0
 12 19  1  0
 13 12  2  0
 15 14  1  0
 16 15  2  0
 17 15  1  0
 18 19  1  0
 18 17  1  6
 20 18  1  0
 21 20  2  0
 22 20  1  0
M  END
$$$$
