PCN.pdb
     RDKit          3D

 22 22  0  0  1  0  0  0  0  0999 V2000
    6.8642  -14.7416   20.7517 N   0  0  0  0  0  0  0  0  0  0  0  0
    6.2986  -14.1218   19.5667 C   0  0  0  0  0  0  0  0  0  0  0  0
    7.0343  -12.7836   19.4381 C   0  0  0  0  0  0  0  0  0  0  0  0
    8.3762  -13.0621   20.0772 C   0  0  0  0  0  0  0  0  0  0  0  0
    8.2787  -14.4324   20.7212 C   0  0  1  0  0  0  0  0  0  0  0  0
    8.7626  -14.2925   22.1048 C   0  0  0  0  0  0  0  0  0  0  0  0
    9.9811  -14.0448   22.2785 O   0  0  0  0  0  0  0  0  0  0  0  0
    7.8917  -14.4297   23.2382 N   0  0  0  0  0  0  0  0  0  0  0  0
    8.4910  -14.4234   24.5231 C   0  0  1  0  0  0  0  0  0  0  0  0
    7.4895  -13.7307   25.4629 C   0  0  0  0  0  0  0  0  0  0  0  0
    5.9211  -14.6027   25.4566 S   0  0  0  0  0  0  0  0  0  0  0  0
    8.7009  -15.7706   25.1037 C   0  0  0  0  0  0  0  0  0  0  0  0
    7.7175  -16.5411   24.9912 O   0  0  0  0  0  0  0  0  0  0  0  0
   11.2029  -19.4260   23.4993 N   0  0  0  0  0  0  0  0  0  0  0  0
   11.4299  -18.2165   24.2192 C   0  0  0  0  0  0  0  0  0  0  0  0
   11.7142  -17.1911   23.5195 O   0  0  0  0  0  0  0  0  0  0  0  0
   11.3453  -18.1380   25.6838 C   0  0  0  0  0  0  0  0  0  0  0  0
   10.1139  -17.5011   26.2236 C   0  0  2  0  0  0  0  0  0  0  0  0
    9.8794  -16.1809   25.7293 N   0  0  0  0  0  0  0  0  0  0  0  0
    9.9829  -17.6636   27.6895 C   0  0  0  0  0  0  0  0  0  0  0  0
   10.0806  -18.7611   28.2846 O   0  0  0  0  0  0  0  0  0  0  0  0
    9.7352  -16.5524   28.5183 O   0  0  0  0  0  0  0  0  0  0  0  0
  1  5  1  0
  2  1  1  0
  3  2  1  0
  3  4  1  0
  4  5  1  0
  6  8  1  0
  5  6  1  1
  7  6  2  0
  9 10  1  1
  9  8  1  0
 11 10  1  0
 12  9  1  0
 12 19  1  0
 13 12  2  0
 15 14  1  0
 16 15  2  0
 17 15  1  0
 18 19  1  0
 18 17  1  1
 20 18  1  0
 21 20  2  0
 22 20  1  0
M  END
$$$$
