PCN.pdb
     RDKit          3D

 22 22  0  0  1  0  0  0  0  0999 V2000
    7.5790  -14.8419   19.0631 N   0  0  0  0  0  0  0  0  0  0  0  0
    6.9623  -13.9707   18.0788 C   0  0  0  0  0  0  0  0  0  0  0  0
    7.4473  -12.5639   18.4453 C   0  0  0  0  0  0  0  0  0  0  0  0
    8.7884  -12.8175   19.0965 C   0  0  0  0  0  0  0  0  0  0  0  0
    8.9137  -14.3195   19.2707 C   0  0  1  0  0  0  0  0  0  0  0  0
    9.3034  -14.5588   20.6703 C   0  0  0  0  0  0  0  0  0  0  0  0
   10.4855  -14.2982   21.0035 O   0  0  0  0  0  0  0  0  0  0  0  0
    8.3821  -15.0730   21.6445 N   0  0  0  0  0  0  0  0  0  0  0  0
    8.8723  -15.2753   22.9593 C   0  0  1  0  0  0  0  0  0  0  0  0
    7.6606  -15.1398   23.8971 C   0  0  0  0  0  0  0  0  0  0  0  0
    8.1716  -15.3190   25.6079 S   0  0  0  0  0  0  0  0  0  0  0  0
    9.4056  -16.6356   23.2077 C   0  0  0  0  0  0  0  0  0  0  0  0
    9.0709  -17.4869   22.3493 O   0  0  0  0  0  0  0  0  0  0  0  0
   13.4507  -19.7828   23.8297 N   0  0  0  0  0  0  0  0  0  0  0  0
   13.3073  -18.6658   22.9552 C   0  0  0  0  0  0  0  0  0  0  0  0
   14.1640  -18.5728   22.0175 O   0  0  0  0  0  0  0  0  0  0  0  0
   12.2394  -17.6690   23.1111 C   0  0  0  0  0  0  0  0  0  0  0  0
   11.2946  -17.9090   24.2349 C   0  0  2  0  0  0  0  0  0  0  0  0
   10.2141  -16.9756   24.2936 N   0  0  0  0  0  0  0  0  0  0  0  0
   11.9874  -18.1610   25.5190 C   0  0  0  0  0  0  0  0  0  0  0  0
   12.2085  -17.2798   26.3809 O   0  0  0  0  0  0  0  0  0  0  0  0
   12.4470  -19.4505   25.8488 O   0  0  0  0  0  0  0  0  0  0  0  0
  1  5  1  0
  2  1  1  0
  3  2  1  0
  3  4  1  0
  4  5  1  0
  6  8  1  0
  5  6  1  1
  7  6  2  0
  9 10  1  1
  9  8  1  0
 11 10  1  0
 12  9  1  0
 12 19  1  0
 13 12  2  0
 15 14  1  0
 16 15  2  0
 17 15  1  0
 18 19  1  0
 18 17  1  6
 20 18  1  0
 21 20  2  0
 22 20  1  0
M  END
$$$$
