PCN.pdb
     RDKit          3D

 22 22  0  0  1  0  0  0  0  0999 V2000
    7.0636  -14.9100   20.7967 N   0  0  0  0  0  0  0  0  0  0  0  0
    6.5641  -14.3828   19.5395 C   0  0  0  0  0  0  0  0  0  0  0  0
    7.2156  -13.0018   19.4098 C   0  0  0  0  0  0  0  0  0  0  0  0
    8.5115  -13.1559   20.1737 C   0  0  0  0  0  0  0  0  0  0  0  0
    8.4509  -14.5014   20.8721 C   0  0  1  0  0  0  0  0  0  0  0  0
    8.8000  -14.2691   22.2836 C   0  0  0  0  0  0  0  0  0  0  0  0
   10.0088  -14.0810   22.5662 O   0  0  0  0  0  0  0  0  0  0  0  0
    7.8108  -14.2527   23.3244 N   0  0  0  0  0  0  0  0  0  0  0  0
    8.2593  -13.9889   24.6432 C   0  0  1  0  0  0  0  0  0  0  0  0
    7.1125  -13.2446   25.3481 C   0  0  0  0  0  0  0  0  0  0  0  0
    7.6023  -12.7711   27.0082 S   0  0  0  0  0  0  0  0  0  0  0  0
    8.4949  -15.2026   25.4604 C   0  0  0  0  0  0  0  0  0  0  0  0
    7.4632  -15.8764   25.6949 O   0  0  0  0  0  0  0  0  0  0  0  0
   12.2623  -17.1448   24.0197 N   0  0  0  0  0  0  0  0  0  0  0  0
   11.1522  -17.6945   24.7255 C   0  0  0  0  0  0  0  0  0  0  0  0
   10.2448  -18.2341   24.0131 O   0  0  0  0  0  0  0  0  0  0  0  0
   11.0434  -17.6505   26.1900 C   0  0  0  0  0  0  0  0  0  0  0  0
    9.9773  -16.7640   26.7293 C   0  0  2  0  0  0  0  0  0  0  0  0
    9.7448  -15.5928   25.9442 N   0  0  0  0  0  0  0  0  0  0  0  0
   10.1068  -16.5369   28.1866 C   0  0  0  0  0  0  0  0  0  0  0  0
   10.0531  -15.4089   28.7278 O   0  0  0  0  0  0  0  0  0  0  0  0
   10.3019  -17.6165   29.0695 O   0  0  0  0  0  0  0  0  0  0  0  0
  1  5  1  0
  2  1  1  0
  3  2  1  0
  3  4  1  0
  4  5  1  0
  6  8  1  0
  5  6  1  1
  7  6  2  0
  9 10  1  1
  9  8  1  0
 11 10  1  0
 12  9  1  0
 12 19  1  0
 13 12  2  0
 15 14  1  0
 16 15  2  0
 17 15  1  0
 18 19  1  0
 18 17  1  6
 20 18  1  0
 21 20  2  0
 22 20  1  0
M  END
$$$$
