PCN.pdb
     RDKit          3D

 22 22  0  0  1  0  0  0  0  0999 V2000
    6.9901  -14.6045   20.3413 N   0  0  0  0  0  0  0  0  0  0  0  0
    6.6110  -13.8027   19.1917 C   0  0  0  0  0  0  0  0  0  0  0  0
    7.3651  -12.4810   19.3727 C   0  0  0  0  0  0  0  0  0  0  0  0
    8.5951  -12.8868   20.1532 C   0  0  0  0  0  0  0  0  0  0  0  0
    8.3950  -14.3333   20.5649 C   0  0  1  0  0  0  0  0  0  0  0  0
    8.6680  -14.4106   22.0098 C   0  0  0  0  0  0  0  0  0  0  0  0
    9.8627  -14.3284   22.3868 O   0  0  0  0  0  0  0  0  0  0  0  0
    7.6213  -14.5745   22.9791 N   0  0  0  0  0  0  0  0  0  0  0  0
    8.0085  -14.7242   24.3347 C   0  0  1  0  0  0  0  0  0  0  0  0
    6.7251  -14.5734   25.1691 C   0  0  0  0  0  0  0  0  0  0  0  0
    6.2145  -12.8540   25.2247 S   0  0  0  0  0  0  0  0  0  0  0  0
    8.5360  -16.0673   24.6725 C   0  0  0  0  0  0  0  0  0  0  0  0
    8.0329  -17.0031   24.0058 O   0  0  0  0  0  0  0  0  0  0  0  0
   13.2106  -17.3708   25.1632 N   0  0  0  0  0  0  0  0  0  0  0  0
   12.0634  -17.4340   24.3191 C   0  0  0  0  0  0  0  0  0  0  0  0
   12.1590  -16.8415   23.1958 O   0  0  0  0  0  0  0  0  0  0  0  0
   10.8326  -18.1372   24.7054 C   0  0  0  0  0  0  0  0  0  0  0  0
   10.1156  -17.5787   25.8832 C   0  0  2  0  0  0  0  0  0  0  0  0
    9.5096  -16.3068   25.6437 N   0  0  0  0  0  0  0  0  0  0  0  0
   10.9032  -17.6823   27.1327 C   0  0  0  0  0  0  0  0  0  0  0  0
   11.4675  -18.7307   27.5207 O   0  0  0  0  0  0  0  0  0  0  0  0
   11.0649  -16.5670   27.9771 O   0  0  0  0  0  0  0  0  0  0  0  0
  1  5  1  0
  2  1  1  0
  3  2  1  0
  3  4  1  0
  4  5  1  0
  6  8  1  0
  5  6  1  1
  7  6  2  0
  9 10  1  1
  9  8  1  0
 11 10  1  0
 12  9  1  0
 12 19  1  0
 13 12  2  0
 15 14  1  0
 16 15  2  0
 17 15  1  0
 18 19  1  0
 18 17  1  6
 20 18  1  0
 21 20  2  0
 22 20  1  0
M  END
$$$$
