PCN.pdb
     RDKit          3D

 22 22  0  0  1  0  0  0  0  0999 V2000
    7.7809  -15.1463   17.5594 N   0  0  0  0  0  0  0  0  0  0  0  0
    7.2667  -14.5936   16.3191 C   0  0  0  0  0  0  0  0  0  0  0  0
    7.6266  -13.1052   16.3770 C   0  0  0  0  0  0  0  0  0  0  0  0
    8.8738  -13.0823   17.2319 C   0  0  0  0  0  0  0  0  0  0  0  0
    9.0463  -14.4816   17.7924 C   0  0  1  0  0  0  0  0  0  0  0  0
    9.2471  -14.3413   19.2443 C   0  0  0  0  0  0  0  0  0  0  0  0
   10.3735  -13.9604   19.6472 O   0  0  0  0  0  0  0  0  0  0  0  0
    8.2061  -14.6240   20.1922 N   0  0  0  0  0  0  0  0  0  0  0  0
    8.5353  -14.5262   21.5677 C   0  0  1  0  0  0  0  0  0  0  0  0
    7.2103  -14.2919   22.3129 C   0  0  0  0  0  0  0  0  0  0  0  0
    7.5020  -14.1566   24.0783 S   0  0  0  0  0  0  0  0  0  0  0  0
    9.0940  -15.7693   22.1498 C   0  0  0  0  0  0  0  0  0  0  0  0
    8.4181  -16.7996   21.9150 O   0  0  0  0  0  0  0  0  0  0  0  0
   13.5374  -16.0417   21.2473 N   0  0  0  0  0  0  0  0  0  0  0  0
   12.6044  -17.0309   21.6759 C   0  0  0  0  0  0  0  0  0  0  0  0
   12.0764  -17.7400   20.7592 O   0  0  0  0  0  0  0  0  0  0  0  0
   12.2589  -17.2352   23.0892 C   0  0  0  0  0  0  0  0  0  0  0  0
   10.8280  -17.0259   23.4382 C   0  0  2  0  0  0  0  0  0  0  0  0
   10.2696  -15.8254   22.9005 N   0  0  0  0  0  0  0  0  0  0  0  0
   10.5483  -17.2707   24.8714 C   0  0  0  0  0  0  0  0  0  0  0  0
    9.8844  -16.4966   25.5982 O   0  0  0  0  0  0  0  0  0  0  0  0
   11.0301  -18.4284   25.5120 O   0  0  0  0  0  0  0  0  0  0  0  0
  1  5  1  0
  2  1  1  0
  3  2  1  0
  3  4  1  0
  4  5  1  0
  6  8  1  0
  5  6  1  1
  7  6  2  0
  9 10  1  1
  9  8  1  0
 11 10  1  0
 12  9  1  0
 12 19  1  0
 13 12  2  0
 15 14  1  0
 16 15  2  0
 17 15  1  0
 18 19  1  0
 18 17  1  1
 20 18  1  0
 21 20  2  0
 22 20  1  0
M  END
$$$$
