STQ.pdb
     RDKit          3D

 23 22  0  0  1  0  0  0  0  0999 V2000
   17.8458  -13.6485  -18.6678 O   0  0  0  0  0  0  0  0  0  0  0  0
   18.2581  -12.4702  -18.0760 C   0  0  0  0  0  0  0  0  0  0  0  0
   19.1525  -12.6903  -16.8786 C   0  0  2  0  0  0  0  0  0  0  0  0
   18.4763  -13.6177  -15.9594 N   0  0  0  0  0  0  0  0  0  0  0  0
   19.4966  -11.4416  -16.1638 C   0  0  0  0  0  0  0  0  0  0  0  0
   18.7041  -10.8938  -15.3546 O   0  0  0  0  0  0  0  0  0  0  0  0
   22.5449  -10.8600  -14.1185 C   0  0  0  0  0  0  0  0  0  0  0  0
   22.5471   -9.7856  -15.1748 C   0  0  1  0  0  0  0  0  0  0  0  0
   23.3752  -10.2255  -16.2139 O   0  0  0  0  0  0  0  0  0  0  0  0
   21.1230   -9.5935  -15.6762 C   0  0  2  0  0  0  0  0  0  0  0  0
   20.7498  -10.8036  -16.3637 N   0  0  0  0  0  0  0  0  0  0  0  0
   20.9644   -8.3798  -16.4771 C   0  0  0  0  0  0  0  0  0  0  0  0
   21.4541   -8.3321  -17.6572 O   0  0  0  0  0  0  0  0  0  0  0  0
   16.2669   -5.1546  -15.3462 N   0  0  0  0  0  0  0  0  0  0  0  0
   16.2713   -6.0992  -16.3903 C   0  0  0  0  0  0  0  0  0  0  0  0
   15.2192   -6.6969  -16.7353 O   0  0  0  0  0  0  0  0  0  0  0  0
   17.5768   -6.3798  -17.0907 C   0  0  0  0  0  0  0  0  0  0  0  0
   18.6628   -5.5323  -16.5273 C   0  0  0  0  0  0  0  0  0  0  0  0
   20.0582   -6.0252  -16.7548 C   0  0  2  0  0  0  0  0  0  0  0  0
   20.2788   -7.2388  -15.9874 N   0  0  0  0  0  0  0  0  0  0  0  0
   21.1064   -5.0276  -16.5565 C   0  0  0  0  0  0  0  0  0  0  0  0
   21.9976   -5.1016  -15.6651 O   0  0  0  0  0  0  0  0  0  0  0  0
   21.1847   -3.9054  -17.3658 O   0  0  0  0  0  0  0  0  0  0  0  0
  2  1  1  0
  3  4  1  1
  3  5  1  0
  3  2  1  0
  5  6  2  0
  8  7  1  1
  8  9  1  0
  8 10  1  0
 10 12  1  0
 11  5  1  0
 10 11  1  6
 12 13  2  0
 12 20  1  0
 15 14  1  0
 15 16  2  0
 17 18  1  0
 17 15  1  0
 19 18  1  1
 20 19  1  0
 21 19  1  0
 21 23  1  0
 22 21  2  0
M  END
$$$$
