STQ.pdb
     RDKit          3D

 23 22  0  0  1  0  0  0  0  0999 V2000
   22.0563  -16.2697  -15.4621 O   0  0  0  0  0  0  0  0  0  0  0  0
   21.9784  -14.9101  -15.6942 C   0  0  0  0  0  0  0  0  0  0  0  0
   21.3513  -14.5718  -17.0263 C   0  0  2  0  0  0  0  0  0  0  0  0
   22.2378  -15.0600  -18.0931 N   0  0  0  0  0  0  0  0  0  0  0  0
   21.1012  -13.1251  -17.2085 C   0  0  0  0  0  0  0  0  0  0  0  0
   21.8152  -12.4122  -17.9601 O   0  0  0  0  0  0  0  0  0  0  0  0
   17.6927  -11.7917  -17.9107 C   0  0  0  0  0  0  0  0  0  0  0  0
   18.2126  -10.9546  -16.7710 C   0  0  1  0  0  0  0  0  0  0  0  0
   17.6476  -11.4579  -15.5935 O   0  0  0  0  0  0  0  0  0  0  0  0
   19.7288  -11.0797  -16.7278 C   0  0  2  0  0  0  0  0  0  0  0  0
   20.0327  -12.4749  -16.5353 N   0  0  0  0  0  0  0  0  0  0  0  0
   20.3412  -10.1941  -15.7377 C   0  0  0  0  0  0  0  0  0  0  0  0
   20.7045  -10.6656  -14.6060 O   0  0  0  0  0  0  0  0  0  0  0  0
   24.0012   -5.5413  -16.9510 N   0  0  0  0  0  0  0  0  0  0  0  0
   23.8805   -5.2903  -15.5708 C   0  0  0  0  0  0  0  0  0  0  0  0
   24.6258   -4.4593  -14.9900 O   0  0  0  0  0  0  0  0  0  0  0  0
   22.8288   -6.0466  -14.7991 C   0  0  0  0  0  0  0  0  0  0  0  0
   22.1341   -7.0216  -15.6835 C   0  0  0  0  0  0  0  0  0  0  0  0
   21.1018   -7.8808  -15.0218 C   0  0  2  0  0  0  0  0  0  0  0  0
   20.5501   -8.8139  -15.9889 N   0  0  0  0  0  0  0  0  0  0  0  0
   20.0739   -7.1535  -14.2818 C   0  0  0  0  0  0  0  0  0  0  0  0
   20.2290   -6.6945  -13.1158 O   0  0  0  0  0  0  0  0  0  0  0  0
   18.8274   -6.9169  -14.8392 O   0  0  0  0  0  0  0  0  0  0  0  0
  2  1  1  0
  3  4  1  6
  3  5  1  0
  3  2  1  0
  5  6  2  0
  8  7  1  6
  8  9  1  0
  8 10  1  0
 10 12  1  0
 11  5  1  0
 10 11  1  1
 12 13  2  0
 12 20  1  0
 15 14  1  0
 15 16  2  0
 17 18  1  0
 17 15  1  0
 19 18  1  6
 20 19  1  0
 21 19  1  0
 21 23  1  0
 22 21  2  0
M  END
$$$$
