STQ.pdb
     RDKit          3D

 23 22  0  0  1  0  0  0  0  0999 V2000
   17.0158  -11.0125  -18.7247 O   0  0  0  0  0  0  0  0  0  0  0  0
   17.4008  -10.2892  -17.6125 C   0  0  0  0  0  0  0  0  0  0  0  0
   18.4661  -10.9817  -16.7954 C   0  0  2  0  0  0  0  0  0  0  0  0
   17.8901  -12.2105  -16.2291 N   0  0  0  0  0  0  0  0  0  0  0  0
   19.0137  -10.1405  -15.7086 C   0  0  0  0  0  0  0  0  0  0  0  0
   18.3984   -9.9624  -14.6257 O   0  0  0  0  0  0  0  0  0  0  0  0
   23.0527   -9.6266  -15.3171 C   0  0  0  0  0  0  0  0  0  0  0  0
   22.0238   -9.4499  -14.2309 C   0  0  1  0  0  0  0  0  0  0  0  0
   22.6284   -8.7224  -13.1993 O   0  0  0  0  0  0  0  0  0  0  0  0
   20.8415   -8.6795  -14.8013 C   0  0  2  0  0  0  0  0  0  0  0  0
   20.2706   -9.4929  -15.8447 N   0  0  0  0  0  0  0  0  0  0  0  0
   21.2006   -7.3275  -15.2285 C   0  0  0  0  0  0  0  0  0  0  0  0
   21.9421   -7.1652  -16.2574 O   0  0  0  0  0  0  0  0  0  0  0  0
   17.4235   -3.7772  -13.8132 N   0  0  0  0  0  0  0  0  0  0  0  0
   17.4910   -4.1194  -15.1773 C   0  0  0  0  0  0  0  0  0  0  0  0
   16.4492   -4.3314  -15.8503 O   0  0  0  0  0  0  0  0  0  0  0  0
   18.8519   -4.2265  -15.8176 C   0  0  0  0  0  0  0  0  0  0  0  0
   19.9198   -3.9296  -14.8243 C   0  0  0  0  0  0  0  0  0  0  0  0
   21.1265   -4.8143  -14.8810 C   0  0  2  0  0  0  0  0  0  0  0  0
   20.7515   -6.1745  -14.5352 N   0  0  0  0  0  0  0  0  0  0  0  0
   22.2818   -4.3333  -14.1280 C   0  0  0  0  0  0  0  0  0  0  0  0
   22.7658   -4.9186  -13.1193 O   0  0  0  0  0  0  0  0  0  0  0  0
   22.9353   -3.1671  -14.4932 O   0  0  0  0  0  0  0  0  0  0  0  0
  2  1  1  0
  3  4  1  1
  3  5  1  0
  3  2  1  0
  5  6  2  0
  8  7  1  6
  8  9  1  0
  8 10  1  0
 10 12  1  0
 11  5  1  0
 10 11  1  6
 12 13  2  0
 12 20  1  0
 15 14  1  0
 15 16  2  0
 17 18  1  0
 17 15  1  0
 19 18  1  1
 20 19  1  0
 21 19  1  0
 21 23  1  0
 22 21  2  0
M  END
$$$$
