STQ.pdb
     RDKit          3D

 23 22  0  0  1  0  0  0  0  0999 V2000
   11.2852  -10.0037  -10.8203 O   0  0  0  0  0  0  0  0  0  0  0  0
   12.4506   -9.2759  -10.6760 C   0  0  0  0  0  0  0  0  0  0  0  0
   13.5676  -10.0671  -10.0370 C   0  0  2  0  0  0  0  0  0  0  0  0
   13.2804  -10.1973   -8.6007 N   0  0  0  0  0  0  0  0  0  0  0  0
   14.9026   -9.4582  -10.2256 C   0  0  0  0  0  0  0  0  0  0  0  0
   15.6266   -9.1192   -9.2541 O   0  0  0  0  0  0  0  0  0  0  0  0
   16.6339   -9.2379  -14.1114 C   0  0  0  0  0  0  0  0  0  0  0  0
   17.4200   -9.3290  -12.8293 C   0  0  1  0  0  0  0  0  0  0  0  0
   18.6744   -8.7563  -13.0688 O   0  0  0  0  0  0  0  0  0  0  0  0
   16.6801   -8.5534  -11.7488 C   0  0  2  0  0  0  0  0  0  0  0  0
   15.4275   -9.2296  -11.5255 N   0  0  0  0  0  0  0  0  0  0  0  0
   16.5420   -7.1324  -12.0669 C   0  0  0  0  0  0  0  0  0  0  0  0
   15.6291   -6.7512  -12.8769 O   0  0  0  0  0  0  0  0  0  0  0  0
   17.6661   -2.6541   -8.1486 N   0  0  0  0  0  0  0  0  0  0  0  0
   17.4319   -1.8266   -9.2635 C   0  0  0  0  0  0  0  0  0  0  0  0
   17.3650   -0.5756   -9.1464 O   0  0  0  0  0  0  0  0  0  0  0  0
   17.2618   -2.4802  -10.6116 C   0  0  0  0  0  0  0  0  0  0  0  0
   17.3851   -3.9587  -10.4931 C   0  0  0  0  0  0  0  0  0  0  0  0
   17.2923   -4.7251  -11.7760 C   0  0  2  0  0  0  0  0  0  0  0  0
   17.3939   -6.1484  -11.5032 N   0  0  0  0  0  0  0  0  0  0  0  0
   18.2017   -4.2808  -12.8289 C   0  0  0  0  0  0  0  0  0  0  0  0
   19.2938   -4.8486  -13.1103 O   0  0  0  0  0  0  0  0  0  0  0  0
   17.9048   -3.1728  -13.6065 O   0  0  0  0  0  0  0  0  0  0  0  0
  2  1  1  0
  3  4  1  1
  3  5  1  0
  3  2  1  0
  5  6  2  0
  8  7  1  6
  8  9  1  0
  8 10  1  0
 10 12  1  0
 11  5  1  0
 10 11  1  6
 12 13  2  0
 12 20  1  0
 15 14  1  0
 15 16  2  0
 17 18  1  0
 17 15  1  0
 19 18  1  1
 20 19  1  0
 21 19  1  0
 21 23  1  0
 22 21  2  0
M  END
$$$$
