STQ.pdb
     RDKit          3D

 23 22  0  0  1  0  0  0  0  0999 V2000
   35.9287  -30.8895  -18.0564 O   0  0  0  0  0  0  0  0  0  0  0  0
   35.6726  -29.9350  -19.0217 C   0  0  0  0  0  0  0  0  0  0  0  0
   34.8920  -28.7541  -18.4944 C   0  0  2  0  0  0  0  0  0  0  0  0
   35.5053  -28.3205  -17.2302 N   0  0  0  0  0  0  0  0  0  0  0  0
   33.4577  -29.0456  -18.2790 C   0  0  0  0  0  0  0  0  0  0  0  0
   32.9617  -29.1493  -17.1273 O   0  0  0  0  0  0  0  0  0  0  0  0
   30.7331  -27.4667  -20.6361 C   0  0  0  0  0  0  0  0  0  0  0  0
   30.4795  -28.9438  -20.4814 C   0  0  1  0  0  0  0  0  0  0  0  0
   31.0362  -29.5806  -21.5966 O   0  0  0  0  0  0  0  0  0  0  0  0
   31.1556  -29.4225  -19.2046 C   0  0  2  0  0  0  0  0  0  0  0  0
   32.5722  -29.2218  -19.3755 N   0  0  0  0  0  0  0  0  0  0  0  0
   30.7862  -30.7922  -18.8484 C   0  0  0  0  0  0  0  0  0  0  0  0
   31.5911  -31.7518  -19.1058 O   0  0  0  0  0  0  0  0  0  0  0  0
   27.2254  -31.9999  -14.0608 N   0  0  0  0  0  0  0  0  0  0  0  0
   27.3505  -33.3326  -14.4976 C   0  0  0  0  0  0  0  0  0  0  0  0
   26.8850  -34.2877  -13.8237 O   0  0  0  0  0  0  0  0  0  0  0  0
   28.0612  -33.5901  -15.8023 C   0  0  0  0  0  0  0  0  0  0  0  0
   28.5165  -32.3095  -16.4091 C   0  0  0  0  0  0  0  0  0  0  0  0
   29.1845  -32.4225  -17.7443 C   0  0  2  0  0  0  0  0  0  0  0  0
   29.5526  -31.1001  -18.2199 N   0  0  0  0  0  0  0  0  0  0  0  0
   28.4513  -33.2016  -18.7386 C   0  0  0  0  0  0  0  0  0  0  0  0
   28.4912  -34.4606  -18.8247 O   0  0  0  0  0  0  0  0  0  0  0  0
   27.6409  -32.5797  -19.6751 O   0  0  0  0  0  0  0  0  0  0  0  0
  2  1  1  0
  3  4  1  1
  3  5  1  0
  3  2  1  0
  5  6  2  0
  8  7  1  6
  8  9  1  0
  8 10  1  0
 10 12  1  0
 11  5  1  0
 10 11  1  6
 12 13  2  0
 12 20  1  0
 15 14  1  0
 15 16  2  0
 17 18  1  0
 17 15  1  0
 19 18  1  1
 20 19  1  0
 21 19  1  0
 21 23  1  0
 22 21  2  0
M  END
$$$$
