STQ.pdb
     RDKit          3D

 23 22  0  0  1  0  0  0  0  0999 V2000
   15.1684  -11.1737  -11.3266 O   0  0  0  0  0  0  0  0  0  0  0  0
   15.2892  -11.1275   -9.9511 C   0  0  0  0  0  0  0  0  0  0  0  0
   14.3683  -10.1165   -9.3094 C   0  0  2  0  0  0  0  0  0  0  0  0
   12.9803  -10.5522   -9.5240 N   0  0  0  0  0  0  0  0  0  0  0  0
   14.5466   -8.7437   -9.8312 C   0  0  0  0  0  0  0  0  0  0  0  0
   14.0222   -8.3648  -10.9103 O   0  0  0  0  0  0  0  0  0  0  0  0
   14.9791   -5.5798   -7.4343 C   0  0  0  0  0  0  0  0  0  0  0  0
   16.0654   -5.6165   -8.4776 C   0  0  1  0  0  0  0  0  0  0  0  0
   17.1946   -6.1910   -7.8826 O   0  0  0  0  0  0  0  0  0  0  0  0
   15.5897   -6.4686   -9.6455 C   0  0  2  0  0  0  0  0  0  0  0  0
   15.3251   -7.7868   -9.1272 N   0  0  0  0  0  0  0  0  0  0  0  0
   16.5178   -6.4478  -10.7758 C   0  0  0  0  0  0  0  0  0  0  0  0
   17.4612   -7.3088  -10.8357 O   0  0  0  0  0  0  0  0  0  0  0  0
   17.9325   -9.1576  -14.2527 N   0  0  0  0  0  0  0  0  0  0  0  0
   18.1459   -8.2376  -15.2971 C   0  0  0  0  0  0  0  0  0  0  0  0
   18.7917   -8.5579  -16.3284 O   0  0  0  0  0  0  0  0  0  0  0  0
   17.5779   -6.8487  -15.1492 C   0  0  0  0  0  0  0  0  0  0  0  0
   16.8586   -6.7153  -13.8530 C   0  0  0  0  0  0  0  0  0  0  0  0
   17.2134   -5.5148  -13.0316 C   0  0  2  0  0  0  0  0  0  0  0  0
   16.4095   -5.4959  -11.8217 N   0  0  0  0  0  0  0  0  0  0  0  0
   17.1894   -4.2441  -13.7511 C   0  0  0  0  0  0  0  0  0  0  0  0
   16.2339   -3.4199  -13.7051 O   0  0  0  0  0  0  0  0  0  0  0  0
   18.2527   -3.8581  -14.5517 O   0  0  0  0  0  0  0  0  0  0  0  0
  2  1  1  0
  3  4  1  6
  3  5  1  0
  3  2  1  0
  5  6  2  0
  8  7  1  1
  8  9  1  0
  8 10  1  0
 10 12  1  0
 11  5  1  0
 10 11  1  1
 12 13  2  0
 12 20  1  0
 15 14  1  0
 15 16  2  0
 17 18  1  0
 17 15  1  0
 19 18  1  6
 20 19  1  0
 21 19  1  0
 21 23  1  0
 22 21  2  0
M  END
$$$$
