GHE.pdb
     RDKit          3D

 24 24  0  0  1  0  0  0  0  0999 V2000
   14.9172  -23.2624   -0.5416 N   0  0  0  0  0  0  0  0  0  0  0  0
   14.2159  -22.7273    0.5873 C   0  0  0  0  0  0  0  0  0  0  0  0
   15.1220  -22.0144    1.5219 C   0  0  0  0  0  0  0  0  0  0  0  0
   16.3650  -22.1211    1.3417 O   0  0  0  0  0  0  0  0  0  0  0  0
   14.5691  -21.2524    2.5652 N   0  0  0  0  0  0  0  0  0  0  0  0
   15.4796  -20.4977    3.5058 C   0  0  1  0  0  0  0  0  0  0  0  0
   14.7614  -19.2290    3.8276 C   0  0  0  0  0  0  0  0  0  0  0  0
   15.3747  -17.9788    3.3702 C   0  0  0  0  0  0  0  0  0  0  0  0
   16.6261  -17.9056    2.7032 C   0  0  0  0  0  0  0  0  0  0  0  0
   16.9035  -16.6307    2.4196 N   0  0  0  0  0  0  0  0  0  0  0  0
   15.8883  -15.8756    2.8729 C   0  0  0  0  0  0  0  0  0  0  0  0
   14.9960  -16.6966    3.4314 N   0  0  0  0  0  0  0  0  0  0  0  0
   15.6383  -21.4425    4.6264 C   0  0  0  0  0  0  0  0  0  0  0  0
   14.7163  -22.3317    4.7948 O   0  0  0  0  0  0  0  0  0  0  0  0
   16.6880  -21.5164    5.5629 N   0  0  0  0  0  0  0  0  0  0  0  0
   16.6873  -22.4997    6.6531 C   0  0  1  0  0  0  0  0  0  0  0  0
   17.8566  -23.4124    6.3829 C   0  0  0  0  0  0  0  0  0  0  0  0
   18.0491  -24.5064    7.3731 C   0  0  0  0  0  0  0  0  0  0  0  0
   19.2941  -25.2296    7.0568 C   0  0  0  0  0  0  0  0  0  0  0  0
   20.0357  -24.8364    6.1390 O   0  0  0  0  0  0  0  0  0  0  0  0
   16.7538  -21.8557    7.9620 C   0  0  0  0  0  0  0  0  0  0  0  0
   16.4445  -22.4880    9.1605 O   0  0  0  0  0  0  0  0  0  0  0  0
   19.6411  -26.3480    7.7801 O   0  0  0  0  0  0  0  0  0  0  0  0
   17.1097  -20.6570    8.0370 O   0  0  0  0  0  0  0  0  0  0  0  0
  2  1  1  0
  3  2  1  0
  3  5  1  0
  4  3  2  0
  6  5  1  0
  6 13  1  0
  6  7  1  1
  8  7  1  0
  8 12  1  0
  9 10  1  0
  9  8  2  0
 10 11  1  0
 11 12  2  0
 13 14  2  0
 13 15  1  0
 15 16  1  0
 16 17  1  6
 16 21  1  0
 17 18  1  0
 18 19  1  0
 19 20  2  0
 21 22  1  0
 23 19  1  0
 24 21  2  0
M  END
$$$$
