GHE.pdb
     RDKit          3D

 24 24  0  0  1  0  0  0  0  0999 V2000
   26.4568  -21.4429  -15.3127 N   0  0  0  0  0  0  0  0  0  0  0  0
   26.3202  -20.7186  -14.0842 C   0  0  0  0  0  0  0  0  0  0  0  0
   25.3878  -19.5711  -14.2123 C   0  0  0  0  0  0  0  0  0  0  0  0
   25.2278  -18.8208  -13.2120 O   0  0  0  0  0  0  0  0  0  0  0  0
   24.7218  -19.3618  -15.4319 N   0  0  0  0  0  0  0  0  0  0  0  0
   23.8846  -18.1188  -15.6249 C   0  0  1  0  0  0  0  0  0  0  0  0
   24.3920  -17.4837  -16.8772 C   0  0  0  0  0  0  0  0  0  0  0  0
   25.5226  -16.5599  -16.7480 C   0  0  0  0  0  0  0  0  0  0  0  0
   26.0653  -16.1378  -15.5055 C   0  0  0  0  0  0  0  0  0  0  0  0
   27.0822  -15.3013  -15.7272 N   0  0  0  0  0  0  0  0  0  0  0  0
   27.2220  -15.1630  -17.0567 C   0  0  0  0  0  0  0  0  0  0  0  0
   26.2874  -15.9178  -17.6390 N   0  0  0  0  0  0  0  0  0  0  0  0
   22.5155  -18.6611  -15.6945 C   0  0  0  0  0  0  0  0  0  0  0  0
   22.3656  -19.8470  -16.1845 O   0  0  0  0  0  0  0  0  0  0  0  0
   21.3138  -18.0510  -15.2844 N   0  0  0  0  0  0  0  0  0  0  0  0
   20.0204  -18.7381  -15.3872 C   0  0  1  0  0  0  0  0  0  0  0  0
   19.1669  -18.1733  -14.2799 C   0  0  0  0  0  0  0  0  0  0  0  0
   17.7497  -18.6270  -14.2775 C   0  0  0  0  0  0  0  0  0  0  0  0
   17.0268  -17.9448  -13.1889 C   0  0  0  0  0  0  0  0  0  0  0  0
   15.8241  -18.1859  -12.9830 O   0  0  0  0  0  0  0  0  0  0  0  0
   19.4246  -18.5739  -16.7102 C   0  0  0  0  0  0  0  0  0  0  0  0
   18.5080  -19.4564  -17.2693 O   0  0  0  0  0  0  0  0  0  0  0  0
   17.6842  -17.0343  -12.3931 O   0  0  0  0  0  0  0  0  0  0  0  0
   19.7433  -17.5823  -17.4062 O   0  0  0  0  0  0  0  0  0  0  0  0
  2  1  1  0
  3  2  1  0
  3  5  1  0
  4  3  2  0
  6  5  1  0
  6 13  1  0
  6  7  1  6
  8  7  1  0
  8 12  1  0
  9 10  1  0
  9  8  2  0
 10 11  1  0
 11 12  2  0
 13 14  2  0
 13 15  1  0
 15 16  1  0
 16 17  1  1
 16 21  1  0
 17 18  1  0
 18 19  1  0
 19 20  2  0
 21 22  1  0
 23 19  1  0
 24 21  2  0
M  END
$$$$
