GHE.pdb
     RDKit          3D

 24 24  0  0  1  0  0  0  0  0999 V2000
   29.1153  -19.9900  -20.1613 N   0  0  0  0  0  0  0  0  0  0  0  0
   28.7237  -19.4501  -18.8934 C   0  0  0  0  0  0  0  0  0  0  0  0
   27.9507  -20.4257  -18.0850 C   0  0  0  0  0  0  0  0  0  0  0  0
   27.1744  -21.2146  -18.6884 O   0  0  0  0  0  0  0  0  0  0  0  0
   28.1086  -20.4368  -16.6886 N   0  0  0  0  0  0  0  0  0  0  0  0
   27.3603  -21.4531  -15.8579 C   0  0  1  0  0  0  0  0  0  0  0  0
   28.3714  -22.0299  -14.9230 C   0  0  0  0  0  0  0  0  0  0  0  0
   29.3129  -23.0077  -15.4764 C   0  0  0  0  0  0  0  0  0  0  0  0
   29.2668  -23.4865  -16.8124 C   0  0  0  0  0  0  0  0  0  0  0  0
   30.2561  -24.3626  -17.0038 N   0  0  0  0  0  0  0  0  0  0  0  0
   30.9402  -24.4723  -15.8521 C   0  0  0  0  0  0  0  0  0  0  0  0
   30.3625  -23.6606  -14.9635 N   0  0  0  0  0  0  0  0  0  0  0  0
   26.3030  -20.6395  -15.2305 C   0  0  0  0  0  0  0  0  0  0  0  0
   26.6708  -19.6878  -14.4382 O   0  0  0  0  0  0  0  0  0  0  0  0
   24.9073  -20.7551  -15.3833 N   0  0  0  0  0  0  0  0  0  0  0  0
   23.9713  -19.9278  -14.6120 C   0  0  1  0  0  0  0  0  0  0  0  0
   23.4808  -18.8669  -15.5646 C   0  0  0  0  0  0  0  0  0  0  0  0
   22.6577  -19.3655  -16.6996 C   0  0  0  0  0  0  0  0  0  0  0  0
   22.1878  -18.2172  -17.4956 C   0  0  0  0  0  0  0  0  0  0  0  0
   21.1039  -18.2727  -18.1031 O   0  0  0  0  0  0  0  0  0  0  0  0
   22.8914  -20.7255  -14.0377 C   0  0  0  0  0  0  0  0  0  0  0  0
   22.6308  -22.0477  -14.3777 O   0  0  0  0  0  0  0  0  0  0  0  0
   22.9513  -17.0743  -17.5692 O   0  0  0  0  0  0  0  0  0  0  0  0
   22.1373  -20.2085  -13.1814 O   0  0  0  0  0  0  0  0  0  0  0  0
  2  1  1  0
  3  2  1  0
  3  5  1  0
  4  3  2  0
  6  5  1  0
  6 13  1  0
  6  7  1  1
  8  7  1  0
  8 12  1  0
  9 10  1  0
  9  8  2  0
 10 11  1  0
 11 12  2  0
 13 14  2  0
 13 15  1  0
 15 16  1  0
 16 17  1  6
 16 21  1  0
 17 18  1  0
 18 19  1  0
 19 20  2  0
 21 22  1  0
 23 19  1  0
 24 21  2  0
M  END
$$$$
