GHE.pdb
     RDKit          3D

 24 24  0  0  1  0  0  0  0  0999 V2000
   14.5581  -12.3874  -14.2214 N   0  0  0  0  0  0  0  0  0  0  0  0
   15.0969  -11.3373  -15.0334 C   0  0  0  0  0  0  0  0  0  0  0  0
   16.5809  -11.3518  -15.0539 C   0  0  0  0  0  0  0  0  0  0  0  0
   17.1867  -11.6709  -13.9956 O   0  0  0  0  0  0  0  0  0  0  0  0
   17.2535  -11.0127  -16.2403 N   0  0  0  0  0  0  0  0  0  0  0  0
   18.7637  -10.9708  -16.2598 C   0  0  1  0  0  0  0  0  0  0  0  0
   19.1700  -11.7164  -17.4879 C   0  0  0  0  0  0  0  0  0  0  0  0
   19.2329  -13.1777  -17.3931 C   0  0  0  0  0  0  0  0  0  0  0  0
   20.1510  -13.8813  -16.5694 C   0  0  0  0  0  0  0  0  0  0  0  0
   19.9532  -15.1947  -16.7064 N   0  0  0  0  0  0  0  0  0  0  0  0
   18.9487  -15.3728  -17.5814 C   0  0  0  0  0  0  0  0  0  0  0  0
   18.5392  -14.1641  -17.9735 N   0  0  0  0  0  0  0  0  0  0  0  0
   19.0449   -9.5236  -16.2702 C   0  0  0  0  0  0  0  0  0  0  0  0
   18.2554   -8.7654  -16.9562 O   0  0  0  0  0  0  0  0  0  0  0  0
   20.0813   -8.8318  -15.6131 N   0  0  0  0  0  0  0  0  0  0  0  0
   20.2278   -7.3745  -15.7153 C   0  0  1  0  0  0  0  0  0  0  0  0
   21.0535   -6.9608  -14.5235 C   0  0  0  0  0  0  0  0  0  0  0  0
   21.3938   -5.5136  -14.4595 C   0  0  0  0  0  0  0  0  0  0  0  0
   22.2042   -5.2615  -13.2542 C   0  0  0  0  0  0  0  0  0  0  0  0
   22.4535   -6.1840  -12.4579 O   0  0  0  0  0  0  0  0  0  0  0  0
   20.8223   -6.9790  -16.9891 C   0  0  0  0  0  0  0  0  0  0  0  0
   21.6001   -7.8149  -17.7815 O   0  0  0  0  0  0  0  0  0  0  0  0
   22.6898   -3.9979  -13.0051 O   0  0  0  0  0  0  0  0  0  0  0  0
   20.6342   -5.8170  -17.4177 O   0  0  0  0  0  0  0  0  0  0  0  0
  2  1  1  0
  3  2  1  0
  3  5  1  0
  4  3  2  0
  6  5  1  0
  6 13  1  0
  6  7  1  6
  8  7  1  0
  8 12  1  0
  9 10  1  0
  9  8  2  0
 10 11  1  0
 11 12  2  0
 13 14  2  0
 13 15  1  0
 15 16  1  0
 16 17  1  1
 16 21  1  0
 17 18  1  0
 18 19  1  0
 19 20  2  0
 21 22  1  0
 23 19  1  0
 24 21  2  0
M  END
$$$$
