GHE.pdb
     RDKit          3D

 24 24  0  0  1  0  0  0  0  0999 V2000
   24.1429  -14.2234  -17.4694 N   0  0  0  0  0  0  0  0  0  0  0  0
   23.5845  -15.2448  -18.3045 C   0  0  0  0  0  0  0  0  0  0  0  0
   23.7642  -16.5999  -17.7264 C   0  0  0  0  0  0  0  0  0  0  0  0
   24.5870  -17.3779  -18.2803 O   0  0  0  0  0  0  0  0  0  0  0  0
   23.0187  -16.9661  -16.5928 N   0  0  0  0  0  0  0  0  0  0  0  0
   23.4109  -18.1924  -15.8020 C   0  0  1  0  0  0  0  0  0  0  0  0
   24.7629  -17.8940  -15.2433 C   0  0  0  0  0  0  0  0  0  0  0  0
   25.9160  -18.1430  -16.1132 C   0  0  0  0  0  0  0  0  0  0  0  0
   25.8180  -18.6492  -17.4363 C   0  0  0  0  0  0  0  0  0  0  0  0
   27.0412  -18.7620  -17.9596 N   0  0  0  0  0  0  0  0  0  0  0  0
   27.9262  -18.3517  -17.0350 C   0  0  0  0  0  0  0  0  0  0  0  0
   27.2357  -17.9904  -15.9512 N   0  0  0  0  0  0  0  0  0  0  0  0
   22.3220  -18.2994  -14.8139 C   0  0  0  0  0  0  0  0  0  0  0  0
   22.0239  -17.2416  -14.1348 O   0  0  0  0  0  0  0  0  0  0  0  0
   21.5349  -19.4253  -14.5019 N   0  0  0  0  0  0  0  0  0  0  0  0
   20.5321  -19.3978  -13.4300 C   0  0  1  0  0  0  0  0  0  0  0  0
   19.3382  -20.1466  -13.9661 C   0  0  0  0  0  0  0  0  0  0  0  0
   18.6516  -19.5032  -15.1189 C   0  0  0  0  0  0  0  0  0  0  0  0
   17.5588  -20.3789  -15.5793 C   0  0  0  0  0  0  0  0  0  0  0  0
   17.7208  -21.6107  -15.6392 O   0  0  0  0  0  0  0  0  0  0  0  0
   21.0524  -19.9632  -12.1882 C   0  0  0  0  0  0  0  0  0  0  0  0
   20.4907  -19.7468  -10.9355 O   0  0  0  0  0  0  0  0  0  0  0  0
   16.3497  -19.8331  -15.9462 O   0  0  0  0  0  0  0  0  0  0  0  0
   22.0694  -20.6936  -12.2272 O   0  0  0  0  0  0  0  0  0  0  0  0
  2  1  1  0
  3  2  1  0
  3  5  1  0
  4  3  2  0
  6  5  1  0
  6 13  1  0
  6  7  1  1
  8  7  1  0
  8 12  1  0
  9 10  1  0
  9  8  2  0
 10 11  1  0
 11 12  2  0
 13 14  2  0
 13 15  1  0
 15 16  1  0
 16 17  1  6
 16 21  1  0
 17 18  1  0
 18 19  1  0
 19 20  2  0
 21 22  1  0
 23 19  1  0
 24 21  2  0
M  END
$$$$
