LSS.pdb
     RDKit          3D

 21 20  0  0  1  0  0  0  0  0999 V2000
    8.8532  -14.9731   20.2021 C   0  0  0  0  0  0  0  0  0  0  0  0
    7.5096  -14.2687   20.1803 C   0  0  2  0  0  0  0  0  0  0  0  0
    7.6629  -12.7755   20.0729 C   0  0  0  0  0  0  0  0  0  0  0  0
    6.7749  -14.6736   21.4499 C   0  0  0  0  0  0  0  0  0  0  0  0
    6.5693  -16.1599   21.3878 C   0  0  2  0  0  0  0  0  0  0  0  0
    5.4185  -16.4254   20.5442 N   0  0  0  0  0  0  0  0  0  0  0  0
    6.3875  -16.7864   22.7085 C   0  0  0  0  0  0  0  0  0  0  0  0
    5.4632  -16.3947   23.4680 O   0  0  0  0  0  0  0  0  0  0  0  0
    7.3423  -20.6887   23.8733 O   0  0  0  0  0  0  0  0  0  0  0  0
    6.5151  -19.7874   24.5284 C   0  0  0  0  0  0  0  0  0  0  0  0
    7.0873  -18.3851   24.5279 C   0  0  2  0  0  0  0  0  0  0  0  0
    7.2122  -17.8418   23.2060 N   0  0  0  0  0  0  0  0  0  0  0  0
    8.3709  -18.4345   25.2631 C   0  0  0  0  0  0  0  0  0  0  0  0
    9.5016  -18.4989   24.7346 O   0  0  0  0  0  0  0  0  0  0  0  0
   10.3428  -18.0925   29.7110 O   0  0  0  0  0  0  0  0  0  0  0  0
    9.2709  -17.9110   28.8713 C   0  0  0  0  0  0  0  0  0  0  0  0
    9.5061  -18.5697   27.5066 C   0  0  2  0  0  0  0  0  0  0  0  0
    8.3054  -18.4061   26.6839 N   0  0  0  0  0  0  0  0  0  0  0  0
    9.7840  -20.0055   27.6901 C   0  0  0  0  0  0  0  0  0  0  0  0
   11.0576  -20.4410   27.9737 O   0  0  0  0  0  0  0  0  0  0  0  0
    8.8589  -20.8333   27.5880 O   0  0  0  0  0  0  0  0  0  0  0  0
  2  1  1  1
  3  2  1  0
  4  2  1  0
  4  5  1  0
  5  6  1  6
  7  5  1  0
  8  7  2  0
 10  9  1  0
 11 10  1  6
 11 12  1  0
 11 13  1  0
 12  7  1  0
 13 18  1  0
 14 13  2  0
 16 15  1  0
 17 16  1  1
 17 19  1  0
 18 17  1  0
 19 21  2  0
 19 20  1  0
M  END
$$$$
