LSS.pdb
     RDKit          3D

 21 20  0  0  1  0  0  0  0  0999 V2000
    9.1541  -14.3930   19.5934 C   0  0  0  0  0  0  0  0  0  0  0  0
    7.7710  -13.7883   19.7463 C   0  0  2  0  0  0  0  0  0  0  0  0
    7.7433  -12.3431   19.3277 C   0  0  0  0  0  0  0  0  0  0  0  0
    7.3673  -13.9648   21.2028 C   0  0  0  0  0  0  0  0  0  0  0  0
    7.1450  -15.4331   21.4260 C   0  0  2  0  0  0  0  0  0  0  0  0
    5.9937  -15.8434   20.6434 N   0  0  0  0  0  0  0  0  0  0  0  0
    6.9524  -15.7926   22.8415 C   0  0  0  0  0  0  0  0  0  0  0  0
    5.9742  -15.3251   23.4811 O   0  0  0  0  0  0  0  0  0  0  0  0
    8.4529  -19.1804   24.8398 O   0  0  0  0  0  0  0  0  0  0  0  0
    7.4529  -18.3428   25.3135 C   0  0  0  0  0  0  0  0  0  0  0  0
    7.7199  -16.8904   24.9773 C   0  0  2  0  0  0  0  0  0  0  0  0
    7.8251  -16.6625   23.5648 N   0  0  0  0  0  0  0  0  0  0  0  0
    8.9287  -16.4814   25.7269 C   0  0  0  0  0  0  0  0  0  0  0  0
   10.0335  -16.2007   25.2143 O   0  0  0  0  0  0  0  0  0  0  0  0
   10.7174  -14.1639   29.3323 O   0  0  0  0  0  0  0  0  0  0  0  0
    9.6812  -14.5980   28.5419 C   0  0  0  0  0  0  0  0  0  0  0  0
    9.9518  -15.9975   27.9762 C   0  0  2  0  0  0  0  0  0  0  0  0
    8.8177  -16.4034   27.1430 N   0  0  0  0  0  0  0  0  0  0  0  0
   10.1163  -16.9566   29.0831 C   0  0  0  0  0  0  0  0  0  0  0  0
   11.2870  -16.9987   29.8042 O   0  0  0  0  0  0  0  0  0  0  0  0
    9.1885  -17.7366   29.3697 O   0  0  0  0  0  0  0  0  0  0  0  0
  2  1  1  1
  3  2  1  0
  4  2  1  0
  4  5  1  0
  5  6  1  6
  7  5  1  0
  8  7  2  0
 10  9  1  0
 11 10  1  6
 11 12  1  0
 11 13  1  0
 12  7  1  0
 13 18  1  0
 14 13  2  0
 16 15  1  0
 17 16  1  1
 17 19  1  0
 18 17  1  0
 19 21  2  0
 19 20  1  0
M  END
$$$$
