LSS.pdb
     RDKit          3D

 21 20  0  0  1  0  0  0  0  0999 V2000
    6.7663  -15.7976   17.1608 C   0  0  0  0  0  0  0  0  0  0  0  0
    8.0588  -15.2486   16.5864 C   0  0  2  0  0  0  0  0  0  0  0  0
    8.6569  -16.1792   15.5660 C   0  0  0  0  0  0  0  0  0  0  0  0
    9.0003  -15.0110   17.7581 C   0  0  0  0  0  0  0  0  0  0  0  0
    8.3087  -14.0649   18.6971 C   0  0  2  0  0  0  0  0  0  0  0  0
    8.2998  -12.7465   18.0901 N   0  0  0  0  0  0  0  0  0  0  0  0
    8.9238  -14.0054   20.0342 C   0  0  0  0  0  0  0  0  0  0  0  0
    9.9110  -13.2515   20.2389 O   0  0  0  0  0  0  0  0  0  0  0  0
    7.2457  -15.8404   23.4760 O   0  0  0  0  0  0  0  0  0  0  0  0
    8.1800  -14.8206   23.5891 C   0  0  0  0  0  0  0  0  0  0  0  0
    9.1405  -14.7957   22.4184 C   0  0  2  0  0  0  0  0  0  0  0  0
    8.4654  -14.7670   21.1528 N   0  0  0  0  0  0  0  0  0  0  0  0
   10.0480  -15.9549   22.5705 C   0  0  0  0  0  0  0  0  0  0  0  0
    9.8874  -17.0710   22.0314 O   0  0  0  0  0  0  0  0  0  0  0  0
   14.0408  -15.5222   22.9942 O   0  0  0  0  0  0  0  0  0  0  0  0
   13.5031  -16.2679   24.0148 C   0  0  0  0  0  0  0  0  0  0  0  0
   12.1468  -16.8660   23.6218 C   0  0  2  0  0  0  0  0  0  0  0  0
   11.1921  -15.7782   23.3972 N   0  0  0  0  0  0  0  0  0  0  0  0
   11.6551  -17.7352   24.7058 C   0  0  0  0  0  0  0  0  0  0  0  0
   12.3012  -18.9117   25.0068 O   0  0  0  0  0  0  0  0  0  0  0  0
   10.6460  -17.4033   25.3562 O   0  0  0  0  0  0  0  0  0  0  0  0
  2  1  1  1
  3  2  1  0
  4  2  1  0
  4  5  1  0
  5  6  1  6
  7  5  1  0
  8  7  2  0
 10  9  1  0
 11 10  1  1
 11 12  1  0
 11 13  1  0
 12  7  1  0
 13 18  1  0
 14 13  2  0
 16 15  1  0
 17 16  1  1
 17 19  1  0
 18 17  1  0
 19 21  2  0
 19 20  1  0
M  END
$$$$
