LSS.pdb
     RDKit          3D

 21 20  0  0  1  0  0  0  0  0999 V2000
    9.6336  -12.7437   19.1300 C   0  0  0  0  0  0  0  0  0  0  0  0
    8.1598  -13.1041   19.1175 C   0  0  2  0  0  0  0  0  0  0  0  0
    7.2868  -11.8950   19.3190 C   0  0  0  0  0  0  0  0  0  0  0  0
    7.9477  -14.1448   20.2073 C   0  0  0  0  0  0  0  0  0  0  0  0
    8.8033  -15.3294   19.8611 C   0  0  2  0  0  0  0  0  0  0  0  0
    8.2017  -16.0102   18.7292 N   0  0  0  0  0  0  0  0  0  0  0  0
    8.9905  -16.2695   20.9796 C   0  0  0  0  0  0  0  0  0  0  0  0
    7.9943  -16.8456   21.4898 O   0  0  0  0  0  0  0  0  0  0  0  0
   12.7453  -16.9278   23.0267 O   0  0  0  0  0  0  0  0  0  0  0  0
   11.8679  -17.9738   22.7780 C   0  0  0  0  0  0  0  0  0  0  0  0
   10.4372  -17.4965   22.6401 C   0  0  2  0  0  0  0  0  0  0  0  0
   10.2638  -16.5851   21.5459 N   0  0  0  0  0  0  0  0  0  0  0  0
   10.0374  -16.9250   23.9456 C   0  0  0  0  0  0  0  0  0  0  0  0
   10.2110  -15.7379   24.2958 O   0  0  0  0  0  0  0  0  0  0  0  0
    7.0501  -18.6656   25.9677 O   0  0  0  0  0  0  0  0  0  0  0  0
    7.5351  -17.4557   26.4013 C   0  0  0  0  0  0  0  0  0  0  0  0
    9.0553  -17.3611   26.2227 C   0  0  2  0  0  0  0  0  0  0  0  0
    9.4057  -17.8019   24.8707 N   0  0  0  0  0  0  0  0  0  0  0  0
    9.7255  -18.2256   27.2106 C   0  0  0  0  0  0  0  0  0  0  0  0
    9.5955  -17.9798   28.5578 O   0  0  0  0  0  0  0  0  0  0  0  0
   10.4159  -19.1876   26.8242 O   0  0  0  0  0  0  0  0  0  0  0  0
  2  1  1  1
  3  2  1  0
  4  2  1  0
  4  5  1  0
  5  6  1  6
  7  5  1  0
  8  7  2  0
 10  9  1  0
 11 10  1  1
 11 12  1  0
 11 13  1  0
 12  7  1  0
 13 18  1  0
 14 13  2  0
 16 15  1  0
 17 16  1  6
 17 19  1  0
 18 17  1  0
 19 21  2  0
 19 20  1  0
M  END
$$$$
