LSS.pdb
     RDKit          3D

 21 20  0  0  1  0  0  0  0  0999 V2000
    6.1627  -12.2843   25.3457 C   0  0  0  0  0  0  0  0  0  0  0  0
    6.3782  -13.0786   26.6203 C   0  0  2  0  0  0  0  0  0  0  0  0
    6.7272  -12.1878   27.7819 C   0  0  0  0  0  0  0  0  0  0  0  0
    7.4766  -14.0916   26.3323 C   0  0  0  0  0  0  0  0  0  0  0  0
    6.9410  -15.0451   25.3031 C   0  0  2  0  0  0  0  0  0  0  0  0
    5.9107  -15.8557   25.9260 N   0  0  0  0  0  0  0  0  0  0  0  0
    7.9736  -15.9074   24.7032 C   0  0  0  0  0  0  0  0  0  0  0  0
    8.3632  -16.9380   25.3121 O   0  0  0  0  0  0  0  0  0  0  0  0
   10.1924  -14.8681   21.1523 O   0  0  0  0  0  0  0  0  0  0  0  0
    9.8908  -16.1933   21.4329 C   0  0  0  0  0  0  0  0  0  0  0  0
    9.6714  -16.4263   22.9132 C   0  0  2  0  0  0  0  0  0  0  0  0
    8.5852  -15.6498   23.4379 N   0  0  0  0  0  0  0  0  0  0  0  0
   10.9591  -16.1648   23.5943 C   0  0  0  0  0  0  0  0  0  0  0  0
   11.2460  -15.1190   24.2156 O   0  0  0  0  0  0  0  0  0  0  0  0
   14.9591  -18.2265   25.3367 O   0  0  0  0  0  0  0  0  0  0  0  0
   13.7145  -18.3339   24.7652 C   0  0  0  0  0  0  0  0  0  0  0  0
   13.2693  -17.0105   24.1312 C   0  0  2  0  0  0  0  0  0  0  0  0
   11.9443  -17.1892   23.5332 N   0  0  0  0  0  0  0  0  0  0  0  0
   14.2301  -16.6128   23.0868 C   0  0  0  0  0  0  0  0  0  0  0  0
   15.4202  -16.0107   23.4236 O   0  0  0  0  0  0  0  0  0  0  0  0
   13.9642  -16.8227   21.8882 O   0  0  0  0  0  0  0  0  0  0  0  0
  2  1  1  6
  3  2  1  0
  4  2  1  0
  4  5  1  0
  5  6  1  1
  7  5  1  0
  8  7  2  0
 10  9  1  0
 11 10  1  6
 11 12  1  0
 11 13  1  0
 12  7  1  0
 13 18  1  0
 14 13  2  0
 16 15  1  0
 17 16  1  6
 17 19  1  0
 18 17  1  0
 19 21  2  0
 19 20  1  0
M  END
$$$$
