LSS.pdb
     RDKit          3D

 21 20  0  0  1  0  0  0  0  0999 V2000
    9.5619  -13.5666   19.5170 C   0  0  0  0  0  0  0  0  0  0  0  0
    8.0855  -13.7525   19.2207 C   0  0  2  0  0  0  0  0  0  0  0  0
    7.5065  -12.5661   18.4984 C   0  0  0  0  0  0  0  0  0  0  0  0
    7.3924  -13.9992   20.5528 C   0  0  0  0  0  0  0  0  0  0  0  0
    8.0440  -15.2006   21.1752 C   0  0  2  0  0  0  0  0  0  0  0  0
    7.6335  -16.3775   20.4316 N   0  0  0  0  0  0  0  0  0  0  0  0
    7.7312  -15.3673   22.6050 C   0  0  0  0  0  0  0  0  0  0  0  0
    6.5460  -15.2368   23.0085 O   0  0  0  0  0  0  0  0  0  0  0  0
    8.1865  -18.2168   24.9353 O   0  0  0  0  0  0  0  0  0  0  0  0
    7.5441  -17.0356   25.2784 C   0  0  0  0  0  0  0  0  0  0  0  0
    8.3995  -15.8186   24.9936 C   0  0  2  0  0  0  0  0  0  0  0  0
    8.7089  -15.6768   23.6000 N   0  0  0  0  0  0  0  0  0  0  0  0
    9.6013  -15.9163   25.8520 C   0  0  0  0  0  0  0  0  0  0  0  0
   10.6281  -16.5754   25.5814 O   0  0  0  0  0  0  0  0  0  0  0  0
    9.2927  -13.9607   29.4735 O   0  0  0  0  0  0  0  0  0  0  0  0
   10.5818  -14.1137   29.0244 C   0  0  0  0  0  0  0  0  0  0  0  0
   10.6970  -15.2715   28.0254 C   0  0  2  0  0  0  0  0  0  0  0  0
    9.5795  -15.2007   27.0813 N   0  0  0  0  0  0  0  0  0  0  0  0
   10.6499  -16.5558   28.7471 C   0  0  0  0  0  0  0  0  0  0  0  0
   11.6905  -16.9397   29.5607 O   0  0  0  0  0  0  0  0  0  0  0  0
    9.6602  -17.3013   28.6205 O   0  0  0  0  0  0  0  0  0  0  0  0
  2  1  1  1
  3  2  1  0
  4  2  1  0
  4  5  1  0
  5  6  1  6
  7  5  1  0
  8  7  2  0
 10  9  1  0
 11 10  1  6
 11 12  1  0
 11 13  1  0
 12  7  1  0
 13 18  1  0
 14 13  2  0
 16 15  1  0
 17 16  1  1
 17 19  1  0
 18 17  1  0
 19 21  2  0
 19 20  1  0
M  END
$$$$
