LSS.pdb
     RDKit          3D

 21 20  0  0  1  0  0  0  0  0999 V2000
    9.9593  -12.9977   19.3449 C   0  0  0  0  0  0  0  0  0  0  0  0
    8.4935  -13.1964   19.0070 C   0  0  2  0  0  0  0  0  0  0  0  0
    7.7176  -11.9108   19.1064 C   0  0  0  0  0  0  0  0  0  0  0  0
    7.9581  -14.2570   19.9578 C   0  0  0  0  0  0  0  0  0  0  0  0
    8.8336  -15.4680   19.8089 C   0  0  2  0  0  0  0  0  0  0  0  0
    8.3597  -16.2352   18.6716 N   0  0  0  0  0  0  0  0  0  0  0  0
    8.8776  -16.3163   21.0123 C   0  0  0  0  0  0  0  0  0  0  0  0
    7.8265  -16.8679   21.4311 O   0  0  0  0  0  0  0  0  0  0  0  0
   12.0845  -18.5041   22.1607 O   0  0  0  0  0  0  0  0  0  0  0  0
   10.8282  -18.6943   22.7186 C   0  0  0  0  0  0  0  0  0  0  0  0
   10.0996  -17.3852   22.9409 C   0  0  2  0  0  0  0  0  0  0  0  0
   10.0670  -16.5663   21.7635 N   0  0  0  0  0  0  0  0  0  0  0  0
   10.7375  -16.7191   24.0985 C   0  0  0  0  0  0  0  0  0  0  0  0
   11.7261  -15.9571   24.0363 O   0  0  0  0  0  0  0  0  0  0  0  0
    8.9899  -14.9916   26.9900 O   0  0  0  0  0  0  0  0  0  0  0  0
    9.7558  -15.9733   27.5702 C   0  0  0  0  0  0  0  0  0  0  0  0
   10.8262  -16.4972   26.6051 C   0  0  2  0  0  0  0  0  0  0  0  0
   10.1756  -16.9702   25.3811 N   0  0  0  0  0  0  0  0  0  0  0  0
   11.5587  -17.6109   27.2340 C   0  0  0  0  0  0  0  0  0  0  0  0
   12.2705  -17.4134   28.3945 O   0  0  0  0  0  0  0  0  0  0  0  0
   11.5342  -18.7415   26.7119 O   0  0  0  0  0  0  0  0  0  0  0  0
  2  1  1  1
  3  2  1  0
  4  2  1  0
  4  5  1  0
  5  6  1  6
  7  5  1  0
  8  7  2  0
 10  9  1  0
 11 10  1  6
 11 12  1  0
 11 13  1  0
 12  7  1  0
 13 18  1  0
 14 13  2  0
 16 15  1  0
 17 16  1  1
 17 19  1  0
 18 17  1  0
 19 21  2  0
 19 20  1  0
M  END
$$$$
