LSS.pdb
     RDKit          3D

 21 20  0  0  1  0  0  0  0  0999 V2000
    9.6706  -13.5290   19.3917 C   0  0  0  0  0  0  0  0  0  0  0  0
    8.1629  -13.5776   19.5544 C   0  0  2  0  0  0  0  0  0  0  0  0
    7.5255  -12.2468   19.2587 C   0  0  0  0  0  0  0  0  0  0  0  0
    7.8841  -14.0361   20.9784 C   0  0  0  0  0  0  0  0  0  0  0  0
    8.4133  -15.4359   21.1046 C   0  0  2  0  0  0  0  0  0  0  0  0
    7.6155  -16.3023   20.2564 N   0  0  0  0  0  0  0  0  0  0  0  0
    8.4188  -15.9425   22.4877 C   0  0  0  0  0  0  0  0  0  0  0  0
    7.3427  -16.0069   23.1377 O   0  0  0  0  0  0  0  0  0  0  0  0
   11.7817  -17.7789   24.3144 O   0  0  0  0  0  0  0  0  0  0  0  0
   10.5016  -17.9497   24.8223 C   0  0  0  0  0  0  0  0  0  0  0  0
    9.6174  -16.7499   24.5534 C   0  0  2  0  0  0  0  0  0  0  0  0
    9.5968  -16.3806   23.1673 N   0  0  0  0  0  0  0  0  0  0  0  0
   10.0760  -15.6588   25.4421 C   0  0  0  0  0  0  0  0  0  0  0  0
   10.9639  -14.8255   25.1605 O   0  0  0  0  0  0  0  0  0  0  0  0
    8.2192  -13.0356   26.8862 O   0  0  0  0  0  0  0  0  0  0  0  0
    8.7169  -13.6276   28.0215 C   0  0  0  0  0  0  0  0  0  0  0  0
    9.8889  -14.5634   27.7016 C   0  0  2  0  0  0  0  0  0  0  0  0
    9.4527  -15.5558   26.7167 N   0  0  0  0  0  0  0  0  0  0  0  0
   10.3251  -15.2499   28.9307 C   0  0  0  0  0  0  0  0  0  0  0  0
   10.8042  -14.5310   30.0012 O   0  0  0  0  0  0  0  0  0  0  0  0
   10.2603  -16.4917   29.0028 O   0  0  0  0  0  0  0  0  0  0  0  0
  2  1  1  1
  3  2  1  0
  4  2  1  0
  4  5  1  0
  5  6  1  6
  7  5  1  0
  8  7  2  0
 10  9  1  0
 11 10  1  6
 11 12  1  0
 11 13  1  0
 12  7  1  0
 13 18  1  0
 14 13  2  0
 16 15  1  0
 17 16  1  1
 17 19  1  0
 18 17  1  0
 19 21  2  0
 19 20  1  0
M  END
$$$$
