MIV.pdb
     RDKit          3D

 24 23  0  0  1  0  0  0  0  0999 V2000
   19.4752  -18.7296  -13.3823 C   0  0  0  0  0  0  0  0  0  0  0  0
   19.8226  -17.9727  -14.9560 S   0  0  0  0  0  0  0  0  0  0  0  0
   21.2106  -18.6360  -15.8281 C   0  0  0  0  0  0  0  0  0  0  0  0
   21.9925  -19.6478  -15.0693 C   0  0  0  0  0  0  0  0  0  0  0  0
   23.1817  -20.1321  -15.8221 C   0  0  2  0  0  0  0  0  0  0  0  0
   22.7403  -21.0809  -16.8302 N   0  0  0  0  0  0  0  0  0  0  0  0
   24.1293  -20.8789  -14.9213 C   0  0  0  0  0  0  0  0  0  0  0  0
   23.7970  -21.9880  -14.4888 O   0  0  0  0  0  0  0  0  0  0  0  0
   29.0664  -21.5404  -16.1085 C   0  0  0  0  0  0  0  0  0  0  0  0
   27.7591  -21.5640  -15.4066 C   0  0  0  0  0  0  0  0  0  0  0  0
   27.6824  -20.5966  -14.2381 C   0  0  2  0  0  0  0  0  0  0  0  0
   28.6921  -20.8897  -13.1888 C   0  0  0  0  0  0  0  0  0  0  0  0
   26.2798  -20.8430  -13.6534 C   0  0  2  0  0  0  0  0  0  0  0  0
   25.3487  -20.2384  -14.6365 N   0  0  0  0  0  0  0  0  0  0  0  0
   26.0600  -20.1763  -12.3686 C   0  0  0  0  0  0  0  0  0  0  0  0
   26.0094  -18.8902  -12.3506 O   0  0  0  0  0  0  0  0  0  0  0  0
   24.3124  -19.3498   -8.0079 C   0  0  0  0  0  0  0  0  0  0  0  0
   24.4870  -20.2491   -9.2226 C   0  0  2  0  0  0  0  0  0  0  0  0
   24.3078  -21.6713   -8.7910 C   0  0  0  0  0  0  0  0  0  0  0  0
   25.7901  -19.9794   -9.8881 C   0  0  2  0  0  0  0  0  0  0  0  0
   25.8877  -20.7877  -11.1067 N   0  0  0  0  0  0  0  0  0  0  0  0
   26.9128  -20.2769   -8.9659 C   0  0  0  0  0  0  0  0  0  0  0  0
   27.2416  -19.4524   -7.9210 O   0  0  0  0  0  0  0  0  0  0  0  0
   27.6005  -21.3245   -9.1367 O   0  0  0  0  0  0  0  0  0  0  0  0
  1  2  1  0
  2  3  1  0
  4  3  1  0
  5  4  1  0
  5  6  1  6
  7  5  1  0
  7 14  1  0
  8  7  2  0
 10  9  1  0
 10 11  1  0
 11 13  1  0
 11 12  1  1
 13 14  1  6
 15 21  1  0
 15 13  1  0
 16 15  2  0
 18 17  1  1
 18 20  1  0
 18 19  1  0
 20 21  1  6
 20 22  1  0
 22 23  1  0
 24 22  2  0
M  END
$$$$
