MIV.pdb
     RDKit          3D

 24 23  0  0  1  0  0  0  0  0999 V2000
   28.2817  -10.1249  -16.3231 C   0  0  0  0  0  0  0  0  0  0  0  0
   28.0823  -11.8922  -16.2398 S   0  0  0  0  0  0  0  0  0  0  0  0
   26.4460  -12.4557  -15.8763 C   0  0  0  0  0  0  0  0  0  0  0  0
   25.3605  -11.6016  -16.4268 C   0  0  0  0  0  0  0  0  0  0  0  0
   24.0050  -12.0916  -16.0558 C   0  0  2  0  0  0  0  0  0  0  0  0
   23.7410  -13.3241  -16.7787 N   0  0  0  0  0  0  0  0  0  0  0  0
   22.9389  -11.1152  -16.4768 C   0  0  0  0  0  0  0  0  0  0  0  0
   22.6072  -11.0653  -17.6663 O   0  0  0  0  0  0  0  0  0  0  0  0
   18.4170  -11.7412  -15.6187 C   0  0  0  0  0  0  0  0  0  0  0  0
   19.6294  -11.0152  -16.0716 C   0  0  0  0  0  0  0  0  0  0  0  0
   20.0557   -9.9028  -15.1292 C   0  0  2  0  0  0  0  0  0  0  0  0
   19.0464   -8.8168  -15.0367 C   0  0  0  0  0  0  0  0  0  0  0  0
   21.3278   -9.3372  -15.7860 C   0  0  2  0  0  0  0  0  0  0  0  0
   22.3911  -10.3169  -15.4565 N   0  0  0  0  0  0  0  0  0  0  0  0
   21.7367   -8.0413  -15.2411 C   0  0  0  0  0  0  0  0  0  0  0  0
   22.0409   -7.9743  -13.9921 O   0  0  0  0  0  0  0  0  0  0  0  0
   22.6778   -4.4996  -17.4514 C   0  0  0  0  0  0  0  0  0  0  0  0
   23.3388   -4.9393  -16.1535 C   0  0  2  0  0  0  0  0  0  0  0  0
   24.5312   -5.7803  -16.4883 C   0  0  0  0  0  0  0  0  0  0  0  0
   22.3521   -5.6153  -15.2687 C   0  0  2  0  0  0  0  0  0  0  0  0
   21.8457   -6.8170  -15.9376 N   0  0  0  0  0  0  0  0  0  0  0  0
   21.2421   -4.6915  -14.9315 C   0  0  0  0  0  0  0  0  0  0  0  0
   21.3453   -3.7534  -13.9370 O   0  0  0  0  0  0  0  0  0  0  0  0
   20.1555   -4.7593  -15.5752 O   0  0  0  0  0  0  0  0  0  0  0  0
  1  2  1  0
  2  3  1  0
  4  3  1  0
  5  4  1  0
  5  6  1  6
  7  5  1  0
  7 14  1  0
  8  7  2  0
 10  9  1  0
 10 11  1  0
 11 13  1  0
 11 12  1  6
 13 14  1  1
 15 21  1  0
 15 13  1  0
 16 15  2  0
 18 17  1  6
 18 20  1  0
 18 19  1  0
 20 21  1  6
 20 22  1  0
 22 23  1  0
 24 22  2  0
M  END
$$$$
