MIV.pdb
     RDKit          3D

 24 23  0  0  1  0  0  0  0  0999 V2000
   20.0823  -18.0221  -11.5580 C   0  0  0  0  0  0  0  0  0  0  0  0
   19.7112  -18.5532  -13.2164 S   0  0  0  0  0  0  0  0  0  0  0  0
   21.0630  -19.2658  -14.1063 C   0  0  0  0  0  0  0  0  0  0  0  0
   21.9947  -20.0729  -13.2748 C   0  0  0  0  0  0  0  0  0  0  0  0
   23.1685  -20.5646  -14.0467 C   0  0  2  0  0  0  0  0  0  0  0  0
   22.7212  -21.5940  -14.9696 N   0  0  0  0  0  0  0  0  0  0  0  0
   24.1811  -21.2154  -13.1422 C   0  0  0  0  0  0  0  0  0  0  0  0
   23.9706  -22.3628  -12.7337 O   0  0  0  0  0  0  0  0  0  0  0  0
   28.8641  -21.3156  -14.7292 C   0  0  0  0  0  0  0  0  0  0  0  0
   27.6528  -21.4835  -13.8885 C   0  0  0  0  0  0  0  0  0  0  0  0
   27.6890  -20.6701  -12.6061 C   0  0  2  0  0  0  0  0  0  0  0  0
   28.7967  -21.0778  -11.7043 C   0  0  0  0  0  0  0  0  0  0  0  0
   26.3506  -21.0063  -11.9242 C   0  0  2  0  0  0  0  0  0  0  0  0
   25.3154  -20.4461  -12.8260 N   0  0  0  0  0  0  0  0  0  0  0  0
   26.1883  -20.3696  -10.6158 C   0  0  0  0  0  0  0  0  0  0  0  0
   25.9945  -19.0977  -10.5774 O   0  0  0  0  0  0  0  0  0  0  0  0
   23.9168  -21.3597   -7.6332 C   0  0  0  0  0  0  0  0  0  0  0  0
   25.3088  -21.0242   -7.1190 C   0  0  2  0  0  0  0  0  0  0  0  0
   25.1755  -20.3631   -5.7825 C   0  0  0  0  0  0  0  0  0  0  0  0
   26.0539  -20.2155   -8.1212 C   0  0  2  0  0  0  0  0  0  0  0  0
   26.2156  -20.9971   -9.3504 N   0  0  0  0  0  0  0  0  0  0  0  0
   27.3721  -19.8064   -7.5786 C   0  0  0  0  0  0  0  0  0  0  0  0
   27.5346  -18.6737   -6.8233 O   0  0  0  0  0  0  0  0  0  0  0  0
   28.3917  -20.5173   -7.8123 O   0  0  0  0  0  0  0  0  0  0  0  0
  1  2  1  0
  2  3  1  0
  4  3  1  0
  5  4  1  0
  5  6  1  6
  7  5  1  0
  7 14  1  0
  8  7  2  0
 10  9  1  0
 10 11  1  0
 11 13  1  0
 11 12  1  1
 13 14  1  6
 15 21  1  0
 15 13  1  0
 16 15  2  0
 18 17  1  6
 18 20  1  0
 18 19  1  0
 20 21  1  6
 20 22  1  0
 22 23  1  0
 24 22  2  0
M  END
$$$$
