MIV.pdb
     RDKit          3D

 24 23  0  0  1  0  0  0  0  0999 V2000
   21.8665  -16.8444  -16.5716 C   0  0  0  0  0  0  0  0  0  0  0  0
   23.0699  -15.8796  -17.4611 S   0  0  0  0  0  0  0  0  0  0  0  0
   24.6832  -16.5946  -17.5748 C   0  0  0  0  0  0  0  0  0  0  0  0
   24.8602  -17.8498  -16.7975 C   0  0  0  0  0  0  0  0  0  0  0  0
   26.2269  -18.4217  -16.9404 C   0  0  2  0  0  0  0  0  0  0  0  0
   26.3562  -18.9930  -18.2702 N   0  0  0  0  0  0  0  0  0  0  0  0
   26.4490  -19.5507  -15.9693 C   0  0  0  0  0  0  0  0  0  0  0  0
   25.8909  -20.6347  -16.1720 O   0  0  0  0  0  0  0  0  0  0  0  0
   30.6031  -21.3897  -11.9544 C   0  0  0  0  0  0  0  0  0  0  0  0
   29.2013  -21.2752  -12.4278 C   0  0  0  0  0  0  0  0  0  0  0  0
   29.0031  -20.1936  -13.4757 C   0  0  2  0  0  0  0  0  0  0  0  0
   29.2545  -18.8305  -12.9416 C   0  0  0  0  0  0  0  0  0  0  0  0
   27.5127  -20.3110  -13.8423 C   0  0  2  0  0  0  0  0  0  0  0  0
   27.2958  -19.2749  -14.8807 N   0  0  0  0  0  0  0  0  0  0  0  0
   26.6139  -20.0125  -12.7257 C   0  0  0  0  0  0  0  0  0  0  0  0
   26.5097  -18.7896  -12.3379 O   0  0  0  0  0  0  0  0  0  0  0  0
   22.6287  -20.2887  -10.1095 C   0  0  0  0  0  0  0  0  0  0  0  0
   23.5401  -20.7249  -11.2469 C   0  0  2  0  0  0  0  0  0  0  0  0
   23.2394  -22.1540  -11.5759 C   0  0  0  0  0  0  0  0  0  0  0  0
   24.9646  -20.4718  -10.8999 C   0  0  2  0  0  0  0  0  0  0  0  0
   25.8192  -20.9276  -11.9999 N   0  0  0  0  0  0  0  0  0  0  0  0
   25.3191  -21.1612   -9.6356 C   0  0  0  0  0  0  0  0  0  0  0  0
   25.1267  -20.5841   -8.4069 O   0  0  0  0  0  0  0  0  0  0  0  0
   25.8174  -22.3230   -9.6760 O   0  0  0  0  0  0  0  0  0  0  0  0
  1  2  1  0
  2  3  1  0
  4  3  1  0
  5  4  1  0
  5  6  1  6
  7  5  1  0
  7 14  1  0
  8  7  2  0
 10  9  1  0
 10 11  1  0
 11 13  1  0
 11 12  1  1
 13 14  1  6
 15 21  1  0
 15 13  1  0
 16 15  2  0
 18 17  1  1
 18 20  1  0
 18 19  1  0
 20 21  1  6
 20 22  1  0
 22 23  1  0
 24 22  2  0
M  END
$$$$
