MIV.pdb
     RDKit          3D

 24 23  0  0  1  0  0  0  0  0999 V2000
   26.1966  -16.8335  -16.8221 C   0  0  0  0  0  0  0  0  0  0  0  0
   27.5892  -16.3537  -15.8218 S   0  0  0  0  0  0  0  0  0  0  0  0
   28.3034  -17.6434  -14.8453 C   0  0  0  0  0  0  0  0  0  0  0  0
   27.3267  -18.6304  -14.3136 C   0  0  0  0  0  0  0  0  0  0  0  0
   27.9854  -19.7534  -13.5922 C   0  0  2  0  0  0  0  0  0  0  0  0
   28.7372  -20.5457  -14.5506 N   0  0  0  0  0  0  0  0  0  0  0  0
   26.9677  -20.6793  -12.9806 C   0  0  0  0  0  0  0  0  0  0  0  0
   26.5838  -21.6600  -13.6276 O   0  0  0  0  0  0  0  0  0  0  0  0
   26.8979  -20.5399   -7.7157 C   0  0  0  0  0  0  0  0  0  0  0  0
   26.6273  -21.0504   -9.0826 C   0  0  0  0  0  0  0  0  0  0  0  0
   25.2949  -20.5892   -9.6477 C   0  0  2  0  0  0  0  0  0  0  0  0
   24.1381  -21.2468   -8.9875 C   0  0  0  0  0  0  0  0  0  0  0  0
   25.3462  -21.0440  -11.1175 C   0  0  2  0  0  0  0  0  0  0  0  0
   26.5233  -20.3460  -11.6885 N   0  0  0  0  0  0  0  0  0  0  0  0
   24.1726  -20.6383  -11.8931 C   0  0  0  0  0  0  0  0  0  0  0  0
   24.1538  -19.4528  -12.3941 O   0  0  0  0  0  0  0  0  0  0  0  0
   21.3791  -20.8590  -15.5113 C   0  0  0  0  0  0  0  0  0  0  0  0
   22.4309  -21.2990  -14.5040 C   0  0  2  0  0  0  0  0  0  0  0  0
   22.6927  -22.7601  -14.6974 C   0  0  0  0  0  0  0  0  0  0  0  0
   22.0130  -20.9379  -13.1224 C   0  0  2  0  0  0  0  0  0  0  0  0
   23.0232  -21.4110  -12.1719 N   0  0  0  0  0  0  0  0  0  0  0  0
   20.6847  -21.5213  -12.8150 C   0  0  0  0  0  0  0  0  0  0  0  0
   19.5128  -20.9005  -13.1630 O   0  0  0  0  0  0  0  0  0  0  0  0
   20.6142  -22.6302  -12.2108 O   0  0  0  0  0  0  0  0  0  0  0  0
  1  2  1  0
  2  3  1  0
  4  3  1  0
  5  4  1  0
  5  6  1  6
  7  5  1  0
  7 14  1  0
  8  7  2  0
 10  9  1  0
 10 11  1  0
 11 13  1  0
 11 12  1  1
 13 14  1  6
 15 21  1  0
 15 13  1  0
 16 15  2  0
 18 17  1  6
 18 20  1  0
 18 19  1  0
 20 21  1  1
 20 22  1  0
 22 23  1  0
 24 22  2  0
M  END
$$$$
