MIV.pdb
     RDKit          3D

 24 23  0  0  1  0  0  0  0  0999 V2000
   15.4447  -23.8575    4.5201 C   0  0  0  0  0  0  0  0  0  0  0  0
   13.9913  -22.9379    4.0597 S   0  0  0  0  0  0  0  0  0  0  0  0
   14.2853  -21.4851    3.0952 C   0  0  0  0  0  0  0  0  0  0  0  0
   15.5185  -20.7389    3.4603 C   0  0  0  0  0  0  0  0  0  0  0  0
   15.7674  -19.5755    2.5659 C   0  0  2  0  0  0  0  0  0  0  0  0
   16.1183  -20.0697    1.2453 N   0  0  0  0  0  0  0  0  0  0  0  0
   16.9429  -18.7641    3.0423 C   0  0  0  0  0  0  0  0  0  0  0  0
   18.0612  -18.9930    2.5685 O   0  0  0  0  0  0  0  0  0  0  0  0
   17.9619  -13.0716    4.2821 C   0  0  0  0  0  0  0  0  0  0  0  0
   18.2920  -14.5028    4.4936 C   0  0  0  0  0  0  0  0  0  0  0  0
   17.1469  -15.4434    4.1597 C   0  0  2  0  0  0  0  0  0  0  0  0
   15.9721  -15.2480    5.0474 C   0  0  0  0  0  0  0  0  0  0  0  0
   17.7356  -16.8411    4.4235 C   0  0  2  0  0  0  0  0  0  0  0  0
   16.6677  -17.7848    4.0136 N   0  0  0  0  0  0  0  0  0  0  0  0
   18.0286  -17.0916    5.8359 C   0  0  0  0  0  0  0  0  0  0  0  0
   17.0565  -17.4304    6.6088 O   0  0  0  0  0  0  0  0  0  0  0  0
   20.8228  -19.2830    7.1738 C   0  0  0  0  0  0  0  0  0  0  0  0
   20.7301  -18.0687    8.0856 C   0  0  2  0  0  0  0  0  0  0  0  0
   20.9743  -18.5121    9.4944 C   0  0  0  0  0  0  0  0  0  0  0  0
   19.4327  -17.3672    7.8894 C   0  0  2  0  0  0  0  0  0  0  0  0
   19.2852  -17.0086    6.4761 N   0  0  0  0  0  0  0  0  0  0  0  0
   19.3616  -16.1616    8.7502 C   0  0  0  0  0  0  0  0  0  0  0  0
   18.8354  -16.1943   10.0158 O   0  0  0  0  0  0  0  0  0  0  0  0
   19.7977  -15.0570    8.3152 O   0  0  0  0  0  0  0  0  0  0  0  0
  1  2  1  0
  2  3  1  0
  4  3  1  0
  5  4  1  0
  5  6  1  6
  7  5  1  0
  7 14  1  0
  8  7  2  0
 10  9  1  0
 10 11  1  0
 11 13  1  0
 11 12  1  1
 13 14  1  1
 15 21  1  0
 15 13  1  0
 16 15  2  0
 18 17  1  6
 18 20  1  0
 18 19  1  0
 20 21  1  6
 20 22  1  0
 22 23  1  0
 24 22  2  0
M  END
$$$$
