MIV.pdb
     RDKit          3D

 24 23  0  0  1  0  0  0  0  0999 V2000
   31.2436  -21.0760  -10.4963 C   0  0  0  0  0  0  0  0  0  0  0  0
   31.5343  -22.3605  -11.6945 S   0  0  0  0  0  0  0  0  0  0  0  0
   30.9171  -22.0371  -13.3198 C   0  0  0  0  0  0  0  0  0  0  0  0
   29.6198  -21.3115  -13.3563 C   0  0  0  0  0  0  0  0  0  0  0  0
   29.1235  -21.0990  -14.7433 C   0  0  2  0  0  0  0  0  0  0  0  0
   30.0561  -20.2327  -15.4443 N   0  0  0  0  0  0  0  0  0  0  0  0
   27.7977  -20.3853  -14.7440 C   0  0  0  0  0  0  0  0  0  0  0  0
   27.7766  -19.1591  -14.5900 O   0  0  0  0  0  0  0  0  0  0  0  0
   25.7009  -20.9802  -18.3234 C   0  0  0  0  0  0  0  0  0  0  0  0
   25.1861  -20.1879  -17.1792 C   0  0  0  0  0  0  0  0  0  0  0  0
   24.5694  -21.0392  -16.0827 C   0  0  2  0  0  0  0  0  0  0  0  0
   23.1183  -20.7759  -15.9056 C   0  0  0  0  0  0  0  0  0  0  0  0
   25.3101  -20.5871  -14.8112 C   0  0  2  0  0  0  0  0  0  0  0  0
   26.6594  -21.1915  -14.9244 N   0  0  0  0  0  0  0  0  0  0  0  0
   24.7039  -21.0875  -13.5760 C   0  0  0  0  0  0  0  0  0  0  0  0
   24.6047  -22.3612  -13.4189 O   0  0  0  0  0  0  0  0  0  0  0  0
   25.5564  -20.4201   -9.9845 C   0  0  0  0  0  0  0  0  0  0  0  0
   24.0422  -20.3230  -10.0961 C   0  0  2  0  0  0  0  0  0  0  0  0
   23.4362  -20.8905   -8.8504 C   0  0  0  0  0  0  0  0  0  0  0  0
   23.5690  -20.9728  -11.3481 C   0  0  2  0  0  0  0  0  0  0  0  0
   24.2013  -20.3230  -12.4996 N   0  0  0  0  0  0  0  0  0  0  0  0
   22.0911  -20.8953  -11.4441 C   0  0  0  0  0  0  0  0  0  0  0  0
   21.2748  -21.9148  -11.0270 O   0  0  0  0  0  0  0  0  0  0  0  0
   21.5499  -19.8585  -11.9255 O   0  0  0  0  0  0  0  0  0  0  0  0
  1  2  1  0
  2  3  1  0
  4  3  1  0
  5  4  1  0
  5  6  1  6
  7  5  1  0
  7 14  1  0
  8  7  2  0
 10  9  1  0
 10 11  1  0
 11 13  1  0
 11 12  1  1
 13 14  1  6
 15 21  1  0
 15 13  1  0
 16 15  2  0
 18 17  1  1
 18 20  1  0
 18 19  1  0
 20 21  1  6
 20 22  1  0
 22 23  1  0
 24 22  2  0
M  END
$$$$
