YFD.pdb
     RDKit          3D

 32 33  0  0  1  0  0  0  0  0999 V2000
   16.6989  -23.7145  -15.6204 O   0  0  0  0  0  0  0  0  0  0  0  0
   17.9103  -23.1099  -15.3133 C   0  0  0  0  0  0  0  0  0  0  0  0
   18.8277  -23.8027  -14.5604 C   0  0  0  0  0  0  0  0  0  0  0  0
   20.0347  -23.1924  -14.2611 C   0  0  0  0  0  0  0  0  0  0  0  0
   20.3525  -21.9296  -14.6816 C   0  0  0  0  0  0  0  0  0  0  0  0
   21.6487  -21.3026  -14.3272 C   0  0  0  0  0  0  0  0  0  0  0  0
   21.6686  -20.8927  -12.8996 C   0  0  2  0  0  0  0  0  0  0  0  0
   20.5930  -19.9656  -12.6038 N   0  0  0  0  0  0  0  0  0  0  0  0
   22.9664  -20.3658  -12.4056 C   0  0  0  0  0  0  0  0  0  0  0  0
   23.2727  -19.1653  -12.4794 O   0  0  0  0  0  0  0  0  0  0  0  0
   19.4518  -21.2223  -15.4328 C   0  0  0  0  0  0  0  0  0  0  0  0
   18.2263  -21.8193  -15.7487 C   0  0  0  0  0  0  0  0  0  0  0  0
   23.8981  -21.2787  -11.8241 N   0  0  0  0  0  0  0  0  0  0  0  0
   25.2107  -20.9431  -11.3805 C   0  0  1  0  0  0  0  0  0  0  0  0
   25.5392  -21.7472  -10.1498 C   0  0  0  0  0  0  0  0  0  0  0  0
   26.6907  -21.1372   -9.4422 C   0  0  0  0  0  0  0  0  0  0  0  0
   27.9764  -21.5334   -9.7463 C   0  0  0  0  0  0  0  0  0  0  0  0
   29.0715  -20.9798   -9.0954 C   0  0  0  0  0  0  0  0  0  0  0  0
   28.8690  -20.0130   -8.1285 C   0  0  0  0  0  0  0  0  0  0  0  0
   27.6002  -19.6138   -7.8206 C   0  0  0  0  0  0  0  0  0  0  0  0
   26.5196  -20.1680   -8.4674 C   0  0  0  0  0  0  0  0  0  0  0  0
   26.2486  -21.0391  -12.4421 C   0  0  0  0  0  0  0  0  0  0  0  0
   26.4081  -22.1506  -12.9943 O   0  0  0  0  0  0  0  0  0  0  0  0
   27.0701  -19.9825  -12.8706 N   0  0  0  0  0  0  0  0  0  0  0  0
   27.9246  -20.0486  -14.0545 C   0  0  1  0  0  0  0  0  0  0  0  0
   28.3707  -18.7225  -14.5494 C   0  0  0  0  0  0  0  0  0  0  0  0
   27.3411  -18.0315  -15.3170 C   0  0  0  0  0  0  0  0  0  0  0  0
   26.3860  -18.7410  -15.7774 O   0  0  0  0  0  0  0  0  0  0  0  0
   29.0857  -20.9448  -13.7924 C   0  0  0  0  0  0  0  0  0  0  0  0
   29.7336  -21.6566  -14.7942 O   0  0  0  0  0  0  0  0  0  0  0  0
   27.3217  -16.6811  -15.5776 O   0  0  0  0  0  0  0  0  0  0  0  0
   29.5266  -21.0908  -12.6308 O   0  0  0  0  0  0  0  0  0  0  0  0
  2  1  1  0
  3  2  2  0
  4  3  1  0
  5  4  2  0
  5 11  1  0
  6  5  1  0
  7  9  1  0
  7  6  1  0
  7  8  1  6
  9 10  2  0
 11 12  2  0
 12  2  1  0
 13 14  1  0
 13  9  1  0
 14 15  1  1
 16 21  1  0
 16 15  1  0
 17 16  2  0
 18 19  2  0
 18 17  1  0
 19 20  1  0
 20 21  2  0
 22 14  1  0
 23 22  2  0
 24 22  1  0
 25 29  1  0
 25 24  1  0
 25 26  1  1
 27 26  1  0
 28 27  2  0
 29 30  1  0
 31 27  1  0
 32 29  2  0
M  END
$$$$
