KWD.pdb
     RDKit          3D

 32 33  0  0  1  0  0  0  0  0999 V2000
    8.3828  -16.3267   18.9504 N   0  0  0  0  0  0  0  0  0  0  0  0
    9.3461  -15.3299   19.2460 C   0  0  1  0  0  0  0  0  0  0  0  0
    9.1677  -14.0605   18.4209 C   0  0  0  0  0  0  0  0  0  0  0  0
    8.4039  -14.4505   17.2073 C   0  0  0  0  0  0  0  0  0  0  0  0
    8.5720  -13.6380   15.9850 C   0  0  0  0  0  0  0  0  0  0  0  0
    7.6420  -14.0504   14.8918 C   0  0  0  0  0  0  0  0  0  0  0  0
    7.7559  -13.2156   13.7344 N   0  0  0  0  0  0  0  0  0  0  0  0
    9.3725  -15.0581   20.6918 C   0  0  0  0  0  0  0  0  0  0  0  0
   10.2149  -14.3097   21.2551 O   0  0  0  0  0  0  0  0  0  0  0  0
    8.3971  -15.6622   21.5454 N   0  0  0  0  0  0  0  0  0  0  0  0
    8.4731  -15.5329   22.9614 C   0  0  1  0  0  0  0  0  0  0  0  0
    7.0540  -15.7649   23.5095 C   0  0  0  0  0  0  0  0  0  0  0  0
    6.8845  -15.1869   24.8416 C   0  0  0  0  0  0  0  0  0  0  0  0
    6.4811  -15.8173   25.9902 C   0  0  0  0  0  0  0  0  0  0  0  0
    6.4494  -14.9350   27.0184 N   0  0  0  0  0  0  0  0  0  0  0  0
    6.8297  -13.7483   26.5309 C   0  0  0  0  0  0  0  0  0  0  0  0
    6.9650  -12.5300   27.1615 C   0  0  0  0  0  0  0  0  0  0  0  0
    7.3770  -11.4115   26.4698 C   0  0  0  0  0  0  0  0  0  0  0  0
    7.6533  -11.5333   25.1263 C   0  0  0  0  0  0  0  0  0  0  0  0
    7.5173  -12.7470   24.5027 C   0  0  0  0  0  0  0  0  0  0  0  0
    7.1061  -13.8737   25.1829 C   0  0  0  0  0  0  0  0  0  0  0  0
    9.3245  -16.5278   23.6334 C   0  0  0  0  0  0  0  0  0  0  0  0
    9.1054  -17.7377   23.4538 O   0  0  0  0  0  0  0  0  0  0  0  0
   10.3688  -16.1040   24.4662 N   0  0  0  0  0  0  0  0  0  0  0  0
   11.2378  -17.1369   25.0759 C   0  0  1  0  0  0  0  0  0  0  0  0
   12.6365  -16.6119   25.1854 C   0  0  0  0  0  0  0  0  0  0  0  0
   13.3344  -16.7296   23.9073 C   0  0  0  0  0  0  0  0  0  0  0  0
   12.9821  -17.5489   23.0458 O   0  0  0  0  0  0  0  0  0  0  0  0
   10.6326  -17.3689   26.4327 C   0  0  0  0  0  0  0  0  0  0  0  0
   11.0039  -18.3934   27.2634 O   0  0  0  0  0  0  0  0  0  0  0  0
   14.4188  -15.9079   23.6436 O   0  0  0  0  0  0  0  0  0  0  0  0
    9.7291  -16.5977   26.8635 O   0  0  0  0  0  0  0  0  0  0  0  0
  2  3  1  0
  2  1  1  1
  4  3  1  0
  5  4  1  0
  5  6  1  0
  7  6  1  0
  8  9  2  0
  8  2  1  0
 10  8  1  0
 11 10  1  0
 12 13  1  0
 11 12  1  1
 13 21  1  0
 14 13  2  0
 14 15  1  0
 15 16  1  0
 16 17  1  0
 17 18  2  0
 19 18  1  0
 20 19  2  0
 21 16  2  0
 21 20  1  0
 22 24  1  0
 22 11  1  0
 23 22  2  0
 25 24  1  0
 25 29  1  0
 25 26  1  1
 27 26  1  0
 28 27  2  0
 29 30  1  0
 31 27  1  0
 32 29  2  0
M  END
$$$$
