KWD.pdb
     RDKit          3D

 32 33  0  0  1  0  0  0  0  0999 V2000
    8.0467  -14.0474   19.5500 N   0  0  0  0  0  0  0  0  0  0  0  0
    8.2297  -15.3473   20.0843 C   0  0  1  0  0  0  0  0  0  0  0  0
    8.9724  -16.2848   19.1390 C   0  0  0  0  0  0  0  0  0  0  0  0
    7.9450  -16.8902   18.2522 C   0  0  0  0  0  0  0  0  0  0  0  0
    8.3772  -17.9164   17.2815 C   0  0  0  0  0  0  0  0  0  0  0  0
    7.2959  -18.2850   16.3196 C   0  0  0  0  0  0  0  0  0  0  0  0
    7.7040  -19.3087   15.4058 N   0  0  0  0  0  0  0  0  0  0  0  0
    8.8653  -15.2701   21.4091 C   0  0  0  0  0  0  0  0  0  0  0  0
    9.9199  -14.6247   21.6505 O   0  0  0  0  0  0  0  0  0  0  0  0
    8.2796  -15.9569   22.5182 N   0  0  0  0  0  0  0  0  0  0  0  0
    8.9328  -16.0104   23.7824 C   0  0  1  0  0  0  0  0  0  0  0  0
    7.8405  -16.2388   24.8420 C   0  0  0  0  0  0  0  0  0  0  0  0
    6.9807  -15.0667   24.9978 C   0  0  0  0  0  0  0  0  0  0  0  0
    5.7332  -14.8586   24.4689 C   0  0  0  0  0  0  0  0  0  0  0  0
    5.2652  -13.6437   24.8452 N   0  0  0  0  0  0  0  0  0  0  0  0
    6.2069  -13.0783   25.6095 C   0  0  0  0  0  0  0  0  0  0  0  0
    6.2235  -11.8519   26.2387 C   0  0  0  0  0  0  0  0  0  0  0  0
    7.3060  -11.4522   26.9921 C   0  0  0  0  0  0  0  0  0  0  0  0
    8.3799  -12.3065   27.1062 C   0  0  0  0  0  0  0  0  0  0  0  0
    8.3595  -13.5256   26.4786 C   0  0  0  0  0  0  0  0  0  0  0  0
    7.2830  -13.9378   25.7220 C   0  0  0  0  0  0  0  0  0  0  0  0
    9.8825  -17.1228   23.9468 C   0  0  0  0  0  0  0  0  0  0  0  0
   10.1530  -17.8421   22.9703 O   0  0  0  0  0  0  0  0  0  0  0  0
   10.4696  -17.3601   25.1968 N   0  0  0  0  0  0  0  0  0  0  0  0
   11.8013  -18.0074   25.2304 C   0  0  1  0  0  0  0  0  0  0  0  0
   12.8199  -17.0861   24.6324 C   0  0  0  0  0  0  0  0  0  0  0  0
   13.8926  -17.8457   23.9944 C   0  0  0  0  0  0  0  0  0  0  0  0
   13.9192  -19.0850   24.0229 O   0  0  0  0  0  0  0  0  0  0  0  0
   12.0607  -18.2336   26.6942 C   0  0  0  0  0  0  0  0  0  0  0  0
   12.6954  -19.3426   27.1892 O   0  0  0  0  0  0  0  0  0  0  0  0
   14.9100  -17.1707   23.3386 O   0  0  0  0  0  0  0  0  0  0  0  0
   11.6864  -17.3763   27.5436 O   0  0  0  0  0  0  0  0  0  0  0  0
  2  3  1  0
  2  1  1  6
  4  3  1  0
  5  4  1  0
  5  6  1  0
  7  6  1  0
  8  9  2  0
  8  2  1  0
 10  8  1  0
 11 10  1  0
 12 13  1  0
 11 12  1  1
 13 21  1  0
 14 13  2  0
 14 15  1  0
 15 16  1  0
 16 17  1  0
 17 18  2  0
 19 18  1  0
 20 19  2  0
 21 16  2  0
 21 20  1  0
 22 24  1  0
 22 11  1  0
 23 22  2  0
 25 24  1  0
 25 29  1  0
 25 26  1  1
 27 26  1  0
 28 27  2  0
 29 30  1  0
 31 27  1  0
 32 29  2  0
M  END
$$$$
