KWD.pdb
     RDKit          3D

 32 33  0  0  1  0  0  0  0  0999 V2000
    6.8003  -15.3226   19.6665 N   0  0  0  0  0  0  0  0  0  0  0  0
    7.1199  -16.3130   20.6287 C   0  0  1  0  0  0  0  0  0  0  0  0
    7.4664  -17.6618   20.0083 C   0  0  0  0  0  0  0  0  0  0  0  0
    7.6306  -17.4254   18.5503 C   0  0  0  0  0  0  0  0  0  0  0  0
    7.8794  -18.5909   17.6773 C   0  0  0  0  0  0  0  0  0  0  0  0
    7.9758  -18.2149   16.2353 C   0  0  0  0  0  0  0  0  0  0  0  0
    8.3479  -19.3213   15.4065 N   0  0  0  0  0  0  0  0  0  0  0  0
    8.1740  -15.8258   21.5323 C   0  0  0  0  0  0  0  0  0  0  0  0
    9.0707  -15.0074   21.1959 O   0  0  0  0  0  0  0  0  0  0  0  0
    8.2174  -16.2863   22.8854 N   0  0  0  0  0  0  0  0  0  0  0  0
    9.2106  -15.8199   23.7929 C   0  0  1  0  0  0  0  0  0  0  0  0
    8.6419  -16.0005   25.2114 C   0  0  0  0  0  0  0  0  0  0  0  0
    7.5018  -15.1188   25.4563 C   0  0  0  0  0  0  0  0  0  0  0  0
    6.1682  -15.4346   25.4239 C   0  0  0  0  0  0  0  0  0  0  0  0
    5.4236  -14.3381   25.7067 N   0  0  0  0  0  0  0  0  0  0  0  0
    6.2749  -13.3277   25.9186 C   0  0  0  0  0  0  0  0  0  0  0  0
    6.0287  -12.0097   26.2387 C   0  0  0  0  0  0  0  0  0  0  0  0
    7.0615  -11.1152   26.4183 C   0  0  0  0  0  0  0  0  0  0  0  0
    8.3548  -11.5648   26.2712 C   0  0  0  0  0  0  0  0  0  0  0  0
    8.5954  -12.8767   25.9526 C   0  0  0  0  0  0  0  0  0  0  0  0
    7.5714  -13.7820   25.7701 C   0  0  0  0  0  0  0  0  0  0  0  0
   10.4749  -16.5732   23.7746 C   0  0  0  0  0  0  0  0  0  0  0  0
   10.4590  -17.7831   23.4913 O   0  0  0  0  0  0  0  0  0  0  0  0
   11.6791  -15.9230   24.0757 N   0  0  0  0  0  0  0  0  0  0  0  0
   12.9393  -16.6886   23.9358 C   0  0  1  0  0  0  0  0  0  0  0  0
   14.0722  -15.7432   23.6773 C   0  0  0  0  0  0  0  0  0  0  0  0
   15.3221  -16.4747   23.4847 C   0  0  0  0  0  0  0  0  0  0  0  0
   15.3631  -17.7137   23.5142 O   0  0  0  0  0  0  0  0  0  0  0  0
   13.0955  -17.3803   25.2618 C   0  0  0  0  0  0  0  0  0  0  0  0
   13.8835  -18.4850   25.4524 O   0  0  0  0  0  0  0  0  0  0  0  0
   16.4963  -15.7728   23.2626 O   0  0  0  0  0  0  0  0  0  0  0  0
   12.4815  -16.9479   26.2779 O   0  0  0  0  0  0  0  0  0  0  0  0
  2  3  1  0
  2  1  1  6
  4  3  1  0
  5  4  1  0
  5  6  1  0
  7  6  1  0
  8  9  2  0
  8  2  1  0
 10  8  1  0
 11 10  1  0
 12 13  1  0
 11 12  1  1
 13 21  1  0
 14 13  2  0
 14 15  1  0
 15 16  1  0
 16 17  1  0
 17 18  2  0
 19 18  1  0
 20 19  2  0
 21 16  2  0
 21 20  1  0
 22 24  1  0
 22 11  1  0
 23 22  2  0
 25 24  1  0
 25 29  1  0
 25 26  1  1
 27 26  1  0
 28 27  2  0
 29 30  1  0
 31 27  1  0
 32 29  2  0
M  END
$$$$
