KWD.pdb
     RDKit          3D

 32 33  0  0  1  0  0  0  0  0999 V2000
    8.6132  -17.7603   19.1815 N   0  0  0  0  0  0  0  0  0  0  0  0
    9.6441  -16.7933   19.2853 C   0  0  1  0  0  0  0  0  0  0  0  0
    9.5985  -15.7472   18.1772 C   0  0  0  0  0  0  0  0  0  0  0  0
    9.6930  -16.4891   16.8931 C   0  0  0  0  0  0  0  0  0  0  0  0
   10.5297  -15.9194   15.8171 C   0  0  0  0  0  0  0  0  0  0  0  0
   10.6250  -16.8197   14.6295 C   0  0  0  0  0  0  0  0  0  0  0  0
   11.4515  -16.2740   13.5958 N   0  0  0  0  0  0  0  0  0  0  0  0
    9.6430  -16.1878   20.6264 C   0  0  0  0  0  0  0  0  0  0  0  0
   10.5081  -15.3666   21.0318 O   0  0  0  0  0  0  0  0  0  0  0  0
    8.6119  -16.5269   21.5573 N   0  0  0  0  0  0  0  0  0  0  0  0
    8.5742  -15.9524   22.8596 C   0  0  1  0  0  0  0  0  0  0  0  0
    7.1103  -15.5677   23.1376 C   0  0  0  0  0  0  0  0  0  0  0  0
    6.9150  -15.1353   24.5204 C   0  0  0  0  0  0  0  0  0  0  0  0
    6.5515  -15.8979   25.6000 C   0  0  0  0  0  0  0  0  0  0  0  0
    6.4759  -15.1253   26.7108 N   0  0  0  0  0  0  0  0  0  0  0  0
    6.7887  -13.8769   26.3445 C   0  0  0  0  0  0  0  0  0  0  0  0
    6.8599  -12.7217   27.0933 C   0  0  0  0  0  0  0  0  0  0  0  0
    7.2072  -11.5191   26.5169 C   0  0  0  0  0  0  0  0  0  0  0  0
    7.4842  -11.4914   25.1683 C   0  0  0  0  0  0  0  0  0  0  0  0
    7.4121  -12.6427   24.4268 C   0  0  0  0  0  0  0  0  0  0  0  0
    7.0660  -13.8523   24.9910 C   0  0  0  0  0  0  0  0  0  0  0  0
    8.9593  -16.8597   23.9527 C   0  0  0  0  0  0  0  0  0  0  0  0
    8.4871  -18.0087   23.9855 O   0  0  0  0  0  0  0  0  0  0  0  0
    9.8500  -16.4218   24.9418 N   0  0  0  0  0  0  0  0  0  0  0  0
   11.0823  -17.2113   25.1699 C   0  0  1  0  0  0  0  0  0  0  0  0
   12.2217  -16.5853   24.4256 C   0  0  0  0  0  0  0  0  0  0  0  0
   13.4691  -17.2958   24.6971 C   0  0  0  0  0  0  0  0  0  0  0  0
   13.5082  -18.2775   25.4537 O   0  0  0  0  0  0  0  0  0  0  0  0
   11.2935  -17.1373   26.6568 C   0  0  0  0  0  0  0  0  0  0  0  0
   12.1902  -17.9205   27.3351 O   0  0  0  0  0  0  0  0  0  0  0  0
   14.6428  -16.8677   24.0973 O   0  0  0  0  0  0  0  0  0  0  0  0
   10.6250  -16.3207   27.3516 O   0  0  0  0  0  0  0  0  0  0  0  0
  2  3  1  0
  2  1  1  1
  4  3  1  0
  5  4  1  0
  5  6  1  0
  7  6  1  0
  8  9  2  0
  8  2  1  0
 10  8  1  0
 11 10  1  0
 12 13  1  0
 11 12  1  1
 13 21  1  0
 14 13  2  0
 14 15  1  0
 15 16  1  0
 16 17  1  0
 17 18  2  0
 19 18  1  0
 20 19  2  0
 21 16  2  0
 21 20  1  0
 22 24  1  0
 22 11  1  0
 23 22  2  0
 25 24  1  0
 25 29  1  0
 25 26  1  6
 27 26  1  0
 28 27  2  0
 29 30  1  0
 31 27  1  0
 32 29  2  0
M  END
$$$$
