KWD.pdb
     RDKit          3D

 32 33  0  0  1  0  0  0  0  0999 V2000
    7.9247  -16.2651   18.6493 N   0  0  0  0  0  0  0  0  0  0  0  0
    8.8954  -15.2607   18.8894 C   0  0  1  0  0  0  0  0  0  0  0  0
    8.6582  -13.9918   18.0783 C   0  0  0  0  0  0  0  0  0  0  0  0
    8.2180  -14.4305   16.7285 C   0  0  0  0  0  0  0  0  0  0  0  0
    8.7022  -13.6740   15.5556 C   0  0  0  0  0  0  0  0  0  0  0  0
    8.0562  -14.1158   14.2837 C   0  0  0  0  0  0  0  0  0  0  0  0
    8.4806  -13.3400   13.1579 N   0  0  0  0  0  0  0  0  0  0  0  0
    9.0044  -14.9903   20.3317 C   0  0  0  0  0  0  0  0  0  0  0  0
    9.8703  -14.2332   20.8454 O   0  0  0  0  0  0  0  0  0  0  0  0
    8.0882  -15.6065   21.2404 N   0  0  0  0  0  0  0  0  0  0  0  0
    8.2420  -15.4714   22.6495 C   0  0  1  0  0  0  0  0  0  0  0  0
    6.8446  -15.6411   23.2713 C   0  0  0  0  0  0  0  0  0  0  0  0
    6.8009  -15.1582   24.6505 C   0  0  0  0  0  0  0  0  0  0  0  0
    6.6375  -15.8919   25.7969 C   0  0  0  0  0  0  0  0  0  0  0  0
    6.6521  -15.0748   26.8780 N   0  0  0  0  0  0  0  0  0  0  0  0
    6.8236  -13.8270   26.4264 C   0  0  0  0  0  0  0  0  0  0  0  0
    6.9085  -12.6358   27.1150 C   0  0  0  0  0  0  0  0  0  0  0  0
    7.0899  -11.4411   26.4525 C   0  0  0  0  0  0  0  0  0  0  0  0
    7.1856  -11.4582   25.0789 C   0  0  0  0  0  0  0  0  0  0  0  0
    7.1005  -12.6453   24.3976 C   0  0  0  0  0  0  0  0  0  0  0  0
    6.9192  -13.8475   25.0481 C   0  0  0  0  0  0  0  0  0  0  0  0
    9.0853  -16.4964   23.2857 C   0  0  0  0  0  0  0  0  0  0  0  0
    8.8398  -17.6979   23.0846 O   0  0  0  0  0  0  0  0  0  0  0  0
   10.1516  -16.1103   24.1088 N   0  0  0  0  0  0  0  0  0  0  0  0
   11.0961  -17.1567   24.5635 C   0  0  1  0  0  0  0  0  0  0  0  0
   12.4927  -16.6156   24.5349 C   0  0  0  0  0  0  0  0  0  0  0  0
   12.9646  -16.4752   23.1593 C   0  0  0  0  0  0  0  0  0  0  0  0
   12.7658  -17.3558   22.3093 O   0  0  0  0  0  0  0  0  0  0  0  0
   10.6557  -17.4606   25.9687 C   0  0  0  0  0  0  0  0  0  0  0  0
   11.2002  -18.4575   26.7350 O   0  0  0  0  0  0  0  0  0  0  0  0
   13.6527  -15.3311   22.7874 O   0  0  0  0  0  0  0  0  0  0  0  0
    9.7354  -16.7809   26.5049 O   0  0  0  0  0  0  0  0  0  0  0  0
  2  3  1  0
  2  1  1  1
  4  3  1  0
  5  4  1  0
  5  6  1  0
  7  6  1  0
  8  9  2  0
  8  2  1  0
 10  8  1  0
 11 10  1  0
 12 13  1  0
 11 12  1  1
 13 21  1  0
 14 13  2  0
 14 15  1  0
 15 16  1  0
 16 17  1  0
 17 18  2  0
 19 18  1  0
 20 19  2  0
 21 16  2  0
 21 20  1  0
 22 24  1  0
 22 11  1  0
 23 22  2  0
 25 24  1  0
 25 29  1  0
 25 26  1  1
 27 26  1  0
 28 27  2  0
 29 30  1  0
 31 27  1  0
 32 29  2  0
M  END
$$$$
