KWD.pdb
     RDKit          3D

 32 33  0  0  1  0  0  0  0  0999 V2000
    7.2854  -16.4428   20.9052 N   0  0  0  0  0  0  0  0  0  0  0  0
    8.4005  -15.5733   20.8099 C   0  0  1  0  0  0  0  0  0  0  0  0
    8.0341  -14.1815   20.3072 C   0  0  0  0  0  0  0  0  0  0  0  0
    7.6253  -14.3402   18.8874 C   0  0  0  0  0  0  0  0  0  0  0  0
    7.8872  -13.2238   17.9560 C   0  0  0  0  0  0  0  0  0  0  0  0
    7.2856  -13.4505   16.6081 C   0  0  0  0  0  0  0  0  0  0  0  0
    7.5457  -12.3700   15.7057 N   0  0  0  0  0  0  0  0  0  0  0  0
    9.1270  -15.5326   22.0888 C   0  0  0  0  0  0  0  0  0  0  0  0
   10.1622  -14.8441   22.2921 O   0  0  0  0  0  0  0  0  0  0  0  0
    8.6604  -16.3094   23.1951 N   0  0  0  0  0  0  0  0  0  0  0  0
    9.3492  -16.3084   24.4413 C   0  0  1  0  0  0  0  0  0  0  0  0
    8.2916  -16.5235   25.5382 C   0  0  0  0  0  0  0  0  0  0  0  0
    7.2733  -15.4746   25.5248 C   0  0  0  0  0  0  0  0  0  0  0  0
    5.9449  -15.5918   25.2069 C   0  0  0  0  0  0  0  0  0  0  0  0
    5.3330  -14.3874   25.3145 N   0  0  0  0  0  0  0  0  0  0  0  0
    6.2635  -13.5057   25.6985 C   0  0  0  0  0  0  0  0  0  0  0  0
    6.1585  -12.1542   25.9488 C   0  0  0  0  0  0  0  0  0  0  0  0
    7.2533  -11.4150   26.3414 C   0  0  0  0  0  0  0  0  0  0  0  0
    8.4643  -12.0556   26.4805 C   0  0  0  0  0  0  0  0  0  0  0  0
    8.5646  -13.4002   26.2304 C   0  0  0  0  0  0  0  0  0  0  0  0
    7.4773  -14.1513   25.8371 C   0  0  0  0  0  0  0  0  0  0  0  0
   10.3260  -17.3957   24.6145 C   0  0  0  0  0  0  0  0  0  0  0  0
   10.6808  -18.0591   23.6255 O   0  0  0  0  0  0  0  0  0  0  0  0
   10.8439  -17.6723   25.8869 N   0  0  0  0  0  0  0  0  0  0  0  0
   12.0635  -18.5078   25.9770 C   0  0  1  0  0  0  0  0  0  0  0  0
   13.1801  -17.8442   25.2308 C   0  0  0  0  0  0  0  0  0  0  0  0
   14.3987  -18.6470   25.3026 C   0  0  0  0  0  0  0  0  0  0  0  0
   14.4444  -19.7056   25.9467 O   0  0  0  0  0  0  0  0  0  0  0  0
   12.3534  -18.5732   27.4511 C   0  0  0  0  0  0  0  0  0  0  0  0
   12.7345  -19.7190   28.0987 O   0  0  0  0  0  0  0  0  0  0  0  0
   15.5369  -18.2209   24.6364 O   0  0  0  0  0  0  0  0  0  0  0  0
   12.2496  -17.5349   28.1635 O   0  0  0  0  0  0  0  0  0  0  0  0
  2  3  1  0
  2  1  1  1
  4  3  1  0
  5  4  1  0
  5  6  1  0
  7  6  1  0
  8  9  2  0
  8  2  1  0
 10  8  1  0
 11 10  1  0
 12 13  1  0
 11 12  1  1
 13 21  1  0
 14 13  2  0
 14 15  1  0
 15 16  1  0
 16 17  1  0
 17 18  2  0
 19 18  1  0
 20 19  2  0
 21 16  2  0
 21 20  1  0
 22 24  1  0
 22 11  1  0
 23 22  2  0
 25 24  1  0
 25 29  1  0
 25 26  1  6
 27 26  1  0
 28 27  2  0
 29 30  1  0
 31 27  1  0
 32 29  2  0
M  END
$$$$
