KWD.pdb
     RDKit          3D

 32 33  0  0  1  0  0  0  0  0999 V2000
    7.4480  -16.0888   21.2551 N   0  0  0  0  0  0  0  0  0  0  0  0
    8.3123  -14.9672   21.1941 C   0  0  1  0  0  0  0  0  0  0  0  0
    7.5803  -13.6613   20.9063 C   0  0  0  0  0  0  0  0  0  0  0  0
    7.0490  -13.7719   19.5229 C   0  0  0  0  0  0  0  0  0  0  0  0
    7.9830  -13.5650   18.3972 C   0  0  0  0  0  0  0  0  0  0  0  0
    7.3167  -13.7054   17.0681 C   0  0  0  0  0  0  0  0  0  0  0  0
    8.2281  -13.5252   15.9789 N   0  0  0  0  0  0  0  0  0  0  0  0
    9.1358  -14.8903   22.4110 C   0  0  0  0  0  0  0  0  0  0  0  0
    9.9752  -13.9792   22.6401 O   0  0  0  0  0  0  0  0  0  0  0  0
    9.0045  -15.8938   23.4213 N   0  0  0  0  0  0  0  0  0  0  0  0
    9.7599  -15.8318   24.6267 C   0  0  1  0  0  0  0  0  0  0  0  0
    8.8261  -16.2808   25.7645 C   0  0  0  0  0  0  0  0  0  0  0  0
    7.6142  -15.4655   25.8269 C   0  0  0  0  0  0  0  0  0  0  0  0
    6.3303  -15.8369   25.5218 C   0  0  0  0  0  0  0  0  0  0  0  0
    5.4872  -14.7924   25.7082 N   0  0  0  0  0  0  0  0  0  0  0  0
    6.2266  -13.7598   26.1296 C   0  0  0  0  0  0  0  0  0  0  0  0
    5.8529  -12.4746   26.4598 C   0  0  0  0  0  0  0  0  0  0  0  0
    6.7825  -11.5477   26.8791 C   0  0  0  0  0  0  0  0  0  0  0  0
    8.1025  -11.9311   26.9631 C   0  0  0  0  0  0  0  0  0  0  0  0
    8.4701  -13.2105   26.6337 C   0  0  0  0  0  0  0  0  0  0  0  0
    7.5502  -14.1475   26.2128 C   0  0  0  0  0  0  0  0  0  0  0  0
   10.9179  -16.7384   24.6841 C   0  0  0  0  0  0  0  0  0  0  0  0
   11.4854  -16.9337   25.7722 O   0  0  0  0  0  0  0  0  0  0  0  0
   11.3684  -17.3697   23.5169 N   0  0  0  0  0  0  0  0  0  0  0  0
   12.5567  -18.2485   23.6134 C   0  0  1  0  0  0  0  0  0  0  0  0
   12.3307  -19.4855   22.7992 C   0  0  0  0  0  0  0  0  0  0  0  0
   11.4203  -20.3979   23.4870 C   0  0  0  0  0  0  0  0  0  0  0  0
   10.9268  -21.3807   22.9141 O   0  0  0  0  0  0  0  0  0  0  0  0
   13.6733  -17.4164   23.0460 C   0  0  0  0  0  0  0  0  0  0  0  0
   13.5154  -16.5505   21.9959 O   0  0  0  0  0  0  0  0  0  0  0  0
   11.0951  -20.1657   24.8141 O   0  0  0  0  0  0  0  0  0  0  0  0
   14.8343  -17.4942   23.5385 O   0  0  0  0  0  0  0  0  0  0  0  0
  2  3  1  0
  2  1  1  1
  4  3  1  0
  5  4  1  0
  5  6  1  0
  7  6  1  0
  8  9  2  0
  8  2  1  0
 10  8  1  0
 11 10  1  0
 12 13  1  0
 11 12  1  1
 13 21  1  0
 14 13  2  0
 14 15  1  0
 15 16  1  0
 16 17  1  0
 17 18  2  0
 19 18  1  0
 20 19  2  0
 21 16  2  0
 21 20  1  0
 22 24  1  0
 22 11  1  0
 23 22  2  0
 25 24  1  0
 25 29  1  0
 25 26  1  6
 27 26  1  0
 28 27  2  0
 29 30  1  0
 31 27  1  0
 32 29  2  0
M  END
$$$$
