KWD.pdb
     RDKit          3D

 32 33  0  0  1  0  0  0  0  0999 V2000
    7.7828  -15.7954   18.8033 N   0  0  0  0  0  0  0  0  0  0  0  0
    8.5314  -14.6263   19.0886 C   0  0  1  0  0  0  0  0  0  0  0  0
    7.9896  -13.3828   18.3928 C   0  0  0  0  0  0  0  0  0  0  0  0
    7.6106  -13.8006   17.0179 C   0  0  0  0  0  0  0  0  0  0  0  0
    8.6384  -13.7329   15.9590 C   0  0  0  0  0  0  0  0  0  0  0  0
    8.0892  -14.0529   14.6076 C   0  0  0  0  0  0  0  0  0  0  0  0
    9.0828  -13.9681   13.5805 N   0  0  0  0  0  0  0  0  0  0  0  0
    8.6575  -14.4430   20.5431 C   0  0  0  0  0  0  0  0  0  0  0  0
    9.2912  -13.4981   21.0842 O   0  0  0  0  0  0  0  0  0  0  0  0
    8.0358  -15.3745   21.4323 N   0  0  0  0  0  0  0  0  0  0  0  0
    8.2452  -15.3054   22.8391 C   0  0  1  0  0  0  0  0  0  0  0  0
    6.8729  -15.5036   23.5067 C   0  0  0  0  0  0  0  0  0  0  0  0
    6.8867  -15.0932   24.9098 C   0  0  0  0  0  0  0  0  0  0  0  0
    6.8867  -15.8928   26.0233 C   0  0  0  0  0  0  0  0  0  0  0  0
    6.9015  -15.1303   27.1435 N   0  0  0  0  0  0  0  0  0  0  0  0
    6.9108  -13.8515   26.7495 C   0  0  0  0  0  0  0  0  0  0  0  0
    6.9275  -12.6916   27.4942 C   0  0  0  0  0  0  0  0  0  0  0  0
    6.9359  -11.4547   26.8865 C   0  0  0  0  0  0  0  0  0  0  0  0
    6.9272  -11.3974   25.5106 C   0  0  0  0  0  0  0  0  0  0  0  0
    6.9105  -12.5536   24.7735 C   0  0  0  0  0  0  0  0  0  0  0  0
    6.9020  -13.7973   25.3688 C   0  0  0  0  0  0  0  0  0  0  0  0
    9.1107  -16.3592   23.3930 C   0  0  0  0  0  0  0  0  0  0  0  0
    8.8456  -17.5506   23.1592 O   0  0  0  0  0  0  0  0  0  0  0  0
   10.2199  -16.0115   24.1755 N   0  0  0  0  0  0  0  0  0  0  0  0
   11.1300  -17.0940   24.6155 C   0  0  1  0  0  0  0  0  0  0  0  0
   12.5506  -16.6380   24.4807 C   0  0  0  0  0  0  0  0  0  0  0  0
   12.9757  -16.6772   23.0834 C   0  0  0  0  0  0  0  0  0  0  0  0
   12.5954  -17.5701   22.3116 O   0  0  0  0  0  0  0  0  0  0  0  0
   10.7616  -17.3180   26.0560 C   0  0  0  0  0  0  0  0  0  0  0  0
    9.8170  -16.5806   26.7205 O   0  0  0  0  0  0  0  0  0  0  0  0
   13.8255  -15.6945   22.6008 O   0  0  0  0  0  0  0  0  0  0  0  0
   11.3339  -18.2264   26.7222 O   0  0  0  0  0  0  0  0  0  0  0  0
  2  3  1  0
  2  1  1  1
  4  3  1  0
  5  4  1  0
  5  6  1  0
  7  6  1  0
  8  9  2  0
  8  2  1  0
 10  8  1  0
 11 10  1  0
 12 13  1  0
 11 12  1  1
 13 21  1  0
 14 13  2  0
 14 15  1  0
 15 16  1  0
 16 17  1  0
 17 18  2  0
 19 18  1  0
 20 19  2  0
 21 16  2  0
 21 20  1  0
 22 24  1  0
 22 11  1  0
 23 22  2  0
 25 24  1  0
 25 29  1  0
 25 26  1  1
 27 26  1  0
 28 27  2  0
 29 30  1  0
 31 27  1  0
 32 29  2  0
M  END
$$$$
