DKL.pdb
     RDKit          3D

 26 25  0  0  1  0  0  0  0  0999 V2000
    7.3389  -18.3752   18.4873 N   0  0  0  0  0  0  0  0  0  0  0  0
    8.0194  -17.3525   19.2228 C   0  0  1  0  0  0  0  0  0  0  0  0
    8.0019  -16.0374   18.4850 C   0  0  0  0  0  0  0  0  0  0  0  0
    8.7933  -16.0969   17.2519 C   0  0  0  0  0  0  0  0  0  0  0  0
    9.6919  -16.9899   17.1094 O   0  0  0  0  0  0  0  0  0  0  0  0
    7.4403  -17.2541   20.5807 C   0  0  0  0  0  0  0  0  0  0  0  0
    6.2473  -16.8622   20.7489 O   0  0  0  0  0  0  0  0  0  0  0  0
    8.5972  -15.1957   16.2071 O   0  0  0  0  0  0  0  0  0  0  0  0
    8.2382  -17.6040   21.6986 N   0  0  0  0  0  0  0  0  0  0  0  0
    7.6761  -17.6274   23.0360 C   0  0  1  0  0  0  0  0  0  0  0  0
    8.0894  -18.9707   23.6373 C   0  0  0  0  0  0  0  0  0  0  0  0
    6.9247  -19.5690   24.3585 C   0  0  0  0  0  0  0  0  0  0  0  0
    7.2409  -20.9262   24.8874 C   0  0  0  0  0  0  0  0  0  0  0  0
    6.0309  -21.5715   25.4991 C   0  0  0  0  0  0  0  0  0  0  0  0
    6.3561  -22.9015   26.0085 N   0  0  0  0  0  0  0  0  0  0  0  0
    8.2795  -16.5414   23.8281 C   0  0  0  0  0  0  0  0  0  0  0  0
    9.5033  -16.2761   23.6546 O   0  0  0  0  0  0  0  0  0  0  0  0
    7.8940  -11.4169   25.8607 C   0  0  0  0  0  0  0  0  0  0  0  0
    7.1138  -12.5199   26.4887 C   0  0  1  0  0  0  0  0  0  0  0  0
    5.7681  -11.9759   26.9807 C   0  0  0  0  0  0  0  0  0  0  0  0
    6.9737  -13.7848   25.7572 C   0  0  0  0  0  0  0  0  0  0  0  0
    8.1081  -14.6995   25.5567 C   0  0  2  0  0  0  0  0  0  0  0  0
    7.5349  -15.8191   24.7454 N   0  0  0  0  0  0  0  0  0  0  0  0
    8.7992  -15.2739   26.6860 C   0  0  0  0  0  0  0  0  0  0  0  0
    9.9659  -14.6839   27.2106 O   0  0  0  0  0  0  0  0  0  0  0  0
    8.4170  -16.3088   27.2598 O   0  0  0  0  0  0  0  0  0  0  0  0
  2  6  1  0
  2  1  1  6
  3  2  1  0
  4  3  1  0
  5  4  2  0
  6  7  2  0
  8  4  1  0
  9 10  1  0
  9  6  1  0
 11 12  1  0
 10 11  1  1
 12 13  1  0
 13 14  1  0
 14 15  1  0
 16 10  1  0
 16 17  2  0
 19 21  1  0
 19 18  1  6
 20 19  1  0
 22 21  1  1
 22 23  1  0
 22 24  1  0
 23 16  1  0
 24 26  2  0
 24 25  1  0
M  END
$$$$
