DKL.pdb
     RDKit          3D

 26 25  0  0  1  0  0  0  0  0999 V2000
   10.9334  -18.2940   20.7121 N   0  0  0  0  0  0  0  0  0  0  0  0
   11.1932  -16.8887   20.7982 C   0  0  1  0  0  0  0  0  0  0  0  0
   11.2213  -16.2478   19.4334 C   0  0  0  0  0  0  0  0  0  0  0  0
   12.3913  -16.6733   18.6586 C   0  0  0  0  0  0  0  0  0  0  0  0
   13.3069  -17.3685   19.2096 O   0  0  0  0  0  0  0  0  0  0  0  0
   10.2073  -16.2602   21.7049 C   0  0  0  0  0  0  0  0  0  0  0  0
   10.1163  -14.9993   21.7883 O   0  0  0  0  0  0  0  0  0  0  0  0
   12.5447  -16.3402   17.3141 O   0  0  0  0  0  0  0  0  0  0  0  0
    9.3609  -17.0874   22.4847 N   0  0  0  0  0  0  0  0  0  0  0  0
    8.4142  -16.5112   23.4211 C   0  0  1  0  0  0  0  0  0  0  0  0
    7.6080  -17.6865   23.9736 C   0  0  0  0  0  0  0  0  0  0  0  0
    6.6109  -18.1266   22.9505 C   0  0  0  0  0  0  0  0  0  0  0  0
    6.7854  -19.5627   22.5917 C   0  0  0  0  0  0  0  0  0  0  0  0
    5.9034  -19.9511   21.4402 C   0  0  0  0  0  0  0  0  0  0  0  0
    6.1274  -21.3448   21.0643 N   0  0  0  0  0  0  0  0  0  0  0  0
    9.1574  -15.8783   24.5249 C   0  0  0  0  0  0  0  0  0  0  0  0
    9.8910  -14.8819   24.2652 O   0  0  0  0  0  0  0  0  0  0  0  0
    6.4763  -12.5600   26.1844 C   0  0  0  0  0  0  0  0  0  0  0  0
    7.7604  -13.3108   26.2677 C   0  0  1  0  0  0  0  0  0  0  0  0
    8.8154  -12.4404   26.9592 C   0  0  0  0  0  0  0  0  0  0  0  0
    7.7380  -14.6835   26.7872 C   0  0  0  0  0  0  0  0  0  0  0  0
    8.9717  -15.4520   27.0136 C   0  0  2  0  0  0  0  0  0  0  0  0
    9.0638  -16.3533   25.8222 N   0  0  0  0  0  0  0  0  0  0  0  0
    9.1286  -16.2602   28.1989 C   0  0  0  0  0  0  0  0  0  0  0  0
    8.7176  -17.6072   28.2289 O   0  0  0  0  0  0  0  0  0  0  0  0
    9.6280  -15.8282   29.2526 O   0  0  0  0  0  0  0  0  0  0  0  0
  2  6  1  0
  2  1  1  6
  3  2  1  0
  4  3  1  0
  5  4  2  0
  6  7  2  0
  8  4  1  0
  9 10  1  0
  9  6  1  0
 11 12  1  0
 10 11  1  1
 12 13  1  0
 13 14  1  0
 14 15  1  0
 16 10  1  0
 16 17  2  0
 19 21  1  0
 19 18  1  1
 20 19  1  0
 22 21  1  1
 22 23  1  0
 22 24  1  0
 23 16  1  0
 24 26  2  0
 24 25  1  0
M  END
$$$$
