DKL.pdb
     RDKit          3D

 26 25  0  0  1  0  0  0  0  0999 V2000
    8.4895  -18.5317   20.8657 N   0  0  0  0  0  0  0  0  0  0  0  0
    9.8633  -18.1378   20.9512 C   0  0  1  0  0  0  0  0  0  0  0  0
   10.6686  -18.6902   19.8020 C   0  0  0  0  0  0  0  0  0  0  0  0
   10.0130  -18.4454   18.5134 C   0  0  0  0  0  0  0  0  0  0  0  0
    8.9119  -17.8047   18.4659 O   0  0  0  0  0  0  0  0  0  0  0  0
    9.9480  -16.6642   21.0526 C   0  0  0  0  0  0  0  0  0  0  0  0
   11.0201  -16.0557   20.7606 O   0  0  0  0  0  0  0  0  0  0  0  0
   10.5586  -18.8954   17.3126 O   0  0  0  0  0  0  0  0  0  0  0  0
    8.8111  -15.9353   21.4829 N   0  0  0  0  0  0  0  0  0  0  0  0
    8.8561  -14.4903   21.6051 C   0  0  1  0  0  0  0  0  0  0  0  0
    7.4782  -13.9929   21.1683 C   0  0  0  0  0  0  0  0  0  0  0  0
    7.2476  -14.3668   19.7395 C   0  0  0  0  0  0  0  0  0  0  0  0
    8.1490  -13.6160   18.8200 C   0  0  0  0  0  0  0  0  0  0  0  0
    7.9063  -13.9919   17.3866 C   0  0  0  0  0  0  0  0  0  0  0  0
    8.8396  -13.2959   16.5043 N   0  0  0  0  0  0  0  0  0  0  0  0
    9.0678  -14.1357   23.0195 C   0  0  0  0  0  0  0  0  0  0  0  0
    9.3629  -12.9398   23.3041 O   0  0  0  0  0  0  0  0  0  0  0  0
    7.9865  -12.1392   27.3902 C   0  0  0  0  0  0  0  0  0  0  0  0
    7.2269  -13.3000   26.8470 C   0  0  1  0  0  0  0  0  0  0  0  0
    5.7283  -12.9794   26.8604 C   0  0  0  0  0  0  0  0  0  0  0  0
    7.6626  -13.8906   25.5758 C   0  0  0  0  0  0  0  0  0  0  0  0
    8.8737  -14.7195   25.4754 C   0  0  2  0  0  0  0  0  0  0  0  0
    8.9494  -15.0806   24.0249 N   0  0  0  0  0  0  0  0  0  0  0  0
    9.0010  -15.9333   26.2456 C   0  0  0  0  0  0  0  0  0  0  0  0
    8.5037  -17.1617   25.7677 O   0  0  0  0  0  0  0  0  0  0  0  0
    9.5481  -15.9739   27.3615 O   0  0  0  0  0  0  0  0  0  0  0  0
  2  6  1  0
  2  1  1  6
  3  2  1  0
  4  3  1  0
  5  4  2  0
  6  7  2  0
  8  4  1  0
  9 10  1  0
  9  6  1  0
 11 12  1  0
 10 11  1  1
 12 13  1  0
 13 14  1  0
 14 15  1  0
 16 10  1  0
 16 17  2  0
 19 21  1  0
 19 18  1  6
 20 19  1  0
 22 21  1  6
 22 23  1  0
 22 24  1  0
 23 16  1  0
 24 26  2  0
 24 25  1  0
M  END
$$$$
