DKL.pdb
     RDKit          3D

 26 25  0  0  1  0  0  0  0  0999 V2000
   11.5198  -15.8944   18.1363 N   0  0  0  0  0  0  0  0  0  0  0  0
   11.8272  -15.5587   19.4937 C   0  0  1  0  0  0  0  0  0  0  0  0
   12.6997  -14.3313   19.5749 C   0  0  0  0  0  0  0  0  0  0  0  0
   14.1030  -14.6436   19.2860 C   0  0  0  0  0  0  0  0  0  0  0  0
   14.4674  -15.8523   19.1088 O   0  0  0  0  0  0  0  0  0  0  0  0
   10.5713  -15.4193   20.2633 C   0  0  0  0  0  0  0  0  0  0  0  0
    9.7792  -14.4559   20.0407 O   0  0  0  0  0  0  0  0  0  0  0  0
   15.0750  -13.6490   19.1957 O   0  0  0  0  0  0  0  0  0  0  0  0
   10.2611  -16.3796   21.2585 N   0  0  0  0  0  0  0  0  0  0  0  0
    8.9934  -16.3384   21.9630 C   0  0  1  0  0  0  0  0  0  0  0  0
    8.5527  -17.7946   22.1114 C   0  0  0  0  0  0  0  0  0  0  0  0
    7.8852  -18.2402   20.8503 C   0  0  0  0  0  0  0  0  0  0  0  0
    7.5974  -19.7026   20.8651 C   0  0  0  0  0  0  0  0  0  0  0  0
    6.9388  -20.1445   19.5900 C   0  0  0  0  0  0  0  0  0  0  0  0
    6.8620  -21.6019   19.5257 N   0  0  0  0  0  0  0  0  0  0  0  0
    9.2085  -15.7635   23.3025 C   0  0  0  0  0  0  0  0  0  0  0  0
   10.2919  -16.0188   23.9019 O   0  0  0  0  0  0  0  0  0  0  0  0
    8.0534  -11.4047   26.8362 C   0  0  0  0  0  0  0  0  0  0  0  0
    7.1463  -12.5552   26.5658 C   0  0  1  0  0  0  0  0  0  0  0  0
    5.6900  -12.1013   26.7136 C   0  0  0  0  0  0  0  0  0  0  0  0
    7.3652  -13.3508   25.3518 C   0  0  0  0  0  0  0  0  0  0  0  0
    8.4405  -14.3502   25.2577 C   0  0  2  0  0  0  0  0  0  0  0  0
    8.2543  -14.9598   23.9035 N   0  0  0  0  0  0  0  0  0  0  0  0
    8.5369  -15.4208   26.2206 C   0  0  0  0  0  0  0  0  0  0  0  0
    9.5031  -15.4018   27.2456 O   0  0  0  0  0  0  0  0  0  0  0  0
    7.7869  -16.4126   26.2089 O   0  0  0  0  0  0  0  0  0  0  0  0
  2  6  1  0
  2  1  1  6
  3  2  1  0
  4  3  1  0
  5  4  2  0
  6  7  2  0
  8  4  1  0
  9 10  1  0
  9  6  1  0
 11 12  1  0
 10 11  1  1
 12 13  1  0
 13 14  1  0
 14 15  1  0
 16 10  1  0
 16 17  2  0
 19 21  1  0
 19 18  1  6
 20 19  1  0
 22 21  1  1
 22 23  1  0
 22 24  1  0
 23 16  1  0
 24 26  2  0
 24 25  1  0
M  END
$$$$
