DKL.pdb
     RDKit          3D

 26 25  0  0  1  0  0  0  0  0999 V2000
    9.7092  -13.5892   20.0762 N   0  0  0  0  0  0  0  0  0  0  0  0
    8.3691  -13.2520   20.4506 C   0  0  1  0  0  0  0  0  0  0  0  0
    7.4707  -13.1396   19.2446 C   0  0  0  0  0  0  0  0  0  0  0  0
    7.8602  -14.0794   18.1887 C   0  0  0  0  0  0  0  0  0  0  0  0
    7.6358  -13.7985   16.9656 O   0  0  0  0  0  0  0  0  0  0  0  0
    7.8738  -14.2309   21.4434 C   0  0  0  0  0  0  0  0  0  0  0  0
    6.7035  -14.1348   21.9191 O   0  0  0  0  0  0  0  0  0  0  0  0
    8.4797  -15.2942   18.4762 O   0  0  0  0  0  0  0  0  0  0  0  0
    8.7267  -15.2834   21.8601 N   0  0  0  0  0  0  0  0  0  0  0  0
    8.3034  -16.2247   22.8798 C   0  0  1  0  0  0  0  0  0  0  0  0
    8.7784  -17.5969   22.4019 C   0  0  0  0  0  0  0  0  0  0  0  0
    7.8054  -18.1370   21.4038 C   0  0  0  0  0  0  0  0  0  0  0  0
    8.2439  -19.4547   20.8627 C   0  0  0  0  0  0  0  0  0  0  0  0
    7.3245  -19.9348   19.7769 C   0  0  0  0  0  0  0  0  0  0  0  0
    7.7423  -21.2463   19.2876 N   0  0  0  0  0  0  0  0  0  0  0  0
    8.9819  -15.8965   24.1459 C   0  0  0  0  0  0  0  0  0  0  0  0
   10.2020  -15.5675   24.1089 O   0  0  0  0  0  0  0  0  0  0  0  0
    6.7461  -12.4649   27.1803 C   0  0  0  0  0  0  0  0  0  0  0  0
    8.0025  -13.2331   26.9548 C   0  0  1  0  0  0  0  0  0  0  0  0
    9.1826  -12.4706   27.5670 C   0  0  0  0  0  0  0  0  0  0  0  0
    8.0217  -14.6614   27.2930 C   0  0  0  0  0  0  0  0  0  0  0  0
    8.9608  -15.6002   26.6601 C   0  0  2  0  0  0  0  0  0  0  0  0
    8.3108  -15.9429   25.3562 N   0  0  0  0  0  0  0  0  0  0  0  0
    9.3238  -16.8331   27.3165 C   0  0  0  0  0  0  0  0  0  0  0  0
   10.3674  -16.8823   28.2615 O   0  0  0  0  0  0  0  0  0  0  0  0
    8.7496  -17.9136   27.0948 O   0  0  0  0  0  0  0  0  0  0  0  0
  2  6  1  0
  2  1  1  6
  3  2  1  0
  4  3  1  0
  5  4  2  0
  6  7  2  0
  8  4  1  0
  9 10  1  0
  9  6  1  0
 11 12  1  0
 10 11  1  6
 12 13  1  0
 13 14  1  0
 14 15  1  0
 16 10  1  0
 16 17  2  0
 19 21  1  0
 19 18  1  1
 20 19  1  0
 22 21  1  1
 22 23  1  0
 22 24  1  0
 23 16  1  0
 24 26  2  0
 24 25  1  0
M  END
$$$$
