DKL.pdb
     RDKit          3D

 26 25  0  0  1  0  0  0  0  0999 V2000
    9.3933  -18.3399   21.1296 N   0  0  0  0  0  0  0  0  0  0  0  0
   10.7184  -17.9048   21.4534 C   0  0  1  0  0  0  0  0  0  0  0  0
   11.6802  -18.1770   20.3242 C   0  0  0  0  0  0  0  0  0  0  0  0
   11.7899  -19.6111   20.0392 C   0  0  0  0  0  0  0  0  0  0  0  0
   12.1544  -20.4206   20.9541 O   0  0  0  0  0  0  0  0  0  0  0  0
   10.6864  -16.4787   21.8462 C   0  0  0  0  0  0  0  0  0  0  0  0
   11.7590  -15.8504   22.0908 O   0  0  0  0  0  0  0  0  0  0  0  0
   11.5050  -20.1353   18.7797 O   0  0  0  0  0  0  0  0  0  0  0  0
    9.4365  -15.8183   21.9476 N   0  0  0  0  0  0  0  0  0  0  0  0
    9.3635  -14.4144   22.3064 C   0  0  1  0  0  0  0  0  0  0  0  0
    8.2060  -13.8366   21.4922 C   0  0  0  0  0  0  0  0  0  0  0  0
    8.5520  -13.8835   20.0387 C   0  0  0  0  0  0  0  0  0  0  0  0
    7.4638  -13.3151   19.1936 C   0  0  0  0  0  0  0  0  0  0  0  0
    7.8529  -13.2890   17.7435 C   0  0  0  0  0  0  0  0  0  0  0  0
    6.7920  -12.6946   16.9340 N   0  0  0  0  0  0  0  0  0  0  0  0
    9.0439  -14.3027   23.7405 C   0  0  0  0  0  0  0  0  0  0  0  0
    8.8294  -13.1541   24.2232 O   0  0  0  0  0  0  0  0  0  0  0  0
    5.9528  -12.6178   26.1790 C   0  0  0  0  0  0  0  0  0  0  0  0
    7.3086  -13.2164   26.0276 C   0  0  1  0  0  0  0  0  0  0  0  0
    8.3057  -12.4463   26.9002 C   0  0  0  0  0  0  0  0  0  0  0  0
    7.4521  -14.6710   26.1625 C   0  0  0  0  0  0  0  0  0  0  0  0
    8.7548  -15.3416   26.0311 C   0  0  2  0  0  0  0  0  0  0  0  0
    8.9763  -15.4220   24.5531 N   0  0  0  0  0  0  0  0  0  0  0  0
    8.9652  -16.6568   26.5869 C   0  0  0  0  0  0  0  0  0  0  0  0
    9.2719  -17.7602   25.7666 O   0  0  0  0  0  0  0  0  0  0  0  0
    8.8909  -16.8979   27.8046 O   0  0  0  0  0  0  0  0  0  0  0  0
  2  6  1  0
  2  1  1  6
  3  2  1  0
  4  3  1  0
  5  4  2  0
  6  7  2  0
  8  4  1  0
  9 10  1  0
  9  6  1  0
 11 12  1  0
 10 11  1  6
 12 13  1  0
 13 14  1  0
 14 15  1  0
 16 10  1  0
 16 17  2  0
 19 21  1  0
 19 18  1  1
 20 19  1  0
 22 21  1  6
 22 23  1  0
 22 24  1  0
 23 16  1  0
 24 26  2  0
 24 25  1  0
M  END
$$$$
