DKL.pdb
     RDKit          3D

 26 25  0  0  1  0  0  0  0  0999 V2000
    9.2318  -18.1443   20.8300 N   0  0  0  0  0  0  0  0  0  0  0  0
   10.5284  -17.5503   20.9560 C   0  0  1  0  0  0  0  0  0  0  0  0
   11.3238  -17.6858   19.6819 C   0  0  0  0  0  0  0  0  0  0  0  0
   12.1852  -18.8722   19.7041 C   0  0  0  0  0  0  0  0  0  0  0  0
   12.1891  -19.6428   20.7197 O   0  0  0  0  0  0  0  0  0  0  0  0
   10.3857  -16.1444   21.3943 C   0  0  0  0  0  0  0  0  0  0  0  0
   11.4048  -15.4078   21.5487 O   0  0  0  0  0  0  0  0  0  0  0  0
   13.0177  -19.1976   18.6349 O   0  0  0  0  0  0  0  0  0  0  0  0
    9.0898  -15.6265   21.6419 N   0  0  0  0  0  0  0  0  0  0  0  0
    8.8977  -14.2252   21.9650 C   0  0  1  0  0  0  0  0  0  0  0  0
    7.5277  -13.8519   21.3985 C   0  0  0  0  0  0  0  0  0  0  0  0
    7.7097  -13.1031   20.1176 C   0  0  0  0  0  0  0  0  0  0  0  0
    7.7863  -14.0223   18.9469 C   0  0  0  0  0  0  0  0  0  0  0  0
    7.9544  -13.2619   17.6630 C   0  0  0  0  0  0  0  0  0  0  0  0
    8.0495  -14.1772   16.5285 N   0  0  0  0  0  0  0  0  0  0  0  0
    8.8690  -14.0710   23.4301 C   0  0  0  0  0  0  0  0  0  0  0  0
    8.9092  -12.9041   23.9149 O   0  0  0  0  0  0  0  0  0  0  0  0
    8.3770  -11.9396   26.2800 C   0  0  0  0  0  0  0  0  0  0  0  0
    7.4360  -13.0156   26.6998 C   0  0  1  0  0  0  0  0  0  0  0  0
    6.0245  -12.4339   26.8342 C   0  0  0  0  0  0  0  0  0  0  0  0
    7.4512  -14.2866   25.9655 C   0  0  0  0  0  0  0  0  0  0  0  0
    8.6899  -15.0521   25.7571 C   0  0  2  0  0  0  0  0  0  0  0  0
    8.7996  -15.1704   24.2691 N   0  0  0  0  0  0  0  0  0  0  0  0
    8.8445  -16.3706   26.3231 C   0  0  0  0  0  0  0  0  0  0  0  0
    9.0088  -17.5060   25.5056 O   0  0  0  0  0  0  0  0  0  0  0  0
    8.8429  -16.5871   27.5477 O   0  0  0  0  0  0  0  0  0  0  0  0
  2  6  1  0
  2  1  1  6
  3  2  1  0
  4  3  1  0
  5  4  2  0
  6  7  2  0
  8  4  1  0
  9 10  1  0
  9  6  1  0
 11 12  1  0
 10 11  1  6
 12 13  1  0
 13 14  1  0
 14 15  1  0
 16 10  1  0
 16 17  2  0
 19 21  1  0
 19 18  1  6
 20 19  1  0
 22 21  1  6
 22 23  1  0
 22 24  1  0
 23 16  1  0
 24 26  2  0
 24 25  1  0
M  END
$$$$
