VFC.pdb
     RDKit          3D

 25 25  0  0  1  0  0  0  0  0999 V2000
   23.5674  -21.5666  -12.6079 C   0  0  0  0  0  0  0  0  0  0  0  0
   24.2050  -20.1881  -12.7644 C   0  0  2  0  0  0  0  0  0  0  0  0
   24.0138  -19.7224  -14.1972 C   0  0  0  0  0  0  0  0  0  0  0  0
   25.6876  -20.3779  -12.5119 C   0  0  2  0  0  0  0  0  0  0  0  0
   26.1644  -21.3870  -13.4218 N   0  0  0  0  0  0  0  0  0  0  0  0
   25.9376  -20.8282  -11.1080 C   0  0  0  0  0  0  0  0  0  0  0  0
   25.9310  -22.0725  -10.8374 O   0  0  0  0  0  0  0  0  0  0  0  0
   26.1845  -19.9477  -10.0465 N   0  0  0  0  0  0  0  0  0  0  0  0
   26.4908  -20.3813   -8.6767 C   0  0  1  0  0  0  0  0  0  0  0  0
   27.3411  -19.2995   -8.0799 C   0  0  0  0  0  0  0  0  0  0  0  0
   27.8480  -19.4937   -6.7391 C   0  0  0  0  0  0  0  0  0  0  0  0
   28.6337  -20.6259   -6.5035 C   0  0  0  0  0  0  0  0  0  0  0  0
   29.1613  -20.8079   -5.2506 C   0  0  0  0  0  0  0  0  0  0  0  0
   28.9075  -19.8792   -4.2608 C   0  0  0  0  0  0  0  0  0  0  0  0
   28.1360  -18.7649   -4.4865 C   0  0  0  0  0  0  0  0  0  0  0  0
   27.5901  -18.5633   -5.7569 C   0  0  0  0  0  0  0  0  0  0  0  0
   25.2911  -20.6243   -7.9044 C   0  0  0  0  0  0  0  0  0  0  0  0
   24.3487  -19.7552   -8.0363 O   0  0  0  0  0  0  0  0  0  0  0  0
   24.9935  -21.6788   -7.0286 N   0  0  0  0  0  0  0  0  0  0  0  0
   23.7808  -21.7752   -6.2658 C   0  0  1  0  0  0  0  0  0  0  0  0
   23.5143  -23.2648   -6.0548 C   0  0  0  0  0  0  0  0  0  0  0  0
   22.0363  -23.4977   -5.0377 S   0  0  0  0  0  0  0  0  0  0  0  0
   23.7465  -21.1026   -4.9855 C   0  0  0  0  0  0  0  0  0  0  0  0
   22.6189  -20.3979   -4.5909 O   0  0  0  0  0  0  0  0  0  0  0  0
   24.7112  -21.1273   -4.1969 O   0  0  0  0  0  0  0  0  0  0  0  0
  2  3  1  6
  2  1  1  0
  4  6  1  0
  4  2  1  0
  4  5  1  6
  6  7  2  0
  8  9  1  0
  8  6  1  0
  9 10  1  1
 10 11  1  0
 11 16  2  0
 12 11  1  0
 12 13  2  0
 13 14  1  0
 14 15  2  0
 16 15  1  0
 17 18  2  0
 17  9  1  0
 19 17  1  0
 20 23  1  0
 20 19  1  0
 21 22  1  0
 20 21  1  1
 23 24  1  0
 25 23  2  0
M  END
$$$$
