VFC.pdb
     RDKit          3D

 25 25  0  0  1  0  0  0  0  0999 V2000
   26.3256  -22.6018  -18.4441 C   0  0  0  0  0  0  0  0  0  0  0  0
   27.2182  -21.4232  -18.0627 C   0  0  2  0  0  0  0  0  0  0  0  0
   28.1325  -21.1055  -19.2330 C   0  0  0  0  0  0  0  0  0  0  0  0
   28.0683  -21.8966  -16.9003 C   0  0  2  0  0  0  0  0  0  0  0  0
   28.7255  -23.1136  -17.3013 N   0  0  0  0  0  0  0  0  0  0  0  0
   27.2238  -22.1707  -15.6970 C   0  0  0  0  0  0  0  0  0  0  0  0
   26.8169  -23.3563  -15.4727 O   0  0  0  0  0  0  0  0  0  0  0  0
   26.8429  -21.1831  -14.7791 N   0  0  0  0  0  0  0  0  0  0  0  0
   25.9875  -21.4357  -13.6119 C   0  0  1  0  0  0  0  0  0  0  0  0
   26.4661  -20.5044  -12.5380 C   0  0  0  0  0  0  0  0  0  0  0  0
   25.7997  -20.5453  -11.2547 C   0  0  0  0  0  0  0  0  0  0  0  0
   26.4843  -21.1394  -10.1903 C   0  0  0  0  0  0  0  0  0  0  0  0
   25.8901  -21.1507   -8.9541 C   0  0  0  0  0  0  0  0  0  0  0  0
   24.6429  -20.5813   -8.7903 C   0  0  0  0  0  0  0  0  0  0  0  0
   23.9654  -19.9963   -9.8326 C   0  0  0  0  0  0  0  0  0  0  0  0
   24.5553  -19.9758  -11.0992 C   0  0  0  0  0  0  0  0  0  0  0  0
   24.5853  -21.2463  -13.9167 C   0  0  0  0  0  0  0  0  0  0  0  0
   24.2857  -20.1635  -14.5481 O   0  0  0  0  0  0  0  0  0  0  0  0
   23.4913  -22.0764  -13.6308 N   0  0  0  0  0  0  0  0  0  0  0  0
   22.1263  -21.7403  -13.9239 C   0  0  1  0  0  0  0  0  0  0  0  0
   21.3985  -23.0578  -14.1862 C   0  0  0  0  0  0  0  0  0  0  0  0
   19.6337  -22.7561  -14.4465 S   0  0  0  0  0  0  0  0  0  0  0  0
   21.3985  -20.9886  -12.9249 C   0  0  0  0  0  0  0  0  0  0  0  0
   20.5136  -19.9895  -13.3026 O   0  0  0  0  0  0  0  0  0  0  0  0
   21.5332  -21.2029  -11.7046 O   0  0  0  0  0  0  0  0  0  0  0  0
  2  3  1  6
  2  1  1  0
  4  6  1  0
  4  2  1  0
  4  5  1  6
  6  7  2  0
  8  9  1  0
  8  6  1  0
  9 10  1  1
 10 11  1  0
 11 16  2  0
 12 11  1  0
 12 13  2  0
 13 14  1  0
 14 15  2  0
 16 15  1  0
 17 18  2  0
 17  9  1  0
 19 17  1  0
 20 23  1  0
 20 19  1  0
 21 22  1  0
 20 21  1  1
 23 24  1  0
 25 23  2  0
M  END
$$$$
