VFC.pdb
     RDKit          3D

 25 25  0  0  1  0  0  0  0  0999 V2000
   22.5683  -26.6931  -17.6364 C   0  0  0  0  0  0  0  0  0  0  0  0
   23.2581  -25.8454  -18.7026 C   0  0  2  0  0  0  0  0  0  0  0  0
   22.1977  -25.2436  -19.6081 C   0  0  0  0  0  0  0  0  0  0  0  0
   24.1046  -26.8015  -19.5194 C   0  0  2  0  0  0  0  0  0  0  0  0
   23.2519  -27.8708  -19.9702 N   0  0  0  0  0  0  0  0  0  0  0  0
   25.2118  -27.3745  -18.6934 C   0  0  0  0  0  0  0  0  0  0  0  0
   26.1275  -26.6075  -18.2525 O   0  0  0  0  0  0  0  0  0  0  0  0
   25.3079  -28.7335  -18.3663 N   0  0  0  0  0  0  0  0  0  0  0  0
   26.4776  -29.3385  -17.7152 C   0  0  1  0  0  0  0  0  0  0  0  0
   25.9803  -30.5849  -17.0451 C   0  0  0  0  0  0  0  0  0  0  0  0
   26.9588  -31.5187  -16.5322 C   0  0  0  0  0  0  0  0  0  0  0  0
   27.2347  -32.6527  -17.3021 C   0  0  0  0  0  0  0  0  0  0  0  0
   28.1906  -33.5299  -16.8570 C   0  0  0  0  0  0  0  0  0  0  0  0
   28.8519  -33.2763  -15.6717 C   0  0  0  0  0  0  0  0  0  0  0  0
   28.5848  -32.1637  -14.9110 C   0  0  0  0  0  0  0  0  0  0  0  0
   27.6139  -31.2592  -15.3488 C   0  0  0  0  0  0  0  0  0  0  0  0
   27.5420  -29.6102  -18.6575 C   0  0  0  0  0  0  0  0  0  0  0  0
   27.1728  -29.9794  -19.8357 O   0  0  0  0  0  0  0  0  0  0  0  0
   28.9310  -29.5250  -18.4816 N   0  0  0  0  0  0  0  0  0  0  0  0
   29.8931  -29.8369  -19.5009 C   0  0  1  0  0  0  0  0  0  0  0  0
   30.5676  -28.5202  -19.8829 C   0  0  0  0  0  0  0  0  0  0  0  0
   29.3419  -27.3513  -20.5190 S   0  0  0  0  0  0  0  0  0  0  0  0
   30.9105  -30.8130  -19.1773 C   0  0  0  0  0  0  0  0  0  0  0  0
   31.8025  -31.2474  -20.1465 O   0  0  0  0  0  0  0  0  0  0  0  0
   31.0266  -31.2964  -18.0345 O   0  0  0  0  0  0  0  0  0  0  0  0
  2  3  1  6
  2  1  1  0
  4  6  1  0
  4  2  1  0
  4  5  1  1
  6  7  2  0
  8  9  1  0
  8  6  1  0
  9 10  1  6
 10 11  1  0
 11 16  2  0
 12 11  1  0
 12 13  2  0
 13 14  1  0
 14 15  2  0
 16 15  1  0
 17 18  2  0
 17  9  1  0
 19 17  1  0
 20 23  1  0
 20 19  1  0
 21 22  1  0
 20 21  1  1
 23 24  1  0
 25 23  2  0
M  END
$$$$
