VFC.pdb
     RDKit          3D

 25 25  0  0  1  0  0  0  0  0999 V2000
   20.3760  -30.0837  -11.5647 C   0  0  0  0  0  0  0  0  0  0  0  0
   20.2054  -29.1635  -10.3582 C   0  0  2  0  0  0  0  0  0  0  0  0
   19.3757  -29.8835   -9.3095 C   0  0  0  0  0  0  0  0  0  0  0  0
   19.4236  -27.9620  -10.8513 C   0  0  2  0  0  0  0  0  0  0  0  0
   20.1819  -27.3462  -11.9094 N   0  0  0  0  0  0  0  0  0  0  0  0
   19.2215  -26.9679   -9.7525 C   0  0  0  0  0  0  0  0  0  0  0  0
   20.1838  -26.2083   -9.4085 O   0  0  0  0  0  0  0  0  0  0  0  0
   18.0124  -26.8156   -9.0612 N   0  0  0  0  0  0  0  0  0  0  0  0
   17.8024  -25.8400   -7.9832 C   0  0  1  0  0  0  0  0  0  0  0  0
   16.6523  -24.9816   -8.4192 C   0  0  0  0  0  0  0  0  0  0  0  0
   16.9061  -23.9515   -9.4025 C   0  0  0  0  0  0  0  0  0  0  0  0
   16.4303  -24.1658  -10.6996 C   0  0  0  0  0  0  0  0  0  0  0  0
   16.6210  -23.1836  -11.6379 C   0  0  0  0  0  0  0  0  0  0  0  0
   17.2714  -22.0180  -11.2843 C   0  0  0  0  0  0  0  0  0  0  0  0
   17.7411  -21.8020  -10.0113 C   0  0  0  0  0  0  0  0  0  0  0  0
   17.5559  -22.7918   -9.0425 C   0  0  0  0  0  0  0  0  0  0  0  0
   17.5545  -26.4836   -6.7107 C   0  0  0  0  0  0  0  0  0  0  0  0
   16.6265  -27.3778   -6.7014 O   0  0  0  0  0  0  0  0  0  0  0  0
   18.1836  -26.2830   -5.4732 N   0  0  0  0  0  0  0  0  0  0  0  0
   17.7140  -26.8315   -4.2320 C   0  0  1  0  0  0  0  0  0  0  0  0
   18.1815  -25.8822   -3.1299 C   0  0  0  0  0  0  0  0  0  0  0  0
   17.6344  -26.4830   -1.5134 S   0  0  0  0  0  0  0  0  0  0  0  0
   16.2898  -27.0470   -4.0980 C   0  0  0  0  0  0  0  0  0  0  0  0
   15.8025  -28.2566   -3.6256 O   0  0  0  0  0  0  0  0  0  0  0  0
   15.4552  -26.1706   -4.3959 O   0  0  0  0  0  0  0  0  0  0  0  0
  2  3  1  1
  2  1  1  0
  4  6  1  0
  4  2  1  0
  4  5  1  6
  6  7  2  0
  8  9  1  0
  8  6  1  0
  9 10  1  6
 10 11  1  0
 11 16  2  0
 12 11  1  0
 12 13  2  0
 13 14  1  0
 14 15  2  0
 16 15  1  0
 17 18  2  0
 17  9  1  0
 19 17  1  0
 20 23  1  0
 20 19  1  0
 21 22  1  0
 20 21  1  1
 23 24  1  0
 25 23  2  0
M  END
$$$$
