VFC.pdb
     RDKit          3D

 25 25  0  0  1  0  0  0  0  0999 V2000
   24.4145  -14.1237  -15.1539 C   0  0  0  0  0  0  0  0  0  0  0  0
   23.7391  -12.8584  -15.6774 C   0  0  2  0  0  0  0  0  0  0  0  0
   24.2154  -11.6750  -14.8532 C   0  0  0  0  0  0  0  0  0  0  0  0
   22.2533  -13.0447  -15.4413 C   0  0  2  0  0  0  0  0  0  0  0  0
   21.8443  -14.2424  -16.1283 N   0  0  0  0  0  0  0  0  0  0  0  0
   21.4770  -11.8844  -15.9774 C   0  0  0  0  0  0  0  0  0  0  0  0
   21.4626  -11.6647  -17.2316 O   0  0  0  0  0  0  0  0  0  0  0  0
   20.7475  -11.0031  -15.1687 N   0  0  0  0  0  0  0  0  0  0  0  0
   20.0355   -9.8232  -15.6775 C   0  0  1  0  0  0  0  0  0  0  0  0
   18.5738  -10.1370  -15.5566 C   0  0  0  0  0  0  0  0  0  0  0  0
   17.9655  -10.9533  -16.5844 C   0  0  0  0  0  0  0  0  0  0  0  0
   17.5901  -12.2546  -16.2375 C   0  0  0  0  0  0  0  0  0  0  0  0
   16.9718  -13.0321  -17.1833 C   0  0  0  0  0  0  0  0  0  0  0  0
   16.7365  -12.5179  -18.4430 C   0  0  0  0  0  0  0  0  0  0  0  0
   17.1034  -11.2400  -18.7896 C   0  0  0  0  0  0  0  0  0  0  0  0
   17.7346  -10.4336  -17.8388 C   0  0  0  0  0  0  0  0  0  0  0  0
   20.3989   -8.6200  -14.9600 C   0  0  0  0  0  0  0  0  0  0  0  0
   20.3589   -8.6953  -13.6741 O   0  0  0  0  0  0  0  0  0  0  0  0
   20.7990   -7.3715  -15.4588 N   0  0  0  0  0  0  0  0  0  0  0  0
   21.1294   -6.2427  -14.6351 C   0  0  1  0  0  0  0  0  0  0  0  0
   22.5299   -5.7941  -15.0495 C   0  0  0  0  0  0  0  0  0  0  0  0
   23.0752   -4.4125  -14.0165 S   0  0  0  0  0  0  0  0  0  0  0  0
   20.2364   -5.1054  -14.6781 C   0  0  0  0  0  0  0  0  0  0  0  0
   19.9701   -4.3760  -13.5288 O   0  0  0  0  0  0  0  0  0  0  0  0
   19.6784   -4.7393  -15.7307 O   0  0  0  0  0  0  0  0  0  0  0  0
  2  3  1  1
  2  1  1  0
  4  6  1  0
  4  2  1  0
  4  5  1  6
  6  7  2  0
  8  9  1  0
  8  6  1  0
  9 10  1  1
 10 11  1  0
 11 16  2  0
 12 11  1  0
 12 13  2  0
 13 14  1  0
 14 15  2  0
 16 15  1  0
 17 18  2  0
 17  9  1  0
 19 17  1  0
 20 23  1  0
 20 19  1  0
 21 22  1  0
 20 21  1  6
 23 24  1  0
 25 23  2  0
M  END
$$$$
