VFC.pdb
     RDKit          3D

 25 25  0  0  1  0  0  0  0  0999 V2000
   28.9546  -22.2117  -16.1253 C   0  0  0  0  0  0  0  0  0  0  0  0
   27.6958  -22.4635  -16.9520 C   0  0  2  0  0  0  0  0  0  0  0  0
   27.9755  -22.0807  -18.3947 C   0  0  0  0  0  0  0  0  0  0  0  0
   26.6358  -21.5302  -16.4014 C   0  0  2  0  0  0  0  0  0  0  0  0
   27.1147  -20.1805  -16.5528 N   0  0  0  0  0  0  0  0  0  0  0  0
   26.3860  -21.8004  -14.9520 C   0  0  0  0  0  0  0  0  0  0  0  0
   25.8456  -22.8991  -14.6024 O   0  0  0  0  0  0  0  0  0  0  0  0
   26.7163  -20.9006  -13.9301 N   0  0  0  0  0  0  0  0  0  0  0  0
   26.3402  -21.0858  -12.5222 C   0  0  1  0  0  0  0  0  0  0  0  0
   27.2855  -20.2364  -11.7255 C   0  0  0  0  0  0  0  0  0  0  0  0
   27.1618  -20.2485  -10.2843 C   0  0  0  0  0  0  0  0  0  0  0  0
   27.9734  -21.1380   -9.5739 C   0  0  0  0  0  0  0  0  0  0  0  0
   27.9048  -21.1362   -8.2040 C   0  0  0  0  0  0  0  0  0  0  0  0
   27.0452  -20.2654   -7.5642 C   0  0  0  0  0  0  0  0  0  0  0  0
   26.2452  -19.3892   -8.2570 C   0  0  0  0  0  0  0  0  0  0  0  0
   26.3017  -19.3773   -9.6531 C   0  0  0  0  0  0  0  0  0  0  0  0
   24.9559  -20.7392  -12.2811 C   0  0  0  0  0  0  0  0  0  0  0  0
   24.5871  -19.5723  -12.6853 O   0  0  0  0  0  0  0  0  0  0  0  0
   23.9415  -21.4930  -11.6726 N   0  0  0  0  0  0  0  0  0  0  0  0
   22.6104  -21.0096  -11.4347 C   0  0  1  0  0  0  0  0  0  0  0  0
   21.6698  -21.9053  -12.2392 C   0  0  0  0  0  0  0  0  0  0  0  0
   21.5460  -21.3111  -13.9436 S   0  0  0  0  0  0  0  0  0  0  0  0
   22.1574  -20.9603  -10.0617 C   0  0  0  0  0  0  0  0  0  0  0  0
   20.9256  -20.4062   -9.7467 O   0  0  0  0  0  0  0  0  0  0  0  0
   22.8424  -21.4056   -9.1206 O   0  0  0  0  0  0  0  0  0  0  0  0
  2  3  1  6
  2  1  1  0
  4  6  1  0
  4  2  1  0
  4  5  1  1
  6  7  2  0
  8  9  1  0
  8  6  1  0
  9 10  1  1
 10 11  1  0
 11 16  2  0
 12 11  1  0
 12 13  2  0
 13 14  1  0
 14 15  2  0
 16 15  1  0
 17 18  2  0
 17  9  1  0
 19 17  1  0
 20 23  1  0
 20 19  1  0
 21 22  1  0
 20 21  1  6
 23 24  1  0
 25 23  2  0
M  END
$$$$
