VFC.pdb
     RDKit          3D

 25 25  0  0  1  0  0  0  0  0999 V2000
   28.1189  -19.5429  -15.3805 C   0  0  0  0  0  0  0  0  0  0  0  0
   27.4666  -19.8446  -14.0334 C   0  0  2  0  0  0  0  0  0  0  0  0
   27.1557  -18.5312  -13.3373 C   0  0  0  0  0  0  0  0  0  0  0  0
   28.5060  -20.5888  -13.2187 C   0  0  2  0  0  0  0  0  0  0  0  0
   28.8301  -21.8035  -13.9210 N   0  0  0  0  0  0  0  0  0  0  0  0
   27.9764  -20.9342  -11.8635 C   0  0  0  0  0  0  0  0  0  0  0  0
   27.0529  -21.8040  -11.7535 O   0  0  0  0  0  0  0  0  0  0  0  0
   28.4426  -20.3480  -10.6794 N   0  0  0  0  0  0  0  0  0  0  0  0
   27.8926  -20.6403   -9.3489 C   0  0  1  0  0  0  0  0  0  0  0  0
   28.8503  -20.0394   -8.3634 C   0  0  0  0  0  0  0  0  0  0  0  0
   28.4629  -20.0079   -6.9700 C   0  0  0  0  0  0  0  0  0  0  0  0
   28.9221  -21.0419   -6.1486 C   0  0  0  0  0  0  0  0  0  0  0  0
   28.6037  -21.0095   -4.8149 C   0  0  0  0  0  0  0  0  0  0  0  0
   27.8451  -19.9679   -4.3187 C   0  0  0  0  0  0  0  0  0  0  0  0
   27.3910  -18.9493   -5.1211 C   0  0  0  0  0  0  0  0  0  0  0  0
   27.7056  -18.9659   -6.4825 C   0  0  0  0  0  0  0  0  0  0  0  0
   26.5495  -20.1241   -9.1926 C   0  0  0  0  0  0  0  0  0  0  0  0
   26.3395  -18.9436   -9.6652 O   0  0  0  0  0  0  0  0  0  0  0  0
   25.4272  -20.7244   -8.6030 N   0  0  0  0  0  0  0  0  0  0  0  0
   24.0711  -20.3363   -8.8719 C   0  0  1  0  0  0  0  0  0  0  0  0
   23.8325  -20.5843  -10.3606 C   0  0  0  0  0  0  0  0  0  0  0  0
   22.0993  -20.2738  -10.7763 S   0  0  0  0  0  0  0  0  0  0  0  0
   23.0297  -20.9910   -8.1106 C   0  0  0  0  0  0  0  0  0  0  0  0
   21.7064  -20.5984   -8.2461 O   0  0  0  0  0  0  0  0  0  0  0  0
   23.2730  -21.9188   -7.3148 O   0  0  0  0  0  0  0  0  0  0  0  0
  2  3  1  1
  2  1  1  0
  4  6  1  0
  4  2  1  0
  4  5  1  6
  6  7  2  0
  8  9  1  0
  8  6  1  0
  9 10  1  1
 10 11  1  0
 11 16  2  0
 12 11  1  0
 12 13  2  0
 13 14  1  0
 14 15  2  0
 16 15  1  0
 17 18  2  0
 17  9  1  0
 19 17  1  0
 20 23  1  0
 20 19  1  0
 21 22  1  0
 20 21  1  6
 23 24  1  0
 25 23  2  0
M  END
$$$$
