VFC.pdb
     RDKit          3D

 25 25  0  0  1  0  0  0  0  0999 V2000
   21.5848  -19.8049  -15.8172 C   0  0  0  0  0  0  0  0  0  0  0  0
   21.7734  -18.6614  -14.8232 C   0  0  2  0  0  0  0  0  0  0  0  0
   20.4761  -17.8772  -14.7304 C   0  0  0  0  0  0  0  0  0  0  0  0
   22.8408  -17.7612  -15.4133 C   0  0  2  0  0  0  0  0  0  0  0  0
   22.3898  -17.3355  -16.7129 N   0  0  0  0  0  0  0  0  0  0  0  0
   24.1362  -18.4936  -15.5612 C   0  0  0  0  0  0  0  0  0  0  0  0
   24.3880  -19.1105  -16.6464 O   0  0  0  0  0  0  0  0  0  0  0  0
   25.1133  -18.5456  -14.5584 N   0  0  0  0  0  0  0  0  0  0  0  0
   26.4049  -19.2293  -14.7078 C   0  0  1  0  0  0  0  0  0  0  0  0
   27.4548  -18.2043  -14.3972 C   0  0  0  0  0  0  0  0  0  0  0  0
   27.5574  -17.0507  -15.2639 C   0  0  0  0  0  0  0  0  0  0  0  0
   28.3454  -17.1738  -16.4121 C   0  0  0  0  0  0  0  0  0  0  0  0
   28.4223  -16.1073  -17.2713 C   0  0  0  0  0  0  0  0  0  0  0  0
   27.7274  -14.9488  -16.9861 C   0  0  0  0  0  0  0  0  0  0  0  0
   26.9517  -14.8220  -15.8592 C   0  0  0  0  0  0  0  0  0  0  0  0
   26.8617  -15.8982  -14.9725 C   0  0  0  0  0  0  0  0  0  0  0  0
   26.5043  -20.3924  -13.8521 C   0  0  0  0  0  0  0  0  0  0  0  0
   26.8619  -20.1689  -12.6343 O   0  0  0  0  0  0  0  0  0  0  0  0
   26.2610  -21.7413  -14.1503 N   0  0  0  0  0  0  0  0  0  0  0  0
   25.6404  -22.6675  -13.2453 C   0  0  1  0  0  0  0  0  0  0  0  0
   24.9932  -21.8328  -12.1413 C   0  0  0  0  0  0  0  0  0  0  0  0
   26.0925  -21.7317  -10.7080 S   0  0  0  0  0  0  0  0  0  0  0  0
   24.6539  -23.5721  -13.7942 C   0  0  0  0  0  0  0  0  0  0  0  0
   24.0043  -23.2686  -14.9815 O   0  0  0  0  0  0  0  0  0  0  0  0
   24.3513  -24.6433  -13.2337 O   0  0  0  0  0  0  0  0  0  0  0  0
  2  3  1  6
  2  1  1  0
  4  6  1  0
  4  2  1  0
  4  5  1  6
  6  7  2  0
  8  9  1  0
  8  6  1  0
  9 10  1  1
 10 11  1  0
 11 16  2  0
 12 11  1  0
 12 13  2  0
 13 14  1  0
 14 15  2  0
 16 15  1  0
 17 18  2  0
 17  9  1  0
 19 17  1  0
 20 23  1  0
 20 19  1  0
 21 22  1  0
 20 21  1  1
 23 24  1  0
 25 23  2  0
M  END
$$$$
