VFC.pdb
     RDKit          3D

 25 25  0  0  1  0  0  0  0  0999 V2000
   24.7322  -22.0106  -19.7461 C   0  0  0  0  0  0  0  0  0  0  0  0
   24.9970  -20.5264  -19.5048 C   0  0  2  0  0  0  0  0  0  0  0  0
   25.3671  -19.8761  -20.8264 C   0  0  0  0  0  0  0  0  0  0  0  0
   26.1958  -20.4567  -18.5797 C   0  0  2  0  0  0  0  0  0  0  0  0
   27.2646  -21.2081  -19.1853 N   0  0  0  0  0  0  0  0  0  0  0  0
   25.8764  -21.0503  -17.2448 C   0  0  0  0  0  0  0  0  0  0  0  0
   26.3100  -22.2118  -16.9545 O   0  0  0  0  0  0  0  0  0  0  0  0
   25.1126  -20.3945  -16.2704 N   0  0  0  0  0  0  0  0  0  0  0  0
   24.7539  -20.9870  -14.9748 C   0  0  1  0  0  0  0  0  0  0  0  0
   25.2565  -20.0350  -13.9304 C   0  0  0  0  0  0  0  0  0  0  0  0
   25.0777  -20.3932  -12.5403 C   0  0  0  0  0  0  0  0  0  0  0  0
   23.9389  -19.9087  -11.8901 C   0  0  0  0  0  0  0  0  0  0  0  0
   23.7260  -20.2712  -10.5845 C   0  0  0  0  0  0  0  0  0  0  0  0
   24.6312  -21.0974   -9.9485 C   0  0  0  0  0  0  0  0  0  0  0  0
   25.7522  -21.5764  -10.5824 C   0  0  0  0  0  0  0  0  0  0  0  0
   25.9853  -21.2173  -11.9126 C   0  0  0  0  0  0  0  0  0  0  0  0
   23.3303  -21.2224  -14.8623 C   0  0  0  0  0  0  0  0  0  0  0  0
   22.5749  -20.1854  -14.9844 O   0  0  0  0  0  0  0  0  0  0  0  0
   22.6404  -22.4241  -14.6443 N   0  0  0  0  0  0  0  0  0  0  0  0
   21.2682  -22.5016  -14.2284 C   0  0  1  0  0  0  0  0  0  0  0  0
   21.2342  -23.4108  -13.0009 C   0  0  0  0  0  0  0  0  0  0  0  0
   19.5636  -24.0578  -12.7482 S   0  0  0  0  0  0  0  0  0  0  0  0
   20.5982  -21.2584  -13.9148 C   0  0  0  0  0  0  0  0  0  0  0  0
   19.2988  -21.0317  -14.3437 O   0  0  0  0  0  0  0  0  0  0  0  0
   21.1501  -20.3545  -13.2578 O   0  0  0  0  0  0  0  0  0  0  0  0
  2  3  1  6
  2  1  1  0
  4  6  1  0
  4  2  1  0
  4  5  1  6
  6  7  2  0
  8  9  1  0
  8  6  1  0
  9 10  1  1
 10 11  1  0
 11 16  2  0
 12 11  1  0
 12 13  2  0
 13 14  1  0
 14 15  2  0
 16 15  1  0
 17 18  2  0
 17  9  1  0
 19 17  1  0
 20 23  1  0
 20 19  1  0
 21 22  1  0
 20 21  1  1
 23 24  1  0
 25 23  2  0
M  END
$$$$
