CLH.pdb
     RDKit          3D

 25 25  0  0  1  0  0  0  0  0999 V2000
    7.7551  -13.5763   20.1128 N   0  0  0  0  0  0  0  0  0  0  0  0
    7.1600  -14.4631   21.0582 C   0  0  1  0  0  0  0  0  0  0  0  0
    7.0838  -15.8504   20.4697 C   0  0  0  0  0  0  0  0  0  0  0  0
    6.2066  -16.9145   21.6412 S   0  0  0  0  0  0  0  0  0  0  0  0
    7.8834  -14.5367   22.3434 C   0  0  0  0  0  0  0  0  0  0  0  0
    9.1412  -14.6032   22.2938 O   0  0  0  0  0  0  0  0  0  0  0  0
    5.8844  -12.0616   26.7533 C   0  0  0  0  0  0  0  0  0  0  0  0
    6.8748  -12.5425   25.6956 C   0  0  1  0  0  0  0  0  0  0  0  0
    8.1036  -11.6674   25.8390 C   0  0  0  0  0  0  0  0  0  0  0  0
    7.2313  -13.9755   25.9138 C   0  0  0  0  0  0  0  0  0  0  0  0
    8.0346  -14.6184   24.8614 C   0  0  2  0  0  0  0  0  0  0  0  0
    7.2775  -14.5381   23.6101 N   0  0  0  0  0  0  0  0  0  0  0  0
    8.4790  -15.9827   25.1144 C   0  0  0  0  0  0  0  0  0  0  0  0
    7.6626  -16.9243   25.1287 O   0  0  0  0  0  0  0  0  0  0  0  0
    9.8343  -16.2686   25.3475 N   0  0  0  0  0  0  0  0  0  0  0  0
   10.3820  -17.5986   25.6424 C   0  0  1  0  0  0  0  0  0  0  0  0
   11.7301  -17.7826   25.0304 C   0  0  0  0  0  0  0  0  0  0  0  0
   11.6161  -17.9372   23.5692 C   0  0  0  0  0  0  0  0  0  0  0  0
   10.7247  -18.5922   22.7692 C   0  0  0  0  0  0  0  0  0  0  0  0
   11.0303  -18.3696   21.4736 N   0  0  0  0  0  0  0  0  0  0  0  0
   12.1069  -17.5782   21.4339 C   0  0  0  0  0  0  0  0  0  0  0  0
   12.4609  -17.3166   22.6829 N   0  0  0  0  0  0  0  0  0  0  0  0
   10.6052  -17.5484   27.1399 C   0  0  0  0  0  0  0  0  0  0  0  0
   11.1123  -18.5638   27.8940 O   0  0  0  0  0  0  0  0  0  0  0  0
   10.2866  -16.4551   27.7171 O   0  0  0  0  0  0  0  0  0  0  0  0
  2  1  1  6
  3  2  1  0
  3  4  1  0
  5  6  2  0
  5  2  1  0
  8  7  1  1
  8 10  1  0
  9  8  1  0
 11 10  1  1
 11 13  1  0
 11 12  1  0
 12  5  1  0
 13 14  2  0
 15 13  1  0
 15 16  1  0
 16 17  1  6
 17 18  1  0
 18 22  1  0
 19 18  2  0
 19 20  1  0
 20 21  1  0
 22 21  2  0
 23 16  1  0
 24 23  1  0
 25 23  2  0
M  END
$$$$
