CLH.pdb
     RDKit          3D

 25 25  0  0  1  0  0  0  0  0999 V2000
    8.0150  -16.1437   20.1318 N   0  0  0  0  0  0  0  0  0  0  0  0
    7.3920  -16.4053   21.3879 C   0  0  1  0  0  0  0  0  0  0  0  0
    7.4995  -17.8760   21.7075 C   0  0  0  0  0  0  0  0  0  0  0  0
    6.8975  -18.8106   20.2797 S   0  0  0  0  0  0  0  0  0  0  0  0
    7.9676  -15.6370   22.5099 C   0  0  0  0  0  0  0  0  0  0  0  0
    9.1691  -15.2711   22.4014 O   0  0  0  0  0  0  0  0  0  0  0  0
    7.7535  -11.6548   26.1077 C   0  0  0  0  0  0  0  0  0  0  0  0
    7.1184  -12.9452   26.6199 C   0  0  1  0  0  0  0  0  0  0  0  0
    5.8819  -12.5300   27.3914 C   0  0  0  0  0  0  0  0  0  0  0  0
    6.7447  -13.8404   25.4855 C   0  0  0  0  0  0  0  0  0  0  0  0
    7.8565  -14.4352   24.7264 C   0  0  2  0  0  0  0  0  0  0  0  0
    7.2798  -15.2856   23.6825 N   0  0  0  0  0  0  0  0  0  0  0  0
    8.8618  -15.1603   25.4921 C   0  0  0  0  0  0  0  0  0  0  0  0
    9.5846  -14.5655   26.3151 O   0  0  0  0  0  0  0  0  0  0  0  0
    9.0401  -16.5431   25.3218 N   0  0  0  0  0  0  0  0  0  0  0  0
   10.0660  -17.3546   25.9886 C   0  0  1  0  0  0  0  0  0  0  0  0
   11.4410  -16.9146   25.6123 C   0  0  0  0  0  0  0  0  0  0  0  0
   11.6458  -17.0496   24.1590 C   0  0  0  0  0  0  0  0  0  0  0  0
   11.3410  -18.0339   23.2636 C   0  0  0  0  0  0  0  0  0  0  0  0
   11.6869  -17.6382   22.0205 N   0  0  0  0  0  0  0  0  0  0  0  0
   12.2087  -16.4106   22.1087 C   0  0  0  0  0  0  0  0  0  0  0  0
   12.1863  -16.0541   23.3839 N   0  0  0  0  0  0  0  0  0  0  0  0
    9.8932  -16.9866   27.4479 C   0  0  0  0  0  0  0  0  0  0  0  0
    8.9353  -16.1519   27.9405 O   0  0  0  0  0  0  0  0  0  0  0  0
   10.7230  -17.5161   28.2609 O   0  0  0  0  0  0  0  0  0  0  0  0
  2  1  1  6
  3  2  1  0
  3  4  1  0
  5  6  2  0
  5  2  1  0
  8  7  1  6
  8 10  1  0
  9  8  1  0
 11 10  1  1
 11 13  1  0
 11 12  1  0
 12  5  1  0
 13 14  2  0
 15 13  1  0
 15 16  1  0
 16 17  1  6
 17 18  1  0
 18 22  1  0
 19 18  2  0
 19 20  1  0
 20 21  1  0
 22 21  2  0
 23 16  1  0
 24 23  1  0
 25 23  2  0
M  END
$$$$
