CLH.pdb
     RDKit          3D

 25 25  0  0  1  0  0  0  0  0999 V2000
    7.5488  -14.3737   20.2293 N   0  0  0  0  0  0  0  0  0  0  0  0
    7.0058  -15.1217   21.3156 C   0  0  1  0  0  0  0  0  0  0  0  0
    7.0275  -16.5918   20.9761 C   0  0  0  0  0  0  0  0  0  0  0  0
    5.3460  -17.2374   21.1503 S   0  0  0  0  0  0  0  0  0  0  0  0
    7.7210  -14.9234   22.5921 C   0  0  0  0  0  0  0  0  0  0  0  0
    8.9808  -14.9050   22.5500 O   0  0  0  0  0  0  0  0  0  0  0  0
    5.8856  -11.7418   26.7212 C   0  0  0  0  0  0  0  0  0  0  0  0
    6.7770  -12.4124   25.6788 C   0  0  1  0  0  0  0  0  0  0  0  0
    8.0804  -11.6395   25.6777 C   0  0  0  0  0  0  0  0  0  0  0  0
    7.0230  -13.8421   26.0305 C   0  0  0  0  0  0  0  0  0  0  0  0
    7.8552  -14.6136   25.0932 C   0  0  2  0  0  0  0  0  0  0  0  0
    7.1055  -14.7546   23.8428 N   0  0  0  0  0  0  0  0  0  0  0  0
    8.3422  -15.9060   25.5569 C   0  0  0  0  0  0  0  0  0  0  0  0
    7.5440  -16.8137   25.8610 O   0  0  0  0  0  0  0  0  0  0  0  0
    9.7189  -16.1594   25.6720 N   0  0  0  0  0  0  0  0  0  0  0  0
   10.3161  -17.4495   26.0390 C   0  0  1  0  0  0  0  0  0  0  0  0
   11.7506  -17.5224   25.6357 C   0  0  0  0  0  0  0  0  0  0  0  0
   11.8703  -17.6010   24.1689 C   0  0  0  0  0  0  0  0  0  0  0  0
   10.9556  -17.7561   23.1674 C   0  0  0  0  0  0  0  0  0  0  0  0
   11.5793  -17.7005   21.9718 N   0  0  0  0  0  0  0  0  0  0  0  0
   12.8835  -17.5102   22.1954 C   0  0  0  0  0  0  0  0  0  0  0  0
   13.0628  -17.4497   23.5062 N   0  0  0  0  0  0  0  0  0  0  0  0
   10.3085  -17.4076   27.5533 C   0  0  0  0  0  0  0  0  0  0  0  0
   10.7375  -18.4104   28.3701 O   0  0  0  0  0  0  0  0  0  0  0  0
    9.8617  -16.3346   28.0814 O   0  0  0  0  0  0  0  0  0  0  0  0
  2  1  1  6
  3  2  1  0
  3  4  1  0
  5  6  2  0
  5  2  1  0
  8  7  1  1
  8 10  1  0
  9  8  1  0
 11 10  1  1
 11 13  1  0
 11 12  1  0
 12  5  1  0
 13 14  2  0
 15 13  1  0
 15 16  1  0
 16 17  1  6
 17 18  1  0
 18 22  1  0
 19 18  2  0
 19 20  1  0
 20 21  1  0
 22 21  2  0
 23 16  1  0
 24 23  1  0
 25 23  2  0
M  END
$$$$
