CLH.pdb
     RDKit          3D

 25 25  0  0  1  0  0  0  0  0999 V2000
    7.7218  -14.2940   20.2213 N   0  0  0  0  0  0  0  0  0  0  0  0
    7.0893  -14.9944   21.2908 C   0  0  1  0  0  0  0  0  0  0  0  0
    6.9912  -16.4599   20.9454 C   0  0  0  0  0  0  0  0  0  0  0  0
    6.0699  -17.2911   22.2626 S   0  0  0  0  0  0  0  0  0  0  0  0
    7.7875  -14.8620   22.5851 C   0  0  0  0  0  0  0  0  0  0  0  0
    9.0476  -14.8919   22.5658 O   0  0  0  0  0  0  0  0  0  0  0  0
    5.3714  -12.1629   26.6327 C   0  0  0  0  0  0  0  0  0  0  0  0
    6.3741  -12.6722   25.6002 C   0  0  1  0  0  0  0  0  0  0  0  0
    7.4075  -11.5757   25.4384 C   0  0  0  0  0  0  0  0  0  0  0  0
    7.0246  -13.9319   26.0674 C   0  0  0  0  0  0  0  0  0  0  0  0
    7.8870  -14.6234   25.0956 C   0  0  2  0  0  0  0  0  0  0  0  0
    7.1556  -14.7060   23.8293 N   0  0  0  0  0  0  0  0  0  0  0  0
    8.4017  -15.9294   25.4858 C   0  0  0  0  0  0  0  0  0  0  0  0
    7.6418  -16.9143   25.5632 O   0  0  0  0  0  0  0  0  0  0  0  0
    9.7626  -16.1093   25.7831 N   0  0  0  0  0  0  0  0  0  0  0  0
   10.3772  -17.3715   26.2128 C   0  0  1  0  0  0  0  0  0  0  0  0
   11.7725  -17.5022   25.7011 C   0  0  0  0  0  0  0  0  0  0  0  0
   11.7682  -17.7314   24.2452 C   0  0  0  0  0  0  0  0  0  0  0  0
   10.8436  -18.2551   23.3881 C   0  0  0  0  0  0  0  0  0  0  0  0
   11.3081  -18.1849   22.1228 N   0  0  0  0  0  0  0  0  0  0  0  0
   12.5196  -17.6209   22.1589 C   0  0  0  0  0  0  0  0  0  0  0  0
   12.7992  -17.3477   23.4242 N   0  0  0  0  0  0  0  0  0  0  0  0
   10.4960  -17.1969   27.7129 C   0  0  0  0  0  0  0  0  0  0  0  0
   10.9787  -18.1327   28.5779 O   0  0  0  0  0  0  0  0  0  0  0  0
   10.1082  -16.0730   28.1781 O   0  0  0  0  0  0  0  0  0  0  0  0
  2  1  1  6
  3  2  1  0
  3  4  1  0
  5  6  2  0
  5  2  1  0
  8  7  1  1
  8 10  1  0
  9  8  1  0
 11 10  1  1
 11 13  1  0
 11 12  1  0
 12  5  1  0
 13 14  2  0
 15 13  1  0
 15 16  1  0
 16 17  1  6
 17 18  1  0
 18 22  1  0
 19 18  2  0
 19 20  1  0
 20 21  1  0
 22 21  2  0
 23 16  1  0
 24 23  1  0
 25 23  2  0
M  END
$$$$
