CLH.pdb
     RDKit          3D

 25 25  0  0  1  0  0  0  0  0999 V2000
    5.6313  -18.5833   21.9707 N   0  0  0  0  0  0  0  0  0  0  0  0
    5.9736  -18.4435   23.3482 C   0  0  1  0  0  0  0  0  0  0  0  0
    6.7650  -19.6478   23.7958 C   0  0  0  0  0  0  0  0  0  0  0  0
    5.7206  -20.6339   24.8964 S   0  0  0  0  0  0  0  0  0  0  0  0
    6.7573  -17.2283   23.6471 C   0  0  0  0  0  0  0  0  0  0  0  0
    7.6411  -16.8929   22.8131 O   0  0  0  0  0  0  0  0  0  0  0  0
    5.9939  -12.0530   26.7966 C   0  0  0  0  0  0  0  0  0  0  0  0
    7.0299  -12.9249   26.0913 C   0  0  1  0  0  0  0  0  0  0  0  0
    8.1847  -13.0762   27.0608 C   0  0  0  0  0  0  0  0  0  0  0  0
    6.4582  -14.2619   25.7539 C   0  0  0  0  0  0  0  0  0  0  0  0
    7.3308  -15.1762   24.9997 C   0  0  2  0  0  0  0  0  0  0  0  0
    6.5922  -16.4227   24.7853 N   0  0  0  0  0  0  0  0  0  0  0  0
    8.6482  -15.4418   25.5625 C   0  0  0  0  0  0  0  0  0  0  0  0
    9.4206  -14.5042   25.8413 O   0  0  0  0  0  0  0  0  0  0  0  0
    9.0780  -16.7570   25.8037 N   0  0  0  0  0  0  0  0  0  0  0  0
   10.4468  -17.1500   26.1610 C   0  0  1  0  0  0  0  0  0  0  0  0
   11.4522  -16.2019   25.5990 C   0  0  0  0  0  0  0  0  0  0  0  0
   11.6426  -16.4469   24.1582 C   0  0  0  0  0  0  0  0  0  0  0  0
   11.0033  -17.2499   23.2581 C   0  0  0  0  0  0  0  0  0  0  0  0
   11.5280  -17.0601   22.0292 N   0  0  0  0  0  0  0  0  0  0  0  0
   12.4956  -16.1433   22.1310 C   0  0  0  0  0  0  0  0  0  0  0  0
   12.5682  -15.7735   23.4006 N   0  0  0  0  0  0  0  0  0  0  0  0
   10.4756  -16.9495   27.6623 C   0  0  0  0  0  0  0  0  0  0  0  0
   10.0180  -15.8457   28.3174 O   0  0  0  0  0  0  0  0  0  0  0  0
   10.9713  -17.9073   28.3456 O   0  0  0  0  0  0  0  0  0  0  0  0
  2  1  1  6
  3  2  1  0
  3  4  1  0
  5  6  2  0
  5  2  1  0
  8  7  1  1
  8 10  1  0
  9  8  1  0
 11 10  1  1
 11 13  1  0
 11 12  1  0
 12  5  1  0
 13 14  2  0
 15 13  1  0
 15 16  1  0
 16 17  1  6
 17 18  1  0
 18 22  1  0
 19 18  2  0
 19 20  1  0
 20 21  1  0
 22 21  2  0
 23 16  1  0
 24 23  1  0
 25 23  2  0
M  END
$$$$
