CLH.pdb
     RDKit          3D

 25 25  0  0  1  0  0  0  0  0999 V2000
    9.0648  -15.1599   20.4501 N   0  0  0  0  0  0  0  0  0  0  0  0
    8.0255  -15.3895   21.3995 C   0  0  1  0  0  0  0  0  0  0  0  0
    7.4384  -16.7624   21.1822 C   0  0  0  0  0  0  0  0  0  0  0  0
    8.8017  -17.9379   20.9972 S   0  0  0  0  0  0  0  0  0  0  0  0
    8.4680  -15.2843   22.8043 C   0  0  0  0  0  0  0  0  0  0  0  0
    9.7048  -15.3815   23.0278 O   0  0  0  0  0  0  0  0  0  0  0  0
    5.6898  -12.2585   26.5138 C   0  0  0  0  0  0  0  0  0  0  0  0
    6.8626  -12.8348   25.7242 C   0  0  1  0  0  0  0  0  0  0  0  0
    8.0764  -12.0144   26.1118 C   0  0  0  0  0  0  0  0  0  0  0  0
    7.0783  -14.2718   26.0658 C   0  0  0  0  0  0  0  0  0  0  0  0
    8.1008  -14.9849   25.2833 C   0  0  2  0  0  0  0  0  0  0  0  0
    7.6180  -15.0850   23.9041 N   0  0  0  0  0  0  0  0  0  0  0  0
    8.5219  -16.2870   25.7833 C   0  0  0  0  0  0  0  0  0  0  0  0
    7.6959  -17.2089   25.9290 O   0  0  0  0  0  0  0  0  0  0  0  0
    9.8649  -16.5337   26.1122 N   0  0  0  0  0  0  0  0  0  0  0  0
   10.3833  -17.7851   26.6789 C   0  0  1  0  0  0  0  0  0  0  0  0
   11.8181  -17.9919   26.3264 C   0  0  0  0  0  0  0  0  0  0  0  0
   11.9487  -18.3999   24.9162 C   0  0  0  0  0  0  0  0  0  0  0  0
   11.0367  -18.6655   23.9358 C   0  0  0  0  0  0  0  0  0  0  0  0
   11.6797  -18.9407   22.7816 N   0  0  0  0  0  0  0  0  0  0  0  0
   12.9939  -18.8532   23.0106 C   0  0  0  0  0  0  0  0  0  0  0  0
   13.1602  -18.5301   24.2841 N   0  0  0  0  0  0  0  0  0  0  0  0
   10.3525  -17.5198   28.1701 C   0  0  0  0  0  0  0  0  0  0  0  0
   10.6495  -18.4323   29.1376 O   0  0  0  0  0  0  0  0  0  0  0  0
   10.0208  -16.3382   28.5218 O   0  0  0  0  0  0  0  0  0  0  0  0
  2  1  1  6
  3  2  1  0
  3  4  1  0
  5  6  2  0
  5  2  1  0
  8  7  1  1
  8 10  1  0
  9  8  1  0
 11 10  1  1
 11 13  1  0
 11 12  1  0
 12  5  1  0
 13 14  2  0
 15 13  1  0
 15 16  1  0
 16 17  1  6
 17 18  1  0
 18 22  1  0
 19 18  2  0
 19 20  1  0
 20 21  1  0
 22 21  2  0
 23 16  1  0
 24 23  1  0
 25 23  2  0
M  END
$$$$
