CLH.pdb
     RDKit          3D

 25 25  0  0  1  0  0  0  0  0999 V2000
    8.1208  -18.3995   27.9084 N   0  0  0  0  0  0  0  0  0  0  0  0
    8.8140  -17.4035   27.1588 C   0  0  1  0  0  0  0  0  0  0  0  0
    9.9477  -18.0441   26.3966 C   0  0  0  0  0  0  0  0  0  0  0  0
   11.0499  -16.7326   25.8139 S   0  0  0  0  0  0  0  0  0  0  0  0
    7.9576  -16.6738   26.2026 C   0  0  0  0  0  0  0  0  0  0  0  0
    7.0258  -17.3212   25.6531 O   0  0  0  0  0  0  0  0  0  0  0  0
    7.5678  -11.4294   26.9044 C   0  0  0  0  0  0  0  0  0  0  0  0
    7.1672  -12.8831   26.6657 C   0  0  1  0  0  0  0  0  0  0  0  0
    5.7510  -13.0219   27.1869 C   0  0  0  0  0  0  0  0  0  0  0  0
    7.2189  -13.2168   25.2117 C   0  0  0  0  0  0  0  0  0  0  0  0
    7.2614  -14.6474   24.8688 C   0  0  2  0  0  0  0  0  0  0  0  0
    8.1030  -15.3195   25.8615 N   0  0  0  0  0  0  0  0  0  0  0  0
    7.6803  -14.9872   23.5154 C   0  0  0  0  0  0  0  0  0  0  0  0
    6.8989  -14.8468   22.5546 O   0  0  0  0  0  0  0  0  0  0  0  0
    8.9710  -15.4796   23.2617 N   0  0  0  0  0  0  0  0  0  0  0  0
    9.4785  -15.8915   21.9470 C   0  0  1  0  0  0  0  0  0  0  0  0
   10.0032  -14.7281   21.1745 C   0  0  0  0  0  0  0  0  0  0  0  0
    8.9115  -14.0599   20.4438 C   0  0  0  0  0  0  0  0  0  0  0  0
    8.7645  -12.8006   19.9376 C   0  0  0  0  0  0  0  0  0  0  0  0
    7.5835  -12.7074   19.2911 N   0  0  0  0  0  0  0  0  0  0  0  0
    6.9721  -13.8932   19.3759 C   0  0  0  0  0  0  0  0  0  0  0  0
    7.7612  -14.7049   20.0632 N   0  0  0  0  0  0  0  0  0  0  0  0
   10.6842  -16.7381   22.2995 C   0  0  0  0  0  0  0  0  0  0  0  0
   11.4873  -17.3757   21.4020 O   0  0  0  0  0  0  0  0  0  0  0  0
   10.9488  -16.8449   23.5439 O   0  0  0  0  0  0  0  0  0  0  0  0
  2  1  1  6
  3  2  1  0
  3  4  1  0
  5  6  2  0
  5  2  1  0
  8  7  1  6
  8 10  1  0
  9  8  1  0
 11 10  1  6
 11 13  1  0
 11 12  1  0
 12  5  1  0
 13 14  2  0
 15 13  1  0
 15 16  1  0
 16 17  1  6
 17 18  1  0
 18 22  1  0
 19 18  2  0
 19 20  1  0
 20 21  1  0
 22 21  2  0
 23 16  1  0
 24 23  1  0
 25 23  2  0
M  END
$$$$
