CLH.pdb
     RDKit          3D

 25 25  0  0  1  0  0  0  0  0999 V2000
    8.3625  -14.8864   20.0170 N   0  0  0  0  0  0  0  0  0  0  0  0
    7.3946  -14.9576   21.0622 C   0  0  1  0  0  0  0  0  0  0  0  0
    6.6279  -16.2525   20.9520 C   0  0  0  0  0  0  0  0  0  0  0  0
    7.7663  -17.6154   21.2998 S   0  0  0  0  0  0  0  0  0  0  0  0
    7.9736  -14.8679   22.4176 C   0  0  0  0  0  0  0  0  0  0  0  0
    9.2193  -15.0287   22.5240 O   0  0  0  0  0  0  0  0  0  0  0  0
    5.6136  -11.8093   26.4255 C   0  0  0  0  0  0  0  0  0  0  0  0
    6.6783  -12.3893   25.4976 C   0  0  1  0  0  0  0  0  0  0  0  0
    7.9358  -11.5788   25.7391 C   0  0  0  0  0  0  0  0  0  0  0  0
    6.9234  -13.8294   25.8046 C   0  0  0  0  0  0  0  0  0  0  0  0
    7.8595  -14.5383   24.9173 C   0  0  2  0  0  0  0  0  0  0  0  0
    7.2435  -14.6180   23.5907 N   0  0  0  0  0  0  0  0  0  0  0  0
    8.3183  -15.8491   25.3578 C   0  0  0  0  0  0  0  0  0  0  0  0
    7.5350  -16.8179   25.3917 O   0  0  0  0  0  0  0  0  0  0  0  0
    9.6506  -16.0518   25.7537 N   0  0  0  0  0  0  0  0  0  0  0  0
   10.2663  -17.3572   26.0228 C   0  0  1  0  0  0  0  0  0  0  0  0
   11.7073  -17.3720   25.6369 C   0  0  0  0  0  0  0  0  0  0  0  0
   12.3253  -18.6596   26.0010 C   0  0  0  0  0  0  0  0  0  0  0  0
   11.8306  -19.8068   26.5513 C   0  0  0  0  0  0  0  0  0  0  0  0
   12.8100  -20.7324   26.6256 N   0  0  0  0  0  0  0  0  0  0  0  0
   13.9268  -20.1919   26.1278 C   0  0  0  0  0  0  0  0  0  0  0  0
   13.6428  -18.9539   25.7529 N   0  0  0  0  0  0  0  0  0  0  0  0
   10.2369  -17.4401   27.5351 C   0  0  0  0  0  0  0  0  0  0  0  0
   10.0585  -16.3839   28.3774 O   0  0  0  0  0  0  0  0  0  0  0  0
   10.3918  -18.6046   28.0350 O   0  0  0  0  0  0  0  0  0  0  0  0
  2  1  1  6
  3  2  1  0
  3  4  1  0
  5  6  2  0
  5  2  1  0
  8  7  1  1
  8 10  1  0
  9  8  1  0
 11 10  1  1
 11 13  1  0
 11 12  1  0
 12  5  1  0
 13 14  2  0
 15 13  1  0
 15 16  1  0
 16 17  1  1
 17 18  1  0
 18 22  1  0
 19 18  2  0
 19 20  1  0
 20 21  1  0
 22 21  2  0
 23 16  1  0
 24 23  1  0
 25 23  2  0
M  END
$$$$
