CLH.pdb
     RDKit          3D

 25 25  0  0  1  0  0  0  0  0999 V2000
    8.6722  -16.7825   19.8263 N   0  0  0  0  0  0  0  0  0  0  0  0
    8.0935  -16.9200   21.1227 C   0  0  1  0  0  0  0  0  0  0  0  0
    8.4532  -18.2691   21.6948 C   0  0  0  0  0  0  0  0  0  0  0  0
    8.0174  -19.5345   20.4770 S   0  0  0  0  0  0  0  0  0  0  0  0
    8.5165  -15.8763   22.0777 C   0  0  0  0  0  0  0  0  0  0  0  0
    9.6507  -15.3563   21.8982 O   0  0  0  0  0  0  0  0  0  0  0  0
    6.2380  -12.6553   26.7914 C   0  0  0  0  0  0  0  0  0  0  0  0
    7.1405  -12.5931   25.5616 C   0  0  1  0  0  0  0  0  0  0  0  0
    8.5614  -12.5235   26.0836 C   0  0  0  0  0  0  0  0  0  0  0  0
    6.9608  -13.8050   24.7087 C   0  0  0  0  0  0  0  0  0  0  0  0
    8.1621  -14.3070   24.0223 C   0  0  2  0  0  0  0  0  0  0  0  0
    7.7531  -15.4222   23.1653 N   0  0  0  0  0  0  0  0  0  0  0  0
    9.2909  -14.6832   24.8630 C   0  0  0  0  0  0  0  0  0  0  0  0
    9.9227  -13.8195   25.5020 O   0  0  0  0  0  0  0  0  0  0  0  0
    9.6931  -16.0245   24.9733 N   0  0  0  0  0  0  0  0  0  0  0  0
   10.7925  -16.5139   25.8144 C   0  0  1  0  0  0  0  0  0  0  0  0
   10.3007  -16.9670   27.1480 C   0  0  0  0  0  0  0  0  0  0  0  0
   10.4926  -15.9082   28.1551 C   0  0  0  0  0  0  0  0  0  0  0  0
   10.4717  -14.5448   28.0879 C   0  0  0  0  0  0  0  0  0  0  0  0
   10.6445  -14.0278   29.3225 N   0  0  0  0  0  0  0  0  0  0  0  0
   10.7745  -15.0444   30.1809 C   0  0  0  0  0  0  0  0  0  0  0  0
   10.6842  -16.1699   29.4889 N   0  0  0  0  0  0  0  0  0  0  0  0
   11.2440  -17.7641   25.0878 C   0  0  0  0  0  0  0  0  0  0  0  0
   12.4342  -18.3993   25.2804 O   0  0  0  0  0  0  0  0  0  0  0  0
   10.4245  -18.2420   24.2335 O   0  0  0  0  0  0  0  0  0  0  0  0
  2  1  1  6
  3  2  1  0
  3  4  1  0
  5  6  2  0
  5  2  1  0
  8  7  1  1
  8 10  1  0
  9  8  1  0
 11 10  1  1
 11 13  1  0
 11 12  1  0
 12  5  1  0
 13 14  2  0
 15 13  1  0
 15 16  1  0
 16 17  1  1
 17 18  1  0
 18 22  1  0
 19 18  2  0
 19 20  1  0
 20 21  1  0
 22 21  2  0
 23 16  1  0
 24 23  1  0
 25 23  2  0
M  END
$$$$
