CLH.pdb
     RDKit          3D

 25 25  0  0  1  0  0  0  0  0999 V2000
    7.9854  -13.4822   19.8798 N   0  0  0  0  0  0  0  0  0  0  0  0
    7.2168  -14.2457   20.8075 C   0  0  1  0  0  0  0  0  0  0  0  0
    6.9945  -15.6328   20.2569 C   0  0  0  0  0  0  0  0  0  0  0  0
    5.9433  -16.5403   21.4171 S   0  0  0  0  0  0  0  0  0  0  0  0
    7.8384  -14.3634   22.1417 C   0  0  0  0  0  0  0  0  0  0  0  0
    9.0745  -14.6075   22.1821 O   0  0  0  0  0  0  0  0  0  0  0  0
    5.6499  -11.7803   26.5696 C   0  0  0  0  0  0  0  0  0  0  0  0
    6.6556  -12.2521   25.5222 C   0  0  1  0  0  0  0  0  0  0  0  0
    7.9216  -11.4548   25.7632 C   0  0  0  0  0  0  0  0  0  0  0  0
    6.9279  -13.7126   25.6668 C   0  0  0  0  0  0  0  0  0  0  0  0
    7.8223  -14.3147   24.6650 C   0  0  2  0  0  0  0  0  0  0  0  0
    7.1586  -14.2243   23.3624 N   0  0  0  0  0  0  0  0  0  0  0  0
    8.2789  -15.6739   24.9234 C   0  0  0  0  0  0  0  0  0  0  0  0
    7.4987  -16.6389   24.8072 O   0  0  0  0  0  0  0  0  0  0  0  0
    9.6054  -15.9285   25.3087 N   0  0  0  0  0  0  0  0  0  0  0  0
   10.2415  -17.2515   25.3365 C   0  0  1  0  0  0  0  0  0  0  0  0
   11.5871  -17.2248   24.6929 C   0  0  0  0  0  0  0  0  0  0  0  0
   12.2376  -18.5427   24.8035 C   0  0  0  0  0  0  0  0  0  0  0  0
   12.1736  -19.5369   25.7368 C   0  0  0  0  0  0  0  0  0  0  0  0
   12.9240  -20.5843   25.3350 N   0  0  0  0  0  0  0  0  0  0  0  0
   13.4674  -20.2733   24.1539 C   0  0  0  0  0  0  0  0  0  0  0  0
   13.0605  -19.0549   23.8315 N   0  0  0  0  0  0  0  0  0  0  0  0
   10.4883  -17.4775   26.8139 C   0  0  0  0  0  0  0  0  0  0  0  0
   10.7953  -18.6757   27.3858 O   0  0  0  0  0  0  0  0  0  0  0  0
   10.3976  -16.4462   27.5609 O   0  0  0  0  0  0  0  0  0  0  0  0
  2  1  1  6
  3  2  1  0
  3  4  1  0
  5  6  2  0
  5  2  1  0
  8  7  1  1
  8 10  1  0
  9  8  1  0
 11 10  1  1
 11 13  1  0
 11 12  1  0
 12  5  1  0
 13 14  2  0
 15 13  1  0
 15 16  1  0
 16 17  1  6
 17 18  1  0
 18 22  1  0
 19 18  2  0
 19 20  1  0
 20 21  1  0
 22 21  2  0
 23 16  1  0
 24 23  1  0
 25 23  2  0
M  END
$$$$
