WYE.pdb
     RDKit          3D

 36 38  0  0  1  0  0  0  0  0999 V2000
    6.4060  -18.4153   27.0783 N   0  0  0  0  0  0  0  0  0  0  0  0
    7.5298  -17.6553   26.6549 C   0  0  1  0  0  0  0  0  0  0  0  0
    8.8717  -18.2921   26.9229 C   0  0  0  0  0  0  0  0  0  0  0  0
    9.6991  -17.5690   27.8962 C   0  0  0  0  0  0  0  0  0  0  0  0
    9.9156  -18.0105   29.2004 C   0  0  0  0  0  0  0  0  0  0  0  0
   10.7202  -17.1277   29.7699 N   0  0  0  0  0  0  0  0  0  0  0  0
   11.0423  -16.1329   28.9119 C   0  0  0  0  0  0  0  0  0  0  0  0
   11.8231  -14.9981   29.0118 C   0  0  0  0  0  0  0  0  0  0  0  0
   11.9387  -14.1617   27.9130 C   0  0  0  0  0  0  0  0  0  0  0  0
   11.3092  -14.4117   26.7251 C   0  0  0  0  0  0  0  0  0  0  0  0
   10.5252  -15.5543   26.6293 C   0  0  0  0  0  0  0  0  0  0  0  0
   10.3900  -16.4127   27.7126 C   0  0  0  0  0  0  0  0  0  0  0  0
    7.4984  -17.3174   25.1943 C   0  0  0  0  0  0  0  0  0  0  0  0
    7.0956  -18.2059   24.4013 O   0  0  0  0  0  0  0  0  0  0  0  0
    5.0953  -11.6870   27.1214 O   0  0  0  0  0  0  0  0  0  0  0  0
    5.7240  -12.3762   26.0879 C   0  0  0  0  0  0  0  0  0  0  0  0
    5.3467  -13.6449   25.7477 C   0  0  0  0  0  0  0  0  0  0  0  0
    6.0029  -14.3067   24.7018 C   0  0  0  0  0  0  0  0  0  0  0  0
    7.0232  -13.7067   24.0059 C   0  0  0  0  0  0  0  0  0  0  0  0
    7.6911  -14.3972   22.9186 C   0  0  0  0  0  0  0  0  0  0  0  0
    8.0531  -15.8345   23.2368 C   0  0  2  0  0  0  0  0  0  0  0  0
    7.8959  -16.0674   24.6859 N   0  0  0  0  0  0  0  0  0  0  0  0
    9.3973  -16.2295   22.7943 C   0  0  0  0  0  0  0  0  0  0  0  0
   10.3477  -16.2139   23.6281 O   0  0  0  0  0  0  0  0  0  0  0  0
    7.3818  -12.4319   24.3691 C   0  0  0  0  0  0  0  0  0  0  0  0
    6.7399  -11.7573   25.4072 C   0  0  0  0  0  0  0  0  0  0  0  0
    9.6947  -16.6330   21.4760 N   0  0  0  0  0  0  0  0  0  0  0  0
   11.0201  -17.1800   21.1146 C   0  0  1  0  0  0  0  0  0  0  0  0
   10.8298  -17.7819   19.7738 C   0  0  0  0  0  0  0  0  0  0  0  0
   11.2600  -19.1581   19.5012 C   0  0  0  0  0  0  0  0  0  0  0  0
   11.0102  -19.7358   18.1925 C   0  0  0  0  0  0  0  0  0  0  0  0
   11.9379  -20.0754   17.4329 O   0  0  0  0  0  0  0  0  0  0  0  0
   11.9996  -16.1279   21.2547 C   0  0  0  0  0  0  0  0  0  0  0  0
   11.6164  -14.7864   21.1836 O   0  0  0  0  0  0  0  0  0  0  0  0
    9.6845  -19.9100   17.7868 O   0  0  0  0  0  0  0  0  0  0  0  0
   13.2306  -16.3270   21.4439 O   0  0  0  0  0  0  0  0  0  0  0  0
  2  3  1  0
  2  1  1  6
  4  3  1  0
  5  4  2  0
  6  5  1  0
  7 12  2  0
  7  6  1  0
  8  7  1  0
  9  8  2  0
  9 10  1  0
 10 11  2  0
 11 12  1  0
 12  4  1  0
 13  2  1  0
 14 13  2  0
 15 16  1  0
 16 17  2  0
 16 26  1  0
 17 18  1  0
 18 19  2  0
 19 20  1  0
 21 20  1  1
 21 22  1  0
 22 13  1  0
 23 21  1  0
 23 27  1  0
 24 23  2  0
 25 19  1  0
 26 25  2  0
 28 27  1  0
 28 33  1  0
 28 29  1  6
 29 30  1  0
 31 30  1  0
 32 31  2  0
 33 34  1  0
 35 31  1  0
 36 33  2  0
M  END
$$$$
