WYE.pdb
     RDKit          3D

 36 38  0  0  1  0  0  0  0  0999 V2000
    6.8395  -18.1451   26.1036 N   0  0  0  0  0  0  0  0  0  0  0  0
    7.6482  -17.0768   25.6298 C   0  0  1  0  0  0  0  0  0  0  0  0
    9.1313  -17.2489   25.8515 C   0  0  0  0  0  0  0  0  0  0  0  0
    9.5909  -16.8569   27.1893 C   0  0  0  0  0  0  0  0  0  0  0  0
    9.8960  -17.7710   28.1964 C   0  0  0  0  0  0  0  0  0  0  0  0
   10.2939  -17.0636   29.2415 N   0  0  0  0  0  0  0  0  0  0  0  0
   10.2660  -15.7377   28.9753 C   0  0  0  0  0  0  0  0  0  0  0  0
   10.5701  -14.6076   29.7086 C   0  0  0  0  0  0  0  0  0  0  0  0
   10.4194  -13.3623   29.1198 C   0  0  0  0  0  0  0  0  0  0  0  0
    9.9794  -13.2013   27.8351 C   0  0  0  0  0  0  0  0  0  0  0  0
    9.6750  -14.3407   27.1013 C   0  0  0  0  0  0  0  0  0  0  0  0
    9.8163  -15.6029   27.6631 C   0  0  0  0  0  0  0  0  0  0  0  0
    7.4616  -16.7973   24.1685 C   0  0  0  0  0  0  0  0  0  0  0  0
    7.0956  -17.7520   23.4368 O   0  0  0  0  0  0  0  0  0  0  0  0
    8.6489  -12.7681   16.3450 O   0  0  0  0  0  0  0  0  0  0  0  0
    8.4335  -13.0509   17.6911 C   0  0  0  0  0  0  0  0  0  0  0  0
    7.3417  -13.7635   18.1011 C   0  0  0  0  0  0  0  0  0  0  0  0
    7.1585  -14.0286   19.4644 C   0  0  0  0  0  0  0  0  0  0  0  0
    8.0560  -13.5862   20.4048 C   0  0  0  0  0  0  0  0  0  0  0  0
    7.8619  -13.8730   21.8137 C   0  0  0  0  0  0  0  0  0  0  0  0
    7.8041  -15.3535   22.1347 C   0  0  2  0  0  0  0  0  0  0  0  0
    7.6770  -15.5312   23.5944 N   0  0  0  0  0  0  0  0  0  0  0  0
    8.9419  -16.1268   21.6187 C   0  0  0  0  0  0  0  0  0  0  0  0
    8.7266  -17.0577   20.7906 O   0  0  0  0  0  0  0  0  0  0  0  0
    9.1434  -12.8724   19.9648 C   0  0  0  0  0  0  0  0  0  0  0  0
    9.3426  -12.5992   18.6119 C   0  0  0  0  0  0  0  0  0  0  0  0
   10.2797  -15.8878   21.9960 N   0  0  0  0  0  0  0  0  0  0  0  0
   11.4067  -16.5709   21.3253 C   0  0  1  0  0  0  0  0  0  0  0  0
   11.7845  -15.6732   20.2083 C   0  0  0  0  0  0  0  0  0  0  0  0
   12.5944  -14.4738   20.4508 C   0  0  0  0  0  0  0  0  0  0  0  0
   13.4803  -13.9903   19.4066 C   0  0  0  0  0  0  0  0  0  0  0  0
   13.6680  -14.6280   18.3526 O   0  0  0  0  0  0  0  0  0  0  0  0
   12.4084  -16.8780   22.3194 C   0  0  0  0  0  0  0  0  0  0  0  0
   13.5488  -17.6084   21.9767 O   0  0  0  0  0  0  0  0  0  0  0  0
   14.1349  -12.7717   19.6043 O   0  0  0  0  0  0  0  0  0  0  0  0
   12.3372  -16.5266   23.5286 O   0  0  0  0  0  0  0  0  0  0  0  0
  2  3  1  0
  2  1  1  6
  4  3  1  0
  5  4  2  0
  6  5  1  0
  7 12  2  0
  7  6  1  0
  8  7  1  0
  9  8  2  0
  9 10  1  0
 10 11  2  0
 11 12  1  0
 12  4  1  0
 13  2  1  0
 14 13  2  0
 15 16  1  0
 16 17  2  0
 16 26  1  0
 17 18  1  0
 18 19  2  0
 19 20  1  0
 21 20  1  1
 21 22  1  0
 22 13  1  0
 23 21  1  0
 23 27  1  0
 24 23  2  0
 25 19  1  0
 26 25  2  0
 28 27  1  0
 28 33  1  0
 28 29  1  6
 29 30  1  0
 31 30  1  0
 32 31  2  0
 33 34  1  0
 35 31  1  0
 36 33  2  0
M  END
$$$$
