WYE.pdb
     RDKit          3D

 36 38  0  0  1  0  0  0  0  0999 V2000
    5.7701  -17.1804   23.6391 N   0  0  0  0  0  0  0  0  0  0  0  0
    6.8344  -16.2388   23.6613 C   0  0  1  0  0  0  0  0  0  0  0  0
    7.4238  -15.9701   25.0246 C   0  0  0  0  0  0  0  0  0  0  0  0
    6.7186  -14.9379   25.7940 C   0  0  0  0  0  0  0  0  0  0  0  0
    5.4587  -15.1264   26.3597 C   0  0  0  0  0  0  0  0  0  0  0  0
    5.1552  -14.0030   26.9898 N   0  0  0  0  0  0  0  0  0  0  0  0
    6.1454  -13.0897   26.8680 C   0  0  0  0  0  0  0  0  0  0  0  0
    6.3152  -11.7959   27.3206 C   0  0  0  0  0  0  0  0  0  0  0  0
    7.4813  -11.1187   27.0012 C   0  0  0  0  0  0  0  0  0  0  0  0
    8.4789  -11.6786   26.2521 C   0  0  0  0  0  0  0  0  0  0  0  0
    8.3037  -12.9800   25.7993 C   0  0  0  0  0  0  0  0  0  0  0  0
    7.1466  -13.6853   26.1031 C   0  0  0  0  0  0  0  0  0  0  0  0
    7.9764  -16.6164   22.7660 C   0  0  0  0  0  0  0  0  0  0  0  0
    7.7840  -17.5439   21.9393 O   0  0  0  0  0  0  0  0  0  0  0  0
    6.8322  -13.3209   17.2775 O   0  0  0  0  0  0  0  0  0  0  0  0
    7.7737  -13.7495   18.2093 C   0  0  0  0  0  0  0  0  0  0  0  0
    8.4147  -14.9486   18.0713 C   0  0  0  0  0  0  0  0  0  0  0  0
    9.3561  -15.3462   19.0295 C   0  0  0  0  0  0  0  0  0  0  0  0
    9.6518  -14.5542   20.1115 C   0  0  0  0  0  0  0  0  0  0  0  0
   10.6346  -14.9710   21.0941 C   0  0  0  0  0  0  0  0  0  0  0  0
   10.2774  -16.2592   21.8088 C   0  0  2  0  0  0  0  0  0  0  0  0
    9.2326  -15.9851   22.8148 N   0  0  0  0  0  0  0  0  0  0  0  0
   11.4217  -16.9423   22.4275 C   0  0  0  0  0  0  0  0  0  0  0  0
   11.2357  -18.0514   23.0055 O   0  0  0  0  0  0  0  0  0  0  0  0
    8.9927  -13.3550   20.2253 C   0  0  0  0  0  0  0  0  0  0  0  0
    8.0528  -12.9424   19.2814 C   0  0  0  0  0  0  0  0  0  0  0  0
   12.7350  -16.4281   22.4132 N   0  0  0  0  0  0  0  0  0  0  0  0
   13.9043  -17.2838   22.7078 C   0  0  1  0  0  0  0  0  0  0  0  0
   13.7859  -18.4250   21.7697 C   0  0  0  0  0  0  0  0  0  0  0  0
   14.8078  -19.4775   21.7358 C   0  0  0  0  0  0  0  0  0  0  0  0
   15.3137  -19.9372   20.4545 C   0  0  0  0  0  0  0  0  0  0  0  0
   15.5149  -21.1442   20.2189 O   0  0  0  0  0  0  0  0  0  0  0  0
   15.0938  -16.4675   22.6387 C   0  0  0  0  0  0  0  0  0  0  0  0
   15.1072  -15.2944   21.8803 O   0  0  0  0  0  0  0  0  0  0  0  0
   15.5779  -18.9855   19.4660 O   0  0  0  0  0  0  0  0  0  0  0  0
   16.1733  -16.7373   23.2324 O   0  0  0  0  0  0  0  0  0  0  0  0
  2  3  1  0
  2  1  1  1
  4  3  1  0
  5  4  2  0
  6  5  1  0
  7 12  2  0
  7  6  1  0
  8  7  1  0
  9  8  2  0
  9 10  1  0
 10 11  2  0
 11 12  1  0
 12  4  1  0
 13  2  1  0
 14 13  2  0
 15 16  1  0
 16 17  2  0
 16 26  1  0
 17 18  1  0
 18 19  2  0
 19 20  1  0
 21 20  1  1
 21 22  1  0
 22 13  1  0
 23 21  1  0
 23 27  1  0
 24 23  2  0
 25 19  1  0
 26 25  2  0
 28 27  1  0
 28 33  1  0
 28 29  1  6
 29 30  1  0
 31 30  1  0
 32 31  2  0
 33 34  1  0
 35 31  1  0
 36 33  2  0
M  END
$$$$
