WYE.pdb
     RDKit          3D

 36 38  0  0  1  0  0  0  0  0999 V2000
    6.7200  -18.1276   25.5740 N   0  0  0  0  0  0  0  0  0  0  0  0
    7.1759  -16.8359   25.1952 C   0  0  1  0  0  0  0  0  0  0  0  0
    8.4228  -16.3636   25.9025 C   0  0  0  0  0  0  0  0  0  0  0  0
    8.1848  -15.3364   26.9238 C   0  0  0  0  0  0  0  0  0  0  0  0
    8.2957  -15.5727   28.2930 C   0  0  0  0  0  0  0  0  0  0  0  0
    8.0357  -14.4245   28.8972 N   0  0  0  0  0  0  0  0  0  0  0  0
    7.7603  -13.4500   28.0005 C   0  0  0  0  0  0  0  0  0  0  0  0
    7.4289  -12.1137   28.1105 C   0  0  0  0  0  0  0  0  0  0  0  0
    7.1967  -11.3807   26.9577 C   0  0  0  0  0  0  0  0  0  0  0  0
    7.2816  -11.9255   25.7064 C   0  0  0  0  0  0  0  0  0  0  0  0
    7.6154  -13.2697   25.6007 C   0  0  0  0  0  0  0  0  0  0  0  0
    7.8548  -14.0310   26.7372 C   0  0  0  0  0  0  0  0  0  0  0  0
    7.4422  -16.7107   23.7249 C   0  0  0  0  0  0  0  0  0  0  0  0
    7.7913  -17.7489   23.1076 O   0  0  0  0  0  0  0  0  0  0  0  0
    8.1169  -13.4449   15.5207 O   0  0  0  0  0  0  0  0  0  0  0  0
    7.8616  -13.6243   16.8775 C   0  0  0  0  0  0  0  0  0  0  0  0
    7.1024  -14.6688   17.3253 C   0  0  0  0  0  0  0  0  0  0  0  0
    6.8671  -14.8168   18.6983 C   0  0  0  0  0  0  0  0  0  0  0  0
    7.3847  -13.9310   19.6110 C   0  0  0  0  0  0  0  0  0  0  0  0
    7.1424  -14.0975   21.0318 C   0  0  0  0  0  0  0  0  0  0  0  0
    7.7089  -15.3824   21.6029 C   0  0  2  0  0  0  0  0  0  0  0  0
    7.3197  -15.4984   23.0219 N   0  0  0  0  0  0  0  0  0  0  0  0
    9.1645  -15.5172   21.4553 C   0  0  0  0  0  0  0  0  0  0  0  0
    9.9233  -14.8595   22.2237 O   0  0  0  0  0  0  0  0  0  0  0  0
    8.1434  -12.8909   19.1333 C   0  0  0  0  0  0  0  0  0  0  0  0
    8.3886  -12.7277   17.7702 C   0  0  0  0  0  0  0  0  0  0  0  0
    9.7749  -16.3502   20.4947 N   0  0  0  0  0  0  0  0  0  0  0  0
   11.2446  -16.4064   20.3412 C   0  0  1  0  0  0  0  0  0  0  0  0
   11.5828  -17.8454   20.4475 C   0  0  0  0  0  0  0  0  0  0  0  0
   11.7106  -18.4911   21.7590 C   0  0  0  0  0  0  0  0  0  0  0  0
   12.0673  -19.8971   21.8282 C   0  0  0  0  0  0  0  0  0  0  0  0
   11.3236  -20.7897   21.3775 O   0  0  0  0  0  0  0  0  0  0  0  0
   11.6014  -15.7122   19.1260 C   0  0  0  0  0  0  0  0  0  0  0  0
   10.8885  -15.9344   17.9453 O   0  0  0  0  0  0  0  0  0  0  0  0
   13.2843  -20.2440   22.4209 O   0  0  0  0  0  0  0  0  0  0  0  0
   12.5478  -14.8834   19.0357 O   0  0  0  0  0  0  0  0  0  0  0  0
  2  3  1  0
  2  1  1  6
  4  3  1  0
  5  4  2  0
  6  5  1  0
  7 12  2  0
  7  6  1  0
  8  7  1  0
  9  8  2  0
  9 10  1  0
 10 11  2  0
 11 12  1  0
 12  4  1  0
 13  2  1  0
 14 13  2  0
 15 16  1  0
 16 17  2  0
 16 26  1  0
 17 18  1  0
 18 19  2  0
 19 20  1  0
 21 20  1  1
 21 22  1  0
 22 13  1  0
 23 21  1  0
 23 27  1  0
 24 23  2  0
 25 19  1  0
 26 25  2  0
 28 27  1  0
 28 33  1  0
 28 29  1  6
 29 30  1  0
 31 30  1  0
 32 31  2  0
 33 34  1  0
 35 31  1  0
 36 33  2  0
M  END
$$$$
