WYE.pdb
     RDKit          3D

 36 38  0  0  1  0  0  0  0  0999 V2000
    5.6496  -16.9139   23.6530 N   0  0  0  0  0  0  0  0  0  0  0  0
    6.9171  -16.4297   23.2301 C   0  0  1  0  0  0  0  0  0  0  0  0
    7.9044  -16.1640   24.3404 C   0  0  0  0  0  0  0  0  0  0  0  0
    7.3675  -15.3614   25.4460 C   0  0  0  0  0  0  0  0  0  0  0  0
    6.8152  -15.9140   26.6003 C   0  0  0  0  0  0  0  0  0  0  0  0
    6.4634  -14.8999   27.3741 N   0  0  0  0  0  0  0  0  0  0  0  0
    6.7539  -13.7145   26.7911 C   0  0  0  0  0  0  0  0  0  0  0  0
    6.5873  -12.3962   27.1676 C   0  0  0  0  0  0  0  0  0  0  0  0
    7.0000  -11.3926   26.3057 C   0  0  0  0  0  0  0  0  0  0  0  0
    7.5691  -11.6514   25.0896 C   0  0  0  0  0  0  0  0  0  0  0  0
    7.7350  -12.9787   24.7153 C   0  0  0  0  0  0  0  0  0  0  0  0
    7.3322  -14.0071   25.5573 C   0  0  0  0  0  0  0  0  0  0  0  0
    7.6019  -17.3394   22.2545 C   0  0  0  0  0  0  0  0  0  0  0  0
    6.8826  -18.1371   21.6010 O   0  0  0  0  0  0  0  0  0  0  0  0
    7.0729  -12.7021   17.1425 O   0  0  0  0  0  0  0  0  0  0  0  0
    7.5228  -13.2469   18.3421 C   0  0  0  0  0  0  0  0  0  0  0  0
    8.8516  -13.4772   18.5635 C   0  0  0  0  0  0  0  0  0  0  0  0
    9.2665  -14.0268   19.7834 C   0  0  0  0  0  0  0  0  0  0  0  0
    8.3634  -14.3418   20.7686 C   0  0  0  0  0  0  0  0  0  0  0  0
    8.8037  -14.9029   22.0321 C   0  0  0  0  0  0  0  0  0  0  0  0
    9.7492  -16.0785   21.8835 C   0  0  2  0  0  0  0  0  0  0  0  0
    8.9931  -17.3357   22.0461 N   0  0  0  0  0  0  0  0  0  0  0  0
   10.8987  -16.0466   22.7980 C   0  0  0  0  0  0  0  0  0  0  0  0
   11.6568  -15.0347   22.7965 O   0  0  0  0  0  0  0  0  0  0  0  0
    7.0348  -14.1002   20.5192 C   0  0  0  0  0  0  0  0  0  0  0  0
    6.6032  -13.5534   19.3111 C   0  0  0  0  0  0  0  0  0  0  0  0
   11.2104  -17.0920   23.6921 N   0  0  0  0  0  0  0  0  0  0  0  0
   12.3383  -16.9867   24.6426 C   0  0  1  0  0  0  0  0  0  0  0  0
   12.0321  -17.9726   25.7059 C   0  0  0  0  0  0  0  0  0  0  0  0
   10.7514  -17.9313   26.4210 C   0  0  0  0  0  0  0  0  0  0  0  0
   10.4846  -18.9105   27.4598 C   0  0  0  0  0  0  0  0  0  0  0  0
    9.3435  -19.3722   27.6543 O   0  0  0  0  0  0  0  0  0  0  0  0
   13.5702  -17.1427   23.9051 C   0  0  0  0  0  0  0  0  0  0  0  0
   14.8000  -16.8754   24.5115 O   0  0  0  0  0  0  0  0  0  0  0  0
   11.5495  -19.3382   28.2570 O   0  0  0  0  0  0  0  0  0  0  0  0
   13.6330  -17.5168   22.7023 O   0  0  0  0  0  0  0  0  0  0  0  0
  2  3  1  0
  2  1  1  1
  4  3  1  0
  5  4  2  0
  6  5  1  0
  7 12  2  0
  7  6  1  0
  8  7  1  0
  9  8  2  0
  9 10  1  0
 10 11  2  0
 11 12  1  0
 12  4  1  0
 13  2  1  0
 14 13  2  0
 15 16  1  0
 16 17  2  0
 16 26  1  0
 17 18  1  0
 18 19  2  0
 19 20  1  0
 21 20  1  1
 21 22  1  0
 22 13  1  0
 23 21  1  0
 23 27  1  0
 24 23  2  0
 25 19  1  0
 26 25  2  0
 28 27  1  0
 28 33  1  0
 28 29  1  1
 29 30  1  0
 31 30  1  0
 32 31  2  0
 33 34  1  0
 35 31  1  0
 36 33  2  0
M  END
$$$$
