WYE.pdb
     RDKit          3D

 36 38  0  0  1  0  0  0  0  0999 V2000
    8.7810  -16.7483   24.8241 N   0  0  0  0  0  0  0  0  0  0  0  0
    7.3606  -16.7923   24.8066 C   0  0  1  0  0  0  0  0  0  0  0  0
    6.6748  -15.5040   25.1913 C   0  0  0  0  0  0  0  0  0  0  0  0
    7.4576  -14.6496   26.0924 C   0  0  0  0  0  0  0  0  0  0  0  0
    8.5763  -15.0940   26.7952 C   0  0  0  0  0  0  0  0  0  0  0  0
    9.0312  -14.0557   27.4778 N   0  0  0  0  0  0  0  0  0  0  0  0
    8.2729  -12.9566   27.2617 C   0  0  0  0  0  0  0  0  0  0  0  0
    8.3173  -11.6567   27.7261 C   0  0  0  0  0  0  0  0  0  0  0  0
    7.3547  -10.7560   27.2989 C   0  0  0  0  0  0  0  0  0  0  0  0
    6.3550  -11.0998   26.4314 C   0  0  0  0  0  0  0  0  0  0  0  0
    6.3145  -12.4082   25.9669 C   0  0  0  0  0  0  0  0  0  0  0  0
    7.2653  -13.3341   26.3759 C   0  0  0  0  0  0  0  0  0  0  0  0
    6.7981  -17.1984   23.4773 C   0  0  0  0  0  0  0  0  0  0  0  0
    5.5720  -17.0011   23.2808 O   0  0  0  0  0  0  0  0  0  0  0  0
    8.0140  -12.4410   16.9655 O   0  0  0  0  0  0  0  0  0  0  0  0
    8.0075  -13.2165   18.1216 C   0  0  0  0  0  0  0  0  0  0  0  0
    8.2047  -14.5680   18.0714 C   0  0  0  0  0  0  0  0  0  0  0  0
    8.1913  -15.3154   19.2562 C   0  0  0  0  0  0  0  0  0  0  0  0
    7.9831  -14.7181   20.4749 C   0  0  0  0  0  0  0  0  0  0  0  0
    7.9793  -15.4995   21.6974 C   0  0  0  0  0  0  0  0  0  0  0  0
    8.3266  -16.9607   21.4909 C   0  0  2  0  0  0  0  0  0  0  0  0
    7.5748  -17.7820   22.4598 N   0  0  0  0  0  0  0  0  0  0  0  0
    9.7637  -17.2556   21.5711 C   0  0  0  0  0  0  0  0  0  0  0  0
   10.1463  -18.4603   21.5365 O   0  0  0  0  0  0  0  0  0  0  0  0
    7.7874  -13.3591   20.4959 C   0  0  0  0  0  0  0  0  0  0  0  0
    7.7977  -12.5987   19.3270 C   0  0  0  0  0  0  0  0  0  0  0  0
   10.7567  -16.2604   21.6839 N   0  0  0  0  0  0  0  0  0  0  0  0
   12.1899  -16.6067   21.7972 C   0  0  1  0  0  0  0  0  0  0  0  0
   12.9108  -15.3742   21.4002 C   0  0  0  0  0  0  0  0  0  0  0  0
   12.7834  -14.8353   20.0413 C   0  0  0  0  0  0  0  0  0  0  0  0
   13.9678  -14.7148   19.2096 C   0  0  0  0  0  0  0  0  0  0  0  0
   15.1100  -14.6152   19.6979 O   0  0  0  0  0  0  0  0  0  0  0  0
   12.4262  -17.1363   23.1199 C   0  0  0  0  0  0  0  0  0  0  0  0
   13.2919  -18.2164   23.3084 O   0  0  0  0  0  0  0  0  0  0  0  0
   13.8058  -14.7120   17.8216 O   0  0  0  0  0  0  0  0  0  0  0  0
   11.8911  -16.6855   24.1693 O   0  0  0  0  0  0  0  0  0  0  0  0
  2  3  1  0
  2  1  1  6
  4  3  1  0
  5  4  2  0
  6  5  1  0
  7 12  2  0
  7  6  1  0
  8  7  1  0
  9  8  2  0
  9 10  1  0
 10 11  2  0
 11 12  1  0
 12  4  1  0
 13  2  1  0
 14 13  2  0
 15 16  1  0
 16 17  2  0
 16 26  1  0
 17 18  1  0
 18 19  2  0
 19 20  1  0
 21 20  1  1
 21 22  1  0
 22 13  1  0
 23 21  1  0
 23 27  1  0
 24 23  2  0
 25 19  1  0
 26 25  2  0
 28 27  1  0
 28 33  1  0
 28 29  1  1
 29 30  1  0
 31 30  1  0
 32 31  2  0
 33 34  1  0
 35 31  1  0
 36 33  2  0
M  END
$$$$
