WYE.pdb
     RDKit          3D

 36 38  0  0  1  0  0  0  0  0999 V2000
    7.1998  -18.7308   26.0454 N   0  0  0  0  0  0  0  0  0  0  0  0
    7.7996  -17.4798   25.7370 C   0  0  1  0  0  0  0  0  0  0  0  0
    9.2462  -17.3448   26.1458 C   0  0  0  0  0  0  0  0  0  0  0  0
    9.4430  -16.9270   27.5392 C   0  0  0  0  0  0  0  0  0  0  0  0
    9.7042  -17.8170   28.5796 C   0  0  0  0  0  0  0  0  0  0  0  0
    9.8452  -17.0877   29.6747 N   0  0  0  0  0  0  0  0  0  0  0  0
    9.6906  -15.7704   29.4097 C   0  0  0  0  0  0  0  0  0  0  0  0
    9.7337  -14.6269   30.1831 C   0  0  0  0  0  0  0  0  0  0  0  0
    9.5180  -13.3979   29.5803 C   0  0  0  0  0  0  0  0  0  0  0  0
    9.2623  -13.2659   28.2434 C   0  0  0  0  0  0  0  0  0  0  0  0
    9.2201  -14.4186   27.4696 C   0  0  0  0  0  0  0  0  0  0  0  0
    9.4329  -15.6649   28.0442 C   0  0  0  0  0  0  0  0  0  0  0  0
    7.7306  -17.1346   24.2795 C   0  0  0  0  0  0  0  0  0  0  0  0
    7.3885  -18.0450   23.4827 O   0  0  0  0  0  0  0  0  0  0  0  0
    7.9880  -12.4683   16.7330 O   0  0  0  0  0  0  0  0  0  0  0  0
    7.9104  -12.8779   18.0613 C   0  0  0  0  0  0  0  0  0  0  0  0
    6.9417  -13.7455   18.4816 C   0  0  0  0  0  0  0  0  0  0  0  0
    6.8954  -14.1349   19.8264 C   0  0  0  0  0  0  0  0  0  0  0  0
    7.8065  -13.6622   20.7384 C   0  0  0  0  0  0  0  0  0  0  0  0
    7.7555  -14.0781   22.1275 C   0  0  0  0  0  0  0  0  0  0  0  0
    7.9931  -15.5613   22.3316 C   0  0  2  0  0  0  0  0  0  0  0  0
    8.0294  -15.8548   23.7777 N   0  0  0  0  0  0  0  0  0  0  0  0
    9.2012  -16.0745   21.6712 C   0  0  0  0  0  0  0  0  0  0  0  0
    9.1723  -16.3003   20.4275 O   0  0  0  0  0  0  0  0  0  0  0  0
    8.7686  -12.7917   20.2888 C   0  0  0  0  0  0  0  0  0  0  0  0
    8.8306  -12.3930   18.9539 C   0  0  0  0  0  0  0  0  0  0  0  0
   10.4095  -16.3322   22.3516 N   0  0  0  0  0  0  0  0  0  0  0  0
   11.6111  -16.8161   21.6384 C   0  0  1  0  0  0  0  0  0  0  0  0
   11.8825  -15.7851   20.6089 C   0  0  0  0  0  0  0  0  0  0  0  0
   13.1158  -15.8245   19.8147 C   0  0  0  0  0  0  0  0  0  0  0  0
   13.2589  -14.9324   18.6778 C   0  0  0  0  0  0  0  0  0  0  0  0
   14.3696  -14.6806   18.1720 O   0  0  0  0  0  0  0  0  0  0  0  0
   12.6397  -17.0893   22.6148 C   0  0  0  0  0  0  0  0  0  0  0  0
   12.4993  -16.6553   23.9352 O   0  0  0  0  0  0  0  0  0  0  0  0
   12.1072  -14.3463   18.1460 O   0  0  0  0  0  0  0  0  0  0  0  0
   13.7054  -17.7156   22.3642 O   0  0  0  0  0  0  0  0  0  0  0  0
  2  3  1  0
  2  1  1  6
  4  3  1  0
  5  4  2  0
  6  5  1  0
  7 12  2  0
  7  6  1  0
  8  7  1  0
  9  8  2  0
  9 10  1  0
 10 11  2  0
 11 12  1  0
 12  4  1  0
 13  2  1  0
 14 13  2  0
 15 16  1  0
 16 17  2  0
 16 26  1  0
 17 18  1  0
 18 19  2  0
 19 20  1  0
 21 20  1  1
 21 22  1  0
 22 13  1  0
 23 21  1  0
 23 27  1  0
 24 23  2  0
 25 19  1  0
 26 25  2  0
 28 27  1  0
 28 33  1  0
 28 29  1  6
 29 30  1  0
 31 30  1  0
 32 31  2  0
 33 34  1  0
 35 31  1  0
 36 33  2  0
M  END
$$$$
