WYE.pdb
     RDKit          3D

 36 38  0  0  1  0  0  0  0  0999 V2000
    6.1229  -17.5851   23.8671 N   0  0  0  0  0  0  0  0  0  0  0  0
    6.9330  -16.4174   23.8711 C   0  0  1  0  0  0  0  0  0  0  0  0
    7.3786  -15.9515   25.2358 C   0  0  0  0  0  0  0  0  0  0  0  0
    6.6000  -14.8296   25.7743 C   0  0  0  0  0  0  0  0  0  0  0  0
    5.2729  -14.9414   26.1852 C   0  0  0  0  0  0  0  0  0  0  0  0
    4.9126  -13.7480   26.6292 N   0  0  0  0  0  0  0  0  0  0  0  0
    5.9293  -12.8612   26.5316 C   0  0  0  0  0  0  0  0  0  0  0  0
    6.0652  -11.5227   26.8436 C   0  0  0  0  0  0  0  0  0  0  0  0
    7.2772  -10.8952   26.6036 C   0  0  0  0  0  0  0  0  0  0  0  0
    8.3529  -11.5473   26.0673 C   0  0  0  0  0  0  0  0  0  0  0  0
    8.2116  -12.8934   25.7552 C   0  0  0  0  0  0  0  0  0  0  0  0
    7.0099  -13.5506   25.9846 C   0  0  0  0  0  0  0  0  0  0  0  0
    8.1721  -16.5549   23.0380 C   0  0  0  0  0  0  0  0  0  0  0  0
    8.5959  -17.7174   22.8149 O   0  0  0  0  0  0  0  0  0  0  0  0
    6.6937  -13.5832   16.6460 O   0  0  0  0  0  0  0  0  0  0  0  0
    7.5827  -13.7540   17.7037 C   0  0  0  0  0  0  0  0  0  0  0  0
    7.5735  -12.9141   18.7818 C   0  0  0  0  0  0  0  0  0  0  0  0
    8.4836  -13.1175   19.8272 C   0  0  0  0  0  0  0  0  0  0  0  0
    9.3908  -14.1477   19.7939 C   0  0  0  0  0  0  0  0  0  0  0  0
   10.3237  -14.3553   20.8855 C   0  0  0  0  0  0  0  0  0  0  0  0
   10.0724  -15.6265   21.6722 C   0  0  2  0  0  0  0  0  0  0  0  0
    8.8672  -15.4534   22.5064 N   0  0  0  0  0  0  0  0  0  0  0  0
   11.2100  -16.0612   22.4943 C   0  0  0  0  0  0  0  0  0  0  0  0
   11.3613  -15.5624   23.6462 O   0  0  0  0  0  0  0  0  0  0  0  0
    9.3780  -14.9758   18.6986 C   0  0  0  0  0  0  0  0  0  0  0  0
    8.4794  -14.7891   17.6487 C   0  0  0  0  0  0  0  0  0  0  0  0
   12.1560  -17.0173   22.0697 N   0  0  0  0  0  0  0  0  0  0  0  0
   13.2877  -17.4216   22.9312 C   0  0  1  0  0  0  0  0  0  0  0  0
   13.1149  -18.8807   23.1252 C   0  0  0  0  0  0  0  0  0  0  0  0
   14.1159  -19.6637   23.8587 C   0  0  0  0  0  0  0  0  0  0  0  0
   13.9804  -21.1081   23.9255 C   0  0  0  0  0  0  0  0  0  0  0  0
   14.8903  -21.8743   23.5542 O   0  0  0  0  0  0  0  0  0  0  0  0
   14.5117  -16.9571   22.3213 C   0  0  0  0  0  0  0  0  0  0  0  0
   15.4630  -16.2652   23.0749 O   0  0  0  0  0  0  0  0  0  0  0  0
   12.7879  -21.6397   24.4235 O   0  0  0  0  0  0  0  0  0  0  0  0
   14.8085  -17.1306   21.1078 O   0  0  0  0  0  0  0  0  0  0  0  0
  2  3  1  0
  2  1  1  1
  4  3  1  0
  5  4  2  0
  6  5  1  0
  7 12  2  0
  7  6  1  0
  8  7  1  0
  9  8  2  0
  9 10  1  0
 10 11  2  0
 11 12  1  0
 12  4  1  0
 13  2  1  0
 14 13  2  0
 15 16  1  0
 16 17  2  0
 16 26  1  0
 17 18  1  0
 18 19  2  0
 19 20  1  0
 21 20  1  1
 21 22  1  0
 22 13  1  0
 23 21  1  0
 23 27  1  0
 24 23  2  0
 25 19  1  0
 26 25  2  0
 28 27  1  0
 28 33  1  0
 28 29  1  6
 29 30  1  0
 31 30  1  0
 32 31  2  0
 33 34  1  0
 35 31  1  0
 36 33  2  0
M  END
$$$$
