WYE.pdb
     RDKit          3D

 36 38  0  0  1  0  0  0  0  0999 V2000
   11.1405  -16.4198   21.7509 N   0  0  0  0  0  0  0  0  0  0  0  0
    9.9343  -16.0497   22.4049 C   0  0  1  0  0  0  0  0  0  0  0  0
    8.7082  -16.8142   21.9686 C   0  0  0  0  0  0  0  0  0  0  0  0
    7.7479  -16.0216   21.1912 C   0  0  0  0  0  0  0  0  0  0  0  0
    6.5387  -16.5272   20.7169 C   0  0  0  0  0  0  0  0  0  0  0  0
    5.9331  -15.5323   20.0888 N   0  0  0  0  0  0  0  0  0  0  0  0
    6.6781  -14.4040   20.1249 C   0  0  0  0  0  0  0  0  0  0  0  0
    6.5058  -13.1268   19.6283 C   0  0  0  0  0  0  0  0  0  0  0  0
    7.4963  -12.1818   19.8427 C   0  0  0  0  0  0  0  0  0  0  0  0
    8.6458  -12.4596   20.5293 C   0  0  0  0  0  0  0  0  0  0  0  0
    8.8147  -13.7454   21.0271 C   0  0  0  0  0  0  0  0  0  0  0  0
    7.8398  -14.7145   20.8294 C   0  0  0  0  0  0  0  0  0  0  0  0
   10.0093  -16.1730   23.8974 C   0  0  0  0  0  0  0  0  0  0  0  0
   11.1457  -16.3353   24.4102 O   0  0  0  0  0  0  0  0  0  0  0  0
    6.3720  -10.2584   26.0675 O   0  0  0  0  0  0  0  0  0  0  0  0
    6.7161  -11.5949   26.2512 C   0  0  0  0  0  0  0  0  0  0  0  0
    8.0130  -11.9720   26.4606 C   0  0  0  0  0  0  0  0  0  0  0  0
    8.3208  -13.3266   26.6413 C   0  0  0  0  0  0  0  0  0  0  0  0
    7.3437  -14.2909   26.6127 C   0  0  0  0  0  0  0  0  0  0  0  0
    7.6714  -15.6906   26.8093 C   0  0  0  0  0  0  0  0  0  0  0  0
    8.9989  -16.0996   26.2022 C   0  0  2  0  0  0  0  0  0  0  0  0
    8.8777  -16.1162   24.7313 N   0  0  0  0  0  0  0  0  0  0  0  0
    9.5144  -17.3857   26.6912 C   0  0  0  0  0  0  0  0  0  0  0  0
    9.6333  -17.5659   27.9370 O   0  0  0  0  0  0  0  0  0  0  0  0
    6.0496  -13.8838   26.4002 C   0  0  0  0  0  0  0  0  0  0  0  0
    5.7241  -12.5400   26.2186 C   0  0  0  0  0  0  0  0  0  0  0  0
    9.8881  -18.4475   25.8414 N   0  0  0  0  0  0  0  0  0  0  0  0
   10.4158  -19.7199   26.3790 C   0  0  1  0  0  0  0  0  0  0  0  0
   10.3796  -20.6600   25.2340 C   0  0  0  0  0  0  0  0  0  0  0  0
   11.4120  -20.6136   24.1923 C   0  0  0  0  0  0  0  0  0  0  0  0
   11.3464  -21.5487   23.0831 C   0  0  0  0  0  0  0  0  0  0  0  0
   10.4389  -22.3975   22.9882 O   0  0  0  0  0  0  0  0  0  0  0  0
   11.6919  -19.4557   27.0017 C   0  0  0  0  0  0  0  0  0  0  0  0
   12.3920  -18.2810   26.7163 O   0  0  0  0  0  0  0  0  0  0  0  0
   12.3377  -21.4824   22.1005 O   0  0  0  0  0  0  0  0  0  0  0  0
   12.2551  -20.2331   27.8197 O   0  0  0  0  0  0  0  0  0  0  0  0
  2  3  1  0
  2  1  1  6
  4  3  1  0
  5  4  2  0
  6  5  1  0
  7 12  2  0
  7  6  1  0
  8  7  1  0
  9  8  2  0
  9 10  1  0
 10 11  2  0
 11 12  1  0
 12  4  1  0
 13  2  1  0
 14 13  2  0
 15 16  1  0
 16 17  2  0
 16 26  1  0
 17 18  1  0
 18 19  2  0
 19 20  1  0
 21 20  1  1
 21 22  1  0
 22 13  1  0
 23 21  1  0
 23 27  1  0
 24 23  2  0
 25 19  1  0
 26 25  2  0
 28 27  1  0
 28 33  1  0
 28 29  1  6
 29 30  1  0
 31 30  1  0
 32 31  2  0
 33 34  1  0
 35 31  1  0
 36 33  2  0
M  END
$$$$
