WYE.pdb
     RDKit          3D

 36 38  0  0  1  0  0  0  0  0999 V2000
    7.5433  -16.4427   21.2335 N   0  0  0  0  0  0  0  0  0  0  0  0
    8.7715  -15.7289   21.1922 C   0  0  1  0  0  0  0  0  0  0  0  0
    8.6534  -14.2719   20.8162 C   0  0  0  0  0  0  0  0  0  0  0  0
    7.5548  -13.5635   21.4841 C   0  0  0  0  0  0  0  0  0  0  0  0
    6.4144  -13.1132   20.8212 C   0  0  0  0  0  0  0  0  0  0  0  0
    5.6428  -12.5494   21.7365 N   0  0  0  0  0  0  0  0  0  0  0  0
    6.2142  -12.6049   22.9612 C   0  0  0  0  0  0  0  0  0  0  0  0
    5.8347  -12.1682   24.2153 C   0  0  0  0  0  0  0  0  0  0  0  0
    6.6834  -12.3853   25.2890 C   0  0  0  0  0  0  0  0  0  0  0  0
    7.8892  -13.0173   25.1612 C   0  0  0  0  0  0  0  0  0  0  0  0
    8.2666  -13.4550   23.8981 C   0  0  0  0  0  0  0  0  0  0  0  0
    7.4377  -13.2530   22.8023 C   0  0  0  0  0  0  0  0  0  0  0  0
    9.5282  -15.7791   22.4857 C   0  0  0  0  0  0  0  0  0  0  0  0
   10.7200  -15.3787   22.4772 O   0  0  0  0  0  0  0  0  0  0  0  0
   11.5367  -15.6153   31.0485 O   0  0  0  0  0  0  0  0  0  0  0  0
   10.8699  -15.7112   29.8301 C   0  0  0  0  0  0  0  0  0  0  0  0
   10.2238  -16.8580   29.4624 C   0  0  0  0  0  0  0  0  0  0  0  0
    9.5637  -16.9170   28.2282 C   0  0  0  0  0  0  0  0  0  0  0  0
    9.5506  -15.8425   27.3734 C   0  0  0  0  0  0  0  0  0  0  0  0
    8.8569  -15.9104   26.1010 C   0  0  0  0  0  0  0  0  0  0  0  0
    9.7473  -16.3027   24.9385 C   0  0  2  0  0  0  0  0  0  0  0  0
    8.9668  -16.2493   23.6869 N   0  0  0  0  0  0  0  0  0  0  0  0
   10.3911  -17.6148   25.0886 C   0  0  0  0  0  0  0  0  0  0  0  0
    9.7253  -18.6586   24.8315 O   0  0  0  0  0  0  0  0  0  0  0  0
   10.2079  -14.7033   27.7682 C   0  0  0  0  0  0  0  0  0  0  0  0
   10.8702  -14.6260   28.9930 C   0  0  0  0  0  0  0  0  0  0  0  0
   11.7277  -17.7820   25.5066 N   0  0  0  0  0  0  0  0  0  0  0  0
   12.3289  -19.1244   25.6584 C   0  0  1  0  0  0  0  0  0  0  0  0
   13.5145  -19.1124   24.7693 C   0  0  0  0  0  0  0  0  0  0  0  0
   14.4844  -20.2132   24.7972 C   0  0  0  0  0  0  0  0  0  0  0  0
   15.6241  -20.1804   23.8978 C   0  0  0  0  0  0  0  0  0  0  0  0
   15.4871  -20.1520   22.6595 O   0  0  0  0  0  0  0  0  0  0  0  0
   12.5371  -19.3727   27.0659 C   0  0  0  0  0  0  0  0  0  0  0  0
   12.7381  -18.3118   27.9523 O   0  0  0  0  0  0  0  0  0  0  0  0
   16.9067  -20.1809   24.4525 O   0  0  0  0  0  0  0  0  0  0  0  0
   12.5546  -20.5209   27.5874 O   0  0  0  0  0  0  0  0  0  0  0  0
  2  3  1  0
  2  1  1  1
  4  3  1  0
  5  4  2  0
  6  5  1  0
  7 12  2  0
  7  6  1  0
  8  7  1  0
  9  8  2  0
  9 10  1  0
 10 11  2  0
 11 12  1  0
 12  4  1  0
 13  2  1  0
 14 13  2  0
 15 16  1  0
 16 17  2  0
 16 26  1  0
 17 18  1  0
 18 19  2  0
 19 20  1  0
 21 20  1  1
 21 22  1  0
 22 13  1  0
 23 21  1  0
 23 27  1  0
 24 23  2  0
 25 19  1  0
 26 25  2  0
 28 27  1  0
 28 33  1  0
 28 29  1  6
 29 30  1  0
 31 30  1  0
 32 31  2  0
 33 34  1  0
 35 31  1  0
 36 33  2  0
M  END
$$$$
