WYE.pdb
     RDKit          3D

 36 38  0  0  1  0  0  0  0  0999 V2000
   11.4027  -15.8813   20.1765 N   0  0  0  0  0  0  0  0  0  0  0  0
   10.3403  -15.8879   21.1203 C   0  0  1  0  0  0  0  0  0  0  0  0
    9.1851  -16.7971   20.7784 C   0  0  0  0  0  0  0  0  0  0  0  0
    8.0090  -16.1023   20.2410 C   0  0  0  0  0  0  0  0  0  0  0  0
    6.8444  -16.7565   19.8426 C   0  0  0  0  0  0  0  0  0  0  0  0
    6.0026  -15.8183   19.4399 N   0  0  0  0  0  0  0  0  0  0  0  0
    6.5507  -14.5868   19.5519 C   0  0  0  0  0  0  0  0  0  0  0  0
    6.1041  -13.3109   19.2688 C   0  0  0  0  0  0  0  0  0  0  0  0
    6.9469  -12.2358   19.5010 C   0  0  0  0  0  0  0  0  0  0  0  0
    8.2109  -12.3829   20.0016 C   0  0  0  0  0  0  0  0  0  0  0  0
    8.6556  -13.6679   20.2850 C   0  0  0  0  0  0  0  0  0  0  0  0
    7.8344  -14.7658   20.0640 C   0  0  0  0  0  0  0  0  0  0  0  0
   10.7821  -16.2563   22.5050 C   0  0  0  0  0  0  0  0  0  0  0  0
   11.9691  -16.6439   22.6520 O   0  0  0  0  0  0  0  0  0  0  0  0
   10.8383  -14.8422   31.2780 O   0  0  0  0  0  0  0  0  0  0  0  0
   10.4745  -14.9891   29.9422 C   0  0  0  0  0  0  0  0  0  0  0  0
    9.7993  -16.0949   29.5075 C   0  0  0  0  0  0  0  0  0  0  0  0
    9.4501  -16.2075   28.1555 C   0  0  0  0  0  0  0  0  0  0  0  0
    9.7727  -15.2263   27.2507 C   0  0  0  0  0  0  0  0  0  0  0  0
    9.3993  -15.3481   25.8540 C   0  0  0  0  0  0  0  0  0  0  0  0
   10.4669  -15.9877   24.9884 C   0  0  2  0  0  0  0  0  0  0  0  0
    9.9350  -16.1873   23.6261 N   0  0  0  0  0  0  0  0  0  0  0  0
   11.0008  -17.2479   25.5228 C   0  0  0  0  0  0  0  0  0  0  0  0
   11.6123  -17.2356   26.6294 O   0  0  0  0  0  0  0  0  0  0  0  0
   10.4515  -14.1266   27.7148 C   0  0  0  0  0  0  0  0  0  0  0  0
   10.8071  -13.9970   29.0569 C   0  0  0  0  0  0  0  0  0  0  0  0
   10.8682  -18.4892   24.8663 N   0  0  0  0  0  0  0  0  0  0  0  0
   11.2359  -19.7585   25.5296 C   0  0  1  0  0  0  0  0  0  0  0  0
   12.5898  -20.0764   25.0176 C   0  0  0  0  0  0  0  0  0  0  0  0
   13.1063  -19.4257   23.8080 C   0  0  0  0  0  0  0  0  0  0  0  0
   14.4505  -19.7339   23.3528 C   0  0  0  0  0  0  0  0  0  0  0  0
   15.1642  -20.5788   23.9269 O   0  0  0  0  0  0  0  0  0  0  0  0
   11.0699  -19.5914   26.9546 C   0  0  0  0  0  0  0  0  0  0  0  0
   12.0225  -18.8969   27.7041 O   0  0  0  0  0  0  0  0  0  0  0  0
   14.9444  -19.0544   22.2362 O   0  0  0  0  0  0  0  0  0  0  0  0
   10.0917  -20.0414   27.6112 O   0  0  0  0  0  0  0  0  0  0  0  0
  2  3  1  0
  2  1  1  6
  4  3  1  0
  5  4  2  0
  6  5  1  0
  7 12  2  0
  7  6  1  0
  8  7  1  0
  9  8  2  0
  9 10  1  0
 10 11  2  0
 11 12  1  0
 12  4  1  0
 13  2  1  0
 14 13  2  0
 15 16  1  0
 16 17  2  0
 16 26  1  0
 17 18  1  0
 18 19  2  0
 19 20  1  0
 21 20  1  1
 21 22  1  0
 22 13  1  0
 23 21  1  0
 23 27  1  0
 24 23  2  0
 25 19  1  0
 26 25  2  0
 28 27  1  0
 28 33  1  0
 28 29  1  1
 29 30  1  0
 31 30  1  0
 32 31  2  0
 33 34  1  0
 35 31  1  0
 36 33  2  0
M  END
$$$$
