WYE.pdb
     RDKit          3D

 36 38  0  0  1  0  0  0  0  0999 V2000
    6.0063  -17.5938   23.9037 N   0  0  0  0  0  0  0  0  0  0  0  0
    6.9868  -16.5652   23.8871 C   0  0  1  0  0  0  0  0  0  0  0  0
    7.6104  -16.2528   25.2256 C   0  0  0  0  0  0  0  0  0  0  0  0
    6.9413  -15.1767   25.9666 C   0  0  0  0  0  0  0  0  0  0  0  0
    5.6609  -15.2940   26.5047 C   0  0  0  0  0  0  0  0  0  0  0  0
    5.4007  -14.1489   27.1147 N   0  0  0  0  0  0  0  0  0  0  0  0
    6.4386  -13.2885   27.0059 C   0  0  0  0  0  0  0  0  0  0  0  0
    6.6637  -11.9995   27.4477 C   0  0  0  0  0  0  0  0  0  0  0  0
    7.8698  -11.3862   27.1481 C   0  0  0  0  0  0  0  0  0  0  0  0
    8.8544  -12.0053   26.4289 C   0  0  0  0  0  0  0  0  0  0  0  0
    8.6236  -13.3017   25.9869 C   0  0  0  0  0  0  0  0  0  0  0  0
    7.4254  -13.9436   26.2715 C   0  0  0  0  0  0  0  0  0  0  0  0
    8.1164  -16.8406   22.9403 C   0  0  0  0  0  0  0  0  0  0  0  0
    8.3140  -18.0359   22.6042 O   0  0  0  0  0  0  0  0  0  0  0  0
    6.0560  -13.5215   17.1096 O   0  0  0  0  0  0  0  0  0  0  0  0
    7.0924  -13.8366   17.9842 C   0  0  0  0  0  0  0  0  0  0  0  0
    7.3819  -13.0421   19.0579 C   0  0  0  0  0  0  0  0  0  0  0  0
    8.4326  -13.3915   19.9160 C   0  0  0  0  0  0  0  0  0  0  0  0
    9.1835  -14.5211   19.7023 C   0  0  0  0  0  0  0  0  0  0  0  0
   10.2643  -14.8791   20.6017 C   0  0  0  0  0  0  0  0  0  0  0  0
    9.9918  -16.1255   21.4205 C   0  0  2  0  0  0  0  0  0  0  0  0
    8.9494  -15.8317   22.4233 N   0  0  0  0  0  0  0  0  0  0  0  0
   11.1826  -16.6943   22.0665 C   0  0  0  0  0  0  0  0  0  0  0  0
   12.1016  -17.1766   21.3445 O   0  0  0  0  0  0  0  0  0  0  0  0
    8.8709  -15.3007   18.6160 C   0  0  0  0  0  0  0  0  0  0  0  0
    7.8286  -14.9689   17.7510 C   0  0  0  0  0  0  0  0  0  0  0  0
   11.3651  -16.7331   23.4645 N   0  0  0  0  0  0  0  0  0  0  0  0
   12.5615  -17.3549   24.0717 C   0  0  1  0  0  0  0  0  0  0  0  0
   13.7094  -16.6312   23.4760 C   0  0  0  0  0  0  0  0  0  0  0  0
   15.0618  -16.7896   24.0231 C   0  0  0  0  0  0  0  0  0  0  0  0
   16.1785  -16.1408   23.3592 C   0  0  0  0  0  0  0  0  0  0  0  0
   16.0106  -15.2928   22.4616 O   0  0  0  0  0  0  0  0  0  0  0  0
   12.4100  -17.3250   25.5077 C   0  0  0  0  0  0  0  0  0  0  0  0
   11.2747  -16.7568   26.0906 O   0  0  0  0  0  0  0  0  0  0  0  0
   17.4745  -16.4881   23.7495 O   0  0  0  0  0  0  0  0  0  0  0  0
   13.2566  -17.7896   26.3189 O   0  0  0  0  0  0  0  0  0  0  0  0
  2  3  1  0
  2  1  1  1
  4  3  1  0
  5  4  2  0
  6  5  1  0
  7 12  2  0
  7  6  1  0
  8  7  1  0
  9  8  2  0
  9 10  1  0
 10 11  2  0
 11 12  1  0
 12  4  1  0
 13  2  1  0
 14 13  2  0
 15 16  1  0
 16 17  2  0
 16 26  1  0
 17 18  1  0
 18 19  2  0
 19 20  1  0
 21 20  1  1
 21 22  1  0
 22 13  1  0
 23 21  1  0
 23 27  1  0
 24 23  2  0
 25 19  1  0
 26 25  2  0
 28 27  1  0
 28 33  1  0
 28 29  1  1
 29 30  1  0
 31 30  1  0
 32 31  2  0
 33 34  1  0
 35 31  1  0
 36 33  2  0
M  END
$$$$
