RYP.pdb
     RDKit          3D

 31 32  0  0  1  0  0  0  0  0999 V2000
   15.3512  -23.4536   -1.9928 N   0  0  0  0  0  0  0  0  0  0  0  0
   14.2123  -23.8686   -1.2326 C   0  0  0  0  0  0  0  0  0  0  0  0
   13.8274  -25.0944   -1.3416 N   0  0  0  0  0  0  0  0  0  0  0  0
   13.5226  -22.9515   -0.3788 N   0  0  0  0  0  0  0  0  0  0  0  0
   14.2683  -21.9976    0.4190 C   0  0  0  0  0  0  0  0  0  0  0  0
   14.8091  -22.6751    1.6862 C   0  0  0  0  0  0  0  0  0  0  0  0
   15.4783  -21.6079    2.4889 C   0  0  0  0  0  0  0  0  0  0  0  0
   15.4415  -20.2472    1.8682 C   0  0  2  0  0  0  0  0  0  0  0  0
   15.7204  -20.4179    0.4405 N   0  0  0  0  0  0  0  0  0  0  0  0
   16.4484  -19.3109    2.4130 C   0  0  0  0  0  0  0  0  0  0  0  0
   17.6596  -19.4519    2.1174 O   0  0  0  0  0  0  0  0  0  0  0  0
   13.0187  -25.4104   -0.7946 O   0  0  0  0  0  0  0  0  0  0  0  0
   19.8746  -11.8443    5.6252 C   0  0  0  0  0  0  0  0  0  0  0  0
   19.0626  -12.8637    5.1136 C   0  0  0  0  0  0  0  0  0  0  0  0
   18.0550  -13.3930    5.8741 C   0  0  0  0  0  0  0  0  0  0  0  0
   17.2563  -14.3974    5.3679 C   0  0  0  0  0  0  0  0  0  0  0  0
   17.4486  -14.8910    4.0954 C   0  0  0  0  0  0  0  0  0  0  0  0
   16.5984  -15.9523    3.5705 C   0  0  1  0  0  0  0  0  0  0  0  0
   17.1033  -17.3641    3.8065 N   0  0  0  0  0  0  0  0  0  0  0  0
   16.0929  -18.2398    3.2728 C   0  0  0  0  0  0  0  0  0  0  0  0
   17.4525  -17.6828    5.1700 O   0  0  0  0  0  0  0  0  0  0  0  0
   16.4854  -18.1804    5.8700 C   0  0  0  0  0  0  0  0  0  0  0  0
   18.4685  -14.3457    3.3435 C   0  0  0  0  0  0  0  0  0  0  0  0
   19.2776  -13.3416    3.8311 N   0  0  0  0  0  0  0  0  0  0  0  0
   18.6743  -17.5339    5.8516 C   0  0  0  0  0  0  0  0  0  0  0  0
   19.9434  -16.9702    5.4852 C   0  0  0  0  0  0  0  0  0  0  0  0
   20.9622  -17.8514    6.1996 C   0  0  0  0  0  0  0  0  0  0  0  0
   20.1881  -18.6980    7.1561 C   0  0  1  0  0  0  0  0  0  0  0  0
   18.8897  -17.9639    7.2632 C   0  0  0  0  0  0  0  0  0  0  0  0
   19.0218  -16.8215    8.1665 O   0  0  0  0  0  0  0  0  0  0  0  0
   19.0971  -15.6652    7.6106 O   0  0  0  0  0  0  0  0  0  0  0  0
  2  1  1  0
  3  2  2  0
  4  2  1  0
  5  4  1  0
  6  5  1  0
  7  6  1  0
  8 10  1  0
  8  7  1  0
  8  9  1  6
 10 11  2  0
 12 13  1  0
 13 14  2  0
 14 15  1  0
 16 15  2  0
 16 17  1  0
 18 17  1  6
 19 18  1  0
 19 10  1  0
 20 18  1  0
 21 20  2  0
 22 16  1  0
 23 13  1  0
 23 22  2  0
 24 20  1  0
 24 28  1  0
 25 26  1  0
 25 24  1  0
 26 27  1  0
 28 27  1  0
 28 29  1  1
 29 31  1  0
 30 29  2  0
M  END
$$$$
