RYP.pdb
     RDKit          3D

 31 32  0  0  1  0  0  0  0  0999 V2000
   24.2461  -26.6098  -15.4787 N   0  0  0  0  0  0  0  0  0  0  0  0
   25.0358  -25.8177  -16.3709 C   0  0  0  0  0  0  0  0  0  0  0  0
   26.3186  -25.8704  -16.2507 N   0  0  0  0  0  0  0  0  0  0  0  0
   24.4208  -24.9931  -17.3647 N   0  0  0  0  0  0  0  0  0  0  0  0
   22.9790  -24.9914  -17.5191 C   0  0  0  0  0  0  0  0  0  0  0  0
   22.3701  -23.7827  -16.7943 C   0  0  0  0  0  0  0  0  0  0  0  0
   22.9011  -23.8095  -15.3984 C   0  0  0  0  0  0  0  0  0  0  0  0
   22.4599  -22.6643  -14.5429 C   0  0  2  0  0  0  0  0  0  0  0  0
   21.1700  -22.2084  -15.0659 N   0  0  0  0  0  0  0  0  0  0  0  0
   23.3844  -21.5100  -14.5609 C   0  0  0  0  0  0  0  0  0  0  0  0
   22.9961  -20.4034  -15.0069 O   0  0  0  0  0  0  0  0  0  0  0  0
   26.9012  -25.3774  -16.9368 O   0  0  0  0  0  0  0  0  0  0  0  0
   24.0641  -20.7005   -7.8543 C   0  0  0  0  0  0  0  0  0  0  0  0
   24.6780  -20.6846   -9.1125 C   0  0  0  0  0  0  0  0  0  0  0  0
   24.0280  -20.1512  -10.1927 C   0  0  0  0  0  0  0  0  0  0  0  0
   24.6349  -20.1367  -11.4315 C   0  0  0  0  0  0  0  0  0  0  0  0
   25.8995  -20.6536  -11.6142 C   0  0  0  0  0  0  0  0  0  0  0  0
   26.5313  -20.6327  -12.9277 C   0  0  2  0  0  0  0  0  0  0  0  0
   25.5838  -20.4560  -14.1003 N   0  0  0  0  0  0  0  0  0  0  0  0
   24.7177  -21.6058  -14.0853 C   0  0  0  0  0  0  0  0  0  0  0  0
   26.2102  -20.2475  -15.3835 O   0  0  0  0  0  0  0  0  0  0  0  0
   26.0062  -21.1940  -16.2411 C   0  0  0  0  0  0  0  0  0  0  0  0
   26.5393  -21.1868  -10.5146 C   0  0  0  0  0  0  0  0  0  0  0  0
   25.9501  -21.2108   -9.2684 N   0  0  0  0  0  0  0  0  0  0  0  0
   27.0059  -19.1814  -15.8416 C   0  0  0  0  0  0  0  0  0  0  0  0
   27.7559  -18.1550  -15.1733 C   0  0  0  0  0  0  0  0  0  0  0  0
   27.6148  -16.9391  -16.0824 C   0  0  0  0  0  0  0  0  0  0  0  0
   27.0176  -17.4355  -17.3583 C   0  0  1  0  0  0  0  0  0  0  0  0
   27.2686  -18.9078  -17.2839 C   0  0  0  0  0  0  0  0  0  0  0  0
   28.6512  -19.2096  -17.6526 O   0  0  0  0  0  0  0  0  0  0  0  0
   29.0525  -18.7401  -18.7795 O   0  0  0  0  0  0  0  0  0  0  0  0
  2  1  1  0
  3  2  2  0
  4  2  1  0
  5  4  1  0
  6  5  1  0
  7  6  1  0
  8 10  1  0
  8  7  1  0
  8  9  1  6
 10 11  2  0
 12 13  1  0
 13 14  2  0
 14 15  1  0
 16 15  2  0
 16 17  1  0
 18 17  1  1
 19 18  1  0
 19 10  1  0
 20 18  1  0
 21 20  2  0
 22 16  1  0
 23 13  1  0
 23 22  2  0
 24 20  1  0
 24 28  1  0
 25 26  1  0
 25 24  1  0
 26 27  1  0
 28 27  1  0
 28 29  1  6
 29 31  1  0
 30 29  2  0
M  END
$$$$
