RYP.pdb
     RDKit          3D

 31 32  0  0  1  0  0  0  0  0999 V2000
   29.5244  -15.9862  -22.5804 N   0  0  0  0  0  0  0  0  0  0  0  0
   28.1147  -16.1554  -22.4031 C   0  0  0  0  0  0  0  0  0  0  0  0
   27.3480  -15.9356  -23.4162 N   0  0  0  0  0  0  0  0  0  0  0  0
   27.5738  -16.5556  -21.1410 N   0  0  0  0  0  0  0  0  0  0  0  0
   28.2457  -17.5669  -20.3483 C   0  0  0  0  0  0  0  0  0  0  0  0
   27.5133  -18.9105  -20.4730 C   0  0  0  0  0  0  0  0  0  0  0  0
   27.0128  -19.2526  -19.1078 C   0  0  0  0  0  0  0  0  0  0  0  0
   28.0862  -19.4910  -18.0933 C   0  0  2  0  0  0  0  0  0  0  0  0
   29.1074  -20.3222  -18.7347 N   0  0  0  0  0  0  0  0  0  0  0  0
   27.6219  -20.2044  -16.8839 C   0  0  0  0  0  0  0  0  0  0  0  0
   27.2287  -21.3928  -16.9698 O   0  0  0  0  0  0  0  0  0  0  0  0
   26.3363  -16.0722  -23.3109 O   0  0  0  0  0  0  0  0  0  0  0  0
   25.0763  -21.0369   -8.3876 C   0  0  0  0  0  0  0  0  0  0  0  0
   25.6892  -20.6755   -9.5933 C   0  0  0  0  0  0  0  0  0  0  0  0
   26.7887  -21.3565  -10.0419 C   0  0  0  0  0  0  0  0  0  0  0  0
   27.3909  -20.9985  -11.2303 C   0  0  0  0  0  0  0  0  0  0  0  0
   26.9074  -19.9559  -11.9912 C   0  0  0  0  0  0  0  0  0  0  0  0
   27.5515  -19.5864  -13.2456 C   0  0  1  0  0  0  0  0  0  0  0  0
   26.9748  -20.2406  -14.4879 N   0  0  0  0  0  0  0  0  0  0  0  0
   27.6028  -19.5872  -15.6065 C   0  0  0  0  0  0  0  0  0  0  0  0
   25.5347  -20.2429  -14.5812 O   0  0  0  0  0  0  0  0  0  0  0  0
   25.0301  -19.1854  -15.1290 C   0  0  0  0  0  0  0  0  0  0  0  0
   25.7988  -19.2811  -11.5237 C   0  0  0  0  0  0  0  0  0  0  0  0
   25.1826  -19.6233  -10.3389 N   0  0  0  0  0  0  0  0  0  0  0  0
   24.6008  -21.2108  -14.1683 C   0  0  0  0  0  0  0  0  0  0  0  0
   24.7131  -22.4286  -13.4153 C   0  0  0  0  0  0  0  0  0  0  0  0
   23.6786  -23.3535  -14.0471 C   0  0  0  0  0  0  0  0  0  0  0  0
   22.8460  -22.5003  -14.9468 C   0  0  2  0  0  0  0  0  0  0  0  0
   23.1392  -21.1206  -14.4500 C   0  0  0  0  0  0  0  0  0  0  0  0
   22.3676  -20.8385  -13.2402 O   0  0  0  0  0  0  0  0  0  0  0  0
   22.9943  -20.9670  -12.1256 O   0  0  0  0  0  0  0  0  0  0  0  0
  2  1  1  0
  3  2  2  0
  4  2  1  0
  5  4  1  0
  6  5  1  0
  7  6  1  0
  8 10  1  0
  8  7  1  0
  8  9  1  6
 10 11  2  0
 12 13  1  0
 13 14  2  0
 14 15  1  0
 16 15  2  0
 16 17  1  0
 18 17  1  1
 19 18  1  0
 19 10  1  0
 20 18  1  0
 21 20  2  0
 22 16  1  0
 23 13  1  0
 23 22  2  0
 24 20  1  0
 24 28  1  0
 25 26  1  0
 25 24  1  0
 26 27  1  0
 28 27  1  0
 28 29  1  1
 29 31  1  0
 30 29  2  0
M  END
$$$$
