RYP.pdb
     RDKit          3D

 31 32  0  0  1  0  0  0  0  0999 V2000
   30.6402  -22.6413  -15.4349 N   0  0  0  0  0  0  0  0  0  0  0  0
   30.0378  -22.1753  -16.6462 C   0  0  0  0  0  0  0  0  0  0  0  0
   29.9111  -23.0125  -17.6187 N   0  0  0  0  0  0  0  0  0  0  0  0
   29.5906  -20.8227  -16.7736 N   0  0  0  0  0  0  0  0  0  0  0  0
   28.5252  -20.3249  -15.9254 C   0  0  0  0  0  0  0  0  0  0  0  0
   28.9941  -20.2679  -14.4645 C   0  0  0  0  0  0  0  0  0  0  0  0
   27.8753  -19.6646  -13.6799 C   0  0  0  0  0  0  0  0  0  0  0  0
   27.0034  -20.6561  -12.9765 C   0  0  2  0  0  0  0  0  0  0  0  0
   25.8012  -20.8289  -13.7951 N   0  0  0  0  0  0  0  0  0  0  0  0
   26.5706  -20.2260  -11.6292 C   0  0  0  0  0  0  0  0  0  0  0  0
   26.0564  -19.0928  -11.4685 O   0  0  0  0  0  0  0  0  0  0  0  0
   29.5106  -22.6855  -18.5051 O   0  0  0  0  0  0  0  0  0  0  0  0
   20.4123  -19.5739  -11.4917 C   0  0  0  0  0  0  0  0  0  0  0  0
   21.5669  -20.0109  -10.8314 C   0  0  0  0  0  0  0  0  0  0  0  0
   21.9551  -19.4259   -9.6562 C   0  0  0  0  0  0  0  0  0  0  0  0
   23.0932  -19.8581   -9.0074 C   0  0  0  0  0  0  0  0  0  0  0  0
   23.8633  -20.8803   -9.5191 C   0  0  0  0  0  0  0  0  0  0  0  0
   25.0639  -21.3293   -8.8248 C   0  0  2  0  0  0  0  0  0  0  0  0
   26.3372  -20.5854   -9.1844 N   0  0  0  0  0  0  0  0  0  0  0  0
   26.7163  -21.0590  -10.4900 C   0  0  0  0  0  0  0  0  0  0  0  0
   27.4098  -20.6825   -8.2238 O   0  0  0  0  0  0  0  0  0  0  0  0
   28.2897  -21.5920   -8.4912 C   0  0  0  0  0  0  0  0  0  0  0  0
   23.4569  -21.4580  -10.7040 C   0  0  0  0  0  0  0  0  0  0  0  0
   22.3229  -21.0406  -11.3677 N   0  0  0  0  0  0  0  0  0  0  0  0
   27.6427  -19.9470   -7.0473 C   0  0  0  0  0  0  0  0  0  0  0  0
   27.0340  -18.7752   -6.4824 C   0  0  0  0  0  0  0  0  0  0  0  0
   28.1895  -18.0440   -5.8080 C   0  0  0  0  0  0  0  0  0  0  0  0
   29.3403  -18.9960   -5.7975 C   0  0  1  0  0  0  0  0  0  0  0  0
   28.6746  -20.3138   -6.0351 C   0  0  0  0  0  0  0  0  0  0  0  0
   28.0724  -20.8122   -4.7992 O   0  0  0  0  0  0  0  0  0  0  0  0
   28.8884  -21.1214   -3.8558 O   0  0  0  0  0  0  0  0  0  0  0  0
  2  1  1  0
  3  2  2  0
  4  2  1  0
  5  4  1  0
  6  5  1  0
  7  6  1  0
  8 10  1  0
  8  7  1  0
  8  9  1  6
 10 11  2  0
 12 13  1  0
 13 14  2  0
 14 15  1  0
 16 15  2  0
 16 17  1  0
 18 17  1  6
 19 18  1  0
 19 10  1  0
 20 18  1  0
 21 20  2  0
 22 16  1  0
 23 13  1  0
 23 22  2  0
 24 20  1  0
 24 28  1  0
 25 26  1  0
 25 24  1  0
 26 27  1  0
 28 27  1  0
 28 29  1  1
 29 31  1  0
 30 29  2  0
M  END
$$$$
