RYP.pdb
     RDKit          3D

 31 32  0  0  1  0  0  0  0  0999 V2000
   27.9385  -17.0085  -22.5379 N   0  0  0  0  0  0  0  0  0  0  0  0
   28.1478  -16.5032  -21.2158 C   0  0  0  0  0  0  0  0  0  0  0  0
   27.6296  -15.3609  -20.9169 N   0  0  0  0  0  0  0  0  0  0  0  0
   28.9085  -17.2425  -20.2564 N   0  0  0  0  0  0  0  0  0  0  0  0
   29.1229  -18.6651  -20.4369 C   0  0  0  0  0  0  0  0  0  0  0  0
   27.8147  -19.4324  -20.1980 C   0  0  0  0  0  0  0  0  0  0  0  0
   27.5471  -19.3739  -18.7296 C   0  0  0  0  0  0  0  0  0  0  0  0
   28.4221  -20.2614  -17.9019 C   0  0  2  0  0  0  0  0  0  0  0  0
   28.8080  -21.3940  -18.7466 N   0  0  0  0  0  0  0  0  0  0  0  0
   27.7581  -20.8057  -16.6977 C   0  0  0  0  0  0  0  0  0  0  0  0
   27.1130  -21.8794  -16.7694 O   0  0  0  0  0  0  0  0  0  0  0  0
   27.8587  -14.9344  -20.0119 O   0  0  0  0  0  0  0  0  0  0  0  0
   24.8110  -20.8465   -8.2933 C   0  0  0  0  0  0  0  0  0  0  0  0
   25.5250  -20.6545   -9.4822 C   0  0  0  0  0  0  0  0  0  0  0  0
   25.3770  -19.4978  -10.1990 C   0  0  0  0  0  0  0  0  0  0  0  0
   26.0815  -19.3109  -11.3702 C   0  0  0  0  0  0  0  0  0  0  0  0
   26.9451  -20.2738  -11.8465 C   0  0  0  0  0  0  0  0  0  0  0  0
   27.6848  -20.0655  -13.0853 C   0  0  1  0  0  0  0  0  0  0  0  0
   27.0165  -20.6029  -14.3377 N   0  0  0  0  0  0  0  0  0  0  0  0
   27.8225  -20.1498  -15.4412 C   0  0  0  0  0  0  0  0  0  0  0  0
   25.6212  -20.2692  -14.4934 O   0  0  0  0  0  0  0  0  0  0  0  0
   25.4014  -19.1472  -15.0981 C   0  0  0  0  0  0  0  0  0  0  0  0
   27.0817  -21.4329  -11.1112 C   0  0  0  0  0  0  0  0  0  0  0  0
   26.3867  -21.6388   -9.9385 N   0  0  0  0  0  0  0  0  0  0  0  0
   24.4705  -20.9705  -14.0889 C   0  0  0  0  0  0  0  0  0  0  0  0
   24.2667  -22.1765  -13.3361 C   0  0  0  0  0  0  0  0  0  0  0  0
   23.0378  -22.8120  -13.9770 C   0  0  0  0  0  0  0  0  0  0  0  0
   22.4540  -21.7778  -14.8826 C   0  0  2  0  0  0  0  0  0  0  0  0
   23.0809  -20.5157  -14.3823 C   0  0  0  0  0  0  0  0  0  0  0  0
   22.3954  -20.0472  -13.1784 O   0  0  0  0  0  0  0  0  0  0  0  0
   22.9484  -20.3482  -12.0581 O   0  0  0  0  0  0  0  0  0  0  0  0
  2  1  1  0
  3  2  2  0
  4  2  1  0
  5  4  1  0
  6  5  1  0
  7  6  1  0
  8 10  1  0
  8  7  1  0
  8  9  1  6
 10 11  2  0
 12 13  1  0
 13 14  2  0
 14 15  1  0
 16 15  2  0
 16 17  1  0
 18 17  1  1
 19 18  1  0
 19 10  1  0
 20 18  1  0
 21 20  2  0
 22 16  1  0
 23 13  1  0
 23 22  2  0
 24 20  1  0
 24 28  1  0
 25 26  1  0
 25 24  1  0
 26 27  1  0
 28 27  1  0
 28 29  1  1
 29 31  1  0
 30 29  2  0
M  END
$$$$
