RYP.pdb
     RDKit          3D

 31 32  0  0  1  0  0  0  0  0999 V2000
   32.0686  -26.1126  -16.9728 N   0  0  0  0  0  0  0  0  0  0  0  0
   30.7220  -26.3929  -17.3671 C   0  0  0  0  0  0  0  0  0  0  0  0
   30.2609  -27.5761  -17.1428 N   0  0  0  0  0  0  0  0  0  0  0  0
   29.9134  -25.3915  -17.9909 N   0  0  0  0  0  0  0  0  0  0  0  0
   30.3941  -24.0274  -18.0939 C   0  0  0  0  0  0  0  0  0  0  0  0
   30.1907  -23.2921  -16.7616 C   0  0  0  0  0  0  0  0  0  0  0  0
   28.8304  -22.6776  -16.8159 C   0  0  0  0  0  0  0  0  0  0  0  0
   27.9186  -23.0853  -15.7021 C   0  0  2  0  0  0  0  0  0  0  0  0
   27.1891  -24.2716  -16.1557 N   0  0  0  0  0  0  0  0  0  0  0  0
   26.9200  -22.0574  -15.3364 C   0  0  0  0  0  0  0  0  0  0  0  0
   27.2986  -20.9426  -14.9027 O   0  0  0  0  0  0  0  0  0  0  0  0
   29.3283  -27.8194  -17.4952 O   0  0  0  0  0  0  0  0  0  0  0  0
   19.2987  -17.6170  -15.2416 C   0  0  0  0  0  0  0  0  0  0  0  0
   20.4047  -18.4391  -15.4889 C   0  0  0  0  0  0  0  0  0  0  0  0
   20.2639  -19.8005  -15.5098 C   0  0  0  0  0  0  0  0  0  0  0  0
   21.3551  -20.6084  -15.7536 C   0  0  0  0  0  0  0  0  0  0  0  0
   22.6047  -20.0729  -15.9807 C   0  0  0  0  0  0  0  0  0  0  0  0
   23.7509  -20.9362  -16.2377 C   0  0  1  0  0  0  0  0  0  0  0  0
   24.5801  -21.2934  -15.0175 N   0  0  0  0  0  0  0  0  0  0  0  0
   25.5251  -22.2859  -15.4586 C   0  0  0  0  0  0  0  0  0  0  0  0
   23.8335  -21.7129  -13.8560 O   0  0  0  0  0  0  0  0  0  0  0  0
   23.4751  -22.9556  -13.8677 C   0  0  0  0  0  0  0  0  0  0  0  0
   22.7278  -18.6992  -15.9560 C   0  0  0  0  0  0  0  0  0  0  0  0
   21.6498  -17.8746  -15.7141 N   0  0  0  0  0  0  0  0  0  0  0  0
   23.4355  -20.9823  -12.7214 C   0  0  0  0  0  0  0  0  0  0  0  0
   23.5350  -19.5963  -12.3584 C   0  0  0  0  0  0  0  0  0  0  0  0
   23.7639  -19.6218  -10.8512 C   0  0  0  0  0  0  0  0  0  0  0  0
   23.5017  -21.0244  -10.4101 C   0  0  2  0  0  0  0  0  0  0  0  0
   22.7253  -21.5868  -11.5577 C   0  0  0  0  0  0  0  0  0  0  0  0
   21.3289  -21.1576  -11.4890 O   0  0  0  0  0  0  0  0  0  0  0  0
   20.9819  -20.2256  -12.3029 O   0  0  0  0  0  0  0  0  0  0  0  0
  2  1  1  0
  3  2  2  0
  4  2  1  0
  5  4  1  0
  6  5  1  0
  7  6  1  0
  8 10  1  0
  8  7  1  0
  8  9  1  6
 10 11  2  0
 12 13  1  0
 13 14  2  0
 14 15  1  0
 16 15  2  0
 16 17  1  0
 18 17  1  6
 19 18  1  0
 19 10  1  0
 20 18  1  0
 21 20  2  0
 22 16  1  0
 23 13  1  0
 23 22  2  0
 24 20  1  0
 24 28  1  0
 25 26  1  0
 25 24  1  0
 26 27  1  0
 28 27  1  0
 28 29  1  1
 29 31  1  0
 30 29  2  0
M  END
$$$$
