RYP.pdb
     RDKit          3D

 31 32  0  0  1  0  0  0  0  0999 V2000
   19.7554  -21.1541  -15.3166 N   0  0  0  0  0  0  0  0  0  0  0  0
   20.2618  -20.0152  -14.6140 C   0  0  0  0  0  0  0  0  0  0  0  0
   19.5131  -18.9678  -14.5424 N   0  0  0  0  0  0  0  0  0  0  0  0
   21.5583  -20.0385  -14.0104 N   0  0  0  0  0  0  0  0  0  0  0  0
   22.4161  -21.1964  -14.1719 C   0  0  0  0  0  0  0  0  0  0  0  0
   23.0478  -21.5793  -12.8261 C   0  0  0  0  0  0  0  0  0  0  0  0
   23.8106  -20.3840  -12.3565 C   0  0  0  0  0  0  0  0  0  0  0  0
   25.2943  -20.5707  -12.3126 C   0  0  2  0  0  0  0  0  0  0  0  0
   25.6189  -21.6567  -13.2402 N   0  0  0  0  0  0  0  0  0  0  0  0
   25.8129  -20.9490  -10.9802 C   0  0  0  0  0  0  0  0  0  0  0  0
   25.7311  -22.1389  -10.5907 O   0  0  0  0  0  0  0  0  0  0  0  0
   19.8667  -18.1385  -14.0520 O   0  0  0  0  0  0  0  0  0  0  0  0
   29.8240  -19.9581   -3.1022 C   0  0  0  0  0  0  0  0  0  0  0  0
   29.3410  -19.8149   -4.4085 C   0  0  0  0  0  0  0  0  0  0  0  0
   28.4257  -18.8411   -4.7049 C   0  0  0  0  0  0  0  0  0  0  0  0
   27.9513  -18.7020   -5.9927 C   0  0  0  0  0  0  0  0  0  0  0  0
   28.3810  -19.5311   -7.0065 C   0  0  0  0  0  0  0  0  0  0  0  0
   27.8731  -19.3749   -8.3639 C   0  0  1  0  0  0  0  0  0  0  0  0
   26.8220  -20.3864   -8.7833 N   0  0  0  0  0  0  0  0  0  0  0  0
   26.4103  -20.0024  -10.1083 C   0  0  0  0  0  0  0  0  0  0  0  0
   25.7091  -20.5427   -7.8780 O   0  0  0  0  0  0  0  0  0  0  0  0
   24.6738  -19.8248   -8.1704 C   0  0  0  0  0  0  0  0  0  0  0  0
   29.3035  -20.5066   -6.6895 C   0  0  0  0  0  0  0  0  0  0  0  0
   29.7898  -20.6619   -5.4089 N   0  0  0  0  0  0  0  0  0  0  0  0
   25.5788  -21.3484   -6.7320 C   0  0  0  0  0  0  0  0  0  0  0  0
   26.4901  -22.1971   -6.0166 C   0  0  0  0  0  0  0  0  0  0  0  0
   25.6203  -23.3511   -5.5304 C   0  0  0  0  0  0  0  0  0  0  0  0
   24.2045  -22.9394   -5.7683 C   0  0  1  0  0  0  0  0  0  0  0  0
   24.3206  -21.4583   -5.9390 C   0  0  0  0  0  0  0  0  0  0  0  0
   24.4379  -20.8018   -4.6375 O   0  0  0  0  0  0  0  0  0  0  0  0
   23.3689  -20.7599   -3.9255 O   0  0  0  0  0  0  0  0  0  0  0  0
  2  1  1  0
  3  2  2  0
  4  2  1  0
  5  4  1  0
  6  5  1  0
  7  6  1  0
  8 10  1  0
  8  7  1  0
  8  9  1  6
 10 11  2  0
 12 13  1  0
 13 14  2  0
 14 15  1  0
 16 15  2  0
 16 17  1  0
 18 17  1  6
 19 18  1  0
 19 10  1  0
 20 18  1  0
 21 20  2  0
 22 16  1  0
 23 13  1  0
 23 22  2  0
 24 20  1  0
 24 28  1  0
 25 26  1  0
 25 24  1  0
 26 27  1  0
 28 27  1  0
 28 29  1  1
 29 31  1  0
 30 29  2  0
M  END
$$$$
