RYP.pdb
     RDKit          3D

 31 32  0  0  1  0  0  0  0  0999 V2000
   29.4589  -23.8843  -16.8136 N   0  0  0  0  0  0  0  0  0  0  0  0
   28.1443  -23.7472  -17.3617 C   0  0  0  0  0  0  0  0  0  0  0  0
   27.9514  -24.1416  -18.5741 N   0  0  0  0  0  0  0  0  0  0  0  0
   27.0781  -23.1897  -16.5883 N   0  0  0  0  0  0  0  0  0  0  0  0
   27.3109  -22.7775  -15.2178 C   0  0  0  0  0  0  0  0  0  0  0  0
   27.5172  -21.2576  -15.1496 C   0  0  0  0  0  0  0  0  0  0  0  0
   26.5329  -20.7371  -14.1540 C   0  0  0  0  0  0  0  0  0  0  0  0
   26.5770  -21.4165  -12.8218 C   0  0  2  0  0  0  0  0  0  0  0  0
   25.2894  -22.0903  -12.6397 N   0  0  0  0  0  0  0  0  0  0  0  0
   26.7649  -20.4927  -11.6823 C   0  0  0  0  0  0  0  0  0  0  0  0
   27.4686  -19.4631  -11.8198 O   0  0  0  0  0  0  0  0  0  0  0  0
   27.0364  -23.9775  -19.0089 O   0  0  0  0  0  0  0  0  0  0  0  0
   20.5067  -22.3785   -9.1533 C   0  0  0  0  0  0  0  0  0  0  0  0
   21.6482  -21.5681   -9.1314 C   0  0  0  0  0  0  0  0  0  0  0  0
   22.4261  -21.4988   -8.0072 C   0  0  0  0  0  0  0  0  0  0  0  0
   23.5503  -20.6996   -7.9880 C   0  0  0  0  0  0  0  0  0  0  0  0
   23.9178  -19.9561   -9.0889 C   0  0  0  0  0  0  0  0  0  0  0  0
   25.1081  -19.1151   -9.0576 C   0  0  1  0  0  0  0  0  0  0  0  0
   26.4187  -19.8367   -9.3136 N   0  0  0  0  0  0  0  0  0  0  0  0
   26.1701  -20.7287  -10.4159 C   0  0  0  0  0  0  0  0  0  0  0  0
   26.9953  -20.5078   -8.1735 O   0  0  0  0  0  0  0  0  0  0  0  0
   26.9277  -21.7986   -8.2191 C   0  0  0  0  0  0  0  0  0  0  0  0
   23.1223  -20.0383  -10.2128 C   0  0  0  0  0  0  0  0  0  0  0  0
   21.9950  -20.8310  -10.2521 N   0  0  0  0  0  0  0  0  0  0  0  0
   27.6131  -19.9775   -7.0261 C   0  0  0  0  0  0  0  0  0  0  0  0
   27.7940  -18.6401   -6.5346 C   0  0  0  0  0  0  0  0  0  0  0  0
   29.1614  -18.6731   -5.8609 C   0  0  0  0  0  0  0  0  0  0  0  0
   29.5514  -20.1120   -5.7717 C   0  0  1  0  0  0  0  0  0  0  0  0
   28.2464  -20.8156   -5.9676 C   0  0  0  0  0  0  0  0  0  0  0  0
   27.4701  -20.8064   -4.7283 O   0  0  0  0  0  0  0  0  0  0  0  0
   26.4142  -20.0739   -4.7266 O   0  0  0  0  0  0  0  0  0  0  0  0
  2  1  1  0
  3  2  2  0
  4  2  1  0
  5  4  1  0
  6  5  1  0
  7  6  1  0
  8 10  1  0
  8  7  1  0
  8  9  1  1
 10 11  2  0
 12 13  1  0
 13 14  2  0
 14 15  1  0
 16 15  2  0
 16 17  1  0
 18 17  1  6
 19 18  1  0
 19 10  1  0
 20 18  1  0
 21 20  2  0
 22 16  1  0
 23 13  1  0
 23 22  2  0
 24 20  1  0
 24 28  1  0
 25 26  1  0
 25 24  1  0
 26 27  1  0
 28 27  1  0
 28 29  1  1
 29 31  1  0
 30 29  2  0
M  END
$$$$
