RYP.pdb
     RDKit          3D

 31 32  0  0  1  0  0  0  0  0999 V2000
   13.8556  -23.8015    0.6139 N   0  0  0  0  0  0  0  0  0  0  0  0
   12.6166  -23.1174    0.4041 C   0  0  0  0  0  0  0  0  0  0  0  0
   11.5913  -23.8180    0.0564 N   0  0  0  0  0  0  0  0  0  0  0  0
   12.5192  -21.7007    0.5745 N   0  0  0  0  0  0  0  0  0  0  0  0
   13.6210  -20.9598    1.1574 C   0  0  0  0  0  0  0  0  0  0  0  0
   13.2118  -20.3888    2.5226 C   0  0  0  0  0  0  0  0  0  0  0  0
   14.4221  -19.7183    3.0854 C   0  0  0  0  0  0  0  0  0  0  0  0
   14.2415  -18.2657    3.3942 C   0  0  2  0  0  0  0  0  0  0  0  0
   13.7339  -17.6270    2.1778 N   0  0  0  0  0  0  0  0  0  0  0  0
   15.4911  -17.5730    3.7764 C   0  0  0  0  0  0  0  0  0  0  0  0
   16.4212  -17.4534    2.9430 O   0  0  0  0  0  0  0  0  0  0  0  0
   10.6891  -23.3460   -0.0718 O   0  0  0  0  0  0  0  0  0  0  0  0
   21.1316  -11.7690    6.8981 C   0  0  0  0  0  0  0  0  0  0  0  0
   20.0157  -12.5718    6.6328 C   0  0  0  0  0  0  0  0  0  0  0  0
   19.4170  -13.2792    7.6403 C   0  0  0  0  0  0  0  0  0  0  0  0
   18.3176  -14.0695    7.3765 C   0  0  0  0  0  0  0  0  0  0  0  0
   17.7967  -14.1681    6.1042 C   0  0  0  0  0  0  0  0  0  0  0  0
   16.6342  -15.0061    5.8369 C   0  0  2  0  0  0  0  0  0  0  0  0
   16.9447  -16.4370    5.4370 N   0  0  0  0  0  0  0  0  0  0  0  0
   15.6836  -17.0280    5.0722 C   0  0  0  0  0  0  0  0  0  0  0  0
   17.6628  -17.2173    6.4159 O   0  0  0  0  0  0  0  0  0  0  0  0
   16.9109  -17.8249    7.2752 C   0  0  0  0  0  0  0  0  0  0  0  0
   18.4127  -13.4484    5.1015 C   0  0  0  0  0  0  0  0  0  0  0  0
   19.5122  -12.6529    5.3446 N   0  0  0  0  0  0  0  0  0  0  0  0
   19.0459  -17.4154    6.5801 C   0  0  0  0  0  0  0  0  0  0  0  0
   20.2027  -16.8745    5.9227 C   0  0  0  0  0  0  0  0  0  0  0  0
   21.1960  -18.0310    5.9058 C   0  0  0  0  0  0  0  0  0  0  0  0
   20.6351  -19.0800    6.8089 C   0  0  1  0  0  0  0  0  0  0  0  0
   19.6340  -18.3147    7.6142 C   0  0  0  0  0  0  0  0  0  0  0  0
   20.3007  -17.5614    8.6757 O   0  0  0  0  0  0  0  0  0  0  0  0
   20.7459  -18.2499    9.6653 O   0  0  0  0  0  0  0  0  0  0  0  0
  2  1  1  0
  3  2  2  0
  4  2  1  0
  5  4  1  0
  6  5  1  0
  7  6  1  0
  8 10  1  0
  8  7  1  0
  8  9  1  6
 10 11  2  0
 12 13  1  0
 13 14  2  0
 14 15  1  0
 16 15  2  0
 16 17  1  0
 18 17  1  6
 19 18  1  0
 19 10  1  0
 20 18  1  0
 21 20  2  0
 22 16  1  0
 23 13  1  0
 23 22  2  0
 24 20  1  0
 24 28  1  0
 25 26  1  0
 25 24  1  0
 26 27  1  0
 28 27  1  0
 28 29  1  1
 29 31  1  0
 30 29  2  0
M  END
$$$$
