RYP.pdb
     RDKit          3D

 31 32  0  0  1  0  0  0  0  0999 V2000
   18.5159  -21.3498  -20.2851 N   0  0  0  0  0  0  0  0  0  0  0  0
   18.6451  -21.6711  -18.8968 C   0  0  0  0  0  0  0  0  0  0  0  0
   18.0598  -22.7364  -18.4664 N   0  0  0  0  0  0  0  0  0  0  0  0
   19.4001  -20.8360  -18.0146 N   0  0  0  0  0  0  0  0  0  0  0  0
   20.5342  -20.0843  -18.5158 C   0  0  0  0  0  0  0  0  0  0  0  0
   21.7852  -20.9736  -18.5510 C   0  0  0  0  0  0  0  0  0  0  0  0
   22.5165  -20.7332  -17.2709 C   0  0  0  0  0  0  0  0  0  0  0  0
   23.5057  -19.6120  -17.3206 C   0  0  2  0  0  0  0  0  0  0  0  0
   24.0843  -19.6081  -18.6662 N   0  0  0  0  0  0  0  0  0  0  0  0
   24.6175  -19.7486  -16.3549 C   0  0  0  0  0  0  0  0  0  0  0  0
   25.5132  -20.6057  -16.5479 O   0  0  0  0  0  0  0  0  0  0  0  0
   18.1235  -22.9681  -17.4687 O   0  0  0  0  0  0  0  0  0  0  0  0
   29.1506  -15.6945  -18.4424 C   0  0  0  0  0  0  0  0  0  0  0  0
   28.4695  -16.2208  -17.3382 C   0  0  0  0  0  0  0  0  0  0  0  0
   28.9883  -17.2823  -16.6469 C   0  0  0  0  0  0  0  0  0  0  0  0
   28.3153  -17.7993  -15.5593 C   0  0  0  0  0  0  0  0  0  0  0  0
   27.1142  -17.2670  -15.1427 C   0  0  0  0  0  0  0  0  0  0  0  0
   26.4118  -17.8210  -13.9917 C   0  0  2  0  0  0  0  0  0  0  0  0
   25.7478  -19.1662  -14.2232 N   0  0  0  0  0  0  0  0  0  0  0  0
   24.7133  -18.9340  -15.1972 C   0  0  0  0  0  0  0  0  0  0  0  0
   25.2594  -19.8334  -13.0405 O   0  0  0  0  0  0  0  0  0  0  0  0
   23.9714  -19.9298  -12.9713 C   0  0  0  0  0  0  0  0  0  0  0  0
   26.6065  -16.1976  -15.8510 C   0  0  0  0  0  0  0  0  0  0  0  0
   27.2635  -15.6666  -16.9405 N   0  0  0  0  0  0  0  0  0  0  0  0
   25.9637  -20.3892  -11.9568 C   0  0  0  0  0  0  0  0  0  0  0  0
   27.3485  -20.3834  -11.5760 C   0  0  0  0  0  0  0  0  0  0  0  0
   27.5662  -21.7535  -10.9435 C   0  0  0  0  0  0  0  0  0  0  0  0
   26.2099  -22.3497  -10.7551 C   0  0  1  0  0  0  0  0  0  0  0  0
   25.3133  -21.1572  -10.8563 C   0  0  0  0  0  0  0  0  0  0  0  0
   25.3115  -20.4112   -9.5985 O   0  0  0  0  0  0  0  0  0  0  0  0
   25.9754  -19.3108   -9.5915 O   0  0  0  0  0  0  0  0  0  0  0  0
  2  1  1  0
  3  2  2  0
  4  2  1  0
  5  4  1  0
  6  5  1  0
  7  6  1  0
  8 10  1  0
  8  7  1  0
  8  9  1  6
 10 11  2  0
 12 13  1  0
 13 14  2  0
 14 15  1  0
 16 15  2  0
 16 17  1  0
 18 17  1  6
 19 18  1  0
 19 10  1  0
 20 18  1  0
 21 20  2  0
 22 16  1  0
 23 13  1  0
 23 22  2  0
 24 20  1  0
 24 28  1  0
 25 26  1  0
 25 24  1  0
 26 27  1  0
 28 27  1  0
 28 29  1  1
 29 31  1  0
 30 29  2  0
M  END
$$$$
