DAN.pdb
     RDKit          3D

 22 21  0  0  1  0  0  0  0  0999 V2000
   25.0105  -31.4972   -7.9467 N   0  0  0  0  0  0  0  0  0  0  0  0
   24.7061  -32.6856   -7.2099 C   0  0  1  0  0  0  0  0  0  0  0  0
   25.6820  -33.7713   -7.6790 C   0  0  0  0  0  0  0  0  0  0  0  0
   25.3135  -35.0684   -7.0390 C   0  0  0  0  0  0  0  0  0  0  0  0
   26.1450  -35.6368   -6.2608 O   0  0  0  0  0  0  0  0  0  0  0  0
   24.8943  -32.5562   -5.7436 C   0  0  0  0  0  0  0  0  0  0  0  0
   25.9885  -32.0876   -5.3370 O   0  0  0  0  0  0  0  0  0  0  0  0
   24.0996  -35.6664   -7.2656 O   0  0  0  0  0  0  0  0  0  0  0  0
   22.7288  -32.3763   -2.8078 C   0  0  0  0  0  0  0  0  0  0  0  0
   24.0912  -32.7728   -3.3415 C   0  0  2  0  0  0  0  0  0  0  0  0
   23.9413  -32.9198   -4.7754 N   0  0  0  0  0  0  0  0  0  0  0  0
   24.5356  -34.0527   -2.7152 C   0  0  0  0  0  0  0  0  0  0  0  0
   24.2558  -35.1046   -3.3056 O   0  0  0  0  0  0  0  0  0  0  0  0
   29.2634  -34.0150   -0.1412 N   0  0  0  0  0  0  0  0  0  0  0  0
   28.0540  -34.4707   -0.6975 C   0  0  0  0  0  0  0  0  0  0  0  0
   27.9613  -34.4305   -1.9667 O   0  0  0  0  0  0  0  0  0  0  0  0
   26.8909  -34.9902    0.0301 C   0  0  0  0  0  0  0  0  0  0  0  0
   25.6806  -35.2413   -0.7885 C   0  0  2  0  0  0  0  0  0  0  0  0
   25.2402  -34.0577   -1.5096 N   0  0  0  0  0  0  0  0  0  0  0  0
   24.5567  -35.8547   -0.0428 C   0  0  0  0  0  0  0  0  0  0  0  0
   23.2910  -35.3575    0.1011 O   0  0  0  0  0  0  0  0  0  0  0  0
   24.7938  -36.9788    0.5341 O   0  0  0  0  0  0  0  0  0  0  0  0
  2  1  1  6
  3  2  1  0
  3  4  1  0
  4  5  2  0
  6  2  1  0
  6 11  1  0
  7  6  2  0
  8  4  1  0
 10 11  1  0
 10  9  1  1
 12 10  1  0
 12 19  1  0
 13 12  2  0
 15 14  1  0
 16 15  2  0
 17 15  1  0
 18 19  1  0
 18 17  1  1
 20 18  1  0
 21 20  1  0
 22 20  2  0
M  END
$$$$
