DAN.pdb
     RDKit          3D

 22 21  0  0  1  0  0  0  0  0999 V2000
   19.5048  -10.8964  -15.5130 N   0  0  0  0  0  0  0  0  0  0  0  0
   19.0404   -9.5673  -15.2570 C   0  0  1  0  0  0  0  0  0  0  0  0
   17.6046   -9.6831  -14.7313 C   0  0  0  0  0  0  0  0  0  0  0  0
   16.7382  -10.2606  -15.8007 C   0  0  0  0  0  0  0  0  0  0  0  0
   16.6802   -9.6839  -16.9338 O   0  0  0  0  0  0  0  0  0  0  0  0
   19.8121   -8.8440  -14.2162 C   0  0  0  0  0  0  0  0  0  0  0  0
   20.0212   -9.4398  -13.1283 O   0  0  0  0  0  0  0  0  0  0  0  0
   16.0015  -11.4000  -15.5964 O   0  0  0  0  0  0  0  0  0  0  0  0
   21.9966   -5.8592  -14.2444 C   0  0  0  0  0  0  0  0  0  0  0  0
   21.2298   -6.8847  -13.4331 C   0  0  2  0  0  0  0  0  0  0  0  0
   20.3256   -7.5422  -14.3552 N   0  0  0  0  0  0  0  0  0  0  0  0
   20.4777   -6.2117  -12.3334 C   0  0  0  0  0  0  0  0  0  0  0  0
   21.1392   -5.6708  -11.4372 O   0  0  0  0  0  0  0  0  0  0  0  0
   17.2849   -2.7885  -10.8336 N   0  0  0  0  0  0  0  0  0  0  0  0
   16.5811   -3.7164  -11.6232 C   0  0  0  0  0  0  0  0  0  0  0  0
   15.5248   -3.2920  -12.1933 O   0  0  0  0  0  0  0  0  0  0  0  0
   16.9377   -5.1193  -11.8611 C   0  0  0  0  0  0  0  0  0  0  0  0
   18.2487   -5.5499  -11.3188 C   0  0  2  0  0  0  0  0  0  0  0  0
   19.0815   -6.1953  -12.3212 N   0  0  0  0  0  0  0  0  0  0  0  0
   18.1593   -6.3775  -10.0931 C   0  0  0  0  0  0  0  0  0  0  0  0
   18.1268   -5.9371   -8.7988 O   0  0  0  0  0  0  0  0  0  0  0  0
   18.1061   -7.6510  -10.2606 O   0  0  0  0  0  0  0  0  0  0  0  0
  2  1  1  1
  3  2  1  0
  3  4  1  0
  4  5  2  0
  6  2  1  0
  6 11  1  0
  7  6  2  0
  8  4  1  0
 10 11  1  0
 10  9  1  6
 12 10  1  0
 12 19  1  0
 13 12  2  0
 15 14  1  0
 16 15  2  0
 17 15  1  0
 18 19  1  0
 18 17  1  6
 20 18  1  0
 21 20  1  0
 22 20  2  0
M  END
$$$$
