DAN.pdb
     RDKit          3D

 22 21  0  0  1  0  0  0  0  0999 V2000
   12.7806  -10.5673  -10.9717 N   0  0  0  0  0  0  0  0  0  0  0  0
   14.0860  -10.5862  -10.3859 C   0  0  1  0  0  0  0  0  0  0  0  0
   14.8673  -11.7214  -11.0582 C   0  0  0  0  0  0  0  0  0  0  0  0
   14.2372  -13.0263  -10.7006 C   0  0  0  0  0  0  0  0  0  0  0  0
   14.1992  -13.3853   -9.4801 O   0  0  0  0  0  0  0  0  0  0  0  0
   14.8702   -9.3463  -10.6094 C   0  0  0  0  0  0  0  0  0  0  0  0
   14.9939   -8.9423  -11.7942 O   0  0  0  0  0  0  0  0  0  0  0  0
   13.6951  -13.8516  -11.6532 O   0  0  0  0  0  0  0  0  0  0  0  0
   16.3670   -6.7241   -8.4223 C   0  0  0  0  0  0  0  0  0  0  0  0
   16.2388   -7.3675   -9.7890 C   0  0  2  0  0  0  0  0  0  0  0  0
   15.4861   -8.5907   -9.5958 N   0  0  0  0  0  0  0  0  0  0  0  0
   17.5917   -7.6538  -10.3508 C   0  0  0  0  0  0  0  0  0  0  0  0
   18.1560   -8.6917   -9.9797 O   0  0  0  0  0  0  0  0  0  0  0  0
   21.4723   -7.7743  -14.0206 N   0  0  0  0  0  0  0  0  0  0  0  0
   20.3995   -8.6269  -13.7017 C   0  0  0  0  0  0  0  0  0  0  0  0
   20.3800   -9.7586  -14.2847 O   0  0  0  0  0  0  0  0  0  0  0  0
   19.3037   -8.3508  -12.7663 C   0  0  0  0  0  0  0  0  0  0  0  0
   19.3873   -7.0601  -12.0417 C   0  0  2  0  0  0  0  0  0  0  0  0
   18.1929   -6.7813  -11.2604 N   0  0  0  0  0  0  0  0  0  0  0  0
   19.7420   -5.9029  -12.8964 C   0  0  0  0  0  0  0  0  0  0  0  0
   20.9749   -5.3293  -13.0413 O   0  0  0  0  0  0  0  0  0  0  0  0
   18.7878   -5.3771  -13.5789 O   0  0  0  0  0  0  0  0  0  0  0  0
  2  1  1  6
  3  2  1  0
  3  4  1  0
  4  5  2  0
  6  2  1  0
  6 11  1  0
  7  6  2  0
  8  4  1  0
 10 11  1  0
 10  9  1  1
 12 10  1  0
 12 19  1  0
 13 12  2  0
 15 14  1  0
 16 15  2  0
 17 15  1  0
 18 19  1  0
 18 17  1  6
 20 18  1  0
 21 20  1  0
 22 20  2  0
M  END
$$$$
