DAN.pdb
     RDKit          3D

 22 21  0  0  1  0  0  0  0  0999 V2000
   18.5673  -13.0819  -15.7611 N   0  0  0  0  0  0  0  0  0  0  0  0
   18.6580  -11.8779  -16.5293 C   0  0  1  0  0  0  0  0  0  0  0  0
   17.2803  -11.2064  -16.4824 C   0  0  0  0  0  0  0  0  0  0  0  0
   16.2723  -12.1163  -17.1018 C   0  0  0  0  0  0  0  0  0  0  0  0
   16.6694  -13.0794  -17.8330 O   0  0  0  0  0  0  0  0  0  0  0  0
   19.6264  -10.8883  -15.9956 C   0  0  0  0  0  0  0  0  0  0  0  0
   19.3794  -10.3811  -14.8714 O   0  0  0  0  0  0  0  0  0  0  0  0
   14.9256  -11.9441  -16.9034 O   0  0  0  0  0  0  0  0  0  0  0  0
   22.9557   -9.5773  -17.0752 C   0  0  0  0  0  0  0  0  0  0  0  0
   21.7530   -9.5048  -16.1553 C   0  0  2  0  0  0  0  0  0  0  0  0
   20.7984  -10.4746  -16.6537 N   0  0  0  0  0  0  0  0  0  0  0  0
   21.1763   -8.1281  -16.1712 C   0  0  0  0  0  0  0  0  0  0  0  0
   20.4145   -7.8391  -17.1036 O   0  0  0  0  0  0  0  0  0  0  0  0
   18.1227   -3.7110  -14.8130 N   0  0  0  0  0  0  0  0  0  0  0  0
   19.2362   -4.3308  -14.2165 C   0  0  0  0  0  0  0  0  0  0  0  0
   19.9046   -3.6274  -13.3922 O   0  0  0  0  0  0  0  0  0  0  0  0
   19.7056   -5.7023  -14.4415 C   0  0  0  0  0  0  0  0  0  0  0  0
   21.0229   -5.8290  -15.1101 C   0  0  2  0  0  0  0  0  0  0  0  0
   21.4872   -7.2058  -15.1700 N   0  0  0  0  0  0  0  0  0  0  0  0
   22.0733   -4.9401  -14.5607 C   0  0  0  0  0  0  0  0  0  0  0  0
   23.0972   -5.2892  -13.7241 O   0  0  0  0  0  0  0  0  0  0  0  0
   22.0198   -3.7031  -14.9065 O   0  0  0  0  0  0  0  0  0  0  0  0
  2  1  1  1
  3  2  1  0
  3  4  1  0
  4  5  2  0
  6  2  1  0
  6 11  1  0
  7  6  2  0
  8  4  1  0
 10 11  1  0
 10  9  1  6
 12 10  1  0
 12 19  1  0
 13 12  2  0
 15 14  1  0
 16 15  2  0
 17 15  1  0
 18 19  1  0
 18 17  1  1
 20 18  1  0
 21 20  1  0
 22 20  2  0
M  END
$$$$
