VWG.pdb
     RDKit          3D

 26 27  0  0  1  0  0  0  0  0999 V2000
    9.7125  -14.4053   19.9527 C   0  0  0  0  0  0  0  0  0  0  0  0
    8.2963  -13.9856   20.2565 C   0  0  1  0  0  0  0  0  0  0  0  0
    7.4532  -13.8008   19.0292 C   0  0  0  0  0  0  0  0  0  0  0  0
    7.6899  -14.9081   21.2682 C   0  0  2  0  0  0  0  0  0  0  0  0
    6.2759  -14.7546   21.4435 N   0  0  0  0  0  0  0  0  0  0  0  0
    8.3679  -14.6786   22.5747 C   0  0  0  0  0  0  0  0  0  0  0  0
    8.4563  -13.5289   23.0781 O   0  0  0  0  0  0  0  0  0  0  0  0
    8.9366  -15.7493   23.2941 N   0  0  0  0  0  0  0  0  0  0  0  0
    9.7161  -15.5922   24.5057 C   0  0  1  0  0  0  0  0  0  0  0  0
    8.8949  -16.1140   25.6559 C   0  0  0  0  0  0  0  0  0  0  0  0
    7.6756  -15.2958   25.8844 C   0  0  0  0  0  0  0  0  0  0  0  0
    6.3832  -15.7443   25.7201 C   0  0  0  0  0  0  0  0  0  0  0  0
    5.5297  -14.7266   26.0193 N   0  0  0  0  0  0  0  0  0  0  0  0
    6.2163  -13.6350   26.3712 C   0  0  0  0  0  0  0  0  0  0  0  0
    5.8992  -12.3440   26.7665 C   0  0  0  0  0  0  0  0  0  0  0  0
    6.8655  -11.4210   27.0724 C   0  0  0  0  0  0  0  0  0  0  0  0
    8.2039  -11.7577   26.9938 C   0  0  0  0  0  0  0  0  0  0  0  0
    8.5178  -13.0404   26.6010 C   0  0  0  0  0  0  0  0  0  0  0  0
    7.5646  -13.9849   26.2888 C   0  0  0  0  0  0  0  0  0  0  0  0
   10.9827  -16.3169   24.3158 C   0  0  0  0  0  0  0  0  0  0  0  0
   11.7040  -16.5052   25.3289 O   0  0  0  0  0  0  0  0  0  0  0  0
   11.4266  -16.8085   23.0617 N   0  0  0  0  0  0  0  0  0  0  0  0
   12.6615  -17.4896   22.8443 C   0  0  0  0  0  0  0  0  0  0  0  0
   13.7446  -16.5015   22.6656 C   0  0  0  0  0  0  0  0  0  0  0  0
   14.4469  -16.0771   23.7810 O   0  0  0  0  0  0  0  0  0  0  0  0
   14.0671  -16.0234   21.5636 O   0  0  0  0  0  0  0  0  0  0  0  0
  2  1  1  6
  2  4  1  0
  3  2  1  0
  4  5  1  1
  6  8  1  0
  6  4  1  0
  7  6  2  0
  9  8  1  0
 10 11  1  0
  9 10  1  1
 11 12  2  0
 11 19  1  0
 12 13  1  0
 13 14  1  0
 14 15  2  0
 15 16  1  0
 17 16  2  0
 18 17  1  0
 19 18  2  0
 19 14  1  0
 20  9  1  0
 20 22  1  0
 21 20  2  0
 23 22  1  0
 24 23  1  0
 25 24  1  0
 26 24  2  0
M  END
$$$$
