VWG.pdb
     RDKit          3D

 26 27  0  0  1  0  0  0  0  0999 V2000
    8.2433  -12.7262   20.2582 C   0  0  0  0  0  0  0  0  0  0  0  0
    7.3384  -13.8774   20.6187 C   0  0  1  0  0  0  0  0  0  0  0  0
    6.1943  -14.0572   19.6648 C   0  0  0  0  0  0  0  0  0  0  0  0
    8.1446  -15.1214   20.8309 C   0  0  2  0  0  0  0  0  0  0  0  0
    7.3679  -16.3142   20.9977 N   0  0  0  0  0  0  0  0  0  0  0  0
    8.9967  -14.9252   22.0370 C   0  0  0  0  0  0  0  0  0  0  0  0
    9.7930  -13.9557   22.1304 O   0  0  0  0  0  0  0  0  0  0  0  0
    8.9381  -15.8258   23.1201 N   0  0  0  0  0  0  0  0  0  0  0  0
    9.8365  -15.7906   24.2567 C   0  0  1  0  0  0  0  0  0  0  0  0
    9.0508  -16.1833   25.4806 C   0  0  0  0  0  0  0  0  0  0  0  0
    7.8488  -15.3296   25.6668 C   0  0  0  0  0  0  0  0  0  0  0  0
    6.5503  -15.7400   25.4570 C   0  0  0  0  0  0  0  0  0  0  0  0
    5.7171  -14.6977   25.7268 N   0  0  0  0  0  0  0  0  0  0  0  0
    6.4226  -13.6267   26.1035 C   0  0  0  0  0  0  0  0  0  0  0  0
    6.1298  -12.3267   26.4884 C   0  0  0  0  0  0  0  0  0  0  0  0
    7.1115  -11.4325   26.8287 C   0  0  0  0  0  0  0  0  0  0  0  0
    8.4413  -11.8082   26.7969 C   0  0  0  0  0  0  0  0  0  0  0  0
    8.7311  -13.0997   26.4143 C   0  0  0  0  0  0  0  0  0  0  0  0
    7.7622  -14.0159   26.0681 C   0  0  0  0  0  0  0  0  0  0  0  0
   10.9569  -16.6991   23.9651 C   0  0  0  0  0  0  0  0  0  0  0  0
   10.7929  -17.9227   24.2061 O   0  0  0  0  0  0  0  0  0  0  0  0
   12.1989  -16.2696   23.4318 N   0  0  0  0  0  0  0  0  0  0  0  0
   13.2830  -17.1336   23.0939 C   0  0  0  0  0  0  0  0  0  0  0  0
   14.2918  -17.1037   24.1723 C   0  0  0  0  0  0  0  0  0  0  0  0
   14.0463  -17.8207   25.3312 O   0  0  0  0  0  0  0  0  0  0  0  0
   15.3584  -16.4678   24.1015 O   0  0  0  0  0  0  0  0  0  0  0  0
  2  1  1  6
  2  4  1  0
  3  2  1  0
  4  5  1  1
  6  8  1  0
  6  4  1  0
  7  6  2  0
  9  8  1  0
 10 11  1  0
  9 10  1  1
 11 12  2  0
 11 19  1  0
 12 13  1  0
 13 14  1  0
 14 15  2  0
 15 16  1  0
 17 16  2  0
 18 17  1  0
 19 18  2  0
 19 14  1  0
 20  9  1  0
 20 22  1  0
 21 20  2  0
 23 22  1  0
 24 23  1  0
 25 24  1  0
 26 24  2  0
M  END
$$$$
