VWG.pdb
     RDKit          3D

 26 27  0  0  1  0  0  0  0  0999 V2000
    8.1231  -12.6604   20.4478 C   0  0  0  0  0  0  0  0  0  0  0  0
    7.3004  -13.9059   20.6620 C   0  0  1  0  0  0  0  0  0  0  0  0
    6.2340  -14.1014   19.6247 C   0  0  0  0  0  0  0  0  0  0  0  0
    8.1962  -15.0936   20.8335 C   0  0  2  0  0  0  0  0  0  0  0  0
    7.5096  -16.3447   20.9637 N   0  0  0  0  0  0  0  0  0  0  0  0
    9.0362  -14.8736   22.0439 C   0  0  0  0  0  0  0  0  0  0  0  0
    9.7142  -13.8243   22.1936 O   0  0  0  0  0  0  0  0  0  0  0  0
    9.0994  -15.8405   23.0679 N   0  0  0  0  0  0  0  0  0  0  0  0
    9.9435  -15.7294   24.2407 C   0  0  1  0  0  0  0  0  0  0  0  0
    9.1253  -16.1312   25.4401 C   0  0  0  0  0  0  0  0  0  0  0  0
    7.9005  -15.3015   25.5806 C   0  0  0  0  0  0  0  0  0  0  0  0
    6.6159  -15.7490   25.3620 C   0  0  0  0  0  0  0  0  0  0  0  0
    5.7539  -14.7194   25.5863 N   0  0  0  0  0  0  0  0  0  0  0  0
    6.4275  -13.6209   25.9419 C   0  0  0  0  0  0  0  0  0  0  0  0
    6.0976  -12.3175   26.2824 C   0  0  0  0  0  0  0  0  0  0  0  0
    7.0520  -11.3901   26.6115 C   0  0  0  0  0  0  0  0  0  0  0  0
    8.3907  -11.7346   26.6129 C   0  0  0  0  0  0  0  0  0  0  0  0
    8.7173  -13.0297   26.2745 C   0  0  0  0  0  0  0  0  0  0  0  0
    7.7762  -13.9788   25.9403 C   0  0  0  0  0  0  0  0  0  0  0  0
   11.1207  -16.5852   24.0230 C   0  0  0  0  0  0  0  0  0  0  0  0
   10.9188  -17.8000   23.7671 O   0  0  0  0  0  0  0  0  0  0  0  0
   12.4571  -16.1146   24.0864 N   0  0  0  0  0  0  0  0  0  0  0  0
   13.6083  -16.8812   23.7355 C   0  0  0  0  0  0  0  0  0  0  0  0
   14.1097  -17.5923   24.9291 C   0  0  0  0  0  0  0  0  0  0  0  0
   15.4646  -17.8628   25.0205 O   0  0  0  0  0  0  0  0  0  0  0  0
   13.3816  -17.9659   25.8657 O   0  0  0  0  0  0  0  0  0  0  0  0
  2  1  1  6
  2  4  1  0
  3  2  1  0
  4  5  1  1
  6  8  1  0
  6  4  1  0
  7  6  2  0
  9  8  1  0
 10 11  1  0
  9 10  1  1
 11 12  2  0
 11 19  1  0
 12 13  1  0
 13 14  1  0
 14 15  2  0
 15 16  1  0
 17 16  2  0
 18 17  1  0
 19 18  2  0
 19 14  1  0
 20  9  1  0
 20 22  1  0
 21 20  2  0
 23 22  1  0
 24 23  1  0
 25 24  1  0
 26 24  2  0
M  END
$$$$
