VWG.pdb
     RDKit          3D

 26 27  0  0  1  0  0  0  0  0999 V2000
    7.1646  -13.6725   19.4019 C   0  0  0  0  0  0  0  0  0  0  0  0
    7.8578  -13.6720   20.7411 C   0  0  1  0  0  0  0  0  0  0  0  0
    6.9950  -13.1634   21.8584 C   0  0  0  0  0  0  0  0  0  0  0  0
    8.4600  -15.0161   21.0116 C   0  0  2  0  0  0  0  0  0  0  0  0
    7.5074  -16.0728   21.1834 N   0  0  0  0  0  0  0  0  0  0  0  0
    9.2970  -14.9138   22.2397 C   0  0  0  0  0  0  0  0  0  0  0  0
   10.1517  -14.0012   22.3803 O   0  0  0  0  0  0  0  0  0  0  0  0
    9.1579  -15.8426   23.2911 N   0  0  0  0  0  0  0  0  0  0  0  0
    9.8694  -15.7577   24.5508 C   0  0  1  0  0  0  0  0  0  0  0  0
    8.9428  -16.2335   25.6391 C   0  0  0  0  0  0  0  0  0  0  0  0
    7.7340  -15.3768   25.7537 C   0  0  0  0  0  0  0  0  0  0  0  0
    6.4458  -15.7927   25.4968 C   0  0  0  0  0  0  0  0  0  0  0  0
    5.6019  -14.7452   25.7068 N   0  0  0  0  0  0  0  0  0  0  0  0
    6.2906  -13.6655   26.0897 C   0  0  0  0  0  0  0  0  0  0  0  0
    5.9816  -12.3575   26.4324 C   0  0  0  0  0  0  0  0  0  0  0  0
    6.9478  -11.4552   26.7950 C   0  0  0  0  0  0  0  0  0  0  0  0
    8.2777  -11.8306   26.8295 C   0  0  0  0  0  0  0  0  0  0  0  0
    8.5835  -13.1301   26.4889 C   0  0  0  0  0  0  0  0  0  0  0  0
    7.6303  -14.0545   26.1214 C   0  0  0  0  0  0  0  0  0  0  0  0
   11.0905  -16.5696   24.4265 C   0  0  0  0  0  0  0  0  0  0  0  0
   11.7204  -16.8400   25.4811 O   0  0  0  0  0  0  0  0  0  0  0  0
   11.5878  -17.0573   23.1911 N   0  0  0  0  0  0  0  0  0  0  0  0
   12.6235  -18.0295   23.0565 C   0  0  0  0  0  0  0  0  0  0  0  0
   13.9366  -17.3803   23.2459 C   0  0  0  0  0  0  0  0  0  0  0  0
   14.8743  -17.4702   22.2309 O   0  0  0  0  0  0  0  0  0  0  0  0
   14.2538  -16.7519   24.2713 O   0  0  0  0  0  0  0  0  0  0  0  0
  2  1  1  6
  2  4  1  0
  3  2  1  0
  4  5  1  1
  6  8  1  0
  6  4  1  0
  7  6  2  0
  9  8  1  0
 10 11  1  0
  9 10  1  1
 11 12  2  0
 11 19  1  0
 12 13  1  0
 13 14  1  0
 14 15  2  0
 15 16  1  0
 17 16  2  0
 18 17  1  0
 19 18  2  0
 19 14  1  0
 20  9  1  0
 20 22  1  0
 21 20  2  0
 23 22  1  0
 24 23  1  0
 25 24  1  0
 26 24  2  0
M  END
$$$$
