VWG.pdb
     RDKit          3D

 26 27  0  0  1  0  0  0  0  0999 V2000
    7.5392  -15.4926   18.7006 C   0  0  0  0  0  0  0  0  0  0  0  0
    8.2689  -15.0841   19.9554 C   0  0  1  0  0  0  0  0  0  0  0  0
    9.1964  -13.9221   19.7538 C   0  0  0  0  0  0  0  0  0  0  0  0
    7.2970  -14.8890   21.0778 C   0  0  2  0  0  0  0  0  0  0  0  0
    6.3889  -13.7952   20.8970 N   0  0  0  0  0  0  0  0  0  0  0  0
    8.0705  -14.6742   22.3327 C   0  0  0  0  0  0  0  0  0  0  0  0
    8.3181  -13.5186   22.7645 O   0  0  0  0  0  0  0  0  0  0  0  0
    8.5536  -15.7661   23.0823 N   0  0  0  0  0  0  0  0  0  0  0  0
    9.3495  -15.6375   24.2866 C   0  0  1  0  0  0  0  0  0  0  0  0
    8.5017  -16.0778   25.4514 C   0  0  0  0  0  0  0  0  0  0  0  0
    7.3463  -15.1697   25.6723 C   0  0  0  0  0  0  0  0  0  0  0  0
    6.0247  -15.5194   25.5001 C   0  0  0  0  0  0  0  0  0  0  0  0
    5.2487  -14.4400   25.7939 N   0  0  0  0  0  0  0  0  0  0  0  0
    6.0136  -13.4032   26.1499 C   0  0  0  0  0  0  0  0  0  0  0  0
    5.7924  -12.0916   26.5431 C   0  0  0  0  0  0  0  0  0  0  0  0
    6.8238  -11.2442   26.8547 C   0  0  0  0  0  0  0  0  0  0  0  0
    8.1334  -11.6809   26.7845 C   0  0  0  0  0  0  0  0  0  0  0  0
    8.3520  -12.9839   26.3938 C   0  0  0  0  0  0  0  0  0  0  0  0
    7.3321  -13.8539   26.0758 C   0  0  0  0  0  0  0  0  0  0  0  0
   10.5624  -16.4512   24.1060 C   0  0  0  0  0  0  0  0  0  0  0  0
   11.2187  -16.7552   25.1351 O   0  0  0  0  0  0  0  0  0  0  0  0
   11.0238  -16.9050   22.8441 N   0  0  0  0  0  0  0  0  0  0  0  0
   12.2010  -17.6850   22.6394 C   0  0  0  0  0  0  0  0  0  0  0  0
   13.3929  -16.8690   22.9478 C   0  0  0  0  0  0  0  0  0  0  0  0
   14.4018  -17.4299   23.7126 O   0  0  0  0  0  0  0  0  0  0  0  0
   13.5465  -15.6978   22.5582 O   0  0  0  0  0  0  0  0  0  0  0  0
  2  1  1  6
  2  4  1  0
  3  2  1  0
  4  5  1  6
  6  8  1  0
  6  4  1  0
  7  6  2  0
  9  8  1  0
 10 11  1  0
  9 10  1  1
 11 12  2  0
 11 19  1  0
 12 13  1  0
 13 14  1  0
 14 15  2  0
 15 16  1  0
 17 16  2  0
 18 17  1  0
 19 18  2  0
 19 14  1  0
 20  9  1  0
 20 22  1  0
 21 20  2  0
 23 22  1  0
 24 23  1  0
 25 24  1  0
 26 24  2  0
M  END
$$$$
