VWG.pdb
     RDKit          3D

 26 27  0  0  1  0  0  0  0  0999 V2000
    7.0660  -17.5965   19.4647 C   0  0  0  0  0  0  0  0  0  0  0  0
    8.0657  -17.0713   20.4641 C   0  0  1  0  0  0  0  0  0  0  0  0
    9.4719  -17.0424   19.9414 C   0  0  0  0  0  0  0  0  0  0  0  0
    7.6032  -15.7584   21.0162 C   0  0  2  0  0  0  0  0  0  0  0  0
    7.5311  -14.6988   20.0540 N   0  0  0  0  0  0  0  0  0  0  0  0
    8.5332  -15.3581   22.1090 C   0  0  0  0  0  0  0  0  0  0  0  0
    9.2588  -14.3345   22.0147 O   0  0  0  0  0  0  0  0  0  0  0  0
    8.6313  -16.1184   23.2921 N   0  0  0  0  0  0  0  0  0  0  0  0
    9.5169  -15.7981   24.3937 C   0  0  1  0  0  0  0  0  0  0  0  0
    8.7827  -16.0864   25.6772 C   0  0  0  0  0  0  0  0  0  0  0  0
    7.5507  -15.2661   25.8089 C   0  0  0  0  0  0  0  0  0  0  0  0
    6.2666  -15.7428   25.6598 C   0  0  0  0  0  0  0  0  0  0  0  0
    5.3967  -14.7131   25.8515 N   0  0  0  0  0  0  0  0  0  0  0  0
    6.0647  -13.5866   26.1190 C   0  0  0  0  0  0  0  0  0  0  0  0
    5.7263  -12.2697   26.3927 C   0  0  0  0  0  0  0  0  0  0  0  0
    6.6767  -11.3119   26.6347 C   0  0  0  0  0  0  0  0  0  0  0  0
    8.0198  -11.6380   26.6121 C   0  0  0  0  0  0  0  0  0  0  0  0
    8.3548  -12.9464   26.3401 C   0  0  0  0  0  0  0  0  0  0  0  0
    7.4180  -13.9261   26.0939 C   0  0  0  0  0  0  0  0  0  0  0  0
   10.7400  -16.5995   24.2273 C   0  0  0  0  0  0  0  0  0  0  0  0
   11.5825  -16.5776   25.1611 O   0  0  0  0  0  0  0  0  0  0  0  0
   11.0140  -17.3866   23.0798 N   0  0  0  0  0  0  0  0  0  0  0  0
   12.1614  -18.2192   22.9180 C   0  0  0  0  0  0  0  0  0  0  0  0
   13.2804  -17.4178   22.3820 C   0  0  0  0  0  0  0  0  0  0  0  0
   14.4046  -17.2368   23.1700 O   0  0  0  0  0  0  0  0  0  0  0  0
   13.2739  -16.8912   21.2553 O   0  0  0  0  0  0  0  0  0  0  0  0
  2  1  1  6
  2  4  1  0
  3  2  1  0
  4  5  1  6
  6  8  1  0
  6  4  1  0
  7  6  2  0
  9  8  1  0
 10 11  1  0
  9 10  1  1
 11 12  2  0
 11 19  1  0
 12 13  1  0
 13 14  1  0
 14 15  2  0
 15 16  1  0
 17 16  2  0
 18 17  1  0
 19 18  2  0
 19 14  1  0
 20  9  1  0
 20 22  1  0
 21 20  2  0
 23 22  1  0
 24 23  1  0
 25 24  1  0
 26 24  2  0
M  END
$$$$
