VWG.pdb
     RDKit          3D

 26 27  0  0  1  0  0  0  0  0999 V2000
    8.7669  -16.9189   20.1168 C   0  0  0  0  0  0  0  0  0  0  0  0
    8.1749  -15.5922   19.7123 C   0  0  1  0  0  0  0  0  0  0  0  0
    7.3900  -15.6546   18.4351 C   0  0  0  0  0  0  0  0  0  0  0  0
    7.4142  -14.9957   20.8560 C   0  0  2  0  0  0  0  0  0  0  0  0
    6.8312  -13.7156   20.5815 N   0  0  0  0  0  0  0  0  0  0  0  0
    8.3400  -14.8678   22.0160 C   0  0  0  0  0  0  0  0  0  0  0  0
    9.0053  -13.8188   22.2155 O   0  0  0  0  0  0  0  0  0  0  0  0
    8.5019  -15.9254   22.9342 N   0  0  0  0  0  0  0  0  0  0  0  0
    9.3780  -15.8743   24.0875 C   0  0  1  0  0  0  0  0  0  0  0  0
    8.5763  -16.2805   25.2965 C   0  0  0  0  0  0  0  0  0  0  0  0
    7.4864  -15.3141   25.5909 C   0  0  0  0  0  0  0  0  0  0  0  0
    6.1401  -15.5940   25.5041 C   0  0  0  0  0  0  0  0  0  0  0  0
    5.4419  -14.4765   25.8468 N   0  0  0  0  0  0  0  0  0  0  0  0
    6.2812  -13.4821   26.1528 C   0  0  0  0  0  0  0  0  0  0  0  0
    6.1545  -12.1620   26.5590 C   0  0  0  0  0  0  0  0  0  0  0  0
    7.2465  -11.3704   26.8036 C   0  0  0  0  0  0  0  0  0  0  0  0
    8.5243  -11.8746   26.6495 C   0  0  0  0  0  0  0  0  0  0  0  0
    8.6491  -13.1860   26.2459 C   0  0  0  0  0  0  0  0  0  0  0  0
    7.5669  -14.0007   25.9943 C   0  0  0  0  0  0  0  0  0  0  0  0
   10.5194  -16.7631   23.8175 C   0  0  0  0  0  0  0  0  0  0  0  0
   10.3083  -18.0030   23.8302 O   0  0  0  0  0  0  0  0  0  0  0  0
   11.8314  -16.2974   23.5468 N   0  0  0  0  0  0  0  0  0  0  0  0
   12.9787  -17.1331   23.4013 C   0  0  0  0  0  0  0  0  0  0  0  0
   14.1655  -16.2978   23.1266 C   0  0  0  0  0  0  0  0  0  0  0  0
   14.6965  -15.5395   24.1564 O   0  0  0  0  0  0  0  0  0  0  0  0
   14.7219  -16.2341   22.0160 O   0  0  0  0  0  0  0  0  0  0  0  0
  2  1  1  1
  2  4  1  0
  3  2  1  0
  4  5  1  6
  6  8  1  0
  6  4  1  0
  7  6  2  0
  9  8  1  0
 10 11  1  0
  9 10  1  1
 11 12  2  0
 11 19  1  0
 12 13  1  0
 13 14  1  0
 14 15  2  0
 15 16  1  0
 17 16  2  0
 18 17  1  0
 19 18  2  0
 19 14  1  0
 20  9  1  0
 20 22  1  0
 21 20  2  0
 23 22  1  0
 24 23  1  0
 25 24  1  0
 26 24  2  0
M  END
$$$$
