SLK.pdb
     RDKit          3D

 24 23  0  0  1  0  0  0  0  0999 V2000
   27.8464  -19.9213  -17.0714 O   0  0  0  0  0  0  0  0  0  0  0  0
   26.7715  -20.2747  -16.2578 C   0  0  0  0  0  0  0  0  0  0  0  0
   27.2486  -21.1641  -15.1016 C   0  0  2  0  0  0  0  0  0  0  0  0
   27.6904  -22.4401  -15.5765 N   0  0  0  0  0  0  0  0  0  0  0  0
   26.0816  -21.2724  -14.1684 C   0  0  0  0  0  0  0  0  0  0  0  0
   25.1942  -22.1155  -14.5419 O   0  0  0  0  0  0  0  0  0  0  0  0
   26.3669  -19.8750   -8.7127 C   0  0  0  0  0  0  0  0  0  0  0  0
   26.1919  -20.6453   -9.9988 C   0  0  1  0  0  0  0  0  0  0  0  0
   25.8617  -22.0834   -9.5676 C   0  0  0  0  0  0  0  0  0  0  0  0
   25.0486  -20.1418  -10.7743 C   0  0  0  0  0  0  0  0  0  0  0  0
   24.8203  -20.6747  -12.1428 C   0  0  2  0  0  0  0  0  0  0  0  0
   25.9684  -20.5207  -12.9926 N   0  0  0  0  0  0  0  0  0  0  0  0
   23.6002  -20.2060  -12.8322 C   0  0  0  0  0  0  0  0  0  0  0  0
   23.7281  -19.3919  -13.8124 O   0  0  0  0  0  0  0  0  0  0  0  0
   22.2762  -20.5678  -12.5229 N   0  0  0  0  0  0  0  0  0  0  0  0
   21.1949  -20.6383  -13.4614 C   0  0  1  0  0  0  0  0  0  0  0  0
   21.5675  -21.6274  -14.5508 C   0  0  0  0  0  0  0  0  0  0  0  0
   20.4671  -21.7781  -15.5676 C   0  0  0  0  0  0  0  0  0  0  0  0
   20.7898  -22.8151  -16.6156 C   0  0  0  0  0  0  0  0  0  0  0  0
   19.7006  -22.9700  -17.6428 C   0  0  0  0  0  0  0  0  0  0  0  0
   20.1205  -24.0125  -18.5633 N   0  0  0  0  0  0  0  0  0  0  0  0
   19.8722  -20.8959  -12.8958 C   0  0  0  0  0  0  0  0  0  0  0  0
   18.7760  -20.7199  -13.7355 O   0  0  0  0  0  0  0  0  0  0  0  0
   19.6162  -21.2626  -11.7218 O   0  0  0  0  0  0  0  0  0  0  0  0
  2  1  1  0
  3  2  1  0
  3  4  1  6
  5  6  2  0
  5  3  1  0
  8  7  1  1
  8 10  1  0
  8  9  1  0
 11 10  1  1
 11 12  1  0
 12  5  1  0
 13 11  1  0
 14 13  2  0
 15 13  1  0
 16 17  1  6
 16 15  1  0
 18 17  1  0
 19 18  1  0
 20 19  1  0
 20 21  1  0
 22 23  1  0
 22 16  1  0
 24 22  2  0
M  END
$$$$
