SLK.pdb
     RDKit          3D

 24 23  0  0  1  0  0  0  0  0999 V2000
   19.1793  -10.6020  -12.9218 O   0  0  0  0  0  0  0  0  0  0  0  0
   18.3247   -9.5295  -12.6737 C   0  0  0  0  0  0  0  0  0  0  0  0
   17.2543   -9.9276  -11.6484 C   0  0  2  0  0  0  0  0  0  0  0  0
   16.3880  -10.9410  -12.1693 N   0  0  0  0  0  0  0  0  0  0  0  0
   16.5228   -8.6627  -11.3177 C   0  0  0  0  0  0  0  0  0  0  0  0
   15.7267   -8.2670  -12.2383 O   0  0  0  0  0  0  0  0  0  0  0  0
   14.2554   -7.1210   -6.3852 C   0  0  0  0  0  0  0  0  0  0  0  0
   14.4929   -7.4489   -7.8393 C   0  0  1  0  0  0  0  0  0  0  0  0
   13.2012   -7.0364   -8.5635 C   0  0  0  0  0  0  0  0  0  0  0  0
   15.5900   -6.6453   -8.3982 C   0  0  0  0  0  0  0  0  0  0  0  0
   15.9226   -6.7902   -9.8395 C   0  0  2  0  0  0  0  0  0  0  0  0
   16.6921   -7.9725  -10.1112 N   0  0  0  0  0  0  0  0  0  0  0  0
   16.5348   -5.6137  -10.4911 C   0  0  0  0  0  0  0  0  0  0  0  0
   17.7638   -5.3510  -10.2451 O   0  0  0  0  0  0  0  0  0  0  0  0
   15.8987   -4.7266  -11.3788 N   0  0  0  0  0  0  0  0  0  0  0  0
   16.5157   -3.5928  -12.0022 C   0  0  1  0  0  0  0  0  0  0  0  0
   16.1973   -3.6273  -13.4858 C   0  0  0  0  0  0  0  0  0  0  0  0
   16.8791   -2.5090  -14.2289 C   0  0  0  0  0  0  0  0  0  0  0  0
   16.6076   -2.5543  -15.7128 C   0  0  0  0  0  0  0  0  0  0  0  0
   17.2843   -1.4417  -16.4675 C   0  0  0  0  0  0  0  0  0  0  0  0
   17.0658   -1.6850  -17.8830 N   0  0  0  0  0  0  0  0  0  0  0  0
   16.2299   -2.2944  -11.3953 C   0  0  0  0  0  0  0  0  0  0  0  0
   17.1988   -1.3035  -11.5270 O   0  0  0  0  0  0  0  0  0  0  0  0
   15.1937   -1.9738  -10.7616 O   0  0  0  0  0  0  0  0  0  0  0  0
  2  1  1  0
  3  2  1  0
  3  4  1  6
  5  6  2  0
  5  3  1  0
  8  7  1  1
  8 10  1  0
  8  9  1  0
 11 10  1  1
 11 12  1  0
 12  5  1  0
 13 11  1  0
 14 13  2  0
 15 13  1  0
 16 17  1  6
 16 15  1  0
 18 17  1  0
 19 18  1  0
 20 19  1  0
 20 21  1  0
 22 23  1  0
 22 16  1  0
 24 22  2  0
M  END
$$$$
