SLK.pdb
     RDKit          3D

 24 23  0  0  1  0  0  0  0  0999 V2000
   21.8633  -22.4997  -15.5293 O   0  0  0  0  0  0  0  0  0  0  0  0
   22.1405  -21.2288  -16.0297 C   0  0  0  0  0  0  0  0  0  0  0  0
   21.3679  -20.1647  -15.2384 C   0  0  2  0  0  0  0  0  0  0  0  0
   19.9736  -20.1883  -15.5611 N   0  0  0  0  0  0  0  0  0  0  0  0
   22.0141  -18.8578  -15.5832 C   0  0  0  0  0  0  0  0  0  0  0  0
   21.2090  -17.8630  -15.5786 O   0  0  0  0  0  0  0  0  0  0  0  0
   25.9423  -15.1244  -14.9525 C   0  0  0  0  0  0  0  0  0  0  0  0
   26.1941  -16.2041  -15.9767 C   0  0  1  0  0  0  0  0  0  0  0  0
   27.6793  -16.5696  -15.8228 C   0  0  0  0  0  0  0  0  0  0  0  0
   25.4081  -17.4125  -15.6866 C   0  0  0  0  0  0  0  0  0  0  0  0
   23.9650  -17.4312  -16.0417 C   0  0  2  0  0  0  0  0  0  0  0  0
   23.3757  -18.7319  -15.8841 N   0  0  0  0  0  0  0  0  0  0  0  0
   23.6070  -16.8571  -17.3555 C   0  0  0  0  0  0  0  0  0  0  0  0
   23.7817  -17.5738  -18.4023 O   0  0  0  0  0  0  0  0  0  0  0  0
   23.0785  -15.5743  -17.5891 N   0  0  0  0  0  0  0  0  0  0  0  0
   22.7938  -15.0170  -18.8788 C   0  0  1  0  0  0  0  0  0  0  0  0
   21.3273  -14.6284  -18.9218 C   0  0  0  0  0  0  0  0  0  0  0  0
   20.9185  -14.1430  -20.2873 C   0  0  0  0  0  0  0  0  0  0  0  0
   19.4557  -13.7776  -20.3543 C   0  0  0  0  0  0  0  0  0  0  0  0
   19.0360  -13.2831  -21.7125 C   0  0  0  0  0  0  0  0  0  0  0  0
   17.5911  -13.1338  -21.6900 N   0  0  0  0  0  0  0  0  0  0  0  0
   23.6752  -13.9371  -19.3180 C   0  0  0  0  0  0  0  0  0  0  0  0
   24.1893  -13.0959  -18.3352 O   0  0  0  0  0  0  0  0  0  0  0  0
   24.0218  -13.6843  -20.4988 O   0  0  0  0  0  0  0  0  0  0  0  0
  2  1  1  0
  3  2  1  0
  3  4  1  6
  5  6  2  0
  5  3  1  0
  8  7  1  1
  8 10  1  0
  8  9  1  0
 11 10  1  6
 11 12  1  0
 12  5  1  0
 13 11  1  0
 14 13  2  0
 15 13  1  0
 16 17  1  1
 16 15  1  0
 18 17  1  0
 19 18  1  0
 20 19  1  0
 20 21  1  0
 22 23  1  0
 22 16  1  0
 24 22  2  0
M  END
$$$$
