SLK.pdb
     RDKit          3D

 24 23  0  0  1  0  0  0  0  0999 V2000
   25.2366  -18.6074  -15.2764 O   0  0  0  0  0  0  0  0  0  0  0  0
   26.1444  -17.7926  -14.6022 C   0  0  0  0  0  0  0  0  0  0  0  0
   27.4842  -18.5200  -14.4262 C   0  0  2  0  0  0  0  0  0  0  0  0
   28.1322  -18.7265  -15.6857 N   0  0  0  0  0  0  0  0  0  0  0  0
   27.1560  -19.8068  -13.7327 C   0  0  0  0  0  0  0  0  0  0  0  0
   27.4948  -20.8519  -14.3891 O   0  0  0  0  0  0  0  0  0  0  0  0
   25.5038  -21.2479   -8.1867 C   0  0  0  0  0  0  0  0  0  0  0  0
   25.6328  -20.4597   -9.4675 C   0  0  1  0  0  0  0  0  0  0  0  0
   26.1291  -19.0694   -9.0388 C   0  0  0  0  0  0  0  0  0  0  0  0
   26.6521  -21.0401  -10.3541 C   0  0  0  0  0  0  0  0  0  0  0  0
   26.3700  -21.1259  -11.8108 C   0  0  2  0  0  0  0  0  0  0  0  0
   26.5348  -19.8650  -12.4792 N   0  0  0  0  0  0  0  0  0  0  0  0
   25.0860  -21.7497  -12.1929 C   0  0  0  0  0  0  0  0  0  0  0  0
   24.0231  -21.3818  -11.5805 O   0  0  0  0  0  0  0  0  0  0  0  0
   24.8971  -22.7293  -13.1849 N   0  0  0  0  0  0  0  0  0  0  0  0
   23.8358  -22.7398  -14.1485 C   0  0  1  0  0  0  0  0  0  0  0  0
   22.7004  -21.8807  -13.6228 C   0  0  0  0  0  0  0  0  0  0  0  0
   21.4983  -21.9296  -14.5284 C   0  0  0  0  0  0  0  0  0  0  0  0
   20.3149  -21.1892  -13.9547 C   0  0  0  0  0  0  0  0  0  0  0  0
   19.0738  -21.3254  -14.7953 C   0  0  0  0  0  0  0  0  0  0  0  0
   17.9959  -20.6594  -14.0846 N   0  0  0  0  0  0  0  0  0  0  0  0
   24.2121  -22.3983  -15.5188 C   0  0  0  0  0  0  0  0  0  0  0  0
   24.4444  -23.4535  -16.3965 O   0  0  0  0  0  0  0  0  0  0  0  0
   24.3496  -21.2435  -15.9939 O   0  0  0  0  0  0  0  0  0  0  0  0
  2  1  1  0
  3  2  1  0
  3  4  1  6
  5  6  2  0
  5  3  1  0
  8  7  1  1
  8 10  1  0
  8  9  1  0
 11 10  1  1
 11 12  1  0
 12  5  1  0
 13 11  1  0
 14 13  2  0
 15 13  1  0
 16 17  1  1
 16 15  1  0
 18 17  1  0
 19 18  1  0
 20 19  1  0
 20 21  1  0
 22 23  1  0
 22 16  1  0
 24 22  2  0
M  END
$$$$
