SLK.pdb
     RDKit          3D

 24 23  0  0  1  0  0  0  0  0999 V2000
   25.3883  -25.4719  -19.2017 O   0  0  0  0  0  0  0  0  0  0  0  0
   24.8953  -25.0327  -17.9743 C   0  0  0  0  0  0  0  0  0  0  0  0
   26.0438  -24.8550  -16.9719 C   0  0  2  0  0  0  0  0  0  0  0  0
   26.4771  -26.1155  -16.4500 N   0  0  0  0  0  0  0  0  0  0  0  0
   25.5120  -23.9458  -15.9066 C   0  0  0  0  0  0  0  0  0  0  0  0
   24.9525  -24.5587  -14.9322 O   0  0  0  0  0  0  0  0  0  0  0  0
   27.9661  -19.1229  -14.5751 C   0  0  0  0  0  0  0  0  0  0  0  0
   27.3716  -20.5100  -14.6042 C   0  0  1  0  0  0  0  0  0  0  0  0
   27.6754  -21.1096  -13.2217 C   0  0  0  0  0  0  0  0  0  0  0  0
   25.9098  -20.4640  -14.7556 C   0  0  0  0  0  0  0  0  0  0  0  0
   25.1605  -21.7424  -14.8708 C   0  0  2  0  0  0  0  0  0  0  0  0
   25.6156  -22.5508  -15.9677 N   0  0  0  0  0  0  0  0  0  0  0  0
   23.6865  -21.6381  -14.8820 C   0  0  0  0  0  0  0  0  0  0  0  0
   23.1206  -21.1044  -15.8993 O   0  0  0  0  0  0  0  0  0  0  0  0
   22.8117  -22.0749  -13.8704 N   0  0  0  0  0  0  0  0  0  0  0  0
   21.3910  -21.8835  -13.8630 C   0  0  1  0  0  0  0  0  0  0  0  0
   20.7865  -22.8085  -12.8226 C   0  0  0  0  0  0  0  0  0  0  0  0
   19.2820  -22.8096  -12.8838 C   0  0  0  0  0  0  0  0  0  0  0  0
   18.6697  -23.8484  -11.9763 C   0  0  0  0  0  0  0  0  0  0  0  0
   17.1669  -23.8832  -12.0541 C   0  0  0  0  0  0  0  0  0  0  0  0
   16.7072  -24.8642  -11.0862 N   0  0  0  0  0  0  0  0  0  0  0  0
   20.9319  -20.5031  -13.7234 C   0  0  0  0  0  0  0  0  0  0  0  0
   19.8194  -20.1241  -14.4695 O   0  0  0  0  0  0  0  0  0  0  0  0
   21.4386  -19.6134  -12.9953 O   0  0  0  0  0  0  0  0  0  0  0  0
  2  1  1  0
  3  2  1  0
  3  4  1  1
  5  6  2  0
  5  3  1  0
  8  7  1  1
  8 10  1  0
  8  9  1  0
 11 10  1  6
 11 12  1  0
 12  5  1  0
 13 11  1  0
 14 13  2  0
 15 13  1  0
 16 17  1  1
 16 15  1  0
 18 17  1  0
 19 18  1  0
 20 19  1  0
 20 21  1  0
 22 23  1  0
 22 16  1  0
 24 22  2  0
M  END
$$$$
