SLK.pdb
     RDKit          3D

 24 23  0  0  1  0  0  0  0  0999 V2000
   27.0776  -18.8682  -16.7370 O   0  0  0  0  0  0  0  0  0  0  0  0
   28.2498  -18.9466  -15.9872 C   0  0  0  0  0  0  0  0  0  0  0  0
   28.5437  -20.4047  -15.6093 C   0  0  2  0  0  0  0  0  0  0  0  0
   28.6152  -21.2378  -16.7710 N   0  0  0  0  0  0  0  0  0  0  0  0
   27.4407  -20.8104  -14.6801 C   0  0  0  0  0  0  0  0  0  0  0  0
   26.6619  -21.7065  -15.1581 O   0  0  0  0  0  0  0  0  0  0  0  0
   25.0505  -22.0605   -9.9390 C   0  0  0  0  0  0  0  0  0  0  0  0
   25.2721  -20.5908  -10.2023 C   0  0  1  0  0  0  0  0  0  0  0  0
   25.6939  -19.9962   -8.8489 C   0  0  0  0  0  0  0  0  0  0  0  0
   26.3798  -20.3759  -11.1451 C   0  0  0  0  0  0  0  0  0  0  0  0
   26.1556  -20.6495  -12.5887 C   0  0  2  0  0  0  0  0  0  0  0  0
   27.2735  -20.2610  -13.4031 N   0  0  0  0  0  0  0  0  0  0  0  0
   24.8943  -20.1372  -13.1635 C   0  0  0  0  0  0  0  0  0  0  0  0
   24.9016  -18.9834  -13.7191 O   0  0  0  0  0  0  0  0  0  0  0  0
   23.6518  -20.7972  -13.1696 N   0  0  0  0  0  0  0  0  0  0  0  0
   22.4424  -20.2827  -13.7419 C   0  0  1  0  0  0  0  0  0  0  0  0
   22.5833  -20.2927  -15.2531 C   0  0  0  0  0  0  0  0  0  0  0  0
   21.5437  -21.1658  -15.9046 C   0  0  0  0  0  0  0  0  0  0  0  0
   20.2526  -20.4283  -16.1632 C   0  0  0  0  0  0  0  0  0  0  0  0
   19.2740  -21.2273  -16.9814 C   0  0  0  0  0  0  0  0  0  0  0  0
   18.0473  -20.4534  -17.0642 N   0  0  0  0  0  0  0  0  0  0  0  0
   21.2025  -20.9093  -13.2882 C   0  0  0  0  0  0  0  0  0  0  0  0
   20.0710  -20.1016  -13.2155 O   0  0  0  0  0  0  0  0  0  0  0  0
   21.0470  -22.1101  -12.9535 O   0  0  0  0  0  0  0  0  0  0  0  0
  2  1  1  0
  3  2  1  0
  3  4  1  6
  5  6  2  0
  5  3  1  0
  8  7  1  1
  8 10  1  0
  8  9  1  0
 11 10  1  1
 11 12  1  0
 12  5  1  0
 13 11  1  0
 14 13  2  0
 15 13  1  0
 16 17  1  6
 16 15  1  0
 18 17  1  0
 19 18  1  0
 20 19  1  0
 20 21  1  0
 22 23  1  0
 22 16  1  0
 24 22  2  0
M  END
$$$$
