VSK.pdb
     RDKit          3D

 23 22  0  0  1  0  0  0  0  0999 V2000
    7.7952  -12.3045   27.0421 C   0  0  0  0  0  0  0  0  0  0  0  0
    6.8292  -11.8523   25.9667 C   0  0  2  0  0  0  0  0  0  0  0  0
    5.9686  -10.7517   26.5344 C   0  0  0  0  0  0  0  0  0  0  0  0
    6.0360  -13.0557   25.5338 C   0  0  2  0  0  0  0  0  0  0  0  0
    5.4135  -13.6164   26.7121 N   0  0  0  0  0  0  0  0  0  0  0  0
    6.8441  -14.0440   24.7963 C   0  0  0  0  0  0  0  0  0  0  0  0
    7.2618  -15.0447   25.4295 O   0  0  0  0  0  0  0  0  0  0  0  0
    8.5931  -15.6539   20.4893 O   0  0  0  0  0  0  0  0  0  0  0  0
    8.0442  -14.6088   21.2190 C   0  0  0  0  0  0  0  0  0  0  0  0
    7.8494  -14.9785   22.6737 C   0  0  2  0  0  0  0  0  0  0  0  0
    7.1770  -13.9333   23.4197 N   0  0  0  0  0  0  0  0  0  0  0  0
    9.1539  -15.2490   23.3298 C   0  0  0  0  0  0  0  0  0  0  0  0
    9.8377  -14.3247   23.8465 O   0  0  0  0  0  0  0  0  0  0  0  0
    9.7009  -16.5637   23.4103 N   0  0  0  0  0  0  0  0  0  0  0  0
   10.9284  -16.8581   24.1113 C   0  0  1  0  0  0  0  0  0  0  0  0
   10.7919  -18.0722   24.9677 C   0  0  0  0  0  0  0  0  0  0  0  0
   11.9683  -18.4915   25.7540 C   0  0  0  0  0  0  0  0  0  0  0  0
   11.7098  -19.6784   26.6081 C   0  0  0  0  0  0  0  0  0  0  0  0
   12.9770  -20.0500   27.4173 C   0  0  0  0  0  0  0  0  0  0  0  0
   12.6006  -21.2224   28.1905 N   0  0  0  0  0  0  0  0  0  0  0  0
   12.0634  -16.9019   23.1886 C   0  0  0  0  0  0  0  0  0  0  0  0
   11.8776  -17.0397   21.8034 O   0  0  0  0  0  0  0  0  0  0  0  0
   13.2462  -16.8151   23.5951 O   0  0  0  0  0  0  0  0  0  0  0  0
  2  1  1  1
  2  4  1  0
  2  3  1  0
  4  6  1  0
  4  5  1  1
  6  7  2  0
  9  8  1  0
 10  9  1  6
 10 12  1  0
 11 10  1  0
 11  6  1  0
 12 13  2  0
 12 14  1  0
 14 15  1  0
 15 21  1  0
 15 16  1  6
 17 16  1  0
 18 17  1  0
 19 18  1  0
 20 19  1  0
 21 23  2  0
 21 22  1  0
M  END
$$$$
