VSK.pdb
     RDKit          3D

 23 22  0  0  1  0  0  0  0  0999 V2000
    7.5640  -14.7617   16.2818 C   0  0  0  0  0  0  0  0  0  0  0  0
    8.3373  -14.9351   17.5726 C   0  0  2  0  0  0  0  0  0  0  0  0
    8.0737  -16.3228   18.1008 C   0  0  0  0  0  0  0  0  0  0  0  0
    7.8925  -13.8514   18.5174 C   0  0  2  0  0  0  0  0  0  0  0  0
    8.1128  -12.5818   17.8619 N   0  0  0  0  0  0  0  0  0  0  0  0
    8.5497  -13.9295   19.8348 C   0  0  0  0  0  0  0  0  0  0  0  0
    9.7870  -13.7203   19.8824 O   0  0  0  0  0  0  0  0  0  0  0  0
    6.7396  -15.5417   23.3413 O   0  0  0  0  0  0  0  0  0  0  0  0
    7.5463  -14.4206   23.4780 C   0  0  0  0  0  0  0  0  0  0  0  0
    8.5316  -14.2929   22.3362 C   0  0  2  0  0  0  0  0  0  0  0  0
    7.8715  -14.2256   21.0474 N   0  0  0  0  0  0  0  0  0  0  0  0
    9.4696  -15.4440   22.3159 C   0  0  0  0  0  0  0  0  0  0  0  0
    9.1608  -16.5382   21.7717 O   0  0  0  0  0  0  0  0  0  0  0  0
   10.7650  -15.3736   22.9084 N   0  0  0  0  0  0  0  0  0  0  0  0
   11.6879  -16.4840   22.9043 C   0  0  1  0  0  0  0  0  0  0  0  0
   12.9800  -16.1192   22.2535 C   0  0  0  0  0  0  0  0  0  0  0  0
   12.9285  -15.5951   20.8749 C   0  0  0  0  0  0  0  0  0  0  0  0
   14.2484  -15.1365   20.3723 C   0  0  0  0  0  0  0  0  0  0  0  0
   14.0915  -14.4310   19.0026 C   0  0  0  0  0  0  0  0  0  0  0  0
   15.4404  -14.0472   18.6191 N   0  0  0  0  0  0  0  0  0  0  0  0
   11.8333  -17.0520   24.2451 C   0  0  0  0  0  0  0  0  0  0  0  0
   11.1397  -16.5219   25.3453 O   0  0  0  0  0  0  0  0  0  0  0  0
   12.5788  -18.0353   24.4663 O   0  0  0  0  0  0  0  0  0  0  0  0
  2  1  1  6
  2  4  1  0
  2  3  1  0
  4  6  1  0
  4  5  1  6
  6  7  2  0
  9  8  1  0
 10  9  1  1
 10 12  1  0
 11 10  1  0
 11  6  1  0
 12 13  2  0
 12 14  1  0
 14 15  1  0
 15 21  1  0
 15 16  1  1
 17 16  1  0
 18 17  1  0
 19 18  1  0
 20 19  1  0
 21 23  2  0
 21 22  1  0
M  END
$$$$
