VSK.pdb
     RDKit          3D

 23 22  0  0  1  0  0  0  0  0999 V2000
    8.3953  -16.4213   20.8859 C   0  0  0  0  0  0  0  0  0  0  0  0
    7.0925  -15.6492   20.9159 C   0  0  2  0  0  0  0  0  0  0  0  0
    6.3867  -15.8584   19.5998 C   0  0  0  0  0  0  0  0  0  0  0  0
    7.4262  -14.2061   21.1820 C   0  0  2  0  0  0  0  0  0  0  0  0
    8.2068  -13.7243   20.0646 N   0  0  0  0  0  0  0  0  0  0  0  0
    8.1027  -13.9998   22.4756 C   0  0  0  0  0  0  0  0  0  0  0  0
    9.3584  -14.0042   22.4840 O   0  0  0  0  0  0  0  0  0  0  0  0
    5.9817  -13.6769   26.1371 O   0  0  0  0  0  0  0  0  0  0  0  0
    7.2415  -13.0998   26.0587 C   0  0  0  0  0  0  0  0  0  0  0  0
    8.0941  -13.7509   24.9910 C   0  0  2  0  0  0  0  0  0  0  0  0
    7.4235  -13.7975   23.7068 N   0  0  0  0  0  0  0  0  0  0  0  0
    8.4540  -15.1394   25.3754 C   0  0  0  0  0  0  0  0  0  0  0  0
    7.7433  -16.1238   25.0369 O   0  0  0  0  0  0  0  0  0  0  0  0
    9.6183  -15.4325   26.1452 N   0  0  0  0  0  0  0  0  0  0  0  0
    9.9761  -16.7741   26.5417 C   0  0  1  0  0  0  0  0  0  0  0  0
   11.1702  -17.2656   25.7942 C   0  0  0  0  0  0  0  0  0  0  0  0
   11.6258  -18.6436   26.0611 C   0  0  0  0  0  0  0  0  0  0  0  0
   12.8028  -19.0400   25.2470 C   0  0  0  0  0  0  0  0  0  0  0  0
   13.1708  -20.5209   25.5117 C   0  0  0  0  0  0  0  0  0  0  0  0
   14.3385  -20.7734   24.6830 N   0  0  0  0  0  0  0  0  0  0  0  0
   10.0968  -16.8780   27.9963 C   0  0  0  0  0  0  0  0  0  0  0  0
   10.0633  -18.1216   28.6481 O   0  0  0  0  0  0  0  0  0  0  0  0
   10.2381  -15.8636   28.7194 O   0  0  0  0  0  0  0  0  0  0  0  0
  2  1  1  6
  2  4  1  0
  2  3  1  0
  4  6  1  0
  4  5  1  6
  6  7  2  0
  9  8  1  0
 10  9  1  1
 10 12  1  0
 11 10  1  0
 11  6  1  0
 12 13  2  0
 12 14  1  0
 14 15  1  0
 15 21  1  0
 15 16  1  6
 17 16  1  0
 18 17  1  0
 19 18  1  0
 20 19  1  0
 21 23  2  0
 21 22  1  0
M  END
$$$$
