VSK.pdb
     RDKit          3D

 23 22  0  0  1  0  0  0  0  0999 V2000
    7.3181  -14.2699   17.2883 C   0  0  0  0  0  0  0  0  0  0  0  0
    8.0052  -14.7332   18.5562 C   0  0  2  0  0  0  0  0  0  0  0  0
    7.2386  -15.9083   19.1090 C   0  0  0  0  0  0  0  0  0  0  0  0
    8.0508  -13.5630   19.5014 C   0  0  2  0  0  0  0  0  0  0  0  0
    8.8014  -12.5088   18.8568 N   0  0  0  0  0  0  0  0  0  0  0  0
    8.5920  -13.9136   20.8272 C   0  0  0  0  0  0  0  0  0  0  0  0
    9.8253  -14.1335   20.9139 O   0  0  0  0  0  0  0  0  0  0  0  0
    7.8286  -14.6960   25.6253 O   0  0  0  0  0  0  0  0  0  0  0  0
    7.3246  -14.2655   24.4059 C   0  0  0  0  0  0  0  0  0  0  0  0
    8.3515  -14.3797   23.2999 C   0  0  2  0  0  0  0  0  0  0  0  0
    7.8067  -14.0170   22.0065 N   0  0  0  0  0  0  0  0  0  0  0  0
    8.8779  -15.7653   23.2081 C   0  0  0  0  0  0  0  0  0  0  0  0
    8.2090  -16.6921   22.6766 O   0  0  0  0  0  0  0  0  0  0  0  0
   10.1631  -16.1203   23.7141 N   0  0  0  0  0  0  0  0  0  0  0  0
   10.7030  -17.4555   23.6096 C   0  0  1  0  0  0  0  0  0  0  0  0
   11.7250  -17.5493   22.5267 C   0  0  0  0  0  0  0  0  0  0  0  0
   12.4341  -18.8332   22.3635 C   0  0  0  0  0  0  0  0  0  0  0  0
   13.4681  -18.8007   21.2983 C   0  0  0  0  0  0  0  0  0  0  0  0
   14.1265  -20.1935   21.1393 C   0  0  0  0  0  0  0  0  0  0  0  0
   14.9562  -20.0851   19.9503 N   0  0  0  0  0  0  0  0  0  0  0  0
   11.1649  -17.9393   24.9111 C   0  0  0  0  0  0  0  0  0  0  0  0
   11.0022  -17.1746   26.0778 O   0  0  0  0  0  0  0  0  0  0  0  0
   11.7209  -19.0557   25.0391 O   0  0  0  0  0  0  0  0  0  0  0  0
  2  1  1  6
  2  4  1  0
  2  3  1  0
  4  6  1  0
  4  5  1  6
  6  7  2  0
  9  8  1  0
 10  9  1  1
 10 12  1  0
 11 10  1  0
 11  6  1  0
 12 13  2  0
 12 14  1  0
 14 15  1  0
 15 21  1  0
 15 16  1  6
 17 16  1  0
 18 17  1  0
 19 18  1  0
 20 19  1  0
 21 23  2  0
 21 22  1  0
M  END
$$$$
