VSK.pdb
     RDKit          3D

 23 22  0  0  1  0  0  0  0  0999 V2000
    4.1755  -18.9789   21.0934 C   0  0  0  0  0  0  0  0  0  0  0  0
    5.5291  -18.3073   21.1980 C   0  0  2  0  0  0  0  0  0  0  0  0
    5.5097  -17.3838   22.3900 C   0  0  0  0  0  0  0  0  0  0  0  0
    5.7805  -17.5880   19.9002 C   0  0  2  0  0  0  0  0  0  0  0  0
    5.6991  -18.5636   18.8363 N   0  0  0  0  0  0  0  0  0  0  0  0
    7.0538  -16.8449   19.8902 C   0  0  0  0  0  0  0  0  0  0  0  0
    8.1165  -17.5101   19.8202 O   0  0  0  0  0  0  0  0  0  0  0  0
    7.9013  -12.9877   18.3888 O   0  0  0  0  0  0  0  0  0  0  0  0
    8.2377  -13.2357   19.7122 C   0  0  0  0  0  0  0  0  0  0  0  0
    8.4117  -14.7148   19.9817 C   0  0  2  0  0  0  0  0  0  0  0  0
    7.1506  -15.4290   19.9545 N   0  0  0  0  0  0  0  0  0  0  0  0
    9.0424  -14.9403   21.3071 C   0  0  0  0  0  0  0  0  0  0  0  0
    8.3731  -14.8915   22.3741 O   0  0  0  0  0  0  0  0  0  0  0  0
   10.4336  -15.2230   21.4435 N   0  0  0  0  0  0  0  0  0  0  0  0
   11.0296  -15.6314   22.6937 C   0  0  1  0  0  0  0  0  0  0  0  0
   10.4535  -16.9191   23.1797 C   0  0  0  0  0  0  0  0  0  0  0  0
   11.0890  -17.5553   24.3499 C   0  0  0  0  0  0  0  0  0  0  0  0
   10.4281  -18.8200   24.7606 C   0  0  0  0  0  0  0  0  0  0  0  0
   11.1323  -19.4212   26.0020 C   0  0  0  0  0  0  0  0  0  0  0  0
   10.3766  -20.6219   26.3200 N   0  0  0  0  0  0  0  0  0  0  0  0
   12.4903  -15.6249   22.6069 C   0  0  0  0  0  0  0  0  0  0  0  0
   13.2935  -15.7811   23.7484 O   0  0  0  0  0  0  0  0  0  0  0  0
   13.0842  -15.4832   21.5120 O   0  0  0  0  0  0  0  0  0  0  0  0
  2  1  1  6
  2  4  1  0
  2  3  1  0
  4  6  1  0
  4  5  1  6
  6  7  2  0
  9  8  1  0
 10  9  1  1
 10 12  1  0
 11 10  1  0
 11  6  1  0
 12 13  2  0
 12 14  1  0
 14 15  1  0
 15 21  1  0
 15 16  1  6
 17 16  1  0
 18 17  1  0
 19 18  1  0
 20 19  1  0
 21 23  2  0
 21 22  1  0
M  END
$$$$
