VSK.pdb
     RDKit          3D

 23 22  0  0  1  0  0  0  0  0999 V2000
   10.0050  -21.1958   22.2572 C   0  0  0  0  0  0  0  0  0  0  0  0
    8.6388  -20.6158   21.9550 C   0  0  2  0  0  0  0  0  0  0  0  0
    7.6615  -21.7550   21.8090 C   0  0  0  0  0  0  0  0  0  0  0  0
    8.7644  -19.7846   20.7068 C   0  0  2  0  0  0  0  0  0  0  0  0
    8.9662  -20.6891   19.5972 N   0  0  0  0  0  0  0  0  0  0  0  0
    9.8202  -18.7597   20.8006 C   0  0  0  0  0  0  0  0  0  0  0  0
   11.0129  -19.1412   20.7068 O   0  0  0  0  0  0  0  0  0  0  0  0
    9.1684  -14.6135   21.8243 O   0  0  0  0  0  0  0  0  0  0  0  0
   10.0980  -14.9747   20.8591 C   0  0  0  0  0  0  0  0  0  0  0  0
   10.6207  -16.3782   21.0774 C   0  0  2  0  0  0  0  0  0  0  0  0
    9.5711  -17.3740   20.9896 N   0  0  0  0  0  0  0  0  0  0  0  0
   11.2648  -16.5013   22.4098 C   0  0  0  0  0  0  0  0  0  0  0  0
   10.6396  -16.9539   23.4064 O   0  0  0  0  0  0  0  0  0  0  0  0
   12.6197  -16.1157   22.6327 N   0  0  0  0  0  0  0  0  0  0  0  0
   13.3108  -16.3701   23.8747 C   0  0  1  0  0  0  0  0  0  0  0  0
   13.1968  -17.8012   24.2812 C   0  0  0  0  0  0  0  0  0  0  0  0
   13.8803  -18.2175   25.5211 C   0  0  0  0  0  0  0  0  0  0  0  0
   13.6184  -19.6322   25.8883 C   0  0  0  0  0  0  0  0  0  0  0  0
   14.3527  -19.9960   27.2025 C   0  0  0  0  0  0  0  0  0  0  0  0
   14.0352  -21.3953   27.4373 N   0  0  0  0  0  0  0  0  0  0  0  0
   14.6853  -15.8708   23.8235 C   0  0  0  0  0  0  0  0  0  0  0  0
   15.3506  -15.4340   24.9806 O   0  0  0  0  0  0  0  0  0  0  0  0
   15.3261  -15.8154   22.7472 O   0  0  0  0  0  0  0  0  0  0  0  0
  2  1  1  6
  2  4  1  0
  2  3  1  0
  4  6  1  0
  4  5  1  6
  6  7  2  0
  9  8  1  0
 10  9  1  1
 10 12  1  0
 11 10  1  0
 11  6  1  0
 12 13  2  0
 12 14  1  0
 14 15  1  0
 15 21  1  0
 15 16  1  6
 17 16  1  0
 18 17  1  0
 19 18  1  0
 20 19  1  0
 21 23  2  0
 21 22  1  0
M  END
$$$$
