VSK.pdb
     RDKit          3D

 23 22  0  0  1  0  0  0  0  0999 V2000
    7.3029  -14.6107   17.5532 C   0  0  0  0  0  0  0  0  0  0  0  0
    8.0547  -14.8484   18.8465 C   0  0  2  0  0  0  0  0  0  0  0  0
    7.5568  -16.1352   19.4551 C   0  0  0  0  0  0  0  0  0  0  0  0
    7.8265  -13.6522   19.7307 C   0  0  2  0  0  0  0  0  0  0  0  0
    8.3391  -12.4916   19.0376 N   0  0  0  0  0  0  0  0  0  0  0  0
    8.4082  -13.8104   21.0761 C   0  0  0  0  0  0  0  0  0  0  0  0
    9.6505  -13.6707   21.1943 O   0  0  0  0  0  0  0  0  0  0  0  0
    7.0755  -14.9856   25.5304 O   0  0  0  0  0  0  0  0  0  0  0  0
    7.2473  -13.9184   24.6599 C   0  0  0  0  0  0  0  0  0  0  0  0
    8.2366  -14.2414   23.5609 C   0  0  2  0  0  0  0  0  0  0  0  0
    7.6521  -14.1097   22.2410 N   0  0  0  0  0  0  0  0  0  0  0  0
    8.7510  -15.6272   23.7029 C   0  0  0  0  0  0  0  0  0  0  0  0
    8.0411  -16.6281   23.4145 O   0  0  0  0  0  0  0  0  0  0  0  0
   10.0704  -15.8992   24.1712 N   0  0  0  0  0  0  0  0  0  0  0  0
   10.5833  -17.2398   24.3284 C   0  0  1  0  0  0  0  0  0  0  0  0
   11.9413  -17.3802   23.7265 C   0  0  0  0  0  0  0  0  0  0  0  0
   12.1739  -18.5212   22.8200 C   0  0  0  0  0  0  0  0  0  0  0  0
   13.5695  -18.5964   22.3182 C   0  0  0  0  0  0  0  0  0  0  0  0
   13.7611  -19.8543   21.4353 C   0  0  0  0  0  0  0  0  0  0  0  0
   15.1600  -19.8282   21.0397 N   0  0  0  0  0  0  0  0  0  0  0  0
   10.4997  -17.6746   25.7231 C   0  0  0  0  0  0  0  0  0  0  0  0
   10.1082  -16.7932   26.7440 O   0  0  0  0  0  0  0  0  0  0  0  0
   10.7704  -18.8505   26.0636 O   0  0  0  0  0  0  0  0  0  0  0  0
  2  1  1  6
  2  4  1  0
  2  3  1  0
  4  6  1  0
  4  5  1  6
  6  7  2  0
  9  8  1  0
 10  9  1  1
 10 12  1  0
 11 10  1  0
 11  6  1  0
 12 13  2  0
 12 14  1  0
 14 15  1  0
 15 21  1  0
 15 16  1  1
 17 16  1  0
 18 17  1  0
 19 18  1  0
 20 19  1  0
 21 23  2  0
 21 22  1  0
M  END
$$$$
