PMV.pdb
     RDKit          3D

 23 23  0  0  1  0  0  0  0  0999 V2000
   27.8022  -19.2499  -15.3936 N   0  0  0  0  0  0  0  0  0  0  0  0
   28.8894  -19.0575  -16.3353 C   0  0  0  0  0  0  0  0  0  0  0  0
   29.7194  -20.3264  -16.2936 C   0  0  0  0  0  0  0  0  0  0  0  0
   28.9224  -21.2540  -15.3671 C   0  0  0  0  0  0  0  0  0  0  0  0
   27.5311  -20.6694  -15.5269 C   0  0  1  0  0  0  0  0  0  0  0  0
   26.5983  -21.1553  -14.4869 C   0  0  0  0  0  0  0  0  0  0  0  0
   25.9022  -22.1648  -14.7679 O   0  0  0  0  0  0  0  0  0  0  0  0
   26.2512  -19.0463   -7.8725 C   0  0  0  0  0  0  0  0  0  0  0  0
   26.3015  -20.8422   -8.1868 S   0  0  0  0  0  0  0  0  0  0  0  0
   25.2830  -21.2011   -9.6787 C   0  0  0  0  0  0  0  0  0  0  0  0
   26.1251  -20.8395  -10.8550 C   0  0  0  0  0  0  0  0  0  0  0  0
   25.5153  -21.0584  -12.1990 C   0  0  2  0  0  0  0  0  0  0  0  0
   26.4380  -20.5699  -13.2153 N   0  0  0  0  0  0  0  0  0  0  0  0
   24.1877  -20.4306  -12.3267 C   0  0  0  0  0  0  0  0  0  0  0  0
   24.0829  -19.1929  -12.1982 O   0  0  0  0  0  0  0  0  0  0  0  0
   21.0284  -22.2855  -14.5058 C   0  0  0  0  0  0  0  0  0  0  0  0
   21.2078  -20.8346  -14.2041 C   0  0  2  0  0  0  0  0  0  0  0  0
   22.1072  -20.1574  -15.2022 C   0  0  0  0  0  0  0  0  0  0  0  0
   21.7096  -20.5903  -12.7965 C   0  0  2  0  0  0  0  0  0  0  0  0
   23.0050  -21.1741  -12.5924 N   0  0  0  0  0  0  0  0  0  0  0  0
   20.6877  -21.0600  -11.8513 C   0  0  0  0  0  0  0  0  0  0  0  0
   20.9704  -22.1409  -11.0511 O   0  0  0  0  0  0  0  0  0  0  0  0
   19.5534  -20.5250  -11.7282 O   0  0  0  0  0  0  0  0  0  0  0  0
  1  5  1  0
  2  3  1  0
  2  1  1  0
  3  4  1  0
  4  5  1  0
  5  6  1  1
  6  7  2  0
  9 10  1  0
  9  8  1  0
 10 11  1  0
 12 11  1  1
 12 14  1  0
 13  6  1  0
 13 12  1  0
 14 15  2  0
 17 16  1  6
 17 18  1  0
 17 19  1  0
 19 21  1  0
 19 20  1  1
 20 14  1  0
 21 23  2  0
 21 22  1  0
M  END
$$$$
