PMV.pdb
     RDKit          3D

 23 23  0  0  1  0  0  0  0  0999 V2000
   23.4192  -13.4228  -20.8425 N   0  0  0  0  0  0  0  0  0  0  0  0
   23.1612  -14.4964  -21.7842 C   0  0  0  0  0  0  0  0  0  0  0  0
   22.6606  -15.6709  -20.9653 C   0  0  0  0  0  0  0  0  0  0  0  0
   22.5437  -15.1026  -19.5449 C   0  0  0  0  0  0  0  0  0  0  0  0
   22.3756  -13.6265  -19.8547 C   0  0  1  0  0  0  0  0  0  0  0  0
   22.5720  -12.7789  -18.6586 C   0  0  0  0  0  0  0  0  0  0  0  0
   21.6764  -12.8169  -17.7760 O   0  0  0  0  0  0  0  0  0  0  0  0
   27.6109  -12.7882  -14.8964 C   0  0  0  0  0  0  0  0  0  0  0  0
   27.4932  -11.0091  -15.2805 S   0  0  0  0  0  0  0  0  0  0  0  0
   25.7226  -10.5910  -15.5670 C   0  0  0  0  0  0  0  0  0  0  0  0
   25.3121  -11.3342  -16.7929 C   0  0  0  0  0  0  0  0  0  0  0  0
   23.8969  -11.1585  -17.2317 C   0  0  2  0  0  0  0  0  0  0  0  0
   23.6833  -11.9400  -18.4427 N   0  0  0  0  0  0  0  0  0  0  0  0
   23.5382   -9.7427  -17.4309 C   0  0  0  0  0  0  0  0  0  0  0  0
   24.1951   -9.0545  -18.2398 O   0  0  0  0  0  0  0  0  0  0  0  0
   19.6358   -8.1350  -16.6380 C   0  0  0  0  0  0  0  0  0  0  0  0
   20.7157   -7.6115  -17.5258 C   0  0  2  0  0  0  0  0  0  0  0  0
   20.6948   -8.2601  -18.8832 C   0  0  0  0  0  0  0  0  0  0  0  0
   22.0914   -7.7381  -16.9059 C   0  0  2  0  0  0  0  0  0  0  0  0
   22.4673   -9.1133  -16.7387 N   0  0  0  0  0  0  0  0  0  0  0  0
   22.1133   -6.9578  -15.6612 C   0  0  0  0  0  0  0  0  0  0  0  0
   22.0724   -5.5863  -15.7368 O   0  0  0  0  0  0  0  0  0  0  0  0
   22.1681   -7.4766  -14.5142 O   0  0  0  0  0  0  0  0  0  0  0  0
  1  5  1  0
  2  3  1  0
  2  1  1  0
  3  4  1  0
  4  5  1  0
  5  6  1  1
  6  7  2  0
  9 10  1  0
  9  8  1  0
 10 11  1  0
 12 11  1  6
 12 14  1  0
 13  6  1  0
 13 12  1  0
 14 15  2  0
 17 16  1  1
 17 18  1  0
 17 19  1  0
 19 21  1  0
 19 20  1  1
 20 14  1  0
 21 23  2  0
 21 22  1  0
M  END
$$$$
