PMV.pdb
     RDKit          3D

 23 23  0  0  1  0  0  0  0  0999 V2000
   23.4643  -10.7115  -18.0907 N   0  0  0  0  0  0  0  0  0  0  0  0
   23.8554  -11.7330  -19.0443 C   0  0  0  0  0  0  0  0  0  0  0  0
   22.6237  -12.5845  -19.2863 C   0  0  0  0  0  0  0  0  0  0  0  0
   21.5209  -11.8635  -18.5002 C   0  0  0  0  0  0  0  0  0  0  0  0
   22.0860  -10.4555  -18.4663 C   0  0  1  0  0  0  0  0  0  0  0  0
   21.3929   -9.5991  -17.4795 C   0  0  0  0  0  0  0  0  0  0  0  0
   20.2103   -9.2614  -17.7442 O   0  0  0  0  0  0  0  0  0  0  0  0
   22.3848  -10.5256  -11.7034 C   0  0  0  0  0  0  0  0  0  0  0  0
   21.6665   -8.9104  -11.2536 S   0  0  0  0  0  0  0  0  0  0  0  0
   20.9725   -8.1379  -12.7746 C   0  0  0  0  0  0  0  0  0  0  0  0
   21.6813   -8.7705  -13.9239 C   0  0  0  0  0  0  0  0  0  0  0  0
   21.2513   -8.3396  -15.2862 C   0  0  2  0  0  0  0  0  0  0  0  0
   21.9617   -9.1402  -16.2748 N   0  0  0  0  0  0  0  0  0  0  0  0
   21.4520   -6.8970  -15.5126 C   0  0  0  0  0  0  0  0  0  0  0  0
   22.5975   -6.4139  -15.3936 O   0  0  0  0  0  0  0  0  0  0  0  0
   18.3053   -4.3952  -17.1954 C   0  0  0  0  0  0  0  0  0  0  0  0
   19.7751   -4.1848  -17.3502 C   0  0  2  0  0  0  0  0  0  0  0  0
   20.3164   -4.8639  -18.5787 C   0  0  0  0  0  0  0  0  0  0  0  0
   20.5568   -4.6147  -16.1266 C   0  0  2  0  0  0  0  0  0  0  0  0
   20.3924   -6.0164  -15.8645 N   0  0  0  0  0  0  0  0  0  0  0  0
   20.1741   -3.7486  -15.0033 C   0  0  0  0  0  0  0  0  0  0  0  0
   19.4589   -4.2895  -13.9619 O   0  0  0  0  0  0  0  0  0  0  0  0
   20.4655   -2.5245  -14.9360 O   0  0  0  0  0  0  0  0  0  0  0  0
  1  5  1  0
  2  3  1  0
  2  1  1  0
  3  4  1  0
  4  5  1  0
  5  6  1  1
  6  7  2  0
  9 10  1  0
  9  8  1  0
 10 11  1  0
 12 11  1  1
 12 14  1  0
 13  6  1  0
 13 12  1  0
 14 15  2  0
 17 16  1  1
 17 18  1  0
 17 19  1  0
 19 21  1  0
 19 20  1  1
 20 14  1  0
 21 23  2  0
 21 22  1  0
M  END
$$$$
