PMV.pdb
     RDKit          3D

 23 23  0  0  1  0  0  0  0  0999 V2000
   20.3039  -13.0773  -18.3715 N   0  0  0  0  0  0  0  0  0  0  0  0
   19.6047  -14.3062  -18.6985 C   0  0  0  0  0  0  0  0  0  0  0  0
   19.1762  -14.9175  -17.3781 C   0  0  0  0  0  0  0  0  0  0  0  0
   19.5780  -13.8621  -16.3394 C   0  0  0  0  0  0  0  0  0  0  0  0
   19.5770  -12.6146  -17.2036 C   0  0  1  0  0  0  0  0  0  0  0  0
   20.2549  -11.4775  -16.5438 C   0  0  0  0  0  0  0  0  0  0  0  0
   19.6606  -10.9407  -15.5737 O   0  0  0  0  0  0  0  0  0  0  0  0
   26.3077  -11.5011  -15.1153 C   0  0  0  0  0  0  0  0  0  0  0  0
   26.2706   -9.7963  -15.7628 S   0  0  0  0  0  0  0  0  0  0  0  0
   24.5513   -9.1534  -15.6123 C   0  0  0  0  0  0  0  0  0  0  0  0
   23.6654  -10.1860  -16.2229 C   0  0  0  0  0  0  0  0  0  0  0  0
   22.2028   -9.8913  -16.2177 C   0  0  2  0  0  0  0  0  0  0  0  0
   21.5089  -10.9599  -16.9244 N   0  0  0  0  0  0  0  0  0  0  0  0
   21.8900   -8.5703  -16.7921 C   0  0  0  0  0  0  0  0  0  0  0  0
   22.3898   -8.2484  -17.8904 O   0  0  0  0  0  0  0  0  0  0  0  0
   18.4967   -6.3276  -15.4426 C   0  0  0  0  0  0  0  0  0  0  0  0
   19.1464   -6.2285  -16.7830 C   0  0  2  0  0  0  0  0  0  0  0  0
   18.5774   -7.2202  -17.7609 C   0  0  0  0  0  0  0  0  0  0  0  0
   20.6524   -6.3682  -16.7117 C   0  0  2  0  0  0  0  0  0  0  0  0
   21.0363   -7.6319  -16.1495 N   0  0  0  0  0  0  0  0  0  0  0  0
   21.1929   -5.2065  -15.9928 C   0  0  0  0  0  0  0  0  0  0  0  0
   21.7908   -5.4014  -14.7709 O   0  0  0  0  0  0  0  0  0  0  0  0
   21.1408   -4.0274  -16.4343 O   0  0  0  0  0  0  0  0  0  0  0  0
  1  5  1  0
  2  3  1  0
  2  1  1  0
  3  4  1  0
  4  5  1  0
  5  6  1  1
  6  7  2  0
  9 10  1  0
  9  8  1  0
 10 11  1  0
 12 11  1  6
 12 14  1  0
 13  6  1  0
 13 12  1  0
 14 15  2  0
 17 16  1  1
 17 18  1  0
 17 19  1  0
 19 21  1  0
 19 20  1  1
 20 14  1  0
 21 23  2  0
 21 22  1  0
M  END
$$$$
