HTF.pdb
     RDKit          3D

 29 30  0  0  1  0  0  0  0  0999 V2000
   25.0596  -15.0287  -21.7632 N   0  0  0  0  0  0  0  0  0  0  0  0
   24.1875  -16.1769  -21.6161 C   0  0  1  0  0  0  0  0  0  0  0  0
   24.9194  -17.2255  -20.8289 C   0  0  0  0  0  0  0  0  0  0  0  0
   26.0810  -17.6675  -21.6329 C   0  0  0  0  0  0  0  0  0  0  0  0
   26.0843  -18.6736  -22.5701 C   0  0  0  0  0  0  0  0  0  0  0  0
   27.3213  -18.7966  -23.1028 N   0  0  0  0  0  0  0  0  0  0  0  0
   28.0885  -17.8682  -22.4985 C   0  0  0  0  0  0  0  0  0  0  0  0
   27.3285  -17.1782  -21.5995 N   0  0  0  0  0  0  0  0  0  0  0  0
   22.8945  -15.7949  -20.9694 C   0  0  0  0  0  0  0  0  0  0  0  0
   22.8943  -14.8466  -20.1514 O   0  0  0  0  0  0  0  0  0  0  0  0
   20.1617  -14.1217  -22.2210 C   0  0  0  0  0  0  0  0  0  0  0  0
   19.5409  -15.4329  -21.7632 C   0  0  1  0  0  0  0  0  0  0  0  0
   19.2474  -16.1459  -22.9033 O   0  0  0  0  0  0  0  0  0  0  0  0
   20.3665  -16.1372  -20.7531 C   0  0  2  0  0  0  0  0  0  0  0  0
   21.6856  -16.4602  -21.2465 N   0  0  0  0  0  0  0  0  0  0  0  0
   19.6833  -17.2599  -20.0697 C   0  0  0  0  0  0  0  0  0  0  0  0
   20.0319  -18.4740  -20.1663 O   0  0  0  0  0  0  0  0  0  0  0  0
   18.5787  -16.9884  -19.2540 N   0  0  0  0  0  0  0  0  0  0  0  0
   17.8604  -18.0512  -18.5253 C   0  0  1  0  0  0  0  0  0  0  0  0
   16.8135  -17.3591  -17.7203 C   0  0  0  0  0  0  0  0  0  0  0  0
   15.7034  -16.7804  -18.4688 C   0  0  0  0  0  0  0  0  0  0  0  0
   15.7268  -15.4565  -18.8479 C   0  0  0  0  0  0  0  0  0  0  0  0
   14.6777  -14.9090  -19.5592 C   0  0  0  0  0  0  0  0  0  0  0  0
   13.5940  -15.7311  -19.8835 C   0  0  0  0  0  0  0  0  0  0  0  0
   13.5649  -17.0661  -19.5039 C   0  0  0  0  0  0  0  0  0  0  0  0
   14.6295  -17.5895  -18.7917 C   0  0  0  0  0  0  0  0  0  0  0  0
   17.3176  -18.9584  -19.5659 C   0  0  0  0  0  0  0  0  0  0  0  0
   17.1850  -18.4916  -20.7341 O   0  0  0  0  0  0  0  0  0  0  0  0
   16.9532  -20.2802  -19.3176 O   0  0  0  0  0  0  0  0  0  0  0  0
  2  1  1  1
  2  9  1  0
  3  2  1  0
  4  8  1  0
  4  3  1  0
  5  4  2  0
  6  5  1  0
  6  7  1  0
  7  8  2  0
  9 10  2  0
 12 11  1  6
 13 12  1  0
 14 12  1  0
 15  9  1  0
 14 15  1  6
 16 14  1  0
 16 17  2  0
 18 16  1  0
 19 27  1  0
 19 18  1  0
 19 20  1  6
 21 20  1  0
 21 22  2  0
 23 22  1  0
 24 23  2  0
 25 26  2  0
 25 24  1  0
 26 21  1  0
 27 29  1  0
 28 27  2  0
M  END
$$$$
