HTF.pdb
     RDKit          3D

 29 30  0  0  1  0  0  0  0  0999 V2000
   21.0574  -11.0266  -21.6963 N   0  0  0  0  0  0  0  0  0  0  0  0
   21.3008  -11.0234  -20.2676 C   0  0  1  0  0  0  0  0  0  0  0  0
   22.4680  -11.9256  -19.9873 C   0  0  0  0  0  0  0  0  0  0  0  0
   22.0586  -13.3106  -20.3118 C   0  0  0  0  0  0  0  0  0  0  0  0
   21.0163  -14.0037  -19.7427 C   0  0  0  0  0  0  0  0  0  0  0  0
   20.9405  -15.2402  -20.2854 N   0  0  0  0  0  0  0  0  0  0  0  0
   21.9344  -15.3179  -21.1920 C   0  0  0  0  0  0  0  0  0  0  0  0
   22.6176  -14.1369  -21.2072 N   0  0  0  0  0  0  0  0  0  0  0  0
   21.5342   -9.6357  -19.7616 C   0  0  0  0  0  0  0  0  0  0  0  0
   22.4878   -8.9794  -20.2396 O   0  0  0  0  0  0  0  0  0  0  0  0
   19.3185   -6.8226  -20.0798 C   0  0  0  0  0  0  0  0  0  0  0  0
   19.5885   -6.9019  -18.5848 C   0  0  1  0  0  0  0  0  0  0  0  0
   18.4171   -7.3225  -17.9974 O   0  0  0  0  0  0  0  0  0  0  0  0
   20.7975   -7.6966  -18.2611 C   0  0  2  0  0  0  0  0  0  0  0  0
   20.7244   -9.0458  -18.7732 N   0  0  0  0  0  0  0  0  0  0  0  0
   21.2367   -7.6071  -16.8492 C   0  0  0  0  0  0  0  0  0  0  0  0
   21.0188   -8.4977  -15.9750 O   0  0  0  0  0  0  0  0  0  0  0  0
   21.9446   -6.4756  -16.4277 N   0  0  0  0  0  0  0  0  0  0  0  0
   22.5530   -6.3843  -15.0868 C   0  0  1  0  0  0  0  0  0  0  0  0
   23.9910   -6.7356  -15.2655 C   0  0  0  0  0  0  0  0  0  0  0  0
   24.7356   -5.9310  -16.2276 C   0  0  0  0  0  0  0  0  0  0  0  0
   25.1911   -4.6758  -15.8898 C   0  0  0  0  0  0  0  0  0  0  0  0
   25.8988   -3.9151  -16.7991 C   0  0  0  0  0  0  0  0  0  0  0  0
   26.1403   -4.4506  -18.0681 C   0  0  0  0  0  0  0  0  0  0  0  0
   25.6836   -5.7150  -18.4141 C   0  0  0  0  0  0  0  0  0  0  0  0
   24.9769   -6.4563  -17.4838 C   0  0  0  0  0  0  0  0  0  0  0  0
   22.3260   -4.9900  -14.6344 C   0  0  0  0  0  0  0  0  0  0  0  0
   21.8123   -4.1847  -15.4638 O   0  0  0  0  0  0  0  0  0  0  0  0
   22.6481   -4.5353  -13.3572 O   0  0  0  0  0  0  0  0  0  0  0  0
  2  1  1  6
  2  9  1  0
  3  2  1  0
  4  8  1  0
  4  3  1  0
  5  4  2  0
  6  5  1  0
  6  7  1  0
  7  8  2  0
  9 10  2  0
 12 11  1  6
 13 12  1  0
 14 12  1  0
 15  9  1  0
 14 15  1  1
 16 14  1  0
 16 17  2  0
 18 16  1  0
 19 27  1  0
 19 18  1  0
 19 20  1  6
 21 20  1  0
 21 22  2  0
 23 22  1  0
 24 23  2  0
 25 26  2  0
 25 24  1  0
 26 21  1  0
 27 29  1  0
 28 27  2  0
M  END
$$$$
