HTF.pdb
     RDKit          3D

 29 30  0  0  1  0  0  0  0  0999 V2000
   39.5646  -31.5380  -19.4835 N   0  0  0  0  0  0  0  0  0  0  0  0
   38.2723  -31.9592  -19.9864 C   0  0  1  0  0  0  0  0  0  0  0  0
   38.0917  -33.4136  -19.6591 C   0  0  0  0  0  0  0  0  0  0  0  0
   38.9814  -34.1925  -20.5495 C   0  0  0  0  0  0  0  0  0  0  0  0
   38.9138  -34.2442  -21.9218 C   0  0  0  0  0  0  0  0  0  0  0  0
   39.8856  -35.0566  -22.3961 N   0  0  0  0  0  0  0  0  0  0  0  0
   40.5583  -35.5110  -21.3206 C   0  0  0  0  0  0  0  0  0  0  0  0
   40.0042  -34.9817  -20.1916 N   0  0  0  0  0  0  0  0  0  0  0  0
   37.1717  -31.1193  -19.4212 C   0  0  0  0  0  0  0  0  0  0  0  0
   37.3223  -30.6297  -18.2784 O   0  0  0  0  0  0  0  0  0  0  0  0
   35.8392  -28.0966  -20.9465 C   0  0  0  0  0  0  0  0  0  0  0  0
   34.6001  -28.9274  -20.6490 C   0  0  1  0  0  0  0  0  0  0  0  0
   34.0675  -29.2851  -21.8666 O   0  0  0  0  0  0  0  0  0  0  0  0
   34.8677  -30.0403  -19.7067 C   0  0  2  0  0  0  0  0  0  0  0  0
   35.9804  -30.8620  -20.1248 N   0  0  0  0  0  0  0  0  0  0  0  0
   33.6678  -30.8069  -19.2983 C   0  0  0  0  0  0  0  0  0  0  0  0
   33.5537  -32.0644  -19.4016 O   0  0  0  0  0  0  0  0  0  0  0  0
   32.5748  -30.1212  -18.7558 N   0  0  0  0  0  0  0  0  0  0  0  0
   31.3635  -30.8203  -18.2864 C   0  0  1  0  0  0  0  0  0  0  0  0
   31.3480  -30.6609  -16.8041 C   0  0  0  0  0  0  0  0  0  0  0  0
   30.2086  -31.2448  -16.1054 C   0  0  0  0  0  0  0  0  0  0  0  0
   29.1145  -30.4740  -15.7799 C   0  0  0  0  0  0  0  0  0  0  0  0
   28.0343  -31.0270  -15.1214 C   0  0  0  0  0  0  0  0  0  0  0  0
   28.0798  -32.3859  -14.7945 C   0  0  0  0  0  0  0  0  0  0  0  0
   29.1799  -33.1676  -15.1200 C   0  0  0  0  0  0  0  0  0  0  0  0
   30.2491  -32.5882  -15.7800 C   0  0  0  0  0  0  0  0  0  0  0  0
   30.2255  -30.1628  -18.9742 C   0  0  0  0  0  0  0  0  0  0  0  0
   30.3531  -28.9402  -19.2729 O   0  0  0  0  0  0  0  0  0  0  0  0
   29.0417  -30.8213  -19.3005 O   0  0  0  0  0  0  0  0  0  0  0  0
  2  1  1  1
  2  9  1  0
  3  2  1  0
  4  8  1  0
  4  3  1  0
  5  4  2  0
  6  5  1  0
  6  7  1  0
  7  8  2  0
  9 10  2  0
 12 11  1  6
 13 12  1  0
 14 12  1  0
 15  9  1  0
 14 15  1  6
 16 14  1  0
 16 17  2  0
 18 16  1  0
 19 27  1  0
 19 18  1  0
 19 20  1  1
 21 20  1  0
 21 22  2  0
 23 22  1  0
 24 23  2  0
 25 26  2  0
 25 24  1  0
 26 21  1  0
 27 29  1  0
 28 27  2  0
M  END
$$$$
