HTF.pdb
     RDKit          3D

 29 30  0  0  1  0  0  0  0  0999 V2000
   25.5270  -23.2955  -16.8957 N   0  0  0  0  0  0  0  0  0  0  0  0
   25.6045  -23.6343  -15.4887 C   0  0  1  0  0  0  0  0  0  0  0  0
   26.6345  -24.7141  -15.3212 C   0  0  0  0  0  0  0  0  0  0  0  0
   26.0921  -25.9547  -15.9194 C   0  0  0  0  0  0  0  0  0  0  0  0
   24.8412  -26.4819  -15.7011 C   0  0  0  0  0  0  0  0  0  0  0  0
   24.6958  -27.6219  -16.4143 N   0  0  0  0  0  0  0  0  0  0  0  0
   25.8550  -27.8051  -17.0766 C   0  0  0  0  0  0  0  0  0  0  0  0
   26.7083  -26.7846  -16.7730 N   0  0  0  0  0  0  0  0  0  0  0  0
   25.9182  -22.4305  -14.6588 C   0  0  0  0  0  0  0  0  0  0  0  0
   26.5952  -21.5113  -15.1737 O   0  0  0  0  0  0  0  0  0  0  0  0
   24.5393  -18.9328  -11.8521 C   0  0  0  0  0  0  0  0  0  0  0  0
   24.4881  -20.1461  -12.7683 C   0  0  1  0  0  0  0  0  0  0  0  0
   24.4387  -19.6622  -14.0558 O   0  0  0  0  0  0  0  0  0  0  0  0
   25.5646  -21.1252  -12.4849 C   0  0  2  0  0  0  0  0  0  0  0  0
   25.4816  -22.2961  -13.3276 N   0  0  0  0  0  0  0  0  0  0  0  0
   25.7652  -21.4254  -11.0483 C   0  0  0  0  0  0  0  0  0  0  0  0
   25.1595  -22.3426  -10.4184 O   0  0  0  0  0  0  0  0  0  0  0  0
   26.6817  -20.6623  -10.3156 N   0  0  0  0  0  0  0  0  0  0  0  0
   26.8285  -20.8013   -8.8542 C   0  0  1  0  0  0  0  0  0  0  0  0
   27.9327  -19.8783   -8.4647 C   0  0  0  0  0  0  0  0  0  0  0  0
   28.2275  -19.7924   -7.0388 C   0  0  0  0  0  0  0  0  0  0  0  0
   28.8964  -20.8114   -6.3975 C   0  0  0  0  0  0  0  0  0  0  0  0
   29.1784  -20.7292   -5.0484 C   0  0  0  0  0  0  0  0  0  0  0  0
   28.7684  -19.5879   -4.3522 C   0  0  0  0  0  0  0  0  0  0  0  0
   28.0937  -18.5578   -4.9933 C   0  0  0  0  0  0  0  0  0  0  0  0
   27.8239  -18.6657   -6.3460 C   0  0  0  0  0  0  0  0  0  0  0  0
   25.5100  -20.4384   -8.2796 C   0  0  0  0  0  0  0  0  0  0  0  0
   25.0780  -21.1432   -7.3221 O   0  0  0  0  0  0  0  0  0  0  0  0
   24.7389  -19.3731   -8.7401 O   0  0  0  0  0  0  0  0  0  0  0  0
  2  1  1  6
  2  9  1  0
  3  2  1  0
  4  8  1  0
  4  3  1  0
  5  4  2  0
  6  5  1  0
  6  7  1  0
  7  8  2  0
  9 10  2  0
 12 11  1  1
 13 12  1  0
 14 12  1  0
 15  9  1  0
 14 15  1  6
 16 14  1  0
 16 17  2  0
 18 16  1  0
 19 27  1  0
 19 18  1  0
 19 20  1  1
 21 20  1  0
 21 22  2  0
 23 22  1  0
 24 23  2  0
 25 26  2  0
 25 24  1  0
 26 21  1  0
 27 29  1  0
 28 27  2  0
M  END
$$$$
