HTF.pdb
     RDKit          3D

 29 30  0  0  1  0  0  0  0  0999 V2000
   22.4616  -16.0987  -18.3943 N   0  0  0  0  0  0  0  0  0  0  0  0
   21.5030  -15.1721  -17.8260 C   0  0  1  0  0  0  0  0  0  0  0  0
   21.0229  -15.7349  -16.5192 C   0  0  0  0  0  0  0  0  0  0  0  0
   20.2943  -16.9909  -16.8068 C   0  0  0  0  0  0  0  0  0  0  0  0
   19.0015  -17.0934  -17.2635 C   0  0  0  0  0  0  0  0  0  0  0  0
   18.6722  -18.3967  -17.4121 N   0  0  0  0  0  0  0  0  0  0  0  0
   19.7587  -19.1061  -17.0486 C   0  0  0  0  0  0  0  0  0  0  0  0
   20.7503  -18.2449  -16.6785 N   0  0  0  0  0  0  0  0  0  0  0  0
   22.0986  -13.8103  -17.6618 C   0  0  0  0  0  0  0  0  0  0  0  0
   23.2219  -13.7127  -17.1168 O   0  0  0  0  0  0  0  0  0  0  0  0
   22.1440  -11.1164  -20.4591 C   0  0  0  0  0  0  0  0  0  0  0  0
   21.6136  -10.4734  -19.1865 C   0  0  1  0  0  0  0  0  0  0  0  0
   20.2875  -10.1861  -19.4168 O   0  0  0  0  0  0  0  0  0  0  0  0
   21.9014  -11.2770  -17.9743 C   0  0  2  0  0  0  0  0  0  0  0  0
   21.4443  -12.6423  -18.0958 N   0  0  0  0  0  0  0  0  0  0  0  0
   21.5298  -10.6247  -16.6973 C   0  0  0  0  0  0  0  0  0  0  0  0
   20.5789  -11.0040  -15.9511 O   0  0  0  0  0  0  0  0  0  0  0  0
   22.2642   -9.5158  -16.2611 N   0  0  0  0  0  0  0  0  0  0  0  0
   21.9344   -8.7957  -15.0165 C   0  0  1  0  0  0  0  0  0  0  0  0
   22.8976   -9.2893  -13.9911 C   0  0  0  0  0  0  0  0  0  0  0  0
   24.1676   -9.8009  -14.4940 C   0  0  0  0  0  0  0  0  0  0  0  0
   25.0326   -8.9791  -15.1820 C   0  0  0  0  0  0  0  0  0  0  0  0
   26.2363   -9.4621  -15.6555 C   0  0  0  0  0  0  0  0  0  0  0  0
   26.5532  -10.8034  -15.4190 C   0  0  0  0  0  0  0  0  0  0  0  0
   25.6852  -11.6364  -14.7263 C   0  0  0  0  0  0  0  0  0  0  0  0
   24.4853  -11.1267  -14.2626 C   0  0  0  0  0  0  0  0  0  0  0  0
   22.0793   -7.3539  -15.3336 C   0  0  0  0  0  0  0  0  0  0  0  0
   21.6767   -6.5237  -14.4681 O   0  0  0  0  0  0  0  0  0  0  0  0
   22.6303   -6.8811  -16.5229 O   0  0  0  0  0  0  0  0  0  0  0  0
  2  1  1  1
  2  9  1  0
  3  2  1  0
  4  8  1  0
  4  3  1  0
  5  4  2  0
  6  5  1  0
  6  7  1  0
  7  8  2  0
  9 10  2  0
 12 11  1  6
 13 12  1  0
 14 12  1  0
 15  9  1  0
 14 15  1  6
 16 14  1  0
 16 17  2  0
 18 16  1  0
 19 27  1  0
 19 18  1  0
 19 20  1  1
 21 20  1  0
 21 22  2  0
 23 22  1  0
 24 23  2  0
 25 26  2  0
 25 24  1  0
 26 21  1  0
 27 29  1  0
 28 27  2  0
M  END
$$$$
