TSR.pdb
     RDKit          3D

 25 24  0  0  1  0  0  0  0  0999 V2000
   19.5936  -21.0991  -16.1004 C   0  0  0  0  0  0  0  0  0  0  0  0
   20.3433  -19.8329  -15.8051 C   0  0  1  0  0  0  0  0  0  0  0  0
   19.5439  -18.8169  -15.3347 O   0  0  0  0  0  0  0  0  0  0  0  0
   21.5483  -20.1003  -14.8989 C   0  0  2  0  0  0  0  0  0  0  0  0
   21.0336  -20.2110  -13.5475 N   0  0  0  0  0  0  0  0  0  0  0  0
   22.4173  -18.8895  -15.0483 C   0  0  0  0  0  0  0  0  0  0  0  0
   22.2170  -17.9420  -14.2477 O   0  0  0  0  0  0  0  0  0  0  0  0
   26.4072  -18.4808  -16.2717 O   0  0  0  0  0  0  0  0  0  0  0  0
   25.4024  -17.9141  -17.0264 C   0  0  0  0  0  0  0  0  0  0  0  0
   24.1551  -17.5999  -16.2141 C   0  0  2  0  0  0  0  0  0  0  0  0
   23.4238  -18.8132  -16.0483 N   0  0  0  0  0  0  0  0  0  0  0  0
   23.3755  -16.5033  -16.8009 C   0  0  0  0  0  0  0  0  0  0  0  0
   22.4685  -16.8154  -17.6494 O   0  0  0  0  0  0  0  0  0  0  0  0
   21.1137   -8.7780  -13.4376 N   0  0  0  0  0  0  0  0  0  0  0  0
   20.5162   -8.7379  -14.7368 C   0  0  0  0  0  0  0  0  0  0  0  0
   19.6977   -7.7888  -15.0017 N   0  0  0  0  0  0  0  0  0  0  0  0
   20.8752   -9.7570  -15.6347 N   0  0  0  0  0  0  0  0  0  0  0  0
   21.7881  -10.8317  -15.1651 C   0  0  0  0  0  0  0  0  0  0  0  0
   21.8386  -11.8248  -16.2594 C   0  0  0  0  0  0  0  0  0  0  0  0
   22.6180  -13.0436  -16.1640 C   0  0  0  0  0  0  0  0  0  0  0  0
   22.7199  -14.0753  -17.2136 C   0  0  2  0  0  0  0  0  0  0  0  0
   23.5281  -15.1447  -16.5208 N   0  0  0  0  0  0  0  0  0  0  0  0
   23.3068  -13.8003  -18.4993 C   0  0  0  0  0  0  0  0  0  0  0  0
   24.5172  -13.9075  -18.7451 O   0  0  0  0  0  0  0  0  0  0  0  0
   22.5415  -13.3754  -19.6176 O   0  0  0  0  0  0  0  0  0  0  0  0
  2  4  1  0
  2  1  1  1
  3  2  1  0
  4  6  1  0
  4  5  1  1
  6 11  1  0
  6  7  2  0
  9  8  1  0
 10  9  1  6
 10 12  1  0
 11 10  1  0
 12 13  2  0
 15 14  1  0
 15 16  2  0
 17 15  1  0
 18 17  1  0
 19 18  1  0
 20 19  1  0
 21 20  1  1
 21 23  1  0
 22 12  1  0
 22 21  1  0
 23 25  1  0
 24 23  2  0
M  END
$$$$
