TSR.pdb
     RDKit          3D

 25 24  0  0  1  0  0  0  0  0999 V2000
   18.3591  -28.1157  -10.1530 C   0  0  0  0  0  0  0  0  0  0  0  0
   19.0822  -27.0265  -10.8901 C   0  0  1  0  0  0  0  0  0  0  0  0
   19.9074  -26.2730  -10.0877 O   0  0  0  0  0  0  0  0  0  0  0  0
   19.8038  -27.5762  -12.1238 C   0  0  2  0  0  0  0  0  0  0  0  0
   20.9026  -28.3862  -11.6341 N   0  0  0  0  0  0  0  0  0  0  0  0
   20.3065  -26.3643  -12.8463 C   0  0  0  0  0  0  0  0  0  0  0  0
   21.5206  -26.0761  -12.6995 O   0  0  0  0  0  0  0  0  0  0  0  0
   17.8282  -23.6362  -15.0499 O   0  0  0  0  0  0  0  0  0  0  0  0
   19.0274  -24.1344  -15.5126 C   0  0  0  0  0  0  0  0  0  0  0  0
   19.9984  -24.4791  -14.3934 C   0  0  2  0  0  0  0  0  0  0  0  0
   19.4518  -25.5749  -13.6621 N   0  0  0  0  0  0  0  0  0  0  0  0
   20.3279  -23.3104  -13.5686 C   0  0  0  0  0  0  0  0  0  0  0  0
   19.6352  -23.1257  -12.5075 O   0  0  0  0  0  0  0  0  0  0  0  0
   21.7104  -19.1239  -16.9444 N   0  0  0  0  0  0  0  0  0  0  0  0
   22.7540  -18.1462  -16.9828 C   0  0  0  0  0  0  0  0  0  0  0  0
   22.5682  -17.0838  -17.6739 N   0  0  0  0  0  0  0  0  0  0  0  0
   23.9200  -18.4302  -16.2522 N   0  0  0  0  0  0  0  0  0  0  0  0
   23.9973  -19.7114  -15.5030 C   0  0  0  0  0  0  0  0  0  0  0  0
   23.1439  -19.5325  -14.3088 C   0  0  0  0  0  0  0  0  0  0  0  0
   22.8036  -20.6328  -13.4281 C   0  0  0  0  0  0  0  0  0  0  0  0
   21.4333  -21.0640  -13.0922 C   0  0  2  0  0  0  0  0  0  0  0  0
   21.3305  -22.3757  -13.8308 N   0  0  0  0  0  0  0  0  0  0  0  0
   20.2819  -20.2572  -13.4028 C   0  0  0  0  0  0  0  0  0  0  0  0
   19.9018  -19.2988  -12.7143 O   0  0  0  0  0  0  0  0  0  0  0  0
   19.4661  -20.4898  -14.5419 O   0  0  0  0  0  0  0  0  0  0  0  0
  2  4  1  0
  2  1  1  1
  3  2  1  0
  4  6  1  0
  4  5  1  1
  6 11  1  0
  6  7  2  0
  9  8  1  0
 10  9  1  6
 10 12  1  0
 11 10  1  0
 12 13  2  0
 15 14  1  0
 15 16  2  0
 17 15  1  0
 18 17  1  0
 19 18  1  0
 20 19  1  0
 21 20  1  6
 21 23  1  0
 22 12  1  0
 22 21  1  0
 23 25  1  0
 24 23  2  0
M  END
$$$$
