TSR.pdb
     RDKit          3D

 25 24  0  0  1  0  0  0  0  0999 V2000
   31.3478  -25.2658  -19.0237 C   0  0  0  0  0  0  0  0  0  0  0  0
   30.2949  -24.2395  -18.7225 C   0  0  1  0  0  0  0  0  0  0  0  0
   29.0221  -24.6433  -19.0534 O   0  0  0  0  0  0  0  0  0  0  0  0
   30.3981  -23.7470  -17.2763 C   0  0  2  0  0  0  0  0  0  0  0  0
   30.0721  -24.8783  -16.4294 N   0  0  0  0  0  0  0  0  0  0  0  0
   29.3624  -22.6710  -17.1623 C   0  0  0  0  0  0  0  0  0  0  0  0
   28.3478  -22.9279  -16.4670 O   0  0  0  0  0  0  0  0  0  0  0  0
   29.6834  -18.9658  -19.1857 O   0  0  0  0  0  0  0  0  0  0  0  0
   29.1834  -19.0577  -17.9044 C   0  0  0  0  0  0  0  0  0  0  0  0
   28.5324  -20.4022  -17.6163 C   0  0  2  0  0  0  0  0  0  0  0  0
   29.5176  -21.4155  -17.8092 N   0  0  0  0  0  0  0  0  0  0  0  0
   27.3052  -20.6003  -18.3969 C   0  0  0  0  0  0  0  0  0  0  0  0
   27.4103  -21.2283  -19.5080 O   0  0  0  0  0  0  0  0  0  0  0  0
   18.8412  -20.2979  -15.9161 N   0  0  0  0  0  0  0  0  0  0  0  0
   18.8049  -20.9321  -17.1979 C   0  0  0  0  0  0  0  0  0  0  0  0
   17.6802  -21.3657  -17.6313 N   0  0  0  0  0  0  0  0  0  0  0  0
   20.0218  -21.0348  -17.8924 N   0  0  0  0  0  0  0  0  0  0  0  0
   21.2610  -20.5426  -17.2358 C   0  0  0  0  0  0  0  0  0  0  0  0
   22.3425  -20.7240  -18.2276 C   0  0  0  0  0  0  0  0  0  0  0  0
   23.7207  -20.3754  -17.9432 C   0  0  0  0  0  0  0  0  0  0  0  0
   24.8218  -20.3802  -18.9252 C   0  0  2  0  0  0  0  0  0  0  0  0
   26.0266  -20.1681  -18.0420 N   0  0  0  0  0  0  0  0  0  0  0  0
   24.8709  -19.4473  -20.0208 C   0  0  0  0  0  0  0  0  0  0  0  0
   25.3807  -18.3196  -19.9476 O   0  0  0  0  0  0  0  0  0  0  0  0
   24.3324  -19.7389  -21.3022 O   0  0  0  0  0  0  0  0  0  0  0  0
  2  4  1  0
  2  1  1  1
  3  2  1  0
  4  6  1  0
  4  5  1  1
  6 11  1  0
  6  7  2  0
  9  8  1  0
 10  9  1  6
 10 12  1  0
 11 10  1  0
 12 13  2  0
 15 14  1  0
 15 16  2  0
 17 15  1  0
 18 17  1  0
 19 18  1  0
 20 19  1  0
 21 20  1  1
 21 23  1  0
 22 12  1  0
 22 21  1  0
 23 25  1  0
 24 23  2  0
M  END
$$$$
