TSR.pdb
     RDKit          3D

 25 24  0  0  1  0  0  0  0  0999 V2000
   20.2831  -13.2056  -17.0268 C   0  0  0  0  0  0  0  0  0  0  0  0
   20.5938  -12.0885  -16.0739 C   0  0  1  0  0  0  0  0  0  0  0  0
   21.9363  -11.8036  -15.9789 O   0  0  0  0  0  0  0  0  0  0  0  0
   19.7498  -10.8479  -16.3795 C   0  0  2  0  0  0  0  0  0  0  0  0
   20.2415  -10.3113  -17.6340 N   0  0  0  0  0  0  0  0  0  0  0  0
   20.0239   -9.9082  -15.2459 C   0  0  0  0  0  0  0  0  0  0  0  0
   19.7321  -10.3080  -14.0910 O   0  0  0  0  0  0  0  0  0  0  0  0
   21.1866   -5.8945  -15.9343 O   0  0  0  0  0  0  0  0  0  0  0  0
   21.5481   -6.5516  -14.7776 C   0  0  0  0  0  0  0  0  0  0  0  0
   20.5850   -7.6681  -14.4034 C   0  0  2  0  0  0  0  0  0  0  0  0
   20.5889   -8.6227  -15.4633 N   0  0  0  0  0  0  0  0  0  0  0  0
   19.2527   -7.1564  -14.0600 C   0  0  0  0  0  0  0  0  0  0  0  0
   18.3905   -7.0816  -15.0039 O   0  0  0  0  0  0  0  0  0  0  0  0
   13.9407   -9.0845   -7.6283 N   0  0  0  0  0  0  0  0  0  0  0  0
   13.1661   -8.1812   -8.4223 C   0  0  0  0  0  0  0  0  0  0  0  0
   11.9052   -8.1096   -8.2082 N   0  0  0  0  0  0  0  0  0  0  0  0
   13.8555   -7.4329   -9.3911 N   0  0  0  0  0  0  0  0  0  0  0  0
   15.2793   -7.7601   -9.6642 C   0  0  0  0  0  0  0  0  0  0  0  0
   15.6811   -6.8988  -10.7970 C   0  0  0  0  0  0  0  0  0  0  0  0
   16.9972   -6.9762  -11.4001 C   0  0  0  0  0  0  0  0  0  0  0  0
   17.4610   -6.1658  -12.5424 C   0  0  2  0  0  0  0  0  0  0  0  0
   18.8324   -6.7418  -12.7955 N   0  0  0  0  0  0  0  0  0  0  0  0
   17.5588   -4.7311  -12.4701 C   0  0  0  0  0  0  0  0  0  0  0  0
   18.5732   -4.1242  -12.0964 O   0  0  0  0  0  0  0  0  0  0  0  0
   16.4871   -3.8696  -12.8253 O   0  0  0  0  0  0  0  0  0  0  0  0
  2  4  1  0
  2  1  1  6
  3  2  1  0
  4  6  1  0
  4  5  1  6
  6 11  1  0
  6  7  2  0
  9  8  1  0
 10  9  1  6
 10 12  1  0
 11 10  1  0
 12 13  2  0
 15 14  1  0
 15 16  2  0
 17 15  1  0
 18 17  1  0
 19 18  1  0
 20 19  1  0
 21 20  1  1
 21 23  1  0
 22 12  1  0
 22 21  1  0
 23 25  1  0
 24 23  2  0
M  END
$$$$
