TSR.pdb
     RDKit          3D

 25 24  0  0  1  0  0  0  0  0999 V2000
   20.9776   -7.5945  -18.3261 C   0  0  0  0  0  0  0  0  0  0  0  0
   21.6554   -8.8294  -17.8083 C   0  0  1  0  0  0  0  0  0  0  0  0
   22.2112   -9.6078  -18.7971 O   0  0  0  0  0  0  0  0  0  0  0  0
   22.6527   -8.4901  -16.6970 C   0  0  2  0  0  0  0  0  0  0  0  0
   23.2036   -9.7500  -16.2361 N   0  0  0  0  0  0  0  0  0  0  0  0
   21.8301   -7.8375  -15.6289 C   0  0  0  0  0  0  0  0  0  0  0  0
   21.0191   -8.5689  -15.0075 O   0  0  0  0  0  0  0  0  0  0  0  0
   22.7390   -4.7255  -13.0542 O   0  0  0  0  0  0  0  0  0  0  0  0
   21.6884   -4.5455  -13.9284 C   0  0  0  0  0  0  0  0  0  0  0  0
   21.0686   -5.8561  -14.3893 C   0  0  2  0  0  0  0  0  0  0  0  0
   21.9592   -6.4546  -15.3290 N   0  0  0  0  0  0  0  0  0  0  0  0
   19.7004   -5.6744  -14.8891 C   0  0  0  0  0  0  0  0  0  0  0  0
   19.5647   -5.2221  -16.0795 O   0  0  0  0  0  0  0  0  0  0  0  0
   12.8127  -10.7721  -13.8619 N   0  0  0  0  0  0  0  0  0  0  0  0
   12.2537   -9.6818  -14.6003 C   0  0  0  0  0  0  0  0  0  0  0  0
   11.0397   -9.7746  -14.9983 N   0  0  0  0  0  0  0  0  0  0  0  0
   13.0902   -8.5784  -14.8383 N   0  0  0  0  0  0  0  0  0  0  0  0
   14.4884   -8.6226  -14.3361 C   0  0  0  0  0  0  0  0  0  0  0  0
   15.1035   -7.3409  -14.7422 C   0  0  0  0  0  0  0  0  0  0  0  0
   16.4870   -7.0192  -14.4516 C   0  0  0  0  0  0  0  0  0  0  0  0
   17.1550   -5.7467  -14.7847 C   0  0  2  0  0  0  0  0  0  0  0  0
   18.5258   -5.9497  -14.1877 N   0  0  0  0  0  0  0  0  0  0  0  0
   16.6358   -4.4760  -14.3503 C   0  0  0  0  0  0  0  0  0  0  0  0
   17.0785   -3.8417  -13.3814 O   0  0  0  0  0  0  0  0  0  0  0  0
   15.5544   -3.8253  -15.0016 O   0  0  0  0  0  0  0  0  0  0  0  0
  2  4  1  0
  2  1  1  6
  3  2  1  0
  4  6  1  0
  4  5  1  1
  6 11  1  0
  6  7  2  0
  9  8  1  0
 10  9  1  6
 10 12  1  0
 11 10  1  0
 12 13  2  0
 15 14  1  0
 15 16  2  0
 17 15  1  0
 18 17  1  0
 19 18  1  0
 20 19  1  0
 21 20  1  1
 21 23  1  0
 22 12  1  0
 22 21  1  0
 23 25  1  0
 24 23  2  0
M  END
$$$$
