TSR.pdb
     RDKit          3D

 25 24  0  0  1  0  0  0  0  0999 V2000
   27.9866   -9.1383  -20.4990 C   0  0  0  0  0  0  0  0  0  0  0  0
   28.3785  -10.5510  -20.8205 C   0  0  1  0  0  0  0  0  0  0  0  0
   29.3161  -10.6475  -21.8226 O   0  0  0  0  0  0  0  0  0  0  0  0
   28.7872  -11.3143  -19.5576 C   0  0  2  0  0  0  0  0  0  0  0  0
   29.0530  -12.6800  -19.9670 N   0  0  0  0  0  0  0  0  0  0  0  0
   27.5895  -11.2427  -18.6611 C   0  0  0  0  0  0  0  0  0  0  0  0
   26.6429  -12.0304  -18.9107 O   0  0  0  0  0  0  0  0  0  0  0  0
   25.7908  -10.2370  -14.3964 O   0  0  0  0  0  0  0  0  0  0  0  0
   26.8292  -10.3447  -15.2968 C   0  0  0  0  0  0  0  0  0  0  0  0
   26.3651  -10.3088  -16.7451 C   0  0  2  0  0  0  0  0  0  0  0  0
   27.5240  -10.3272  -17.5764 N   0  0  0  0  0  0  0  0  0  0  0  0
   25.4556   -9.1866  -17.0060 C   0  0  0  0  0  0  0  0  0  0  0  0
   25.9783   -8.0251  -17.1391 O   0  0  0  0  0  0  0  0  0  0  0  0
   17.1428   -9.3860  -19.9827 N   0  0  0  0  0  0  0  0  0  0  0  0
   17.5482   -8.0285  -20.1805 C   0  0  0  0  0  0  0  0  0  0  0  0
   16.7699   -7.2496  -20.8352 N   0  0  0  0  0  0  0  0  0  0  0  0
   18.7865   -7.6478  -19.6369 N   0  0  0  0  0  0  0  0  0  0  0  0
   19.6436   -8.6916  -19.0165 C   0  0  0  0  0  0  0  0  0  0  0  0
   20.8690   -7.9946  -18.5704 C   0  0  0  0  0  0  0  0  0  0  0  0
   21.9846   -8.6980  -17.9684 C   0  0  0  0  0  0  0  0  0  0  0  0
   23.2097   -8.0647  -17.4444 C   0  0  2  0  0  0  0  0  0  0  0  0
   24.0673   -9.2642  -17.1247 N   0  0  0  0  0  0  0  0  0  0  0  0
   23.1863   -7.1853  -16.3046 C   0  0  0  0  0  0  0  0  0  0  0  0
   23.3778   -7.5586  -15.1379 O   0  0  0  0  0  0  0  0  0  0  0  0
   22.9382   -5.7913  -16.4153 O   0  0  0  0  0  0  0  0  0  0  0  0
  2  4  1  0
  2  1  1  1
  3  2  1  0
  4  6  1  0
  4  5  1  6
  6 11  1  0
  6  7  2  0
  9  8  1  0
 10  9  1  1
 10 12  1  0
 11 10  1  0
 12 13  2  0
 15 14  1  0
 15 16  2  0
 17 15  1  0
 18 17  1  0
 19 18  1  0
 20 19  1  0
 21 20  1  1
 21 23  1  0
 22 12  1  0
 22 21  1  0
 23 25  1  0
 24 23  2  0
M  END
$$$$
