TSR.pdb
     RDKit          3D

 25 24  0  0  1  0  0  0  0  0999 V2000
   21.4297  -10.0880  -21.1170 C   0  0  0  0  0  0  0  0  0  0  0  0
   20.7645  -11.4124  -20.8801 C   0  0  1  0  0  0  0  0  0  0  0  0
   20.4264  -12.0734  -22.0383 O   0  0  0  0  0  0  0  0  0  0  0  0
   21.5862  -12.2827  -19.9250 C   0  0  2  0  0  0  0  0  0  0  0  0
   20.8838  -13.5462  -19.8083 N   0  0  0  0  0  0  0  0  0  0  0  0
   21.5788  -11.5387  -18.6251 C   0  0  0  0  0  0  0  0  0  0  0  0
   20.4701  -11.4113  -18.0477 O   0  0  0  0  0  0  0  0  0  0  0  0
   24.9415   -9.3977  -17.1654 O   0  0  0  0  0  0  0  0  0  0  0  0
   24.1132  -10.1006  -16.3166 C   0  0  0  0  0  0  0  0  0  0  0  0
   22.6988  -10.2501  -16.8566 C   0  0  2  0  0  0  0  0  0  0  0  0
   22.7699  -11.0009  -18.0673 N   0  0  0  0  0  0  0  0  0  0  0  0
   22.0191   -8.9561  -16.9906 C   0  0  0  0  0  0  0  0  0  0  0  0
   22.0908   -8.3693  -18.1265 O   0  0  0  0  0  0  0  0  0  0  0  0
   14.7008   -8.0617  -18.8089 N   0  0  0  0  0  0  0  0  0  0  0  0
   15.9770   -8.2850  -19.4155 C   0  0  0  0  0  0  0  0  0  0  0  0
   16.0241   -8.9555  -20.5059 N   0  0  0  0  0  0  0  0  0  0  0  0
   17.0969   -7.7470  -18.7596 N   0  0  0  0  0  0  0  0  0  0  0  0
   16.8869   -6.9782  -17.5051 C   0  0  0  0  0  0  0  0  0  0  0  0
   18.2232   -6.4891  -17.1032 C   0  0  0  0  0  0  0  0  0  0  0  0
   19.2902   -7.3875  -16.7080 C   0  0  0  0  0  0  0  0  0  0  0  0
   20.6187   -6.9712  -16.2196 C   0  0  2  0  0  0  0  0  0  0  0  0
   21.2968   -8.2999  -15.9929 N   0  0  0  0  0  0  0  0  0  0  0  0
   20.7781   -6.1547  -15.0445 C   0  0  0  0  0  0  0  0  0  0  0  0
   21.2606   -6.5629  -13.9779 O   0  0  0  0  0  0  0  0  0  0  0  0
   20.3915   -4.7888  -15.0005 O   0  0  0  0  0  0  0  0  0  0  0  0
  2  4  1  0
  2  1  1  6
  3  2  1  0
  4  6  1  0
  4  5  1  1
  6 11  1  0
  6  7  2  0
  9  8  1  0
 10  9  1  6
 10 12  1  0
 11 10  1  0
 12 13  2  0
 15 14  1  0
 15 16  2  0
 17 15  1  0
 18 17  1  0
 19 18  1  0
 20 19  1  0
 21 20  1  1
 21 23  1  0
 22 12  1  0
 22 21  1  0
 23 25  1  0
 24 23  2  0
M  END
$$$$
