TSR.pdb
     RDKit          3D

 25 24  0  0  1  0  0  0  0  0999 V2000
   19.4847   -9.8855  -18.8054 C   0  0  0  0  0  0  0  0  0  0  0  0
   20.1735  -11.2096  -18.6479 C   0  0  1  0  0  0  0  0  0  0  0  0
   20.5374  -11.7863  -19.8427 O   0  0  0  0  0  0  0  0  0  0  0  0
   21.3410  -11.1137  -17.6618 C   0  0  2  0  0  0  0  0  0  0  0  0
   21.9087  -12.4445  -17.5614 N   0  0  0  0  0  0  0  0  0  0  0  0
   20.7164  -10.6939  -16.3668 C   0  0  0  0  0  0  0  0  0  0  0  0
   19.9586  -11.5234  -15.8043 O   0  0  0  0  0  0  0  0  0  0  0  0
   21.1952   -6.7867  -14.7646 O   0  0  0  0  0  0  0  0  0  0  0  0
   20.9946   -7.8921  -13.9657 C   0  0  0  0  0  0  0  0  0  0  0  0
   20.2124   -8.9947  -14.6635 C   0  0  2  0  0  0  0  0  0  0  0  0
   20.9680   -9.4166  -15.7974 N   0  0  0  0  0  0  0  0  0  0  0  0
   18.8381   -8.5843  -14.9756 C   0  0  0  0  0  0  0  0  0  0  0  0
   18.6359   -8.0193  -16.1069 O   0  0  0  0  0  0  0  0  0  0  0  0
   11.5548  -12.1402  -12.2038 N   0  0  0  0  0  0  0  0  0  0  0  0
   11.4866  -10.7350  -11.9447 C   0  0  0  0  0  0  0  0  0  0  0  0
   10.6457  -10.3163  -11.0738 N   0  0  0  0  0  0  0  0  0  0  0  0
   12.3568   -9.9094  -12.6762 N   0  0  0  0  0  0  0  0  0  0  0  0
   13.2418  -10.5321  -13.6950 C   0  0  0  0  0  0  0  0  0  0  0  0
   14.0541   -9.4293  -14.2519 C   0  0  0  0  0  0  0  0  0  0  0  0
   15.4819   -9.3262  -14.0219 C   0  0  0  0  0  0  0  0  0  0  0  0
   16.3518   -8.2477  -14.5284 C   0  0  2  0  0  0  0  0  0  0  0  0
   17.7233   -8.7526  -14.1532 N   0  0  0  0  0  0  0  0  0  0  0  0
   16.2141   -6.8848  -14.0848 C   0  0  0  0  0  0  0  0  0  0  0  0
   16.7791   -6.4224  -13.0828 O   0  0  0  0  0  0  0  0  0  0  0  0
   15.4075   -5.9339  -14.7645 O   0  0  0  0  0  0  0  0  0  0  0  0
  2  4  1  0
  2  1  1  6
  3  2  1  0
  4  6  1  0
  4  5  1  1
  6 11  1  0
  6  7  2  0
  9  8  1  0
 10  9  1  6
 10 12  1  0
 11 10  1  0
 12 13  2  0
 15 14  1  0
 15 16  2  0
 17 15  1  0
 18 17  1  0
 19 18  1  0
 20 19  1  0
 21 20  1  1
 21 23  1  0
 22 12  1  0
 22 21  1  0
 23 25  1  0
 24 23  2  0
M  END
$$$$
