TSR.pdb
     RDKit          3D

 25 24  0  0  1  0  0  0  0  0999 V2000
   27.1243  -21.5958  -16.6670 C   0  0  0  0  0  0  0  0  0  0  0  0
   25.9343  -21.8620  -17.5419 C   0  0  1  0  0  0  0  0  0  0  0  0
   25.0507  -22.7711  -17.0077 O   0  0  0  0  0  0  0  0  0  0  0  0
   25.2525  -20.5571  -17.9630 C   0  0  2  0  0  0  0  0  0  0  0  0
   26.2551  -19.7709  -18.6557 N   0  0  0  0  0  0  0  0  0  0  0  0
   24.8470  -19.9038  -16.6777 C   0  0  0  0  0  0  0  0  0  0  0  0
   25.7393  -19.2826  -16.0478 O   0  0  0  0  0  0  0  0  0  0  0  0
   20.7855  -19.6129  -15.2028 O   0  0  0  0  0  0  0  0  0  0  0  0
   21.8047  -18.6861  -15.1506 C   0  0  0  0  0  0  0  0  0  0  0  0
   23.1756  -19.3209  -14.9720 C   0  0  2  0  0  0  0  0  0  0  0  0
   23.5144  -19.9804  -16.1905 N   0  0  0  0  0  0  0  0  0  0  0  0
   23.2349  -20.1827  -13.7852 C   0  0  0  0  0  0  0  0  0  0  0  0
   22.9883  -21.4284  -13.9505 O   0  0  0  0  0  0  0  0  0  0  0  0
   29.3002  -20.8739   -8.3929 N   0  0  0  0  0  0  0  0  0  0  0  0
   28.9006  -21.1780   -9.7324 C   0  0  0  0  0  0  0  0  0  0  0  0
   29.8125  -21.3792  -10.6093 N   0  0  0  0  0  0  0  0  0  0  0  0
   27.5203  -21.2314   -9.9888 N   0  0  0  0  0  0  0  0  0  0  0  0
   26.5777  -20.9034   -8.8875 C   0  0  0  0  0  0  0  0  0  0  0  0
   25.2228  -21.1229   -9.4374 C   0  0  0  0  0  0  0  0  0  0  0  0
   24.7610  -20.4661  -10.6445 C   0  0  0  0  0  0  0  0  0  0  0  0
   23.4610  -20.7032  -11.3007 C   0  0  2  0  0  0  0  0  0  0  0  0
   23.5368  -19.7726  -12.4859 N   0  0  0  0  0  0  0  0  0  0  0  0
   22.2116  -20.4936  -10.6165 C   0  0  0  0  0  0  0  0  0  0  0  0
   21.5378  -19.4569  -10.7075 O   0  0  0  0  0  0  0  0  0  0  0  0
   21.6302  -21.4691   -9.7637 O   0  0  0  0  0  0  0  0  0  0  0  0
  2  4  1  0
  2  1  1  1
  3  2  1  0
  4  6  1  0
  4  5  1  1
  6 11  1  0
  6  7  2  0
  9  8  1  0
 10  9  1  6
 10 12  1  0
 11 10  1  0
 12 13  2  0
 15 14  1  0
 15 16  2  0
 17 15  1  0
 18 17  1  0
 19 18  1  0
 20 19  1  0
 21 20  1  1
 21 23  1  0
 22 12  1  0
 22 21  1  0
 23 25  1  0
 24 23  2  0
M  END
$$$$
