TSR.pdb
     RDKit          3D

 25 24  0  0  1  0  0  0  0  0999 V2000
   21.3975   -9.6079  -17.5335 C   0  0  0  0  0  0  0  0  0  0  0  0
   22.1778  -10.5173  -16.6298 C   0  0  1  0  0  0  0  0  0  0  0  0
   22.8866  -11.4858  -17.3023 O   0  0  0  0  0  0  0  0  0  0  0  0
   23.0508   -9.7181  -15.6582 C   0  0  2  0  0  0  0  0  0  0  0  0
   23.7424  -10.6871  -14.8299 N   0  0  0  0  0  0  0  0  0  0  0  0
   22.0838   -8.9090  -14.8497 C   0  0  0  0  0  0  0  0  0  0  0  0
   21.2646   -9.5434  -14.1389 O   0  0  0  0  0  0  0  0  0  0  0  0
   21.9636   -4.6776  -14.9805 O   0  0  0  0  0  0  0  0  0  0  0  0
   21.8559   -5.3790  -13.7985 C   0  0  0  0  0  0  0  0  0  0  0  0
   21.2537   -6.7638  -13.9829 C   0  0  2  0  0  0  0  0  0  0  0  0
   22.0905   -7.4885  -14.8824 N   0  0  0  0  0  0  0  0  0  0  0  0
   19.8444   -6.7037  -14.3888 C   0  0  0  0  0  0  0  0  0  0  0  0
   19.5979   -6.5636  -15.6377 O   0  0  0  0  0  0  0  0  0  0  0  0
   13.0343  -10.8148  -10.8541 N   0  0  0  0  0  0  0  0  0  0  0  0
   12.4044  -10.0218  -11.8645 C   0  0  0  0  0  0  0  0  0  0  0  0
   11.1486  -10.1761  -12.0651 N   0  0  0  0  0  0  0  0  0  0  0  0
   13.2218   -9.1239  -12.5712 N   0  0  0  0  0  0  0  0  0  0  0  0
   14.6767   -9.0952  -12.2689 C   0  0  0  0  0  0  0  0  0  0  0  0
   15.2608   -8.0980  -13.1913 C   0  0  0  0  0  0  0  0  0  0  0  0
   16.6742   -7.7755  -13.1892 C   0  0  0  0  0  0  0  0  0  0  0  0
   17.3195   -6.7638  -14.0474 C   0  0  2  0  0  0  0  0  0  0  0  0
   18.7402   -6.7859  -13.5395 N   0  0  0  0  0  0  0  0  0  0  0  0
   16.8588   -5.4006  -14.0983 C   0  0  0  0  0  0  0  0  0  0  0  0
   17.3051   -4.4917  -13.3829 O   0  0  0  0  0  0  0  0  0  0  0  0
   15.8373   -4.9680  -14.9850 O   0  0  0  0  0  0  0  0  0  0  0  0
  2  4  1  0
  2  1  1  6
  3  2  1  0
  4  6  1  0
  4  5  1  1
  6 11  1  0
  6  7  2  0
  9  8  1  0
 10  9  1  6
 10 12  1  0
 11 10  1  0
 12 13  2  0
 15 14  1  0
 15 16  2  0
 17 15  1  0
 18 17  1  0
 19 18  1  0
 20 19  1  0
 21 20  1  1
 21 23  1  0
 22 12  1  0
 22 21  1  0
 23 25  1  0
 24 23  2  0
M  END
$$$$
