TSR.pdb
     RDKit          3D

 25 24  0  0  1  0  0  0  0  0999 V2000
   11.4555   -7.0930   -9.8784 C   0  0  0  0  0  0  0  0  0  0  0  0
   11.4879   -8.1275   -8.7916 C   0  0  1  0  0  0  0  0  0  0  0  0
   10.6097   -7.8733   -7.7636 O   0  0  0  0  0  0  0  0  0  0  0  0
   11.3299   -9.5388   -9.3643 C   0  0  2  0  0  0  0  0  0  0  0  0
   11.4039  -10.4524   -8.2404 N   0  0  0  0  0  0  0  0  0  0  0  0
   12.5013   -9.7145  -10.2810 C   0  0  0  0  0  0  0  0  0  0  0  0
   13.6411   -9.7316   -9.7525 O   0  0  0  0  0  0  0  0  0  0  0  0
   11.9648  -10.8641  -14.2256 O   0  0  0  0  0  0  0  0  0  0  0  0
   13.1143  -11.1572  -13.5232 C   0  0  0  0  0  0  0  0  0  0  0  0
   13.4778  -10.0860  -12.5061 C   0  0  2  0  0  0  0  0  0  0  0  0
   12.3343   -9.8564  -11.6850 N   0  0  0  0  0  0  0  0  0  0  0  0
   14.0123   -8.8770  -13.1443 C   0  0  0  0  0  0  0  0  0  0  0  0
   13.1997   -7.9064  -13.3380 O   0  0  0  0  0  0  0  0  0  0  0  0
   22.2370   -6.0761  -14.4568 N   0  0  0  0  0  0  0  0  0  0  0  0
   21.2991   -6.2512  -13.3908 C   0  0  0  0  0  0  0  0  0  0  0  0
   21.4567   -5.5633  -12.3218 N   0  0  0  0  0  0  0  0  0  0  0  0
   20.2642   -7.1783  -13.5989 N   0  0  0  0  0  0  0  0  0  0  0  0
   19.3474   -6.9763  -14.7510 C   0  0  0  0  0  0  0  0  0  0  0  0
   18.1300   -6.3497  -14.1929 C   0  0  0  0  0  0  0  0  0  0  0  0
   17.0490   -7.1297  -13.6229 C   0  0  0  0  0  0  0  0  0  0  0  0
   15.7747   -7.4420  -14.2975 C   0  0  2  0  0  0  0  0  0  0  0  0
   15.3295   -8.6820  -13.5621 N   0  0  0  0  0  0  0  0  0  0  0  0
   15.7010   -7.6833  -15.7151 C   0  0  0  0  0  0  0  0  0  0  0  0
   15.7397   -8.8112  -16.2284 O   0  0  0  0  0  0  0  0  0  0  0  0
   15.5757   -6.6365  -16.6666 O   0  0  0  0  0  0  0  0  0  0  0  0
  2  4  1  0
  2  1  1  6
  3  2  1  0
  4  6  1  0
  4  5  1  1
  6 11  1  0
  6  7  2  0
  9  8  1  0
 10  9  1  6
 10 12  1  0
 11 10  1  0
 12 13  2  0
 15 14  1  0
 15 16  2  0
 17 15  1  0
 18 17  1  0
 19 18  1  0
 20 19  1  0
 21 20  1  1
 21 23  1  0
 22 12  1  0
 22 21  1  0
 23 25  1  0
 24 23  2  0
M  END
$$$$
