TSR.pdb
     RDKit          3D

 25 24  0  0  1  0  0  0  0  0999 V2000
   23.7762  -22.3093  -19.2662 C   0  0  0  0  0  0  0  0  0  0  0  0
   24.7770  -23.3046  -18.7560 C   0  0  1  0  0  0  0  0  0  0  0  0
   25.1973  -24.2013  -19.7109 O   0  0  0  0  0  0  0  0  0  0  0  0
   25.9436  -22.6066  -18.0511 C   0  0  2  0  0  0  0  0  0  0  0  0
   26.7792  -23.6545  -17.4971 N   0  0  0  0  0  0  0  0  0  0  0  0
   25.3060  -21.7942  -16.9664 C   0  0  0  0  0  0  0  0  0  0  0  0
   24.9157  -22.4135  -15.9451 O   0  0  0  0  0  0  0  0  0  0  0  0
   26.4531  -18.0336  -15.9088 O   0  0  0  0  0  0  0  0  0  0  0  0
   25.1036  -18.2009  -16.1353 C   0  0  0  0  0  0  0  0  0  0  0  0
   24.6489  -19.6436  -15.9736 C   0  0  2  0  0  0  0  0  0  0  0  0
   25.1488  -20.3869  -17.0836 N   0  0  0  0  0  0  0  0  0  0  0  0
   23.1968  -19.7473  -15.7854 C   0  0  0  0  0  0  0  0  0  0  0  0
   22.4627  -19.6871  -16.8329 O   0  0  0  0  0  0  0  0  0  0  0  0
   19.1601  -24.4019   -9.7218 N   0  0  0  0  0  0  0  0  0  0  0  0
   18.1288  -24.1532  -10.6815 C   0  0  0  0  0  0  0  0  0  0  0  0
   17.0453  -24.8317  -10.6008 N   0  0  0  0  0  0  0  0  0  0  0  0
   18.3867  -23.1726  -11.6539 N   0  0  0  0  0  0  0  0  0  0  0  0
   19.6927  -22.4640  -11.6228 C   0  0  0  0  0  0  0  0  0  0  0  0
   19.7305  -21.6337  -12.8456 C   0  0  0  0  0  0  0  0  0  0  0  0
   20.9086  -20.8852  -13.2376 C   0  0  0  0  0  0  0  0  0  0  0  0
   21.0401  -20.0856  -14.4705 C   0  0  2  0  0  0  0  0  0  0  0  0
   22.5353  -19.9072  -14.5671 N   0  0  0  0  0  0  0  0  0  0  0  0
   20.4022  -18.8035  -14.6199 C   0  0  0  0  0  0  0  0  0  0  0  0
   20.9030  -17.7330  -14.2450 O   0  0  0  0  0  0  0  0  0  0  0  0
   19.1239  -18.6470  -15.2186 O   0  0  0  0  0  0  0  0  0  0  0  0
  2  4  1  0
  2  1  1  6
  3  2  1  0
  4  6  1  0
  4  5  1  1
  6 11  1  0
  6  7  2  0
  9  8  1  0
 10  9  1  6
 10 12  1  0
 11 10  1  0
 12 13  2  0
 15 14  1  0
 15 16  2  0
 17 15  1  0
 18 17  1  0
 19 18  1  0
 20 19  1  0
 21 20  1  1
 21 23  1  0
 22 12  1  0
 22 21  1  0
 23 25  1  0
 24 23  2  0
M  END
$$$$
