LMR.pdb
     RDKit          3D

 28 27  0  0  1  0  0  0  0  0999 V2000
   18.1777  -20.4608   -9.2759 C   0  0  0  0  0  0  0  0  0  0  0  0
   19.2860  -21.3770   -8.8666 C   0  0  1  0  0  0  0  0  0  0  0  0
   19.1612  -22.7376   -9.5096 C   0  0  0  0  0  0  0  0  0  0  0  0
   20.6525  -20.8278   -9.1523 C   0  0  0  0  0  0  0  0  0  0  0  0
   21.7769  -21.8000   -8.8893 C   0  0  2  0  0  0  0  0  0  0  0  0
   21.8133  -22.1933   -7.4828 N   0  0  0  0  0  0  0  0  0  0  0  0
   23.0422  -21.0237   -9.1271 C   0  0  0  0  0  0  0  0  0  0  0  0
   23.1887  -20.2526  -10.1099 O   0  0  0  0  0  0  0  0  0  0  0  0
   27.3453  -19.3806   -4.5192 C   0  0  0  0  0  0  0  0  0  0  0  0
   28.4488  -19.6305   -5.9295 S   0  0  0  0  0  0  0  0  0  0  0  0
   27.4810  -19.5661   -7.4654 C   0  0  0  0  0  0  0  0  0  0  0  0
   26.2927  -20.4766   -7.2866 C   0  0  0  0  0  0  0  0  0  0  0  0
   25.3339  -20.4102   -8.4616 C   0  0  2  0  0  0  0  0  0  0  0  0
   24.1320  -21.1403   -8.2305 N   0  0  0  0  0  0  0  0  0  0  0  0
   26.0538  -20.9047   -9.6471 C   0  0  0  0  0  0  0  0  0  0  0  0
   26.5810  -22.0567   -9.7076 O   0  0  0  0  0  0  0  0  0  0  0  0
   23.0220  -18.9834  -16.0256 N   0  0  0  0  0  0  0  0  0  0  0  0
   23.9521  -19.4209  -17.0053 C   0  0  0  0  0  0  0  0  0  0  0  0
   23.8250  -18.9990  -18.1965 N   0  0  0  0  0  0  0  0  0  0  0  0
   24.9917  -20.3123  -16.6324 N   0  0  0  0  0  0  0  0  0  0  0  0
   25.1452  -20.7833  -15.2955 C   0  0  0  0  0  0  0  0  0  0  0  0
   26.2824  -20.1373  -14.5374 C   0  0  0  0  0  0  0  0  0  0  0  0
   25.8846  -19.8353  -13.1255 C   0  0  0  0  0  0  0  0  0  0  0  0
   26.6133  -20.6177  -12.0800 C   0  0  2  0  0  0  0  0  0  0  0  0
   26.1756  -20.0743  -10.7836 N   0  0  0  0  0  0  0  0  0  0  0  0
   28.0723  -20.5230  -12.1275 C   0  0  0  0  0  0  0  0  0  0  0  0
   28.7240  -19.7037  -11.4151 O   0  0  0  0  0  0  0  0  0  0  0  0
   28.7953  -21.3438  -12.9691 O   0  0  0  0  0  0  0  0  0  0  0  0
  2  1  1  6
  2  3  1  0
  4  2  1  0
  5  4  1  0
  5  6  1  1
  7  8  2  0
  7  5  1  0
  9 10  1  0
 10 11  1  0
 11 12  1  0
 13 12  1  1
 13 15  1  0
 13 14  1  0
 14  7  1  0
 15 16  2  0
 18 17  1  0
 18 20  1  0
 19 18  2  0
 20 21  1  0
 21 22  1  0
 22 23  1  0
 24 23  1  6
 24 26  1  0
 25 24  1  0
 25 15  1  0
 26 27  2  0
 26 28  1  0
M  END
$$$$
