LMR.pdb
     RDKit          3D

 28 27  0  0  1  0  0  0  0  0999 V2000
   24.8928  -19.5380  -18.8590 C   0  0  0  0  0  0  0  0  0  0  0  0
   25.9947  -20.0086  -17.9649 C   0  0  1  0  0  0  0  0  0  0  0  0
   26.9166  -18.8822  -17.5630 C   0  0  0  0  0  0  0  0  0  0  0  0
   25.5063  -20.7020  -16.7275 C   0  0  0  0  0  0  0  0  0  0  0  0
   26.6069  -21.2025  -15.8240 C   0  0  2  0  0  0  0  0  0  0  0  0
   27.2013  -22.4292  -16.3497 N   0  0  0  0  0  0  0  0  0  0  0  0
   25.9260  -21.5974  -14.5431 C   0  0  0  0  0  0  0  0  0  0  0  0
   25.2820  -22.6709  -14.4218 O   0  0  0  0  0  0  0  0  0  0  0  0
   25.6165  -20.8506   -6.7534 C   0  0  0  0  0  0  0  0  0  0  0  0
   26.2693  -20.2271   -8.3200 S   0  0  0  0  0  0  0  0  0  0  0  0
   25.3208  -20.9464   -9.6921 C   0  0  0  0  0  0  0  0  0  0  0  0
   25.9596  -20.4776  -10.9748 C   0  0  0  0  0  0  0  0  0  0  0  0
   25.3346  -21.1219  -12.1989 C   0  0  2  0  0  0  0  0  0  0  0  0
   25.9914  -20.7526  -13.4086 N   0  0  0  0  0  0  0  0  0  0  0  0
   23.9101  -20.7492  -12.2151 C   0  0  0  0  0  0  0  0  0  0  0  0
   23.4909  -19.6312  -12.6428 O   0  0  0  0  0  0  0  0  0  0  0  0
   17.2754  -25.5247   -8.7267 N   0  0  0  0  0  0  0  0  0  0  0  0
   17.5549  -25.5617  -10.1184 C   0  0  0  0  0  0  0  0  0  0  0  0
   17.2650  -26.6129  -10.7697 N   0  0  0  0  0  0  0  0  0  0  0  0
   18.1473  -24.4328  -10.7420 N   0  0  0  0  0  0  0  0  0  0  0  0
   18.7679  -23.3902   -9.9934 C   0  0  0  0  0  0  0  0  0  0  0  0
   19.3488  -22.2805  -10.8399 C   0  0  0  0  0  0  0  0  0  0  0  0
   20.8346  -22.4209  -10.9650 C   0  0  0  0  0  0  0  0  0  0  0  0
   21.5148  -21.3204  -11.7152 C   0  0  2  0  0  0  0  0  0  0  0  0
   22.9461  -21.6645  -11.7368 N   0  0  0  0  0  0  0  0  0  0  0  0
   21.3908  -19.9878  -11.1249 C   0  0  0  0  0  0  0  0  0  0  0  0
   22.1131  -19.6019  -10.1591 O   0  0  0  0  0  0  0  0  0  0  0  0
   20.4619  -19.0932  -11.6167 O   0  0  0  0  0  0  0  0  0  0  0  0
  2  1  1  1
  2  3  1  0
  4  2  1  0
  5  4  1  0
  5  6  1  6
  7  8  2  0
  7  5  1  0
  9 10  1  0
 10 11  1  0
 11 12  1  0
 13 12  1  1
 13 15  1  0
 13 14  1  0
 14  7  1  0
 15 16  2  0
 18 17  1  0
 18 20  1  0
 19 18  2  0
 20 21  1  0
 21 22  1  0
 22 23  1  0
 24 23  1  1
 24 26  1  0
 25 24  1  0
 25 15  1  0
 26 27  2  0
 26 28  1  0
M  END
$$$$
