LMR.pdb
     RDKit          3D

 28 27  0  0  1  0  0  0  0  0999 V2000
   27.4197  -18.7715   -7.6196 C   0  0  0  0  0  0  0  0  0  0  0  0
   27.4202  -19.8457   -8.6593 C   0  0  1  0  0  0  0  0  0  0  0  0
   28.4733  -20.8937   -8.3888 C   0  0  0  0  0  0  0  0  0  0  0  0
   26.0912  -20.5225   -8.8211 C   0  0  0  0  0  0  0  0  0  0  0  0
   25.9998  -21.4250  -10.0276 C   0  0  2  0  0  0  0  0  0  0  0  0
   27.1392  -21.2262  -10.9201 N   0  0  0  0  0  0  0  0  0  0  0  0
   24.7961  -20.9505  -10.7932 C   0  0  0  0  0  0  0  0  0  0  0  0
   23.6687  -20.7997  -10.2565 O   0  0  0  0  0  0  0  0  0  0  0  0
   24.4286  -20.1365  -17.4033 C   0  0  0  0  0  0  0  0  0  0  0  0
   23.4442  -18.7818  -16.7215 S   0  0  0  0  0  0  0  0  0  0  0  0
   22.8983  -19.2231  -15.0461 C   0  0  0  0  0  0  0  0  0  0  0  0
   24.0891  -19.7985  -14.3222 C   0  0  0  0  0  0  0  0  0  0  0  0
   23.7542  -20.2129  -12.9007 C   0  0  2  0  0  0  0  0  0  0  0  0
   24.8986  -20.6520  -12.1736 N   0  0  0  0  0  0  0  0  0  0  0  0
   22.7215  -21.2597  -12.9779 C   0  0  0  0  0  0  0  0  0  0  0  0
   22.9914  -22.4901  -13.1263 O   0  0  0  0  0  0  0  0  0  0  0  0
   19.2838  -24.1637   -7.1113 N   0  0  0  0  0  0  0  0  0  0  0  0
   18.2012  -24.6545   -7.8882 C   0  0  0  0  0  0  0  0  0  0  0  0
   17.6770  -25.7662   -7.5679 N   0  0  0  0  0  0  0  0  0  0  0  0
   17.7361  -23.8974   -8.9948 N   0  0  0  0  0  0  0  0  0  0  0  0
   18.4661  -22.7901   -9.5181 C   0  0  0  0  0  0  0  0  0  0  0  0
   19.0862  -23.0414  -10.8737 C   0  0  0  0  0  0  0  0  0  0  0  0
   19.7376  -21.8021  -11.4054 C   0  0  0  0  0  0  0  0  0  0  0  0
   20.3064  -21.9255  -12.7829 C   0  0  2  0  0  0  0  0  0  0  0  0
   21.3584  -20.9005  -12.8840 N   0  0  0  0  0  0  0  0  0  0  0  0
   19.3614  -21.6961  -13.8756 C   0  0  0  0  0  0  0  0  0  0  0  0
   18.9179  -22.6356  -14.5996 O   0  0  0  0  0  0  0  0  0  0  0  0
   18.9160  -20.4196  -14.1534 O   0  0  0  0  0  0  0  0  0  0  0  0
  2  1  1  1
  2  3  1  0
  4  2  1  0
  5  4  1  0
  5  6  1  6
  7  8  2  0
  7  5  1  0
  9 10  1  0
 10 11  1  0
 11 12  1  0
 13 12  1  6
 13 15  1  0
 13 14  1  0
 14  7  1  0
 15 16  2  0
 18 17  1  0
 18 20  1  0
 19 18  2  0
 20 21  1  0
 21 22  1  0
 22 23  1  0
 24 23  1  1
 24 26  1  0
 25 24  1  0
 25 15  1  0
 26 27  2  0
 26 28  1  0
M  END
$$$$
