LMR.pdb
     RDKit          3D

 28 27  0  0  1  0  0  0  0  0999 V2000
   17.3148  -16.6479  -17.6105 C   0  0  0  0  0  0  0  0  0  0  0  0
   18.3421  -15.7928  -18.2803 C   0  0  1  0  0  0  0  0  0  0  0  0
   17.7502  -14.9702  -19.3998 C   0  0  0  0  0  0  0  0  0  0  0  0
   19.0675  -14.8793  -17.3369 C   0  0  0  0  0  0  0  0  0  0  0  0
   20.0229  -13.9255  -18.0120 C   0  0  2  0  0  0  0  0  0  0  0  0
   21.1618  -14.6395  -18.5840 N   0  0  0  0  0  0  0  0  0  0  0  0
   20.5885  -13.0760  -16.9081 C   0  0  0  0  0  0  0  0  0  0  0  0
   19.8837  -12.6348  -15.9645 O   0  0  0  0  0  0  0  0  0  0  0  0
   26.7593  -14.9839  -14.5800 C   0  0  0  0  0  0  0  0  0  0  0  0
   26.2101  -13.3734  -15.1915 S   0  0  0  0  0  0  0  0  0  0  0  0
   24.3951  -13.3468  -15.2605 C   0  0  0  0  0  0  0  0  0  0  0  0
   23.9834  -11.9777  -15.7394 C   0  0  0  0  0  0  0  0  0  0  0  0
   22.4798  -11.8541  -15.9073 C   0  0  2  0  0  0  0  0  0  0  0  0
   21.9640  -12.7399  -16.8976 N   0  0  0  0  0  0  0  0  0  0  0  0
   22.1855  -10.4471  -16.2266 C   0  0  0  0  0  0  0  0  0  0  0  0
   22.4337   -9.9260  -17.3560 O   0  0  0  0  0  0  0  0  0  0  0  0
   15.0697   -7.5080  -17.2554 N   0  0  0  0  0  0  0  0  0  0  0  0
   16.1318   -7.6510  -18.1871 C   0  0  0  0  0  0  0  0  0  0  0  0
   15.8575   -8.0227  -19.3703 N   0  0  0  0  0  0  0  0  0  0  0  0
   17.4626   -7.3784  -17.7762 N   0  0  0  0  0  0  0  0  0  0  0  0
   17.7732   -6.9215  -16.4619 C   0  0  0  0  0  0  0  0  0  0  0  0
   19.2538   -6.8353  -16.1693 C   0  0  0  0  0  0  0  0  0  0  0  0
   19.8423   -8.1975  -15.9667 C   0  0  0  0  0  0  0  0  0  0  0  0
   21.2727   -8.2120  -15.5303 C   0  0  2  0  0  0  0  0  0  0  0  0
   21.5983   -9.6189  -15.2442 N   0  0  0  0  0  0  0  0  0  0  0  0
   21.5698   -7.4371  -14.3258 C   0  0  0  0  0  0  0  0  0  0  0  0
   21.8720   -7.9825  -13.2237 O   0  0  0  0  0  0  0  0  0  0  0  0
   21.5289   -6.0579  -14.3585 O   0  0  0  0  0  0  0  0  0  0  0  0
  2  1  1  1
  2  3  1  0
  4  2  1  0
  5  4  1  0
  5  6  1  1
  7  8  2  0
  7  5  1  0
  9 10  1  0
 10 11  1  0
 11 12  1  0
 13 12  1  6
 13 15  1  0
 13 14  1  0
 14  7  1  0
 15 16  2  0
 18 17  1  0
 18 20  1  0
 19 18  2  0
 20 21  1  0
 21 22  1  0
 22 23  1  0
 24 23  1  1
 24 26  1  0
 25 24  1  0
 25 15  1  0
 26 27  2  0
 26 28  1  0
M  END
$$$$
