LMR.pdb
     RDKit          3D

 28 27  0  0  1  0  0  0  0  0999 V2000
   27.7024  -17.5069  -17.4147 C   0  0  0  0  0  0  0  0  0  0  0  0
   28.3574  -18.5369  -16.5515 C   0  0  1  0  0  0  0  0  0  0  0  0
   29.3790  -17.9278  -15.6211 C   0  0  0  0  0  0  0  0  0  0  0  0
   27.3862  -19.3464  -15.7442 C   0  0  0  0  0  0  0  0  0  0  0  0
   28.0330  -20.3762  -14.8499 C   0  0  2  0  0  0  0  0  0  0  0  0
   28.5202  -21.5142  -15.6258 N   0  0  0  0  0  0  0  0  0  0  0  0
   26.9231  -20.9152  -13.9909 C   0  0  0  0  0  0  0  0  0  0  0  0
   26.0321  -21.6819  -14.4384 O   0  0  0  0  0  0  0  0  0  0  0  0
   26.2974  -19.3535   -7.7833 C   0  0  0  0  0  0  0  0  0  0  0  0
   25.1116  -20.7184   -7.7966 S   0  0  0  0  0  0  0  0  0  0  0  0
   24.7894  -21.2145   -9.5142 C   0  0  0  0  0  0  0  0  0  0  0  0
   25.9082  -20.6605  -10.3595 C   0  0  0  0  0  0  0  0  0  0  0  0
   25.7439  -21.0033  -11.8291 C   0  0  2  0  0  0  0  0  0  0  0  0
   26.8465  -20.5678  -12.6203 N   0  0  0  0  0  0  0  0  0  0  0  0
   24.4767  -20.4062  -12.2827 C   0  0  0  0  0  0  0  0  0  0  0  0
   24.3171  -19.1584  -12.4449 O   0  0  0  0  0  0  0  0  0  0  0  0
   18.4722  -20.5296  -15.6993 N   0  0  0  0  0  0  0  0  0  0  0  0
   18.6968  -20.3295  -17.0871 C   0  0  0  0  0  0  0  0  0  0  0  0
   17.7311  -19.9288  -17.8083 N   0  0  0  0  0  0  0  0  0  0  0  0
   19.9839  -20.5810  -17.6296 N   0  0  0  0  0  0  0  0  0  0  0  0
   21.0817  -20.9953  -16.8198 C   0  0  0  0  0  0  0  0  0  0  0  0
   20.9253  -20.6726  -15.3512 C   0  0  0  0  0  0  0  0  0  0  0  0
   22.1446  -21.0738  -14.5795 C   0  0  0  0  0  0  0  0  0  0  0  0
   22.1300  -20.7005  -13.1315 C   0  0  2  0  0  0  0  0  0  0  0  0
   23.3721  -21.2432  -12.5570 N   0  0  0  0  0  0  0  0  0  0  0  0
   21.0133  -21.2391  -12.3551 C   0  0  0  0  0  0  0  0  0  0  0  0
   21.1232  -22.2740  -11.6338 O   0  0  0  0  0  0  0  0  0  0  0  0
   19.7807  -20.6191  -12.3877 O   0  0  0  0  0  0  0  0  0  0  0  0
  2  1  1  1
  2  3  1  0
  4  2  1  0
  5  4  1  0
  5  6  1  6
  7  8  2  0
  7  5  1  0
  9 10  1  0
 10 11  1  0
 11 12  1  0
 13 12  1  1
 13 15  1  0
 13 14  1  0
 14  7  1  0
 15 16  2  0
 18 17  1  0
 18 20  1  0
 19 18  2  0
 20 21  1  0
 21 22  1  0
 22 23  1  0
 24 23  1  6
 24 26  1  0
 25 24  1  0
 25 15  1  0
 26 27  2  0
 26 28  1  0
M  END
$$$$
