LMR.pdb
     RDKit          3D

 28 27  0  0  1  0  0  0  0  0999 V2000
   19.9977  -23.3014  -14.4890 C   0  0  0  0  0  0  0  0  0  0  0  0
   20.0220  -22.5757  -13.1821 C   0  0  1  0  0  0  0  0  0  0  0  0
   19.7206  -23.4925  -12.0207 C   0  0  0  0  0  0  0  0  0  0  0  0
   21.3158  -21.8643  -12.9167 C   0  0  0  0  0  0  0  0  0  0  0  0
   21.3693  -21.1545  -11.5856 C   0  0  2  0  0  0  0  0  0  0  0  0
   20.5129  -19.9709  -11.5864 N   0  0  0  0  0  0  0  0  0  0  0  0
   22.7760  -20.6383  -11.4626 C   0  0  0  0  0  0  0  0  0  0  0  0
   23.2407  -19.7518  -12.2241 O   0  0  0  0  0  0  0  0  0  0  0  0
   26.4297  -20.1992   -6.1657 C   0  0  0  0  0  0  0  0  0  0  0  0
   27.2277  -19.4526   -7.6062 S   0  0  0  0  0  0  0  0  0  0  0  0
   27.0908  -20.5849   -9.0200 C   0  0  0  0  0  0  0  0  0  0  0  0
   25.6603  -21.0574   -9.0808 C   0  0  0  0  0  0  0  0  0  0  0  0
   25.0011  -20.7297  -10.4083 C   0  0  2  0  0  0  0  0  0  0  0  0
   23.6394  -21.1467  -10.4620 N   0  0  0  0  0  0  0  0  0  0  0  0
   25.8070  -21.3583  -11.4683 C   0  0  0  0  0  0  0  0  0  0  0  0
   26.0119  -22.6082  -11.5343 O   0  0  0  0  0  0  0  0  0  0  0  0
   25.2260  -15.9139  -15.7974 N   0  0  0  0  0  0  0  0  0  0  0  0
   24.1171  -16.8008  -15.7906 C   0  0  0  0  0  0  0  0  0  0  0  0
   22.9601  -16.3269  -15.5675 N   0  0  0  0  0  0  0  0  0  0  0  0
   24.3276  -18.1837  -16.0304 N   0  0  0  0  0  0  0  0  0  0  0  0
   25.6325  -18.7397  -16.1742 C   0  0  0  0  0  0  0  0  0  0  0  0
   26.2757  -19.1567  -14.8712 C   0  0  0  0  0  0  0  0  0  0  0  0
   26.5143  -20.6348  -14.8380 C   0  0  0  0  0  0  0  0  0  0  0  0
   27.1470  -21.1471  -13.5835 C   0  0  2  0  0  0  0  0  0  0  0  0
   26.3893  -20.5510  -12.4708 N   0  0  0  0  0  0  0  0  0  0  0  0
   28.5538  -20.7916  -13.3989 C   0  0  0  0  0  0  0  0  0  0  0  0
   28.9290  -19.9056  -12.5757 O   0  0  0  0  0  0  0  0  0  0  0  0
   29.5339  -21.4277  -14.1337 O   0  0  0  0  0  0  0  0  0  0  0  0
  2  1  1  6
  2  3  1  0
  4  2  1  0
  5  4  1  0
  5  6  1  6
  7  8  2  0
  7  5  1  0
  9 10  1  0
 10 11  1  0
 11 12  1  0
 13 12  1  1
 13 15  1  0
 13 14  1  0
 14  7  1  0
 15 16  2  0
 18 17  1  0
 18 20  1  0
 19 18  2  0
 20 21  1  0
 21 22  1  0
 22 23  1  0
 24 23  1  6
 24 26  1  0
 25 24  1  0
 25 15  1  0
 26 27  2  0
 26 28  1  0
M  END
$$$$
