LMR.pdb
     RDKit          3D

 28 27  0  0  1  0  0  0  0  0999 V2000
   18.5304  -18.9684  -14.1779 C   0  0  0  0  0  0  0  0  0  0  0  0
   19.2195  -20.0558  -13.4177 C   0  0  1  0  0  0  0  0  0  0  0  0
   19.0946  -21.3937  -14.1065 C   0  0  0  0  0  0  0  0  0  0  0  0
   20.6703  -19.7768  -13.1571 C   0  0  0  0  0  0  0  0  0  0  0  0
   21.4193  -20.9296  -12.5339 C   0  0  2  0  0  0  0  0  0  0  0  0
   20.9297  -21.2070  -11.1857 N   0  0  0  0  0  0  0  0  0  0  0  0
   22.8317  -20.4440  -12.3615 C   0  0  0  0  0  0  0  0  0  0  0  0
   23.4055  -19.7157  -13.2113 O   0  0  0  0  0  0  0  0  0  0  0  0
   26.3608  -19.3752   -6.7178 C   0  0  0  0  0  0  0  0  0  0  0  0
   27.3768  -20.4116   -7.7961 S   0  0  0  0  0  0  0  0  0  0  0  0
   26.8930  -20.1315   -9.5245 C   0  0  0  0  0  0  0  0  0  0  0  0
   25.4907  -20.6600   -9.6902 C   0  0  0  0  0  0  0  0  0  0  0  0
   24.9329  -20.3893  -11.0758 C   0  0  2  0  0  0  0  0  0  0  0  0
   23.5749  -20.8003  -11.2101 N   0  0  0  0  0  0  0  0  0  0  0  0
   25.8080  -21.0703  -12.0447 C   0  0  0  0  0  0  0  0  0  0  0  0
   25.8330  -22.3299  -12.1903 O   0  0  0  0  0  0  0  0  0  0  0  0
   27.9225  -17.7135  -19.7512 N   0  0  0  0  0  0  0  0  0  0  0  0
   28.5057  -19.0052  -19.8383 C   0  0  0  0  0  0  0  0  0  0  0  0
   29.0768  -19.3434  -20.9212 N   0  0  0  0  0  0  0  0  0  0  0  0
   28.4356  -19.8797  -18.7227 N   0  0  0  0  0  0  0  0  0  0  0  0
   27.7981  -19.5060  -17.5035 C   0  0  0  0  0  0  0  0  0  0  0  0
   27.9658  -20.5077  -16.3837 C   0  0  0  0  0  0  0  0  0  0  0  0
   27.2335  -20.0673  -15.1538 C   0  0  0  0  0  0  0  0  0  0  0  0
   27.4407  -20.9293  -13.9495 C   0  0  2  0  0  0  0  0  0  0  0  0
   26.6691  -20.3048  -12.8623 N   0  0  0  0  0  0  0  0  0  0  0  0
   28.8256  -21.0498  -13.4940 C   0  0  0  0  0  0  0  0  0  0  0  0
   29.2874  -20.3661  -12.5334 O   0  0  0  0  0  0  0  0  0  0  0  0
   29.6866  -21.9335  -14.1126 O   0  0  0  0  0  0  0  0  0  0  0  0
  2  1  1  6
  2  3  1  0
  4  2  1  0
  5  4  1  0
  5  6  1  1
  7  8  2  0
  7  5  1  0
  9 10  1  0
 10 11  1  0
 11 12  1  0
 13 12  1  1
 13 15  1  0
 13 14  1  0
 14  7  1  0
 15 16  2  0
 18 17  1  0
 18 20  1  0
 19 18  2  0
 20 21  1  0
 21 22  1  0
 22 23  1  0
 24 23  1  6
 24 26  1  0
 25 24  1  0
 25 15  1  0
 26 27  2  0
 26 28  1  0
M  END
$$$$
