LMR.pdb
     RDKit          3D

 28 27  0  0  1  0  0  0  0  0999 V2000
   26.9489  -13.1979  -17.3577 C   0  0  0  0  0  0  0  0  0  0  0  0
   27.3115  -13.9100  -16.0941 C   0  0  1  0  0  0  0  0  0  0  0  0
   27.7531  -12.9529  -15.0128 C   0  0  0  0  0  0  0  0  0  0  0  0
   26.2096  -14.7749  -15.5574 C   0  0  0  0  0  0  0  0  0  0  0  0
   25.9900  -16.0499  -16.3350 C   0  0  2  0  0  0  0  0  0  0  0  0
   26.0173  -15.7991  -17.7740 N   0  0  0  0  0  0  0  0  0  0  0  0
   24.5814  -16.4726  -16.0228 C   0  0  0  0  0  0  0  0  0  0  0  0
   24.2080  -16.7780  -14.8613 O   0  0  0  0  0  0  0  0  0  0  0  0
   17.5081  -15.8149  -16.0807 C   0  0  0  0  0  0  0  0  0  0  0  0
   19.2390  -15.5027  -16.5000 S   0  0  0  0  0  0  0  0  0  0  0  0
   19.8710  -16.8823  -17.4985 C   0  0  0  0  0  0  0  0  0  0  0  0
   21.2984  -16.5587  -17.8600 C   0  0  0  0  0  0  0  0  0  0  0  0
   22.2696  -16.9176  -16.7499 C   0  0  2  0  0  0  0  0  0  0  0  0
   23.6106  -16.5407  -17.0514 N   0  0  0  0  0  0  0  0  0  0  0  0
   22.1501  -18.3655  -16.5101 C   0  0  0  0  0  0  0  0  0  0  0  0
   22.5211  -19.2403  -17.3502 O   0  0  0  0  0  0  0  0  0  0  0  0
   24.3446  -24.6571  -14.5814 N   0  0  0  0  0  0  0  0  0  0  0  0
   25.3279  -23.6327  -14.5732 C   0  0  0  0  0  0  0  0  0  0  0  0
   26.3576  -23.7716  -15.3038 N   0  0  0  0  0  0  0  0  0  0  0  0
   25.1379  -22.4889  -13.7548 N   0  0  0  0  0  0  0  0  0  0  0  0
   23.9824  -22.3243  -12.9360 C   0  0  0  0  0  0  0  0  0  0  0  0
   22.7119  -22.0438  -13.7059 C   0  0  0  0  0  0  0  0  0  0  0  0
   22.6866  -20.6324  -14.2060 C   0  0  0  0  0  0  0  0  0  0  0  0
   21.4792  -20.2655  -15.0087 C   0  0  2  0  0  0  0  0  0  0  0  0
   21.5996  -18.8260  -15.2932 N   0  0  0  0  0  0  0  0  0  0  0  0
   20.1941  -20.4771  -14.3428 C   0  0  0  0  0  0  0  0  0  0  0  0
   19.6842  -21.6272  -14.1985 O   0  0  0  0  0  0  0  0  0  0  0  0
   19.4860  -19.4040  -13.8409 O   0  0  0  0  0  0  0  0  0  0  0  0
  2  1  1  6
  2  3  1  0
  4  2  1  0
  5  4  1  0
  5  6  1  6
  7  8  2  0
  7  5  1  0
  9 10  1  0
 10 11  1  0
 11 12  1  0
 13 12  1  6
 13 15  1  0
 13 14  1  0
 14  7  1  0
 15 16  2  0
 18 17  1  0
 18 20  1  0
 19 18  2  0
 20 21  1  0
 21 22  1  0
 22 23  1  0
 24 23  1  1
 24 26  1  0
 25 24  1  0
 25 15  1  0
 26 27  2  0
 26 28  1  0
M  END
$$$$
