LMR.pdb
     RDKit          3D

 28 27  0  0  1  0  0  0  0  0999 V2000
   29.9920  -19.4810   -4.3946 C   0  0  0  0  0  0  0  0  0  0  0  0
   28.6616  -20.0346   -4.7933 C   0  0  1  0  0  0  0  0  0  0  0  0
   27.6868  -20.0490   -3.6402 C   0  0  0  0  0  0  0  0  0  0  0  0
   28.0357  -19.3131   -5.9501 C   0  0  0  0  0  0  0  0  0  0  0  0
   26.7438  -19.9251   -6.4346 C   0  0  2  0  0  0  0  0  0  0  0  0
   26.6981  -21.3558   -6.1424 N   0  0  0  0  0  0  0  0  0  0  0  0
   26.7864  -19.8176   -7.9336 C   0  0  0  0  0  0  0  0  0  0  0  0
   26.8153  -18.7120   -8.5324 O   0  0  0  0  0  0  0  0  0  0  0  0
   32.3296  -22.2632  -10.3268 C   0  0  0  0  0  0  0  0  0  0  0  0
   30.6392  -22.7423  -10.7535 S   0  0  0  0  0  0  0  0  0  0  0  0
   29.4893  -21.4623  -10.1711 C   0  0  0  0  0  0  0  0  0  0  0  0
   28.1046  -21.8702  -10.6062 C   0  0  0  0  0  0  0  0  0  0  0  0
   27.0418  -20.8942  -10.1352 C   0  0  2  0  0  0  0  0  0  0  0  0
   26.7957  -20.9854   -8.7343 N   0  0  0  0  0  0  0  0  0  0  0  0
   25.8242  -21.1541  -10.9215 C   0  0  0  0  0  0  0  0  0  0  0  0
   25.0555  -22.1392  -10.7039 O   0  0  0  0  0  0  0  0  0  0  0  0
   22.1097  -20.5760  -17.4568 N   0  0  0  0  0  0  0  0  0  0  0  0
   21.3281  -19.3986  -17.3192 C   0  0  0  0  0  0  0  0  0  0  0  0
   20.2703  -19.2856  -18.0132 N   0  0  0  0  0  0  0  0  0  0  0  0
   21.7452  -18.3850  -16.4176 N   0  0  0  0  0  0  0  0  0  0  0  0
   22.9384  -18.4991  -15.6457 C   0  0  0  0  0  0  0  0  0  0  0  0
   22.7494  -19.1800  -14.3092 C   0  0  0  0  0  0  0  0  0  0  0  0
   24.0380  -19.2385  -13.5484 C   0  0  0  0  0  0  0  0  0  0  0  0
   24.2641  -20.5015  -12.7801 C   0  0  2  0  0  0  0  0  0  0  0  0
   25.4751  -20.2778  -11.9733 N   0  0  0  0  0  0  0  0  0  0  0  0
   24.4896  -21.6980  -13.5908 C   0  0  0  0  0  0  0  0  0  0  0  0
   25.6471  -22.0748  -13.9398 O   0  0  0  0  0  0  0  0  0  0  0  0
   23.4220  -22.4677  -14.0064 O   0  0  0  0  0  0  0  0  0  0  0  0
  2  1  1  1
  2  3  1  0
  4  2  1  0
  5  4  1  0
  5  6  1  6
  7  8  2  0
  7  5  1  0
  9 10  1  0
 10 11  1  0
 11 12  1  0
 13 12  1  6
 13 15  1  0
 13 14  1  0
 14  7  1  0
 15 16  2  0
 18 17  1  0
 18 20  1  0
 19 18  2  0
 20 21  1  0
 21 22  1  0
 22 23  1  0
 24 23  1  6
 24 26  1  0
 25 24  1  0
 25 15  1  0
 26 27  2  0
 26 28  1  0
M  END
$$$$
