EEK.pdb
     RDKit          3D

 28 27  0  0  1  0  0  0  0  0999 V2000
   15.6871  -12.0542  -14.4024 N   0  0  0  0  0  0  0  0  0  0  0  0
   16.8789  -11.2740  -14.0055 C   0  0  1  0  0  0  0  0  0  0  0  0
   17.8176  -11.3784  -15.1612 C   0  0  0  0  0  0  0  0  0  0  0  0
   18.6629  -12.6030  -15.1587 C   0  0  0  0  0  0  0  0  0  0  0  0
   17.7546  -13.7699  -15.4576 C   0  0  0  0  0  0  0  0  0  0  0  0
   17.1751  -13.8272  -16.5343 O   0  0  0  0  0  0  0  0  0  0  0  0
   16.4364   -9.8921  -13.7655 C   0  0  0  0  0  0  0  0  0  0  0  0
   15.6044   -9.3608  -14.5744 O   0  0  0  0  0  0  0  0  0  0  0  0
   17.6024  -14.7475  -14.5015 O   0  0  0  0  0  0  0  0  0  0  0  0
   16.8503   -9.0813  -12.7019 N   0  0  0  0  0  0  0  0  0  0  0  0
   16.4124   -7.6746  -12.5259 C   0  0  1  0  0  0  0  0  0  0  0  0
   16.2199   -7.5300  -11.0553 C   0  0  0  0  0  0  0  0  0  0  0  0
   15.8633   -6.1925  -10.5352 C   0  0  0  0  0  0  0  0  0  0  0  0
   15.7327   -6.2283   -9.0248 C   0  0  0  0  0  0  0  0  0  0  0  0
   16.2368   -5.2699   -8.3567 O   0  0  0  0  0  0  0  0  0  0  0  0
   17.3882   -6.7808  -13.1446 C   0  0  0  0  0  0  0  0  0  0  0  0
   18.6108   -6.9408  -12.9142 O   0  0  0  0  0  0  0  0  0  0  0  0
   15.1069   -7.2303   -8.3452 O   0  0  0  0  0  0  0  0  0  0  0  0
   17.0509   -5.7170  -14.0118 N   0  0  0  0  0  0  0  0  0  0  0  0
   18.0906   -4.8607  -14.6215 C   0  0  1  0  0  0  0  0  0  0  0  0
   17.6155   -4.5376  -16.0089 C   0  0  0  0  0  0  0  0  0  0  0  0
   18.4567   -3.5489  -16.7522 C   0  0  0  0  0  0  0  0  0  0  0  0
   17.8962   -3.1713  -18.0996 C   0  0  0  0  0  0  0  0  0  0  0  0
   18.7316   -2.1111  -18.7841 C   0  0  0  0  0  0  0  0  0  0  0  0
   18.1421   -1.6408  -19.9982 N   0  0  0  0  0  0  0  0  0  0  0  0
   18.3097   -3.6679  -13.7979 C   0  0  0  0  0  0  0  0  0  0  0  0
   17.4166   -3.2608  -12.8328 O   0  0  0  0  0  0  0  0  0  0  0  0
   19.3641   -2.9938  -13.9933 O   0  0  0  0  0  0  0  0  0  0  0  0
  2  7  1  0
  2  1  1  6
  3  2  1  0
  4  3  1  0
  5  4  1  0
  6  5  2  0
  7  8  2  0
  9  5  1  0
 10  7  1  0
 10 11  1  0
 11 12  1  1
 12 13  1  0
 13 14  1  0
 14 18  1  0
 15 14  2  0
 16 17  2  0
 16 11  1  0
 19 16  1  0
 20 19  1  0
 20 21  1  6
 22 21  1  0
 23 22  1  0
 24 23  1  0
 25 24  1  0
 26 27  1  0
 26 20  1  0
 28 26  2  0
M  END
$$$$
