EEK.pdb
     RDKit          3D

 28 27  0  0  1  0  0  0  0  0999 V2000
   16.1282   -9.7888  -13.3480 N   0  0  0  0  0  0  0  0  0  0  0  0
   15.3542   -9.6740  -12.0934 C   0  0  1  0  0  0  0  0  0  0  0  0
   15.4385  -11.0215  -11.4570 C   0  0  0  0  0  0  0  0  0  0  0  0
   14.8951  -12.1296  -12.2882 C   0  0  0  0  0  0  0  0  0  0  0  0
   15.1706  -13.4154  -11.5487 C   0  0  0  0  0  0  0  0  0  0  0  0
   16.3148  -13.6862  -11.2083 O   0  0  0  0  0  0  0  0  0  0  0  0
   15.9934   -8.6287  -11.2798 C   0  0  0  0  0  0  0  0  0  0  0  0
   15.5970   -8.4515  -10.0797 O   0  0  0  0  0  0  0  0  0  0  0  0
   14.1164  -14.2558  -11.2740 O   0  0  0  0  0  0  0  0  0  0  0  0
   17.0271   -7.7871  -11.7076 N   0  0  0  0  0  0  0  0  0  0  0  0
   17.6212   -6.7238  -10.8600 C   0  0  1  0  0  0  0  0  0  0  0  0
   18.8040   -6.2533  -11.6346 C   0  0  0  0  0  0  0  0  0  0  0  0
   20.0016   -7.1206  -11.6583 C   0  0  0  0  0  0  0  0  0  0  0  0
   21.1520   -6.4174  -12.3524 C   0  0  0  0  0  0  0  0  0  0  0  0
   21.8144   -5.5556  -11.6909 O   0  0  0  0  0  0  0  0  0  0  0  0
   16.6039   -5.7211  -10.5541 C   0  0  0  0  0  0  0  0  0  0  0  0
   15.7985   -5.3612  -11.4459 O   0  0  0  0  0  0  0  0  0  0  0  0
   21.5135   -6.6571  -13.6444 O   0  0  0  0  0  0  0  0  0  0  0  0
   16.4508   -5.1069   -9.2905 N   0  0  0  0  0  0  0  0  0  0  0  0
   15.4145   -4.0791   -9.0539 C   0  0  1  0  0  0  0  0  0  0  0  0
   14.5524   -4.5937   -7.9373 C   0  0  0  0  0  0  0  0  0  0  0  0
   13.4820   -3.6547   -7.4792 C   0  0  0  0  0  0  0  0  0  0  0  0
   12.6750   -4.1786   -6.3188 C   0  0  0  0  0  0  0  0  0  0  0  0
   11.5816   -3.2161   -5.9084 C   0  0  0  0  0  0  0  0  0  0  0  0
   10.7821   -3.7130   -4.8329 N   0  0  0  0  0  0  0  0  0  0  0  0
   16.0421   -2.7904   -8.7468 C   0  0  0  0  0  0  0  0  0  0  0  0
   17.3800   -2.6719   -8.4452 O   0  0  0  0  0  0  0  0  0  0  0  0
   15.3138   -1.7541   -8.7608 O   0  0  0  0  0  0  0  0  0  0  0  0
  2  7  1  0
  2  1  1  6
  3  2  1  0
  4  3  1  0
  5  4  1  0
  6  5  2  0
  7  8  2  0
  9  5  1  0
 10  7  1  0
 10 11  1  0
 11 12  1  6
 12 13  1  0
 13 14  1  0
 14 18  1  0
 15 14  2  0
 16 17  2  0
 16 11  1  0
 19 16  1  0
 20 19  1  0
 20 21  1  1
 22 21  1  0
 23 22  1  0
 24 23  1  0
 25 24  1  0
 26 27  1  0
 26 20  1  0
 28 26  2  0
M  END
$$$$
