EEK.pdb
     RDKit          3D

 28 27  0  0  1  0  0  0  0  0999 V2000
   17.0127  -28.4185   -6.3102 N   0  0  0  0  0  0  0  0  0  0  0  0
   17.8736  -27.5206   -5.5108 C   0  0  1  0  0  0  0  0  0  0  0  0
   17.5837  -26.1470   -6.0176 C   0  0  0  0  0  0  0  0  0  0  0  0
   18.0737  -25.8842   -7.3978 C   0  0  0  0  0  0  0  0  0  0  0  0
   18.4373  -24.4217   -7.4687 C   0  0  0  0  0  0  0  0  0  0  0  0
   17.6190  -23.5762   -7.1313 O   0  0  0  0  0  0  0  0  0  0  0  0
   17.4916  -27.6904   -4.1007 C   0  0  0  0  0  0  0  0  0  0  0  0
   16.2527  -27.7143   -3.7951 O   0  0  0  0  0  0  0  0  0  0  0  0
   19.6923  -24.0762   -7.9144 O   0  0  0  0  0  0  0  0  0  0  0  0
   18.3830  -27.8356   -3.0310 N   0  0  0  0  0  0  0  0  0  0  0  0
   17.9512  -28.0803   -1.6326 C   0  0  1  0  0  0  0  0  0  0  0  0
   19.0338  -28.9262   -1.0556 C   0  0  0  0  0  0  0  0  0  0  0  0
   18.9951  -30.3784   -1.3322 C   0  0  0  0  0  0  0  0  0  0  0  0
   20.1352  -31.0838   -0.6237 C   0  0  0  0  0  0  0  0  0  0  0  0
   21.0023  -31.6851   -1.3347 O   0  0  0  0  0  0  0  0  0  0  0  0
   17.7020  -26.8024   -0.9703 C   0  0  0  0  0  0  0  0  0  0  0  0
   18.4271  -25.8137   -1.2351 O   0  0  0  0  0  0  0  0  0  0  0  0
   20.2807  -31.1095    0.7312 O   0  0  0  0  0  0  0  0  0  0  0  0
   16.6734  -26.5864   -0.0254 N   0  0  0  0  0  0  0  0  0  0  0  0
   16.4703  -25.2638    0.6036 C   0  0  1  0  0  0  0  0  0  0  0  0
   14.9942  -24.9923    0.5555 C   0  0  0  0  0  0  0  0  0  0  0  0
   14.5617  -23.7236    1.2195 C   0  0  0  0  0  0  0  0  0  0  0  0
   13.0656  -23.5432    1.2606 C   0  0  0  0  0  0  0  0  0  0  0  0
   12.6724  -22.1997    1.8357 C   0  0  0  0  0  0  0  0  0  0  0  0
   11.2566  -22.0092    1.8785 N   0  0  0  0  0  0  0  0  0  0  0  0
   17.0092  -25.2648    1.9669 C   0  0  0  0  0  0  0  0  0  0  0  0
   17.2438  -26.4253    2.6692 O   0  0  0  0  0  0  0  0  0  0  0  0
   17.2624  -24.1482    2.5088 O   0  0  0  0  0  0  0  0  0  0  0  0
  2  7  1  0
  2  1  1  6
  3  2  1  0
  4  3  1  0
  5  4  1  0
  6  5  2  0
  7  8  2  0
  9  5  1  0
 10  7  1  0
 10 11  1  0
 11 12  1  1
 12 13  1  0
 13 14  1  0
 14 18  1  0
 15 14  2  0
 16 17  2  0
 16 11  1  0
 19 16  1  0
 20 19  1  0
 20 21  1  1
 22 21  1  0
 23 22  1  0
 24 23  1  0
 25 24  1  0
 26 27  1  0
 26 20  1  0
 28 26  2  0
M  END
$$$$
