EEK.pdb
     RDKit          3D

 28 27  0  0  1  0  0  0  0  0999 V2000
   18.2572  -11.5475  -14.8616 N   0  0  0  0  0  0  0  0  0  0  0  0
   18.0247  -10.1070  -15.1004 C   0  0  1  0  0  0  0  0  0  0  0  0
   16.6323  -10.0179  -15.6305 C   0  0  0  0  0  0  0  0  0  0  0  0
   15.7168  -11.0822  -15.1374 C   0  0  0  0  0  0  0  0  0  0  0  0
   14.3637  -10.8239  -15.7525 C   0  0  0  0  0  0  0  0  0  0  0  0
   14.2789  -10.5696  -16.9469 O   0  0  0  0  0  0  0  0  0  0  0  0
   18.1782   -9.4197  -13.8092 C   0  0  0  0  0  0  0  0  0  0  0  0
   17.8062  -10.0163  -12.7441 O   0  0  0  0  0  0  0  0  0  0  0  0
   13.2513  -10.8829  -14.9450 O   0  0  0  0  0  0  0  0  0  0  0  0
   18.7116   -8.1376  -13.6315 N   0  0  0  0  0  0  0  0  0  0  0  0
   18.9722   -7.5363  -12.3002 C   0  0  1  0  0  0  0  0  0  0  0  0
   19.9705   -6.4634  -12.5697 C   0  0  0  0  0  0  0  0  0  0  0  0
   21.3388   -6.8751  -12.9506 C   0  0  0  0  0  0  0  0  0  0  0  0
   22.2378   -5.6620  -13.0913 C   0  0  0  0  0  0  0  0  0  0  0  0
   22.8554   -5.2505  -12.0578 O   0  0  0  0  0  0  0  0  0  0  0  0
   17.7083   -7.1130  -11.7024 C   0  0  0  0  0  0  0  0  0  0  0  0
   16.8219   -6.5965  -12.4242 O   0  0  0  0  0  0  0  0  0  0  0  0
   22.4188   -4.9890  -14.2626 O   0  0  0  0  0  0  0  0  0  0  0  0
   17.3963   -7.2460  -10.3304 N   0  0  0  0  0  0  0  0  0  0  0  0
   16.1329   -6.7178   -9.7728 C   0  0  1  0  0  0  0  0  0  0  0  0
   15.3023   -7.9110   -9.3969 C   0  0  0  0  0  0  0  0  0  0  0  0
   13.9863   -7.5918   -8.7615 C   0  0  0  0  0  0  0  0  0  0  0  0
   13.1433   -8.8082   -8.4749 C   0  0  0  0  0  0  0  0  0  0  0  0
   11.8303   -8.4452   -7.8154 C   0  0  0  0  0  0  0  0  0  0  0  0
   10.9807   -9.5768   -7.6145 N   0  0  0  0  0  0  0  0  0  0  0  0
   16.4125   -5.8330   -8.6379 C   0  0  0  0  0  0  0  0  0  0  0  0
   15.5227   -4.8734   -8.2108 O   0  0  0  0  0  0  0  0  0  0  0  0
   17.5198   -5.9654   -8.0373 O   0  0  0  0  0  0  0  0  0  0  0  0
  2  7  1  0
  2  1  1  1
  3  2  1  0
  4  3  1  0
  5  4  1  0
  6  5  2  0
  7  8  2  0
  9  5  1  0
 10  7  1  0
 10 11  1  0
 11 12  1  6
 12 13  1  0
 13 14  1  0
 14 18  1  0
 15 14  2  0
 16 17  2  0
 16 11  1  0
 19 16  1  0
 20 19  1  0
 20 21  1  1
 22 21  1  0
 23 22  1  0
 24 23  1  0
 25 24  1  0
 26 27  1  0
 26 20  1  0
 28 26  2  0
M  END
$$$$
