EEK.pdb
     RDKit          3D

 28 27  0  0  1  0  0  0  0  0999 V2000
   25.1662  -22.1762  -14.7444 N   0  0  0  0  0  0  0  0  0  0  0  0
   25.3110  -21.4169  -13.4838 C   0  0  1  0  0  0  0  0  0  0  0  0
   26.1666  -20.2439  -13.8296 C   0  0  0  0  0  0  0  0  0  0  0  0
   27.3782  -20.5793  -14.6256 C   0  0  0  0  0  0  0  0  0  0  0  0
   27.0955  -20.1817  -16.0532 C   0  0  0  0  0  0  0  0  0  0  0  0
   25.9924  -19.7444  -16.3540 O   0  0  0  0  0  0  0  0  0  0  0  0
   23.9612  -21.0198  -13.0555 C   0  0  0  0  0  0  0  0  0  0  0  0
   23.8284  -20.3410  -11.9830 O   0  0  0  0  0  0  0  0  0  0  0  0
   28.0966  -20.3226  -16.9864 O   0  0  0  0  0  0  0  0  0  0  0  0
   22.7739  -21.3213  -13.7333 N   0  0  0  0  0  0  0  0  0  0  0  0
   21.4342  -20.8770  -13.2757 C   0  0  1  0  0  0  0  0  0  0  0  0
   20.8774  -20.1288  -14.4379 C   0  0  0  0  0  0  0  0  0  0  0  0
   19.4642  -19.6990  -14.3677 C   0  0  0  0  0  0  0  0  0  0  0  0
   19.0330  -19.0777  -15.6821 C   0  0  0  0  0  0  0  0  0  0  0  0
   19.6578  -19.4147  -16.7380 O   0  0  0  0  0  0  0  0  0  0  0  0
   20.6678  -22.0341  -12.8200 C   0  0  0  0  0  0  0  0  0  0  0  0
   20.8002  -23.1361  -13.4045 O   0  0  0  0  0  0  0  0  0  0  0  0
   18.0150  -18.1783  -15.7933 O   0  0  0  0  0  0  0  0  0  0  0  0
   19.7613  -22.0078  -11.7361 N   0  0  0  0  0  0  0  0  0  0  0  0
   19.0824  -23.2356  -11.2694 C   0  0  1  0  0  0  0  0  0  0  0  0
   19.0060  -23.1367   -9.7730 C   0  0  0  0  0  0  0  0  0  0  0  0
   18.3769  -24.3105   -9.0919 C   0  0  0  0  0  0  0  0  0  0  0  0
   18.3798  -24.2090   -7.5879 C   0  0  0  0  0  0  0  0  0  0  0  0
   17.8293  -25.4582   -6.9345 C   0  0  0  0  0  0  0  0  0  0  0  0
   18.0091  -25.4660   -5.5166 N   0  0  0  0  0  0  0  0  0  0  0  0
   17.7667  -23.3577  -11.9041 C   0  0  0  0  0  0  0  0  0  0  0  0
   17.2075  -24.5753  -12.2201 O   0  0  0  0  0  0  0  0  0  0  0  0
   17.1313  -22.2944  -12.1687 O   0  0  0  0  0  0  0  0  0  0  0  0
  2  7  1  0
  2  1  1  6
  3  2  1  0
  4  3  1  0
  5  4  1  0
  6  5  2  0
  7  8  2  0
  9  5  1  0
 10  7  1  0
 10 11  1  0
 11 12  1  6
 12 13  1  0
 13 14  1  0
 14 18  1  0
 15 14  2  0
 16 17  2  0
 16 11  1  0
 19 16  1  0
 20 19  1  0
 20 21  1  1
 22 21  1  0
 23 22  1  0
 24 23  1  0
 25 24  1  0
 26 27  1  0
 26 20  1  0
 28 26  2  0
M  END
$$$$
