EEK.pdb
     RDKit          3D

 28 27  0  0  1  0  0  0  0  0999 V2000
   16.2696  -29.9662   -5.5399 N   0  0  0  0  0  0  0  0  0  0  0  0
   16.4108  -30.1934   -4.0857 C   0  0  1  0  0  0  0  0  0  0  0  0
   17.5393  -31.1605   -3.9485 C   0  0  0  0  0  0  0  0  0  0  0  0
   17.1718  -32.5771   -4.2177 C   0  0  0  0  0  0  0  0  0  0  0  0
   18.4336  -33.3945   -4.0917 C   0  0  0  0  0  0  0  0  0  0  0  0
   18.3801  -34.6129   -4.1976 O   0  0  0  0  0  0  0  0  0  0  0  0
   16.7086  -28.8927   -3.4671 C   0  0  0  0  0  0  0  0  0  0  0  0
   17.0956  -28.8612   -2.2514 O   0  0  0  0  0  0  0  0  0  0  0  0
   19.6215  -32.7402   -3.8598 O   0  0  0  0  0  0  0  0  0  0  0  0
   16.6082  -27.6500   -4.1040 N   0  0  0  0  0  0  0  0  0  0  0  0
   17.0241  -26.3718   -3.4756 C   0  0  1  0  0  0  0  0  0  0  0  0
   17.7338  -25.6406   -4.5628 C   0  0  0  0  0  0  0  0  0  0  0  0
   17.0388  -25.4896   -5.8594 C   0  0  0  0  0  0  0  0  0  0  0  0
   17.8627  -24.6392   -6.8068 C   0  0  0  0  0  0  0  0  0  0  0  0
   19.0019  -24.2335   -6.4114 O   0  0  0  0  0  0  0  0  0  0  0  0
   15.8552  -25.7093   -2.9021 C   0  0  0  0  0  0  0  0  0  0  0  0
   14.7524  -25.7708   -3.4967 O   0  0  0  0  0  0  0  0  0  0  0  0
   17.4492  -24.2856   -8.0565 O   0  0  0  0  0  0  0  0  0  0  0  0
   15.8708  -24.9827   -1.6901 N   0  0  0  0  0  0  0  0  0  0  0  0
   14.6693  -24.2724   -1.2020 C   0  0  1  0  0  0  0  0  0  0  0  0
   15.0123  -23.7436    0.1609 C   0  0  0  0  0  0  0  0  0  0  0  0
   13.9518  -22.9044    0.8000 C   0  0  0  0  0  0  0  0  0  0  0  0
   14.3904  -22.2540    2.0873 C   0  0  0  0  0  0  0  0  0  0  0  0
   13.3539  -21.2857    2.6149 C   0  0  0  0  0  0  0  0  0  0  0  0
   13.7819  -20.6075    3.7980 N   0  0  0  0  0  0  0  0  0  0  0  0
   14.2870  -23.2185   -2.1466 C   0  0  0  0  0  0  0  0  0  0  0  0
   12.9888  -22.7809   -2.2816 O   0  0  0  0  0  0  0  0  0  0  0  0
   15.1952  -22.7005   -2.8617 O   0  0  0  0  0  0  0  0  0  0  0  0
  2  7  1  0
  2  1  1  6
  3  2  1  0
  4  3  1  0
  5  4  1  0
  6  5  2  0
  7  8  2  0
  9  5  1  0
 10  7  1  0
 10 11  1  0
 11 12  1  6
 12 13  1  0
 13 14  1  0
 14 18  1  0
 15 14  2  0
 16 17  2  0
 16 11  1  0
 19 16  1  0
 20 19  1  0
 20 21  1  1
 22 21  1  0
 23 22  1  0
 24 23  1  0
 25 24  1  0
 26 27  1  0
 26 20  1  0
 28 26  2  0
M  END
$$$$
