KDT.pdb
     RDKit          3D

 25 24  0  0  1  0  0  0  0  0999 V2000
    9.9534  -16.1332   20.8363 N   0  0  0  0  0  0  0  0  0  0  0  0
    9.3793  -14.9906   21.5054 C   0  0  1  0  0  0  0  0  0  0  0  0
    8.2602  -14.3752   20.7186 C   0  0  0  0  0  0  0  0  0  0  0  0
    8.6052  -14.2211   19.2559 C   0  0  0  0  0  0  0  0  0  0  0  0
    7.4734  -13.6324   18.4641 C   0  0  0  0  0  0  0  0  0  0  0  0
    7.7884  -13.5117   16.9923 C   0  0  0  0  0  0  0  0  0  0  0  0
    6.6421  -12.9974   16.2683 N   0  0  0  0  0  0  0  0  0  0  0  0
    8.9598  -15.3630   22.8805 C   0  0  0  0  0  0  0  0  0  0  0  0
    8.3174  -14.5566   23.5978 O   0  0  0  0  0  0  0  0  0  0  0  0
    9.2822  -16.6234   23.3832 N   0  0  0  0  0  0  0  0  0  0  0  0
    8.8315  -17.0665   24.7606 C   0  0  1  0  0  0  0  0  0  0  0  0
    8.8971  -18.5551   24.6264 C   0  0  0  0  0  0  0  0  0  0  0  0
    7.7887  -19.2436   23.9994 C   0  0  0  0  0  0  0  0  0  0  0  0
    6.6148  -18.8613   23.9473 O   0  0  0  0  0  0  0  0  0  0  0  0
    9.8169  -16.4547   25.6462 C   0  0  0  0  0  0  0  0  0  0  0  0
   11.0184  -16.3345   25.2446 O   0  0  0  0  0  0  0  0  0  0  0  0
    8.0399  -20.4894   23.3704 O   0  0  0  0  0  0  0  0  0  0  0  0
   10.0357  -13.0669   26.9231 C   0  0  0  0  0  0  0  0  0  0  0  0
   10.0634  -13.9757   28.1170 C   0  0  1  0  0  0  0  0  0  0  0  0
    8.7759  -14.0963   28.6328 O   0  0  0  0  0  0  0  0  0  0  0  0
   10.5997  -15.3449   27.7354 C   0  0  2  0  0  0  0  0  0  0  0  0
    9.5416  -15.9758   26.9246 N   0  0  0  0  0  0  0  0  0  0  0  0
   10.8455  -16.1883   28.9220 C   0  0  0  0  0  0  0  0  0  0  0  0
   10.1764  -17.2088   29.1744 O   0  0  0  0  0  0  0  0  0  0  0  0
   11.8557  -15.8660   29.8208 O   0  0  0  0  0  0  0  0  0  0  0  0
  2  1  1  6
  3  2  1  0
  4  3  1  0
  5  6  1  0
  5  4  1  0
  6  7  1  0
  8  9  2  0
  8  2  1  0
 10  8  1  0
 11 10  1  0
 12 13  1  0
 11 12  1  6
 13 17  1  0
 14 13  2  0
 15 16  2  0
 15 11  1  0
 19 21  1  0
 19 18  1  6
 20 19  1  0
 21 22  1  6
 22 15  1  0
 23 21  1  0
 24 23  2  0
 25 23  1  0
M  END
$$$$
