KDT.pdb
     RDKit          3D

 25 24  0  0  1  0  0  0  0  0999 V2000
    6.2308  -17.5829   20.1010 N   0  0  0  0  0  0  0  0  0  0  0  0
    7.3195  -16.6826   20.3959 C   0  0  1  0  0  0  0  0  0  0  0  0
    6.8381  -15.3076   20.7537 C   0  0  0  0  0  0  0  0  0  0  0  0
    6.9594  -14.3398   19.6002 C   0  0  0  0  0  0  0  0  0  0  0  0
    8.1204  -13.4019   19.7649 C   0  0  0  0  0  0  0  0  0  0  0  0
    8.1354  -12.3007   18.7318 C   0  0  0  0  0  0  0  0  0  0  0  0
    9.2164  -11.3712   18.9964 N   0  0  0  0  0  0  0  0  0  0  0  0
    8.1904  -17.2638   21.4491 C   0  0  0  0  0  0  0  0  0  0  0  0
    7.7107  -17.9987   22.3476 O   0  0  0  0  0  0  0  0  0  0  0  0
    9.5583  -16.9915   21.4418 N   0  0  0  0  0  0  0  0  0  0  0  0
   10.4896  -17.5819   22.4814 C   0  0  1  0  0  0  0  0  0  0  0  0
   11.8262  -17.3121   21.8655 C   0  0  0  0  0  0  0  0  0  0  0  0
   13.0061  -17.8528   22.5067 C   0  0  0  0  0  0  0  0  0  0  0  0
   14.1776  -17.7103   22.1408 O   0  0  0  0  0  0  0  0  0  0  0  0
   10.1692  -16.8222   23.6855 C   0  0  0  0  0  0  0  0  0  0  0  0
   10.3957  -15.5701   23.7047 O   0  0  0  0  0  0  0  0  0  0  0  0
   12.8368  -18.6325   23.6790 O   0  0  0  0  0  0  0  0  0  0  0  0
    7.6251  -15.2082   24.9876 C   0  0  0  0  0  0  0  0  0  0  0  0
    7.9547  -16.1852   26.0779 C   0  0  1  0  0  0  0  0  0  0  0  0
    7.1848  -17.3335   25.9143 O   0  0  0  0  0  0  0  0  0  0  0  0
    9.4312  -16.5420   26.0489 C   0  0  2  0  0  0  0  0  0  0  0  0
    9.6180  -17.3684   24.8417 N   0  0  0  0  0  0  0  0  0  0  0  0
    9.8265  -17.3389   27.2272 C   0  0  0  0  0  0  0  0  0  0  0  0
   10.1890  -18.5283   27.1463 O   0  0  0  0  0  0  0  0  0  0  0  0
    9.8076  -16.7772   28.4986 O   0  0  0  0  0  0  0  0  0  0  0  0
  2  1  1  1
  3  2  1  0
  4  3  1  0
  5  6  1  0
  5  4  1  0
  6  7  1  0
  8  9  2  0
  8  2  1  0
 10  8  1  0
 11 10  1  0
 12 13  1  0
 11 12  1  6
 13 17  1  0
 14 13  2  0
 15 16  2  0
 15 11  1  0
 19 21  1  0
 19 18  1  6
 20 19  1  0
 21 22  1  6
 22 15  1  0
 23 21  1  0
 24 23  2  0
 25 23  1  0
M  END
$$$$
