KDT.pdb
     RDKit          3D

 25 24  0  0  1  0  0  0  0  0999 V2000
    6.6521  -16.7125   20.9654 N   0  0  0  0  0  0  0  0  0  0  0  0
    7.6040  -15.8177   21.5787 C   0  0  1  0  0  0  0  0  0  0  0  0
    7.0310  -14.4508   21.8096 C   0  0  0  0  0  0  0  0  0  0  0  0
    6.8815  -13.6678   20.5264 C   0  0  0  0  0  0  0  0  0  0  0  0
    8.2071  -13.3503   19.8967 C   0  0  0  0  0  0  0  0  0  0  0  0
    8.0790  -12.4852   18.6657 C   0  0  0  0  0  0  0  0  0  0  0  0
    9.3849  -12.2180   18.0950 N   0  0  0  0  0  0  0  0  0  0  0  0
    8.1389  -16.4200   22.8264 C   0  0  0  0  0  0  0  0  0  0  0  0
    7.3683  -16.7635   23.7568 O   0  0  0  0  0  0  0  0  0  0  0  0
    9.5137  -16.6074   22.9683 N   0  0  0  0  0  0  0  0  0  0  0  0
   10.1059  -17.2085   24.2270 C   0  0  1  0  0  0  0  0  0  0  0  0
   11.3862  -17.7804   23.7052 C   0  0  0  0  0  0  0  0  0  0  0  0
   12.3015  -18.3978   24.6416 C   0  0  0  0  0  0  0  0  0  0  0  0
   12.1251  -18.5540   25.8545 O   0  0  0  0  0  0  0  0  0  0  0  0
   10.2288  -16.0599   25.1188 C   0  0  0  0  0  0  0  0  0  0  0  0
   10.6796  -14.9637   24.6559 O   0  0  0  0  0  0  0  0  0  0  0  0
   13.5393  -18.8849   24.1501 O   0  0  0  0  0  0  0  0  0  0  0  0
    8.6262  -13.0834   28.3379 C   0  0  0  0  0  0  0  0  0  0  0  0
    8.6151  -14.3062   27.4681 C   0  0  1  0  0  0  0  0  0  0  0  0
    8.0647  -13.9848   26.2303 O   0  0  0  0  0  0  0  0  0  0  0  0
   10.0234  -14.8461   27.2852 C   0  0  2  0  0  0  0  0  0  0  0  0
    9.8800  -16.0647   26.4669 N   0  0  0  0  0  0  0  0  0  0  0  0
   10.6403  -15.2178   28.5740 C   0  0  0  0  0  0  0  0  0  0  0  0
   10.8305  -16.4014   28.9142 O   0  0  0  0  0  0  0  0  0  0  0  0
   11.0401  -14.2374   29.4746 O   0  0  0  0  0  0  0  0  0  0  0  0
  2  1  1  1
  3  2  1  0
  4  3  1  0
  5  6  1  0
  5  4  1  0
  6  7  1  0
  8  9  2  0
  8  2  1  0
 10  8  1  0
 11 10  1  0
 12 13  1  0
 11 12  1  6
 13 17  1  0
 14 13  2  0
 15 16  2  0
 15 11  1  0
 19 21  1  0
 19 18  1  1
 20 19  1  0
 21 22  1  6
 22 15  1  0
 23 21  1  0
 24 23  2  0
 25 23  1  0
M  END
$$$$
