KDT.pdb
     RDKit          3D

 25 24  0  0  1  0  0  0  0  0999 V2000
    6.6791  -16.6077   19.7484 N   0  0  0  0  0  0  0  0  0  0  0  0
    7.8831  -15.9298   20.1652 C   0  0  1  0  0  0  0  0  0  0  0  0
    7.6202  -14.5150   20.5890 C   0  0  0  0  0  0  0  0  0  0  0  0
    7.0593  -13.6751   19.4656 C   0  0  0  0  0  0  0  0  0  0  0  0
    8.0432  -13.4936   18.3459 C   0  0  0  0  0  0  0  0  0  0  0  0
    7.4711  -12.7188   17.1829 C   0  0  0  0  0  0  0  0  0  0  0  0
    8.4131  -12.6882   16.0810 N   0  0  0  0  0  0  0  0  0  0  0  0
    8.5693  -16.7141   21.2232 C   0  0  0  0  0  0  0  0  0  0  0  0
    7.9143  -17.4309   22.0200 O   0  0  0  0  0  0  0  0  0  0  0  0
    9.9583  -16.6554   21.3348 N   0  0  0  0  0  0  0  0  0  0  0  0
   10.7027  -17.4461   22.3919 C   0  0  1  0  0  0  0  0  0  0  0  0
   12.0979  -17.4166   21.8526 C   0  0  0  0  0  0  0  0  0  0  0  0
   13.1412  -18.0942   22.5931 C   0  0  0  0  0  0  0  0  0  0  0  0
   14.3550  -17.8718   22.5324 O   0  0  0  0  0  0  0  0  0  0  0  0
   10.4658  -16.6786   23.6103 C   0  0  0  0  0  0  0  0  0  0  0  0
   10.9222  -15.4936   23.6927 O   0  0  0  0  0  0  0  0  0  0  0  0
   12.7669  -19.1266   23.4903 O   0  0  0  0  0  0  0  0  0  0  0  0
    8.1989  -14.6565   24.8782 C   0  0  0  0  0  0  0  0  0  0  0  0
    8.2893  -15.7177   25.9354 C   0  0  1  0  0  0  0  0  0  0  0  0
    7.3283  -16.6945   25.6895 O   0  0  0  0  0  0  0  0  0  0  0  0
    9.6736  -16.3436   25.9489 C   0  0  2  0  0  0  0  0  0  0  0  0
    9.7598  -17.1473   24.7153 N   0  0  0  0  0  0  0  0  0  0  0  0
    9.8586  -17.2414   27.1062 C   0  0  0  0  0  0  0  0  0  0  0  0
    9.9794  -18.4762   26.9894 O   0  0  0  0  0  0  0  0  0  0  0  0
    9.9056  -16.7290   28.3975 O   0  0  0  0  0  0  0  0  0  0  0  0
  2  1  1  1
  3  2  1  0
  4  3  1  0
  5  6  1  0
  5  4  1  0
  6  7  1  0
  8  9  2  0
  8  2  1  0
 10  8  1  0
 11 10  1  0
 12 13  1  0
 11 12  1  6
 13 17  1  0
 14 13  2  0
 15 16  2  0
 15 11  1  0
 19 21  1  0
 19 18  1  6
 20 19  1  0
 21 22  1  6
 22 15  1  0
 23 21  1  0
 24 23  2  0
 25 23  1  0
M  END
$$$$
