KDT.pdb
     RDKit          3D

 25 24  0  0  1  0  0  0  0  0999 V2000
    8.2839  -18.0417   19.0127 N   0  0  0  0  0  0  0  0  0  0  0  0
    9.3574  -17.1902   19.4659 C   0  0  1  0  0  0  0  0  0  0  0  0
    8.9202  -15.7647   19.6305 C   0  0  0  0  0  0  0  0  0  0  0  0
    8.4239  -15.1644   18.3362 C   0  0  0  0  0  0  0  0  0  0  0  0
    8.0306  -13.7237   18.4919 C   0  0  0  0  0  0  0  0  0  0  0  0
    7.4404  -13.1378   17.2316 C   0  0  0  0  0  0  0  0  0  0  0  0
    6.9868  -11.7808   17.4667 N   0  0  0  0  0  0  0  0  0  0  0  0
    9.9546  -17.7410   20.7090 C   0  0  0  0  0  0  0  0  0  0  0  0
    9.2886  -18.4901   21.4659 O   0  0  0  0  0  0  0  0  0  0  0  0
   11.2715  -17.4238   21.0417 N   0  0  0  0  0  0  0  0  0  0  0  0
   11.9396  -18.0028   22.2725 C   0  0  1  0  0  0  0  0  0  0  0  0
   13.3856  -17.8643   21.9144 C   0  0  0  0  0  0  0  0  0  0  0  0
   14.3755  -18.4581   22.7881 C   0  0  0  0  0  0  0  0  0  0  0  0
   14.1591  -19.1261   23.8048 O   0  0  0  0  0  0  0  0  0  0  0  0
   11.4566  -17.1439   23.3489 C   0  0  0  0  0  0  0  0  0  0  0  0
   11.9912  -16.0011   23.5147 O   0  0  0  0  0  0  0  0  0  0  0  0
   15.7462  -18.2735   22.4749 O   0  0  0  0  0  0  0  0  0  0  0  0
    8.6242  -15.1785   24.0016 C   0  0  0  0  0  0  0  0  0  0  0  0
    8.6864  -16.1385   25.1534 C   0  0  1  0  0  0  0  0  0  0  0  0
    7.8590  -17.2267   24.8899 O   0  0  0  0  0  0  0  0  0  0  0  0
   10.1119  -16.6133   25.3785 C   0  0  2  0  0  0  0  0  0  0  0  0
   10.4300  -17.4794   24.2280 N   0  0  0  0  0  0  0  0  0  0  0  0
   10.2357  -17.4121   26.6139 C   0  0  0  0  0  0  0  0  0  0  0  0
   10.0074  -16.9434   27.7458 O   0  0  0  0  0  0  0  0  0  0  0  0
   10.6205  -18.7465   26.5568 O   0  0  0  0  0  0  0  0  0  0  0  0
  2  1  1  1
  3  2  1  0
  4  3  1  0
  5  6  1  0
  5  4  1  0
  6  7  1  0
  8  9  2  0
  8  2  1  0
 10  8  1  0
 11 10  1  0
 12 13  1  0
 11 12  1  6
 13 17  1  0
 14 13  2  0
 15 16  2  0
 15 11  1  0
 19 21  1  0
 19 18  1  6
 20 19  1  0
 21 22  1  6
 22 15  1  0
 23 21  1  0
 24 23  2  0
 25 23  1  0
M  END
$$$$
