SVA.pdb
     RDKit          3D

 19 18  0  0  1  0  0  0  0  0999 V2000
    8.1151  -17.3740   22.8409 O   0  0  0  0  0  0  0  0  0  0  0  0
    7.4681  -16.4771   22.0264 C   0  0  0  0  0  0  0  0  0  0  0  0
    8.2027  -15.1411   21.9921 C   0  0  2  0  0  0  0  0  0  0  0  0
    9.3667  -15.3146   21.1801 N   0  0  0  0  0  0  0  0  0  0  0  0
    8.5459  -14.6903   23.3708 C   0  0  0  0  0  0  0  0  0  0  0  0
    9.7090  -14.8113   23.7948 O   0  0  0  0  0  0  0  0  0  0  0  0
    6.4258  -11.6384   25.3419 C   0  0  0  0  0  0  0  0  0  0  0  0
    6.7166  -12.9008   26.0761 C   0  0  2  0  0  0  0  0  0  0  0  0
    6.9873  -12.5499   27.5427 C   0  0  0  0  0  0  0  0  0  0  0  0
    7.9255  -13.6672   25.6008 C   0  0  2  0  0  0  0  0  0  0  0  0
    7.5773  -14.1172   24.2346 N   0  0  0  0  0  0  0  0  0  0  0  0
    8.1461  -14.8207   26.4797 C   0  0  0  0  0  0  0  0  0  0  0  0
    8.2438  -14.6005   27.7362 O   0  0  0  0  0  0  0  0  0  0  0  0
    7.2903  -18.1693   27.0376 C   0  0  0  0  0  0  0  0  0  0  0  0
    8.5053  -17.2357   27.0885 C   0  0  2  0  0  0  0  0  0  0  0  0
    8.2638  -16.1731   26.0978 N   0  0  0  0  0  0  0  0  0  0  0  0
    9.6835  -18.0367   26.7364 C   0  0  0  0  0  0  0  0  0  0  0  0
   10.2389  -17.8479   25.6315 O   0  0  0  0  0  0  0  0  0  0  0  0
   10.1841  -18.9881   27.6000 O   0  0  0  0  0  0  0  0  0  0  0  0
  2  1  1  0
  3  2  1  0
  3  4  1  6
  5 11  1  0
  5  3  1  0
  6  5  2  0
  8  7  1  6
  8 10  1  0
  9  8  1  0
 10 12  1  0
 10 11  1  6
 12 16  1  0
 13 12  2  0
 15 14  1  6
 16 15  1  0
 17 15  1  0
 17 19  1  0
 18 17  2  0
M  END
$$$$
