SVA.pdb
     RDKit          3D

 19 18  0  0  1  0  0  0  0  0999 V2000
    7.3659  -19.2825   19.4162 O   0  0  0  0  0  0  0  0  0  0  0  0
    6.4460  -18.4066   18.8936 C   0  0  0  0  0  0  0  0  0  0  0  0
    7.1319  -17.3150   18.0790 C   0  0  2  0  0  0  0  0  0  0  0  0
    7.7065  -17.9385   16.9278 N   0  0  0  0  0  0  0  0  0  0  0  0
    8.1550  -16.6063   18.8993 C   0  0  0  0  0  0  0  0  0  0  0  0
    9.3556  -16.9173   18.8032 O   0  0  0  0  0  0  0  0  0  0  0  0
    6.8806  -13.8165   21.8363 C   0  0  0  0  0  0  0  0  0  0  0  0
    8.1291  -13.5875   21.0577 C   0  0  2  0  0  0  0  0  0  0  0  0
    7.7700  -12.7853   19.8028 C   0  0  0  0  0  0  0  0  0  0  0  0
    8.8307  -14.8307   20.5712 C   0  0  2  0  0  0  0  0  0  0  0  0
    7.8045  -15.5704   19.8030 N   0  0  0  0  0  0  0  0  0  0  0  0
    9.2758  -15.6204   21.7245 C   0  0  0  0  0  0  0  0  0  0  0  0
    8.4484  -16.4568   22.2270 O   0  0  0  0  0  0  0  0  0  0  0  0
   10.8353  -17.8972   22.9089 C   0  0  0  0  0  0  0  0  0  0  0  0
   10.8750  -16.4713   23.4710 C   0  0  2  0  0  0  0  0  0  0  0  0
   10.5345  -15.5687   22.3582 N   0  0  0  0  0  0  0  0  0  0  0  0
   12.2401  -16.2328   23.9539 C   0  0  0  0  0  0  0  0  0  0  0  0
   12.9911  -15.4730   23.3032 O   0  0  0  0  0  0  0  0  0  0  0  0
   12.7041  -16.8301   25.1070 O   0  0  0  0  0  0  0  0  0  0  0  0
  2  1  1  0
  3  2  1  0
  3  4  1  6
  5 11  1  0
  5  3  1  0
  6  5  2  0
  8  7  1  6
  8 10  1  0
  9  8  1  0
 10 12  1  0
 10 11  1  6
 12 16  1  0
 13 12  2  0
 15 14  1  6
 16 15  1  0
 17 15  1  0
 17 19  1  0
 18 17  2  0
M  END
$$$$
