SVA.pdb
     RDKit          3D

 19 18  0  0  1  0  0  0  0  0999 V2000
    6.9778  -16.2873   21.4962 O   0  0  0  0  0  0  0  0  0  0  0  0
    6.2099  -15.1668   21.2930 C   0  0  0  0  0  0  0  0  0  0  0  0
    7.0406  -13.8981   21.4542 C   0  0  2  0  0  0  0  0  0  0  0  0
    7.8817  -13.7892   20.3031 N   0  0  0  0  0  0  0  0  0  0  0  0
    7.8280  -13.9383   22.7192 C   0  0  0  0  0  0  0  0  0  0  0  0
    9.0261  -14.2721   22.6974 O   0  0  0  0  0  0  0  0  0  0  0  0
    5.7683  -13.1338   26.2466 C   0  0  0  0  0  0  0  0  0  0  0  0
    7.2370  -12.8887   26.2299 C   0  0  2  0  0  0  0  0  0  0  0  0
    7.4729  -11.4209   25.8595 C   0  0  0  0  0  0  0  0  0  0  0  0
    8.0219  -13.7021   25.2314 C   0  0  2  0  0  0  0  0  0  0  0  0
    7.2515  -13.6036   23.9715 N   0  0  0  0  0  0  0  0  0  0  0  0
    8.0877  -15.0957   25.6844 C   0  0  0  0  0  0  0  0  0  0  0  0
    7.3159  -15.9427   25.1153 O   0  0  0  0  0  0  0  0  0  0  0  0
   10.0043  -17.4337   25.5217 C   0  0  0  0  0  0  0  0  0  0  0  0
    9.2038  -17.0685   26.7772 C   0  0  2  0  0  0  0  0  0  0  0  0
    8.9193  -15.6260   26.6924 N   0  0  0  0  0  0  0  0  0  0  0  0
   10.0485  -17.3791   27.9363 C   0  0  0  0  0  0  0  0  0  0  0  0
   10.5167  -16.4396   28.6167 O   0  0  0  0  0  0  0  0  0  0  0  0
   10.3318  -18.6830   28.2844 O   0  0  0  0  0  0  0  0  0  0  0  0
  2  1  1  0
  3  2  1  0
  3  4  1  6
  5 11  1  0
  5  3  1  0
  6  5  2  0
  8  7  1  6
  8 10  1  0
  9  8  1  0
 10 12  1  0
 10 11  1  6
 12 16  1  0
 13 12  2  0
 15 14  1  6
 16 15  1  0
 17 15  1  0
 17 19  1  0
 18 17  2  0
M  END
$$$$
