SVA.pdb
     RDKit          3D

 19 18  0  0  1  0  0  0  0  0999 V2000
    7.3877  -17.1969   21.9460 O   0  0  0  0  0  0  0  0  0  0  0  0
    6.4733  -16.2071   21.6801 C   0  0  0  0  0  0  0  0  0  0  0  0
    7.1483  -14.8409   21.6209 C   0  0  2  0  0  0  0  0  0  0  0  0
    8.0197  -14.8437   20.4874 N   0  0  0  0  0  0  0  0  0  0  0  0
    7.8809  -14.5572   22.8876 C   0  0  0  0  0  0  0  0  0  0  0  0
    9.1160  -14.6970   22.9382 O   0  0  0  0  0  0  0  0  0  0  0  0
    6.4548  -11.8441   25.7439 C   0  0  0  0  0  0  0  0  0  0  0  0
    6.9367  -13.1729   26.2124 C   0  0  2  0  0  0  0  0  0  0  0  0
    7.6336  -12.9802   27.5631 C   0  0  0  0  0  0  0  0  0  0  0  0
    7.9422  -13.8537   25.3179 C   0  0  2  0  0  0  0  0  0  0  0  0
    7.2100  -14.1254   24.0607 N   0  0  0  0  0  0  0  0  0  0  0  0
    8.3749  -15.1094   25.9406 C   0  0  0  0  0  0  0  0  0  0  0  0
    7.4772  -15.9811   26.2067 O   0  0  0  0  0  0  0  0  0  0  0  0
   11.2890  -17.2851   26.2309 C   0  0  0  0  0  0  0  0  0  0  0  0
    9.9906  -16.7936   26.8813 C   0  0  2  0  0  0  0  0  0  0  0  0
    9.6909  -15.4800   26.2866 N   0  0  0  0  0  0  0  0  0  0  0  0
   10.2419  -16.6826   28.3228 C   0  0  0  0  0  0  0  0  0  0  0  0
   10.3065  -15.5468   28.8431 O   0  0  0  0  0  0  0  0  0  0  0  0
   10.4068  -17.8047   29.1073 O   0  0  0  0  0  0  0  0  0  0  0  0
  2  1  1  0
  3  2  1  0
  3  4  1  6
  5 11  1  0
  5  3  1  0
  6  5  2  0
  8  7  1  6
  8 10  1  0
  9  8  1  0
 10 12  1  0
 10 11  1  6
 12 16  1  0
 13 12  2  0
 15 14  1  6
 16 15  1  0
 17 15  1  0
 17 19  1  0
 18 17  2  0
M  END
$$$$
