SVA.pdb
     RDKit          3D

 19 18  0  0  1  0  0  0  0  0999 V2000
    8.1328  -17.4716   22.1614 O   0  0  0  0  0  0  0  0  0  0  0  0
    7.0511  -16.6718   21.8846 C   0  0  0  0  0  0  0  0  0  0  0  0
    7.4786  -15.2201   21.6963 C   0  0  2  0  0  0  0  0  0  0  0  0
    8.3765  -15.1800   20.5844 N   0  0  0  0  0  0  0  0  0  0  0  0
    8.1052  -14.6874   22.9394 C   0  0  0  0  0  0  0  0  0  0  0  0
    9.3440  -14.6422   23.0431 O   0  0  0  0  0  0  0  0  0  0  0  0
    6.3675  -11.8387   25.4443 C   0  0  0  0  0  0  0  0  0  0  0  0
    6.8563  -13.1014   26.0641 C   0  0  2  0  0  0  0  0  0  0  0  0
    7.4406  -12.7643   27.4396 C   0  0  0  0  0  0  0  0  0  0  0  0
    7.9498  -13.8162   25.3104 C   0  0  2  0  0  0  0  0  0  0  0  0
    7.3272  -14.2209   24.0302 N   0  0  0  0  0  0  0  0  0  0  0  0
    8.3722  -14.9973   26.0709 C   0  0  0  0  0  0  0  0  0  0  0  0
    7.7294  -16.0871   25.8818 O   0  0  0  0  0  0  0  0  0  0  0  0
   10.8142  -17.0191   26.6568 C   0  0  0  0  0  0  0  0  0  0  0  0
    9.8174  -16.3590   27.6165 C   0  0  2  0  0  0  0  0  0  0  0  0
    9.4262  -15.0780   27.0043 N   0  0  0  0  0  0  0  0  0  0  0  0
   10.5143  -16.1513   28.8911 C   0  0  0  0  0  0  0  0  0  0  0  0
   10.7873  -14.9850   29.2518 O   0  0  0  0  0  0  0  0  0  0  0  0
   10.8704  -17.2159   29.6920 O   0  0  0  0  0  0  0  0  0  0  0  0
  2  1  1  0
  3  2  1  0
  3  4  1  6
  5 11  1  0
  5  3  1  0
  6  5  2  0
  8  7  1  6
  8 10  1  0
  9  8  1  0
 10 12  1  0
 10 11  1  6
 12 16  1  0
 13 12  2  0
 15 14  1  6
 16 15  1  0
 17 15  1  0
 17 19  1  0
 18 17  2  0
M  END
$$$$
