SVA.pdb
     RDKit          3D

 19 18  0  0  1  0  0  0  0  0999 V2000
    6.1043  -16.8569   22.5077 O   0  0  0  0  0  0  0  0  0  0  0  0
    6.5371  -16.3436   21.3095 C   0  0  0  0  0  0  0  0  0  0  0  0
    6.7620  -14.8386   21.4088 C   0  0  2  0  0  0  0  0  0  0  0  0
    7.2516  -14.3953   20.1408 N   0  0  0  0  0  0  0  0  0  0  0  0
    7.7068  -14.5165   22.5158 C   0  0  0  0  0  0  0  0  0  0  0  0
    8.9336  -14.6209   22.3384 O   0  0  0  0  0  0  0  0  0  0  0  0
    8.2114  -12.6420   27.1186 C   0  0  0  0  0  0  0  0  0  0  0  0
    7.4930  -12.9444   25.8498 C   0  0  2  0  0  0  0  0  0  0  0  0
    6.1404  -13.5709   26.2034 C   0  0  0  0  0  0  0  0  0  0  0  0
    8.1786  -13.9240   24.9305 C   0  0  2  0  0  0  0  0  0  0  0  0
    7.2511  -14.0870   23.7888 N   0  0  0  0  0  0  0  0  0  0  0  0
    8.3606  -15.2008   25.6294 C   0  0  0  0  0  0  0  0  0  0  0  0
    7.3110  -15.8622   25.9416 O   0  0  0  0  0  0  0  0  0  0  0  0
   10.7734  -17.8953   26.0756 C   0  0  0  0  0  0  0  0  0  0  0  0
    9.6194  -17.1000   26.6971 C   0  0  2  0  0  0  0  0  0  0  0  0
    9.5804  -15.8007   26.0048 N   0  0  0  0  0  0  0  0  0  0  0  0
    9.9234  -16.9364   28.1235 C   0  0  0  0  0  0  0  0  0  0  0  0
   10.2464  -15.8059   28.5505 O   0  0  0  0  0  0  0  0  0  0  0  0
    9.8586  -18.0037   28.9943 O   0  0  0  0  0  0  0  0  0  0  0  0
  2  1  1  0
  3  2  1  0
  3  4  1  6
  5 11  1  0
  5  3  1  0
  6  5  2  0
  8  7  1  1
  8 10  1  0
  9  8  1  0
 10 12  1  0
 10 11  1  6
 12 16  1  0
 13 12  2  0
 15 14  1  6
 16 15  1  0
 17 15  1  0
 17 19  1  0
 18 17  2  0
M  END
$$$$
