SVA.pdb
     RDKit          3D

 19 18  0  0  1  0  0  0  0  0999 V2000
    6.1296  -18.9982   17.3399 O   0  0  0  0  0  0  0  0  0  0  0  0
    7.3879  -18.7074   17.8074 C   0  0  0  0  0  0  0  0  0  0  0  0
    7.8383  -17.3267   17.3421 C   0  0  2  0  0  0  0  0  0  0  0  0
    8.7094  -17.5160   16.2242 N   0  0  0  0  0  0  0  0  0  0  0  0
    8.5053  -16.5862   18.4505 C   0  0  0  0  0  0  0  0  0  0  0  0
    9.7185  -16.7523   18.6698 O   0  0  0  0  0  0  0  0  0  0  0  0
    7.2575  -12.7925   19.7356 C   0  0  0  0  0  0  0  0  0  0  0  0
    7.4885  -13.8528   20.7553 C   0  0  2  0  0  0  0  0  0  0  0  0
    8.0655  -13.1913   22.0110 C   0  0  0  0  0  0  0  0  0  0  0  0
    8.4685  -14.9304   20.3640 C   0  0  2  0  0  0  0  0  0  0  0  0
    7.7951  -15.6816   19.2811 N   0  0  0  0  0  0  0  0  0  0  0  0
    8.7161  -15.8038   21.5163 C   0  0  0  0  0  0  0  0  0  0  0  0
    7.7073  -16.3772   22.0550 O   0  0  0  0  0  0  0  0  0  0  0  0
   11.0648  -18.0858   22.9089 C   0  0  0  0  0  0  0  0  0  0  0  0
   10.0647  -16.9852   23.2818 C   0  0  2  0  0  0  0  0  0  0  0  0
    9.9601  -16.0953   22.1131 N   0  0  0  0  0  0  0  0  0  0  0  0
   10.6118  -16.2774   24.4451 C   0  0  0  0  0  0  0  0  0  0  0  0
   11.0794  -15.1272   24.2923 O   0  0  0  0  0  0  0  0  0  0  0  0
   10.6180  -16.8577   25.6960 O   0  0  0  0  0  0  0  0  0  0  0  0
  2  1  1  0
  3  2  1  0
  3  4  1  6
  5 11  1  0
  5  3  1  0
  6  5  2  0
  8  7  1  6
  8 10  1  0
  9  8  1  0
 10 12  1  0
 10 11  1  6
 12 16  1  0
 13 12  2  0
 15 14  1  6
 16 15  1  0
 17 15  1  0
 17 19  1  0
 18 17  2  0
M  END
$$$$
