SVA.pdb
     RDKit          3D

 19 18  0  0  1  0  0  0  0  0999 V2000
    7.0938  -17.7954   21.3326 O   0  0  0  0  0  0  0  0  0  0  0  0
    7.9626  -17.1514   22.1793 C   0  0  0  0  0  0  0  0  0  0  0  0
    7.8786  -15.6391   22.0021 C   0  0  2  0  0  0  0  0  0  0  0  0
    8.5690  -15.3117   20.7936 N   0  0  0  0  0  0  0  0  0  0  0  0
    8.4551  -14.9351   23.1827 C   0  0  0  0  0  0  0  0  0  0  0  0
    9.6770  -14.7083   23.2379 O   0  0  0  0  0  0  0  0  0  0  0  0
    6.4312  -12.1087   25.4517 C   0  0  0  0  0  0  0  0  0  0  0  0
    7.0755  -13.2348   26.1827 C   0  0  2  0  0  0  0  0  0  0  0  0
    7.6337  -12.6917   27.5021 C   0  0  0  0  0  0  0  0  0  0  0  0
    8.2364  -13.8900   25.4772 C   0  0  2  0  0  0  0  0  0  0  0  0
    7.6473  -14.5055   24.2670 N   0  0  0  0  0  0  0  0  0  0  0  0
    8.8146  -14.9203   26.3465 C   0  0  0  0  0  0  0  0  0  0  0  0
    8.0246  -15.8047   26.8266 O   0  0  0  0  0  0  0  0  0  0  0  0
   12.1203  -16.3264   27.3462 C   0  0  0  0  0  0  0  0  0  0  0  0
   10.6169  -16.1565   27.5937 C   0  0  2  0  0  0  0  0  0  0  0  0
   10.1667  -15.0573   26.7231 N   0  0  0  0  0  0  0  0  0  0  0  0
   10.4456  -15.8194   29.0116 C   0  0  0  0  0  0  0  0  0  0  0  0
   10.6171  -16.7098   29.8733 O   0  0  0  0  0  0  0  0  0  0  0  0
   10.1005  -14.5437   29.4056 O   0  0  0  0  0  0  0  0  0  0  0  0
  2  1  1  0
  3  2  1  0
  3  4  1  6
  5 11  1  0
  5  3  1  0
  6  5  2  0
  8  7  1  6
  8 10  1  0
  9  8  1  0
 10 12  1  0
 10 11  1  6
 12 16  1  0
 13 12  2  0
 15 14  1  1
 16 15  1  0
 17 15  1  0
 17 19  1  0
 18 17  2  0
M  END
$$$$
