PHV.pdb
     RDKit          3D

 25 26  0  0  1  0  0  0  0  0999 V2000
    7.9299  -15.0447   18.8279 N   0  0  0  0  0  0  0  0  0  0  0  0
    7.7889  -14.0334   17.7986 C   0  0  0  0  0  0  0  0  0  0  0  0
    7.3153  -12.8394   18.6043 C   0  0  0  0  0  0  0  0  0  0  0  0
    8.2424  -12.8995   19.8023 C   0  0  0  0  0  0  0  0  0  0  0  0
    8.6341  -14.3459   19.8704 C   0  0  1  0  0  0  0  0  0  0  0  0
    8.2877  -14.8460   21.2234 C   0  0  0  0  0  0  0  0  0  0  0  0
    7.1407  -14.6480   21.6873 O   0  0  0  0  0  0  0  0  0  0  0  0
    9.2689  -15.5371   21.9570 N   0  0  0  0  0  0  0  0  0  0  0  0
    8.9466  -16.0872   23.2377 C   0  0  1  0  0  0  0  0  0  0  0  0
    9.9079  -17.2350   23.4671 C   0  0  0  0  0  0  0  0  0  0  0  0
    9.6400  -18.4193   22.6412 C   0  0  0  0  0  0  0  0  0  0  0  0
    8.4933  -18.7610   21.9896 C   0  0  0  0  0  0  0  0  0  0  0  0
    8.6941  -19.9419   21.3673 N   0  0  0  0  0  0  0  0  0  0  0  0
    9.9474  -20.3451   21.6186 C   0  0  0  0  0  0  0  0  0  0  0  0
   10.5348  -19.4213   22.3969 N   0  0  0  0  0  0  0  0  0  0  0  0
    9.0810  -15.1288   24.3371 C   0  0  0  0  0  0  0  0  0  0  0  0
   10.0401  -14.3262   24.3345 O   0  0  0  0  0  0  0  0  0  0  0  0
    6.9082  -12.2963   27.6940 C   0  0  0  0  0  0  0  0  0  0  0  0
    6.8558  -13.3501   26.6354 C   0  0  1  0  0  0  0  0  0  0  0  0
    6.2299  -12.8186   25.3790 C   0  0  0  0  0  0  0  0  0  0  0  0
    8.1944  -13.9866   26.4015 C   0  0  2  0  0  0  0  0  0  0  0  0
    8.1690  -15.0444   25.4412 N   0  0  0  0  0  0  0  0  0  0  0  0
    8.7882  -14.4150   27.6801 C   0  0  0  0  0  0  0  0  0  0  0  0
    9.3911  -13.5492   28.5718 O   0  0  0  0  0  0  0  0  0  0  0  0
    8.7453  -15.6344   27.9783 O   0  0  0  0  0  0  0  0  0  0  0  0
  1  5  1  0
  1  2  1  0
  2  3  1  0
  4  3  1  0
  5  4  1  0
  5  6  1  1
  6  7  2  0
  8  6  1  0
  9  8  1  0
  9 10  1  1
 11 10  1  0
 11 15  1  0
 12 13  1  0
 12 11  2  0
 13 14  1  0
 14 15  2  0
 16  9  1  0
 17 16  2  0
 19 20  1  6
 19 21  1  0
 19 18  1  0
 21 22  1  6
 22 16  1  0
 23 21  1  0
 23 24  1  0
 25 23  2  0
M  END
$$$$
