PHV.pdb
     RDKit          3D

 25 26  0  0  1  0  0  0  0  0999 V2000
    8.3274  -15.1805   18.6773 N   0  0  0  0  0  0  0  0  0  0  0  0
    8.2439  -14.3297   17.5062 C   0  0  0  0  0  0  0  0  0  0  0  0
    7.4251  -13.1661   18.0301 C   0  0  0  0  0  0  0  0  0  0  0  0
    8.0772  -12.9228   19.3768 C   0  0  0  0  0  0  0  0  0  0  0  0
    8.6745  -14.2547   19.7229 C   0  0  1  0  0  0  0  0  0  0  0  0
    8.1373  -14.6628   21.0441 C   0  0  0  0  0  0  0  0  0  0  0  0
    6.9620  -14.3642   21.3593 O   0  0  0  0  0  0  0  0  0  0  0  0
    8.9730  -15.3825   21.9171 N   0  0  0  0  0  0  0  0  0  0  0  0
    8.4531  -15.8807   23.1534 C   0  0  1  0  0  0  0  0  0  0  0  0
    9.1244  -17.2167   23.3951 C   0  0  0  0  0  0  0  0  0  0  0  0
    8.6980  -18.2800   22.4764 C   0  0  0  0  0  0  0  0  0  0  0  0
    7.6171  -19.1039   22.5711 C   0  0  0  0  0  0  0  0  0  0  0  0
    7.6261  -19.9399   21.5113 N   0  0  0  0  0  0  0  0  0  0  0  0
    8.6946  -19.6530   20.7548 C   0  0  0  0  0  0  0  0  0  0  0  0
    9.3572  -18.6394   21.3358 N   0  0  0  0  0  0  0  0  0  0  0  0
    8.7179  -15.0030   24.2958 C   0  0  0  0  0  0  0  0  0  0  0  0
    9.8789  -14.5774   24.4833 O   0  0  0  0  0  0  0  0  0  0  0  0
    7.0737  -11.9340   27.8359 C   0  0  0  0  0  0  0  0  0  0  0  0
    6.7654  -12.8886   26.7279 C   0  0  1  0  0  0  0  0  0  0  0  0
    6.0880  -12.1866   25.5871 C   0  0  0  0  0  0  0  0  0  0  0  0
    7.9719  -13.6728   26.3023 C   0  0  2  0  0  0  0  0  0  0  0  0
    7.7165  -14.5883   25.2354 N   0  0  0  0  0  0  0  0  0  0  0  0
    8.5874  -14.3367   27.4648 C   0  0  0  0  0  0  0  0  0  0  0  0
    8.6624  -15.7083   27.6114 O   0  0  0  0  0  0  0  0  0  0  0  0
    9.0716  -13.6182   28.3742 O   0  0  0  0  0  0  0  0  0  0  0  0
  1  5  1  0
  1  2  1  0
  2  3  1  0
  4  3  1  0
  5  4  1  0
  5  6  1  1
  6  7  2  0
  8  6  1  0
  9  8  1  0
  9 10  1  1
 11 10  1  0
 11 15  1  0
 12 13  1  0
 12 11  2  0
 13 14  1  0
 14 15  2  0
 16  9  1  0
 17 16  2  0
 19 20  1  6
 19 21  1  0
 19 18  1  0
 21 22  1  6
 22 16  1  0
 23 21  1  0
 23 24  1  0
 25 23  2  0
M  END
$$$$
