PHV.pdb
     RDKit          3D

 25 26  0  0  1  0  0  0  0  0999 V2000
    8.8647  -15.0317   19.2002 N   0  0  0  0  0  0  0  0  0  0  0  0
    8.7147  -14.5513   17.8404 C   0  0  0  0  0  0  0  0  0  0  0  0
    7.4028  -13.7958   17.9248 C   0  0  0  0  0  0  0  0  0  0  0  0
    7.5793  -13.0326   19.2227 C   0  0  0  0  0  0  0  0  0  0  0  0
    8.5650  -13.8652   19.9878 C   0  0  1  0  0  0  0  0  0  0  0  0
    7.9526  -14.2050   21.2956 C   0  0  0  0  0  0  0  0  0  0  0  0
    7.4423  -13.3025   21.9991 O   0  0  0  0  0  0  0  0  0  0  0  0
    7.9621  -15.5477   21.7145 N   0  0  0  0  0  0  0  0  0  0  0  0
    7.4988  -15.8897   23.0242 C   0  0  1  0  0  0  0  0  0  0  0  0
    7.7863  -17.3650   23.2105 C   0  0  0  0  0  0  0  0  0  0  0  0
    7.3563  -17.9034   24.5073 C   0  0  0  0  0  0  0  0  0  0  0  0
    6.7392  -17.2563   25.5352 C   0  0  0  0  0  0  0  0  0  0  0  0
    6.5454  -18.1392   26.5377 N   0  0  0  0  0  0  0  0  0  0  0  0
    7.0310  -19.3282   26.1545 C   0  0  0  0  0  0  0  0  0  0  0  0
    7.5294  -19.1953   24.9143 N   0  0  0  0  0  0  0  0  0  0  0  0
    8.1601  -15.1386   24.0937 C   0  0  0  0  0  0  0  0  0  0  0  0
    9.4036  -15.0076   24.0699 O   0  0  0  0  0  0  0  0  0  0  0  0
    7.0178  -11.5994   25.4828 C   0  0  0  0  0  0  0  0  0  0  0  0
    7.3010  -12.5358   26.6127 C   0  0  1  0  0  0  0  0  0  0  0  0
    6.0356  -12.9173   27.3241 C   0  0  0  0  0  0  0  0  0  0  0  0
    8.1111  -13.7216   26.1775 C   0  0  2  0  0  0  0  0  0  0  0  0
    7.4657  -14.5291   25.1910 N   0  0  0  0  0  0  0  0  0  0  0  0
    8.5332  -14.5109   27.3479 C   0  0  0  0  0  0  0  0  0  0  0  0
    9.3973  -14.0396   28.3172 O   0  0  0  0  0  0  0  0  0  0  0  0
    8.0840  -15.6771   27.4738 O   0  0  0  0  0  0  0  0  0  0  0  0
  1  5  1  0
  1  2  1  0
  2  3  1  0
  4  3  1  0
  5  4  1  0
  5  6  1  1
  6  7  2  0
  8  6  1  0
  9  8  1  0
  9 10  1  1
 11 10  1  0
 11 15  1  0
 12 13  1  0
 12 11  2  0
 13 14  1  0
 14 15  2  0
 16  9  1  0
 17 16  2  0
 19 20  1  6
 19 21  1  0
 19 18  1  0
 21 22  1  6
 22 16  1  0
 23 21  1  0
 23 24  1  0
 25 23  2  0
M  END
$$$$
