PHV.pdb
     RDKit          3D

 25 26  0  0  1  0  0  0  0  0999 V2000
    8.7209  -15.0727   18.9618 N   0  0  0  0  0  0  0  0  0  0  0  0
    8.4713  -14.4698   17.6670 C   0  0  0  0  0  0  0  0  0  0  0  0
    7.2425  -13.6285   17.9518 C   0  0  0  0  0  0  0  0  0  0  0  0
    7.6153  -12.9923   19.2764 C   0  0  0  0  0  0  0  0  0  0  0  0
    8.6023  -13.9574   19.8635 C   0  0  1  0  0  0  0  0  0  0  0  0
    8.1025  -14.3593   21.2011 C   0  0  0  0  0  0  0  0  0  0  0  0
    7.7624  -13.4829   22.0296 O   0  0  0  0  0  0  0  0  0  0  0  0
    8.0232  -15.7302   21.5059 N   0  0  0  0  0  0  0  0  0  0  0  0
    7.4708  -16.1522   22.7564 C   0  0  1  0  0  0  0  0  0  0  0  0
    7.7699  -17.6317   22.8813 C   0  0  0  0  0  0  0  0  0  0  0  0
    7.2821  -18.2420   24.1247 C   0  0  0  0  0  0  0  0  0  0  0  0
    7.5089  -17.8522   25.4103 C   0  0  0  0  0  0  0  0  0  0  0  0
    6.8773  -18.7155   26.2337 N   0  0  0  0  0  0  0  0  0  0  0  0
    6.2590  -19.6393   25.4848 C   0  0  0  0  0  0  0  0  0  0  0  0
    6.5000  -19.3592   24.1935 N   0  0  0  0  0  0  0  0  0  0  0  0
    8.0381  -15.4542   23.9123 C   0  0  0  0  0  0  0  0  0  0  0  0
    9.2673  -15.2258   23.9457 O   0  0  0  0  0  0  0  0  0  0  0  0
    7.3187  -12.4571   27.8142 C   0  0  0  0  0  0  0  0  0  0  0  0
    6.7421  -13.3123   26.7325 C   0  0  1  0  0  0  0  0  0  0  0  0
    5.9327  -12.4905   25.7721 C   0  0  0  0  0  0  0  0  0  0  0  0
    7.7859  -14.1503   26.0545 C   0  0  2  0  0  0  0  0  0  0  0  0
    7.2652  -15.0041   25.0339 N   0  0  0  0  0  0  0  0  0  0  0  0
    8.5709  -14.8974   27.0527 C   0  0  0  0  0  0  0  0  0  0  0  0
    9.5795  -14.3342   27.8103 O   0  0  0  0  0  0  0  0  0  0  0  0
    8.3107  -16.1139   27.2267 O   0  0  0  0  0  0  0  0  0  0  0  0
  1  5  1  0
  1  2  1  0
  2  3  1  0
  4  3  1  0
  5  4  1  0
  5  6  1  1
  6  7  2  0
  8  6  1  0
  9  8  1  0
  9 10  1  1
 11 10  1  0
 11 15  1  0
 12 13  1  0
 12 11  2  0
 13 14  1  0
 14 15  2  0
 16  9  1  0
 17 16  2  0
 19 20  1  6
 19 21  1  0
 19 18  1  0
 21 22  1  6
 22 16  1  0
 23 21  1  0
 23 24  1  0
 25 23  2  0
M  END
$$$$
