PHV.pdb
     RDKit          3D

 25 26  0  0  1  0  0  0  0  0999 V2000
    9.1109  -14.7385   19.1265 N   0  0  0  0  0  0  0  0  0  0  0  0
    8.9338  -14.2074   17.7891 C   0  0  0  0  0  0  0  0  0  0  0  0
    7.4947  -13.7320   17.8357 C   0  0  0  0  0  0  0  0  0  0  0  0
    7.4520  -13.0373   19.1824 C   0  0  0  0  0  0  0  0  0  0  0  0
    8.5461  -13.7089   19.9583 C   0  0  1  0  0  0  0  0  0  0  0  0
    7.9516  -14.2490   21.2055 C   0  0  0  0  0  0  0  0  0  0  0  0
    7.1120  -13.5703   21.8416 O   0  0  0  0  0  0  0  0  0  0  0  0
    8.3519  -15.5239   21.6447 N   0  0  0  0  0  0  0  0  0  0  0  0
    7.8825  -16.0260   22.8995 C   0  0  1  0  0  0  0  0  0  0  0  0
    8.3864  -17.4502   23.0084 C   0  0  0  0  0  0  0  0  0  0  0  0
    7.7598  -18.3847   22.0648 C   0  0  0  0  0  0  0  0  0  0  0  0
    6.7672  -18.1457   21.1626 C   0  0  0  0  0  0  0  0  0  0  0  0
    6.4931  -19.2992   20.5172 N   0  0  0  0  0  0  0  0  0  0  0  0
    7.2974  -20.2562   21.0004 C   0  0  0  0  0  0  0  0  0  0  0  0
    8.0762  -19.7078   21.9474 N   0  0  0  0  0  0  0  0  0  0  0  0
    8.3646  -15.2626   24.0528 C   0  0  0  0  0  0  0  0  0  0  0  0
    9.5885  -15.0307   24.1639 O   0  0  0  0  0  0  0  0  0  0  0  0
    7.4766  -12.0818   27.7498 C   0  0  0  0  0  0  0  0  0  0  0  0
    6.9354  -12.9815   26.6862 C   0  0  1  0  0  0  0  0  0  0  0  0
    6.2451  -12.1904   25.6136 C   0  0  0  0  0  0  0  0  0  0  0  0
    7.9791  -13.9157   26.1479 C   0  0  2  0  0  0  0  0  0  0  0  0
    7.5120  -14.7509   25.0868 N   0  0  0  0  0  0  0  0  0  0  0  0
    8.5804  -14.6974   27.2426 C   0  0  0  0  0  0  0  0  0  0  0  0
    9.5707  -14.2123   28.0747 O   0  0  0  0  0  0  0  0  0  0  0  0
    8.1718  -15.8699   27.4320 O   0  0  0  0  0  0  0  0  0  0  0  0
  1  5  1  0
  1  2  1  0
  2  3  1  0
  4  3  1  0
  5  4  1  0
  5  6  1  1
  6  7  2  0
  8  6  1  0
  9  8  1  0
  9 10  1  1
 11 10  1  0
 11 15  1  0
 12 13  1  0
 12 11  2  0
 13 14  1  0
 14 15  2  0
 16  9  1  0
 17 16  2  0
 19 20  1  6
 19 21  1  0
 19 18  1  0
 21 22  1  6
 22 16  1  0
 23 21  1  0
 23 24  1  0
 25 23  2  0
M  END
$$$$
