PHV.pdb
     RDKit          3D

 25 26  0  0  1  0  0  0  0  0999 V2000
    9.4174  -14.3673   19.0828 N   0  0  0  0  0  0  0  0  0  0  0  0
    9.1086  -13.8840   17.7512 C   0  0  0  0  0  0  0  0  0  0  0  0
    7.5933  -13.8419   17.7838 C   0  0  0  0  0  0  0  0  0  0  0  0
    7.3399  -13.2142   19.1402 C   0  0  0  0  0  0  0  0  0  0  0  0
    8.5730  -13.5587   19.9219 C   0  0  1  0  0  0  0  0  0  0  0  0
    8.1461  -14.2700   21.1517 C   0  0  0  0  0  0  0  0  0  0  0  0
    7.1392  -13.8744   21.7839 O   0  0  0  0  0  0  0  0  0  0  0  0
    8.8928  -15.3828   21.5791 N   0  0  0  0  0  0  0  0  0  0  0  0
    8.5878  -16.0093   22.8286 C   0  0  1  0  0  0  0  0  0  0  0  0
    9.4831  -17.2268   22.9291 C   0  0  0  0  0  0  0  0  0  0  0  0
    9.2075  -18.2618   21.9245 C   0  0  0  0  0  0  0  0  0  0  0  0
    8.0039  -18.6854   21.4469 C   0  0  0  0  0  0  0  0  0  0  0  0
    8.2256  -19.6667   20.5468 N   0  0  0  0  0  0  0  0  0  0  0  0
    9.5479  -19.8643   20.4531 C   0  0  0  0  0  0  0  0  0  0  0  0
   10.1579  -19.0104   21.2914 N   0  0  0  0  0  0  0  0  0  0  0  0
    8.8262  -15.1479   23.9890 C   0  0  0  0  0  0  0  0  0  0  0  0
    9.9180  -14.5463   24.0895 O   0  0  0  0  0  0  0  0  0  0  0  0
    7.0500  -12.2281   27.5275 C   0  0  0  0  0  0  0  0  0  0  0  0
    6.8113  -13.2354   26.4495 C   0  0  1  0  0  0  0  0  0  0  0  0
    6.1453  -12.6037   25.2620 C   0  0  0  0  0  0  0  0  0  0  0  0
    8.0579  -13.9902   26.0918 C   0  0  2  0  0  0  0  0  0  0  0  0
    7.8737  -14.9413   25.0416 N   0  0  0  0  0  0  0  0  0  0  0  0
    8.6489  -14.6024   27.2946 C   0  0  0  0  0  0  0  0  0  0  0  0
    9.3687  -13.8952   28.2381 O   0  0  0  0  0  0  0  0  0  0  0  0
    8.4911  -15.8354   27.4746 O   0  0  0  0  0  0  0  0  0  0  0  0
  1  5  1  0
  1  2  1  0
  2  3  1  0
  4  3  1  0
  5  4  1  0
  5  6  1  1
  6  7  2  0
  8  6  1  0
  9  8  1  0
  9 10  1  1
 11 10  1  0
 11 15  1  0
 12 13  1  0
 12 11  2  0
 13 14  1  0
 14 15  2  0
 16  9  1  0
 17 16  2  0
 19 20  1  6
 19 21  1  0
 19 18  1  0
 21 22  1  6
 22 16  1  0
 23 21  1  0
 23 24  1  0
 25 23  2  0
M  END
$$$$
