IHM.pdb
     RDKit          3D

 27 27  0  0  1  0  0  0  0  0999 V2000
    8.1126  -12.6220   16.7616 C   0  0  0  0  0  0  0  0  0  0  0  0
    8.9570  -13.2420   17.8203 C   0  0  0  0  0  0  0  0  0  0  0  0
    8.1953  -13.8335   18.9815 C   0  0  2  0  0  0  0  0  0  0  0  0
    7.3643  -12.7480   19.5794 C   0  0  0  0  0  0  0  0  0  0  0  0
    9.1053  -14.5655   19.8959 C   0  0  2  0  0  0  0  0  0  0  0  0
    9.7931  -15.5820   19.0604 N   0  0  0  0  0  0  0  0  0  0  0  0
    8.4880  -15.2091   21.0613 C   0  0  0  0  0  0  0  0  0  0  0  0
    7.8162  -14.5054   21.8437 O   0  0  0  0  0  0  0  0  0  0  0  0
    8.6315  -16.5909   21.3159 N   0  0  0  0  0  0  0  0  0  0  0  0
    8.2015  -17.3189   22.4561 C   0  0  1  0  0  0  0  0  0  0  0  0
    8.2942  -18.7972   22.3950 C   0  0  0  0  0  0  0  0  0  0  0  0
    7.7862  -19.4582   23.6267 C   0  0  0  0  0  0  0  0  0  0  0  0
    8.5068  -20.2376   24.5183 C   0  0  0  0  0  0  0  0  0  0  0  0
    7.6773  -20.6349   25.4837 N   0  0  0  0  0  0  0  0  0  0  0  0
    6.4519  -20.1231   25.2191 C   0  0  0  0  0  0  0  0  0  0  0  0
    6.5427  -19.4197   24.0977 N   0  0  0  0  0  0  0  0  0  0  0  0
    8.7085  -16.7251   23.7424 C   0  0  0  0  0  0  0  0  0  0  0  0
    9.9248  -16.4513   23.8854 O   0  0  0  0  0  0  0  0  0  0  0  0
    6.3899  -10.8584   26.4108 C   0  0  0  0  0  0  0  0  0  0  0  0
    7.3163  -12.3085   26.8827 S   0  0  0  0  0  0  0  0  0  0  0  0
    6.7481  -13.8227   26.2252 C   0  0  0  0  0  0  0  0  0  0  0  0
    7.2818  -15.0983   26.6305 C   0  0  0  0  0  0  0  0  0  0  0  0
    8.4438  -15.8185   26.0861 C   0  0  2  0  0  0  0  0  0  0  0  0
    7.8581  -16.4548   24.8220 N   0  0  0  0  0  0  0  0  0  0  0  0
    8.9013  -16.9890   26.8807 C   0  0  0  0  0  0  0  0  0  0  0  0
    8.5950  -18.2765   26.7090 O   0  0  0  0  0  0  0  0  0  0  0  0
    9.6941  -16.7305   27.8670 O   0  0  0  0  0  0  0  0  0  0  0  0
  1  2  1  0
  3  5  1  0
  3  2  1  0
  3  4  1  1
  5  6  1  6
  7  8  2  0
  7  5  1  0
  9  7  1  0
 10  9  1  0
 10 11  1  6
 12 16  1  0
 12 11  1  0
 13 12  2  0
 14 13  1  0
 14 15  1  0
 15 16  2  0
 17 10  1  0
 18 17  2  0
 19 20  1  0
 20 21  1  0
 22 21  1  0
 23 24  1  0
 23 22  1  1
 24 17  1  0
 25 23  1  0
 26 25  1  0
 27 25  2  0
M  END
$$$$
