IHM.pdb
     RDKit          3D

 27 27  0  0  1  0  0  0  0  0999 V2000
   16.8509  -15.6023   19.0664 C   0  0  0  0  0  0  0  0  0  0  0  0
   15.4209  -15.4695   18.6715 C   0  0  0  0  0  0  0  0  0  0  0  0
   14.4788  -15.1042   19.7929 C   0  0  2  0  0  0  0  0  0  0  0  0
   14.8389  -15.9368   20.9776 C   0  0  0  0  0  0  0  0  0  0  0  0
   13.0678  -15.1547   19.3387 C   0  0  2  0  0  0  0  0  0  0  0  0
   12.9691  -14.2008   18.2052 N   0  0  0  0  0  0  0  0  0  0  0  0
   12.0426  -14.8476   20.3428 C   0  0  0  0  0  0  0  0  0  0  0  0
   12.0258  -13.7053   20.8463 O   0  0  0  0  0  0  0  0  0  0  0  0
   11.0831  -15.8015   20.7479 N   0  0  0  0  0  0  0  0  0  0  0  0
   10.1213  -15.6876   21.7857 C   0  0  1  0  0  0  0  0  0  0  0  0
    8.7019  -15.9221   21.4275 C   0  0  0  0  0  0  0  0  0  0  0  0
    8.1916  -14.9484   20.4258 C   0  0  0  0  0  0  0  0  0  0  0  0
    8.1179  -15.1193   19.0521 C   0  0  0  0  0  0  0  0  0  0  0  0
    7.5997  -14.0096   18.5249 N   0  0  0  0  0  0  0  0  0  0  0  0
    7.3462  -13.1452   19.5359 C   0  0  0  0  0  0  0  0  0  0  0  0
    7.7105  -13.7322   20.6687 N   0  0  0  0  0  0  0  0  0  0  0  0
   10.5564  -16.3758   23.0510 C   0  0  0  0  0  0  0  0  0  0  0  0
   11.3798  -17.3220   23.0145 O   0  0  0  0  0  0  0  0  0  0  0  0
   10.6495  -11.6350   27.7815 C   0  0  0  0  0  0  0  0  0  0  0  0
    9.8395  -13.2198   27.6558 S   0  0  0  0  0  0  0  0  0  0  0  0
   10.7582  -14.4854   26.8798 C   0  0  0  0  0  0  0  0  0  0  0  0
   10.2196  -15.7979   26.6280 C   0  0  0  0  0  0  0  0  0  0  0  0
   10.5682  -16.7388   25.5517 C   0  0  2  0  0  0  0  0  0  0  0  0
   10.0694  -15.9964   24.3083 N   0  0  0  0  0  0  0  0  0  0  0  0
    9.7900  -18.0057   25.5318 C   0  0  0  0  0  0  0  0  0  0  0  0
   10.0199  -19.1289   26.2149 O   0  0  0  0  0  0  0  0  0  0  0  0
    8.7608  -18.0272   24.7519 O   0  0  0  0  0  0  0  0  0  0  0  0
  1  2  1  0
  3  5  1  0
  3  2  1  0
  3  4  1  1
  5  6  1  6
  7  8  2  0
  7  5  1  0
  9  7  1  0
 10  9  1  0
 10 11  1  6
 12 16  1  0
 12 11  1  0
 13 12  2  0
 14 13  1  0
 14 15  1  0
 15 16  2  0
 17 10  1  0
 18 17  2  0
 19 20  1  0
 20 21  1  0
 22 21  1  0
 23 24  1  0
 23 22  1  1
 24 17  1  0
 25 23  1  0
 26 25  1  0
 27 25  2  0
M  END
$$$$
