IHM.pdb
     RDKit          3D

 27 27  0  0  1  0  0  0  0  0999 V2000
    5.9066  -11.4099   26.5624 C   0  0  0  0  0  0  0  0  0  0  0  0
    5.5765  -12.7019   25.8988 C   0  0  0  0  0  0  0  0  0  0  0  0
    6.7679  -13.5237   25.4700 C   0  0  2  0  0  0  0  0  0  0  0  0
    7.6353  -12.6565   24.6204 C   0  0  0  0  0  0  0  0  0  0  0  0
    6.3383  -14.8196   24.8906 C   0  0  2  0  0  0  0  0  0  0  0  0
    5.4730  -15.4581   25.9144 N   0  0  0  0  0  0  0  0  0  0  0  0
    7.4036  -15.7447   24.4873 C   0  0  0  0  0  0  0  0  0  0  0  0
    7.9558  -16.4369   25.3674 O   0  0  0  0  0  0  0  0  0  0  0  0
    7.8140  -15.8719   23.1419 N   0  0  0  0  0  0  0  0  0  0  0  0
    8.9169  -16.6043   22.6298 C   0  0  1  0  0  0  0  0  0  0  0  0
    9.0776  -16.6526   21.1568 C   0  0  0  0  0  0  0  0  0  0  0  0
   10.2059  -17.5215   20.7281 C   0  0  0  0  0  0  0  0  0  0  0  0
   10.4972  -18.8002   21.1771 C   0  0  0  0  0  0  0  0  0  0  0  0
   11.5887  -19.2235   20.5389 N   0  0  0  0  0  0  0  0  0  0  0  0
   11.9901  -18.2400   19.6993 C   0  0  0  0  0  0  0  0  0  0  0  0
   11.1431  -17.2272   19.8312 N   0  0  0  0  0  0  0  0  0  0  0  0
   10.1918  -16.3213   23.3771 C   0  0  0  0  0  0  0  0  0  0  0  0
   10.7070  -15.1773   23.3537 O   0  0  0  0  0  0  0  0  0  0  0  0
   10.9905  -13.2312   28.5233 C   0  0  0  0  0  0  0  0  0  0  0  0
   10.4579  -14.9332   28.5807 S   0  0  0  0  0  0  0  0  0  0  0  0
   11.3859  -16.0547   27.6169 C   0  0  0  0  0  0  0  0  0  0  0  0
   11.0103  -16.4282   26.2769 C   0  0  0  0  0  0  0  0  0  0  0  0
   11.8763  -16.8791   25.1760 C   0  0  2  0  0  0  0  0  0  0  0  0
   10.8512  -17.3075   24.1218 N   0  0  0  0  0  0  0  0  0  0  0  0
   12.6449  -18.1253   25.4354 C   0  0  0  0  0  0  0  0  0  0  0  0
   13.9236  -18.2488   25.7970 O   0  0  0  0  0  0  0  0  0  0  0  0
   11.9964  -19.2327   25.2895 O   0  0  0  0  0  0  0  0  0  0  0  0
  1  2  1  0
  3  5  1  0
  3  2  1  0
  3  4  1  6
  5  6  1  1
  7  8  2  0
  7  5  1  0
  9  7  1  0
 10  9  1  0
 10 11  1  6
 12 16  1  0
 12 11  1  0
 13 12  2  0
 14 13  1  0
 14 15  1  0
 15 16  2  0
 17 10  1  0
 18 17  2  0
 19 20  1  0
 20 21  1  0
 22 21  1  0
 23 24  1  0
 23 22  1  1
 24 17  1  0
 25 23  1  0
 26 25  1  0
 27 25  2  0
M  END
$$$$
