IHM.pdb
     RDKit          3D

 27 27  0  0  1  0  0  0  0  0999 V2000
    7.4429  -11.7197   20.0105 C   0  0  0  0  0  0  0  0  0  0  0  0
    7.3697  -13.1972   19.8371 C   0  0  0  0  0  0  0  0  0  0  0  0
    8.0287  -14.0031   20.9301 C   0  0  2  0  0  0  0  0  0  0  0  0
    9.4178  -13.4859   21.1008 C   0  0  0  0  0  0  0  0  0  0  0  0
    7.8780  -15.4576   20.6819 C   0  0  2  0  0  0  0  0  0  0  0  0
    6.4167  -15.7203   20.6671 N   0  0  0  0  0  0  0  0  0  0  0  0
    8.5395  -16.3587   21.6327 C   0  0  0  0  0  0  0  0  0  0  0  0
    7.9329  -16.6700   22.6786 O   0  0  0  0  0  0  0  0  0  0  0  0
    9.8309  -16.8790   21.3954 N   0  0  0  0  0  0  0  0  0  0  0  0
   10.6236  -17.6787   22.2597 C   0  0  1  0  0  0  0  0  0  0  0  0
   11.7874  -18.3777   21.6642 C   0  0  0  0  0  0  0  0  0  0  0  0
   12.5090  -19.2334   22.6435 C   0  0  0  0  0  0  0  0  0  0  0  0
   13.7620  -19.0070   23.1916 C   0  0  0  0  0  0  0  0  0  0  0  0
   14.0368  -20.0122   24.0234 N   0  0  0  0  0  0  0  0  0  0  0  0
   12.9853  -20.8652   24.0104 C   0  0  0  0  0  0  0  0  0  0  0  0
   12.0797  -20.3755   23.1733 N   0  0  0  0  0  0  0  0  0  0  0  0
   10.9223  -16.9924   23.5650 C   0  0  0  0  0  0  0  0  0  0  0  0
   11.5294  -15.8943   23.5866 O   0  0  0  0  0  0  0  0  0  0  0  0
    9.9756  -12.5349   27.9697 C   0  0  0  0  0  0  0  0  0  0  0  0
    8.7900  -13.8129   27.5892 S   0  0  0  0  0  0  0  0  0  0  0  0
    9.3782  -15.4533   27.6944 C   0  0  0  0  0  0  0  0  0  0  0  0
    9.6514  -16.2600   26.5322 C   0  0  0  0  0  0  0  0  0  0  0  0
   10.9392  -16.8144   26.0855 C   0  0  2  0  0  0  0  0  0  0  0  0
   10.5415  -17.5400   24.7966 N   0  0  0  0  0  0  0  0  0  0  0  0
   11.4974  -17.9005   26.9340 C   0  0  0  0  0  0  0  0  0  0  0  0
   12.3789  -17.8014   27.9311 O   0  0  0  0  0  0  0  0  0  0  0  0
   11.0812  -19.0950   26.6733 O   0  0  0  0  0  0  0  0  0  0  0  0
  1  2  1  0
  3  5  1  0
  3  2  1  0
  3  4  1  6
  5  6  1  1
  7  8  2  0
  7  5  1  0
  9  7  1  0
 10  9  1  0
 10 11  1  6
 12 16  1  0
 12 11  1  0
 13 12  2  0
 14 13  1  0
 14 15  1  0
 15 16  2  0
 17 10  1  0
 18 17  2  0
 19 20  1  0
 20 21  1  0
 22 21  1  0
 23 24  1  0
 23 22  1  1
 24 17  1  0
 25 23  1  0
 26 25  1  0
 27 25  2  0
M  END
$$$$
