IHM.pdb
     RDKit          3D

 27 27  0  0  1  0  0  0  0  0999 V2000
    7.3184  -11.8957   18.8792 C   0  0  0  0  0  0  0  0  0  0  0  0
    7.8301  -13.2944   18.8978 C   0  0  0  0  0  0  0  0  0  0  0  0
    7.8648  -13.9449   20.2594 C   0  0  2  0  0  0  0  0  0  0  0  0
    8.6410  -13.0526   21.1691 C   0  0  0  0  0  0  0  0  0  0  0  0
    8.3082  -15.3569   20.1622 C   0  0  2  0  0  0  0  0  0  0  0  0
    7.3217  -16.0355   19.2842 N   0  0  0  0  0  0  0  0  0  0  0  0
    8.4438  -16.0918   21.4252 C   0  0  0  0  0  0  0  0  0  0  0  0
    7.4072  -16.4837   22.0001 O   0  0  0  0  0  0  0  0  0  0  0  0
    9.7047  -16.3658   21.9994 N   0  0  0  0  0  0  0  0  0  0  0  0
    9.9839  -17.0635   23.2036 C   0  0  1  0  0  0  0  0  0  0  0  0
   11.0662  -18.0760   23.1689 C   0  0  0  0  0  0  0  0  0  0  0  0
   10.8381  -19.1290   22.1437 C   0  0  0  0  0  0  0  0  0  0  0  0
    9.6649  -19.8280   21.9061 C   0  0  0  0  0  0  0  0  0  0  0  0
    9.8859  -20.6770   20.9020 N   0  0  0  0  0  0  0  0  0  0  0  0
   11.1712  -20.5275   20.5032 C   0  0  0  0  0  0  0  0  0  0  0  0
   11.7229  -19.5915   21.2647 N   0  0  0  0  0  0  0  0  0  0  0  0
   10.0362  -16.1503   24.3984 C   0  0  0  0  0  0  0  0  0  0  0  0
   10.8946  -15.2378   24.4696 O   0  0  0  0  0  0  0  0  0  0  0  0
    7.6555  -11.0401   26.7856 C   0  0  0  0  0  0  0  0  0  0  0  0
    6.6466  -12.4948   27.0087 S   0  0  0  0  0  0  0  0  0  0  0  0
    7.2535  -13.9614   26.2817 C   0  0  0  0  0  0  0  0  0  0  0  0
    8.0199  -14.9364   27.0153 C   0  0  0  0  0  0  0  0  0  0  0  0
    9.3735  -15.4386   26.7306 C   0  0  2  0  0  0  0  0  0  0  0  0
    9.1418  -16.2756   25.4690 N   0  0  0  0  0  0  0  0  0  0  0  0
    9.9082  -16.4258   27.7056 C   0  0  0  0  0  0  0  0  0  0  0  0
   10.5960  -16.1937   28.8255 O   0  0  0  0  0  0  0  0  0  0  0  0
    9.6837  -17.6687   27.4357 O   0  0  0  0  0  0  0  0  0  0  0  0
  1  2  1  0
  3  5  1  0
  3  2  1  0
  3  4  1  1
  5  6  1  6
  7  8  2  0
  7  5  1  0
  9  7  1  0
 10  9  1  0
 10 11  1  6
 12 16  1  0
 12 11  1  0
 13 12  2  0
 14 13  1  0
 14 15  1  0
 15 16  2  0
 17 10  1  0
 18 17  2  0
 19 20  1  0
 20 21  1  0
 22 21  1  0
 23 24  1  0
 23 22  1  1
 24 17  1  0
 25 23  1  0
 26 25  1  0
 27 25  2  0
M  END
$$$$
