IHM.pdb
     RDKit          3D

 27 27  0  0  1  0  0  0  0  0999 V2000
    9.1582  -12.4337   19.2325 C   0  0  0  0  0  0  0  0  0  0  0  0
    8.6882  -13.2929   20.3547 C   0  0  0  0  0  0  0  0  0  0  0  0
    7.6166  -14.2916   19.9906 C   0  0  2  0  0  0  0  0  0  0  0  0
    6.4242  -13.5271   19.5216 C   0  0  0  0  0  0  0  0  0  0  0  0
    7.4026  -15.2651   21.0889 C   0  0  2  0  0  0  0  0  0  0  0  0
    6.8903  -14.4778   22.2387 N   0  0  0  0  0  0  0  0  0  0  0  0
    8.5675  -16.0561   21.5024 C   0  0  0  0  0  0  0  0  0  0  0  0
    8.9888  -16.9431   20.7315 O   0  0  0  0  0  0  0  0  0  0  0  0
    9.2184  -15.8395   22.7370 N   0  0  0  0  0  0  0  0  0  0  0  0
   10.3186  -16.5519   23.2819 C   0  0  1  0  0  0  0  0  0  0  0  0
   11.4839  -16.7868   22.3961 C   0  0  0  0  0  0  0  0  0  0  0  0
   11.2804  -17.9297   21.4663 C   0  0  0  0  0  0  0  0  0  0  0  0
   10.8324  -19.2018   21.7866 C   0  0  0  0  0  0  0  0  0  0  0  0
   10.7910  -19.9200   20.6639 N   0  0  0  0  0  0  0  0  0  0  0  0
   11.2029  -19.1284   19.6456 C   0  0  0  0  0  0  0  0  0  0  0  0
   11.4916  -17.9369   20.1530 N   0  0  0  0  0  0  0  0  0  0  0  0
   10.6833  -16.0782   24.6627 C   0  0  0  0  0  0  0  0  0  0  0  0
   11.7021  -15.3693   24.8480 O   0  0  0  0  0  0  0  0  0  0  0  0
    6.4152  -12.5919   26.0577 C   0  0  0  0  0  0  0  0  0  0  0  0
    7.7794  -12.4829   27.2027 S   0  0  0  0  0  0  0  0  0  0  0  0
    9.1437  -13.5178   26.8628 C   0  0  0  0  0  0  0  0  0  0  0  0
    9.2671  -14.8481   27.4025 C   0  0  0  0  0  0  0  0  0  0  0  0
   10.3226  -15.8425   27.1525 C   0  0  2  0  0  0  0  0  0  0  0  0
    9.9132  -16.4022   25.7869 N   0  0  0  0  0  0  0  0  0  0  0  0
   10.2981  -17.0380   28.0362 C   0  0  0  0  0  0  0  0  0  0  0  0
   10.8803  -17.1997   29.2262 O   0  0  0  0  0  0  0  0  0  0  0  0
    9.6319  -18.0540   27.5980 O   0  0  0  0  0  0  0  0  0  0  0  0
  1  2  1  0
  3  5  1  0
  3  2  1  0
  3  4  1  1
  5  6  1  1
  7  8  2  0
  7  5  1  0
  9  7  1  0
 10  9  1  0
 10 11  1  6
 12 16  1  0
 12 11  1  0
 13 12  2  0
 14 13  1  0
 14 15  1  0
 15 16  2  0
 17 10  1  0
 18 17  2  0
 19 20  1  0
 20 21  1  0
 22 21  1  0
 23 24  1  0
 23 22  1  1
 24 17  1  0
 25 23  1  0
 26 25  1  0
 27 25  2  0
M  END
$$$$
