IHM.pdb
     RDKit          3D

 27 27  0  0  1  0  0  0  0  0999 V2000
    7.8316  -12.0328   20.5640 C   0  0  0  0  0  0  0  0  0  0  0  0
    7.6794  -13.5115   20.4706 C   0  0  0  0  0  0  0  0  0  0  0  0
    8.7470  -14.2151   19.6683 C   0  0  2  0  0  0  0  0  0  0  0  0
    8.7619  -13.6106   18.3042 C   0  0  0  0  0  0  0  0  0  0  0  0
    8.5889  -15.6876   19.7502 C   0  0  2  0  0  0  0  0  0  0  0  0
    7.4022  -16.0178   18.9212 N   0  0  0  0  0  0  0  0  0  0  0  0
    8.4366  -16.2586   21.0934 C   0  0  0  0  0  0  0  0  0  0  0  0
    7.3057  -16.2430   21.6222 O   0  0  0  0  0  0  0  0  0  0  0  0
    9.5256  -16.8216   21.7946 N   0  0  0  0  0  0  0  0  0  0  0  0
    9.5336  -17.3666   23.1053 C   0  0  1  0  0  0  0  0  0  0  0  0
   10.1095  -18.7220   23.2758 C   0  0  0  0  0  0  0  0  0  0  0  0
    9.3055  -19.7786   22.6056 C   0  0  0  0  0  0  0  0  0  0  0  0
    9.4320  -20.2271   21.3000 C   0  0  0  0  0  0  0  0  0  0  0  0
    8.5219  -21.1811   21.1010 N   0  0  0  0  0  0  0  0  0  0  0  0
    7.8265  -21.3422   22.2515 C   0  0  0  0  0  0  0  0  0  0  0  0
    8.3158  -20.4880   23.1410 N   0  0  0  0  0  0  0  0  0  0  0  0
    9.9889  -16.3722   24.1387 C   0  0  0  0  0  0  0  0  0  0  0  0
   11.0351  -15.7015   23.9645 O   0  0  0  0  0  0  0  0  0  0  0  0
    5.9542  -12.2938   25.7615 C   0  0  0  0  0  0  0  0  0  0  0  0
    7.0768  -11.9605   27.1078 S   0  0  0  0  0  0  0  0  0  0  0  0
    8.4467  -13.0345   27.2409 C   0  0  0  0  0  0  0  0  0  0  0  0
    8.6270  -14.1787   26.3839 C   0  0  0  0  0  0  0  0  0  0  0  0
    9.7785  -15.0917   26.3069 C   0  0  2  0  0  0  0  0  0  0  0  0
    9.2756  -16.1533   25.3241 N   0  0  0  0  0  0  0  0  0  0  0  0
   10.0611  -15.8711   27.5412 C   0  0  0  0  0  0  0  0  0  0  0  0
   10.8910  -15.5660   28.5407 O   0  0  0  0  0  0  0  0  0  0  0  0
    9.4267  -16.9895   27.6638 O   0  0  0  0  0  0  0  0  0  0  0  0
  1  2  1  0
  3  5  1  0
  3  2  1  0
  3  4  1  6
  5  6  1  6
  7  8  2  0
  7  5  1  0
  9  7  1  0
 10  9  1  0
 10 11  1  6
 12 16  1  0
 12 11  1  0
 13 12  2  0
 14 13  1  0
 14 15  1  0
 15 16  2  0
 17 10  1  0
 18 17  2  0
 19 20  1  0
 20 21  1  0
 22 21  1  0
 23 24  1  0
 23 22  1  1
 24 17  1  0
 25 23  1  0
 26 25  1  0
 27 25  2  0
M  END
$$$$
