IHM.pdb
     RDKit          3D

 27 27  0  0  1  0  0  0  0  0999 V2000
    7.3733  -11.5878   18.9279 C   0  0  0  0  0  0  0  0  0  0  0  0
    7.6900  -13.0358   18.7820 C   0  0  0  0  0  0  0  0  0  0  0  0
    7.9113  -13.7762   20.0787 C   0  0  2  0  0  0  0  0  0  0  0  0
    8.9315  -13.0219   20.8638 C   0  0  0  0  0  0  0  0  0  0  0  0
    8.1808  -15.2134   19.8303 C   0  0  2  0  0  0  0  0  0  0  0  0
    6.9778  -15.7411   19.1384 N   0  0  0  0  0  0  0  0  0  0  0  0
    8.4849  -16.0378   21.0056 C   0  0  0  0  0  0  0  0  0  0  0  0
    7.5457  -16.3735   21.7566 O   0  0  0  0  0  0  0  0  0  0  0  0
    9.7997  -16.4586   21.3040 N   0  0  0  0  0  0  0  0  0  0  0  0
   10.2440  -17.2118   22.4222 C   0  0  1  0  0  0  0  0  0  0  0  0
   11.5022  -17.9806   22.2691 C   0  0  0  0  0  0  0  0  0  0  0  0
   11.4652  -18.9242   21.1201 C   0  0  0  0  0  0  0  0  0  0  0  0
   10.5797  -19.9724   20.9239 C   0  0  0  0  0  0  0  0  0  0  0  0
   10.8907  -20.5658   19.7711 N   0  0  0  0  0  0  0  0  0  0  0  0
   11.9516  -19.9144   19.2384 C   0  0  0  0  0  0  0  0  0  0  0  0
   12.2788  -18.9317   20.0677 N   0  0  0  0  0  0  0  0  0  0  0  0
   10.1500  -16.4391   23.7099 C   0  0  0  0  0  0  0  0  0  0  0  0
   10.7039  -15.3190   23.8262 O   0  0  0  0  0  0  0  0  0  0  0  0
    6.9883  -11.6314   26.3803 C   0  0  0  0  0  0  0  0  0  0  0  0
    6.2693  -13.2576   26.2319 S   0  0  0  0  0  0  0  0  0  0  0  0
    7.2663  -14.5838   26.7753 C   0  0  0  0  0  0  0  0  0  0  0  0
    8.0044  -15.4269   25.8694 C   0  0  0  0  0  0  0  0  0  0  0  0
    9.3253  -16.0449   26.0657 C   0  0  2  0  0  0  0  0  0  0  0  0
    9.4500  -16.9277   24.8203 N   0  0  0  0  0  0  0  0  0  0  0  0
    9.4172  -17.0166   27.1874 C   0  0  0  0  0  0  0  0  0  0  0  0
    9.7635  -16.7863   28.4555 O   0  0  0  0  0  0  0  0  0  0  0  0
    9.1292  -18.2427   26.9011 O   0  0  0  0  0  0  0  0  0  0  0  0
  1  2  1  0
  3  5  1  0
  3  2  1  0
  3  4  1  6
  5  6  1  1
  7  8  2  0
  7  5  1  0
  9  7  1  0
 10  9  1  0
 10 11  1  6
 12 16  1  0
 12 11  1  0
 13 12  2  0
 14 13  1  0
 14 15  1  0
 15 16  2  0
 17 10  1  0
 18 17  2  0
 19 20  1  0
 20 21  1  0
 22 21  1  0
 23 24  1  0
 23 22  1  6
 24 17  1  0
 25 23  1  0
 26 25  1  0
 27 25  2  0
M  END
$$$$
