IHM.pdb
     RDKit          3D

 27 27  0  0  1  0  0  0  0  0999 V2000
    7.1449  -11.7200   18.7699 C   0  0  0  0  0  0  0  0  0  0  0  0
    7.9270  -12.9648   18.5307 C   0  0  0  0  0  0  0  0  0  0  0  0
    8.0047  -13.9076   19.7069 C   0  0  2  0  0  0  0  0  0  0  0  0
    8.4733  -13.1238   20.8868 C   0  0  0  0  0  0  0  0  0  0  0  0
    8.7746  -15.1270   19.3601 C   0  0  2  0  0  0  0  0  0  0  0  0
    8.0609  -15.7494   18.2166 N   0  0  0  0  0  0  0  0  0  0  0  0
    8.9616  -16.1130   20.4308 C   0  0  0  0  0  0  0  0  0  0  0  0
    7.9946  -16.8349   20.7508 O   0  0  0  0  0  0  0  0  0  0  0  0
   10.1960  -16.2655   21.0998 N   0  0  0  0  0  0  0  0  0  0  0  0
   10.4736  -17.0401   22.2565 C   0  0  1  0  0  0  0  0  0  0  0  0
   11.7391  -17.8123   22.2715 C   0  0  0  0  0  0  0  0  0  0  0  0
   11.8217  -18.8053   21.1674 C   0  0  0  0  0  0  0  0  0  0  0  0
   12.5274  -18.6829   19.9805 C   0  0  0  0  0  0  0  0  0  0  0  0
   12.3369  -19.7950   19.2700 N   0  0  0  0  0  0  0  0  0  0  0  0
   11.5275  -20.6134   19.9833 C   0  0  0  0  0  0  0  0  0  0  0  0
   11.2313  -19.9964   21.1199 N   0  0  0  0  0  0  0  0  0  0  0  0
   10.1979  -16.2895   23.5311 C   0  0  0  0  0  0  0  0  0  0  0  0
   10.5882  -15.1054   23.6739 O   0  0  0  0  0  0  0  0  0  0  0  0
    6.7095  -11.6816   27.1624 C   0  0  0  0  0  0  0  0  0  0  0  0
    7.8060  -12.9740   26.6048 S   0  0  0  0  0  0  0  0  0  0  0  0
    7.0433  -14.3340   25.8195 C   0  0  0  0  0  0  0  0  0  0  0  0
    7.7866  -15.4594   25.3124 C   0  0  0  0  0  0  0  0  0  0  0  0
    9.0799  -15.9858   25.7767 C   0  0  2  0  0  0  0  0  0  0  0  0
    9.5029  -16.8699   24.5997 N   0  0  0  0  0  0  0  0  0  0  0  0
    9.0113  -16.9388   26.9161 C   0  0  0  0  0  0  0  0  0  0  0  0
    9.2364  -16.6997   28.2096 O   0  0  0  0  0  0  0  0  0  0  0  0
    8.6976  -18.1561   26.6196 O   0  0  0  0  0  0  0  0  0  0  0  0
  1  2  1  0
  3  5  1  0
  3  2  1  0
  3  4  1  1
  5  6  1  6
  7  8  2  0
  7  5  1  0
  9  7  1  0
 10  9  1  0
 10 11  1  1
 12 16  1  0
 12 11  1  0
 13 12  2  0
 14 13  1  0
 14 15  1  0
 15 16  2  0
 17 10  1  0
 18 17  2  0
 19 20  1  0
 20 21  1  0
 22 21  1  0
 23 24  1  0
 23 22  1  6
 24 17  1  0
 25 23  1  0
 26 25  1  0
 27 25  2  0
M  END
$$$$
