WFN.pdb
     RDKit          3D

 34 36  0  0  1  0  0  0  0  0999 V2000
   26.6737  -20.9843  -13.5934 N   0  0  0  0  0  0  0  0  0  0  0  0
   25.7524  -20.6705  -12.5621 C   0  0  1  0  0  0  0  0  0  0  0  0
   24.3580  -21.2218  -12.7438 C   0  0  0  0  0  0  0  0  0  0  0  0
   23.6327  -20.6598  -13.8883 C   0  0  0  0  0  0  0  0  0  0  0  0
   24.1609  -20.2515  -15.0908 C   0  0  0  0  0  0  0  0  0  0  0  0
   23.1888  -19.8109  -15.9011 N   0  0  0  0  0  0  0  0  0  0  0  0
   22.0247  -19.9230  -15.2478 C   0  0  0  0  0  0  0  0  0  0  0  0
   20.7491  -19.6207  -15.5999 C   0  0  0  0  0  0  0  0  0  0  0  0
   19.6712  -19.8103  -14.7636 C   0  0  0  0  0  0  0  0  0  0  0  0
   19.9264  -20.3314  -13.5196 C   0  0  0  0  0  0  0  0  0  0  0  0
   21.2055  -20.6468  -13.1359 C   0  0  0  0  0  0  0  0  0  0  0  0
   22.2771  -20.4538  -13.9805 C   0  0  0  0  0  0  0  0  0  0  0  0
   26.2836  -21.0055  -11.1999 C   0  0  0  0  0  0  0  0  0  0  0  0
   26.6873  -22.1833  -10.9763 O   0  0  0  0  0  0  0  0  0  0  0  0
   26.2972  -19.9702  -10.2461 N   0  0  0  0  0  0  0  0  0  0  0  0
   26.5670  -20.2234   -8.8759 C   0  0  1  0  0  0  0  0  0  0  0  0
   27.0750  -18.9777   -8.1941 C   0  0  0  0  0  0  0  0  0  0  0  0
   27.7460  -19.2763   -6.9122 C   0  0  0  0  0  0  0  0  0  0  0  0
   27.6890  -18.4006   -5.8567 C   0  0  0  0  0  0  0  0  0  0  0  0
   28.3258  -18.6965   -4.6642 C   0  0  0  0  0  0  0  0  0  0  0  0
   29.0229  -19.8735   -4.5259 C   0  0  0  0  0  0  0  0  0  0  0  0
   29.0805  -20.7509   -5.5820 C   0  0  0  0  0  0  0  0  0  0  0  0
   28.4387  -20.4496   -6.7800 C   0  0  0  0  0  0  0  0  0  0  0  0
   25.2980  -20.7253   -8.2272 C   0  0  0  0  0  0  0  0  0  0  0  0
   24.1539  -20.3612   -8.5862 O   0  0  0  0  0  0  0  0  0  0  0  0
   21.8539  -22.6583   -4.9952 N   0  0  0  0  0  0  0  0  0  0  0  0
   23.0329  -22.3430   -4.2784 C   0  0  0  0  0  0  0  0  0  0  0  0
   22.9798  -22.3263   -3.0285 O   0  0  0  0  0  0  0  0  0  0  0  0
   24.2843  -22.0440   -4.9911 C   0  0  0  0  0  0  0  0  0  0  0  0
   24.1257  -22.0628   -6.5075 C   0  0  2  0  0  0  0  0  0  0  0  0
   25.3560  -21.6574   -7.1531 N   0  0  0  0  0  0  0  0  0  0  0  0
   23.0731  -21.1435   -6.9844 C   0  0  0  0  0  0  0  0  0  0  0  0
   22.1702  -21.5296   -7.7673 O   0  0  0  0  0  0  0  0  0  0  0  0
   23.0058  -19.7939   -6.6041 O   0  0  0  0  0  0  0  0  0  0  0  0
  2  1  1  6
  3  2  1  0
  4  3  1  0
  4  5  2  0
  6  5  1  0
  7  6  1  0
  8  7  2  0
  9  8  1  0
 10  9  2  0
 10 11  1  0
 11 12  2  0
 12  7  1  0
 12  4  1  0
 13  2  1  0
 14 13  2  0
 15 13  1  0
 16 15  1  0
 16 17  1  1
 18 17  1  0
 18 19  2  0
 20 19  1  0
 21 20  2  0
 22 23  2  0
 22 21  1  0
 23 18  1  0
 24 16  1  0
 25 24  2  0
 26 27  1  0
 27 28  2  0
 30 29  1  1
 29 27  1  0
 30 31  1  0
 31 24  1  0
 32 34  1  0
 32 30  1  0
 33 32  2  0
M  END
$$$$
