WFN.pdb
     RDKit          3D

 34 36  0  0  1  0  0  0  0  0999 V2000
   26.5818  -21.8484  -13.4580 N   0  0  0  0  0  0  0  0  0  0  0  0
   26.7254  -20.7290  -12.5996 C   0  0  1  0  0  0  0  0  0  0  0  0
   25.8324  -19.5510  -12.9095 C   0  0  0  0  0  0  0  0  0  0  0  0
   25.9508  -19.0505  -14.2834 C   0  0  0  0  0  0  0  0  0  0  0  0
   24.9290  -18.7866  -15.1653 C   0  0  0  0  0  0  0  0  0  0  0  0
   25.4203  -18.3231  -16.3226 N   0  0  0  0  0  0  0  0  0  0  0  0
   26.7549  -18.2781  -16.2156 C   0  0  0  0  0  0  0  0  0  0  0  0
   27.7265  -17.8965  -17.0833 C   0  0  0  0  0  0  0  0  0  0  0  0
   29.0685  -17.9315  -16.7750 C   0  0  0  0  0  0  0  0  0  0  0  0
   29.4134  -18.3778  -15.5236 C   0  0  0  0  0  0  0  0  0  0  0  0
   28.4531  -18.7700  -14.6253 C   0  0  0  0  0  0  0  0  0  0  0  0
   27.1130  -18.7305  -14.9433 C   0  0  0  0  0  0  0  0  0  0  0  0
   26.6277  -21.1038  -11.1505 C   0  0  0  0  0  0  0  0  0  0  0  0
   26.3198  -22.2929  -10.8483 O   0  0  0  0  0  0  0  0  0  0  0  0
   26.8894  -20.0907  -10.2086 N   0  0  0  0  0  0  0  0  0  0  0  0
   26.7939  -20.3290   -8.8127 C   0  0  1  0  0  0  0  0  0  0  0  0
   27.5950  -19.3093   -8.0424 C   0  0  0  0  0  0  0  0  0  0  0  0
   27.6901  -19.6425   -6.6061 C   0  0  0  0  0  0  0  0  0  0  0  0
   28.4089  -20.7284   -6.1723 C   0  0  0  0  0  0  0  0  0  0  0  0
   28.4847  -21.0261   -4.8229 C   0  0  0  0  0  0  0  0  0  0  0  0
   27.8389  -20.2346   -3.9027 C   0  0  0  0  0  0  0  0  0  0  0  0
   27.1190  -19.1473   -4.3361 C   0  0  0  0  0  0  0  0  0  0  0  0
   27.0450  -18.8510   -5.6943 C   0  0  0  0  0  0  0  0  0  0  0  0
   25.3346  -20.2885   -8.4230 C   0  0  0  0  0  0  0  0  0  0  0  0
   24.8240  -19.3460   -7.7739 O   0  0  0  0  0  0  0  0  0  0  0  0
   21.7523  -22.6240   -5.7925 N   0  0  0  0  0  0  0  0  0  0  0  0
   23.1183  -22.4653   -5.4577 C   0  0  0  0  0  0  0  0  0  0  0  0
   23.4689  -22.6888   -4.2776 O   0  0  0  0  0  0  0  0  0  0  0  0
   24.0947  -22.0483   -6.4757 C   0  0  0  0  0  0  0  0  0  0  0  0
   23.4624  -21.7970   -7.8403 C   0  0  2  0  0  0  0  0  0  0  0  0
   24.4598  -21.3499   -8.7890 N   0  0  0  0  0  0  0  0  0  0  0  0
   22.4152  -20.7566   -7.8031 C   0  0  0  0  0  0  0  0  0  0  0  0
   22.6816  -19.5682   -7.4964 O   0  0  0  0  0  0  0  0  0  0  0  0
   21.0684  -21.0152   -8.1027 O   0  0  0  0  0  0  0  0  0  0  0  0
  2  1  1  6
  3  2  1  0
  4  3  1  0
  4  5  2  0
  6  5  1  0
  7  6  1  0
  8  7  2  0
  9  8  1  0
 10  9  2  0
 10 11  1  0
 11 12  2  0
 12  7  1  0
 12  4  1  0
 13  2  1  0
 14 13  2  0
 15 13  1  0
 16 15  1  0
 16 17  1  1
 18 17  1  0
 18 19  2  0
 20 19  1  0
 21 20  2  0
 22 23  2  0
 22 21  1  0
 23 18  1  0
 24 16  1  0
 25 24  2  0
 26 27  1  0
 27 28  2  0
 30 29  1  1
 29 27  1  0
 30 31  1  0
 31 24  1  0
 32 34  1  0
 32 30  1  0
 33 32  2  0
M  END
$$$$
