WFN.pdb
     RDKit          3D

 34 36  0  0  1  0  0  0  0  0999 V2000
   26.6210  -19.5076  -19.2490 N   0  0  0  0  0  0  0  0  0  0  0  0
   25.9255  -18.9078  -18.1687 C   0  0  1  0  0  0  0  0  0  0  0  0
   24.5245  -18.4352  -18.4773 C   0  0  0  0  0  0  0  0  0  0  0  0
   24.4625  -17.2999  -19.4043 C   0  0  0  0  0  0  0  0  0  0  0  0
   23.8952  -17.2768  -20.6570 C   0  0  0  0  0  0  0  0  0  0  0  0
   24.0133  -16.0572  -21.1995 N   0  0  0  0  0  0  0  0  0  0  0  0
   24.6524  -15.2746  -20.3201 C   0  0  0  0  0  0  0  0  0  0  0  0
   25.0288  -13.9712  -20.3651 C   0  0  0  0  0  0  0  0  0  0  0  0
   25.6955  -13.3432  -19.3364 C   0  0  0  0  0  0  0  0  0  0  0  0
   25.9813  -14.0939  -18.2233 C   0  0  0  0  0  0  0  0  0  0  0  0
   25.6131  -15.4136  -18.1492 C   0  0  0  0  0  0  0  0  0  0  0  0
   24.9458  -16.0324  -19.1837 C   0  0  0  0  0  0  0  0  0  0  0  0
   25.9392  -19.7617  -16.9356 C   0  0  0  0  0  0  0  0  0  0  0  0
   25.8208  -21.0149  -17.0612 O   0  0  0  0  0  0  0  0  0  0  0  0
   26.0852  -19.1008  -15.7012 N   0  0  0  0  0  0  0  0  0  0  0  0
   26.0048  -19.7993  -14.4683 C   0  0  1  0  0  0  0  0  0  0  0  0
   26.6313  -18.9935  -13.3579 C   0  0  0  0  0  0  0  0  0  0  0  0
   26.5092  -19.6611  -12.0456 C   0  0  0  0  0  0  0  0  0  0  0  0
   27.3297  -20.7051  -11.6978 C   0  0  0  0  0  0  0  0  0  0  0  0
   27.1989  -21.3196  -10.4647 C   0  0  0  0  0  0  0  0  0  0  0  0
   26.2435  -20.8886   -9.5750 C   0  0  0  0  0  0  0  0  0  0  0  0
   25.4216  -19.8435   -9.9223 C   0  0  0  0  0  0  0  0  0  0  0  0
   25.5561  -19.2279  -11.1636 C   0  0  0  0  0  0  0  0  0  0  0  0
   24.5501  -20.0904  -14.1817 C   0  0  0  0  0  0  0  0  0  0  0  0
   23.6309  -19.2658  -14.3945 O   0  0  0  0  0  0  0  0  0  0  0  0
   23.6800  -24.9535  -14.4922 N   0  0  0  0  0  0  0  0  0  0  0  0
   22.7623  -23.8759  -14.4930 C   0  0  0  0  0  0  0  0  0  0  0  0
   22.1781  -23.5960  -15.5634 O   0  0  0  0  0  0  0  0  0  0  0  0
   22.5070  -23.1097  -13.2636 C   0  0  0  0  0  0  0  0  0  0  0  0
   22.7510  -21.6141  -13.4321 C   0  0  2  0  0  0  0  0  0  0  0  0
   24.1579  -21.3483  -13.6437 N   0  0  0  0  0  0  0  0  0  0  0  0
   22.3444  -20.8309  -12.2480 C   0  0  0  0  0  0  0  0  0  0  0  0
   23.1807  -20.4609  -11.3873 O   0  0  0  0  0  0  0  0  0  0  0  0
   21.0161  -20.4491  -12.0022 O   0  0  0  0  0  0  0  0  0  0  0  0
  2  1  1  6
  3  2  1  0
  4  3  1  0
  4  5  2  0
  6  5  1  0
  7  6  1  0
  8  7  2  0
  9  8  1  0
 10  9  2  0
 10 11  1  0
 11 12  2  0
 12  7  1  0
 12  4  1  0
 13  2  1  0
 14 13  2  0
 15 13  1  0
 16 15  1  0
 16 17  1  1
 18 17  1  0
 18 19  2  0
 20 19  1  0
 21 20  2  0
 22 23  2  0
 22 21  1  0
 23 18  1  0
 24 16  1  0
 25 24  2  0
 26 27  1  0
 27 28  2  0
 30 29  1  1
 29 27  1  0
 30 31  1  0
 31 24  1  0
 32 34  1  0
 32 30  1  0
 33 32  2  0
M  END
$$$$
