WFN.pdb
     RDKit          3D

 34 36  0  0  1  0  0  0  0  0999 V2000
   26.8190  -21.1574  -12.9480 N   0  0  0  0  0  0  0  0  0  0  0  0
   26.1380  -20.5496  -11.8629 C   0  0  1  0  0  0  0  0  0  0  0  0
   24.6317  -20.6555  -11.8971 C   0  0  0  0  0  0  0  0  0  0  0  0
   23.9992  -19.8972  -12.9820 C   0  0  0  0  0  0  0  0  0  0  0  0
   24.6260  -19.1560  -13.9563 C   0  0  0  0  0  0  0  0  0  0  0  0
   23.7222  -18.6208  -14.7883 N   0  0  0  0  0  0  0  0  0  0  0  0
   22.5057  -18.9994  -14.3748 C   0  0  0  0  0  0  0  0  0  0  0  0
   21.2602  -18.7394  -14.8479 C   0  0  0  0  0  0  0  0  0  0  0  0
   20.1140  -19.2302  -14.2628 C   0  0  0  0  0  0  0  0  0  0  0  0
   20.2659  -20.0175  -13.1486 C   0  0  0  0  0  0  0  0  0  0  0  0
   21.5122  -20.2976  -12.6477 C   0  0  0  0  0  0  0  0  0  0  0  0
   22.6529  -19.8021  -13.2409 C   0  0  0  0  0  0  0  0  0  0  0  0
   26.6722  -20.9921  -10.5330 C   0  0  0  0  0  0  0  0  0  0  0  0
   26.8204  -22.2297  -10.3173 O   0  0  0  0  0  0  0  0  0  0  0  0
   26.9778  -19.9842   -9.5988 N   0  0  0  0  0  0  0  0  0  0  0  0
   27.2960  -20.2906   -8.2500 C   0  0  1  0  0  0  0  0  0  0  0  0
   27.7311  -19.0502   -7.5105 C   0  0  0  0  0  0  0  0  0  0  0  0
   28.1733  -19.3474   -6.1325 C   0  0  0  0  0  0  0  0  0  0  0  0
   28.9913  -20.4158   -5.8611 C   0  0  0  0  0  0  0  0  0  0  0  0
   29.3934  -20.6798   -4.5635 C   0  0  0  0  0  0  0  0  0  0  0  0
   28.9760  -19.8721   -3.5322 C   0  0  0  0  0  0  0  0  0  0  0  0
   28.1570  -18.8023   -3.8029 C   0  0  0  0  0  0  0  0  0  0  0  0
   27.7546  -18.5399   -5.1095 C   0  0  0  0  0  0  0  0  0  0  0  0
   26.0805  -20.9156   -7.6058 C   0  0  0  0  0  0  0  0  0  0  0  0
   26.1288  -21.9680   -6.9272 O   0  0  0  0  0  0  0  0  0  0  0  0
   21.3617  -21.4542   -5.4481 N   0  0  0  0  0  0  0  0  0  0  0  0
   21.2444  -20.5703   -6.5472 C   0  0  0  0  0  0  0  0  0  0  0  0
   20.0981  -20.2922   -6.9643 O   0  0  0  0  0  0  0  0  0  0  0  0
   22.4435  -19.9972   -7.1777 C   0  0  0  0  0  0  0  0  0  0  0  0
   23.6683  -20.8973   -7.0570 C   0  0  2  0  0  0  0  0  0  0  0  0
   24.7981  -20.3152   -7.7495 N   0  0  0  0  0  0  0  0  0  0  0  0
   23.4549  -22.2358   -7.6430 C   0  0  0  0  0  0  0  0  0  0  0  0
   23.3514  -22.4000   -8.8838 O   0  0  0  0  0  0  0  0  0  0  0  0
   23.3539  -23.4027   -6.8692 O   0  0  0  0  0  0  0  0  0  0  0  0
  2  1  1  6
  3  2  1  0
  4  3  1  0
  4  5  2  0
  6  5  1  0
  7  6  1  0
  8  7  2  0
  9  8  1  0
 10  9  2  0
 10 11  1  0
 11 12  2  0
 12  7  1  0
 12  4  1  0
 13  2  1  0
 14 13  2  0
 15 13  1  0
 16 15  1  0
 16 17  1  1
 18 17  1  0
 18 19  2  0
 20 19  1  0
 21 20  2  0
 22 23  2  0
 22 21  1  0
 23 18  1  0
 24 16  1  0
 25 24  2  0
 26 27  1  0
 27 28  2  0
 30 29  1  6
 29 27  1  0
 30 31  1  0
 31 24  1  0
 32 34  1  0
 32 30  1  0
 33 32  2  0
M  END
$$$$
