WFN.pdb
     RDKit          3D

 34 36  0  0  1  0  0  0  0  0999 V2000
   25.6652  -21.5297  -16.1882 N   0  0  0  0  0  0  0  0  0  0  0  0
   24.9799  -20.9032  -15.1164 C   0  0  1  0  0  0  0  0  0  0  0  0
   23.4725  -20.9807  -15.1724 C   0  0  0  0  0  0  0  0  0  0  0  0
   22.8857  -20.4194  -16.3941 C   0  0  0  0  0  0  0  0  0  0  0  0
   22.5850  -21.0881  -17.5577 C   0  0  0  0  0  0  0  0  0  0  0  0
   22.0421  -20.2490  -18.4503 N   0  0  0  0  0  0  0  0  0  0  0  0
   21.9809  -19.0337  -17.8901 C   0  0  0  0  0  0  0  0  0  0  0  0
   21.5296  -17.8393  -18.3507 C   0  0  0  0  0  0  0  0  0  0  0  0
   21.5607  -16.6828  -17.6034 C   0  0  0  0  0  0  0  0  0  0  0  0
   22.0780  -16.7692  -16.3349 C   0  0  0  0  0  0  0  0  0  0  0  0
   22.5416  -17.9629  -15.8421 C   0  0  0  0  0  0  0  0  0  0  0  0
   22.5054  -19.1146  -16.5978 C   0  0  0  0  0  0  0  0  0  0  0  0
   25.4860  -21.3485  -13.7764 C   0  0  0  0  0  0  0  0  0  0  0  0
   25.5114  -22.5861  -13.5155 O   0  0  0  0  0  0  0  0  0  0  0  0
   25.9054  -20.3433  -12.8846 N   0  0  0  0  0  0  0  0  0  0  0  0
   26.2494  -20.6373  -11.5394 C   0  0  1  0  0  0  0  0  0  0  0  0
   27.3806  -19.7550  -11.0739 C   0  0  0  0  0  0  0  0  0  0  0  0
   27.6442  -19.9007   -9.6275 C   0  0  0  0  0  0  0  0  0  0  0  0
   27.0140  -19.1041   -8.7042 C   0  0  0  0  0  0  0  0  0  0  0  0
   27.2754  -19.2538   -7.3535 C   0  0  0  0  0  0  0  0  0  0  0  0
   28.1710  -20.2042   -6.9235 C   0  0  0  0  0  0  0  0  0  0  0  0
   28.8025  -21.0021   -7.8471 C   0  0  0  0  0  0  0  0  0  0  0  0
   28.5370  -20.8486   -9.2050 C   0  0  0  0  0  0  0  0  0  0  0  0
   25.0188  -20.4495  -10.6829 C   0  0  0  0  0  0  0  0  0  0  0  0
   24.1413  -19.5877  -10.9228 O   0  0  0  0  0  0  0  0  0  0  0  0
   21.0149  -21.2282   -7.6492 N   0  0  0  0  0  0  0  0  0  0  0  0
   21.1001  -21.6353   -9.0021 C   0  0  0  0  0  0  0  0  0  0  0  0
   20.0451  -21.9611   -9.5903 O   0  0  0  0  0  0  0  0  0  0  0  0
   22.3987  -21.6717   -9.6921 C   0  0  0  0  0  0  0  0  0  0  0  0
   23.5476  -21.1651   -8.8272 C   0  0  2  0  0  0  0  0  0  0  0  0
   24.8040  -21.2678   -9.5384 N   0  0  0  0  0  0  0  0  0  0  0  0
   23.7041  -21.9336   -7.5759 C   0  0  0  0  0  0  0  0  0  0  0  0
   22.9714  -21.7196   -6.5786 O   0  0  0  0  0  0  0  0  0  0  0  0
   24.6667  -22.9422   -7.4125 O   0  0  0  0  0  0  0  0  0  0  0  0
  2  1  1  6
  3  2  1  0
  4  3  1  0
  4  5  2  0
  6  5  1  0
  7  6  1  0
  8  7  2  0
  9  8  1  0
 10  9  2  0
 10 11  1  0
 11 12  2  0
 12  7  1  0
 12  4  1  0
 13  2  1  0
 14 13  2  0
 15 13  1  0
 16 15  1  0
 16 17  1  1
 18 17  1  0
 18 19  2  0
 20 19  1  0
 21 20  2  0
 22 23  2  0
 22 21  1  0
 23 18  1  0
 24 16  1  0
 25 24  2  0
 26 27  1  0
 27 28  2  0
 30 29  1  6
 29 27  1  0
 30 31  1  0
 31 24  1  0
 32 34  1  0
 32 30  1  0
 33 32  2  0
M  END
$$$$
