WFN.pdb
     RDKit          3D

 34 36  0  0  1  0  0  0  0  0999 V2000
   29.1135  -20.3214  -14.7558 N   0  0  0  0  0  0  0  0  0  0  0  0
   27.8342  -19.8125  -14.4163 C   0  0  1  0  0  0  0  0  0  0  0  0
   26.9445  -19.4541  -15.5830 C   0  0  0  0  0  0  0  0  0  0  0  0
   27.4405  -18.3403  -16.3987 C   0  0  0  0  0  0  0  0  0  0  0  0
   27.9957  -18.4100  -17.6551 C   0  0  0  0  0  0  0  0  0  0  0  0
   28.3131  -17.1839  -18.0929 N   0  0  0  0  0  0  0  0  0  0  0  0
   27.9743  -16.3052  -17.1402 C   0  0  0  0  0  0  0  0  0  0  0  0
   28.0803  -14.9539  -17.0672 C   0  0  0  0  0  0  0  0  0  0  0  0
   27.6695  -14.2236  -15.9741 C   0  0  0  0  0  0  0  0  0  0  0  0
   27.1305  -14.9198  -14.9210 C   0  0  0  0  0  0  0  0  0  0  0  0
   27.0105  -16.2859  -14.9664 C   0  0  0  0  0  0  0  0  0  0  0  0
   27.4241  -17.0073  -16.0651 C   0  0  0  0  0  0  0  0  0  0  0  0
   27.1077  -20.6945  -13.4446 C   0  0  0  0  0  0  0  0  0  0  0  0
   27.2551  -21.9479  -13.5320 O   0  0  0  0  0  0  0  0  0  0  0  0
   26.2975  -20.0583  -12.4852 N   0  0  0  0  0  0  0  0  0  0  0  0
   25.4774  -20.7984  -11.5941 C   0  0  1  0  0  0  0  0  0  0  0  0
   25.3931  -20.1124  -10.2536 C   0  0  0  0  0  0  0  0  0  0  0  0
   26.5773  -20.3819   -9.4124 C   0  0  0  0  0  0  0  0  0  0  0  0
   27.5553  -21.2559   -9.8172 C   0  0  0  0  0  0  0  0  0  0  0  0
   28.6565  -21.4975   -9.0146 C   0  0  0  0  0  0  0  0  0  0  0  0
   28.7808  -20.8626   -7.8015 C   0  0  0  0  0  0  0  0  0  0  0  0
   27.8022  -19.9875   -7.3953 C   0  0  0  0  0  0  0  0  0  0  0  0
   26.6959  -19.7470   -8.2054 C   0  0  0  0  0  0  0  0  0  0  0  0
   24.1107  -20.9486  -12.2207 C   0  0  0  0  0  0  0  0  0  0  0  0
   23.6387  -20.1278  -13.0416 O   0  0  0  0  0  0  0  0  0  0  0  0
   19.3958  -22.6052  -13.4863 N   0  0  0  0  0  0  0  0  0  0  0  0
   20.0628  -23.7121  -12.9092 C   0  0  0  0  0  0  0  0  0  0  0  0
   19.4968  -24.8274  -12.9411 O   0  0  0  0  0  0  0  0  0  0  0  0
   21.3869  -23.5480  -12.2898 C   0  0  0  0  0  0  0  0  0  0  0  0
   21.9619  -22.1480  -12.4746 C   0  0  2  0  0  0  0  0  0  0  0  0
   23.2841  -22.0598  -11.8925 N   0  0  0  0  0  0  0  0  0  0  0  0
   21.1430  -21.1029  -11.8284 C   0  0  0  0  0  0  0  0  0  0  0  0
   20.1359  -20.6133  -12.3971 O   0  0  0  0  0  0  0  0  0  0  0  0
   21.4253  -20.5890  -10.5530 O   0  0  0  0  0  0  0  0  0  0  0  0
  2  1  1  6
  3  2  1  0
  4  3  1  0
  4  5  2  0
  6  5  1  0
  7  6  1  0
  8  7  2  0
  9  8  1  0
 10  9  2  0
 10 11  1  0
 11 12  2  0
 12  7  1  0
 12  4  1  0
 13  2  1  0
 14 13  2  0
 15 13  1  0
 16 15  1  0
 16 17  1  1
 18 17  1  0
 18 19  2  0
 20 19  1  0
 21 20  2  0
 22 23  2  0
 22 21  1  0
 23 18  1  0
 24 16  1  0
 25 24  2  0
 26 27  1  0
 27 28  2  0
 30 29  1  1
 29 27  1  0
 30 31  1  0
 31 24  1  0
 32 34  1  0
 32 30  1  0
 33 32  2  0
M  END
$$$$
