WFN.pdb
     RDKit          3D

 34 36  0  0  1  0  0  0  0  0999 V2000
   26.7273  -21.4851  -13.4539 N   0  0  0  0  0  0  0  0  0  0  0  0
   26.4276  -20.4513  -12.5308 C   0  0  1  0  0  0  0  0  0  0  0  0
   25.1435  -19.6990  -12.7888 C   0  0  0  0  0  0  0  0  0  0  0  0
   25.0186  -19.1706  -14.1516 C   0  0  0  0  0  0  0  0  0  0  0  0
   23.9327  -19.2737  -14.9892 C   0  0  0  0  0  0  0  0  0  0  0  0
   24.1786  -18.6507  -16.1498 N   0  0  0  0  0  0  0  0  0  0  0  0
   25.4145  -18.1376  -16.0888 C   0  0  0  0  0  0  0  0  0  0  0  0
   26.1507  -17.4251  -16.9793 C   0  0  0  0  0  0  0  0  0  0  0  0
   27.4304  -16.9869  -16.7198 C   0  0  0  0  0  0  0  0  0  0  0  0
   27.9640  -17.2991  -15.4941 C   0  0  0  0  0  0  0  0  0  0  0  0
   27.2435  -18.0178  -14.5737 C   0  0  0  0  0  0  0  0  0  0  0  0
   25.9635  -18.4510  -14.8430 C   0  0  0  0  0  0  0  0  0  0  0  0
   26.4928  -20.9196  -11.1072 C   0  0  0  0  0  0  0  0  0  0  0  0
   26.2219  -22.1283  -10.8507 O   0  0  0  0  0  0  0  0  0  0  0  0
   26.8568  -19.9672  -10.1365 N   0  0  0  0  0  0  0  0  0  0  0  0
   27.0122  -20.3185   -8.7702 C   0  0  1  0  0  0  0  0  0  0  0  0
   28.0652  -19.4594   -8.1159 C   0  0  0  0  0  0  0  0  0  0  0  0
   28.1194  -19.6589   -6.6530 C   0  0  0  0  0  0  0  0  0  0  0  0
   27.4567  -18.8180   -5.7939 C   0  0  0  0  0  0  0  0  0  0  0  0
   27.5210  -19.0194   -4.4262 C   0  0  0  0  0  0  0  0  0  0  0  0
   28.2511  -20.0661   -3.9147 C   0  0  0  0  0  0  0  0  0  0  0  0
   28.9148  -20.9084   -4.7740 C   0  0  0  0  0  0  0  0  0  0  0  0
   28.8479  -20.7026   -6.1492 C   0  0  0  0  0  0  0  0  0  0  0  0
   25.6743  -20.1637   -8.0851 C   0  0  0  0  0  0  0  0  0  0  0  0
   24.8478  -19.2720   -8.3883 O   0  0  0  0  0  0  0  0  0  0  0  0
   21.2921  -21.3289   -5.7019 N   0  0  0  0  0  0  0  0  0  0  0  0
   21.5804  -21.6303   -7.0544 C   0  0  0  0  0  0  0  0  0  0  0  0
   20.6428  -22.0131   -7.7890 O   0  0  0  0  0  0  0  0  0  0  0  0
   22.9491  -21.4945   -7.5758 C   0  0  0  0  0  0  0  0  0  0  0  0
   23.9384  -20.9927   -6.5297 C   0  0  2  0  0  0  0  0  0  0  0  0
   25.2917  -21.0504   -7.0397 N   0  0  0  0  0  0  0  0  0  0  0  0
   23.9171  -21.7953   -5.2903 C   0  0  0  0  0  0  0  0  0  0  0  0
   24.5712  -22.8626   -5.1885 O   0  0  0  0  0  0  0  0  0  0  0  0
   23.1769  -21.4304   -4.1548 O   0  0  0  0  0  0  0  0  0  0  0  0
  2  1  1  6
  3  2  1  0
  4  3  1  0
  4  5  2  0
  6  5  1  0
  7  6  1  0
  8  7  2  0
  9  8  1  0
 10  9  2  0
 10 11  1  0
 11 12  2  0
 12  7  1  0
 12  4  1  0
 13  2  1  0
 14 13  2  0
 15 13  1  0
 16 15  1  0
 16 17  1  1
 18 17  1  0
 18 19  2  0
 20 19  1  0
 21 20  2  0
 22 23  2  0
 22 21  1  0
 23 18  1  0
 24 16  1  0
 25 24  2  0
 26 27  1  0
 27 28  2  0
 30 29  1  6
 29 27  1  0
 30 31  1  0
 31 24  1  0
 32 34  1  0
 32 30  1  0
 33 32  2  0
M  END
$$$$
