WFN.pdb
     RDKit          3D

 34 36  0  0  1  0  0  0  0  0999 V2000
   27.7179  -21.3321  -15.3338 N   0  0  0  0  0  0  0  0  0  0  0  0
   27.2445  -20.4224  -14.3546 C   0  0  1  0  0  0  0  0  0  0  0  0
   26.5629  -19.1852  -14.8895 C   0  0  0  0  0  0  0  0  0  0  0  0
   27.2761  -18.5347  -15.9941 C   0  0  0  0  0  0  0  0  0  0  0  0
   26.7327  -18.0146  -17.1455 C   0  0  0  0  0  0  0  0  0  0  0  0
   27.6923  -17.4822  -17.9145 N   0  0  0  0  0  0  0  0  0  0  0  0
   28.8633  -17.6449  -17.2847 C   0  0  0  0  0  0  0  0  0  0  0  0
   30.1331  -17.2996  -17.6177 C   0  0  0  0  0  0  0  0  0  0  0  0
   31.2216  -17.5677  -16.8175 C   0  0  0  0  0  0  0  0  0  0  0  0
   30.9838  -18.2164  -15.6314 C   0  0  0  0  0  0  0  0  0  0  0  0
   29.7109  -18.5776  -15.2681 C   0  0  0  0  0  0  0  0  0  0  0  0
   28.6284  -18.3041  -16.0756 C   0  0  0  0  0  0  0  0  0  0  0  0
   26.3934  -21.0918  -13.3165 C   0  0  0  0  0  0  0  0  0  0  0  0
   25.9109  -22.2337  -13.5683 O   0  0  0  0  0  0  0  0  0  0  0  0
   26.1850  -20.3931  -12.1122 N   0  0  0  0  0  0  0  0  0  0  0  0
   25.1791  -20.7823  -11.1899 C   0  0  1  0  0  0  0  0  0  0  0  0
   25.3837  -20.1012   -9.8598 C   0  0  0  0  0  0  0  0  0  0  0  0
   26.7348  -20.3397   -9.3118 C   0  0  0  0  0  0  0  0  0  0  0  0
   27.1994  -19.6357   -8.2289 C   0  0  0  0  0  0  0  0  0  0  0  0
   28.4689  -19.8714   -7.7309 C   0  0  0  0  0  0  0  0  0  0  0  0
   29.2780  -20.8152   -8.3181 C   0  0  0  0  0  0  0  0  0  0  0  0
   28.8138  -21.5205   -9.4024 C   0  0  0  0  0  0  0  0  0  0  0  0
   27.5362  -21.2806   -9.9005 C   0  0  0  0  0  0  0  0  0  0  0  0
   23.8326  -20.4366  -11.7820 C   0  0  0  0  0  0  0  0  0  0  0  0
   23.6570  -19.4829  -12.5757 O   0  0  0  0  0  0  0  0  0  0  0  0
   19.4618  -21.8477  -14.1199 N   0  0  0  0  0  0  0  0  0  0  0  0
   20.6254  -22.6428  -14.2502 C   0  0  0  0  0  0  0  0  0  0  0  0
   20.6553  -23.5052  -15.1561 O   0  0  0  0  0  0  0  0  0  0  0  0
   21.7661  -22.4543  -13.3409 C   0  0  0  0  0  0  0  0  0  0  0  0
   21.5861  -21.2709  -12.3964 C   0  0  2  0  0  0  0  0  0  0  0  0
   22.6800  -21.2031  -11.4510 N   0  0  0  0  0  0  0  0  0  0  0  0
   20.3437  -21.3557  -11.6028 C   0  0  0  0  0  0  0  0  0  0  0  0
   20.3543  -21.7362  -10.4060 O   0  0  0  0  0  0  0  0  0  0  0  0
   19.0815  -21.0229  -12.1192 O   0  0  0  0  0  0  0  0  0  0  0  0
  2  1  1  6
  3  2  1  0
  4  3  1  0
  4  5  2  0
  6  5  1  0
  7  6  1  0
  8  7  2  0
  9  8  1  0
 10  9  2  0
 10 11  1  0
 11 12  2  0
 12  7  1  0
 12  4  1  0
 13  2  1  0
 14 13  2  0
 15 13  1  0
 16 15  1  0
 16 17  1  1
 18 17  1  0
 18 19  2  0
 20 19  1  0
 21 20  2  0
 22 23  2  0
 22 21  1  0
 23 18  1  0
 24 16  1  0
 25 24  2  0
 26 27  1  0
 27 28  2  0
 30 29  1  6
 29 27  1  0
 30 31  1  0
 31 24  1  0
 32 34  1  0
 32 30  1  0
 33 32  2  0
M  END
$$$$
