WFN.pdb
     RDKit          3D

 34 36  0  0  1  0  0  0  0  0999 V2000
   25.5248  -21.6068  -16.7996 N   0  0  0  0  0  0  0  0  0  0  0  0
   25.5266  -20.5663  -15.8363 C   0  0  1  0  0  0  0  0  0  0  0  0
   24.2853  -19.7063  -15.8032 C   0  0  0  0  0  0  0  0  0  0  0  0
   23.8941  -19.1631  -17.1086 C   0  0  0  0  0  0  0  0  0  0  0  0
   22.6785  -19.2988  -17.7374 C   0  0  0  0  0  0  0  0  0  0  0  0
   22.6849  -18.6486  -18.9091 N   0  0  0  0  0  0  0  0  0  0  0  0
   23.8907  -18.0853  -19.0618 C   0  0  0  0  0  0  0  0  0  0  0  0
   24.4245  -17.3294  -20.0549 C   0  0  0  0  0  0  0  0  0  0  0  0
   25.7123  -16.8421  -20.0219 C   0  0  0  0  0  0  0  0  0  0  0  0
   26.4718  -17.1501  -18.9207 C   0  0  0  0  0  0  0  0  0  0  0  0
   25.9591  -17.9121  -17.9012 C   0  0  0  0  0  0  0  0  0  0  0  0
   24.6690  -18.3944  -17.9436 C   0  0  0  0  0  0  0  0  0  0  0  0
   25.8680  -21.0604  -14.4618 C   0  0  0  0  0  0  0  0  0  0  0  0
   25.4000  -22.1721  -14.0806 O   0  0  0  0  0  0  0  0  0  0  0  0
   26.6997  -20.2408  -13.6755 N   0  0  0  0  0  0  0  0  0  0  0  0
   26.9591  -20.5337  -12.3112 C   0  0  1  0  0  0  0  0  0  0  0  0
   28.1582  -19.7622  -11.8196 C   0  0  0  0  0  0  0  0  0  0  0  0
   28.3675  -19.9214  -10.3657 C   0  0  0  0  0  0  0  0  0  0  0  0
   27.7757  -19.0732   -9.4632 C   0  0  0  0  0  0  0  0  0  0  0  0
   27.9852  -19.2367   -8.1051 C   0  0  0  0  0  0  0  0  0  0  0  0
   28.7901  -20.2527   -7.6467 C   0  0  0  0  0  0  0  0  0  0  0  0
   29.3830  -21.1023   -8.5495 C   0  0  0  0  0  0  0  0  0  0  0  0
   29.1699  -20.9348   -9.9150 C   0  0  0  0  0  0  0  0  0  0  0  0
   25.7233  -20.1962  -11.5100 C   0  0  0  0  0  0  0  0  0  0  0  0
   24.8854  -19.3371  -11.8710 O   0  0  0  0  0  0  0  0  0  0  0  0
   21.7045  -20.2983   -8.4020 N   0  0  0  0  0  0  0  0  0  0  0  0
   21.7450  -20.8999   -9.6825 C   0  0  0  0  0  0  0  0  0  0  0  0
   20.6670  -21.2735  -10.1960 O   0  0  0  0  0  0  0  0  0  0  0  0
   23.0249  -21.0780  -10.3853 C   0  0  0  0  0  0  0  0  0  0  0  0
   24.2205  -20.5776   -9.5822 C   0  0  2  0  0  0  0  0  0  0  0  0
   25.4567  -20.8604  -10.2798 N   0  0  0  0  0  0  0  0  0  0  0  0
   24.3263  -21.2162   -8.2550 C   0  0  0  0  0  0  0  0  0  0  0  0
   24.9145  -22.3150   -8.1005 O   0  0  0  0  0  0  0  0  0  0  0  0
   23.7863  -20.6515   -7.0887 O   0  0  0  0  0  0  0  0  0  0  0  0
  2  1  1  6
  3  2  1  0
  4  3  1  0
  4  5  2  0
  6  5  1  0
  7  6  1  0
  8  7  2  0
  9  8  1  0
 10  9  2  0
 10 11  1  0
 11 12  2  0
 12  7  1  0
 12  4  1  0
 13  2  1  0
 14 13  2  0
 15 13  1  0
 16 15  1  0
 16 17  1  1
 18 17  1  0
 18 19  2  0
 20 19  1  0
 21 20  2  0
 22 23  2  0
 22 21  1  0
 23 18  1  0
 24 16  1  0
 25 24  2  0
 26 27  1  0
 27 28  2  0
 30 29  1  6
 29 27  1  0
 30 31  1  0
 31 24  1  0
 32 34  1  0
 32 30  1  0
 33 32  2  0
M  END
$$$$
