WFN.pdb
     RDKit          3D

 34 36  0  0  1  0  0  0  0  0999 V2000
   26.2156  -21.7484  -12.9901 N   0  0  0  0  0  0  0  0  0  0  0  0
   26.0404  -20.6868  -12.0666 C   0  0  1  0  0  0  0  0  0  0  0  0
   24.7286  -19.9449  -12.1674 C   0  0  0  0  0  0  0  0  0  0  0  0
   24.4727  -19.3504  -13.4838 C   0  0  0  0  0  0  0  0  0  0  0  0
   23.3476  -19.4987  -14.2608 C   0  0  0  0  0  0  0  0  0  0  0  0
   23.4655  -18.7896  -15.3917 N   0  0  0  0  0  0  0  0  0  0  0  0
   24.6554  -18.1748  -15.3709 C   0  0  0  0  0  0  0  0  0  0  0  0
   25.2707  -17.3496  -16.2559 C   0  0  0  0  0  0  0  0  0  0  0  0
   26.5232  -16.8171  -16.0447 C   0  0  0  0  0  0  0  0  0  0  0  0
   27.1587  -17.1528  -14.8752 C   0  0  0  0  0  0  0  0  0  0  0  0
   26.5615  -17.9845  -13.9618 C   0  0  0  0  0  0  0  0  0  0  0  0
   25.3076  -18.5116  -14.1823 C   0  0  0  0  0  0  0  0  0  0  0  0
   26.3046  -21.1103  -10.6521 C   0  0  0  0  0  0  0  0  0  0  0  0
   25.8915  -22.2427  -10.2681 O   0  0  0  0  0  0  0  0  0  0  0  0
   27.0057  -20.2048   -9.8334 N   0  0  0  0  0  0  0  0  0  0  0  0
   27.1009  -20.3899   -8.4295 C   0  0  1  0  0  0  0  0  0  0  0  0
   27.9766  -19.3293   -7.8107 C   0  0  0  0  0  0  0  0  0  0  0  0
   28.1255  -19.5088   -6.3518 C   0  0  0  0  0  0  0  0  0  0  0  0
   28.0100  -18.4485   -5.4876 C   0  0  0  0  0  0  0  0  0  0  0  0
   28.1549  -18.6357   -4.1241 C   0  0  0  0  0  0  0  0  0  0  0  0
   28.4165  -19.8885   -3.6218 C   0  0  0  0  0  0  0  0  0  0  0  0
   28.5324  -20.9505   -4.4862 C   0  0  0  0  0  0  0  0  0  0  0  0
   28.3861  -20.7584   -5.8572 C   0  0  0  0  0  0  0  0  0  0  0  0
   25.7056  -20.3559   -7.8505 C   0  0  0  0  0  0  0  0  0  0  0  0
   24.7569  -19.7348   -8.3837 O   0  0  0  0  0  0  0  0  0  0  0  0
   20.7817  -21.6219   -7.2413 N   0  0  0  0  0  0  0  0  0  0  0  0
   21.8692  -22.3146   -6.6578 C   0  0  0  0  0  0  0  0  0  0  0  0
   21.6284  -23.1298   -5.7398 O   0  0  0  0  0  0  0  0  0  0  0  0
   23.2441  -22.0774   -7.1236 C   0  0  0  0  0  0  0  0  0  0  0  0
   24.0304  -21.1440   -6.2096 C   0  0  2  0  0  0  0  0  0  0  0  0
   25.4079  -21.0481   -6.6431 N   0  0  0  0  0  0  0  0  0  0  0  0
   24.0577  -21.6053   -4.8071 C   0  0  0  0  0  0  0  0  0  0  0  0
   23.4650  -20.9745   -3.8972 O   0  0  0  0  0  0  0  0  0  0  0  0
   24.7366  -22.7630   -4.3954 O   0  0  0  0  0  0  0  0  0  0  0  0
  2  1  1  6
  3  2  1  0
  4  3  1  0
  4  5  2  0
  6  5  1  0
  7  6  1  0
  8  7  2  0
  9  8  1  0
 10  9  2  0
 10 11  1  0
 11 12  2  0
 12  7  1  0
 12  4  1  0
 13  2  1  0
 14 13  2  0
 15 13  1  0
 16 15  1  0
 16 17  1  1
 18 17  1  0
 18 19  2  0
 20 19  1  0
 21 20  2  0
 22 23  2  0
 22 21  1  0
 23 18  1  0
 24 16  1  0
 25 24  2  0
 26 27  1  0
 27 28  2  0
 30 29  1  6
 29 27  1  0
 30 31  1  0
 31 24  1  0
 32 34  1  0
 32 30  1  0
 33 32  2  0
M  END
$$$$
