SMV.pdb
     RDKit          3D

 22 21  0  0  1  0  0  0  0  0999 V2000
   11.3877  -18.4172   22.1362 O   0  0  0  0  0  0  0  0  0  0  0  0
   10.2630  -18.1572   21.3646 C   0  0  0  0  0  0  0  0  0  0  0  0
   10.1245  -16.6612   21.1650 C   0  0  2  0  0  0  0  0  0  0  0  0
   11.2739  -16.1987   20.4454 N   0  0  0  0  0  0  0  0  0  0  0  0
    9.9819  -15.9351   22.4312 C   0  0  0  0  0  0  0  0  0  0  0  0
   10.9234  -15.3075   22.9797 O   0  0  0  0  0  0  0  0  0  0  0  0
    6.4669  -11.6411   26.8755 C   0  0  0  0  0  0  0  0  0  0  0  0
    6.8690  -12.6875   25.4767 S   0  0  0  0  0  0  0  0  0  0  0  0
    6.6767  -14.4528   25.8654 C   0  0  0  0  0  0  0  0  0  0  0  0
    7.0234  -15.2530   24.6563 C   0  0  0  0  0  0  0  0  0  0  0  0
    8.5091  -15.2385   24.3629 C   0  0  2  0  0  0  0  0  0  0  0  0
    8.7273  -15.9078   23.1195 N   0  0  0  0  0  0  0  0  0  0  0  0
    9.2750  -15.7986   25.4810 C   0  0  0  0  0  0  0  0  0  0  0  0
    9.4841  -17.0377   25.5218 O   0  0  0  0  0  0  0  0  0  0  0  0
    9.4053  -14.7309   29.5979 C   0  0  0  0  0  0  0  0  0  0  0  0
   10.6919  -14.7167   28.8069 C   0  0  2  0  0  0  0  0  0  0  0  0
   10.9758  -13.3069   28.3136 C   0  0  0  0  0  0  0  0  0  0  0  0
   10.6061  -15.6058   27.5823 C   0  0  2  0  0  0  0  0  0  0  0  0
    9.8055  -15.0179   26.5396 N   0  0  0  0  0  0  0  0  0  0  0  0
   10.0588  -16.9127   28.0333 C   0  0  0  0  0  0  0  0  0  0  0  0
   10.7668  -17.6680   28.7583 O   0  0  0  0  0  0  0  0  0  0  0  0
    8.8026  -17.3589   27.7027 O   0  0  0  0  0  0  0  0  0  0  0  0
  1  2  1  0
  3  4  1  1
  3  5  1  0
  3  2  1  0
  5  6  2  0
  7  8  1  0
  8  9  1  0
  9 10  1  0
 11 10  1  1
 11 13  1  0
 12  5  1  0
 12 11  1  0
 13 19  1  0
 13 14  2  0
 16 18  1  0
 16 15  1  6
 17 16  1  0
 18 20  1  0
 18 19  1  6
 20 22  1  0
 21 20  2  0
M  END
$$$$
