SMV.pdb
     RDKit          3D

 22 21  0  0  1  0  0  0  0  0999 V2000
    8.4472  -18.1960   21.1072 O   0  0  0  0  0  0  0  0  0  0  0  0
    7.5887  -17.2828   20.5099 C   0  0  0  0  0  0  0  0  0  0  0  0
    8.2359  -15.9123   20.5051 C   0  0  2  0  0  0  0  0  0  0  0  0
    9.2877  -15.9189   19.5322 N   0  0  0  0  0  0  0  0  0  0  0  0
    8.7542  -15.5298   21.8226 C   0  0  0  0  0  0  0  0  0  0  0  0
    9.9574  -15.6685   22.1607 O   0  0  0  0  0  0  0  0  0  0  0  0
    6.7930  -11.0591   28.0534 C   0  0  0  0  0  0  0  0  0  0  0  0
    6.3191  -11.9660   26.5815 S   0  0  0  0  0  0  0  0  0  0  0  0
    7.6336  -13.0871   26.0160 C   0  0  0  0  0  0  0  0  0  0  0  0
    7.2189  -13.7024   24.7230 C   0  0  0  0  0  0  0  0  0  0  0  0
    8.3168  -14.5456   24.1087 C   0  0  2  0  0  0  0  0  0  0  0  0
    7.8877  -14.9649   22.8119 N   0  0  0  0  0  0  0  0  0  0  0  0
    8.6943  -15.6509   24.9952 C   0  0  0  0  0  0  0  0  0  0  0  0
    7.8646  -16.5686   25.2194 O   0  0  0  0  0  0  0  0  0  0  0  0
   12.7302  -16.2261   26.4746 C   0  0  0  0  0  0  0  0  0  0  0  0
   11.7574  -17.3367   26.1561 C   0  0  2  0  0  0  0  0  0  0  0  0
   11.8652  -17.7075   24.6855 C   0  0  0  0  0  0  0  0  0  0  0  0
   10.3232  -16.9126   26.4022 C   0  0  2  0  0  0  0  0  0  0  0  0
    9.9593  -15.7539   25.6283 N   0  0  0  0  0  0  0  0  0  0  0  0
   10.1878  -16.6701   27.8630 C   0  0  0  0  0  0  0  0  0  0  0  0
   10.3973  -17.6168   28.6738 O   0  0  0  0  0  0  0  0  0  0  0  0
    9.8413  -15.4529   28.3967 O   0  0  0  0  0  0  0  0  0  0  0  0
  1  2  1  0
  3  4  1  6
  3  5  1  0
  3  2  1  0
  5  6  2  0
  7  8  1  0
  8  9  1  0
  9 10  1  0
 11 10  1  1
 11 13  1  0
 12  5  1  0
 12 11  1  0
 13 19  1  0
 13 14  2  0
 16 18  1  0
 16 15  1  6
 17 16  1  0
 18 20  1  0
 18 19  1  6
 20 22  1  0
 21 20  2  0
M  END
$$$$
