SMV.pdb
     RDKit          3D

 22 21  0  0  1  0  0  0  0  0999 V2000
   10.7003  -18.8963   20.3139 O   0  0  0  0  0  0  0  0  0  0  0  0
   10.4249  -18.2300   21.5004 C   0  0  0  0  0  0  0  0  0  0  0  0
    9.9660  -16.8191   21.1905 C   0  0  2  0  0  0  0  0  0  0  0  0
   10.8511  -16.2676   20.2080 N   0  0  0  0  0  0  0  0  0  0  0  0
    9.9231  -15.9663   22.3829 C   0  0  0  0  0  0  0  0  0  0  0  0
   10.8944  -15.2679   22.7704 O   0  0  0  0  0  0  0  0  0  0  0  0
    6.4914  -11.3789   25.2504 C   0  0  0  0  0  0  0  0  0  0  0  0
    5.7501  -12.9292   25.7607 S   0  0  0  0  0  0  0  0  0  0  0  0
    6.9942  -14.2280   26.0250 C   0  0  0  0  0  0  0  0  0  0  0  0
    7.1886  -14.9757   24.7501 C   0  0  0  0  0  0  0  0  0  0  0  0
    8.6525  -15.1833   24.4221 C   0  0  2  0  0  0  0  0  0  0  0  0
    8.7387  -15.8889   23.1826 N   0  0  0  0  0  0  0  0  0  0  0  0
    9.3551  -15.8399   25.5290 C   0  0  0  0  0  0  0  0  0  0  0  0
    9.3607  -17.0955   25.5935 O   0  0  0  0  0  0  0  0  0  0  0  0
    9.7008  -14.7736   29.6548 C   0  0  0  0  0  0  0  0  0  0  0  0
   10.9501  -14.9311   28.8207 C   0  0  2  0  0  0  0  0  0  0  0  0
   11.3834  -13.5762   28.2841 C   0  0  0  0  0  0  0  0  0  0  0  0
   10.7136  -15.8276   27.6217 C   0  0  2  0  0  0  0  0  0  0  0  0
   10.0421  -15.1367   26.5513 N   0  0  0  0  0  0  0  0  0  0  0  0
    9.9333  -16.9981   28.1032 C   0  0  0  0  0  0  0  0  0  0  0  0
    8.7202  -17.1185   27.7691 O   0  0  0  0  0  0  0  0  0  0  0  0
   10.4623  -17.9785   28.9066 O   0  0  0  0  0  0  0  0  0  0  0  0
  1  2  1  0
  3  4  1  6
  3  5  1  0
  3  2  1  0
  5  6  2  0
  7  8  1  0
  8  9  1  0
  9 10  1  0
 11 10  1  1
 11 13  1  0
 12  5  1  0
 12 11  1  0
 13 19  1  0
 13 14  2  0
 16 18  1  0
 16 15  1  6
 17 16  1  0
 18 20  1  0
 18 19  1  6
 20 22  1  0
 21 20  2  0
M  END
$$$$
