SMV.pdb
     RDKit          3D

 22 21  0  0  1  0  0  0  0  0999 V2000
    9.1244  -18.4800   21.1130 O   0  0  0  0  0  0  0  0  0  0  0  0
    8.0985  -17.7037   20.5910 C   0  0  0  0  0  0  0  0  0  0  0  0
    8.5297  -16.2509   20.5652 C   0  0  2  0  0  0  0  0  0  0  0  0
    9.6312  -16.1284   19.6573 N   0  0  0  0  0  0  0  0  0  0  0  0
    8.8975  -15.7492   21.8933 C   0  0  0  0  0  0  0  0  0  0  0  0
   10.0866  -15.6360   22.2863 O   0  0  0  0  0  0  0  0  0  0  0  0
    7.1492  -11.4704   27.8448 C   0  0  0  0  0  0  0  0  0  0  0  0
    6.9426  -12.1383   26.1941 S   0  0  0  0  0  0  0  0  0  0  0  0
    7.0346  -13.9536   26.1742 C   0  0  0  0  0  0  0  0  0  0  0  0
    6.8584  -14.4298   24.7726 C   0  0  0  0  0  0  0  0  0  0  0  0
    8.1612  -14.8912   24.1534 C   0  0  2  0  0  0  0  0  0  0  0  0
    7.8892  -15.3544   22.8293 N   0  0  0  0  0  0  0  0  0  0  0  0
    8.8297  -15.8818   25.0032 C   0  0  0  0  0  0  0  0  0  0  0  0
    8.3180  -17.0227   25.1347 O   0  0  0  0  0  0  0  0  0  0  0  0
   12.6368  -15.1752   27.0188 C   0  0  0  0  0  0  0  0  0  0  0  0
   12.2144  -16.5001   26.4294 C   0  0  2  0  0  0  0  0  0  0  0  0
   12.6539  -16.5789   24.9760 C   0  0  0  0  0  0  0  0  0  0  0  0
   10.7079  -16.6657   26.4463 C   0  0  2  0  0  0  0  0  0  0  0  0
   10.0396  -15.6314   25.6997 N   0  0  0  0  0  0  0  0  0  0  0  0
   10.2896  -16.6797   27.8731 C   0  0  0  0  0  0  0  0  0  0  0  0
    9.5230  -15.7731   28.3067 O   0  0  0  0  0  0  0  0  0  0  0  0
   10.6945  -17.6392   28.7686 O   0  0  0  0  0  0  0  0  0  0  0  0
  1  2  1  0
  3  4  1  6
  3  5  1  0
  3  2  1  0
  5  6  2  0
  7  8  1  0
  8  9  1  0
  9 10  1  0
 11 10  1  1
 11 13  1  0
 12  5  1  0
 12 11  1  0
 13 19  1  0
 13 14  2  0
 16 18  1  0
 16 15  1  6
 17 16  1  0
 18 20  1  0
 18 19  1  6
 20 22  1  0
 21 20  2  0
M  END
$$$$
