SMV.pdb
     RDKit          3D

 22 21  0  0  1  0  0  0  0  0999 V2000
    7.0220  -17.8855   19.7037 O   0  0  0  0  0  0  0  0  0  0  0  0
    7.9502  -17.5585   20.6831 C   0  0  0  0  0  0  0  0  0  0  0  0
    8.1477  -16.0560   20.7079 C   0  0  2  0  0  0  0  0  0  0  0  0
    8.9734  -15.6961   19.5938 N   0  0  0  0  0  0  0  0  0  0  0  0
    8.7425  -15.5870   21.9637 C   0  0  0  0  0  0  0  0  0  0  0  0
    9.9828  -15.5124   22.1574 O   0  0  0  0  0  0  0  0  0  0  0  0
    6.6656  -10.8279   26.4003 C   0  0  0  0  0  0  0  0  0  0  0  0
    6.5130  -12.4664   27.1113 S   0  0  0  0  0  0  0  0  0  0  0  0
    7.7422  -13.6225   26.4354 C   0  0  0  0  0  0  0  0  0  0  0  0
    7.3622  -13.9658   25.0354 C   0  0  0  0  0  0  0  0  0  0  0  0
    8.4081  -14.8183   24.3477 C   0  0  2  0  0  0  0  0  0  0  0  0
    7.9132  -15.1815   23.0574 N   0  0  0  0  0  0  0  0  0  0  0  0
    8.7896  -15.9631   25.1810 C   0  0  0  0  0  0  0  0  0  0  0  0
    7.9108  -16.7967   25.5178 O   0  0  0  0  0  0  0  0  0  0  0  0
   12.8882  -16.7950   26.4270 C   0  0  0  0  0  0  0  0  0  0  0  0
   11.8634  -17.8519   26.0898 C   0  0  2  0  0  0  0  0  0  0  0  0
   11.9238  -18.1702   24.6044 C   0  0  0  0  0  0  0  0  0  0  0  0
   10.4538  -17.3794   26.3848 C   0  0  2  0  0  0  0  0  0  0  0  0
   10.1112  -16.1952   25.6403 N   0  0  0  0  0  0  0  0  0  0  0  0
   10.3697  -17.1567   27.8526 C   0  0  0  0  0  0  0  0  0  0  0  0
   10.1619  -15.9911   28.2951 O   0  0  0  0  0  0  0  0  0  0  0  0
   10.5072  -18.1629   28.7773 O   0  0  0  0  0  0  0  0  0  0  0  0
  1  2  1  0
  3  4  1  6
  3  5  1  0
  3  2  1  0
  5  6  2  0
  7  8  1  0
  8  9  1  0
  9 10  1  0
 11 10  1  1
 11 13  1  0
 12  5  1  0
 12 11  1  0
 13 19  1  0
 13 14  2  0
 16 18  1  0
 16 15  1  6
 17 16  1  0
 18 20  1  0
 18 19  1  6
 20 22  1  0
 21 20  2  0
M  END
$$$$
