SMV.pdb
     RDKit          3D

 22 21  0  0  1  0  0  0  0  0999 V2000
    7.5345  -15.6474   19.2154 O   0  0  0  0  0  0  0  0  0  0  0  0
    6.5500  -14.6865   19.4021 C   0  0  0  0  0  0  0  0  0  0  0  0
    7.1864  -13.4037   19.8987 C   0  0  2  0  0  0  0  0  0  0  0  0
    7.9830  -12.8613   18.8385 N   0  0  0  0  0  0  0  0  0  0  0  0
    7.9993  -13.6077   21.1022 C   0  0  0  0  0  0  0  0  0  0  0  0
    9.2394  -13.8144   21.0738 O   0  0  0  0  0  0  0  0  0  0  0  0
    5.4010  -12.1203   27.0072 C   0  0  0  0  0  0  0  0  0  0  0  0
    7.1778  -12.0428   27.2319 S   0  0  0  0  0  0  0  0  0  0  0  0
    8.0648  -13.0826   26.0334 C   0  0  0  0  0  0  0  0  0  0  0  0
    7.3809  -12.9859   24.7123 C   0  0  0  0  0  0  0  0  0  0  0  0
    8.1249  -13.7301   23.6232 C   0  0  2  0  0  0  0  0  0  0  0  0
    7.3994  -13.5801   22.4014 N   0  0  0  0  0  0  0  0  0  0  0  0
    8.3640  -15.1258   24.0040 C   0  0  0  0  0  0  0  0  0  0  0  0
    7.3976  -15.9298   24.0268 O   0  0  0  0  0  0  0  0  0  0  0  0
   12.2319  -16.9545   24.1004 C   0  0  0  0  0  0  0  0  0  0  0  0
   10.9210  -17.6953   23.9815 C   0  0  2  0  0  0  0  0  0  0  0  0
   10.4824  -17.7323   22.5263 C   0  0  0  0  0  0  0  0  0  0  0  0
    9.8168  -17.0081   24.7599 C   0  0  2  0  0  0  0  0  0  0  0  0
    9.6393  -15.6375   24.3551 N   0  0  0  0  0  0  0  0  0  0  0  0
   10.1672  -17.1211   26.2005 C   0  0  0  0  0  0  0  0  0  0  0  0
   10.2771  -18.2648   26.7272 O   0  0  0  0  0  0  0  0  0  0  0  0
   10.3838  -16.0342   27.0117 O   0  0  0  0  0  0  0  0  0  0  0  0
  1  2  1  0
  3  4  1  6
  3  5  1  0
  3  2  1  0
  5  6  2  0
  7  8  1  0
  8  9  1  0
  9 10  1  0
 11 10  1  1
 11 13  1  0
 12  5  1  0
 12 11  1  0
 13 19  1  0
 13 14  2  0
 16 18  1  0
 16 15  1  6
 17 16  1  0
 18 20  1  0
 18 19  1  6
 20 22  1  0
 21 20  2  0
M  END
$$$$
