KTL.pdb
     RDKit          3D

 25 24  0  0  1  0  0  0  0  0999 V2000
    9.9528  -16.4072   18.4806 N   0  0  0  0  0  0  0  0  0  0  0  0
    9.4559  -15.2249   19.0932 C   0  0  1  0  0  0  0  0  0  0  0  0
    8.7134  -14.2740   18.2093 C   0  0  0  0  0  0  0  0  0  0  0  0
    8.7755  -14.6466   16.7742 C   0  0  0  0  0  0  0  0  0  0  0  0
    8.1334  -13.6535   15.8746 C   0  0  0  0  0  0  0  0  0  0  0  0
    8.2352  -14.2391   14.4552 C   0  0  0  0  0  0  0  0  0  0  0  0
    7.5416  -13.3470   13.5715 N   0  0  0  0  0  0  0  0  0  0  0  0
    8.4795  -15.6370   20.1646 C   0  0  0  0  0  0  0  0  0  0  0  0
    7.4462  -16.2646   19.8392 O   0  0  0  0  0  0  0  0  0  0  0  0
    7.4130  -17.8982   21.2459 C   0  0  0  0  0  0  0  0  0  0  0  0
    8.1564  -17.4203   22.4787 C   0  0  1  0  0  0  0  0  0  0  0  0
    9.4993  -17.7168   22.2940 O   0  0  0  0  0  0  0  0  0  0  0  0
    8.0180  -15.9034   22.5667 C   0  0  2  0  0  0  0  0  0  0  0  0
    8.7979  -15.2825   21.4962 N   0  0  0  0  0  0  0  0  0  0  0  0
    8.6098  -15.4716   23.8715 C   0  0  0  0  0  0  0  0  0  0  0  0
    9.8629  -15.2507   23.9729 O   0  0  0  0  0  0  0  0  0  0  0  0
    5.7767  -11.9443   26.9321 C   0  0  0  0  0  0  0  0  0  0  0  0
    6.9026  -12.5931   26.0510 C   0  0  1  0  0  0  0  0  0  0  0  0
    7.8660  -11.4791   25.8208 C   0  0  0  0  0  0  0  0  0  0  0  0
    7.3710  -13.7831   26.7769 C   0  0  0  0  0  0  0  0  0  0  0  0
    8.4434  -14.6470   26.2525 C   0  0  2  0  0  0  0  0  0  0  0  0
    7.8356  -15.2861   25.0411 N   0  0  0  0  0  0  0  0  0  0  0  0
    8.8988  -15.7026   27.1581 C   0  0  0  0  0  0  0  0  0  0  0  0
    8.4917  -16.8595   27.0794 O   0  0  0  0  0  0  0  0  0  0  0  0
    9.8373  -15.4189   28.1689 O   0  0  0  0  0  0  0  0  0  0  0  0
  2  1  1  6
  2  3  1  0
  3  4  1  0
  5  6  1  0
  5  4  1  0
  6  7  1  0
  8  2  1  0
  9  8  2  0
 11 10  1  6
 11 12  1  0
 11 13  1  0
 13 14  1  6
 14  8  1  0
 15 13  1  0
 15 22  1  0
 16 15  2  0
 18 17  1  1
 18 20  1  0
 19 18  1  0
 21 20  1  1
 21 22  1  0
 21 23  1  0
 23 25  1  0
 24 23  2  0
M  END
$$$$
