KTL.pdb
     RDKit          3D

 25 24  0  0  1  0  0  0  0  0999 V2000
    7.2070  -16.4061   19.1585 N   0  0  0  0  0  0  0  0  0  0  0  0
    7.9622  -15.6157   20.0667 C   0  0  1  0  0  0  0  0  0  0  0  0
    7.4826  -14.2179   20.2969 C   0  0  0  0  0  0  0  0  0  0  0  0
    7.7975  -13.3035   19.1713 C   0  0  0  0  0  0  0  0  0  0  0  0
    8.3275  -14.0003   17.9706 C   0  0  0  0  0  0  0  0  0  0  0  0
    8.5512  -12.9076   16.9105 C   0  0  0  0  0  0  0  0  0  0  0  0
    8.9811  -13.5585   15.7066 N   0  0  0  0  0  0  0  0  0  0  0  0
    7.9175  -16.2918   21.4127 C   0  0  0  0  0  0  0  0  0  0  0  0
    7.1778  -17.2897   21.5695 O   0  0  0  0  0  0  0  0  0  0  0  0
    8.7371  -18.5493   22.2180 C   0  0  0  0  0  0  0  0  0  0  0  0
    9.5823  -17.8697   23.2784 C   0  0  1  0  0  0  0  0  0  0  0  0
   10.8157  -17.5883   22.7083 O   0  0  0  0  0  0  0  0  0  0  0  0
    8.9210  -16.5445   23.6450 C   0  0  2  0  0  0  0  0  0  0  0  0
    8.7299  -15.7466   22.4340 N   0  0  0  0  0  0  0  0  0  0  0  0
    9.8650  -15.8010   24.5369 C   0  0  0  0  0  0  0  0  0  0  0  0
   10.5694  -14.8407   24.0775 O   0  0  0  0  0  0  0  0  0  0  0  0
    8.7652  -12.1994   27.4406 C   0  0  0  0  0  0  0  0  0  0  0  0
    7.9131  -13.5076   27.6063 C   0  0  1  0  0  0  0  0  0  0  0  0
    6.5170  -13.0653   27.3276 C   0  0  0  0  0  0  0  0  0  0  0  0
    8.5158  -14.5166   26.7225 C   0  0  0  0  0  0  0  0  0  0  0  0
    9.8766  -15.0370   26.9437 C   0  0  2  0  0  0  0  0  0  0  0  0
   10.0285  -16.1092   25.9080 N   0  0  0  0  0  0  0  0  0  0  0  0
   10.1177  -15.6244   28.2623 C   0  0  0  0  0  0  0  0  0  0  0  0
    9.5670  -16.6584   28.6339 O   0  0  0  0  0  0  0  0  0  0  0  0
   11.0069  -15.0098   29.1647 O   0  0  0  0  0  0  0  0  0  0  0  0
  2  1  1  6
  2  3  1  0
  3  4  1  0
  5  6  1  0
  5  4  1  0
  6  7  1  0
  8  2  1  0
  9  8  2  0
 11 10  1  6
 11 12  1  0
 11 13  1  0
 13 14  1  6
 14  8  1  0
 15 13  1  0
 15 22  1  0
 16 15  2  0
 18 17  1  6
 18 20  1  0
 19 18  1  0
 21 20  1  1
 21 22  1  0
 21 23  1  0
 23 25  1  0
 24 23  2  0
M  END
$$$$
