KTL.pdb
     RDKit          3D

 25 24  0  0  1  0  0  0  0  0999 V2000
   12.3052  -17.0892   19.6648 N   0  0  0  0  0  0  0  0  0  0  0  0
   11.6073  -17.4886   20.8367 C   0  0  1  0  0  0  0  0  0  0  0  0
   12.4433  -17.9094   22.0033 C   0  0  0  0  0  0  0  0  0  0  0  0
   12.9289  -19.3075   21.8950 C   0  0  0  0  0  0  0  0  0  0  0  0
   13.7179  -19.7548   23.0720 C   0  0  0  0  0  0  0  0  0  0  0  0
   14.1018  -21.2187   22.7935 C   0  0  0  0  0  0  0  0  0  0  0  0
   14.8038  -21.7057   23.9458 N   0  0  0  0  0  0  0  0  0  0  0  0
   10.7987  -16.3104   21.3150 C   0  0  0  0  0  0  0  0  0  0  0  0
   11.2621  -15.1557   21.1753 O   0  0  0  0  0  0  0  0  0  0  0  0
    7.5713  -15.1167   20.2455 C   0  0  0  0  0  0  0  0  0  0  0  0
    7.3865  -15.4649   21.7102 C   0  0  1  0  0  0  0  0  0  0  0  0
    6.8921  -16.7601   21.7694 O   0  0  0  0  0  0  0  0  0  0  0  0
    8.7552  -15.4532   22.3843 C   0  0  2  0  0  0  0  0  0  0  0  0
    9.5426  -16.5880   21.9028 N   0  0  0  0  0  0  0  0  0  0  0  0
    8.5361  -15.6405   23.8527 C   0  0  0  0  0  0  0  0  0  0  0  0
    9.1238  -16.5840   24.4802 O   0  0  0  0  0  0  0  0  0  0  0  0
    6.0447  -11.6086   26.7711 C   0  0  0  0  0  0  0  0  0  0  0  0
    7.2090  -12.5982   26.4108 C   0  0  1  0  0  0  0  0  0  0  0  0
    8.3208  -12.1907   27.3163 C   0  0  0  0  0  0  0  0  0  0  0  0
    6.6621  -13.9568   26.5435 C   0  0  0  0  0  0  0  0  0  0  0  0
    7.3809  -15.1414   26.0421 C   0  0  2  0  0  0  0  0  0  0  0  0
    7.6869  -14.8037   24.6146 N   0  0  0  0  0  0  0  0  0  0  0  0
    6.6252  -16.3943   26.0734 C   0  0  0  0  0  0  0  0  0  0  0  0
    5.9213  -16.7631   25.1359 O   0  0  0  0  0  0  0  0  0  0  0  0
    6.6828  -17.2335   27.2027 O   0  0  0  0  0  0  0  0  0  0  0  0
  2  1  1  6
  2  3  1  0
  3  4  1  0
  5  6  1  0
  5  4  1  0
  6  7  1  0
  8  2  1  0
  9  8  2  0
 11 10  1  6
 11 12  1  0
 11 13  1  0
 13 14  1  6
 14  8  1  0
 15 13  1  0
 15 22  1  0
 16 15  2  0
 18 17  1  1
 18 20  1  0
 19 18  1  0
 21 20  1  6
 21 22  1  0
 21 23  1  0
 23 25  1  0
 24 23  2  0
M  END
$$$$
