KTL.pdb
     RDKit          3D

 25 24  0  0  1  0  0  0  0  0999 V2000
    9.6628  -19.0203   18.6502 N   0  0  0  0  0  0  0  0  0  0  0  0
   10.3415  -18.3738   19.7185 C   0  0  1  0  0  0  0  0  0  0  0  0
   11.6851  -17.7960   19.4062 C   0  0  0  0  0  0  0  0  0  0  0  0
   12.7898  -18.4700   20.1323 C   0  0  0  0  0  0  0  0  0  0  0  0
   14.1312  -17.9089   19.8261 C   0  0  0  0  0  0  0  0  0  0  0  0
   15.1440  -18.8095   20.5548 C   0  0  0  0  0  0  0  0  0  0  0  0
   16.4460  -18.2415   20.3547 N   0  0  0  0  0  0  0  0  0  0  0  0
    9.4910  -17.2145   20.1698 C   0  0  0  0  0  0  0  0  0  0  0  0
    8.8968  -16.5237   19.3112 O   0  0  0  0  0  0  0  0  0  0  0  0
    6.9542  -16.3492   20.0888 C   0  0  0  0  0  0  0  0  0  0  0  0
    7.0398  -16.4258   21.6012 C   0  0  1  0  0  0  0  0  0  0  0  0
    6.8791  -17.7569   21.9589 O   0  0  0  0  0  0  0  0  0  0  0  0
    8.4389  -15.9907   22.0270 C   0  0  2  0  0  0  0  0  0  0  0  0
    9.4155  -16.9752   21.5617 N   0  0  0  0  0  0  0  0  0  0  0  0
    8.4737  -15.9856   23.5230 C   0  0  0  0  0  0  0  0  0  0  0  0
    9.1997  -16.8225   24.1569 O   0  0  0  0  0  0  0  0  0  0  0  0
    5.9845  -11.7761   26.3566 C   0  0  0  0  0  0  0  0  0  0  0  0
    7.2506  -12.6125   25.9537 C   0  0  1  0  0  0  0  0  0  0  0  0
    8.3627  -11.9684   26.7092 C   0  0  0  0  0  0  0  0  0  0  0  0
    6.9338  -14.0194   26.2410 C   0  0  0  0  0  0  0  0  0  0  0  0
    7.8054  -15.1229   25.8003 C   0  0  2  0  0  0  0  0  0  0  0  0
    7.7240  -15.0753   24.3048 N   0  0  0  0  0  0  0  0  0  0  0  0
    7.4036  -16.4573   26.2472 C   0  0  0  0  0  0  0  0  0  0  0  0
    6.5338  -17.1100   25.6747 O   0  0  0  0  0  0  0  0  0  0  0  0
    8.0144  -17.0468   27.3707 O   0  0  0  0  0  0  0  0  0  0  0  0
  2  1  1  6
  2  3  1  0
  3  4  1  0
  5  6  1  0
  5  4  1  0
  6  7  1  0
  8  2  1  0
  9  8  2  0
 11 10  1  6
 11 12  1  0
 11 13  1  0
 13 14  1  6
 14  8  1  0
 15 13  1  0
 15 22  1  0
 16 15  2  0
 18 17  1  1
 18 20  1  0
 19 18  1  0
 21 20  1  1
 21 22  1  0
 21 23  1  0
 23 25  1  0
 24 23  2  0
M  END
$$$$
