KTL.pdb
     RDKit          3D

 25 24  0  0  1  0  0  0  0  0999 V2000
    5.9920  -19.9301   21.0487 N   0  0  0  0  0  0  0  0  0  0  0  0
    5.8339  -18.9289   22.0450 C   0  0  1  0  0  0  0  0  0  0  0  0
    5.2180  -19.3616   23.3374 C   0  0  0  0  0  0  0  0  0  0  0  0
    5.3602  -20.8171   23.5895 C   0  0  0  0  0  0  0  0  0  0  0  0
    6.3005  -21.1393   24.6940 C   0  0  0  0  0  0  0  0  0  0  0  0
    6.1688  -22.6534   24.9349 C   0  0  0  0  0  0  0  0  0  0  0  0
    7.0471  -22.9946   26.0165 N   0  0  0  0  0  0  0  0  0  0  0  0
    7.2040  -18.4093   22.3969 C   0  0  0  0  0  0  0  0  0  0  0  0
    8.1339  -19.2247   22.5918 O   0  0  0  0  0  0  0  0  0  0  0  0
    9.3108  -16.6515   20.3006 C   0  0  0  0  0  0  0  0  0  0  0  0
    9.1308  -15.6868   21.4572 C   0  0  1  0  0  0  0  0  0  0  0  0
    8.0909  -14.8304   21.1250 O   0  0  0  0  0  0  0  0  0  0  0  0
    8.7081  -16.4839   22.6876 C   0  0  2  0  0  0  0  0  0  0  0  0
    7.3566  -17.0061   22.4863 N   0  0  0  0  0  0  0  0  0  0  0  0
    8.6633  -15.5364   23.8451 C   0  0  0  0  0  0  0  0  0  0  0  0
    8.3016  -14.3240   23.6760 O   0  0  0  0  0  0  0  0  0  0  0  0
    5.8497  -12.7699   26.1398 C   0  0  0  0  0  0  0  0  0  0  0  0
    7.2437  -13.1979   25.5579 C   0  0  1  0  0  0  0  0  0  0  0  0
    8.0682  -11.9596   25.6515 C   0  0  0  0  0  0  0  0  0  0  0  0
    7.6714  -14.3812   26.3190 C   0  0  0  0  0  0  0  0  0  0  0  0
    9.0513  -14.8944   26.2563 C   0  0  2  0  0  0  0  0  0  0  0  0
    9.0092  -15.9181   25.1628 N   0  0  0  0  0  0  0  0  0  0  0  0
    9.5387  -15.5363   27.4778 C   0  0  0  0  0  0  0  0  0  0  0  0
    9.7927  -14.9021   28.4994 O   0  0  0  0  0  0  0  0  0  0  0  0
    9.7357  -16.9299   27.5209 O   0  0  0  0  0  0  0  0  0  0  0  0
  2  1  1  6
  2  3  1  0
  3  4  1  0
  5  6  1  0
  5  4  1  0
  6  7  1  0
  8  2  1  0
  9  8  2  0
 11 10  1  6
 11 12  1  0
 11 13  1  0
 13 14  1  6
 14  8  1  0
 15 13  1  0
 15 22  1  0
 16 15  2  0
 18 17  1  1
 18 20  1  0
 19 18  1  0
 21 20  1  1
 21 22  1  0
 21 23  1  0
 23 25  1  0
 24 23  2  0
M  END
$$$$
