NKK.pdb
     RDKit          3D

 27 26  0  0  1  0  0  0  0  0999 V2000
   19.4399  -11.4512  -16.9272 N   0  0  0  0  0  0  0  0  0  0  0  0
   18.0734  -11.6691  -17.2149 C   0  0  0  0  0  0  0  0  0  0  0  0
   17.7325  -12.1762  -18.3113 O   0  0  0  0  0  0  0  0  0  0  0  0
   17.0553  -11.2908  -16.2052 C   0  0  0  0  0  0  0  0  0  0  0  0
   17.7482  -10.7308  -15.0057 C   0  0  2  0  0  0  0  0  0  0  0  0
   18.5126  -11.7090  -14.2920 N   0  0  0  0  0  0  0  0  0  0  0  0
   16.8213  -10.0118  -14.0961 C   0  0  0  0  0  0  0  0  0  0  0  0
   16.0793   -9.0797  -14.5113 O   0  0  0  0  0  0  0  0  0  0  0  0
   16.7393  -10.3516  -12.7206 N   0  0  0  0  0  0  0  0  0  0  0  0
   15.7397   -9.7067  -11.9063 C   0  0  1  0  0  0  0  0  0  0  0  0
   15.2199  -10.6284  -10.8170 C   0  0  0  0  0  0  0  0  0  0  0  0
   14.2663  -11.6513  -11.4148 C   0  0  0  0  0  0  0  0  0  0  0  0
   13.7806  -12.5228  -10.2613 C   0  0  0  0  0  0  0  0  0  0  0  0
   12.8489  -13.5958  -10.7733 C   0  0  0  0  0  0  0  0  0  0  0  0
   12.3239  -14.3200   -9.6303 N   0  0  0  0  0  0  0  0  0  0  0  0
   16.3321   -8.5367  -11.2194 C   0  0  0  0  0  0  0  0  0  0  0  0
   17.5439   -8.4623  -10.8951 O   0  0  0  0  0  0  0  0  0  0  0  0
   15.5159   -7.4336  -10.9007 N   0  0  0  0  0  0  0  0  0  0  0  0
   16.0286   -6.2108  -10.2991 C   0  0  1  0  0  0  0  0  0  0  0  0
   15.0100   -5.1497  -10.1845 C   0  0  0  0  0  0  0  0  0  0  0  0
   15.6117   -3.8965   -9.6152 C   0  0  0  0  0  0  0  0  0  0  0  0
   14.6097   -2.7870   -9.4250 C   0  0  0  0  0  0  0  0  0  0  0  0
   15.2473   -1.5143   -8.9296 C   0  0  0  0  0  0  0  0  0  0  0  0
   14.3623   -0.3990   -8.8638 N   0  0  0  0  0  0  0  0  0  0  0  0
   16.5275   -6.5923   -8.9590 C   0  0  0  0  0  0  0  0  0  0  0  0
   17.2211   -5.8111   -8.2443 O   0  0  0  0  0  0  0  0  0  0  0  0
   16.2537   -7.8596   -8.4012 O   0  0  0  0  0  0  0  0  0  0  0  0
  2  1  1  0
  3  2  2  0
  4  2  1  0
  5  4  1  0
  5  6  1  1
  7  5  1  0
  7  8  2  0
  9  7  1  0
 10  9  1  0
 10 11  1  1
 12 11  1  0
 12 13  1  0
 13 14  1  0
 14 15  1  0
 16 10  1  0
 17 16  2  0
 18 16  1  0
 19 25  1  0
 19 18  1  0
 19 20  1  1
 21 20  1  0
 22 21  1  0
 23 22  1  0
 23 24  1  0
 25 27  1  0
 26 25  2  0
M  END
$$$$
