NKK.pdb
     RDKit          3D

 27 26  0  0  1  0  0  0  0  0999 V2000
   16.0588  -12.6063  -15.9230 N   0  0  0  0  0  0  0  0  0  0  0  0
   17.2224  -12.9438  -15.1952 C   0  0  0  0  0  0  0  0  0  0  0  0
   17.7100  -14.0970  -15.2845 O   0  0  0  0  0  0  0  0  0  0  0  0
   17.8536  -11.9184  -14.3295 C   0  0  0  0  0  0  0  0  0  0  0  0
   17.0363  -10.6689  -14.3849 C   0  0  2  0  0  0  0  0  0  0  0  0
   17.0311  -10.0591  -15.6805 N   0  0  0  0  0  0  0  0  0  0  0  0
   17.4203   -9.6900  -13.3371 C   0  0  0  0  0  0  0  0  0  0  0  0
   17.4766  -10.0144  -12.1191 O   0  0  0  0  0  0  0  0  0  0  0  0
   17.7382   -8.3483  -13.6735 N   0  0  0  0  0  0  0  0  0  0  0  0
   18.0840   -7.4324  -12.6154 C   0  0  1  0  0  0  0  0  0  0  0  0
   18.7568   -6.1807  -13.1512 C   0  0  0  0  0  0  0  0  0  0  0  0
   20.0413   -6.5524  -13.8758 C   0  0  0  0  0  0  0  0  0  0  0  0
   20.7056   -5.2428  -14.2876 C   0  0  0  0  0  0  0  0  0  0  0  0
   22.0522   -5.5147  -14.9155 C   0  0  0  0  0  0  0  0  0  0  0  0
   22.8639   -6.2313  -13.9491 N   0  0  0  0  0  0  0  0  0  0  0  0
   16.8564   -6.9846  -11.9198 C   0  0  0  0  0  0  0  0  0  0  0  0
   15.8504   -6.5233  -12.5149 O   0  0  0  0  0  0  0  0  0  0  0  0
   16.7855   -7.0693  -10.5153 N   0  0  0  0  0  0  0  0  0  0  0  0
   15.5999   -6.7025   -9.7540 C   0  0  1  0  0  0  0  0  0  0  0  0
   14.9339   -7.8589   -9.1249 C   0  0  0  0  0  0  0  0  0  0  0  0
   13.6962   -7.4243   -8.3930 C   0  0  0  0  0  0  0  0  0  0  0  0
   12.9495   -8.5666   -7.7536 C   0  0  0  0  0  0  0  0  0  0  0  0
   11.6994   -8.1120   -7.0447 C   0  0  0  0  0  0  0  0  0  0  0  0
   10.9189   -9.1684   -6.4912 N   0  0  0  0  0  0  0  0  0  0  0  0
   16.0569   -5.7468   -8.7205 C   0  0  0  0  0  0  0  0  0  0  0  0
   17.2256   -5.7780   -8.2353 O   0  0  0  0  0  0  0  0  0  0  0  0
   15.2059   -4.7402   -8.2161 O   0  0  0  0  0  0  0  0  0  0  0  0
  2  1  1  0
  3  2  2  0
  4  2  1  0
  5  4  1  0
  5  6  1  6
  7  5  1  0
  7  8  2  0
  9  7  1  0
 10  9  1  0
 10 11  1  6
 12 11  1  0
 12 13  1  0
 13 14  1  0
 14 15  1  0
 16 10  1  0
 17 16  2  0
 18 16  1  0
 19 25  1  0
 19 18  1  0
 19 20  1  1
 21 20  1  0
 22 21  1  0
 23 22  1  0
 23 24  1  0
 25 27  1  0
 26 25  2  0
M  END
$$$$
