NKK.pdb
     RDKit          3D

 27 26  0  0  1  0  0  0  0  0999 V2000
   27.6677  -21.2201  -15.5589 N   0  0  0  0  0  0  0  0  0  0  0  0
   27.3327  -19.8767  -15.8433 C   0  0  0  0  0  0  0  0  0  0  0  0
   28.1788  -19.1134  -16.3696 O   0  0  0  0  0  0  0  0  0  0  0  0
   25.9727  -19.3875  -15.5113 C   0  0  0  0  0  0  0  0  0  0  0  0
   25.2484  -20.4502  -14.7509 C   0  0  2  0  0  0  0  0  0  0  0  0
   25.2725  -21.7236  -15.4055 N   0  0  0  0  0  0  0  0  0  0  0  0
   23.8601  -20.0563  -14.4031 C   0  0  0  0  0  0  0  0  0  0  0  0
   23.6153  -19.0006  -13.7572 O   0  0  0  0  0  0  0  0  0  0  0  0
   22.7556  -20.8601  -14.7882 N   0  0  0  0  0  0  0  0  0  0  0  0
   21.4248  -20.4076  -14.4682 C   0  0  1  0  0  0  0  0  0  0  0  0
   20.6214  -20.0922  -15.7178 C   0  0  0  0  0  0  0  0  0  0  0  0
   19.4198  -19.2321  -15.3581 C   0  0  0  0  0  0  0  0  0  0  0  0
   19.9499  -17.8251  -15.1028 C   0  0  0  0  0  0  0  0  0  0  0  0
   18.8235  -16.9102  -14.6836 C   0  0  0  0  0  0  0  0  0  0  0  0
   19.3846  -15.5995  -14.4119 N   0  0  0  0  0  0  0  0  0  0  0  0
   20.6903  -21.4770  -13.7552 C   0  0  0  0  0  0  0  0  0  0  0  0
   20.4862  -22.6193  -14.2374 O   0  0  0  0  0  0  0  0  0  0  0  0
   20.1823  -21.2274  -12.4651 N   0  0  0  0  0  0  0  0  0  0  0  0
   19.3287  -22.1652  -11.7499 C   0  0  1  0  0  0  0  0  0  0  0  0
   18.8054  -21.6222  -10.4818 C   0  0  0  0  0  0  0  0  0  0  0  0
   17.8776  -22.6054   -9.8269 C   0  0  0  0  0  0  0  0  0  0  0  0
   18.5299  -23.3962   -8.7223 C   0  0  0  0  0  0  0  0  0  0  0  0
   17.5634  -24.3223   -8.0293 C   0  0  0  0  0  0  0  0  0  0  0  0
   18.1106  -25.0140   -6.9095 N   0  0  0  0  0  0  0  0  0  0  0  0
   18.2153  -22.4884  -12.6698 C   0  0  0  0  0  0  0  0  0  0  0  0
   17.8359  -23.6763  -12.8866 O   0  0  0  0  0  0  0  0  0  0  0  0
   17.5106  -21.4794  -13.3609 O   0  0  0  0  0  0  0  0  0  0  0  0
  2  1  1  0
  3  2  2  0
  4  2  1  0
  5  4  1  0
  5  6  1  6
  7  5  1  0
  7  8  2  0
  9  7  1  0
 10  9  1  0
 10 11  1  6
 12 11  1  0
 12 13  1  0
 13 14  1  0
 14 15  1  0
 16 10  1  0
 17 16  2  0
 18 16  1  0
 19 25  1  0
 19 18  1  0
 19 20  1  1
 21 20  1  0
 22 21  1  0
 23 22  1  0
 23 24  1  0
 25 27  1  0
 26 25  2  0
M  END
$$$$
