NKK.pdb
     RDKit          3D

 27 26  0  0  1  0  0  0  0  0999 V2000
   28.0806  -13.0720  -17.7895 N   0  0  0  0  0  0  0  0  0  0  0  0
   26.7030  -12.9135  -18.0625 C   0  0  0  0  0  0  0  0  0  0  0  0
   26.2029  -11.7647  -18.1383 O   0  0  0  0  0  0  0  0  0  0  0  0
   25.8634  -14.1204  -18.2566 C   0  0  0  0  0  0  0  0  0  0  0  0
   24.8504  -14.1866  -17.1603 C   0  0  2  0  0  0  0  0  0  0  0  0
   25.4386  -14.2500  -15.8563 N   0  0  0  0  0  0  0  0  0  0  0  0
   23.8697  -15.2836  -17.3561 C   0  0  0  0  0  0  0  0  0  0  0  0
   22.7574  -15.0827  -17.9168 O   0  0  0  0  0  0  0  0  0  0  0  0
   24.1530  -16.6027  -16.9157 N   0  0  0  0  0  0  0  0  0  0  0  0
   23.1832  -17.6396  -17.1658 C   0  0  1  0  0  0  0  0  0  0  0  0
   23.8468  -18.9525  -17.5428 C   0  0  0  0  0  0  0  0  0  0  0  0
   24.9167  -19.3049  -16.5208 C   0  0  0  0  0  0  0  0  0  0  0  0
   25.6072  -20.5666  -17.0280 C   0  0  0  0  0  0  0  0  0  0  0  0
   26.7107  -20.9751  -16.0810 C   0  0  0  0  0  0  0  0  0  0  0  0
   27.3867  -22.1280  -16.6468 N   0  0  0  0  0  0  0  0  0  0  0  0
   22.4020  -17.9016  -15.9359 C   0  0  0  0  0  0  0  0  0  0  0  0
   22.8622  -17.7521  -14.7762 O   0  0  0  0  0  0  0  0  0  0  0  0
   21.0684  -18.3429  -16.0427 N   0  0  0  0  0  0  0  0  0  0  0  0
   20.1921  -18.5161  -14.8930 C   0  0  1  0  0  0  0  0  0  0  0  0
   18.9165  -17.7859  -15.0208 C   0  0  0  0  0  0  0  0  0  0  0  0
   18.0220  -18.0723  -13.8485 C   0  0  0  0  0  0  0  0  0  0  0  0
   16.7225  -17.3102  -13.8899 C   0  0  0  0  0  0  0  0  0  0  0  0
   15.8477  -17.5988  -12.6969 C   0  0  0  0  0  0  0  0  0  0  0  0
   14.6454  -16.8348  -12.6496 N   0  0  0  0  0  0  0  0  0  0  0  0
   19.9437  -19.9709  -14.7836 C   0  0  0  0  0  0  0  0  0  0  0  0
   19.9544  -20.7397  -15.7891 O   0  0  0  0  0  0  0  0  0  0  0  0
   19.6789  -20.5845  -13.5404 O   0  0  0  0  0  0  0  0  0  0  0  0
  2  1  1  0
  3  2  2  0
  4  2  1  0
  5  4  1  0
  5  6  1  1
  7  5  1  0
  7  8  2  0
  9  7  1  0
 10  9  1  0
 10 11  1  1
 12 11  1  0
 12 13  1  0
 13 14  1  0
 14 15  1  0
 16 10  1  0
 17 16  2  0
 18 16  1  0
 19 25  1  0
 19 18  1  0
 19 20  1  6
 21 20  1  0
 22 21  1  0
 23 22  1  0
 23 24  1  0
 25 27  1  0
 26 25  2  0
M  END
$$$$
