NKK.pdb
     RDKit          3D

 27 26  0  0  1  0  0  0  0  0999 V2000
   20.9606  -14.5449  -21.1624 N   0  0  0  0  0  0  0  0  0  0  0  0
   19.8104  -13.8474  -20.7287 C   0  0  0  0  0  0  0  0  0  0  0  0
   18.7513  -13.8979  -21.4005 O   0  0  0  0  0  0  0  0  0  0  0  0
   19.8759  -13.0595  -19.4740 C   0  0  0  0  0  0  0  0  0  0  0  0
   21.2479  -13.1837  -18.8957 C   0  0  2  0  0  0  0  0  0  0  0  0
   21.4697  -14.4385  -18.2424 N   0  0  0  0  0  0  0  0  0  0  0  0
   21.5948  -12.0497  -18.0029 C   0  0  0  0  0  0  0  0  0  0  0  0
   21.2171  -12.0172  -16.7995 O   0  0  0  0  0  0  0  0  0  0  0  0
   22.3674  -10.9577  -18.4771 N   0  0  0  0  0  0  0  0  0  0  0  0
   22.7424   -9.9200  -17.5494 C   0  0  1  0  0  0  0  0  0  0  0  0
   23.9090   -9.0965  -18.0665 C   0  0  0  0  0  0  0  0  0  0  0  0
   25.1652   -9.9524  -18.1179 C   0  0  0  0  0  0  0  0  0  0  0  0
   26.2878   -9.0512  -18.6215 C   0  0  0  0  0  0  0  0  0  0  0  0
   27.5254   -9.8685  -18.9078 C   0  0  0  0  0  0  0  0  0  0  0  0
   28.5519   -8.9724  -19.4075 N   0  0  0  0  0  0  0  0  0  0  0  0
   21.6133   -8.9804  -17.3662 C   0  0  0  0  0  0  0  0  0  0  0  0
   20.9717   -8.4717  -18.3195 O   0  0  0  0  0  0  0  0  0  0  0  0
   21.2156   -8.6202  -16.0635 N   0  0  0  0  0  0  0  0  0  0  0  0
   20.1453   -7.6716  -15.7910 C   0  0  1  0  0  0  0  0  0  0  0  0
   18.9117   -8.3146  -15.2995 C   0  0  0  0  0  0  0  0  0  0  0  0
   17.8403   -7.2901  -15.0567 C   0  0  0  0  0  0  0  0  0  0  0  0
   16.5892   -7.8686  -14.4475 C   0  0  0  0  0  0  0  0  0  0  0  0
   15.5336   -6.8220  -14.1977 C   0  0  0  0  0  0  0  0  0  0  0  0
   14.3961   -7.2925  -13.4793 N   0  0  0  0  0  0  0  0  0  0  0  0
   20.6772   -6.7353  -14.7759 C   0  0  0  0  0  0  0  0  0  0  0  0
   21.6577   -7.0265  -14.0302 O   0  0  0  0  0  0  0  0  0  0  0  0
   20.1142   -5.4554  -14.5833 O   0  0  0  0  0  0  0  0  0  0  0  0
  2  1  1  0
  3  2  2  0
  4  2  1  0
  5  4  1  0
  5  6  1  1
  7  5  1  0
  7  8  2  0
  9  7  1  0
 10  9  1  0
 10 11  1  6
 12 11  1  0
 12 13  1  0
 13 14  1  0
 14 15  1  0
 16 10  1  0
 17 16  2  0
 18 16  1  0
 19 25  1  0
 19 18  1  0
 19 20  1  1
 21 20  1  0
 22 21  1  0
 23 22  1  0
 23 24  1  0
 25 27  1  0
 26 25  2  0
M  END
$$$$
