NKK.pdb
     RDKit          3D

 27 26  0  0  1  0  0  0  0  0999 V2000
   26.6350  -16.2508  -19.5412 N   0  0  0  0  0  0  0  0  0  0  0  0
   25.9614  -16.9900  -20.5400 C   0  0  0  0  0  0  0  0  0  0  0  0
   26.0109  -16.6215  -21.7388 O   0  0  0  0  0  0  0  0  0  0  0  0
   25.1997  -18.2010  -20.1496 C   0  0  0  0  0  0  0  0  0  0  0  0
   25.2447  -18.3427  -18.6629 C   0  0  2  0  0  0  0  0  0  0  0  0
   26.5746  -18.4946  -18.1540 N   0  0  0  0  0  0  0  0  0  0  0  0
   24.3576  -19.4243  -18.1664 C   0  0  0  0  0  0  0  0  0  0  0  0
   23.1711  -19.5463  -18.5776 O   0  0  0  0  0  0  0  0  0  0  0  0
   24.8183  -20.3626  -17.2063 N   0  0  0  0  0  0  0  0  0  0  0  0
   23.9173  -21.3952  -16.7593 C   0  0  1  0  0  0  0  0  0  0  0  0
   24.6379  -22.4614  -15.9528 C   0  0  0  0  0  0  0  0  0  0  0  0
   25.3986  -23.3912  -16.8856 C   0  0  0  0  0  0  0  0  0  0  0  0
   25.9803  -24.5017  -16.0170 C   0  0  0  0  0  0  0  0  0  0  0  0
   26.7711  -25.4690  -16.8658 C   0  0  0  0  0  0  0  0  0  0  0  0
   27.3689  -26.4564  -15.9860 N   0  0  0  0  0  0  0  0  0  0  0  0
   22.8924  -20.8123  -15.8641 C   0  0  0  0  0  0  0  0  0  0  0  0
   23.1608  -20.0279  -14.9198 O   0  0  0  0  0  0  0  0  0  0  0  0
   21.5356  -21.1375  -16.0594 N   0  0  0  0  0  0  0  0  0  0  0  0
   20.4618  -20.6039  -15.2336 C   0  0  1  0  0  0  0  0  0  0  0  0
   19.5311  -19.7371  -15.9815 C   0  0  0  0  0  0  0  0  0  0  0  0
   18.3547  -19.3604  -15.1267 C   0  0  0  0  0  0  0  0  0  0  0  0
   18.3683  -17.9161  -14.6966 C   0  0  0  0  0  0  0  0  0  0  0  0
   17.2302  -17.5816  -13.7668 C   0  0  0  0  0  0  0  0  0  0  0  0
   17.1393  -16.2023  -13.4195 N   0  0  0  0  0  0  0  0  0  0  0  0
   19.7450  -21.7774  -14.6864 C   0  0  0  0  0  0  0  0  0  0  0  0
   19.0743  -21.7249  -13.6142 O   0  0  0  0  0  0  0  0  0  0  0  0
   19.7713  -23.0295  -15.3372 O   0  0  0  0  0  0  0  0  0  0  0  0
  2  1  1  0
  3  2  2  0
  4  2  1  0
  5  4  1  0
  5  6  1  6
  7  5  1  0
  7  8  2  0
  9  7  1  0
 10  9  1  0
 10 11  1  1
 12 11  1  0
 12 13  1  0
 13 14  1  0
 14 15  1  0
 16 10  1  0
 17 16  2  0
 18 16  1  0
 19 25  1  0
 19 18  1  0
 19 20  1  6
 21 20  1  0
 22 21  1  0
 23 22  1  0
 23 24  1  0
 25 27  1  0
 26 25  2  0
M  END
$$$$
