NKK.pdb
     RDKit          3D

 27 26  0  0  1  0  0  0  0  0999 V2000
   22.3129  -13.0704  -16.5035 N   0  0  0  0  0  0  0  0  0  0  0  0
   22.4092  -11.8946  -17.2819 C   0  0  0  0  0  0  0  0  0  0  0  0
   23.5101  -11.5569  -17.7812 O   0  0  0  0  0  0  0  0  0  0  0  0
   21.1945  -11.0715  -17.4972 C   0  0  0  0  0  0  0  0  0  0  0  0
   20.0269  -11.7579  -16.8662 C   0  0  2  0  0  0  0  0  0  0  0  0
   19.7365  -13.0290  -17.4582 N   0  0  0  0  0  0  0  0  0  0  0  0
   18.8159  -10.9004  -16.8249 C   0  0  0  0  0  0  0  0  0  0  0  0
   18.4088  -10.2830  -17.8471 O   0  0  0  0  0  0  0  0  0  0  0  0
   18.0720  -10.7458  -15.6262 N   0  0  0  0  0  0  0  0  0  0  0  0
   16.9144   -9.8867  -15.6354 C   0  0  1  0  0  0  0  0  0  0  0  0
   15.8975  -10.3002  -14.5860 C   0  0  0  0  0  0  0  0  0  0  0  0
   15.0301  -11.4291  -15.1212 C   0  0  0  0  0  0  0  0  0  0  0  0
   15.0364  -12.5255  -14.0610 C   0  0  0  0  0  0  0  0  0  0  0  0
   14.1837  -13.6895  -14.5079 C   0  0  0  0  0  0  0  0  0  0  0  0
   14.3462  -14.7632  -13.5451 N   0  0  0  0  0  0  0  0  0  0  0  0
   17.3172   -8.5006  -15.3070 C   0  0  0  0  0  0  0  0  0  0  0  0
   18.2142   -8.2172  -14.4738 O   0  0  0  0  0  0  0  0  0  0  0  0
   16.6768   -7.4222  -15.9487 N   0  0  0  0  0  0  0  0  0  0  0  0
   17.0217   -6.0295  -15.7013 C   0  0  1  0  0  0  0  0  0  0  0  0
   16.7126   -5.1443  -16.8404 C   0  0  0  0  0  0  0  0  0  0  0  0
   17.1234   -3.7309  -16.5403 C   0  0  0  0  0  0  0  0  0  0  0  0
   16.7277   -2.7536  -17.6170 C   0  0  0  0  0  0  0  0  0  0  0  0
   17.1182   -1.3372  -17.2805 C   0  0  0  0  0  0  0  0  0  0  0  0
   16.7936   -0.3818  -18.2871 N   0  0  0  0  0  0  0  0  0  0  0  0
   16.2470   -5.6221  -14.5079 C   0  0  0  0  0  0  0  0  0  0  0  0
   15.1006   -6.0922  -14.2487 O   0  0  0  0  0  0  0  0  0  0  0  0
   16.7500   -4.6786  -13.5864 O   0  0  0  0  0  0  0  0  0  0  0  0
  2  1  1  0
  3  2  2  0
  4  2  1  0
  5  4  1  0
  5  6  1  6
  7  5  1  0
  7  8  2  0
  9  7  1  0
 10  9  1  0
 10 11  1  1
 12 11  1  0
 12 13  1  0
 13 14  1  0
 14 15  1  0
 16 10  1  0
 17 16  2  0
 18 16  1  0
 19 25  1  0
 19 18  1  0
 19 20  1  6
 21 20  1  0
 22 21  1  0
 23 22  1  0
 23 24  1  0
 25 27  1  0
 26 25  2  0
M  END
$$$$
