NKK.pdb
     RDKit          3D

 27 26  0  0  1  0  0  0  0  0999 V2000
   27.0128  -13.1823  -15.1429 N   0  0  0  0  0  0  0  0  0  0  0  0
   27.1166  -14.3318  -15.9588 C   0  0  0  0  0  0  0  0  0  0  0  0
   28.1877  -14.5815  -16.5636 O   0  0  0  0  0  0  0  0  0  0  0  0
   25.9453  -15.2323  -16.0872 C   0  0  0  0  0  0  0  0  0  0  0  0
   26.2279  -16.2453  -17.1485 C   0  0  2  0  0  0  0  0  0  0  0  0
   26.2805  -15.6803  -18.4633 N   0  0  0  0  0  0  0  0  0  0  0  0
   25.2924  -17.3968  -17.1007 C   0  0  0  0  0  0  0  0  0  0  0  0
   24.2999  -17.4739  -17.8757 O   0  0  0  0  0  0  0  0  0  0  0  0
   25.4853  -18.4554  -16.1753 N   0  0  0  0  0  0  0  0  0  0  0  0
   24.6521  -19.6272  -16.2799 C   0  0  1  0  0  0  0  0  0  0  0  0
   25.4037  -20.8892  -15.8943 C   0  0  0  0  0  0  0  0  0  0  0  0
   24.5501  -22.1123  -16.1916 C   0  0  0  0  0  0  0  0  0  0  0  0
   25.3780  -23.3302  -15.7952 C   0  0  0  0  0  0  0  0  0  0  0  0
   24.6391  -24.6006  -16.1442 C   0  0  0  0  0  0  0  0  0  0  0  0
   25.4167  -25.7237  -15.6538 N   0  0  0  0  0  0  0  0  0  0  0  0
   23.5109  -19.5152  -15.3436 C   0  0  0  0  0  0  0  0  0  0  0  0
   23.6255  -19.1324  -14.1522 O   0  0  0  0  0  0  0  0  0  0  0  0
   22.2158  -19.8492  -15.7862 N   0  0  0  0  0  0  0  0  0  0  0  0
   21.0172  -19.6099  -14.9951 C   0  0  1  0  0  0  0  0  0  0  0  0
   19.8757  -19.1357  -15.8007 C   0  0  0  0  0  0  0  0  0  0  0  0
   18.7062  -18.8030  -14.9186 C   0  0  0  0  0  0  0  0  0  0  0  0
   17.4642  -18.4349  -15.6888 C   0  0  0  0  0  0  0  0  0  0  0  0
   16.3644  -17.9206  -14.7956 C   0  0  0  0  0  0  0  0  0  0  0  0
   15.1407  -17.6398  -15.4702 N   0  0  0  0  0  0  0  0  0  0  0  0
   20.6899  -20.9001  -14.3481 C   0  0  0  0  0  0  0  0  0  0  0  0
   20.8816  -22.0140  -14.9178 O   0  0  0  0  0  0  0  0  0  0  0  0
   20.1414  -20.9576  -13.0489 O   0  0  0  0  0  0  0  0  0  0  0  0
  2  1  1  0
  3  2  2  0
  4  2  1  0
  5  4  1  0
  5  6  1  6
  7  5  1  0
  7  8  2  0
  9  7  1  0
 10  9  1  0
 10 11  1  1
 12 11  1  0
 12 13  1  0
 13 14  1  0
 14 15  1  0
 16 10  1  0
 17 16  2  0
 18 16  1  0
 19 25  1  0
 19 18  1  0
 19 20  1  6
 21 20  1  0
 22 21  1  0
 23 22  1  0
 23 24  1  0
 25 27  1  0
 26 25  2  0
M  END
$$$$
