VLY.pdb
     RDKit          3D

 28 28  0  0  1  0  0  0  0  0999 V2000
   28.7558  -21.9215  -14.8325 C   0  0  0  0  0  0  0  0  0  0  0  0
   28.1491  -21.9177  -16.2268 C   0  0  2  0  0  0  0  0  0  0  0  0
   29.2001  -21.3879  -17.1707 C   0  0  0  0  0  0  0  0  0  0  0  0
   26.9096  -21.0345  -16.2265 C   0  0  2  0  0  0  0  0  0  0  0  0
   27.2488  -19.6521  -16.1283 N   0  0  0  0  0  0  0  0  0  0  0  0
   25.9462  -21.4855  -15.2058 C   0  0  0  0  0  0  0  0  0  0  0  0
   25.5170  -22.6660  -15.2728 O   0  0  0  0  0  0  0  0  0  0  0  0
   26.1211  -22.4150  -10.7833 C   0  0  0  0  0  0  0  0  0  0  0  0
   25.9292  -20.9693  -11.0448 C   0  0  2  0  0  0  0  0  0  0  0  0
   25.9339  -20.2189   -9.7072 C   0  0  0  0  0  0  0  0  0  0  0  0
   24.7307  -20.5591  -11.7982 C   0  0  0  0  0  0  0  0  0  0  0  0
   24.5151  -21.1302  -13.1464 C   0  0  2  0  0  0  0  0  0  0  0  0
   25.4617  -20.6799  -14.1426 N   0  0  0  0  0  0  0  0  0  0  0  0
   23.1227  -21.0564  -13.6309 C   0  0  0  0  0  0  0  0  0  0  0  0
   22.7096  -19.9798  -14.1333 O   0  0  0  0  0  0  0  0  0  0  0  0
   14.8836  -24.4140  -13.4468 O   0  0  0  0  0  0  0  0  0  0  0  0
   16.2303  -24.1969  -13.6310 C   0  0  0  0  0  0  0  0  0  0  0  0
   16.7666  -24.1029  -14.8955 C   0  0  0  0  0  0  0  0  0  0  0  0
   18.1237  -23.8846  -15.0227 C   0  0  0  0  0  0  0  0  0  0  0  0
   18.9803  -23.7543  -13.9423 C   0  0  0  0  0  0  0  0  0  0  0  0
   20.4173  -23.5273  -14.1461 C   0  0  0  0  0  0  0  0  0  0  0  0
   20.8440  -22.0867  -13.9792 C   0  0  2  0  0  0  0  0  0  0  0  0
   22.2479  -22.1426  -13.5503 N   0  0  0  0  0  0  0  0  0  0  0  0
   20.0150  -21.3553  -13.0201 C   0  0  0  0  0  0  0  0  0  0  0  0
   20.3602  -21.2906  -11.8203 O   0  0  0  0  0  0  0  0  0  0  0  0
   18.4135  -23.8530  -12.6788 C   0  0  0  0  0  0  0  0  0  0  0  0
   17.0624  -24.0705  -12.5329 C   0  0  0  0  0  0  0  0  0  0  0  0
   18.8568  -20.7402  -13.4456 O   0  0  0  0  0  0  0  0  0  0  0  0
  2  1  1  1
  2  3  1  0
  4  6  1  0
  4  2  1  0
  4  5  1  1
  6  7  2  0
  9 11  1  0
  9  8  1  1
 10  9  1  0
 12 11  1  1
 12 14  1  0
 13 12  1  0
 13  6  1  0
 14 15  2  0
 16 17  1  0
 17 18  2  0
 18 19  1  0
 20 19  2  0
 20 21  1  0
 22 21  1  1
 22 24  1  0
 23 22  1  0
 23 14  1  0
 24 25  2  0
 24 28  1  0
 26 20  1  0
 27 17  1  0
 27 26  2  0
M  END
$$$$
