VLY.pdb
     RDKit          3D

 28 28  0  0  1  0  0  0  0  0999 V2000
   25.2440  -17.8514  -17.4277 C   0  0  0  0  0  0  0  0  0  0  0  0
   26.3120  -17.5143  -16.3992 C   0  0  2  0  0  0  0  0  0  0  0  0
   27.3820  -16.7216  -17.1086 C   0  0  0  0  0  0  0  0  0  0  0  0
   26.8715  -18.8068  -15.8225 C   0  0  2  0  0  0  0  0  0  0  0  0
   27.5593  -19.5702  -16.8124 N   0  0  0  0  0  0  0  0  0  0  0  0
   25.8220  -19.5601  -15.1122 C   0  0  0  0  0  0  0  0  0  0  0  0
   25.1696  -20.4224  -15.7551 O   0  0  0  0  0  0  0  0  0  0  0  0
   26.2002  -22.1125  -11.3650 C   0  0  0  0  0  0  0  0  0  0  0  0
   25.8468  -20.7166  -11.0164 C   0  0  2  0  0  0  0  0  0  0  0  0
   25.7741  -20.5902   -9.4897 C   0  0  0  0  0  0  0  0  0  0  0  0
   24.6063  -20.1583  -11.5837 C   0  0  0  0  0  0  0  0  0  0  0  0
   24.4559  -20.1257  -13.0557 C   0  0  2  0  0  0  0  0  0  0  0  0
   25.4889  -19.3838  -13.7440 N   0  0  0  0  0  0  0  0  0  0  0  0
   23.1050  -19.7647  -13.5288 C   0  0  0  0  0  0  0  0  0  0  0  0
   22.6982  -18.5857  -13.3659 O   0  0  0  0  0  0  0  0  0  0  0  0
   15.6382  -20.2936  -18.2541 O   0  0  0  0  0  0  0  0  0  0  0  0
   16.8844  -20.4640  -17.6948 C   0  0  0  0  0  0  0  0  0  0  0  0
   17.2180  -21.6337  -17.0499 C   0  0  0  0  0  0  0  0  0  0  0  0
   18.4818  -21.7512  -16.5071 C   0  0  0  0  0  0  0  0  0  0  0  0
   19.4379  -20.7516  -16.5757 C   0  0  0  0  0  0  0  0  0  0  0  0
   20.7643  -20.9383  -15.9727 C   0  0  0  0  0  0  0  0  0  0  0  0
   20.8901  -20.3793  -14.5738 C   0  0  2  0  0  0  0  0  0  0  0  0
   22.2626  -20.6889  -14.1517 N   0  0  0  0  0  0  0  0  0  0  0  0
   19.9021  -20.9351  -13.6481 C   0  0  0  0  0  0  0  0  0  0  0  0
   18.8028  -20.3609  -13.4914 O   0  0  0  0  0  0  0  0  0  0  0  0
   19.0754  -19.5828  -17.2314 C   0  0  0  0  0  0  0  0  0  0  0  0
   17.8199  -19.4480  -17.7788 C   0  0  0  0  0  0  0  0  0  0  0  0
   20.1891  -22.0910  -12.9536 O   0  0  0  0  0  0  0  0  0  0  0  0
  2  1  1  6
  2  3  1  0
  4  6  1  0
  4  2  1  0
  4  5  1  6
  6  7  2  0
  9 11  1  0
  9  8  1  1
 10  9  1  0
 12 11  1  1
 12 14  1  0
 13 12  1  0
 13  6  1  0
 14 15  2  0
 16 17  1  0
 17 18  2  0
 18 19  1  0
 20 19  2  0
 20 21  1  0
 22 21  1  6
 22 24  1  0
 23 22  1  0
 23 14  1  0
 24 25  2  0
 24 28  1  0
 26 20  1  0
 27 17  1  0
 27 26  2  0
M  END
$$$$
