VLY.pdb
     RDKit          3D

 28 28  0  0  1  0  0  0  0  0999 V2000
   26.2035  -19.3486  -16.5749 C   0  0  0  0  0  0  0  0  0  0  0  0
   27.4315  -19.1354  -15.7040 C   0  0  2  0  0  0  0  0  0  0  0  0
   28.5432  -18.6601  -16.6065 C   0  0  0  0  0  0  0  0  0  0  0  0
   27.7928  -20.4486  -15.0251 C   0  0  2  0  0  0  0  0  0  0  0  0
   28.0644  -21.4758  -15.9776 N   0  0  0  0  0  0  0  0  0  0  0  0
   26.7748  -20.8179  -14.0248 C   0  0  0  0  0  0  0  0  0  0  0  0
   25.9261  -21.6932  -14.3344 O   0  0  0  0  0  0  0  0  0  0  0  0
   25.4267  -21.9624   -8.9869 C   0  0  0  0  0  0  0  0  0  0  0  0
   26.3031  -20.8606   -9.4485 C   0  0  2  0  0  0  0  0  0  0  0  0
   26.7430  -20.0350   -8.2332 C   0  0  0  0  0  0  0  0  0  0  0  0
   25.7691  -19.9355  -10.4641 C   0  0  0  0  0  0  0  0  0  0  0  0
   25.5540  -20.4434  -11.8375 C   0  0  2  0  0  0  0  0  0  0  0  0
   26.6793  -20.2546  -12.7258 N   0  0  0  0  0  0  0  0  0  0  0  0
   24.2817  -20.0233  -12.4570 C   0  0  0  0  0  0  0  0  0  0  0  0
   24.2141  -18.8906  -12.9999 O   0  0  0  0  0  0  0  0  0  0  0  0
   17.3469  -19.4927  -17.4981 O   0  0  0  0  0  0  0  0  0  0  0  0
   18.4773  -19.7874  -16.7701 C   0  0  0  0  0  0  0  0  0  0  0  0
   19.3026  -18.7876  -16.3066 C   0  0  0  0  0  0  0  0  0  0  0  0
   20.4233  -19.1395  -15.5815 C   0  0  0  0  0  0  0  0  0  0  0  0
   20.7653  -20.4502  -15.2931 C   0  0  0  0  0  0  0  0  0  0  0  0
   21.9756  -20.7579  -14.5195 C   0  0  0  0  0  0  0  0  0  0  0  0
   21.8623  -20.4425  -13.0454 C   0  0  2  0  0  0  0  0  0  0  0  0
   23.1495  -20.8417  -12.4608 N   0  0  0  0  0  0  0  0  0  0  0  0
   20.7409  -21.1281  -12.4015 C   0  0  0  0  0  0  0  0  0  0  0  0
   20.8719  -22.3098  -12.0154 O   0  0  0  0  0  0  0  0  0  0  0  0
   19.9160  -21.4385  -15.7722 C   0  0  0  0  0  0  0  0  0  0  0  0
   18.7942  -21.1062  -16.4969 C   0  0  0  0  0  0  0  0  0  0  0  0
   19.5449  -20.4659  -12.2234 O   0  0  0  0  0  0  0  0  0  0  0  0
  2  1  1  6
  2  3  1  0
  4  6  1  0
  4  2  1  0
  4  5  1  6
  6  7  2  0
  9 11  1  0
  9  8  1  1
 10  9  1  0
 12 11  1  1
 12 14  1  0
 13 12  1  0
 13  6  1  0
 14 15  2  0
 16 17  1  0
 17 18  2  0
 18 19  1  0
 20 19  2  0
 20 21  1  0
 22 21  1  6
 22 24  1  0
 23 22  1  0
 23 14  1  0
 24 25  2  0
 24 28  1  0
 26 20  1  0
 27 17  1  0
 27 26  2  0
M  END
$$$$
