VLY.pdb
     RDKit          3D

 28 28  0  0  1  0  0  0  0  0999 V2000
   18.5357  -11.5508  -20.0186 C   0  0  0  0  0  0  0  0  0  0  0  0
   19.5224  -12.6207  -20.4590 C   0  0  2  0  0  0  0  0  0  0  0  0
   18.8957  -13.3583  -21.6163 C   0  0  0  0  0  0  0  0  0  0  0  0
   19.7957  -13.5555  -19.2895 C   0  0  2  0  0  0  0  0  0  0  0  0
   18.6720  -14.3887  -19.0085 N   0  0  0  0  0  0  0  0  0  0  0  0
   20.2857  -12.8021  -18.1209 C   0  0  0  0  0  0  0  0  0  0  0  0
   19.4389  -12.2678  -17.3594 O   0  0  0  0  0  0  0  0  0  0  0  0
   22.8704  -14.1712  -14.5697 C   0  0  0  0  0  0  0  0  0  0  0  0
   23.6807  -13.6895  -15.7128 C   0  0  2  0  0  0  0  0  0  0  0  0
   25.1665  -13.8669  -15.3766 C   0  0  0  0  0  0  0  0  0  0  0  0
   23.4743  -12.3026  -16.1670 C   0  0  0  0  0  0  0  0  0  0  0  0
   22.1259  -11.9050  -16.6296 C   0  0  2  0  0  0  0  0  0  0  0  0
   21.6546  -12.6325  -17.7871 N   0  0  0  0  0  0  0  0  0  0  0  0
   21.9279  -10.4490  -16.7711 C   0  0  0  0  0  0  0  0  0  0  0  0
   22.4413   -9.8581  -17.7557 O   0  0  0  0  0  0  0  0  0  0  0  0
   17.7438   -2.7777  -16.8495 O   0  0  0  0  0  0  0  0  0  0  0  0
   18.1843   -4.0786  -16.7578 C   0  0  0  0  0  0  0  0  0  0  0  0
   18.9535   -4.6384  -17.7530 C   0  0  0  0  0  0  0  0  0  0  0  0
   19.3682   -5.9472  -17.6099 C   0  0  0  0  0  0  0  0  0  0  0  0
   19.0511   -6.7328  -16.5143 C   0  0  0  0  0  0  0  0  0  0  0  0
   19.5206   -8.1219  -16.4250 C   0  0  0  0  0  0  0  0  0  0  0  0
   20.9562   -8.2599  -15.9720 C   0  0  2  0  0  0  0  0  0  0  0  0
   21.1892   -9.7049  -15.8479 N   0  0  0  0  0  0  0  0  0  0  0  0
   21.2261   -7.5595  -14.7155 C   0  0  0  0  0  0  0  0  0  0  0  0
   21.0238   -8.1361  -13.6249 O   0  0  0  0  0  0  0  0  0  0  0  0
   18.2746   -6.1438  -15.5256 C   0  0  0  0  0  0  0  0  0  0  0  0
   17.8522   -4.8401  -15.6513 C   0  0  0  0  0  0  0  0  0  0  0  0
   21.7033   -6.2663  -14.7414 O   0  0  0  0  0  0  0  0  0  0  0  0
  2  1  1  1
  2  3  1  0
  4  6  1  0
  4  2  1  0
  4  5  1  1
  6  7  2  0
  9 11  1  0
  9  8  1  1
 10  9  1  0
 12 11  1  6
 12 14  1  0
 13 12  1  0
 13  6  1  0
 14 15  2  0
 16 17  1  0
 17 18  2  0
 18 19  1  0
 20 19  2  0
 20 21  1  0
 22 21  1  1
 22 24  1  0
 23 22  1  0
 23 14  1  0
 24 25  2  0
 24 28  1  0
 26 20  1  0
 27 17  1  0
 27 26  2  0
M  END
$$$$
