VLY.pdb
     RDKit          3D

 28 28  0  0  1  0  0  0  0  0999 V2000
   26.3141  -19.7217  -15.9334 C   0  0  0  0  0  0  0  0  0  0  0  0
   27.6286  -19.4176  -15.2322 C   0  0  2  0  0  0  0  0  0  0  0  0
   28.5826  -18.8944  -16.2773 C   0  0  0  0  0  0  0  0  0  0  0  0
   28.1556  -20.6929  -14.5905 C   0  0  2  0  0  0  0  0  0  0  0  0
   28.4097  -21.7052  -15.5634 N   0  0  0  0  0  0  0  0  0  0  0  0
   27.2733  -21.1296  -13.4931 C   0  0  0  0  0  0  0  0  0  0  0  0
   26.3169  -21.8988  -13.7684 O   0  0  0  0  0  0  0  0  0  0  0  0
   26.0511  -19.6519   -7.4847 C   0  0  0  0  0  0  0  0  0  0  0  0
   25.7776  -20.4391   -8.7097 C   0  0  2  0  0  0  0  0  0  0  0  0
   25.5352  -21.9013   -8.3153 C   0  0  0  0  0  0  0  0  0  0  0  0
   26.7864  -20.4137   -9.7839 C   0  0  0  0  0  0  0  0  0  0  0  0
   26.3997  -20.9016  -11.1266 C   0  0  2  0  0  0  0  0  0  0  0  0
   27.4234  -20.7435  -12.1357 N   0  0  0  0  0  0  0  0  0  0  0  0
   25.0811  -20.4327  -11.5960 C   0  0  0  0  0  0  0  0  0  0  0  0
   24.9602  -19.2408  -11.9792 O   0  0  0  0  0  0  0  0  0  0  0  0
   17.0499  -20.8857  -15.2187 O   0  0  0  0  0  0  0  0  0  0  0  0
   18.3197  -21.0940  -14.7299 C   0  0  0  0  0  0  0  0  0  0  0  0
   18.5633  -22.0573  -13.7771 C   0  0  0  0  0  0  0  0  0  0  0  0
   19.8558  -22.2239  -13.3218 C   0  0  0  0  0  0  0  0  0  0  0  0
   20.9270  -21.4709  -13.7731 C   0  0  0  0  0  0  0  0  0  0  0  0
   22.2788  -21.6952  -13.2438 C   0  0  0  0  0  0  0  0  0  0  0  0
   22.6300  -20.8237  -12.0596 C   0  0  2  0  0  0  0  0  0  0  0  0
   23.9622  -21.2686  -11.6290 N   0  0  0  0  0  0  0  0  0  0  0  0
   21.6524  -20.9176  -10.9744 C   0  0  0  0  0  0  0  0  0  0  0  0
   20.6179  -20.2165  -11.0052 O   0  0  0  0  0  0  0  0  0  0  0  0
   20.6535  -20.5067  -14.7338 C   0  0  0  0  0  0  0  0  0  0  0  0
   19.3710  -20.3267  -15.1994 C   0  0  0  0  0  0  0  0  0  0  0  0
   21.8776  -21.7805   -9.9230 O   0  0  0  0  0  0  0  0  0  0  0  0
  2  1  1  6
  2  3  1  0
  4  6  1  0
  4  2  1  0
  4  5  1  6
  6  7  2  0
  9 11  1  0
  9  8  1  1
 10  9  1  0
 12 11  1  1
 12 14  1  0
 13 12  1  0
 13  6  1  0
 14 15  2  0
 16 17  1  0
 17 18  2  0
 18 19  1  0
 20 19  2  0
 20 21  1  0
 22 21  1  6
 22 24  1  0
 23 22  1  0
 23 14  1  0
 24 25  2  0
 24 28  1  0
 26 20  1  0
 27 17  1  0
 27 26  2  0
M  END
$$$$
