VLY.pdb
     RDKit          3D

 28 28  0  0  1  0  0  0  0  0999 V2000
   28.6217  -19.4288  -16.3618 C   0  0  0  0  0  0  0  0  0  0  0  0
   27.1913  -19.9398  -16.4344 C   0  0  2  0  0  0  0  0  0  0  0  0
   26.6894  -19.6678  -17.8309 C   0  0  0  0  0  0  0  0  0  0  0  0
   26.3515  -19.2141  -15.3932 C   0  0  2  0  0  0  0  0  0  0  0  0
   27.1509  -18.3644  -14.5717 N   0  0  0  0  0  0  0  0  0  0  0  0
   25.5212  -20.1669  -14.6342 C   0  0  0  0  0  0  0  0  0  0  0  0
   24.7180  -20.8957  -15.2716 O   0  0  0  0  0  0  0  0  0  0  0  0
   26.9232  -21.5260   -9.3339 C   0  0  0  0  0  0  0  0  0  0  0  0
   26.2626  -20.9242  -10.5156 C   0  0  2  0  0  0  0  0  0  0  0  0
   25.5998  -19.6065  -10.0953 C   0  0  0  0  0  0  0  0  0  0  0  0
   25.2615  -21.7347  -11.2319 C   0  0  0  0  0  0  0  0  0  0  0  0
   24.6756  -21.1926  -12.4782 C   0  0  2  0  0  0  0  0  0  0  0  0
   25.5601  -20.3254  -13.2244 N   0  0  0  0  0  0  0  0  0  0  0  0
   23.3285  -20.6094  -12.3224 C   0  0  0  0  0  0  0  0  0  0  0  0
   23.1980  -19.5472  -11.6613 O   0  0  0  0  0  0  0  0  0  0  0  0
   18.1511  -16.3174  -17.4367 O   0  0  0  0  0  0  0  0  0  0  0  0
   19.0261  -17.1153  -16.7350 C   0  0  0  0  0  0  0  0  0  0  0  0
   19.4558  -16.7599  -15.4762 C   0  0  0  0  0  0  0  0  0  0  0  0
   20.3336  -17.5969  -14.8172 C   0  0  0  0  0  0  0  0  0  0  0  0
   20.8087  -18.7812  -15.3556 C   0  0  0  0  0  0  0  0  0  0  0  0
   21.7460  -19.6257  -14.6031 C   0  0  0  0  0  0  0  0  0  0  0  0
   21.1008  -20.4296  -13.4974 C   0  0  2  0  0  0  0  0  0  0  0  0
   22.1929  -21.1976  -12.8848 N   0  0  0  0  0  0  0  0  0  0  0  0
   20.0304  -21.3035  -13.9797 C   0  0  0  0  0  0  0  0  0  0  0  0
   18.8418  -21.0555  -13.6821 O   0  0  0  0  0  0  0  0  0  0  0  0
   20.3595  -19.1157  -16.6259 C   0  0  0  0  0  0  0  0  0  0  0  0
   19.4842  -18.2932  -17.2978 C   0  0  0  0  0  0  0  0  0  0  0  0
   20.3390  -22.3966  -14.7612 O   0  0  0  0  0  0  0  0  0  0  0  0
  2  1  1  6
  2  3  1  0
  4  6  1  0
  4  2  1  0
  4  5  1  1
  6  7  2  0
  9 11  1  0
  9  8  1  1
 10  9  1  0
 12 11  1  1
 12 14  1  0
 13 12  1  0
 13  6  1  0
 14 15  2  0
 16 17  1  0
 17 18  2  0
 18 19  1  0
 20 19  2  0
 20 21  1  0
 22 21  1  6
 22 24  1  0
 23 22  1  0
 23 14  1  0
 24 25  2  0
 24 28  1  0
 26 20  1  0
 27 17  1  0
 27 26  2  0
M  END
$$$$
