VLY.pdb
     RDKit          3D

 28 28  0  0  1  0  0  0  0  0999 V2000
   25.5228  -20.4529  -17.3967 C   0  0  0  0  0  0  0  0  0  0  0  0
   26.8525  -20.0233  -16.7971 C   0  0  2  0  0  0  0  0  0  0  0  0
   27.7581  -19.6439  -17.9426 C   0  0  0  0  0  0  0  0  0  0  0  0
   27.4310  -21.1788  -15.9933 C   0  0  2  0  0  0  0  0  0  0  0  0
   27.7139  -22.3059  -16.8211 N   0  0  0  0  0  0  0  0  0  0  0  0
   26.5744  -21.4907  -14.8346 C   0  0  0  0  0  0  0  0  0  0  0  0
   25.6562  -22.3373  -14.9840 O   0  0  0  0  0  0  0  0  0  0  0  0
   25.7011  -19.9544   -8.7645 C   0  0  0  0  0  0  0  0  0  0  0  0
   25.2795  -20.6035  -10.0278 C   0  0  2  0  0  0  0  0  0  0  0  0
   24.9249  -22.0673   -9.7386 C   0  0  0  0  0  0  0  0  0  0  0  0
   26.2181  -20.5734  -11.1638 C   0  0  0  0  0  0  0  0  0  0  0  0
   25.7434  -21.0451  -12.4839 C   0  0  2  0  0  0  0  0  0  0  0  0
   26.7093  -20.9017  -13.5505 N   0  0  0  0  0  0  0  0  0  0  0  0
   24.4095  -20.5466  -12.8727 C   0  0  0  0  0  0  0  0  0  0  0  0
   24.2832  -19.3389  -13.2008 O   0  0  0  0  0  0  0  0  0  0  0  0
   16.5021  -20.1937  -16.5707 O   0  0  0  0  0  0  0  0  0  0  0  0
   17.7677  -20.4674  -16.1035 C   0  0  0  0  0  0  0  0  0  0  0  0
   18.8212  -19.6235  -16.3746 C   0  0  0  0  0  0  0  0  0  0  0  0
   20.0695  -19.9461  -15.8814 C   0  0  0  0  0  0  0  0  0  0  0  0
   20.3219  -21.0782  -15.1247 C   0  0  0  0  0  0  0  0  0  0  0  0
   21.6759  -21.3666  -14.6332 C   0  0  0  0  0  0  0  0  0  0  0  0
   21.9329  -20.8941  -13.2204 C   0  0  2  0  0  0  0  0  0  0  0  0
   23.2820  -21.3713  -12.8886 N   0  0  0  0  0  0  0  0  0  0  0  0
   20.9369  -21.3844  -12.2666 C   0  0  0  0  0  0  0  0  0  0  0  0
   19.9826  -20.6506  -11.9297 O   0  0  0  0  0  0  0  0  0  0  0  0
   19.2422  -21.9117  -14.8661 C   0  0  0  0  0  0  0  0  0  0  0  0
   17.9905  -21.6059  -15.3497 C   0  0  0  0  0  0  0  0  0  0  0  0
   21.0562  -22.6549  -11.7447 O   0  0  0  0  0  0  0  0  0  0  0  0
  2  1  1  6
  2  3  1  0
  4  6  1  0
  4  2  1  0
  4  5  1  6
  6  7  2  0
  9 11  1  0
  9  8  1  1
 10  9  1  0
 12 11  1  1
 12 14  1  0
 13 12  1  0
 13  6  1  0
 14 15  2  0
 16 17  1  0
 17 18  2  0
 18 19  1  0
 20 19  2  0
 20 21  1  0
 22 21  1  6
 22 24  1  0
 23 22  1  0
 23 14  1  0
 24 25  2  0
 24 28  1  0
 26 20  1  0
 27 17  1  0
 27 26  2  0
M  END
$$$$
