VCY.pdb
     RDKit          3D

 26 26  0  0  1  0  0  0  0  0999 V2000
   11.6491  -18.8365   21.0686 C   0  0  0  0  0  0  0  0  0  0  0  0
   10.9912  -18.6054   19.7380 C   0  0  1  0  0  0  0  0  0  0  0  0
   11.7323  -19.2755   18.6063 C   0  0  0  0  0  0  0  0  0  0  0  0
    9.5197  -19.0282   19.7466 C   0  0  2  0  0  0  0  0  0  0  0  0
    8.9320  -18.7358   18.4441 N   0  0  0  0  0  0  0  0  0  0  0  0
    8.8389  -18.2616   20.8043 C   0  0  0  0  0  0  0  0  0  0  0  0
    8.8087  -17.0072   20.7169 O   0  0  0  0  0  0  0  0  0  0  0  0
    8.2045  -18.8247   21.9289 N   0  0  0  0  0  0  0  0  0  0  0  0
    7.6315  -18.0669   23.0018 C   0  0  1  0  0  0  0  0  0  0  0  0
    6.5708  -18.8080   23.7670 C   0  0  0  0  0  0  0  0  0  0  0  0
    6.0481  -17.8359   25.2026 S   0  0  0  0  0  0  0  0  0  0  0  0
    8.6495  -17.5489   23.9500 C   0  0  0  0  0  0  0  0  0  0  0  0
    9.5575  -18.3164   24.4233 O   0  0  0  0  0  0  0  0  0  0  0  0
    5.1722  -11.5181   26.9623 O   0  0  0  0  0  0  0  0  0  0  0  0
    6.3039  -12.2109   26.5083 C   0  0  0  0  0  0  0  0  0  0  0  0
    6.3188  -12.9048   25.3175 C   0  0  0  0  0  0  0  0  0  0  0  0
    7.4486  -13.5818   24.8893 C   0  0  0  0  0  0  0  0  0  0  0  0
    8.5866  -13.5665   25.6649 C   0  0  0  0  0  0  0  0  0  0  0  0
    9.8232  -14.2754   25.2683 C   0  0  0  0  0  0  0  0  0  0  0  0
    9.7138  -15.7796   25.3753 C   0  0  2  0  0  0  0  0  0  0  0  0
    8.7006  -16.2015   24.3965 N   0  0  0  0  0  0  0  0  0  0  0  0
    9.3650  -16.2495   26.7299 C   0  0  0  0  0  0  0  0  0  0  0  0
    8.2488  -16.7366   27.0282 O   0  0  0  0  0  0  0  0  0  0  0  0
    8.5679  -12.8729   26.8531 C   0  0  0  0  0  0  0  0  0  0  0  0
    7.4364  -12.1918   27.2868 C   0  0  0  0  0  0  0  0  0  0  0  0
   10.3157  -16.1509   27.7321 O   0  0  0  0  0  0  0  0  0  0  0  0
  2  1  1  1
  3  2  1  0
  4  2  1  0
  4  5  1  6
  6  4  1  0
  6  7  2  0
  8  6  1  0
  9  8  1  0
  9 10  1  1
 11 10  1  0
 12  9  1  0
 12 21  1  0
 13 12  2  0
 14 15  1  0
 15 25  2  0
 15 16  1  0
 16 17  2  0
 17 18  1  0
 18 19  1  0
 20 19  1  1
 20 22  1  0
 21 20  1  0
 22 23  2  0
 22 26  1  0
 24 18  2  0
 25 24  1  0
M  END
$$$$
