VCY.pdb
     RDKit          3D

 26 26  0  0  1  0  0  0  0  0999 V2000
    8.4576  -11.9984   17.9430 C   0  0  0  0  0  0  0  0  0  0  0  0
    8.3253  -13.1375   18.9135 C   0  0  1  0  0  0  0  0  0  0  0  0
    6.9813  -13.1538   19.6006 C   0  0  0  0  0  0  0  0  0  0  0  0
    8.6113  -14.4882   18.2519 C   0  0  2  0  0  0  0  0  0  0  0  0
    7.6208  -14.7271   17.2082 N   0  0  0  0  0  0  0  0  0  0  0  0
    8.5240  -15.5256   19.2940 C   0  0  0  0  0  0  0  0  0  0  0  0
    7.4004  -16.0270   19.5546 O   0  0  0  0  0  0  0  0  0  0  0  0
    9.6144  -16.0154   20.0394 N   0  0  0  0  0  0  0  0  0  0  0  0
    9.5084  -16.9768   21.0967 C   0  0  1  0  0  0  0  0  0  0  0  0
   10.1060  -18.3145   20.7603 C   0  0  0  0  0  0  0  0  0  0  0  0
    9.9229  -19.4460   22.1622 S   0  0  0  0  0  0  0  0  0  0  0  0
   10.0808  -16.4914   22.3775 C   0  0  0  0  0  0  0  0  0  0  0  0
   11.3062  -16.1310   22.4548 O   0  0  0  0  0  0  0  0  0  0  0  0
   10.9125  -14.4538   30.9969 O   0  0  0  0  0  0  0  0  0  0  0  0
   10.4196  -14.8211   29.7363 C   0  0  0  0  0  0  0  0  0  0  0  0
   10.2350  -16.1365   29.3682 C   0  0  0  0  0  0  0  0  0  0  0  0
    9.7468  -16.4754   28.1173 C   0  0  0  0  0  0  0  0  0  0  0  0
    9.4364  -15.4821   27.2151 C   0  0  0  0  0  0  0  0  0  0  0  0
    8.9187  -15.7774   25.8611 C   0  0  0  0  0  0  0  0  0  0  0  0
   10.0083  -15.9989   24.8364 C   0  0  2  0  0  0  0  0  0  0  0  0
    9.3406  -16.3883   23.5853 N   0  0  0  0  0  0  0  0  0  0  0  0
   11.0000  -17.0135   25.2419 C   0  0  0  0  0  0  0  0  0  0  0  0
   12.1728  -16.7364   25.5881 O   0  0  0  0  0  0  0  0  0  0  0  0
    9.6222  -14.1701   27.5861 C   0  0  0  0  0  0  0  0  0  0  0  0
   10.1119  -13.8252   28.8405 C   0  0  0  0  0  0  0  0  0  0  0  0
   10.6238  -18.3463   25.2429 O   0  0  0  0  0  0  0  0  0  0  0  0
  2  1  1  6
  3  2  1  0
  4  2  1  0
  4  5  1  6
  6  4  1  0
  6  7  2  0
  8  6  1  0
  9  8  1  0
  9 10  1  6
 11 10  1  0
 12  9  1  0
 12 21  1  0
 13 12  2  0
 14 15  1  0
 15 25  2  0
 15 16  1  0
 16 17  2  0
 17 18  1  0
 18 19  1  0
 20 19  1  1
 20 22  1  0
 21 20  1  0
 22 23  2  0
 22 26  1  0
 24 18  2  0
 25 24  1  0
M  END
$$$$
