VCY.pdb
     RDKit          3D

 26 26  0  0  1  0  0  0  0  0999 V2000
    8.7092  -12.9726   21.6919 C   0  0  0  0  0  0  0  0  0  0  0  0
    7.7460  -13.6179   20.7366 C   0  0  1  0  0  0  0  0  0  0  0  0
    7.7960  -12.9957   19.3622 C   0  0  0  0  0  0  0  0  0  0  0  0
    7.9524  -15.1326   20.6527 C   0  0  2  0  0  0  0  0  0  0  0  0
    6.9880  -15.6938   19.7132 N   0  0  0  0  0  0  0  0  0  0  0  0
    7.7443  -15.6890   22.0007 C   0  0  0  0  0  0  0  0  0  0  0  0
    6.5682  -15.8052   22.4312 O   0  0  0  0  0  0  0  0  0  0  0  0
    8.7712  -16.1120   22.8673 N   0  0  0  0  0  0  0  0  0  0  0  0
    8.5555  -16.6761   24.1668 C   0  0  1  0  0  0  0  0  0  0  0  0
    8.4604  -18.1763   24.1672 C   0  0  0  0  0  0  0  0  0  0  0  0
    9.9178  -18.8905   23.3639 S   0  0  0  0  0  0  0  0  0  0  0  0
    9.5749  -16.2485   25.1576 C   0  0  0  0  0  0  0  0  0  0  0  0
   10.8040  -16.1235   24.8238 O   0  0  0  0  0  0  0  0  0  0  0  0
    5.7838  -11.5423   25.3345 O   0  0  0  0  0  0  0  0  0  0  0  0
    6.7491  -12.2360   26.0788 C   0  0  0  0  0  0  0  0  0  0  0  0
    6.5521  -12.5949   27.3949 C   0  0  0  0  0  0  0  0  0  0  0  0
    7.5202  -13.2800   28.1101 C   0  0  0  0  0  0  0  0  0  0  0  0
    8.7090  -13.6138   27.5002 C   0  0  0  0  0  0  0  0  0  0  0  0
    9.7860  -14.3378   28.2105 C   0  0  0  0  0  0  0  0  0  0  0  0
   10.3460  -15.5024   27.4255 C   0  0  2  0  0  0  0  0  0  0  0  0
    9.2816  -15.9507   26.5151 N   0  0  0  0  0  0  0  0  0  0  0  0
   10.8148  -16.6139   28.2753 C   0  0  0  0  0  0  0  0  0  0  0  0
   10.2828  -17.7493   28.2866 O   0  0  0  0  0  0  0  0  0  0  0  0
    8.9022  -13.2536   26.1863 C   0  0  0  0  0  0  0  0  0  0  0  0
    7.9334  -12.5661   25.4644 C   0  0  0  0  0  0  0  0  0  0  0  0
   11.9001  -16.4005   29.1086 O   0  0  0  0  0  0  0  0  0  0  0  0
  2  1  1  1
  3  2  1  0
  4  2  1  0
  4  5  1  6
  6  4  1  0
  6  7  2  0
  8  6  1  0
  9  8  1  0
  9 10  1  6
 11 10  1  0
 12  9  1  0
 12 21  1  0
 13 12  2  0
 14 15  1  0
 15 25  2  0
 15 16  1  0
 16 17  2  0
 17 18  1  0
 18 19  1  0
 20 19  1  1
 20 22  1  0
 21 20  1  0
 22 23  2  0
 22 26  1  0
 24 18  2  0
 25 24  1  0
M  END
$$$$
