VCY.pdb
     RDKit          3D

 26 26  0  0  1  0  0  0  0  0999 V2000
    7.2401  -17.6339   23.6645 C   0  0  0  0  0  0  0  0  0  0  0  0
    8.0091  -17.2639   22.4282 C   0  0  1  0  0  0  0  0  0  0  0  0
    7.8583  -18.2882   21.3295 C   0  0  0  0  0  0  0  0  0  0  0  0
    7.6385  -15.8677   21.9209 C   0  0  2  0  0  0  0  0  0  0  0  0
    8.4013  -15.5821   20.7108 N   0  0  0  0  0  0  0  0  0  0  0  0
    7.9722  -14.9018   22.9817 C   0  0  0  0  0  0  0  0  0  0  0  0
    9.1820  -14.7182   23.2727 O   0  0  0  0  0  0  0  0  0  0  0  0
    7.0327  -14.1493   23.7136 N   0  0  0  0  0  0  0  0  0  0  0  0
    7.3534  -13.3281   24.8433 C   0  0  1  0  0  0  0  0  0  0  0  0
    6.1609  -12.6466   25.4541 C   0  0  0  0  0  0  0  0  0  0  0  0
    6.6669  -11.6993   26.9121 S   0  0  0  0  0  0  0  0  0  0  0  0
    8.0931  -14.0635   25.8996 C   0  0  0  0  0  0  0  0  0  0  0  0
    8.6960  -13.4360   26.8378 O   0  0  0  0  0  0  0  0  0  0  0  0
    9.6122  -21.9531   29.6389 O   0  0  0  0  0  0  0  0  0  0  0  0
    9.1724  -20.7020   29.1824 C   0  0  0  0  0  0  0  0  0  0  0  0
    8.3872  -20.5582   28.0589 C   0  0  0  0  0  0  0  0  0  0  0  0
    7.9646  -19.3120   27.6269 C   0  0  0  0  0  0  0  0  0  0  0  0
    8.3329  -18.1864   28.3300 C   0  0  0  0  0  0  0  0  0  0  0  0
    7.9215  -16.8266   27.9172 C   0  0  0  0  0  0  0  0  0  0  0  0
    8.9391  -16.1310   27.0417 C   0  0  2  0  0  0  0  0  0  0  0  0
    8.1898  -15.4795   25.9568 N   0  0  0  0  0  0  0  0  0  0  0  0
    9.9679  -17.0392   26.4994 C   0  0  0  0  0  0  0  0  0  0  0  0
   10.9273  -17.4812   27.1748 O   0  0  0  0  0  0  0  0  0  0  0  0
    9.1170  -18.3340   29.4511 C   0  0  0  0  0  0  0  0  0  0  0  0
    9.5433  -19.5827   29.8885 C   0  0  0  0  0  0  0  0  0  0  0  0
    9.8767  -17.4297   25.1739 O   0  0  0  0  0  0  0  0  0  0  0  0
  2  1  1  1
  3  2  1  0
  4  2  1  0
  4  5  1  6
  6  4  1  0
  6  7  2  0
  8  6  1  0
  9  8  1  0
  9 10  1  1
 11 10  1  0
 12  9  1  0
 12 21  1  0
 13 12  2  0
 14 15  1  0
 15 25  2  0
 15 16  1  0
 16 17  2  0
 17 18  1  0
 18 19  1  0
 20 19  1  1
 20 22  1  0
 21 20  1  0
 22 23  2  0
 22 26  1  0
 24 18  2  0
 25 24  1  0
M  END
$$$$
