VCY.pdb
     RDKit          3D

 26 26  0  0  1  0  0  0  0  0999 V2000
    8.3737  -12.7284   20.0664 C   0  0  0  0  0  0  0  0  0  0  0  0
    7.5359  -13.5936   19.1685 C   0  0  1  0  0  0  0  0  0  0  0  0
    7.4320  -13.0380   17.7687 C   0  0  0  0  0  0  0  0  0  0  0  0
    8.0351  -15.0407   19.1407 C   0  0  2  0  0  0  0  0  0  0  0  0
    7.1623  -15.8296   18.2785 N   0  0  0  0  0  0  0  0  0  0  0  0
    7.9992  -15.5542   20.5208 C   0  0  0  0  0  0  0  0  0  0  0  0
    6.9745  -16.1717   20.9091 O   0  0  0  0  0  0  0  0  0  0  0  0
    9.0364  -15.4109   21.4632 N   0  0  0  0  0  0  0  0  0  0  0  0
    9.1294  -16.1510   22.6868 C   0  0  1  0  0  0  0  0  0  0  0  0
    9.1342  -17.6418   22.4933 C   0  0  0  0  0  0  0  0  0  0  0  0
   10.6275  -18.1469   21.6023 S   0  0  0  0  0  0  0  0  0  0  0  0
   10.3004  -15.7591   23.5105 C   0  0  0  0  0  0  0  0  0  0  0  0
   11.4815  -15.7636   23.0179 O   0  0  0  0  0  0  0  0  0  0  0  0
    9.5247  -17.7166   31.0568 O   0  0  0  0  0  0  0  0  0  0  0  0
    9.8367  -16.8560   29.9942 C   0  0  0  0  0  0  0  0  0  0  0  0
    9.0242  -16.7192   28.8894 C   0  0  0  0  0  0  0  0  0  0  0  0
    9.3529  -15.8628   27.8518 C   0  0  0  0  0  0  0  0  0  0  0  0
   10.5159  -15.1279   27.9177 C   0  0  0  0  0  0  0  0  0  0  0  0
   10.9280  -14.2018   26.8401 C   0  0  0  0  0  0  0  0  0  0  0  0
   11.4106  -14.9079   25.5932 C   0  0  2  0  0  0  0  0  0  0  0  0
   10.2117  -15.3579   24.8702 N   0  0  0  0  0  0  0  0  0  0  0  0
   12.3144  -16.0408   25.8708 C   0  0  0  0  0  0  0  0  0  0  0  0
   11.9519  -17.2406   25.8365 O   0  0  0  0  0  0  0  0  0  0  0  0
   11.3246  -15.2673   29.0222 C   0  0  0  0  0  0  0  0  0  0  0  0
   10.9987  -16.1255   30.0660 C   0  0  0  0  0  0  0  0  0  0  0  0
   13.6359  -15.7738   26.1874 O   0  0  0  0  0  0  0  0  0  0  0  0
  2  1  1  1
  3  2  1  0
  4  2  1  0
  4  5  1  6
  6  4  1  0
  6  7  2  0
  8  6  1  0
  9  8  1  0
  9 10  1  6
 11 10  1  0
 12  9  1  0
 12 21  1  0
 13 12  2  0
 14 15  1  0
 15 25  2  0
 15 16  1  0
 16 17  2  0
 17 18  1  0
 18 19  1  0
 20 19  1  1
 20 22  1  0
 21 20  1  0
 22 23  2  0
 22 26  1  0
 24 18  2  0
 25 24  1  0
M  END
$$$$
