VCY.pdb
     RDKit          3D

 26 26  0  0  1  0  0  0  0  0999 V2000
    8.6523  -12.7926   20.8297 C   0  0  0  0  0  0  0  0  0  0  0  0
    7.7251  -13.6034   19.9697 C   0  0  1  0  0  0  0  0  0  0  0  0
    7.1536  -12.8012   18.8257 C   0  0  0  0  0  0  0  0  0  0  0  0
    8.3938  -14.8805   19.4541 C   0  0  2  0  0  0  0  0  0  0  0  0
    7.4456  -15.6126   18.6219 N   0  0  0  0  0  0  0  0  0  0  0  0
    8.7840  -15.6862   20.6238 C   0  0  0  0  0  0  0  0  0  0  0  0
    7.8912  -16.3113   21.2516 O   0  0  0  0  0  0  0  0  0  0  0  0
   10.0994  -15.8204   21.1097 N   0  0  0  0  0  0  0  0  0  0  0  0
   10.4824  -16.6834   22.1877 C   0  0  1  0  0  0  0  0  0  0  0  0
   11.8717  -17.2413   22.0520 C   0  0  0  0  0  0  0  0  0  0  0  0
   11.9238  -18.4568   20.7107 S   0  0  0  0  0  0  0  0  0  0  0  0
   10.3386  -16.0423   23.5189 C   0  0  0  0  0  0  0  0  0  0  0  0
   10.2402  -14.7711   23.6289 O   0  0  0  0  0  0  0  0  0  0  0  0
    6.2890  -10.8980   27.1422 O   0  0  0  0  0  0  0  0  0  0  0  0
    6.7153  -12.1600   26.7034 C   0  0  0  0  0  0  0  0  0  0  0  0
    5.9274  -12.9772   25.9218 C   0  0  0  0  0  0  0  0  0  0  0  0
    6.3699  -14.2200   25.5002 C   0  0  0  0  0  0  0  0  0  0  0  0
    7.6239  -14.6565   25.8657 C   0  0  0  0  0  0  0  0  0  0  0  0
    8.1526  -15.9759   25.4552 C   0  0  0  0  0  0  0  0  0  0  0  0
    9.5764  -16.2182   25.9027 C   0  0  2  0  0  0  0  0  0  0  0  0
   10.2983  -16.7621   24.7427 N   0  0  0  0  0  0  0  0  0  0  0  0
    9.6828  -17.1252   27.0617 C   0  0  0  0  0  0  0  0  0  0  0  0
    9.6113  -18.3739   26.9731 O   0  0  0  0  0  0  0  0  0  0  0  0
    8.4076  -13.8381   26.6463 C   0  0  0  0  0  0  0  0  0  0  0  0
    7.9678  -12.5899   27.0717 C   0  0  0  0  0  0  0  0  0  0  0  0
    9.8717  -16.5764   28.3191 O   0  0  0  0  0  0  0  0  0  0  0  0
  2  1  1  6
  3  2  1  0
  4  2  1  0
  4  5  1  6
  6  4  1  0
  6  7  2  0
  8  6  1  0
  9  8  1  0
  9 10  1  6
 11 10  1  0
 12  9  1  0
 12 21  1  0
 13 12  2  0
 14 15  1  0
 15 25  2  0
 15 16  1  0
 16 17  2  0
 17 18  1  0
 18 19  1  0
 20 19  1  6
 20 22  1  0
 21 20  1  0
 22 23  2  0
 22 26  1  0
 24 18  2  0
 25 24  1  0
M  END
$$$$
