VCY.pdb
     RDKit          3D

 26 26  0  0  1  0  0  0  0  0999 V2000
    7.5483  -15.8090   17.8544 C   0  0  0  0  0  0  0  0  0  0  0  0
    8.0133  -15.2980   19.1884 C   0  0  1  0  0  0  0  0  0  0  0  0
    9.4870  -14.9708   19.1965 C   0  0  0  0  0  0  0  0  0  0  0  0
    7.1897  -14.0962   19.6590 C   0  0  2  0  0  0  0  0  0  0  0  0
    7.4244  -12.9745   18.7566 N   0  0  0  0  0  0  0  0  0  0  0  0
    7.6265  -13.7603   21.0250 C   0  0  0  0  0  0  0  0  0  0  0  0
    8.5704  -12.9424   21.1734 O   0  0  0  0  0  0  0  0  0  0  0  0
    7.0654  -14.2871   22.2049 N   0  0  0  0  0  0  0  0  0  0  0  0
    7.5227  -13.9811   23.5281 C   0  0  1  0  0  0  0  0  0  0  0  0
    6.4423  -14.0440   24.5714 C   0  0  0  0  0  0  0  0  0  0  0  0
    7.1022  -13.5353   26.1792 S   0  0  0  0  0  0  0  0  0  0  0  0
    8.6658  -14.8273   23.9534 C   0  0  0  0  0  0  0  0  0  0  0  0
    8.6384  -16.0969   23.7948 O   0  0  0  0  0  0  0  0  0  0  0  0
   10.5806  -16.9006   31.3391 O   0  0  0  0  0  0  0  0  0  0  0  0
   10.7827  -16.2633   30.1062 C   0  0  0  0  0  0  0  0  0  0  0  0
   10.3084  -14.9966   29.8411 C   0  0  0  0  0  0  0  0  0  0  0  0
   10.5204  -14.3870   28.6157 C   0  0  0  0  0  0  0  0  0  0  0  0
   11.2198  -15.0546   27.6348 C   0  0  0  0  0  0  0  0  0  0  0  0
   11.4735  -14.4627   26.3029 C   0  0  0  0  0  0  0  0  0  0  0  0
   10.8221  -15.2265   25.1722 C   0  0  2  0  0  0  0  0  0  0  0  0
    9.8483  -14.3160   24.5515 N   0  0  0  0  0  0  0  0  0  0  0  0
   10.1711  -16.4778   25.6055 C   0  0  0  0  0  0  0  0  0  0  0  0
    9.0403  -16.5194   26.1454 O   0  0  0  0  0  0  0  0  0  0  0  0
   11.6916  -16.3190   27.9031 C   0  0  0  0  0  0  0  0  0  0  0  0
   11.4814  -16.9347   29.1315 C   0  0  0  0  0  0  0  0  0  0  0  0
   10.8379  -17.6756   25.4092 O   0  0  0  0  0  0  0  0  0  0  0  0
  2  1  1  6
  3  2  1  0
  4  2  1  0
  4  5  1  6
  6  4  1  0
  6  7  2  0
  8  6  1  0
  9  8  1  0
  9 10  1  1
 11 10  1  0
 12  9  1  0
 12 21  1  0
 13 12  2  0
 14 15  1  0
 15 25  2  0
 15 16  1  0
 16 17  2  0
 17 18  1  0
 18 19  1  0
 20 19  1  1
 20 22  1  0
 21 20  1  0
 22 23  2  0
 22 26  1  0
 24 18  2  0
 25 24  1  0
M  END
$$$$
