VCY.pdb
     RDKit          3D

 26 26  0  0  1  0  0  0  0  0999 V2000
    5.3729  -20.7357   24.4917 C   0  0  0  0  0  0  0  0  0  0  0  0
    6.3155  -19.8435   23.7351 C   0  0  1  0  0  0  0  0  0  0  0  0
    7.7381  -20.3473   23.7723 C   0  0  0  0  0  0  0  0  0  0  0  0
    5.8576  -19.6216   22.2911 C   0  0  2  0  0  0  0  0  0  0  0  0
    5.7923  -20.9090   21.6085 N   0  0  0  0  0  0  0  0  0  0  0  0
    6.8415  -18.7405   21.6389 C   0  0  0  0  0  0  0  0  0  0  0  0
    7.7597  -19.2619   20.9554 O   0  0  0  0  0  0  0  0  0  0  0  0
    6.8420  -17.3339   21.7158 N   0  0  0  0  0  0  0  0  0  0  0  0
    7.8380  -16.4891   21.1259 C   0  0  1  0  0  0  0  0  0  0  0  0
    7.2779  -15.4597   20.1844 C   0  0  0  0  0  0  0  0  0  0  0  0
    5.8662  -14.6224   20.9492 S   0  0  0  0  0  0  0  0  0  0  0  0
    8.6954  -15.8173   22.1344 C   0  0  0  0  0  0  0  0  0  0  0  0
    8.5302  -14.5804   22.4181 O   0  0  0  0  0  0  0  0  0  0  0  0
    5.3868  -13.0270   26.1458 O   0  0  0  0  0  0  0  0  0  0  0  0
    6.5575  -13.7526   25.8813 C   0  0  0  0  0  0  0  0  0  0  0  0
    6.5465  -15.1055   25.6184 C   0  0  0  0  0  0  0  0  0  0  0  0
    7.7157  -15.8013   25.3599 C   0  0  0  0  0  0  0  0  0  0  0  0
    8.9205  -15.1340   25.3637 C   0  0  0  0  0  0  0  0  0  0  0  0
   10.2050  -15.8200   25.1030 C   0  0  0  0  0  0  0  0  0  0  0  0
   10.6744  -15.6924   23.6714 C   0  0  2  0  0  0  0  0  0  0  0  0
    9.7366  -16.4694   22.8471 N   0  0  0  0  0  0  0  0  0  0  0  0
   12.0618  -16.1501   23.4639 C   0  0  0  0  0  0  0  0  0  0  0  0
   12.3632  -17.1658   22.7933 O   0  0  0  0  0  0  0  0  0  0  0  0
    8.9276  -13.7834   25.6268 C   0  0  0  0  0  0  0  0  0  0  0  0
    7.7566  -13.0808   25.8866 C   0  0  0  0  0  0  0  0  0  0  0  0
   13.0930  -15.4249   24.0371 O   0  0  0  0  0  0  0  0  0  0  0  0
  2  1  1  6
  3  2  1  0
  4  2  1  0
  4  5  1  6
  6  4  1  0
  6  7  2  0
  8  6  1  0
  9  8  1  0
  9 10  1  1
 11 10  1  0
 12  9  1  0
 12 21  1  0
 13 12  2  0
 14 15  1  0
 15 25  2  0
 15 16  1  0
 16 17  2  0
 17 18  1  0
 18 19  1  0
 20 19  1  1
 20 22  1  0
 21 20  1  0
 22 23  2  0
 22 26  1  0
 24 18  2  0
 25 24  1  0
M  END
$$$$
