VCY.pdb
     RDKit          3D

 26 26  0  0  1  0  0  0  0  0999 V2000
   11.8000  -17.3630   17.1337 C   0  0  0  0  0  0  0  0  0  0  0  0
   10.5953  -17.2134   16.2488 C   0  0  1  0  0  0  0  0  0  0  0  0
   10.9513  -17.2500   14.7823 C   0  0  0  0  0  0  0  0  0  0  0  0
    9.5174  -18.2522   16.5701 C   0  0  2  0  0  0  0  0  0  0  0  0
    8.4010  -18.0818   15.6471 N   0  0  0  0  0  0  0  0  0  0  0  0
    9.0786  -18.0286   17.9584 C   0  0  0  0  0  0  0  0  0  0  0  0
    8.4976  -16.9497   18.2419 O   0  0  0  0  0  0  0  0  0  0  0  0
    9.2569  -18.9391   19.0184 N   0  0  0  0  0  0  0  0  0  0  0  0
    8.7830  -18.7319   20.3548 C   0  0  1  0  0  0  0  0  0  0  0  0
    8.6258  -20.0012   21.1447 C   0  0  0  0  0  0  0  0  0  0  0  0
    7.0920  -20.8399   20.6724 S   0  0  0  0  0  0  0  0  0  0  0  0
    9.6207  -17.7765   21.1223 C   0  0  0  0  0  0  0  0  0  0  0  0
   10.8870  -17.7234   20.9451 O   0  0  0  0  0  0  0  0  0  0  0  0
    7.2282  -12.9495   17.6929 O   0  0  0  0  0  0  0  0  0  0  0  0
    7.6755  -13.3652   18.9555 C   0  0  0  0  0  0  0  0  0  0  0  0
    6.8331  -13.9241   19.8923 C   0  0  0  0  0  0  0  0  0  0  0  0
    7.2976  -14.3275   21.1331 C   0  0  0  0  0  0  0  0  0  0  0  0
    8.6297  -14.1700   21.4458 C   0  0  0  0  0  0  0  0  0  0  0  0
    9.1872  -14.5729   22.7556 C   0  0  0  0  0  0  0  0  0  0  0  0
    9.9787  -15.8600   22.7013 C   0  0  2  0  0  0  0  0  0  0  0  0
    9.1043  -16.8695   22.0857 N   0  0  0  0  0  0  0  0  0  0  0  0
   10.4574  -16.3127   24.0216 C   0  0  0  0  0  0  0  0  0  0  0  0
    9.9457  -17.2667   24.6542 O   0  0  0  0  0  0  0  0  0  0  0  0
    9.4676  -13.6115   20.5081 C   0  0  0  0  0  0  0  0  0  0  0  0
    9.0059  -13.2054   19.2614 C   0  0  0  0  0  0  0  0  0  0  0  0
   11.5290  -15.6541   24.6010 O   0  0  0  0  0  0  0  0  0  0  0  0
  2  1  1  1
  3  2  1  0
  4  2  1  0
  4  5  1  6
  6  4  1  0
  6  7  2  0
  8  6  1  0
  9  8  1  0
  9 10  1  1
 11 10  1  0
 12  9  1  0
 12 21  1  0
 13 12  2  0
 14 15  1  0
 15 25  2  0
 15 16  1  0
 16 17  2  0
 17 18  1  0
 18 19  1  0
 20 19  1  1
 20 22  1  0
 21 20  1  0
 22 23  2  0
 22 26  1  0
 24 18  2  0
 25 24  1  0
M  END
$$$$
