VCY.pdb
     RDKit          3D

 26 26  0  0  1  0  0  0  0  0999 V2000
    8.1475  -12.5879   21.5725 C   0  0  0  0  0  0  0  0  0  0  0  0
    7.5591  -13.3426   20.4145 C   0  0  1  0  0  0  0  0  0  0  0  0
    7.2805  -12.4504   19.2291 C   0  0  0  0  0  0  0  0  0  0  0  0
    8.4323  -14.5312   20.0038 C   0  0  2  0  0  0  0  0  0  0  0  0
    7.8661  -15.1488   18.8098 N   0  0  0  0  0  0  0  0  0  0  0  0
    8.4438  -15.4876   21.1241 C   0  0  0  0  0  0  0  0  0  0  0  0
    7.4068  -16.1613   21.3538 O   0  0  0  0  0  0  0  0  0  0  0  0
    9.5402  -15.7182   21.9780 N   0  0  0  0  0  0  0  0  0  0  0  0
    9.6219  -16.7936   22.9217 C   0  0  1  0  0  0  0  0  0  0  0  0
   10.5655  -17.8891   22.5104 C   0  0  0  0  0  0  0  0  0  0  0  0
    9.9043  -18.7704   21.0733 S   0  0  0  0  0  0  0  0  0  0  0  0
    9.9686  -16.3350   24.2903 C   0  0  0  0  0  0  0  0  0  0  0  0
   10.8619  -15.4378   24.4761 O   0  0  0  0  0  0  0  0  0  0  0  0
    6.0809  -11.2850   25.9683 O   0  0  0  0  0  0  0  0  0  0  0  0
    6.6811  -12.4922   26.3548 C   0  0  0  0  0  0  0  0  0  0  0  0
    6.1742  -13.7210   25.9903 C   0  0  0  0  0  0  0  0  0  0  0  0
    6.7843  -14.9004   26.3838 C   0  0  0  0  0  0  0  0  0  0  0  0
    7.9233  -14.8530   27.1567 C   0  0  0  0  0  0  0  0  0  0  0  0
    8.6181  -16.0756   27.6164 C   0  0  0  0  0  0  0  0  0  0  0  0
    9.8405  -16.4168   26.7946 C   0  0  2  0  0  0  0  0  0  0  0  0
    9.3573  -16.8361   25.4704 N   0  0  0  0  0  0  0  0  0  0  0  0
   10.6851  -17.4631   27.4024 C   0  0  0  0  0  0  0  0  0  0  0  0
   10.8112  -18.6156   26.9250 O   0  0  0  0  0  0  0  0  0  0  0  0
    8.4263  -13.6245   27.5188 C   0  0  0  0  0  0  0  0  0  0  0  0
    7.8174  -12.4382   27.1260 C   0  0  0  0  0  0  0  0  0  0  0  0
   11.3794  -17.1647   28.5629 O   0  0  0  0  0  0  0  0  0  0  0  0
  2  1  1  1
  3  2  1  0
  4  2  1  0
  4  5  1  6
  6  4  1  0
  6  7  2  0
  8  6  1  0
  9  8  1  0
  9 10  1  6
 11 10  1  0
 12  9  1  0
 12 21  1  0
 13 12  2  0
 14 15  1  0
 15 25  2  0
 15 16  1  0
 16 17  2  0
 17 18  1  0
 18 19  1  0
 20 19  1  1
 20 22  1  0
 21 20  1  0
 22 23  2  0
 22 26  1  0
 24 18  2  0
 25 24  1  0
M  END
$$$$
