VCY.pdb
     RDKit          3D

 26 26  0  0  1  0  0  0  0  0999 V2000
    8.5079  -12.8669   21.1730 C   0  0  0  0  0  0  0  0  0  0  0  0
    7.9900  -13.3497   19.8481 C   0  0  1  0  0  0  0  0  0  0  0  0
    8.1438  -12.3153   18.7594 C   0  0  0  0  0  0  0  0  0  0  0  0
    8.6343  -14.6744   19.4307 C   0  0  2  0  0  0  0  0  0  0  0  0
    8.0465  -15.1142   18.1703 N   0  0  0  0  0  0  0  0  0  0  0  0
    8.3687  -15.6574   20.4952 C   0  0  0  0  0  0  0  0  0  0  0  0
    7.5013  -16.5457   20.2944 O   0  0  0  0  0  0  0  0  0  0  0  0
    9.0173  -15.6891   21.7453 N   0  0  0  0  0  0  0  0  0  0  0  0
    8.8869  -16.7492   22.7007 C   0  0  1  0  0  0  0  0  0  0  0  0
    9.4296  -18.0664   22.2209 C   0  0  0  0  0  0  0  0  0  0  0  0
   11.1661  -17.8840   21.7408 S   0  0  0  0  0  0  0  0  0  0  0  0
    9.4916  -16.4186   24.0154 C   0  0  0  0  0  0  0  0  0  0  0  0
   10.6098  -15.8004   24.0876 O   0  0  0  0  0  0  0  0  0  0  0  0
    6.1028  -11.0472   25.7853 O   0  0  0  0  0  0  0  0  0  0  0  0
    6.6624  -12.2692   26.1861 C   0  0  0  0  0  0  0  0  0  0  0  0
    6.0135  -13.4728   26.0131 C   0  0  0  0  0  0  0  0  0  0  0  0
    6.5861  -14.6674   26.4169 C   0  0  0  0  0  0  0  0  0  0  0  0
    7.8314  -14.6613   27.0051 C   0  0  0  0  0  0  0  0  0  0  0  0
    8.4944  -15.9012   27.4654 C   0  0  0  0  0  0  0  0  0  0  0  0
    9.5698  -16.3928   26.5230 C   0  0  2  0  0  0  0  0  0  0  0  0
    8.8991  -16.7485   25.2635 N   0  0  0  0  0  0  0  0  0  0  0  0
   10.3380  -17.5363   27.0517 C   0  0  0  0  0  0  0  0  0  0  0  0
   10.2863  -18.6903   26.5643 O   0  0  0  0  0  0  0  0  0  0  0  0
    8.4761  -13.4578   27.1763 C   0  0  0  0  0  0  0  0  0  0  0  0
    7.9054  -12.2563   26.7725 C   0  0  0  0  0  0  0  0  0  0  0  0
   11.1630  -17.3331   28.1453 O   0  0  0  0  0  0  0  0  0  0  0  0
  2  1  1  1
  3  2  1  0
  4  2  1  0
  4  5  1  6
  6  4  1  0
  6  7  2  0
  8  6  1  0
  9  8  1  0
  9 10  1  6
 11 10  1  0
 12  9  1  0
 12 21  1  0
 13 12  2  0
 14 15  1  0
 15 25  2  0
 15 16  1  0
 16 17  2  0
 17 18  1  0
 18 19  1  0
 20 19  1  1
 20 22  1  0
 21 20  1  0
 22 23  2  0
 22 26  1  0
 24 18  2  0
 25 24  1  0
M  END
$$$$
