SPD.pdb
     RDKit          3D

 22 22  0  0  1  0  0  0  0  0999 V2000
    7.4698  -17.3497   17.5945 O   0  0  0  0  0  0  0  0  0  0  0  0
    8.5587  -17.3482   16.7528 C   0  0  0  0  0  0  0  0  0  0  0  0
    9.0865  -15.9086   16.6537 C   0  0  2  0  0  0  0  0  0  0  0  0
   10.2204  -15.9588   15.7802 N   0  0  0  0  0  0  0  0  0  0  0  0
    9.3901  -15.4668   18.0274 C   0  0  0  0  0  0  0  0  0  0  0  0
   10.3786  -16.0648   18.5851 O   0  0  0  0  0  0  0  0  0  0  0  0
    8.6804  -14.4623   18.7363 N   0  0  0  0  0  0  0  0  0  0  0  0
    7.6534  -13.6239   18.1690 C   0  0  0  0  0  0  0  0  0  0  0  0
    7.6077  -12.4060   19.1166 C   0  0  0  0  0  0  0  0  0  0  0  0
    7.8235  -13.1116   20.4250 C   0  0  0  0  0  0  0  0  0  0  0  0
    8.9004  -14.1035   20.0861 C   0  0  1  0  0  0  0  0  0  0  0  0
    8.8694  -15.2576   21.0286 C   0  0  0  0  0  0  0  0  0  0  0  0
    8.0927  -16.2003   20.7468 O   0  0  0  0  0  0  0  0  0  0  0  0
    9.6430  -15.3714   22.2045 N   0  0  0  0  0  0  0  0  0  0  0  0
   10.1684  -16.6537   22.6720 C   0  0  1  0  0  0  0  0  0  0  0  0
   11.1959  -17.1864   21.6820 C   0  0  0  0  0  0  0  0  0  0  0  0
   11.8750  -18.3847   22.1899 C   0  0  0  0  0  0  0  0  0  0  0  0
   11.2435  -19.4503   22.3588 O   0  0  0  0  0  0  0  0  0  0  0  0
   10.7908  -16.5457   23.9983 C   0  0  0  0  0  0  0  0  0  0  0  0
   10.8088  -17.5688   24.7258 O   0  0  0  0  0  0  0  0  0  0  0  0
   13.2363  -18.3383   22.4879 O   0  0  0  0  0  0  0  0  0  0  0  0
   11.3506  -15.3698   24.4667 O   0  0  0  0  0  0  0  0  0  0  0  0
  1  2  1  0
  3  2  1  0
  3  4  1  6
  3  5  1  0
  5  6  2  0
  7  5  1  0
  7 11  1  0
  8  7  1  0
  9  8  1  0
  9 10  1  0
 10 11  1  0
 11 12  1  1
 12 13  2  0
 12 14  1  0
 14 15  1  0
 15 16  1  6
 17 16  1  0
 17 18  2  0
 19 15  1  0
 19 22  1  0
 20 19  2  0
 21 17  1  0
M  END
$$$$
