SPD.pdb
     RDKit          3D

 22 22  0  0  1  0  0  0  0  0999 V2000
    7.7671  -12.0994   27.0237 O   0  0  0  0  0  0  0  0  0  0  0  0
    8.1806  -13.0984   26.1721 C   0  0  0  0  0  0  0  0  0  0  0  0
    6.9480  -13.9171   25.7584 C   0  0  2  0  0  0  0  0  0  0  0  0
    6.4822  -14.5653   26.9475 N   0  0  0  0  0  0  0  0  0  0  0  0
    7.3814  -14.8356   24.6893 C   0  0  0  0  0  0  0  0  0  0  0  0
    7.7679  -15.9917   25.0889 O   0  0  0  0  0  0  0  0  0  0  0  0
    7.3954  -14.5253   23.3040 N   0  0  0  0  0  0  0  0  0  0  0  0
    6.7809  -13.3615   22.7146 C   0  0  0  0  0  0  0  0  0  0  0  0
    6.5949  -13.7542   21.2332 C   0  0  0  0  0  0  0  0  0  0  0  0
    7.8689  -14.5226   21.0267 C   0  0  0  0  0  0  0  0  0  0  0  0
    7.9730  -15.3263   22.2922 C   0  0  1  0  0  0  0  0  0  0  0  0
    9.3890  -15.7065   22.5601 C   0  0  0  0  0  0  0  0  0  0  0  0
   10.0431  -14.9582   23.3241 O   0  0  0  0  0  0  0  0  0  0  0  0
   10.0452  -16.8369   22.0257 N   0  0  0  0  0  0  0  0  0  0  0  0
   11.3754  -17.2504   22.4714 C   0  0  1  0  0  0  0  0  0  0  0  0
   11.2729  -17.9835   23.8024 C   0  0  0  0  0  0  0  0  0  0  0  0
   12.5922  -18.3711   24.3167 C   0  0  0  0  0  0  0  0  0  0  0  0
   13.6343  -18.0297   23.7165 O   0  0  0  0  0  0  0  0  0  0  0  0
   12.0400  -18.1219   21.4933 C   0  0  0  0  0  0  0  0  0  0  0  0
   11.3973  -19.1035   21.0463 O   0  0  0  0  0  0  0  0  0  0  0  0
   12.6883  -19.1267   25.4845 O   0  0  0  0  0  0  0  0  0  0  0  0
   13.3335  -17.9006   21.0537 O   0  0  0  0  0  0  0  0  0  0  0  0
  1  2  1  0
  3  2  1  0
  3  4  1  1
  3  5  1  0
  5  6  2  0
  7  5  1  0
  7 11  1  0
  8  7  1  0
  9  8  1  0
  9 10  1  0
 10 11  1  0
 11 12  1  1
 12 13  2  0
 12 14  1  0
 14 15  1  0
 15 16  1  1
 17 16  1  0
 17 18  2  0
 19 15  1  0
 19 22  1  0
 20 19  2  0
 21 17  1  0
M  END
$$$$
