SPD.pdb
     RDKit          3D

 22 22  0  0  1  0  0  0  0  0999 V2000
    7.2179  -16.3885   21.1645 O   0  0  0  0  0  0  0  0  0  0  0  0
    6.7949  -15.0834   21.0539 C   0  0  0  0  0  0  0  0  0  0  0  0
    7.9815  -14.1648   21.3838 C   0  0  2  0  0  0  0  0  0  0  0  0
    9.0208  -14.5085   20.4602 N   0  0  0  0  0  0  0  0  0  0  0  0
    8.3206  -14.3930   22.8006 C   0  0  0  0  0  0  0  0  0  0  0  0
    9.3459  -15.1374   23.0014 O   0  0  0  0  0  0  0  0  0  0  0  0
    7.6067  -13.8597   23.9058 N   0  0  0  0  0  0  0  0  0  0  0  0
    6.5957  -12.8354   23.8162 C   0  0  0  0  0  0  0  0  0  0  0  0
    6.5434  -12.2446   25.2415 C   0  0  0  0  0  0  0  0  0  0  0  0
    6.7320  -13.5078   26.0322 C   0  0  0  0  0  0  0  0  0  0  0  0
    7.8068  -14.2183   25.2587 C   0  0  1  0  0  0  0  0  0  0  0  0
    7.7514  -15.6868   25.5069 C   0  0  0  0  0  0  0  0  0  0  0  0
    7.1284  -16.3812   24.6695 O   0  0  0  0  0  0  0  0  0  0  0  0
    8.3435  -16.3518   26.6029 N   0  0  0  0  0  0  0  0  0  0  0  0
    9.0752  -17.6089   26.4505 C   0  0  1  0  0  0  0  0  0  0  0  0
   10.0179  -17.5203   25.2576 C   0  0  0  0  0  0  0  0  0  0  0  0
   10.8408  -18.7281   25.1196 C   0  0  0  0  0  0  0  0  0  0  0  0
   10.3697  -19.8535   25.3923 O   0  0  0  0  0  0  0  0  0  0  0  0
    9.8512  -17.9461   27.6514 C   0  0  0  0  0  0  0  0  0  0  0  0
    9.7035  -19.0905   28.1463 O   0  0  0  0  0  0  0  0  0  0  0  0
   12.1601  -18.6237   24.6808 O   0  0  0  0  0  0  0  0  0  0  0  0
   10.7279  -17.0567   28.2479 O   0  0  0  0  0  0  0  0  0  0  0  0
  1  2  1  0
  3  2  1  0
  3  4  1  6
  3  5  1  0
  5  6  2  0
  7  5  1  0
  7 11  1  0
  8  7  1  0
  9  8  1  0
  9 10  1  0
 10 11  1  0
 11 12  1  6
 12 13  2  0
 12 14  1  0
 14 15  1  0
 15 16  1  6
 17 16  1  0
 17 18  2  0
 19 15  1  0
 19 22  1  0
 20 19  2  0
 21 17  1  0
M  END
$$$$
