SPD.pdb
     RDKit          3D

 22 22  0  0  1  0  0  0  0  0999 V2000
    7.4330  -17.3026   17.5389 O   0  0  0  0  0  0  0  0  0  0  0  0
    8.5114  -17.2245   16.6873 C   0  0  0  0  0  0  0  0  0  0  0  0
    8.9672  -15.7586   16.6234 C   0  0  2  0  0  0  0  0  0  0  0  0
   10.0613  -15.7210   15.6999 N   0  0  0  0  0  0  0  0  0  0  0  0
    9.3124  -15.3557   17.9992 C   0  0  0  0  0  0  0  0  0  0  0  0
   10.3459  -15.9341   18.4923 O   0  0  0  0  0  0  0  0  0  0  0  0
    8.5959  -14.4067   18.7748 N   0  0  0  0  0  0  0  0  0  0  0  0
    7.4560  -13.6557   18.3101 C   0  0  0  0  0  0  0  0  0  0  0  0
    7.4044  -12.4400   19.2602 C   0  0  0  0  0  0  0  0  0  0  0  0
    7.7997  -13.1188   20.5405 C   0  0  0  0  0  0  0  0  0  0  0  0
    8.9146  -14.0240   20.0981 C   0  0  1  0  0  0  0  0  0  0  0  0
    9.0658  -15.1716   21.0369 C   0  0  0  0  0  0  0  0  0  0  0  0
    8.2603  -16.1230   20.9052 O   0  0  0  0  0  0  0  0  0  0  0  0
   10.0400  -15.2703   22.0544 N   0  0  0  0  0  0  0  0  0  0  0  0
   10.0726  -16.3872   22.9980 C   0  0  1  0  0  0  0  0  0  0  0  0
   11.5143  -16.7230   23.3564 C   0  0  0  0  0  0  0  0  0  0  0  0
   12.3667  -16.8170   22.1649 C   0  0  0  0  0  0  0  0  0  0  0  0
   12.0849  -17.6121   21.2423 O   0  0  0  0  0  0  0  0  0  0  0  0
    9.3281  -16.0922   24.2296 C   0  0  0  0  0  0  0  0  0  0  0  0
    9.1426  -17.0290   25.0447 O   0  0  0  0  0  0  0  0  0  0  0  0
   13.5015  -16.0142   22.0573 O   0  0  0  0  0  0  0  0  0  0  0  0
    8.8310  -14.8332   24.5181 O   0  0  0  0  0  0  0  0  0  0  0  0
  1  2  1  0
  3  2  1  0
  3  4  1  6
  3  5  1  0
  5  6  2  0
  7  5  1  0
  7 11  1  0
  8  7  1  0
  9  8  1  0
  9 10  1  0
 10 11  1  0
 11 12  1  1
 12 13  2  0
 12 14  1  0
 14 15  1  0
 15 16  1  1
 17 16  1  0
 17 18  2  0
 19 15  1  0
 19 22  1  0
 20 19  2  0
 21 17  1  0
M  END
$$$$
