SPD.pdb
     RDKit          3D

 22 22  0  0  1  0  0  0  0  0999 V2000
    7.0207  -17.5312   15.8758 O   0  0  0  0  0  0  0  0  0  0  0  0
    7.9465  -17.2788   16.8625 C   0  0  0  0  0  0  0  0  0  0  0  0
    8.6378  -15.9446   16.5419 C   0  0  2  0  0  0  0  0  0  0  0  0
    9.6120  -16.2327   15.5323 N   0  0  0  0  0  0  0  0  0  0  0  0
    9.1986  -15.4363   17.8074 C   0  0  0  0  0  0  0  0  0  0  0  0
   10.3000  -15.9832   18.1728 O   0  0  0  0  0  0  0  0  0  0  0  0
    8.6131  -14.4216   18.6092 N   0  0  0  0  0  0  0  0  0  0  0  0
    7.4538  -13.6472   18.2405 C   0  0  0  0  0  0  0  0  0  0  0  0
    7.5581  -12.3855   19.1241 C   0  0  0  0  0  0  0  0  0  0  0  0
    8.0773  -13.0170   20.3842 C   0  0  0  0  0  0  0  0  0  0  0  0
    9.0992  -13.9884   19.8643 C   0  0  1  0  0  0  0  0  0  0  0  0
    9.3190  -15.0942   20.8390 C   0  0  0  0  0  0  0  0  0  0  0  0
    8.4414  -15.9878   20.8916 O   0  0  0  0  0  0  0  0  0  0  0  0
   10.4319  -15.2133   21.7001 N   0  0  0  0  0  0  0  0  0  0  0  0
   10.5368  -16.2782   22.6971 C   0  0  1  0  0  0  0  0  0  0  0  0
   12.0016  -16.6051   22.9563 C   0  0  0  0  0  0  0  0  0  0  0  0
   12.7415  -16.8284   21.7082 C   0  0  0  0  0  0  0  0  0  0  0  0
   12.5396  -17.8549   21.0239 O   0  0  0  0  0  0  0  0  0  0  0  0
    9.8948  -15.9120   23.9667 C   0  0  0  0  0  0  0  0  0  0  0  0
    9.5290  -14.7207   24.1199 O   0  0  0  0  0  0  0  0  0  0  0  0
   13.6789  -15.8899   21.2786 O   0  0  0  0  0  0  0  0  0  0  0  0
    9.6824  -16.8236   24.9861 O   0  0  0  0  0  0  0  0  0  0  0  0
  1  2  1  0
  3  2  1  0
  3  4  1  6
  3  5  1  0
  5  6  2  0
  7  5  1  0
  7 11  1  0
  8  7  1  0
  9  8  1  0
  9 10  1  0
 10 11  1  0
 11 12  1  1
 12 13  2  0
 12 14  1  0
 14 15  1  0
 15 16  1  1
 17 16  1  0
 17 18  2  0
 19 15  1  0
 19 22  1  0
 20 19  2  0
 21 17  1  0
M  END
$$$$
