SPD.pdb
     RDKit          3D

 22 22  0  0  1  0  0  0  0  0999 V2000
    9.3512  -14.0266   25.0401 O   0  0  0  0  0  0  0  0  0  0  0  0
    9.0809  -15.0735   24.1885 C   0  0  0  0  0  0  0  0  0  0  0  0
    7.6263  -14.9411   23.7118 C   0  0  2  0  0  0  0  0  0  0  0  0
    6.8623  -15.8589   24.5025 N   0  0  0  0  0  0  0  0  0  0  0  0
    7.6207  -15.2263   22.2651 C   0  0  0  0  0  0  0  0  0  0  0  0
    7.4945  -16.4648   21.9554 O   0  0  0  0  0  0  0  0  0  0  0  0
    7.7431  -14.2505   21.2412 N   0  0  0  0  0  0  0  0  0  0  0  0
    7.6995  -12.8248   21.4532 C   0  0  0  0  0  0  0  0  0  0  0  0
    7.3276  -12.2581   20.0661 C   0  0  0  0  0  0  0  0  0  0  0  0
    8.1215  -13.1964   19.2026 C   0  0  0  0  0  0  0  0  0  0  0  0
    7.8825  -14.5258   19.8614 C   0  0  1  0  0  0  0  0  0  0  0  0
    8.9860  -15.4764   19.5456 C   0  0  0  0  0  0  0  0  0  0  0  0
   10.1564  -15.0749   19.7465 O   0  0  0  0  0  0  0  0  0  0  0  0
    8.8164  -16.7852   19.0432 N   0  0  0  0  0  0  0  0  0  0  0  0
    9.9500  -17.6340   18.6781 C   0  0  1  0  0  0  0  0  0  0  0  0
   10.2153  -18.6499   19.7813 C   0  0  0  0  0  0  0  0  0  0  0  0
   11.5093  -18.4217   20.4358 C   0  0  0  0  0  0  0  0  0  0  0  0
   12.2665  -17.5064   20.0463 O   0  0  0  0  0  0  0  0  0  0  0  0
    9.7223  -18.3468   17.4138 C   0  0  0  0  0  0  0  0  0  0  0  0
    8.5835  -18.2696   16.8908 O   0  0  0  0  0  0  0  0  0  0  0  0
   11.9013  -19.2307   21.5016 O   0  0  0  0  0  0  0  0  0  0  0  0
   10.7076  -19.0905   16.7881 O   0  0  0  0  0  0  0  0  0  0  0  0
  1  2  1  0
  3  2  1  0
  3  4  1  1
  3  5  1  0
  5  6  2  0
  7  5  1  0
  7 11  1  0
  8  7  1  0
  9  8  1  0
  9 10  1  0
 10 11  1  0
 11 12  1  1
 12 13  2  0
 12 14  1  0
 14 15  1  0
 15 16  1  1
 17 16  1  0
 17 18  2  0
 19 15  1  0
 19 22  1  0
 20 19  2  0
 21 17  1  0
M  END
$$$$
