SPD.pdb
     RDKit          3D

 22 22  0  0  1  0  0  0  0  0999 V2000
    8.7085  -17.6077   16.7024 O   0  0  0  0  0  0  0  0  0  0  0  0
    8.0037  -16.4812   16.3439 C   0  0  0  0  0  0  0  0  0  0  0  0
    8.9859  -15.3016   16.2773 C   0  0  2  0  0  0  0  0  0  0  0  0
   10.0383  -15.7083   15.3951 N   0  0  0  0  0  0  0  0  0  0  0  0
    9.4179  -15.0236   17.6595 C   0  0  0  0  0  0  0  0  0  0  0  0
   10.5094  -15.5969   18.0139 O   0  0  0  0  0  0  0  0  0  0  0  0
    8.7235  -14.1949   18.5796 N   0  0  0  0  0  0  0  0  0  0  0  0
    7.4972  -13.4928   18.2921 C   0  0  0  0  0  0  0  0  0  0  0  0
    7.4633  -12.3652   19.3461 C   0  0  0  0  0  0  0  0  0  0  0  0
    8.0272  -13.1156   20.5188 C   0  0  0  0  0  0  0  0  0  0  0  0
    9.1479  -13.8991   19.8954 C   0  0  1  0  0  0  0  0  0  0  0  0
    9.4652  -15.1052   20.7113 C   0  0  0  0  0  0  0  0  0  0  0  0
    8.7877  -16.1361   20.4881 O   0  0  0  0  0  0  0  0  0  0  0  0
   10.4636  -15.1768   21.7073 N   0  0  0  0  0  0  0  0  0  0  0  0
   10.7119  -16.3951   22.4773 C   0  0  1  0  0  0  0  0  0  0  0  0
   12.1713  -16.4483   22.9098 C   0  0  0  0  0  0  0  0  0  0  0  0
   13.0853  -16.2982   21.7708 C   0  0  0  0  0  0  0  0  0  0  0  0
   13.9081  -15.3577   21.7352 O   0  0  0  0  0  0  0  0  0  0  0  0
    9.8552  -16.4809   23.6676 C   0  0  0  0  0  0  0  0  0  0  0  0
    9.2232  -15.4529   24.0141 O   0  0  0  0  0  0  0  0  0  0  0  0
   13.0385  -17.2103   20.7174 O   0  0  0  0  0  0  0  0  0  0  0  0
    9.7228  -17.6414   24.4101 O   0  0  0  0  0  0  0  0  0  0  0  0
  1  2  1  0
  3  2  1  0
  3  4  1  6
  3  5  1  0
  5  6  2  0
  7  5  1  0
  7 11  1  0
  8  7  1  0
  9  8  1  0
  9 10  1  0
 10 11  1  0
 11 12  1  1
 12 13  2  0
 12 14  1  0
 14 15  1  0
 15 16  1  1
 17 16  1  0
 17 18  2  0
 19 15  1  0
 19 22  1  0
 20 19  2  0
 21 17  1  0
M  END
$$$$
