SPD.pdb
     RDKit          3D

 22 22  0  0  1  0  0  0  0  0999 V2000
    8.5371  -17.5819   16.5313 O   0  0  0  0  0  0  0  0  0  0  0  0
    7.7353  -16.4977   16.2555 C   0  0  0  0  0  0  0  0  0  0  0  0
    8.6382  -15.2692   16.0654 C   0  0  2  0  0  0  0  0  0  0  0  0
    9.5543  -15.6058   15.0173 N   0  0  0  0  0  0  0  0  0  0  0  0
    9.2715  -14.9956   17.3687 C   0  0  0  0  0  0  0  0  0  0  0  0
   10.4219  -15.5373   17.5387 O   0  0  0  0  0  0  0  0  0  0  0  0
    8.7040  -14.2027   18.4005 N   0  0  0  0  0  0  0  0  0  0  0  0
    7.4538  -13.4913   18.2990 C   0  0  0  0  0  0  0  0  0  0  0  0
    7.5598  -12.4042   19.3901 C   0  0  0  0  0  0  0  0  0  0  0  0
    8.2662  -13.1977   20.4519 C   0  0  0  0  0  0  0  0  0  0  0  0
    9.2946  -13.9562   19.6613 C   0  0  1  0  0  0  0  0  0  0  0  0
    9.7089  -15.1920   20.3840 C   0  0  0  0  0  0  0  0  0  0  0  0
    8.9802  -16.2026   20.2449 O   0  0  0  0  0  0  0  0  0  0  0  0
   10.8511  -15.3124   21.2056 N   0  0  0  0  0  0  0  0  0  0  0  0
   11.1834  -16.5542   21.9030 C   0  0  1  0  0  0  0  0  0  0  0  0
   12.5432  -17.0617   21.4415 C   0  0  0  0  0  0  0  0  0  0  0  0
   12.9301  -18.2969   22.1340 C   0  0  0  0  0  0  0  0  0  0  0  0
   13.2890  -18.2694   23.3312 O   0  0  0  0  0  0  0  0  0  0  0  0
   11.2059  -16.3800   23.3616 C   0  0  0  0  0  0  0  0  0  0  0  0
   10.8591  -17.3522   24.0764 O   0  0  0  0  0  0  0  0  0  0  0  0
   12.8987  -19.5138   21.4541 O   0  0  0  0  0  0  0  0  0  0  0  0
   11.5914  -15.1963   23.9663 O   0  0  0  0  0  0  0  0  0  0  0  0
  1  2  1  0
  3  2  1  0
  3  4  1  6
  3  5  1  0
  5  6  2  0
  7  5  1  0
  7 11  1  0
  8  7  1  0
  9  8  1  0
  9 10  1  0
 10 11  1  0
 11 12  1  1
 12 13  2  0
 12 14  1  0
 14 15  1  0
 15 16  1  6
 17 16  1  0
 17 18  2  0
 19 15  1  0
 19 22  1  0
 20 19  2  0
 21 17  1  0
M  END
$$$$
