SPD.pdb
     RDKit          3D

 22 22  0  0  1  0  0  0  0  0999 V2000
    7.4357  -18.2091   18.4244 O   0  0  0  0  0  0  0  0  0  0  0  0
    6.7672  -17.1361   17.8802 C   0  0  0  0  0  0  0  0  0  0  0  0
    7.8091  -16.1065   17.4167 C   0  0  2  0  0  0  0  0  0  0  0  0
    8.5877  -16.7549   16.4044 N   0  0  0  0  0  0  0  0  0  0  0  0
    8.5727  -15.7004   18.6110 C   0  0  0  0  0  0  0  0  0  0  0  0
    9.6828  -16.3199   18.7834 O   0  0  0  0  0  0  0  0  0  0  0  0
    8.1655  -14.7074   19.5402 N   0  0  0  0  0  0  0  0  0  0  0  0
    6.9908  -13.8826   19.4019 C   0  0  0  0  0  0  0  0  0  0  0  0
    7.2861  -12.6672   20.3070 C   0  0  0  0  0  0  0  0  0  0  0  0
    7.9825  -13.3721   21.4359 C   0  0  0  0  0  0  0  0  0  0  0  0
    8.8679  -14.3480   20.7135 C   0  0  1  0  0  0  0  0  0  0  0  0
    9.2045  -15.5042   21.5917 C   0  0  0  0  0  0  0  0  0  0  0  0
    8.3171  -16.3756   21.7485 O   0  0  0  0  0  0  0  0  0  0  0  0
   10.4371  -15.6936   22.2541 N   0  0  0  0  0  0  0  0  0  0  0  0
   10.6939  -16.8524   23.1086 C   0  0  1  0  0  0  0  0  0  0  0  0
   11.8369  -17.6788   22.5339 C   0  0  0  0  0  0  0  0  0  0  0  0
   12.1775  -18.8164   23.3971 C   0  0  0  0  0  0  0  0  0  0  0  0
   11.2825  -19.5652   23.8453 O   0  0  0  0  0  0  0  0  0  0  0  0
   11.0288  -16.4614   24.4844 C   0  0  0  0  0  0  0  0  0  0  0  0
   11.4341  -15.2896   24.6819 O   0  0  0  0  0  0  0  0  0  0  0  0
   13.5099  -19.0673   23.7224 O   0  0  0  0  0  0  0  0  0  0  0  0
   10.9142  -17.3295   25.5562 O   0  0  0  0  0  0  0  0  0  0  0  0
  1  2  1  0
  3  2  1  0
  3  4  1  6
  3  5  1  0
  5  6  2  0
  7  5  1  0
  7 11  1  0
  8  7  1  0
  9  8  1  0
  9 10  1  0
 10 11  1  0
 11 12  1  1
 12 13  2  0
 12 14  1  0
 14 15  1  0
 15 16  1  6
 17 16  1  0
 17 18  2  0
 19 15  1  0
 19 22  1  0
 20 19  2  0
 21 17  1  0
M  END
$$$$
