SPD.pdb
     RDKit          3D

 22 22  0  0  1  0  0  0  0  0999 V2000
    8.0732  -18.0352   18.0707 O   0  0  0  0  0  0  0  0  0  0  0  0
    7.4957  -17.0641   17.2847 C   0  0  0  0  0  0  0  0  0  0  0  0
    8.5727  -16.0249   16.9371 C   0  0  2  0  0  0  0  0  0  0  0  0
    9.5279  -16.7012   16.1116 N   0  0  0  0  0  0  0  0  0  0  0  0
    9.1128  -15.5223   18.2138 C   0  0  0  0  0  0  0  0  0  0  0  0
   10.1274  -16.1645   18.6655 O   0  0  0  0  0  0  0  0  0  0  0  0
    8.5951  -14.4175   18.9396 N   0  0  0  0  0  0  0  0  0  0  0  0
    7.5285  -13.5604   18.4845 C   0  0  0  0  0  0  0  0  0  0  0  0
    7.7171  -12.2690   19.3093 C   0  0  0  0  0  0  0  0  0  0  0  0
    8.1264  -12.8787   20.6197 C   0  0  0  0  0  0  0  0  0  0  0  0
    9.0717  -13.9658   20.1918 C   0  0  1  0  0  0  0  0  0  0  0  0
    9.1495  -15.0345   21.2276 C   0  0  0  0  0  0  0  0  0  0  0  0
    8.2104  -15.8643   21.2592 O   0  0  0  0  0  0  0  0  0  0  0  0
   10.1923  -15.1848   22.1678 N   0  0  0  0  0  0  0  0  0  0  0  0
   10.2026  -16.2627   23.1562 C   0  0  1  0  0  0  0  0  0  0  0  0
   11.5986  -16.8638   23.2551 C   0  0  0  0  0  0  0  0  0  0  0  0
   12.0439  -17.4269   21.9746 C   0  0  0  0  0  0  0  0  0  0  0  0
   11.2854  -18.1605   21.3041 O   0  0  0  0  0  0  0  0  0  0  0  0
    9.7849  -15.7978   24.4856 C   0  0  0  0  0  0  0  0  0  0  0  0
    9.6813  -14.5605   24.6714 O   0  0  0  0  0  0  0  0  0  0  0  0
   13.3233  -17.1438   21.4983 O   0  0  0  0  0  0  0  0  0  0  0  0
    9.5054  -16.6662   25.5264 O   0  0  0  0  0  0  0  0  0  0  0  0
  1  2  1  0
  3  2  1  0
  3  4  1  6
  3  5  1  0
  5  6  2  0
  7  5  1  0
  7 11  1  0
  8  7  1  0
  9  8  1  0
  9 10  1  0
 10 11  1  0
 11 12  1  1
 12 13  2  0
 12 14  1  0
 14 15  1  0
 15 16  1  1
 17 16  1  0
 17 18  2  0
 19 15  1  0
 19 22  1  0
 20 19  2  0
 21 17  1  0
M  END
$$$$
