SEV.pdb
     RDKit          3D

 23 22  0  0  1  0  0  0  0  0999 V2000
   29.9278  -26.6635  -19.2104 O   0  0  0  0  0  0  0  0  0  0  0  0
   29.2041  -25.8306  -18.3788 C   0  0  0  0  0  0  0  0  0  0  0  0
   30.1014  -24.8068  -17.6922 C   0  0  2  0  0  0  0  0  0  0  0  0
   30.8621  -25.5062  -16.6993 N   0  0  0  0  0  0  0  0  0  0  0  0
   29.1806  -23.7935  -17.0601 C   0  0  0  0  0  0  0  0  0  0  0  0
   28.9118  -23.8423  -15.8369 O   0  0  0  0  0  0  0  0  0  0  0  0
   28.5900  -22.7592  -17.8133 N   0  0  0  0  0  0  0  0  0  0  0  0
   27.8218  -21.6671  -17.2059 C   0  0  1  0  0  0  0  0  0  0  0  0
   27.9579  -20.4247  -18.0448 C   0  0  0  0  0  0  0  0  0  0  0  0
   29.3506  -19.9166  -18.1317 C   0  0  0  0  0  0  0  0  0  0  0  0
   29.3926  -18.6789  -18.9798 C   0  0  0  0  0  0  0  0  0  0  0  0
   29.8159  -18.7581  -20.1483 O   0  0  0  0  0  0  0  0  0  0  0  0
   26.4067  -22.0366  -17.0694 C   0  0  0  0  0  0  0  0  0  0  0  0
   25.8056  -22.5583  -18.0342 O   0  0  0  0  0  0  0  0  0  0  0  0
   28.9742  -17.4612  -18.4943 O   0  0  0  0  0  0  0  0  0  0  0  0
   25.0927  -24.6544  -15.0873 C   0  0  0  0  0  0  0  0  0  0  0  0
   24.2208  -23.4877  -14.7815 C   0  0  1  0  0  0  0  0  0  0  0  0
   24.5369  -22.8891  -13.4263 C   0  0  0  0  0  0  0  0  0  0  0  0
   24.3259  -22.3687  -15.7962 C   0  0  2  0  0  0  0  0  0  0  0  0
   25.6604  -21.8311  -15.8752 N   0  0  0  0  0  0  0  0  0  0  0  0
   23.3584  -21.2888  -15.4562 C   0  0  0  0  0  0  0  0  0  0  0  0
   22.0021  -21.4501  -15.5717 O   0  0  0  0  0  0  0  0  0  0  0  0
   23.8017  -20.1973  -15.0513 O   0  0  0  0  0  0  0  0  0  0  0  0
  1  2  1  0
  3  5  1  0
  3  4  1  1
  3  2  1  0
  5  6  2  0
  7  8  1  0
  7  5  1  0
  8 13  1  0
  8  9  1  6
 10 11  1  0
 10  9  1  0
 11 15  1  0
 11 12  2  0
 13 14  2  0
 13 20  1  0
 17 18  1  1
 17 16  1  0
 19 17  1  0
 19 20  1  1
 21 19  1  0
 21 22  1  0
 23 21  2  0
M  END
$$$$
