SEV.pdb
     RDKit          3D

 23 22  0  0  1  0  0  0  0  0999 V2000
   15.0726  -11.4721  -15.8925 O   0  0  0  0  0  0  0  0  0  0  0  0
   15.5411  -11.0725  -14.6556 C   0  0  0  0  0  0  0  0  0  0  0  0
   17.0638  -10.9973  -14.6306 C   0  0  2  0  0  0  0  0  0  0  0  0
   17.5535  -12.3376  -14.4977 N   0  0  0  0  0  0  0  0  0  0  0  0
   17.4266  -10.1624  -13.4284 C   0  0  0  0  0  0  0  0  0  0  0  0
   17.3707  -10.6408  -12.2714 O   0  0  0  0  0  0  0  0  0  0  0  0
   17.8399   -8.8212  -13.5565 N   0  0  0  0  0  0  0  0  0  0  0  0
   18.4133   -8.0525  -12.4465 C   0  0  1  0  0  0  0  0  0  0  0  0
   19.6004   -7.2663  -12.9351 C   0  0  0  0  0  0  0  0  0  0  0  0
   20.2803   -6.4918  -11.8659 C   0  0  0  0  0  0  0  0  0  0  0  0
   21.4345   -5.7254  -12.4432 C   0  0  0  0  0  0  0  0  0  0  0  0
   22.4364   -6.3473  -12.8432 O   0  0  0  0  0  0  0  0  0  0  0  0
   17.4112   -7.1510  -11.8627 C   0  0  0  0  0  0  0  0  0  0  0  0
   16.7367   -6.4067  -12.6079 O   0  0  0  0  0  0  0  0  0  0  0  0
   21.4088   -4.3529  -12.5396 O   0  0  0  0  0  0  0  0  0  0  0  0
   14.2504   -7.8136  -10.2194 C   0  0  0  0  0  0  0  0  0  0  0  0
   14.9955   -6.8925   -9.3188 C   0  0  1  0  0  0  0  0  0  0  0  0
   15.5837   -7.6227   -8.1289 C   0  0  0  0  0  0  0  0  0  0  0  0
   16.1356   -6.1664  -10.0014 C   0  0  2  0  0  0  0  0  0  0  0  0
   17.1559   -7.0721  -10.4649 N   0  0  0  0  0  0  0  0  0  0  0  0
   16.7246   -5.1655   -9.0691 C   0  0  0  0  0  0  0  0  0  0  0  0
   16.0558   -4.0327   -8.6842 O   0  0  0  0  0  0  0  0  0  0  0  0
   17.8700   -5.3683   -8.6233 O   0  0  0  0  0  0  0  0  0  0  0  0
  1  2  1  0
  3  5  1  0
  3  4  1  1
  3  2  1  0
  5  6  2  0
  7  8  1  0
  7  5  1  0
  8 13  1  0
  8  9  1  6
 10 11  1  0
 10  9  1  0
 11 15  1  0
 11 12  2  0
 13 14  2  0
 13 20  1  0
 17 18  1  1
 17 16  1  0
 19 17  1  0
 19 20  1  1
 21 19  1  0
 21 22  1  0
 23 21  2  0
M  END
$$$$
