SEV.pdb
     RDKit          3D

 23 22  0  0  1  0  0  0  0  0999 V2000
   15.6735  -12.6483  -17.3594 O   0  0  0  0  0  0  0  0  0  0  0  0
   16.9736  -12.1808  -17.3435 C   0  0  0  0  0  0  0  0  0  0  0  0
   17.4109  -11.7882  -15.9366 C   0  0  2  0  0  0  0  0  0  0  0  0
   16.2405  -11.7973  -15.1095 N   0  0  0  0  0  0  0  0  0  0  0  0
   17.9909  -10.4004  -16.0454 C   0  0  0  0  0  0  0  0  0  0  0  0
   19.0206  -10.1844  -16.7265 O   0  0  0  0  0  0  0  0  0  0  0  0
   17.4032   -9.2995  -15.3909 N   0  0  0  0  0  0  0  0  0  0  0  0
   17.9116   -7.9295  -15.5191 C   0  0  1  0  0  0  0  0  0  0  0  0
   16.8181   -6.9504  -15.1849 C   0  0  0  0  0  0  0  0  0  0  0  0
   17.2433   -5.5306  -15.2791 C   0  0  0  0  0  0  0  0  0  0  0  0
   16.0924   -4.6276  -14.9430 C   0  0  0  0  0  0  0  0  0  0  0  0
   14.9954   -5.1311  -14.6368 O   0  0  0  0  0  0  0  0  0  0  0  0
   19.0701   -7.7177  -14.6413 C   0  0  0  0  0  0  0  0  0  0  0  0
   19.0012   -8.0383  -13.4343 O   0  0  0  0  0  0  0  0  0  0  0  0
   16.2237   -3.2580  -14.9660 O   0  0  0  0  0  0  0  0  0  0  0  0
   22.3792   -9.3027  -14.6298 C   0  0  0  0  0  0  0  0  0  0  0  0
   22.6019   -7.8315  -14.6019 C   0  0  1  0  0  0  0  0  0  0  0  0
   23.0073   -7.2981  -15.9606 C   0  0  0  0  0  0  0  0  0  0  0  0
   21.3879   -7.0420  -14.1595 C   0  0  2  0  0  0  0  0  0  0  0  0
   20.2967   -7.1555  -15.0936 N   0  0  0  0  0  0  0  0  0  0  0  0
   21.7579   -5.6111  -13.9759 C   0  0  0  0  0  0  0  0  0  0  0  0
   22.5282   -5.1768  -12.9286 O   0  0  0  0  0  0  0  0  0  0  0  0
   21.3500   -4.7787  -14.8081 O   0  0  0  0  0  0  0  0  0  0  0  0
  1  2  1  0
  3  5  1  0
  3  4  1  1
  3  2  1  0
  5  6  2  0
  7  8  1  0
  7  5  1  0
  8 13  1  0
  8  9  1  1
 10 11  1  0
 10  9  1  0
 11 15  1  0
 11 12  2  0
 13 14  2  0
 13 20  1  0
 17 18  1  6
 17 16  1  0
 19 17  1  0
 19 20  1  6
 21 19  1  0
 21 22  1  0
 23 21  2  0
M  END
$$$$
