SEV.pdb
     RDKit          3D

 23 22  0  0  1  0  0  0  0  0999 V2000
   14.9875   -6.1609   -8.9196 O   0  0  0  0  0  0  0  0  0  0  0  0
   14.1289   -6.8530   -9.7520 C   0  0  0  0  0  0  0  0  0  0  0  0
   14.4803   -8.3354   -9.8124 C   0  0  2  0  0  0  0  0  0  0  0  0
   14.5559   -8.8098   -8.4622 N   0  0  0  0  0  0  0  0  0  0  0  0
   15.8206   -8.4251  -10.4978 C   0  0  0  0  0  0  0  0  0  0  0  0
   16.8661   -8.6425   -9.8418 O   0  0  0  0  0  0  0  0  0  0  0  0
   15.9502   -8.2694  -11.8924 N   0  0  0  0  0  0  0  0  0  0  0  0
   17.2148   -8.4795  -12.6055 C   0  0  1  0  0  0  0  0  0  0  0  0
   16.9328   -8.8976  -14.0238 C   0  0  0  0  0  0  0  0  0  0  0  0
   16.3640  -10.2646  -14.1379 C   0  0  0  0  0  0  0  0  0  0  0  0
   16.1196  -10.5992  -15.5806 C   0  0  0  0  0  0  0  0  0  0  0  0
   17.0933  -10.8003  -16.3302 O   0  0  0  0  0  0  0  0  0  0  0  0
   18.0337   -7.2602  -12.5875 C   0  0  0  0  0  0  0  0  0  0  0  0
   17.4848   -6.1421  -12.7007 O   0  0  0  0  0  0  0  0  0  0  0  0
   14.8448  -10.6881  -16.0911 O   0  0  0  0  0  0  0  0  0  0  0  0
   20.0556   -5.7406   -9.8782 C   0  0  0  0  0  0  0  0  0  0  0  0
   20.9223   -5.8673  -11.0814 C   0  0  1  0  0  0  0  0  0  0  0  0
   21.8537   -7.0578  -10.9809 C   0  0  0  0  0  0  0  0  0  0  0  0
   20.1483   -6.0177  -12.3741 C   0  0  2  0  0  0  0  0  0  0  0  0
   19.4496   -7.2758  -12.4453 N   0  0  0  0  0  0  0  0  0  0  0  0
   21.0731   -5.8794  -13.5332 C   0  0  0  0  0  0  0  0  0  0  0  0
   21.7092   -4.7029  -13.8332 O   0  0  0  0  0  0  0  0  0  0  0  0
   21.2745   -6.8732  -14.2567 O   0  0  0  0  0  0  0  0  0  0  0  0
  1  2  1  0
  3  5  1  0
  3  4  1  1
  3  2  1  0
  5  6  2  0
  7  8  1  0
  7  5  1  0
  8 13  1  0
  8  9  1  6
 10 11  1  0
 10  9  1  0
 11 15  1  0
 11 12  2  0
 13 14  2  0
 13 20  1  0
 17 18  1  1
 17 16  1  0
 19 17  1  0
 19 20  1  1
 21 19  1  0
 21 22  1  0
 23 21  2  0
M  END
$$$$
