SEV.pdb
     RDKit          3D

 23 22  0  0  1  0  0  0  0  0999 V2000
   16.7279  -11.9592  -16.2257 O   0  0  0  0  0  0  0  0  0  0  0  0
   17.8375  -11.1761  -15.9713 C   0  0  0  0  0  0  0  0  0  0  0  0
   18.9990  -11.5337  -16.8920 C   0  0  2  0  0  0  0  0  0  0  0  0
   19.4893  -12.8156  -16.4796 N   0  0  0  0  0  0  0  0  0  0  0  0
   20.0412  -10.4618  -16.6945 C   0  0  0  0  0  0  0  0  0  0  0  0
   20.8009  -10.4781  -15.6978 O   0  0  0  0  0  0  0  0  0  0  0  0
   20.2015   -9.4072  -17.6153 N   0  0  0  0  0  0  0  0  0  0  0  0
   21.1701   -8.3219  -17.4262 C   0  0  1  0  0  0  0  0  0  0  0  0
   21.4428   -7.6510  -18.7458 C   0  0  0  0  0  0  0  0  0  0  0  0
   22.3761   -6.5002  -18.6451 C   0  0  0  0  0  0  0  0  0  0  0  0
   22.5640   -5.8731  -19.9958 C   0  0  0  0  0  0  0  0  0  0  0  0
   23.1087   -6.5329  -20.9006 O   0  0  0  0  0  0  0  0  0  0  0  0
   20.6738   -7.3427  -16.4503 C   0  0  0  0  0  0  0  0  0  0  0  0
   19.5256   -6.8640  -16.5803 O   0  0  0  0  0  0  0  0  0  0  0  0
   22.1480   -4.5872  -20.2547 O   0  0  0  0  0  0  0  0  0  0  0  0
   19.8127   -7.7745  -12.9809 C   0  0  0  0  0  0  0  0  0  0  0  0
   20.6925   -6.5750  -13.0249 C   0  0  1  0  0  0  0  0  0  0  0  0
   22.0906   -6.8843  -12.5303 C   0  0  0  0  0  0  0  0  0  0  0  0
   20.8340   -5.9763  -14.4086 C   0  0  2  0  0  0  0  0  0  0  0  0
   21.4406   -6.8950  -15.3382 N   0  0  0  0  0  0  0  0  0  0  0  0
   21.6322   -4.7213  -14.3345 C   0  0  0  0  0  0  0  0  0  0  0  0
   22.8648   -4.5953  -14.9208 O   0  0  0  0  0  0  0  0  0  0  0  0
   21.1589   -3.7497  -13.7151 O   0  0  0  0  0  0  0  0  0  0  0  0
  1  2  1  0
  3  5  1  0
  3  4  1  1
  3  2  1  0
  5  6  2  0
  7  8  1  0
  7  5  1  0
  8 13  1  0
  8  9  1  6
 10 11  1  0
 10  9  1  0
 11 15  1  0
 11 12  2  0
 13 14  2  0
 13 20  1  0
 17 18  1  6
 17 16  1  0
 19 17  1  0
 19 20  1  6
 21 19  1  0
 21 22  1  0
 23 21  2  0
M  END
$$$$
