SEV.pdb
     RDKit          3D

 23 22  0  0  1  0  0  0  0  0999 V2000
   28.4827  -24.5004  -16.2150 O   0  0  0  0  0  0  0  0  0  0  0  0
   28.4841  -25.6848  -16.9264 C   0  0  0  0  0  0  0  0  0  0  0  0
   29.1116  -25.5100  -18.3050 C   0  0  2  0  0  0  0  0  0  0  0  0
   28.2128  -24.7095  -19.0828 N   0  0  0  0  0  0  0  0  0  0  0  0
   29.2503  -26.8948  -18.8856 C   0  0  0  0  0  0  0  0  0  0  0  0
   28.5587  -27.2538  -19.8671 O   0  0  0  0  0  0  0  0  0  0  0  0
   30.1560  -27.8335  -18.3521 N   0  0  0  0  0  0  0  0  0  0  0  0
   30.3218  -29.1841  -18.8998 C   0  0  1  0  0  0  0  0  0  0  0  0
   31.5779  -29.2443  -19.7272 C   0  0  0  0  0  0  0  0  0  0  0  0
   31.8828  -30.6020  -20.2457 C   0  0  0  0  0  0  0  0  0  0  0  0
   32.7235  -30.5004  -21.4850 C   0  0  0  0  0  0  0  0  0  0  0  0
   33.0269  -31.5403  -22.0993 O   0  0  0  0  0  0  0  0  0  0  0  0
   30.3733  -30.1820  -17.8232 C   0  0  0  0  0  0  0  0  0  0  0  0
   31.1549  -30.0170  -16.8608 O   0  0  0  0  0  0  0  0  0  0  0  0
   33.1652  -29.2851  -21.9555 O   0  0  0  0  0  0  0  0  0  0  0  0
   27.6190  -31.2191  -15.5152 C   0  0  0  0  0  0  0  0  0  0  0  0
   28.2555  -32.4525  -16.0523 C   0  0  1  0  0  0  0  0  0  0  0  0
   27.4046  -33.1041  -17.1230 C   0  0  0  0  0  0  0  0  0  0  0  0
   29.6238  -32.2161  -16.6561 C   0  0  2  0  0  0  0  0  0  0  0  0
   29.5667  -31.3544  -17.8095 N   0  0  0  0  0  0  0  0  0  0  0  0
   30.2448  -33.5195  -17.0211 C   0  0  0  0  0  0  0  0  0  0  0  0
   30.7513  -34.3833  -16.0850 O   0  0  0  0  0  0  0  0  0  0  0  0
   30.3049  -33.8346  -18.2248 O   0  0  0  0  0  0  0  0  0  0  0  0
  1  2  1  0
  3  5  1  0
  3  4  1  6
  3  2  1  0
  5  6  2  0
  7  8  1  0
  7  5  1  0
  8 13  1  0
  8  9  1  1
 10 11  1  0
 10  9  1  0
 11 15  1  0
 11 12  2  0
 13 14  2  0
 13 20  1  0
 17 18  1  6
 17 16  1  0
 19 17  1  0
 19 20  1  6
 21 19  1  0
 21 22  1  0
 23 21  2  0
M  END
$$$$
