SEV.pdb
     RDKit          3D

 23 22  0  0  1  0  0  0  0  0999 V2000
   20.8087  -13.8640  -19.6739 O   0  0  0  0  0  0  0  0  0  0  0  0
   21.2168  -12.5440  -19.6758 C   0  0  0  0  0  0  0  0  0  0  0  0
   21.7964  -12.1345  -18.3263 C   0  0  2  0  0  0  0  0  0  0  0  0
   21.0944  -12.8747  -17.3199 N   0  0  0  0  0  0  0  0  0  0  0  0
   21.5451  -10.6539  -18.1894 C   0  0  0  0  0  0  0  0  0  0  0  0
   22.1887   -9.8254  -18.8750 O   0  0  0  0  0  0  0  0  0  0  0  0
   20.5841  -10.1465  -17.2922 N   0  0  0  0  0  0  0  0  0  0  0  0
   20.2114   -8.7288  -17.2387 C   0  0  1  0  0  0  0  0  0  0  0  0
   18.7908   -8.5965  -16.7584 C   0  0  0  0  0  0  0  0  0  0  0  0
   18.3179   -7.1908  -16.6836 C   0  0  0  0  0  0  0  0  0  0  0  0
   16.9098   -7.1508  -16.1651 C   0  0  0  0  0  0  0  0  0  0  0  0
   16.0592   -6.4725  -16.7710 O   0  0  0  0  0  0  0  0  0  0  0  0
   21.1184   -7.9829  -16.3563 C   0  0  0  0  0  0  0  0  0  0  0  0
   21.5605   -8.5248  -15.3194 O   0  0  0  0  0  0  0  0  0  0  0  0
   16.5400   -7.8463  -15.0368 O   0  0  0  0  0  0  0  0  0  0  0  0
   23.0909   -4.3449  -17.5343 C   0  0  0  0  0  0  0  0  0  0  0  0
   23.6287   -5.3718  -16.6010 C   0  0  1  0  0  0  0  0  0  0  0  0
   24.6174   -4.7771  -15.6193 C   0  0  0  0  0  0  0  0  0  0  0  0
   22.5607   -6.0708  -15.7864 C   0  0  2  0  0  0  0  0  0  0  0  0
   21.5344   -6.6473  -16.6174 N   0  0  0  0  0  0  0  0  0  0  0  0
   21.9577   -5.1122  -14.8192 C   0  0  0  0  0  0  0  0  0  0  0  0
   22.5568   -4.7899  -13.6292 O   0  0  0  0  0  0  0  0  0  0  0  0
   20.8664   -4.5841  -15.1054 O   0  0  0  0  0  0  0  0  0  0  0  0
  1  2  1  0
  3  5  1  0
  3  4  1  1
  3  2  1  0
  5  6  2  0
  7  8  1  0
  7  5  1  0
  8 13  1  0
  8  9  1  1
 10 11  1  0
 10  9  1  0
 11 15  1  0
 11 12  2  0
 13 14  2  0
 13 20  1  0
 17 18  1  1
 17 16  1  0
 19 17  1  0
 19 20  1  6
 21 19  1  0
 21 22  1  0
 23 21  2  0
M  END
$$$$
