SEV.pdb
     RDKit          3D

 23 22  0  0  1  0  0  0  0  0999 V2000
   13.5716  -11.1894  -12.9741 O   0  0  0  0  0  0  0  0  0  0  0  0
   14.8068  -11.2804  -13.5864 C   0  0  0  0  0  0  0  0  0  0  0  0
   14.6789  -11.6986  -15.0471 C   0  0  2  0  0  0  0  0  0  0  0  0
   14.2739  -13.0732  -15.0619 N   0  0  0  0  0  0  0  0  0  0  0  0
   16.0469  -11.5265  -15.6580 C   0  0  0  0  0  0  0  0  0  0  0  0
   16.8393  -12.4935  -15.7458 O   0  0  0  0  0  0  0  0  0  0  0  0
   16.4858  -10.2813  -16.1507 N   0  0  0  0  0  0  0  0  0  0  0  0
   17.8074  -10.0823  -16.7551 C   0  0  1  0  0  0  0  0  0  0  0  0
   17.6891   -9.1602  -17.9391 C   0  0  0  0  0  0  0  0  0  0  0  0
   17.0346   -9.7861  -19.1160 C   0  0  0  0  0  0  0  0  0  0  0  0
   16.9872   -8.8101  -20.2554 C   0  0  0  0  0  0  0  0  0  0  0  0
   17.5185   -7.6922  -20.1192 O   0  0  0  0  0  0  0  0  0  0  0  0
   18.7531   -9.5327  -15.7746 C   0  0  0  0  0  0  0  0  0  0  0  0
   18.3255   -8.8712  -14.8031 O   0  0  0  0  0  0  0  0  0  0  0  0
   16.3702   -9.1241  -21.4447 O   0  0  0  0  0  0  0  0  0  0  0  0
   23.1868   -9.5192  -13.6045 C   0  0  0  0  0  0  0  0  0  0  0  0
   22.2451  -10.0618  -14.6211 C   0  0  1  0  0  0  0  0  0  0  0  0
   21.8047  -11.4716  -14.2843 C   0  0  0  0  0  0  0  0  0  0  0  0
   20.9890   -9.2329  -14.7887 C   0  0  2  0  0  0  0  0  0  0  0  0
   20.1617   -9.7127  -15.8665 N   0  0  0  0  0  0  0  0  0  0  0  0
   21.3538   -7.8075  -15.0190 C   0  0  0  0  0  0  0  0  0  0  0  0
   21.6532   -6.9479  -13.9942 O   0  0  0  0  0  0  0  0  0  0  0  0
   21.3874   -7.3826  -16.1895 O   0  0  0  0  0  0  0  0  0  0  0  0
  1  2  1  0
  3  5  1  0
  3  4  1  1
  3  2  1  0
  5  6  2  0
  7  8  1  0
  7  5  1  0
  8 13  1  0
  8  9  1  6
 10 11  1  0
 10  9  1  0
 11 15  1  0
 11 12  2  0
 13 14  2  0
 13 20  1  0
 17 18  1  1
 17 16  1  0
 19 17  1  0
 19 20  1  6
 21 19  1  0
 21 22  1  0
 23 21  2  0
M  END
$$$$
