DRC.pdb
     RDKit          3D

 26 25  0  0  1  0  0  0  0  0999 V2000
   18.9638  -10.6904  -18.2992 N   0  0  0  0  0  0  0  0  0  0  0  0
   19.5967  -10.7111  -16.9715 C   0  0  1  0  0  0  0  0  0  0  0  0
   21.0673  -10.4532  -17.1955 C   0  0  0  0  0  0  0  0  0  0  0  0
   21.6503  -11.6294  -17.8814 C   0  0  0  0  0  0  0  0  0  0  0  0
   22.3381  -11.4553  -18.9077 O   0  0  0  0  0  0  0  0  0  0  0  0
   18.9898   -9.6856  -16.0892 C   0  0  0  0  0  0  0  0  0  0  0  0
   18.7314   -8.5433  -16.5671 O   0  0  0  0  0  0  0  0  0  0  0  0
   21.4390  -12.9169  -17.3941 O   0  0  0  0  0  0  0  0  0  0  0  0
   13.7793  -10.7868   -9.3273 N   0  0  0  0  0  0  0  0  0  0  0  0
   13.7441  -10.6695  -10.7555 C   0  0  0  0  0  0  0  0  0  0  0  0
   12.7736  -11.1975  -11.4082 N   0  0  0  0  0  0  0  0  0  0  0  0
   14.7690   -9.9782  -11.4495 N   0  0  0  0  0  0  0  0  0  0  0  0
   15.8616   -9.3193  -10.7647 C   0  0  0  0  0  0  0  0  0  0  0  0
   16.7344   -8.6239  -11.8136 C   0  0  0  0  0  0  0  0  0  0  0  0
   17.3417   -9.6199  -12.7522 C   0  0  0  0  0  0  0  0  0  0  0  0
   18.1156   -8.9504  -13.8329 C   0  0  2  0  0  0  0  0  0  0  0  0
   18.6954   -9.9458  -14.7457 N   0  0  0  0  0  0  0  0  0  0  0  0
   19.1739   -8.0509  -13.3377 C   0  0  0  0  0  0  0  0  0  0  0  0
   20.1838   -8.4405  -12.7128 O   0  0  0  0  0  0  0  0  0  0  0  0
   12.6215  -11.0509  -12.4230 N   0  0  0  0  0  0  0  0  0  0  0  0
   19.0942   -6.6211  -13.5576 C   0  0  1  0  0  0  0  0  0  0  0  0
   20.1983   -5.7535  -13.1876 C   0  0  0  0  0  0  0  0  0  0  0  0
   21.4909   -6.2028  -13.8460 S   0  0  0  0  0  0  0  0  0  0  0  0
   22.8296   -5.0025  -13.5724 C   0  0  0  0  0  0  0  0  0  0  0  0
   19.9053   -4.3498  -13.5350 O   0  0  0  0  0  0  0  0  0  0  0  0
   20.7009   -3.3711  -12.9289 O   0  0  0  0  0  0  0  0  0  0  0  0
  2  1  1  6
  3  2  1  0
  3  4  1  0
  4  8  1  0
  4  5  2  0
  6  2  1  0
  6  7  2  0
  9 10  1  0
 10 11  2  0
 10 12  1  0
 12 13  1  0
 14 15  1  0
 14 13  1  0
 16 15  1  1
 16 17  1  0
 17  6  1  0
 18 16  1  0
 19 18  2  0
 20 18  1  0
 21 20  1  0
 21 24  1  0
 21 22  1  1
 23 22  1  0
 24 25  1  0
 26 24  2  0
M  END
$$$$
