DRC.pdb
     RDKit          3D

 26 25  0  0  1  0  0  0  0  0999 V2000
   28.0430  -18.9258  -16.5058 N   0  0  0  0  0  0  0  0  0  0  0  0
   26.8857  -19.6768  -17.0162 C   0  0  1  0  0  0  0  0  0  0  0  0
   27.4096  -20.5780  -18.1082 C   0  0  0  0  0  0  0  0  0  0  0  0
   28.2076  -19.7589  -19.0495 C   0  0  0  0  0  0  0  0  0  0  0  0
   27.6772  -18.7701  -19.5949 O   0  0  0  0  0  0  0  0  0  0  0  0
   26.2467  -20.4527  -15.9262 C   0  0  0  0  0  0  0  0  0  0  0  0
   25.2905  -21.2310  -16.2091 O   0  0  0  0  0  0  0  0  0  0  0  0
   29.5338  -20.0805  -19.3281 O   0  0  0  0  0  0  0  0  0  0  0  0
   30.2154  -22.7243   -9.4553 N   0  0  0  0  0  0  0  0  0  0  0  0
   29.4020  -21.6048   -9.0815 C   0  0  0  0  0  0  0  0  0  0  0  0
   29.8008  -20.8184   -8.1491 N   0  0  0  0  0  0  0  0  0  0  0  0
   28.1654  -21.3609   -9.7305 N   0  0  0  0  0  0  0  0  0  0  0  0
   27.3197  -22.4314  -10.2164 C   0  0  0  0  0  0  0  0  0  0  0  0
   26.2716  -21.8255  -11.1543 C   0  0  0  0  0  0  0  0  0  0  0  0
   26.9230  -21.1246  -12.3059 C   0  0  0  0  0  0  0  0  0  0  0  0
   26.0075  -21.0287  -13.4754 C   0  0  2  0  0  0  0  0  0  0  0  0
   26.6711  -20.3482  -14.5964 N   0  0  0  0  0  0  0  0  0  0  0  0
   24.7262  -20.3633  -13.1754 C   0  0  0  0  0  0  0  0  0  0  0  0
   24.6210  -19.1523  -12.8842 O   0  0  0  0  0  0  0  0  0  0  0  0
   29.2850  -19.9667   -7.8610 N   0  0  0  0  0  0  0  0  0  0  0  0
   23.4817  -21.1044  -13.2037 C   0  0  1  0  0  0  0  0  0  0  0  0
   22.2159  -20.4333  -12.9667 C   0  0  0  0  0  0  0  0  0  0  0  0
   21.7412  -19.7061  -14.2126 S   0  0  0  0  0  0  0  0  0  0  0  0
   20.6221  -18.3341  -13.7968 C   0  0  0  0  0  0  0  0  0  0  0  0
   21.1902  -21.3892  -12.5073 O   0  0  0  0  0  0  0  0  0  0  0  0
   20.2218  -20.8986  -11.6242 O   0  0  0  0  0  0  0  0  0  0  0  0
  2  1  1  1
  3  2  1  0
  3  4  1  0
  4  8  1  0
  4  5  2  0
  6  2  1  0
  6  7  2  0
  9 10  1  0
 10 11  2  0
 10 12  1  0
 12 13  1  0
 14 15  1  0
 14 13  1  0
 16 15  1  1
 16 17  1  0
 17  6  1  0
 18 16  1  0
 19 18  2  0
 20 18  1  0
 21 20  1  0
 21 24  1  0
 21 22  1  1
 23 22  1  0
 24 25  1  0
 26 24  2  0
M  END
$$$$
