DRC.pdb
     RDKit          3D

 26 25  0  0  1  0  0  0  0  0999 V2000
   24.5379  -25.3778  -16.0940 N   0  0  0  0  0  0  0  0  0  0  0  0
   24.9419  -24.0982  -15.4913 C   0  0  1  0  0  0  0  0  0  0  0  0
   26.0099  -23.5217  -16.3892 C   0  0  0  0  0  0  0  0  0  0  0  0
   27.2363  -24.3395  -16.2437 C   0  0  0  0  0  0  0  0  0  0  0  0
   27.1898  -25.3907  -15.5734 O   0  0  0  0  0  0  0  0  0  0  0  0
   23.7775  -23.1881  -15.3722 C   0  0  0  0  0  0  0  0  0  0  0  0
   22.8709  -23.2366  -16.2530 O   0  0  0  0  0  0  0  0  0  0  0  0
   28.4305  -23.9480  -16.8441 O   0  0  0  0  0  0  0  0  0  0  0  0
   18.7411  -23.4807   -9.1145 N   0  0  0  0  0  0  0  0  0  0  0  0
   18.6579  -24.2079  -10.3470 C   0  0  0  0  0  0  0  0  0  0  0  0
   17.8132  -25.1676  -10.4575 N   0  0  0  0  0  0  0  0  0  0  0  0
   19.4983  -23.8770  -11.4397 N   0  0  0  0  0  0  0  0  0  0  0  0
   20.3180  -22.6833  -11.4545 C   0  0  0  0  0  0  0  0  0  0  0  0
   21.0005  -22.5879  -12.8222 C   0  0  0  0  0  0  0  0  0  0  0  0
   21.8933  -21.3881  -12.8940 C   0  0  0  0  0  0  0  0  0  0  0  0
   22.5712  -21.2902  -14.2154 C   0  0  2  0  0  0  0  0  0  0  0  0
   23.6539  -22.2791  -14.3149 N   0  0  0  0  0  0  0  0  0  0  0  0
   23.0941  -19.9451  -14.5180 C   0  0  0  0  0  0  0  0  0  0  0  0
   22.3993  -18.9062  -14.4978 O   0  0  0  0  0  0  0  0  0  0  0  0
   17.7338  -25.7639  -11.3016 N   0  0  0  0  0  0  0  0  0  0  0  0
   24.4872  -19.7525  -14.8660 C   0  0  1  0  0  0  0  0  0  0  0  0
   24.9898  -18.4320  -15.2013 C   0  0  0  0  0  0  0  0  0  0  0  0
   26.2989  -18.1476  -14.4860 S   0  0  0  0  0  0  0  0  0  0  0  0
   27.0250  -16.5708  -15.0282 C   0  0  0  0  0  0  0  0  0  0  0  0
   25.1589  -18.2867  -16.6598 O   0  0  0  0  0  0  0  0  0  0  0  0
   25.5737  -17.0337  -17.1246 O   0  0  0  0  0  0  0  0  0  0  0  0
  2  1  1  6
  3  2  1  0
  3  4  1  0
  4  8  1  0
  4  5  2  0
  6  2  1  0
  6  7  2  0
  9 10  1  0
 10 11  2  0
 10 12  1  0
 12 13  1  0
 14 15  1  0
 14 13  1  0
 16 15  1  1
 16 17  1  0
 17  6  1  0
 18 16  1  0
 19 18  2  0
 20 18  1  0
 21 20  1  0
 21 24  1  0
 21 22  1  6
 23 22  1  0
 24 25  1  0
 26 24  2  0
M  END
$$$$
