DRC.pdb
     RDKit          3D

 26 25  0  0  1  0  0  0  0  0999 V2000
   14.7313   -7.3748   -8.1143 N   0  0  0  0  0  0  0  0  0  0  0  0
   15.2747   -6.6242   -9.2567 C   0  0  1  0  0  0  0  0  0  0  0  0
   15.8965   -5.3716   -8.6876 C   0  0  0  0  0  0  0  0  0  0  0  0
   14.8093   -4.4638   -8.2544 C   0  0  0  0  0  0  0  0  0  0  0  0
   14.9172   -3.8621   -7.1668 O   0  0  0  0  0  0  0  0  0  0  0  0
   16.2685   -7.4426   -9.9923 C   0  0  0  0  0  0  0  0  0  0  0  0
   17.0571   -8.1825   -9.3362 O   0  0  0  0  0  0  0  0  0  0  0  0
   13.6775   -4.2777   -9.0445 O   0  0  0  0  0  0  0  0  0  0  0  0
   17.5096  -12.5331  -17.1090 N   0  0  0  0  0  0  0  0  0  0  0  0
   16.9240  -12.9065  -15.8551 C   0  0  0  0  0  0  0  0  0  0  0  0
   16.8219  -14.1492  -15.5516 N   0  0  0  0  0  0  0  0  0  0  0  0
   16.4581  -11.9180  -14.9518 N   0  0  0  0  0  0  0  0  0  0  0  0
   16.5835  -10.5006  -15.2205 C   0  0  0  0  0  0  0  0  0  0  0  0
   17.3680   -9.8626  -14.0703 C   0  0  0  0  0  0  0  0  0  0  0  0
   16.4715   -9.0328  -13.2046 C   0  0  0  0  0  0  0  0  0  0  0  0
   17.2426   -8.3024  -12.1620 C   0  0  2  0  0  0  0  0  0  0  0  0
   16.3579   -7.4192  -11.3891 N   0  0  0  0  0  0  0  0  0  0  0  0
   18.3791   -7.5285  -12.6948 C   0  0  0  0  0  0  0  0  0  0  0  0
   18.2552   -6.5022  -13.3975 O   0  0  0  0  0  0  0  0  0  0  0  0
   16.3767  -14.4891  -14.6793 N   0  0  0  0  0  0  0  0  0  0  0  0
   19.7435   -7.9319  -12.4217 C   0  0  2  0  0  0  0  0  0  0  0  0
   20.8597   -7.1359  -12.9004 C   0  0  0  0  0  0  0  0  0  0  0  0
   22.1175   -7.4203  -12.0984 S   0  0  0  0  0  0  0  0  0  0  0  0
   21.9425   -6.8784  -10.3712 C   0  0  0  0  0  0  0  0  0  0  0  0
   21.1006   -7.3752  -14.3363 O   0  0  0  0  0  0  0  0  0  0  0  0
   20.4541   -8.4762  -14.9090 O   0  0  0  0  0  0  0  0  0  0  0  0
  2  1  1  1
  3  2  1  0
  3  4  1  0
  4  8  1  0
  4  5  2  0
  6  2  1  0
  6  7  2  0
  9 10  1  0
 10 11  2  0
 10 12  1  0
 12 13  1  0
 14 15  1  0
 14 13  1  0
 16 15  1  6
 16 17  1  0
 17  6  1  0
 18 16  1  0
 19 18  2  0
 20 18  1  0
 21 20  1  0
 21 24  1  0
 21 22  1  1
 23 22  1  0
 24 25  1  0
 26 24  2  0
M  END
$$$$
