DRC.pdb
     RDKit          3D

 26 25  0  0  1  0  0  0  0  0999 V2000
   17.8960  -29.8068   -9.0591 N   0  0  0  0  0  0  0  0  0  0  0  0
   17.1706  -29.9955   -7.7934 C   0  0  1  0  0  0  0  0  0  0  0  0
   17.4814  -31.3978   -7.3282 C   0  0  0  0  0  0  0  0  0  0  0  0
   16.2397  -32.2019   -7.4012 C   0  0  0  0  0  0  0  0  0  0  0  0
   16.1862  -33.1670   -8.1899 O   0  0  0  0  0  0  0  0  0  0  0  0
   17.5914  -28.9824   -6.7959 C   0  0  0  0  0  0  0  0  0  0  0  0
   18.8179  -28.8864   -6.5020 O   0  0  0  0  0  0  0  0  0  0  0  0
   15.1410  -31.8923   -6.6031 O   0  0  0  0  0  0  0  0  0  0  0  0
   16.6257  -22.9500   -7.9490 N   0  0  0  0  0  0  0  0  0  0  0  0
   15.3426  -23.2110   -8.5325 C   0  0  0  0  0  0  0  0  0  0  0  0
   15.1327  -22.9005   -9.7598 N   0  0  0  0  0  0  0  0  0  0  0  0
   14.3081  -23.8064   -7.7675 N   0  0  0  0  0  0  0  0  0  0  0  0
   14.5378  -24.3582   -6.4485 C   0  0  0  0  0  0  0  0  0  0  0  0
   15.7398  -25.3039   -6.5276 C   0  0  0  0  0  0  0  0  0  0  0  0
   15.9538  -26.0101   -5.2248 C   0  0  0  0  0  0  0  0  0  0  0  0
   17.0600  -27.0015   -5.3163 C   0  0  2  0  0  0  0  0  0  0  0  0
   16.6715  -28.1314   -6.1722 N   0  0  0  0  0  0  0  0  0  0  0  0
   17.5210  -27.5017   -4.0079 C   0  0  0  0  0  0  0  0  0  0  0  0
   16.8744  -28.3051   -3.3016 O   0  0  0  0  0  0  0  0  0  0  0  0
   14.2323  -23.0683  -10.2452 N   0  0  0  0  0  0  0  0  0  0  0  0
   18.7898  -27.0728   -3.4557 C   0  0  2  0  0  0  0  0  0  0  0  0
   19.1614  -27.4246   -2.0967 C   0  0  0  0  0  0  0  0  0  0  0  0
   20.4788  -26.7783   -1.7056 S   0  0  0  0  0  0  0  0  0  0  0  0
   20.9208  -27.1575    0.0173 C   0  0  0  0  0  0  0  0  0  0  0  0
   18.1000  -27.0450   -1.1447 O   0  0  0  0  0  0  0  0  0  0  0  0
   17.4433  -25.8326   -1.3833 O   0  0  0  0  0  0  0  0  0  0  0  0
  2  1  1  6
  3  2  1  0
  3  4  1  0
  4  8  1  0
  4  5  2  0
  6  2  1  0
  6  7  2  0
  9 10  1  0
 10 11  2  0
 10 12  1  0
 12 13  1  0
 14 15  1  0
 14 13  1  0
 16 15  1  1
 16 17  1  0
 17  6  1  0
 18 16  1  0
 19 18  2  0
 20 18  1  0
 21 20  1  0
 21 24  1  0
 21 22  1  6
 23 22  1  0
 24 25  1  0
 26 24  2  0
M  END
$$$$
