DRC.pdb
     RDKit          3D

 26 25  0  0  1  0  0  0  0  0999 V2000
   26.4175  -24.7811  -15.0102 N   0  0  0  0  0  0  0  0  0  0  0  0
   25.6117  -24.1306  -16.0548 C   0  0  1  0  0  0  0  0  0  0  0  0
   26.1853  -24.5786  -17.3775 C   0  0  0  0  0  0  0  0  0  0  0  0
   27.5789  -24.0863  -17.4748 C   0  0  0  0  0  0  0  0  0  0  0  0
   28.5123  -24.8270  -17.1051 O   0  0  0  0  0  0  0  0  0  0  0  0
   24.1840  -24.5080  -15.9218 C   0  0  0  0  0  0  0  0  0  0  0  0
   23.4764  -24.6014  -16.9661 O   0  0  0  0  0  0  0  0  0  0  0  0
   27.8535  -22.8144  -17.9716 O   0  0  0  0  0  0  0  0  0  0  0  0
   20.7844  -29.6857   -9.9132 N   0  0  0  0  0  0  0  0  0  0  0  0
   21.5465  -29.7210  -11.1268 C   0  0  0  0  0  0  0  0  0  0  0  0
   22.3082  -30.7260  -11.3645 N   0  0  0  0  0  0  0  0  0  0  0  0
   21.4660  -28.6586  -12.0620 N   0  0  0  0  0  0  0  0  0  0  0  0
   20.6336  -27.4939  -11.8436 C   0  0  0  0  0  0  0  0  0  0  0  0
   20.7226  -26.6019  -13.0854 C   0  0  0  0  0  0  0  0  0  0  0  0
   22.1293  -26.1452  -13.3184 C   0  0  0  0  0  0  0  0  0  0  0  0
   22.2249  -25.2572  -14.5090 C   0  0  2  0  0  0  0  0  0  0  0  0
   23.5990  -24.7634  -14.6760 N   0  0  0  0  0  0  0  0  0  0  0  0
   21.2858  -24.1206  -14.4808 C   0  0  0  0  0  0  0  0  0  0  0  0
   21.3519  -23.1821  -13.6580 O   0  0  0  0  0  0  0  0  0  0  0  0
   22.8907  -30.8116  -12.2177 N   0  0  0  0  0  0  0  0  0  0  0  0
   20.2019  -24.0309  -15.4380 C   0  0  2  0  0  0  0  0  0  0  0  0
   19.3443  -22.8596  -15.4760 C   0  0  0  0  0  0  0  0  0  0  0  0
   18.8490  -22.5905  -16.8862 S   0  0  0  0  0  0  0  0  0  0  0  0
   20.2243  -22.2093  -18.0135 C   0  0  0  0  0  0  0  0  0  0  0  0
   18.2048  -23.0101  -14.5509 O   0  0  0  0  0  0  0  0  0  0  0  0
   17.5150  -21.8427  -14.2053 O   0  0  0  0  0  0  0  0  0  0  0  0
  2  1  1  1
  3  2  1  0
  3  4  1  0
  4  8  1  0
  4  5  2  0
  6  2  1  0
  6  7  2  0
  9 10  1  0
 10 11  2  0
 10 12  1  0
 12 13  1  0
 14 15  1  0
 14 13  1  0
 16 15  1  1
 16 17  1  0
 17  6  1  0
 18 16  1  0
 19 18  2  0
 20 18  1  0
 21 20  1  0
 21 24  1  0
 21 22  1  1
 23 22  1  0
 24 25  1  0
 26 24  2  0
M  END
$$$$
