NTM.pdb
     RDKit          3D

 24 23  0  0  1  0  0  0  0  0999 V2000
   16.6302  -20.1663  -13.5479 N   0  0  0  0  0  0  0  0  0  0  0  0
   16.6264  -21.2982  -14.3883 C   0  0  0  0  0  0  0  0  0  0  0  0
   15.5922  -22.0007  -14.4774 O   0  0  0  0  0  0  0  0  0  0  0  0
   17.8165  -21.6740  -15.1656 C   0  0  0  0  0  0  0  0  0  0  0  0
   19.0084  -22.0140  -14.3071 C   0  0  2  0  0  0  0  0  0  0  0  0
   19.0785  -21.0280  -13.2580 N   0  0  0  0  0  0  0  0  0  0  0  0
   20.2370  -22.0288  -15.1406 C   0  0  0  0  0  0  0  0  0  0  0  0
   20.3171  -22.6505  -16.2265 O   0  0  0  0  0  0  0  0  0  0  0  0
   24.7071  -20.1958  -16.1380 C   0  0  0  0  0  0  0  0  0  0  0  0
   23.4228  -20.0664  -15.3915 C   0  0  1  0  0  0  0  0  0  0  0  0
   22.7399  -18.9250  -15.7160 O   0  0  0  0  0  0  0  0  0  0  0  0
   22.6031  -21.3291  -15.5254 C   0  0  2  0  0  0  0  0  0  0  0  0
   21.4132  -21.3116  -14.7243 N   0  0  0  0  0  0  0  0  0  0  0  0
   23.4311  -22.5509  -15.2714 C   0  0  0  0  0  0  0  0  0  0  0  0
   23.4516  -23.0781  -14.1263 O   0  0  0  0  0  0  0  0  0  0  0  0
   24.0972  -29.6726  -14.7900 C   0  0  0  0  0  0  0  0  0  0  0  0
   23.2717  -28.0576  -14.9149 S   0  0  0  0  0  0  0  0  0  0  0  0
   24.5106  -26.8371  -15.4712 C   0  0  0  0  0  0  0  0  0  0  0  0
   23.8921  -25.4852  -15.6523 C   0  0  0  0  0  0  0  0  0  0  0  0
   24.8515  -24.4634  -16.1550 C   0  0  2  0  0  0  0  0  0  0  0  0
   24.2072  -23.1549  -16.2823 N   0  0  0  0  0  0  0  0  0  0  0  0
   25.5978  -24.8306  -17.3460 C   0  0  0  0  0  0  0  0  0  0  0  0
   25.1931  -24.5777  -18.4887 O   0  0  0  0  0  0  0  0  0  0  0  0
   26.8286  -25.4972  -17.2476 O   0  0  0  0  0  0  0  0  0  0  0  0
  2  1  1  0
  2  4  1  0
  3  2  2  0
  4  5  1  0
  5  6  1  1
  5  7  1  0
  7  8  2  0
 10 12  1  0
 10  9  1  6
 10 11  1  0
 12 14  1  0
 13  7  1  0
 12 13  1  1
 14 15  2  0
 14 21  1  0
 16 17  1  0
 18 17  1  0
 19 18  1  0
 20 19  1  6
 20 22  1  0
 21 20  1  0
 22 24  1  0
 23 22  2  0
M  END
$$$$
