NTM.pdb
     RDKit          3D

 24 23  0  0  1  0  0  0  0  0999 V2000
   29.3428  -24.1802  -17.9079 N   0  0  0  0  0  0  0  0  0  0  0  0
   29.9331  -22.9429  -17.5790 C   0  0  0  0  0  0  0  0  0  0  0  0
   31.0884  -22.6791  -17.9874 O   0  0  0  0  0  0  0  0  0  0  0  0
   29.2184  -21.9510  -16.7623 C   0  0  0  0  0  0  0  0  0  0  0  0
   27.8795  -22.4367  -16.2677 C   0  0  2  0  0  0  0  0  0  0  0  0
   26.9747  -22.4212  -17.3897 N   0  0  0  0  0  0  0  0  0  0  0  0
   27.4093  -21.5658  -15.1610 C   0  0  0  0  0  0  0  0  0  0  0  0
   28.1030  -20.6380  -14.6815 O   0  0  0  0  0  0  0  0  0  0  0  0
   23.6749  -19.2404  -13.2255 C   0  0  0  0  0  0  0  0  0  0  0  0
   24.3025  -20.1228  -14.2507 C   0  0  1  0  0  0  0  0  0  0  0  0
   24.4974  -19.4829  -15.4453 O   0  0  0  0  0  0  0  0  0  0  0  0
   25.5473  -20.7765  -13.6962 C   0  0  2  0  0  0  0  0  0  0  0  0
   26.1061  -21.7574  -14.5813 N   0  0  0  0  0  0  0  0  0  0  0  0
   25.3126  -21.3293  -12.3243 C   0  0  0  0  0  0  0  0  0  0  0  0
   24.6208  -22.3719  -12.1689 O   0  0  0  0  0  0  0  0  0  0  0  0
   27.2120  -18.1520   -6.7145 C   0  0  0  0  0  0  0  0  0  0  0  0
   27.1380  -19.9014   -6.2252 S   0  0  0  0  0  0  0  0  0  0  0  0
   26.0269  -20.7623   -7.3906 C   0  0  0  0  0  0  0  0  0  0  0  0
   26.3523  -20.4063   -8.8086 C   0  0  0  0  0  0  0  0  0  0  0  0
   25.4707  -21.0817   -9.8004 C   0  0  2  0  0  0  0  0  0  0  0  0
   25.8463  -20.7215  -11.1689 N   0  0  0  0  0  0  0  0  0  0  0  0
   24.0429  -20.9524   -9.5665 C   0  0  0  0  0  0  0  0  0  0  0  0
   23.3474  -20.1089  -10.1483 O   0  0  0  0  0  0  0  0  0  0  0  0
   23.3830  -21.7930   -8.6572 O   0  0  0  0  0  0  0  0  0  0  0  0
  2  1  1  0
  2  4  1  0
  3  2  2  0
  4  5  1  0
  5  6  1  6
  5  7  1  0
  7  8  2  0
 10 12  1  0
 10  9  1  1
 10 11  1  0
 12 14  1  0
 13  7  1  0
 12 13  1  6
 14 15  2  0
 14 21  1  0
 16 17  1  0
 18 17  1  0
 19 18  1  0
 20 19  1  1
 20 22  1  0
 21 20  1  0
 22 24  1  0
 23 22  2  0
M  END
$$$$
