NTM.pdb
     RDKit          3D

 24 23  0  0  1  0  0  0  0  0999 V2000
   19.6317  -14.1045  -17.4309 N   0  0  0  0  0  0  0  0  0  0  0  0
   19.6885  -13.0320  -18.3441 C   0  0  0  0  0  0  0  0  0  0  0  0
   20.1616  -13.2176  -19.4898 O   0  0  0  0  0  0  0  0  0  0  0  0
   19.2026  -11.6934  -17.9783 C   0  0  0  0  0  0  0  0  0  0  0  0
   18.6109  -11.6301  -16.5930 C   0  0  2  0  0  0  0  0  0  0  0  0
   17.2937  -12.2116  -16.6606 N   0  0  0  0  0  0  0  0  0  0  0  0
   18.5741  -10.2202  -16.1290 C   0  0  0  0  0  0  0  0  0  0  0  0
   17.6365   -9.4353  -16.4059 O   0  0  0  0  0  0  0  0  0  0  0  0
   21.3942   -8.8069  -13.2514 C   0  0  0  0  0  0  0  0  0  0  0  0
   20.0761   -8.1424  -13.4625 C   0  0  1  0  0  0  0  0  0  0  0  0
   20.0694   -6.8421  -13.0341 O   0  0  0  0  0  0  0  0  0  0  0  0
   19.6174   -8.3184  -14.8919 C   0  0  2  0  0  0  0  0  0  0  0  0
   19.6400   -9.6865  -15.3226 N   0  0  0  0  0  0  0  0  0  0  0  0
   20.3744   -7.4248  -15.8254 C   0  0  0  0  0  0  0  0  0  0  0  0
   21.4207   -7.8395  -16.3936 O   0  0  0  0  0  0  0  0  0  0  0  0
   20.7114   -3.7364  -22.3134 C   0  0  0  0  0  0  0  0  0  0  0  0
   19.8033   -4.7322  -21.0931 S   0  0  0  0  0  0  0  0  0  0  0  0
   20.6359   -4.5368  -19.4799 C   0  0  0  0  0  0  0  0  0  0  0  0
   19.9776   -5.3757  -18.4282 C   0  0  0  0  0  0  0  0  0  0  0  0
   20.6027   -5.2297  -17.0847 C   0  0  2  0  0  0  0  0  0  0  0  0
   19.9572   -6.1072  -16.1064 N   0  0  0  0  0  0  0  0  0  0  0  0
   20.7429   -3.8681  -16.5985 C   0  0  0  0  0  0  0  0  0  0  0  0
   20.1206   -3.4458  -15.6147 O   0  0  0  0  0  0  0  0  0  0  0  0
   21.6046   -2.9615  -17.2345 O   0  0  0  0  0  0  0  0  0  0  0  0
  2  1  1  0
  2  4  1  0
  3  2  2  0
  4  5  1  0
  5  6  1  6
  5  7  1  0
  7  8  2  0
 10 12  1  0
 10  9  1  6
 10 11  1  0
 12 14  1  0
 13  7  1  0
 12 13  1  6
 14 15  2  0
 14 21  1  0
 16 17  1  0
 18 17  1  0
 19 18  1  0
 20 19  1  6
 20 22  1  0
 21 20  1  0
 22 24  1  0
 23 22  2  0
M  END
$$$$
