NTM.pdb
     RDKit          3D

 24 23  0  0  1  0  0  0  0  0999 V2000
   29.1174  -18.1449  -17.6944 N   0  0  0  0  0  0  0  0  0  0  0  0
   29.1540  -17.3655  -16.5202 C   0  0  0  0  0  0  0  0  0  0  0  0
   30.1947  -16.7300  -16.2301 O   0  0  0  0  0  0  0  0  0  0  0  0
   27.9914  -17.2831  -15.6239 C   0  0  0  0  0  0  0  0  0  0  0  0
   26.8531  -18.1813  -16.0371 C   0  0  2  0  0  0  0  0  0  0  0  0
   26.1144  -17.4941  -17.0665 N   0  0  0  0  0  0  0  0  0  0  0  0
   26.0072  -18.4914  -14.8570 C   0  0  0  0  0  0  0  0  0  0  0  0
   25.3244  -17.6252  -14.2609 O   0  0  0  0  0  0  0  0  0  0  0  0
   23.1077  -21.6832  -12.7095 C   0  0  0  0  0  0  0  0  0  0  0  0
   23.9806  -21.2292  -13.8300 C   0  0  1  0  0  0  0  0  0  0  0  0
   23.2638  -20.8514  -14.9337 O   0  0  0  0  0  0  0  0  0  0  0  0
   24.9594  -20.1831  -13.3484 C   0  0  2  0  0  0  0  0  0  0  0  0
   25.9359  -19.8320  -14.3388 N   0  0  0  0  0  0  0  0  0  0  0  0
   25.5948  -20.5811  -12.0519 C   0  0  0  0  0  0  0  0  0  0  0  0
   26.7346  -21.1200  -12.0418 O   0  0  0  0  0  0  0  0  0  0  0  0
   30.0749  -20.0645   -8.1641 C   0  0  0  0  0  0  0  0  0  0  0  0
   28.6244  -19.4076   -7.2867 S   0  0  0  0  0  0  0  0  0  0  0  0
   27.1813  -20.4258   -7.7499 C   0  0  0  0  0  0  0  0  0  0  0  0
   26.6629  -20.0431   -9.1019 C   0  0  0  0  0  0  0  0  0  0  0  0
   25.4836  -20.8465   -9.5274 C   0  0  2  0  0  0  0  0  0  0  0  0
   24.9599  -20.3729  -10.8099 N   0  0  0  0  0  0  0  0  0  0  0  0
   24.4398  -21.0116   -8.5307 C   0  0  0  0  0  0  0  0  0  0  0  0
   23.3263  -20.4809   -8.6397 O   0  0  0  0  0  0  0  0  0  0  0  0
   24.6549  -21.7931   -7.3853 O   0  0  0  0  0  0  0  0  0  0  0  0
  2  1  1  0
  2  4  1  0
  3  2  2  0
  4  5  1  0
  5  6  1  6
  5  7  1  0
  7  8  2  0
 10 12  1  0
 10  9  1  1
 10 11  1  0
 12 14  1  0
 13  7  1  0
 12 13  1  6
 14 15  2  0
 14 21  1  0
 16 17  1  0
 18 17  1  0
 19 18  1  0
 20 19  1  1
 20 22  1  0
 21 20  1  0
 22 24  1  0
 23 22  2  0
M  END
$$$$
