NTM.pdb
     RDKit          3D

 24 23  0  0  1  0  0  0  0  0999 V2000
   16.5891  -14.3196  -16.1875 N   0  0  0  0  0  0  0  0  0  0  0  0
   17.6002  -13.8784  -15.3098 C   0  0  0  0  0  0  0  0  0  0  0  0
   17.5726  -14.2280  -14.1065 O   0  0  0  0  0  0  0  0  0  0  0  0
   18.6914  -13.0118  -15.7788 C   0  0  0  0  0  0  0  0  0  0  0  0
   18.6162  -12.7001  -17.2521 C   0  0  2  0  0  0  0  0  0  0  0  0
   19.1094  -13.8537  -17.9618 N   0  0  0  0  0  0  0  0  0  0  0  0
   19.4128  -11.4824  -17.5468 C   0  0  0  0  0  0  0  0  0  0  0  0
   20.6484  -11.5101  -17.7575 O   0  0  0  0  0  0  0  0  0  0  0  0
   19.5341   -6.6244  -18.5142 C   0  0  0  0  0  0  0  0  0  0  0  0
   18.6851   -7.8085  -18.1970 C   0  0  1  0  0  0  0  0  0  0  0  0
   17.7234   -8.0338  -19.1452 O   0  0  0  0  0  0  0  0  0  0  0  0
   19.5471   -9.0141  -17.9010 C   0  0  2  0  0  0  0  0  0  0  0  0
   18.7816  -10.1903  -17.6040 N   0  0  0  0  0  0  0  0  0  0  0  0
   20.5565   -8.7189  -16.8347 C   0  0  0  0  0  0  0  0  0  0  0  0
   20.3095   -8.9992  -15.6305 O   0  0  0  0  0  0  0  0  0  0  0  0
   25.7610  -11.6208  -15.3033 C   0  0  0  0  0  0  0  0  0  0  0  0
   26.4281   -9.9839  -15.7283 S   0  0  0  0  0  0  0  0  0  0  0  0
   25.1210   -8.7480  -15.4153 C   0  0  0  0  0  0  0  0  0  0  0  0
   23.9978   -8.8909  -16.3957 C   0  0  0  0  0  0  0  0  0  0  0  0
   22.8761   -7.9442  -16.1452 C   0  0  2  0  0  0  0  0  0  0  0  0
   21.8040   -8.1284  -17.1250 N   0  0  0  0  0  0  0  0  0  0  0  0
   23.2504   -6.5492  -15.9906 C   0  0  0  0  0  0  0  0  0  0  0  0
   23.2337   -5.7476  -16.9344 O   0  0  0  0  0  0  0  0  0  0  0  0
   23.6519   -6.0451  -14.7441 O   0  0  0  0  0  0  0  0  0  0  0  0
  2  1  1  0
  2  4  1  0
  3  2  2  0
  4  5  1  0
  5  6  1  6
  5  7  1  0
  7  8  2  0
 10 12  1  0
 10  9  1  6
 10 11  1  0
 12 14  1  0
 13  7  1  0
 12 13  1  1
 14 15  2  0
 14 21  1  0
 16 17  1  0
 18 17  1  0
 19 18  1  0
 20 19  1  6
 20 22  1  0
 21 20  1  0
 22 24  1  0
 23 22  2  0
M  END
$$$$
