NTM.pdb
     RDKit          3D

 24 23  0  0  1  0  0  0  0  0999 V2000
   28.6206  -23.4742  -17.7792 N   0  0  0  0  0  0  0  0  0  0  0  0
   29.3408  -23.0274  -16.6526 C   0  0  0  0  0  0  0  0  0  0  0  0
   30.4654  -23.5198  -16.4004 O   0  0  0  0  0  0  0  0  0  0  0  0
   28.7968  -21.9913  -15.7625 C   0  0  0  0  0  0  0  0  0  0  0  0
   27.4499  -21.4740  -16.2002 C   0  0  2  0  0  0  0  0  0  0  0  0
   27.6657  -20.6289  -17.3478 N   0  0  0  0  0  0  0  0  0  0  0  0
   26.8084  -20.7398  -15.0806 C   0  0  0  0  0  0  0  0  0  0  0  0
   26.8937  -19.4965  -14.9425 O   0  0  0  0  0  0  0  0  0  0  0  0
   23.0918  -20.0627  -12.2234 C   0  0  0  0  0  0  0  0  0  0  0  0
   23.8203  -20.6910  -13.3628 C   0  0  1  0  0  0  0  0  0  0  0  0
   23.4941  -20.1292  -14.5680 O   0  0  0  0  0  0  0  0  0  0  0  0
   25.3057  -20.7270  -13.0862 C   0  0  2  0  0  0  0  0  0  0  0  0
   26.0439  -21.4442  -14.0854 N   0  0  0  0  0  0  0  0  0  0  0  0
   25.5952  -21.2317  -11.7062 C   0  0  0  0  0  0  0  0  0  0  0  0
   25.4486  -22.4536  -11.4325 O   0  0  0  0  0  0  0  0  0  0  0  0
   29.6459  -19.1419   -7.0879 C   0  0  0  0  0  0  0  0  0  0  0  0
   28.1187  -19.1373   -6.1016 S   0  0  0  0  0  0  0  0  0  0  0  0
   26.8741  -20.1330   -6.9921 C   0  0  0  0  0  0  0  0  0  0  0  0
   26.9044  -19.8456   -8.4617 C   0  0  0  0  0  0  0  0  0  0  0  0
   25.9897  -20.7174   -9.2493 C   0  0  2  0  0  0  0  0  0  0  0  0
   26.0380  -20.3797  -10.6731 N   0  0  0  0  0  0  0  0  0  0  0  0
   24.6291  -20.8182   -8.7506 C   0  0  0  0  0  0  0  0  0  0  0  0
   23.7071  -20.1162   -9.1872 O   0  0  0  0  0  0  0  0  0  0  0  0
   24.2992  -21.7312   -7.7375 O   0  0  0  0  0  0  0  0  0  0  0  0
  2  1  1  0
  2  4  1  0
  3  2  2  0
  4  5  1  0
  5  6  1  6
  5  7  1  0
  7  8  2  0
 10 12  1  0
 10  9  1  1
 10 11  1  0
 12 14  1  0
 13  7  1  0
 12 13  1  6
 14 15  2  0
 14 21  1  0
 16 17  1  0
 18 17  1  0
 19 18  1  0
 20 19  1  1
 20 22  1  0
 21 20  1  0
 22 24  1  0
 23 22  2  0
M  END
$$$$
