MYE.pdb
     RDKit          3D

 30 30  0  0  1  0  0  0  0  0999 V2000
   27.2559  -20.8861   -5.3459 C   0  0  0  0  0  0  0  0  0  0  0  0
   27.7487  -20.1583   -6.9075 S   0  0  0  0  0  0  0  0  0  0  0  0
   27.9049  -21.3857   -8.2318 C   0  0  0  0  0  0  0  0  0  0  0  0
   26.6152  -21.5303   -9.0087 C   0  0  0  0  0  0  0  0  0  0  0  0
   25.8140  -20.2484   -9.0257 C   0  0  2  0  0  0  0  0  0  0  0  0
   24.5623  -20.3960   -8.2936 N   0  0  0  0  0  0  0  0  0  0  0  0
   25.5028  -19.7910  -10.4047 C   0  0  0  0  0  0  0  0  0  0  0  0
   24.3024  -19.7546  -10.8258 O   0  0  0  0  0  0  0  0  0  0  0  0
   26.9300  -16.5857  -18.6600 O   0  0  0  0  0  0  0  0  0  0  0  0
   27.0492  -16.9719  -17.3168 C   0  0  0  0  0  0  0  0  0  0  0  0
   26.5417  -16.2048  -16.3058 C   0  0  0  0  0  0  0  0  0  0  0  0
   26.6688  -16.6034  -14.9743 C   0  0  0  0  0  0  0  0  0  0  0  0
   27.3033  -17.7719  -14.6326 C   0  0  0  0  0  0  0  0  0  0  0  0
   27.4410  -18.2000  -13.2514 C   0  0  0  0  0  0  0  0  0  0  0  0
   26.2401  -18.8525  -12.6433 C   0  0  2  0  0  0  0  0  0  0  0  0
   26.5106  -19.3750  -11.3167 N   0  0  0  0  0  0  0  0  0  0  0  0
   25.5479  -19.8348  -13.4664 C   0  0  0  0  0  0  0  0  0  0  0  0
   26.0381  -21.0155  -13.5367 O   0  0  0  0  0  0  0  0  0  0  0  0
   27.8113  -18.5385  -15.6545 C   0  0  0  0  0  0  0  0  0  0  0  0
   27.6938  -18.1574  -16.9810 C   0  0  0  0  0  0  0  0  0  0  0  0
   24.3665  -19.6319  -14.2134 N   0  0  0  0  0  0  0  0  0  0  0  0
   23.8351  -20.6614  -15.1198 C   0  0  1  0  0  0  0  0  0  0  0  0
   22.5691  -21.2289  -14.5674 C   0  0  0  0  0  0  0  0  0  0  0  0
   21.4947  -20.1941  -14.4107 C   0  0  0  0  0  0  0  0  0  0  0  0
   20.2451  -20.7948  -13.8465 C   0  0  0  0  0  0  0  0  0  0  0  0
   20.1375  -22.0211  -13.6187 O   0  0  0  0  0  0  0  0  0  0  0  0
   23.6546  -20.1223  -16.4750 C   0  0  0  0  0  0  0  0  0  0  0  0
   23.4037  -21.0275  -17.5126 O   0  0  0  0  0  0  0  0  0  0  0  0
   19.1789  -19.9587  -13.5707 O   0  0  0  0  0  0  0  0  0  0  0  0
   23.7067  -18.9243  -16.7806 O   0  0  0  0  0  0  0  0  0  0  0  0
  2  1  1  0
  3  2  1  0
  4  5  1  0
  4  3  1  0
  5  6  1  1
  7  5  1  0
  7  8  2  0
  9 10  1  0
 10 20  2  0
 10 11  1  0
 11 12  2  0
 12 13  1  0
 13 14  1  0
 15 14  1  6
 15 16  1  0
 16  7  1  0
 17 15  1  0
 18 17  2  0
 19 13  2  0
 20 19  1  0
 21 17  1  0
 22 21  1  0
 22 27  1  0
 22 23  1  1
 24 23  1  0
 25 24  1  0
 26 25  2  0
 27 28  1  0
 29 25  1  0
 30 27  2  0
M  END
$$$$
