MYE.pdb
     RDKit          3D

 30 30  0  0  1  0  0  0  0  0999 V2000
   22.1003  -35.9118  -16.8031 C   0  0  0  0  0  0  0  0  0  0  0  0
   22.5362  -36.1012  -15.0753 S   0  0  0  0  0  0  0  0  0  0  0  0
   23.9257  -35.0456  -14.5856 C   0  0  0  0  0  0  0  0  0  0  0  0
   24.1513  -35.0844  -13.0904 C   0  0  0  0  0  0  0  0  0  0  0  0
   25.2548  -34.1465  -12.6567 C   0  0  2  0  0  0  0  0  0  0  0  0
   26.4188  -34.2595  -13.5267 N   0  0  0  0  0  0  0  0  0  0  0  0
   25.6878  -34.3877  -11.2560 C   0  0  0  0  0  0  0  0  0  0  0  0
   26.9217  -34.4923  -10.9623 O   0  0  0  0  0  0  0  0  0  0  0  0
   27.4210  -33.0581   -2.9162 O   0  0  0  0  0  0  0  0  0  0  0  0
   27.0412  -33.1234   -4.2648 C   0  0  0  0  0  0  0  0  0  0  0  0
   25.8525  -32.6057   -4.6975 C   0  0  0  0  0  0  0  0  0  0  0  0
   25.4894  -32.6788   -6.0431 C   0  0  0  0  0  0  0  0  0  0  0  0
   26.3061  -33.2687   -6.9755 C   0  0  0  0  0  0  0  0  0  0  0  0
   25.9419  -33.3501   -8.3794 C   0  0  0  0  0  0  0  0  0  0  0  0
   25.1466  -34.5511   -8.7829 C   0  0  2  0  0  0  0  0  0  0  0  0
   24.7647  -34.5131  -10.1824 N   0  0  0  0  0  0  0  0  0  0  0  0
   24.0126  -34.8940   -7.9354 C   0  0  0  0  0  0  0  0  0  0  0  0
   23.1688  -33.9726   -7.6553 O   0  0  0  0  0  0  0  0  0  0  0  0
   27.5002  -33.7874   -6.5335 C   0  0  0  0  0  0  0  0  0  0  0  0
   27.8755  -33.7232   -5.2017 C   0  0  0  0  0  0  0  0  0  0  0  0
   23.7265  -36.1581   -7.3743 N   0  0  0  0  0  0  0  0  0  0  0  0
   23.8079  -36.4005   -5.9257 C   0  0  1  0  0  0  0  0  0  0  0  0
   25.2349  -36.4113   -5.4855 C   0  0  0  0  0  0  0  0  0  0  0  0
   25.9769  -37.6221   -5.9682 C   0  0  0  0  0  0  0  0  0  0  0  0
   27.3813  -37.6364   -5.4503 C   0  0  0  0  0  0  0  0  0  0  0  0
   27.6417  -37.6144   -4.2260 O   0  0  0  0  0  0  0  0  0  0  0  0
   23.0080  -35.4151   -5.1849 C   0  0  0  0  0  0  0  0  0  0  0  0
   23.1965  -35.3249   -3.8009 O   0  0  0  0  0  0  0  0  0  0  0  0
   28.4193  -37.6754   -6.3629 O   0  0  0  0  0  0  0  0  0  0  0  0
   22.1729  -34.6510   -5.6848 O   0  0  0  0  0  0  0  0  0  0  0  0
  2  1  1  0
  3  2  1  0
  4  5  1  0
  4  3  1  0
  5  6  1  6
  7  5  1  0
  7  8  2  0
  9 10  1  0
 10 20  2  0
 10 11  1  0
 11 12  2  0
 12 13  1  0
 13 14  1  0
 15 14  1  1
 15 16  1  0
 16  7  1  0
 17 15  1  0
 18 17  2  0
 19 13  2  0
 20 19  1  0
 21 17  1  0
 22 21  1  0
 22 27  1  0
 22 23  1  1
 24 23  1  0
 25 24  1  0
 26 25  2  0
 27 28  1  0
 29 25  1  0
 30 27  2  0
M  END
$$$$
