MYE.pdb
     RDKit          3D

 30 30  0  0  1  0  0  0  0  0999 V2000
   28.3882  -16.1644  -18.1228 C   0  0  0  0  0  0  0  0  0  0  0  0
   28.8273  -16.9410  -19.6769 S   0  0  0  0  0  0  0  0  0  0  0  0
   28.5393  -18.7304  -19.6695 C   0  0  0  0  0  0  0  0  0  0  0  0
   27.6607  -19.1457  -18.5105 C   0  0  0  0  0  0  0  0  0  0  0  0
   28.1285  -20.4350  -17.8748 C   0  0  2  0  0  0  0  0  0  0  0  0
   28.0579  -21.5459  -18.8158 N   0  0  0  0  0  0  0  0  0  0  0  0
   27.3420  -20.7906  -16.6655 C   0  0  0  0  0  0  0  0  0  0  0  0
   26.2953  -21.5090  -16.7546 O   0  0  0  0  0  0  0  0  0  0  0  0
   24.6383  -20.5284   -8.1133 O   0  0  0  0  0  0  0  0  0  0  0  0
   25.3751  -20.4683   -9.3054 C   0  0  0  0  0  0  0  0  0  0  0  0
   25.5246  -21.5644  -10.1082 C   0  0  0  0  0  0  0  0  0  0  0  0
   26.2610  -21.4878  -11.2913 C   0  0  0  0  0  0  0  0  0  0  0  0
   26.8581  -20.3178  -11.6902 C   0  0  0  0  0  0  0  0  0  0  0  0
   27.6255  -20.2232  -12.9199 C   0  0  0  0  0  0  0  0  0  0  0  0
   26.8928  -20.5627  -14.1791 C   0  0  2  0  0  0  0  0  0  0  0  0
   27.7072  -20.3562  -15.3622 N   0  0  0  0  0  0  0  0  0  0  0  0
   25.5700  -19.9743  -14.3397 C   0  0  0  0  0  0  0  0  0  0  0  0
   25.4938  -18.7683  -14.7628 O   0  0  0  0  0  0  0  0  0  0  0  0
   26.7037  -19.2194  -10.8780 C   0  0  0  0  0  0  0  0  0  0  0  0
   25.9763  -19.2784   -9.7008 C   0  0  0  0  0  0  0  0  0  0  0  0
   24.3292  -20.5963  -14.0785 N   0  0  0  0  0  0  0  0  0  0  0  0
   23.0595  -19.8575  -14.1547 C   0  0  1  0  0  0  0  0  0  0  0  0
   22.6362  -19.7080  -15.5789 C   0  0  0  0  0  0  0  0  0  0  0  0
   22.7084  -18.2874  -16.0547 C   0  0  0  0  0  0  0  0  0  0  0  0
   22.2135  -18.1638  -17.4620 C   0  0  0  0  0  0  0  0  0  0  0  0
   21.0090  -17.9527  -17.7301 O   0  0  0  0  0  0  0  0  0  0  0  0
   22.0265  -20.5073  -13.3359 C   0  0  0  0  0  0  0  0  0  0  0  0
   22.3382  -21.7350  -12.7403 O   0  0  0  0  0  0  0  0  0  0  0  0
   23.1253  -18.2882  -18.4940 O   0  0  0  0  0  0  0  0  0  0  0  0
   20.8928  -20.0578  -13.1263 O   0  0  0  0  0  0  0  0  0  0  0  0
  2  1  1  0
  3  2  1  0
  4  5  1  0
  4  3  1  0
  5  6  1  6
  7  5  1  0
  7  8  2  0
  9 10  1  0
 10 20  2  0
 10 11  1  0
 11 12  2  0
 12 13  1  0
 13 14  1  0
 15 14  1  1
 15 16  1  0
 16  7  1  0
 17 15  1  0
 18 17  2  0
 19 13  2  0
 20 19  1  0
 21 17  1  0
 22 21  1  0
 22 27  1  0
 22 23  1  6
 24 23  1  0
 25 24  1  0
 26 25  2  0
 27 28  1  0
 29 25  1  0
 30 27  2  0
M  END
$$$$
