MYE.pdb
     RDKit          3D

 30 30  0  0  1  0  0  0  0  0999 V2000
   16.4979  -14.9246  -23.1701 C   0  0  0  0  0  0  0  0  0  0  0  0
   15.6635  -16.3906  -22.5652 S   0  0  0  0  0  0  0  0  0  0  0  0
   16.5909  -17.2314  -21.2545 C   0  0  0  0  0  0  0  0  0  0  0  0
   16.6984  -16.3734  -20.0135 C   0  0  0  0  0  0  0  0  0  0  0  0
   17.8260  -16.8178  -19.1100 C   0  0  2  0  0  0  0  0  0  0  0  0
   17.6254  -18.1849  -18.6456 N   0  0  0  0  0  0  0  0  0  0  0  0
   17.9861  -15.9359  -17.9251 C   0  0  0  0  0  0  0  0  0  0  0  0
   17.1783  -16.0063  -16.9441 O   0  0  0  0  0  0  0  0  0  0  0  0
   20.4801  -19.4706  -13.2640 O   0  0  0  0  0  0  0  0  0  0  0  0
   20.4889  -18.2380  -13.9333 C   0  0  0  0  0  0  0  0  0  0  0  0
   21.0312  -18.1071  -15.1811 C   0  0  0  0  0  0  0  0  0  0  0  0
   21.0320  -16.8733  -15.8335 C   0  0  0  0  0  0  0  0  0  0  0  0
   20.4921  -15.7535  -15.2512 C   0  0  0  0  0  0  0  0  0  0  0  0
   20.4842  -14.4637  -15.9193 C   0  0  0  0  0  0  0  0  0  0  0  0
   19.2363  -14.1204  -16.6694 C   0  0  2  0  0  0  0  0  0  0  0  0
   19.0327  -14.9796  -17.8210 N   0  0  0  0  0  0  0  0  0  0  0  0
   19.0532  -12.7181  -17.0183 C   0  0  0  0  0  0  0  0  0  0  0  0
   19.3880  -12.3408  -18.1951 O   0  0  0  0  0  0  0  0  0  0  0  0
   19.9484  -15.8923  -13.9961 C   0  0  0  0  0  0  0  0  0  0  0  0
   19.9396  -17.1094  -13.3349 C   0  0  0  0  0  0  0  0  0  0  0  0
   18.5332  -11.7001  -16.1888 N   0  0  0  0  0  0  0  0  0  0  0  0
   18.4272  -10.3057  -16.6452 C   0  0  1  0  0  0  0  0  0  0  0  0
   17.0947  -10.0716  -17.2775 C   0  0  0  0  0  0  0  0  0  0  0  0
   17.0499  -10.5194  -18.7082 C   0  0  0  0  0  0  0  0  0  0  0  0
   15.7182  -10.2240  -19.3247 C   0  0  0  0  0  0  0  0  0  0  0  0
   15.4164  -10.6068  -20.4778 O   0  0  0  0  0  0  0  0  0  0  0  0
   18.6867   -9.3725  -15.5400 C   0  0  0  0  0  0  0  0  0  0  0  0
   18.6306   -8.0009  -15.8132 O   0  0  0  0  0  0  0  0  0  0  0  0
   14.7967   -9.5032  -18.5875 O   0  0  0  0  0  0  0  0  0  0  0  0
   18.9541   -9.6988  -14.3767 O   0  0  0  0  0  0  0  0  0  0  0  0
  2  1  1  0
  3  2  1  0
  4  5  1  0
  4  3  1  0
  5  6  1  1
  7  5  1  0
  7  8  2  0
  9 10  1  0
 10 20  2  0
 10 11  1  0
 11 12  2  0
 12 13  1  0
 13 14  1  0
 15 14  1  6
 15 16  1  0
 16  7  1  0
 17 15  1  0
 18 17  2  0
 19 13  2  0
 20 19  1  0
 21 17  1  0
 22 21  1  0
 22 27  1  0
 22 23  1  1
 24 23  1  0
 25 24  1  0
 26 25  2  0
 27 28  1  0
 29 25  1  0
 30 27  2  0
M  END
$$$$
