MYE.pdb
     RDKit          3D

 30 30  0  0  1  0  0  0  0  0999 V2000
   28.5217  -19.0451  -17.7277 C   0  0  0  0  0  0  0  0  0  0  0  0
   27.9160  -17.5062  -17.0378 S   0  0  0  0  0  0  0  0  0  0  0  0
   28.1418  -17.4088  -15.2422 C   0  0  0  0  0  0  0  0  0  0  0  0
   27.4307  -18.5392  -14.5319 C   0  0  0  0  0  0  0  0  0  0  0  0
   25.9565  -18.5822  -14.8637 C   0  0  2  0  0  0  0  0  0  0  0  0
   25.2836  -17.3584  -14.4465 N   0  0  0  0  0  0  0  0  0  0  0  0
   25.2659  -19.7379  -14.2353 C   0  0  0  0  0  0  0  0  0  0  0  0
   25.6675  -20.9283  -14.4383 O   0  0  0  0  0  0  0  0  0  0  0  0
   28.6462  -21.3086   -8.9207 O   0  0  0  0  0  0  0  0  0  0  0  0
   27.3839  -21.1418   -9.5091 C   0  0  0  0  0  0  0  0  0  0  0  0
   27.0902  -21.6769  -10.7321 C   0  0  0  0  0  0  0  0  0  0  0  0
   25.8291  -21.5017  -11.3038 C   0  0  0  0  0  0  0  0  0  0  0  0
   24.8439  -20.7911  -10.6644 C   0  0  0  0  0  0  0  0  0  0  0  0
   23.5265  -20.6026  -11.2466 C   0  0  0  0  0  0  0  0  0  0  0  0
   23.4499  -20.6850  -12.7383 C   0  0  2  0  0  0  0  0  0  0  0  0
   24.1366  -19.5829  -13.3860 N   0  0  0  0  0  0  0  0  0  0  0  0
   22.1264  -20.8915  -13.3104 C   0  0  0  0  0  0  0  0  0  0  0  0
   21.4523  -19.8601  -13.6584 O   0  0  0  0  0  0  0  0  0  0  0  0
   25.1462  -20.2557   -9.4347 C   0  0  0  0  0  0  0  0  0  0  0  0
   26.3926  -20.4201   -8.8534 C   0  0  0  0  0  0  0  0  0  0  0  0
   21.4844  -22.1294  -13.5342 N   0  0  0  0  0  0  0  0  0  0  0  0
   20.1048  -22.2081  -14.0387 C   0  0  1  0  0  0  0  0  0  0  0  0
   19.8394  -23.5661  -14.6003 C   0  0  0  0  0  0  0  0  0  0  0  0
   18.4354  -23.7153  -15.1063 C   0  0  0  0  0  0  0  0  0  0  0  0
   18.2988  -24.9314  -15.9684 C   0  0  0  0  0  0  0  0  0  0  0  0
   19.2400  -25.7395  -16.1370 O   0  0  0  0  0  0  0  0  0  0  0  0
   19.1425  -21.8459  -12.9886 C   0  0  0  0  0  0  0  0  0  0  0  0
   17.9313  -21.2649  -13.3815 O   0  0  0  0  0  0  0  0  0  0  0  0
   17.0881  -25.1614  -16.5955 O   0  0  0  0  0  0  0  0  0  0  0  0
   19.3134  -22.0117  -11.7743 O   0  0  0  0  0  0  0  0  0  0  0  0
  2  1  1  0
  3  2  1  0
  4  5  1  0
  4  3  1  0
  5  6  1  1
  7  5  1  0
  7  8  2  0
  9 10  1  0
 10 20  2  0
 10 11  1  0
 11 12  2  0
 12 13  1  0
 13 14  1  0
 15 14  1  1
 15 16  1  0
 16  7  1  0
 17 15  1  0
 18 17  2  0
 19 13  2  0
 20 19  1  0
 21 17  1  0
 22 21  1  0
 22 27  1  0
 22 23  1  1
 24 23  1  0
 25 24  1  0
 26 25  2  0
 27 28  1  0
 29 25  1  0
 30 27  2  0
M  END
$$$$
