MYE.pdb
     RDKit          3D

 30 30  0  0  1  0  0  0  0  0999 V2000
   26.7561  -21.5845  -10.2171 C   0  0  0  0  0  0  0  0  0  0  0  0
   28.2553  -21.5828  -11.1987 S   0  0  0  0  0  0  0  0  0  0  0  0
   28.1555  -20.4685  -12.6245 C   0  0  0  0  0  0  0  0  0  0  0  0
   26.7302  -20.0400  -12.8945 C   0  0  0  0  0  0  0  0  0  0  0  0
   26.6025  -19.2707  -14.1896 C   0  0  2  0  0  0  0  0  0  0  0  0
   27.5455  -18.1605  -14.2416 N   0  0  0  0  0  0  0  0  0  0  0  0
   25.2324  -18.7362  -14.4004 C   0  0  0  0  0  0  0  0  0  0  0  0
   24.8265  -17.7101  -13.7662 O   0  0  0  0  0  0  0  0  0  0  0  0
   25.3795  -13.3161  -17.7941 O   0  0  0  0  0  0  0  0  0  0  0  0
   24.7449  -14.5468  -17.5709 C   0  0  0  0  0  0  0  0  0  0  0  0
   25.3765  -15.7321  -17.8247 C   0  0  0  0  0  0  0  0  0  0  0  0
   24.7308  -16.9483  -17.5971 C   0  0  0  0  0  0  0  0  0  0  0  0
   23.4472  -16.9996  -17.1133 C   0  0  0  0  0  0  0  0  0  0  0  0
   22.7638  -18.2581  -16.8699 C   0  0  0  0  0  0  0  0  0  0  0  0
   22.9557  -18.8578  -15.5129 C   0  0  2  0  0  0  0  0  0  0  0  0
   24.3124  -19.3298  -15.3069 N   0  0  0  0  0  0  0  0  0  0  0  0
   21.9805  -19.8584  -15.1010 C   0  0  0  0  0  0  0  0  0  0  0  0
   22.4123  -21.0087  -14.7411 O   0  0  0  0  0  0  0  0  0  0  0  0
   22.8178  -15.8038  -16.8602 C   0  0  0  0  0  0  0  0  0  0  0  0
   23.4442  -14.5883  -17.0807 C   0  0  0  0  0  0  0  0  0  0  0  0
   20.5778  -19.7024  -15.0487 N   0  0  0  0  0  0  0  0  0  0  0  0
   19.6924  -20.7886  -14.6017 C   0  0  1  0  0  0  0  0  0  0  0  0
   20.1052  -21.2643  -13.2477 C   0  0  0  0  0  0  0  0  0  0  0  0
   19.0440  -22.0857  -12.5779 C   0  0  0  0  0  0  0  0  0  0  0  0
   19.3673  -23.5456  -12.6474 C   0  0  0  0  0  0  0  0  0  0  0  0
   18.5081  -24.4307  -12.4340 O   0  0  0  0  0  0  0  0  0  0  0  0
   18.2860  -20.3635  -14.6335 C   0  0  0  0  0  0  0  0  0  0  0  0
   18.0169  -18.9905  -14.6730 O   0  0  0  0  0  0  0  0  0  0  0  0
   20.6617  -23.9192  -12.9588 O   0  0  0  0  0  0  0  0  0  0  0  0
   17.3092  -21.1231  -14.6277 O   0  0  0  0  0  0  0  0  0  0  0  0
  2  1  1  0
  3  2  1  0
  4  5  1  0
  4  3  1  0
  5  6  1  1
  7  5  1  0
  7  8  2  0
  9 10  1  0
 10 20  2  0
 10 11  1  0
 11 12  2  0
 12 13  1  0
 13 14  1  0
 15 14  1  6
 15 16  1  0
 16  7  1  0
 17 15  1  0
 18 17  2  0
 19 13  2  0
 20 19  1  0
 21 17  1  0
 22 21  1  0
 22 27  1  0
 22 23  1  1
 24 23  1  0
 25 24  1  0
 26 25  2  0
 27 28  1  0
 29 25  1  0
 30 27  2  0
M  END
$$$$
