MYE.pdb
     RDKit          3D

 30 30  0  0  1  0  0  0  0  0999 V2000
   21.9987  -20.3693   -7.1597 C   0  0  0  0  0  0  0  0  0  0  0  0
   22.1980  -20.4701   -8.9377 S   0  0  0  0  0  0  0  0  0  0  0  0
   23.9352  -20.5913   -9.4400 C   0  0  0  0  0  0  0  0  0  0  0  0
   24.0986  -20.3727  -10.9278 C   0  0  0  0  0  0  0  0  0  0  0  0
   23.0234  -21.0725  -11.7276 C   0  0  2  0  0  0  0  0  0  0  0  0
   22.9803  -22.4975  -11.4243 N   0  0  0  0  0  0  0  0  0  0  0  0
   23.2067  -20.9074  -13.1927 C   0  0  0  0  0  0  0  0  0  0  0  0
   23.3690  -19.7538  -13.7051 O   0  0  0  0  0  0  0  0  0  0  0  0
   29.5294  -20.6284  -14.1440 O   0  0  0  0  0  0  0  0  0  0  0  0
   28.2958  -21.1135  -14.6027 C   0  0  0  0  0  0  0  0  0  0  0  0
   27.4101  -21.7231  -13.7589 C   0  0  0  0  0  0  0  0  0  0  0  0
   26.1866  -22.2003  -14.2314 C   0  0  0  0  0  0  0  0  0  0  0  0
   25.8294  -22.0762  -15.5511 C   0  0  0  0  0  0  0  0  0  0  0  0
   24.5587  -22.5663  -16.0561 C   0  0  0  0  0  0  0  0  0  0  0  0
   23.3358  -21.8834  -15.5308 C   0  0  2  0  0  0  0  0  0  0  0  0
   23.2113  -22.0094  -14.0905 N   0  0  0  0  0  0  0  0  0  0  0  0
   22.0796  -22.1961  -16.1986 C   0  0  0  0  0  0  0  0  0  0  0  0
   21.6204  -23.3866  -16.0925 O   0  0  0  0  0  0  0  0  0  0  0  0
   26.7250  -21.4620  -16.3942 C   0  0  0  0  0  0  0  0  0  0  0  0
   27.9433  -20.9830  -15.9415 C   0  0  0  0  0  0  0  0  0  0  0  0
   21.2872  -21.3153  -16.9673 N   0  0  0  0  0  0  0  0  0  0  0  0
   19.8319  -21.2149  -16.7778 C   0  0  1  0  0  0  0  0  0  0  0  0
   19.5143  -21.0136  -15.3326 C   0  0  0  0  0  0  0  0  0  0  0  0
   18.0417  -20.8814  -15.0800 C   0  0  0  0  0  0  0  0  0  0  0  0
   17.6868  -21.3459  -13.7020 C   0  0  0  0  0  0  0  0  0  0  0  0
   18.5388  -21.8209  -12.9173 O   0  0  0  0  0  0  0  0  0  0  0  0
   19.2668  -20.1527  -17.6216 C   0  0  0  0  0  0  0  0  0  0  0  0
   20.1539  -19.3566  -18.3553 O   0  0  0  0  0  0  0  0  0  0  0  0
   16.3706  -21.2428  -13.2910 O   0  0  0  0  0  0  0  0  0  0  0  0
   18.0615  -19.8987  -17.7397 O   0  0  0  0  0  0  0  0  0  0  0  0
  2  1  1  0
  3  2  1  0
  4  5  1  0
  4  3  1  0
  5  6  1  6
  7  5  1  0
  7  8  2  0
  9 10  1  0
 10 20  2  0
 10 11  1  0
 11 12  2  0
 12 13  1  0
 13 14  1  0
 15 14  1  6
 15 16  1  0
 16  7  1  0
 17 15  1  0
 18 17  2  0
 19 13  2  0
 20 19  1  0
 21 17  1  0
 22 21  1  0
 22 27  1  0
 22 23  1  1
 24 23  1  0
 25 24  1  0
 26 25  2  0
 27 28  1  0
 29 25  1  0
 30 27  2  0
M  END
$$$$
