CSQ.pdb
     RDKit          3D

 22 21  0  0  1  0  0  0  0  0999 V2000
    8.6340  -16.3043   19.4422 N   0  0  0  0  0  0  0  0  0  0  0  0
    8.2802  -17.0932   20.6096 C   0  0  1  0  0  0  0  0  0  0  0  0
    8.6590  -18.5584   20.4054 C   0  0  0  0  0  0  0  0  0  0  0  0
    7.1760  -19.4353   19.8853 S   0  0  0  0  0  0  0  0  0  0  0  0
    8.9892  -16.5655   21.8008 C   0  0  0  0  0  0  0  0  0  0  0  0
   10.1969  -16.2111   21.7674 O   0  0  0  0  0  0  0  0  0  0  0  0
    6.7490  -16.2952   25.1824 O   0  0  0  0  0  0  0  0  0  0  0  0
    7.8532  -15.4755   25.1568 C   0  0  0  0  0  0  0  0  0  0  0  0
    8.9550  -16.0540   24.2582 C   0  0  2  0  0  0  0  0  0  0  0  0
    8.3001  -16.4479   23.0308 N   0  0  0  0  0  0  0  0  0  0  0  0
    9.4268  -17.2874   24.9427 C   0  0  0  0  0  0  0  0  0  0  0  0
    8.7730  -18.3456   24.7783 O   0  0  0  0  0  0  0  0  0  0  0  0
   14.8249  -19.4363   25.5751 N   0  0  0  0  0  0  0  0  0  0  0  0
   13.9573  -19.5701   24.4626 C   0  0  0  0  0  0  0  0  0  0  0  0
   14.3393  -19.8718   23.3238 O   0  0  0  0  0  0  0  0  0  0  0  0
   12.4967  -19.3263   24.7080 C   0  0  0  0  0  0  0  0  0  0  0  0
   12.3061  -18.9850   26.1549 C   0  0  0  0  0  0  0  0  0  0  0  0
   10.8906  -18.6078   26.4306 C   0  0  2  0  0  0  0  0  0  0  0  0
   10.5597  -17.3360   25.7610 N   0  0  0  0  0  0  0  0  0  0  0  0
   10.5275  -18.4397   27.8378 C   0  0  0  0  0  0  0  0  0  0  0  0
   10.5994  -19.3977   28.6400 O   0  0  0  0  0  0  0  0  0  0  0  0
   10.0995  -17.2276   28.3245 O   0  0  0  0  0  0  0  0  0  0  0  0
  2  1  1  6
  2  3  1  0
  3  4  1  0
  5  2  1  0
  5 10  1  0
  6  5  2  0
  8  7  1  0
  9  8  1  1
  9 10  1  0
  9 11  1  0
 11 19  1  0
 12 11  2  0
 13 14  1  0
 14 15  2  0
 16 17  1  0
 16 14  1  0
 18 17  1  1
 18 20  1  0
 19 18  1  0
 20 22  1  0
 21 20  2  0
M  END
$$$$
