CSQ.pdb
     RDKit          3D

 22 21  0  0  1  0  0  0  0  0999 V2000
    5.3583  -13.6629   26.0819 N   0  0  0  0  0  0  0  0  0  0  0  0
    6.5372  -13.2916   25.3185 C   0  0  1  0  0  0  0  0  0  0  0  0
    7.5743  -12.6236   26.2185 C   0  0  0  0  0  0  0  0  0  0  0  0
    6.8706  -11.0724   26.7993 S   0  0  0  0  0  0  0  0  0  0  0  0
    7.1319  -14.5019   24.7005 C   0  0  0  0  0  0  0  0  0  0  0  0
    7.1701  -15.6135   25.2904 O   0  0  0  0  0  0  0  0  0  0  0  0
    7.9998  -13.8598   21.0480 O   0  0  0  0  0  0  0  0  0  0  0  0
    8.3116  -15.1866   21.2339 C   0  0  0  0  0  0  0  0  0  0  0  0
    8.2370  -15.5733   22.7175 C   0  0  2  0  0  0  0  0  0  0  0  0
    7.6824  -14.4253   23.3995 N   0  0  0  0  0  0  0  0  0  0  0  0
    9.6470  -15.7344   23.1631 C   0  0  0  0  0  0  0  0  0  0  0  0
   10.2846  -14.7082   23.5013 O   0  0  0  0  0  0  0  0  0  0  0  0
    9.6631  -16.9132   26.2591 N   0  0  0  0  0  0  0  0  0  0  0  0
   10.4683  -18.0786   26.2170 C   0  0  0  0  0  0  0  0  0  0  0  0
   10.0471  -19.2160   26.4672 O   0  0  0  0  0  0  0  0  0  0  0  0
   11.9106  -17.8937   25.8448 C   0  0  0  0  0  0  0  0  0  0  0  0
   12.0675  -18.1837   24.3827 C   0  0  0  0  0  0  0  0  0  0  0  0
   11.7406  -16.9820   23.5638 C   0  0  2  0  0  0  0  0  0  0  0  0
   10.3048  -16.9669   23.2269 N   0  0  0  0  0  0  0  0  0  0  0  0
   12.4625  -16.8443   22.2989 C   0  0  0  0  0  0  0  0  0  0  0  0
   12.8946  -15.7317   21.9221 O   0  0  0  0  0  0  0  0  0  0  0  0
   12.6918  -17.9290   21.4862 O   0  0  0  0  0  0  0  0  0  0  0  0
  2  1  1  1
  2  3  1  0
  3  4  1  0
  5  2  1  0
  5 10  1  0
  6  5  2  0
  8  7  1  0
  9  8  1  6
  9 10  1  0
  9 11  1  0
 11 19  1  0
 12 11  2  0
 13 14  1  0
 14 15  2  0
 16 17  1  0
 16 14  1  0
 18 17  1  6
 18 20  1  0
 19 18  1  0
 20 22  1  0
 21 20  2  0
M  END
$$$$
