CSQ.pdb
     RDKit          3D

 22 21  0  0  1  0  0  0  0  0999 V2000
    5.3315  -13.8157   26.0516 N   0  0  0  0  0  0  0  0  0  0  0  0
    6.4120  -13.3248   25.2137 C   0  0  1  0  0  0  0  0  0  0  0  0
    7.2095  -12.2440   25.9402 C   0  0  0  0  0  0  0  0  0  0  0  0
    6.0801  -10.8928   26.3113 S   0  0  0  0  0  0  0  0  0  0  0  0
    7.3163  -14.4460   24.8594 C   0  0  0  0  0  0  0  0  0  0  0  0
    7.6816  -15.3113   25.6978 O   0  0  0  0  0  0  0  0  0  0  0  0
    9.6677  -14.3164   21.4500 O   0  0  0  0  0  0  0  0  0  0  0  0
    8.8853  -15.4370   21.6050 C   0  0  0  0  0  0  0  0  0  0  0  0
    8.5751  -15.6987   23.0854 C   0  0  2  0  0  0  0  0  0  0  0  0
    7.7977  -14.5653   23.5345 N   0  0  0  0  0  0  0  0  0  0  0  0
    9.8875  -15.6608   23.7846 C   0  0  0  0  0  0  0  0  0  0  0  0
   10.3255  -14.5489   24.1669 O   0  0  0  0  0  0  0  0  0  0  0  0
   13.0173  -18.5949   29.2745 N   0  0  0  0  0  0  0  0  0  0  0  0
   12.1713  -17.6941   28.5808 C   0  0  0  0  0  0  0  0  0  0  0  0
   11.1027  -17.2642   29.0356 O   0  0  0  0  0  0  0  0  0  0  0  0
   12.6215  -17.2529   27.2186 C   0  0  0  0  0  0  0  0  0  0  0  0
   11.4222  -17.1670   26.3238 C   0  0  0  0  0  0  0  0  0  0  0  0
   11.8030  -16.6741   24.9696 C   0  0  2  0  0  0  0  0  0  0  0  0
   10.6633  -16.7955   24.0412 N   0  0  0  0  0  0  0  0  0  0  0  0
   12.9312  -17.3493   24.3282 C   0  0  0  0  0  0  0  0  0  0  0  0
   12.7618  -18.0653   23.3157 O   0  0  0  0  0  0  0  0  0  0  0  0
   14.2108  -17.2179   24.8128 O   0  0  0  0  0  0  0  0  0  0  0  0
  2  1  1  1
  2  3  1  0
  3  4  1  0
  5  2  1  0
  5 10  1  0
  6  5  2  0
  8  7  1  0
  9  8  1  6
  9 10  1  0
  9 11  1  0
 11 19  1  0
 12 11  2  0
 13 14  1  0
 14 15  2  0
 16 17  1  0
 16 14  1  0
 18 17  1  1
 18 20  1  0
 19 18  1  0
 20 22  1  0
 21 20  2  0
M  END
$$$$
