CSQ.pdb
     RDKit          3D

 22 21  0  0  1  0  0  0  0  0999 V2000
    9.0976  -17.2283   17.1272 N   0  0  0  0  0  0  0  0  0  0  0  0
    8.1943  -17.2373   18.2648 C   0  0  1  0  0  0  0  0  0  0  0  0
    7.8937  -18.6688   18.7035 C   0  0  0  0  0  0  0  0  0  0  0  0
    6.5310  -19.2712   17.6942 S   0  0  0  0  0  0  0  0  0  0  0  0
    8.8085  -16.4976   19.3944 C   0  0  0  0  0  0  0  0  0  0  0  0
   10.0532  -16.3442   19.5054 O   0  0  0  0  0  0  0  0  0  0  0  0
    6.3939  -15.4782   22.5593 O   0  0  0  0  0  0  0  0  0  0  0  0
    7.2727  -14.4997   22.1563 C   0  0  0  0  0  0  0  0  0  0  0  0
    8.4993  -15.1056   21.4603 C   0  0  2  0  0  0  0  0  0  0  0  0
    7.9818  -15.9356   20.3954 N   0  0  0  0  0  0  0  0  0  0  0  0
    9.1352  -15.9959   22.4680 C   0  0  0  0  0  0  0  0  0  0  0  0
    8.7585  -17.1913   22.5271 O   0  0  0  0  0  0  0  0  0  0  0  0
   14.3127  -15.2860   23.2284 N   0  0  0  0  0  0  0  0  0  0  0  0
   14.1613  -16.6727   22.9782 C   0  0  0  0  0  0  0  0  0  0  0  0
   14.9358  -17.3339   22.2736 O   0  0  0  0  0  0  0  0  0  0  0  0
   12.9855  -17.3529   23.6169 C   0  0  0  0  0  0  0  0  0  0  0  0
   12.2029  -16.3319   24.3859 C   0  0  0  0  0  0  0  0  0  0  0  0
   10.7382  -16.5753   24.2555 C   0  0  2  0  0  0  0  0  0  0  0  0
   10.1312  -15.5767   23.3556 N   0  0  0  0  0  0  0  0  0  0  0  0
    9.9626  -16.5386   25.4953 C   0  0  0  0  0  0  0  0  0  0  0  0
    9.1635  -15.6036   25.7273 O   0  0  0  0  0  0  0  0  0  0  0  0
   10.0831  -17.5277   26.4421 O   0  0  0  0  0  0  0  0  0  0  0  0
  2  1  1  6
  2  3  1  0
  3  4  1  0
  5  2  1  0
  5 10  1  0
  6  5  2  0
  8  7  1  0
  9  8  1  1
  9 10  1  0
  9 11  1  0
 11 19  1  0
 12 11  2  0
 13 14  1  0
 14 15  2  0
 16 17  1  0
 16 14  1  0
 18 17  1  1
 18 20  1  0
 19 18  1  0
 20 22  1  0
 21 20  2  0
M  END
$$$$
