CSQ.pdb
     RDKit          3D

 22 21  0  0  1  0  0  0  0  0999 V2000
    8.6248  -12.7522   18.5543 N   0  0  0  0  0  0  0  0  0  0  0  0
    8.9418  -14.0977   19.0010 C   0  0  1  0  0  0  0  0  0  0  0  0
   10.4518  -14.3254   18.9975 C   0  0  0  0  0  0  0  0  0  0  0  0
   11.1755  -13.1863   20.1881 S   0  0  0  0  0  0  0  0  0  0  0  0
    8.4187  -14.3030   20.3738 C   0  0  0  0  0  0  0  0  0  0  0  0
    8.2996  -13.3607   21.2003 O   0  0  0  0  0  0  0  0  0  0  0  0
    7.6775  -18.2280   21.7304 O   0  0  0  0  0  0  0  0  0  0  0  0
    6.7618  -17.2296   21.9684 C   0  0  0  0  0  0  0  0  0  0  0  0
    7.4477  -15.8615   22.0854 C   0  0  2  0  0  0  0  0  0  0  0  0
    8.0336  -15.5992   20.7898 N   0  0  0  0  0  0  0  0  0  0  0  0
    8.5555  -16.0484   23.0603 C   0  0  0  0  0  0  0  0  0  0  0  0
    9.7258  -16.1467   22.6187 O   0  0  0  0  0  0  0  0  0  0  0  0
    9.4087  -13.2198   28.2515 N   0  0  0  0  0  0  0  0  0  0  0  0
   10.2636  -14.3127   28.5394 C   0  0  0  0  0  0  0  0  0  0  0  0
   10.8174  -14.4842   29.6337 O   0  0  0  0  0  0  0  0  0  0  0  0
   10.4928  -15.3039   27.4357 C   0  0  0  0  0  0  0  0  0  0  0  0
    9.4063  -15.1428   26.4159 C   0  0  0  0  0  0  0  0  0  0  0  0
    9.5569  -16.1377   25.3163 C   0  0  2  0  0  0  0  0  0  0  0  0
    8.3676  -16.1211   24.4441 N   0  0  0  0  0  0  0  0  0  0  0  0
    9.7500  -17.5293   25.7240 C   0  0  0  0  0  0  0  0  0  0  0  0
    8.7793  -18.3143   25.8141 O   0  0  0  0  0  0  0  0  0  0  0  0
   10.9999  -18.0201   26.0178 O   0  0  0  0  0  0  0  0  0  0  0  0
  2  1  1  1
  2  3  1  0
  3  4  1  0
  5  2  1  0
  5 10  1  0
  6  5  2  0
  8  7  1  0
  9  8  1  6
  9 10  1  0
  9 11  1  0
 11 19  1  0
 12 11  2  0
 13 14  1  0
 14 15  2  0
 16 17  1  0
 16 14  1  0
 18 17  1  1
 18 20  1  0
 19 18  1  0
 20 22  1  0
 21 20  2  0
M  END
$$$$
