CSQ.pdb
     RDKit          3D

 22 21  0  0  1  0  0  0  0  0999 V2000
    4.6735  -13.3231   26.4593 N   0  0  0  0  0  0  0  0  0  0  0  0
    5.7546  -12.7509   25.6757 C   0  0  1  0  0  0  0  0  0  0  0  0
    6.6279  -11.8456   26.5417 C   0  0  0  0  0  0  0  0  0  0  0  0
    7.8563  -11.0869   25.4674 S   0  0  0  0  0  0  0  0  0  0  0  0
    6.5884  -13.8386   25.1084 C   0  0  0  0  0  0  0  0  0  0  0  0
    6.9876  -14.8142   25.7969 O   0  0  0  0  0  0  0  0  0  0  0  0
    8.6523  -15.3324   20.9462 O   0  0  0  0  0  0  0  0  0  0  0  0
    7.9321  -14.4006   21.6569 C   0  0  0  0  0  0  0  0  0  0  0  0
    7.7295  -14.8454   23.1119 C   0  0  2  0  0  0  0  0  0  0  0  0
    6.9600  -13.7970   23.7439 N   0  0  0  0  0  0  0  0  0  0  0  0
    9.0853  -14.8516   23.7237 C   0  0  0  0  0  0  0  0  0  0  0  0
    9.5606  -13.7627   24.1269 O   0  0  0  0  0  0  0  0  0  0  0  0
   10.6612  -14.5847   29.2429 N   0  0  0  0  0  0  0  0  0  0  0  0
   11.0212  -15.7278   28.4866 C   0  0  0  0  0  0  0  0  0  0  0  0
   10.9262  -16.8891   28.9063 O   0  0  0  0  0  0  0  0  0  0  0  0
   11.5446  -15.4871   27.1005 C   0  0  0  0  0  0  0  0  0  0  0  0
   10.7241  -16.2872   26.1346 C   0  0  0  0  0  0  0  0  0  0  0  0
   11.0653  -15.9346   24.7271 C   0  0  2  0  0  0  0  0  0  0  0  0
    9.8629  -16.0039   23.8758 N   0  0  0  0  0  0  0  0  0  0  0  0
   12.0785  -16.7669   24.0784 C   0  0  0  0  0  0  0  0  0  0  0  0
   11.7523  -17.7678   23.4015 O   0  0  0  0  0  0  0  0  0  0  0  0
   13.4176  -16.4767   24.1879 O   0  0  0  0  0  0  0  0  0  0  0  0
  2  1  1  1
  2  3  1  0
  3  4  1  0
  5  2  1  0
  5 10  1  0
  6  5  2  0
  8  7  1  0
  9  8  1  6
  9 10  1  0
  9 11  1  0
 11 19  1  0
 12 11  2  0
 13 14  1  0
 14 15  2  0
 16 17  1  0
 16 14  1  0
 18 17  1  1
 18 20  1  0
 19 18  1  0
 20 22  1  0
 21 20  2  0
M  END
$$$$
