CSQ.pdb
     RDKit          3D

 22 21  0  0  1  0  0  0  0  0999 V2000
   11.6526  -17.7072   12.8557 N   0  0  0  0  0  0  0  0  0  0  0  0
   12.1868  -18.7388   13.7278 C   0  0  1  0  0  0  0  0  0  0  0  0
   13.6682  -18.4950   14.0072 C   0  0  0  0  0  0  0  0  0  0  0  0
   14.5901  -19.0360   12.5594 S   0  0  0  0  0  0  0  0  0  0  0  0
   11.4407  -18.7428   15.0098 C   0  0  0  0  0  0  0  0  0  0  0  0
   10.8113  -17.7363   15.4293 O   0  0  0  0  0  0  0  0  0  0  0  0
   11.6476  -22.1787   17.3811 O   0  0  0  0  0  0  0  0  0  0  0  0
   10.4560  -21.4971   17.2951 C   0  0  0  0  0  0  0  0  0  0  0  0
   10.6877  -20.0000   17.0479 C   0  0  2  0  0  0  0  0  0  0  0  0
   11.4233  -19.9119   15.8062 N   0  0  0  0  0  0  0  0  0  0  0  0
   11.5831  -19.5445   18.1448 C   0  0  0  0  0  0  0  0  0  0  0  0
   12.8161  -19.4856   17.9200 O   0  0  0  0  0  0  0  0  0  0  0  0
   10.2479  -16.4615   23.3230 N   0  0  0  0  0  0  0  0  0  0  0  0
   11.6434  -16.6125   23.5185 C   0  0  0  0  0  0  0  0  0  0  0  0
   12.2539  -16.1647   24.4984 O   0  0  0  0  0  0  0  0  0  0  0  0
   12.3994  -17.3627   22.4608 C   0  0  0  0  0  0  0  0  0  0  0  0
   11.4285  -17.8246   21.4166 C   0  0  0  0  0  0  0  0  0  0  0  0
   12.1089  -18.6681   20.3933 C   0  0  2  0  0  0  0  0  0  0  0  0
   11.1291  -19.1773   19.4155 N   0  0  0  0  0  0  0  0  0  0  0  0
   12.8356  -19.8346   20.8947 C   0  0  0  0  0  0  0  0  0  0  0  0
   12.2559  -20.9313   21.0614 O   0  0  0  0  0  0  0  0  0  0  0  0
   14.1751  -19.7660   21.1955 O   0  0  0  0  0  0  0  0  0  0  0  0
  2  1  1  6
  2  3  1  0
  3  4  1  0
  5  2  1  0
  5 10  1  0
  6  5  2  0
  8  7  1  0
  9  8  1  1
  9 10  1  0
  9 11  1  0
 11 19  1  0
 12 11  2  0
 13 14  1  0
 14 15  2  0
 16 17  1  0
 16 14  1  0
 18 17  1  1
 18 20  1  0
 19 18  1  0
 20 22  1  0
 21 20  2  0
M  END
$$$$
