CSQ.pdb
     RDKit          3D

 22 21  0  0  1  0  0  0  0  0999 V2000
    8.6597  -14.6228   13.8584 N   0  0  0  0  0  0  0  0  0  0  0  0
    8.6429  -15.4041   15.0830 C   0  0  1  0  0  0  0  0  0  0  0  0
    9.3637  -16.7355   14.8832 C   0  0  0  0  0  0  0  0  0  0  0  0
    9.1552  -17.6972   16.3900 S   0  0  0  0  0  0  0  0  0  0  0  0
    9.3100  -14.6439   16.1680 C   0  0  0  0  0  0  0  0  0  0  0  0
   10.4964  -14.2327   16.0753 O   0  0  0  0  0  0  0  0  0  0  0  0
    7.3507  -14.4155   19.8148 O   0  0  0  0  0  0  0  0  0  0  0  0
    8.0507  -13.2997   19.4185 C   0  0  0  0  0  0  0  0  0  0  0  0
    9.2070  -13.6722   18.4802 C   0  0  2  0  0  0  0  0  0  0  0  0
    8.6037  -14.3597   17.3604 N   0  0  0  0  0  0  0  0  0  0  0  0
   10.0337  -14.6551   19.2306 C   0  0  0  0  0  0  0  0  0  0  0  0
    9.8165  -15.8772   19.0476 O   0  0  0  0  0  0  0  0  0  0  0  0
   16.1079  -15.8604   18.9814 N   0  0  0  0  0  0  0  0  0  0  0  0
   15.2322  -14.8436   19.4370 C   0  0  0  0  0  0  0  0  0  0  0  0
   15.6137  -13.7397   19.8487 O   0  0  0  0  0  0  0  0  0  0  0  0
   13.7631  -15.1501   19.4074 C   0  0  0  0  0  0  0  0  0  0  0  0
   13.2363  -15.0990   20.8096 C   0  0  0  0  0  0  0  0  0  0  0  0
   11.7700  -15.3652   20.8372 C   0  0  2  0  0  0  0  0  0  0  0  0
   11.0417  -14.2949   20.1304 N   0  0  0  0  0  0  0  0  0  0  0  0
   11.1568  -15.4768   22.1607 C   0  0  0  0  0  0  0  0  0  0  0  0
   10.2934  -14.6546   22.5415 O   0  0  0  0  0  0  0  0  0  0  0  0
   11.5052  -16.4865   23.0259 O   0  0  0  0  0  0  0  0  0  0  0  0
  2  1  1  6
  2  3  1  0
  3  4  1  0
  5  2  1  0
  5 10  1  0
  6  5  2  0
  8  7  1  0
  9  8  1  1
  9 10  1  0
  9 11  1  0
 11 19  1  0
 12 11  2  0
 13 14  1  0
 14 15  2  0
 16 17  1  0
 16 14  1  0
 18 17  1  1
 18 20  1  0
 19 18  1  0
 20 22  1  0
 21 20  2  0
M  END
$$$$
