CSQ.pdb
     RDKit          3D

 22 21  0  0  1  0  0  0  0  0999 V2000
    9.9367  -18.0628   17.9907 N   0  0  0  0  0  0  0  0  0  0  0  0
    9.7180  -18.1944   19.4208 C   0  0  1  0  0  0  0  0  0  0  0  0
   10.0119  -19.6201   19.8824 C   0  0  0  0  0  0  0  0  0  0  0  0
   11.7986  -19.8354   19.8760 S   0  0  0  0  0  0  0  0  0  0  0  0
   10.6022  -17.2518   20.1487 C   0  0  0  0  0  0  0  0  0  0  0  0
   11.5646  -16.6606   19.5925 O   0  0  0  0  0  0  0  0  0  0  0  0
    9.6943  -16.6072   24.1037 O   0  0  0  0  0  0  0  0  0  0  0  0
   10.2094  -15.5430   23.4006 C   0  0  0  0  0  0  0  0  0  0  0  0
   11.1321  -16.0176   22.2694 C   0  0  2  0  0  0  0  0  0  0  0  0
   10.3722  -16.9936   21.5205 N   0  0  0  0  0  0  0  0  0  0  0  0
   12.2566  -16.7261   22.9374 C   0  0  0  0  0  0  0  0  0  0  0  0
   12.1569  -17.9640   23.1160 O   0  0  0  0  0  0  0  0  0  0  0  0
   18.1527  -15.1892   23.4819 N   0  0  0  0  0  0  0  0  0  0  0  0
   17.5476  -15.6561   22.2885 C   0  0  0  0  0  0  0  0  0  0  0  0
   18.0790  -15.5823   21.1724 O   0  0  0  0  0  0  0  0  0  0  0  0
   16.1840  -16.2708   22.4147 C   0  0  0  0  0  0  0  0  0  0  0  0
   15.7987  -16.2849   23.8631 C   0  0  0  0  0  0  0  0  0  0  0  0
   14.4546  -16.9013   24.0501 C   0  0  2  0  0  0  0  0  0  0  0  0
   13.4214  -16.0906   23.3788 N   0  0  0  0  0  0  0  0  0  0  0  0
   14.0086  -17.0754   25.4325 C   0  0  0  0  0  0  0  0  0  0  0  0
   13.3551  -16.1812   26.0155 O   0  0  0  0  0  0  0  0  0  0  0  0
   14.2890  -18.2239   26.1337 O   0  0  0  0  0  0  0  0  0  0  0  0
  2  1  1  6
  2  3  1  0
  3  4  1  0
  5  2  1  0
  5 10  1  0
  6  5  2  0
  8  7  1  0
  9  8  1  1
  9 10  1  0
  9 11  1  0
 11 19  1  0
 12 11  2  0
 13 14  1  0
 14 15  2  0
 16 17  1  0
 16 14  1  0
 18 17  1  1
 18 20  1  0
 19 18  1  0
 20 22  1  0
 21 20  2  0
M  END
$$$$
