CSQ.pdb
     RDKit          3D

 22 21  0  0  1  0  0  0  0  0999 V2000
    8.2216  -12.9760   19.0225 N   0  0  0  0  0  0  0  0  0  0  0  0
    7.8116  -14.0501   19.9104 C   0  0  1  0  0  0  0  0  0  0  0  0
    8.1376  -15.4104   19.2979 C   0  0  0  0  0  0  0  0  0  0  0  0
    7.1786  -15.5678   17.7832 S   0  0  0  0  0  0  0  0  0  0  0  0
    8.5139  -13.9173   21.2102 C   0  0  0  0  0  0  0  0  0  0  0  0
    9.7064  -13.5231   21.2976 O   0  0  0  0  0  0  0  0  0  0  0  0
    6.4152  -15.0786   24.5841 O   0  0  0  0  0  0  0  0  0  0  0  0
    7.3668  -14.0974   24.7380 C   0  0  0  0  0  0  0  0  0  0  0  0
    8.4877  -14.2413   23.6993 C   0  0  2  0  0  0  0  0  0  0  0  0
    7.8356  -14.2407   22.4089 N   0  0  0  0  0  0  0  0  0  0  0  0
    9.0690  -15.5928   23.9188 C   0  0  0  0  0  0  0  0  0  0  0  0
    8.6072  -16.5533   23.2567 O   0  0  0  0  0  0  0  0  0  0  0  0
   13.5073  -18.0637   22.4393 N   0  0  0  0  0  0  0  0  0  0  0  0
   13.3671  -19.0707   23.4265 C   0  0  0  0  0  0  0  0  0  0  0  0
   13.9003  -20.1860   23.3529 O   0  0  0  0  0  0  0  0  0  0  0  0
   12.5179  -18.7385   24.6187 C   0  0  0  0  0  0  0  0  0  0  0  0
   11.9947  -17.3432   24.4586 C   0  0  0  0  0  0  0  0  0  0  0  0
   10.5915  -17.2413   24.9507 C   0  0  2  0  0  0  0  0  0  0  0  0
   10.1032  -15.8554   24.8227 N   0  0  0  0  0  0  0  0  0  0  0  0
   10.3630  -17.6323   26.3418 C   0  0  0  0  0  0  0  0  0  0  0  0
   10.0958  -16.7767   27.2153 O   0  0  0  0  0  0  0  0  0  0  0  0
   10.4312  -18.9480   26.7337 O   0  0  0  0  0  0  0  0  0  0  0  0
  2  1  1  6
  2  3  1  0
  3  4  1  0
  5  2  1  0
  5 10  1  0
  6  5  2  0
  8  7  1  0
  9  8  1  1
  9 10  1  0
  9 11  1  0
 11 19  1  0
 12 11  2  0
 13 14  1  0
 14 15  2  0
 16 17  1  0
 16 14  1  0
 18 17  1  1
 18 20  1  0
 19 18  1  0
 20 22  1  0
 21 20  2  0
M  END
$$$$
