CSQ.pdb
     RDKit          3D

 22 21  0  0  1  0  0  0  0  0999 V2000
    8.4892  -16.9399   17.4107 N   0  0  0  0  0  0  0  0  0  0  0  0
    7.7580  -16.8568   18.6632 C   0  0  1  0  0  0  0  0  0  0  0  0
    7.4474  -18.2523   19.1999 C   0  0  0  0  0  0  0  0  0  0  0  0
    9.0139  -19.0373   19.6107 S   0  0  0  0  0  0  0  0  0  0  0  0
    8.5654  -16.1160   19.6630 C   0  0  0  0  0  0  0  0  0  0  0  0
    9.7847  -15.8554   19.4889 O   0  0  0  0  0  0  0  0  0  0  0  0
    6.9142  -15.3580   23.4282 O   0  0  0  0  0  0  0  0  0  0  0  0
    7.5907  -14.3395   22.7982 C   0  0  0  0  0  0  0  0  0  0  0  0
    8.6660  -14.8883   21.8503 C   0  0  2  0  0  0  0  0  0  0  0  0
    7.9610  -15.6770   20.8645 N   0  0  0  0  0  0  0  0  0  0  0  0
    9.4928  -15.8129   22.6714 C   0  0  0  0  0  0  0  0  0  0  0  0
    9.2328  -17.0396   22.6289 O   0  0  0  0  0  0  0  0  0  0  0  0
   15.3026  -17.5121   22.8173 N   0  0  0  0  0  0  0  0  0  0  0  0
   14.1859  -17.9415   23.5768 C   0  0  0  0  0  0  0  0  0  0  0  0
   13.5883  -19.0081   23.3799 O   0  0  0  0  0  0  0  0  0  0  0  0
   13.7228  -17.0310   24.6765 C   0  0  0  0  0  0  0  0  0  0  0  0
   12.8314  -15.9817   24.0843 C   0  0  0  0  0  0  0  0  0  0  0  0
   11.4061  -16.4169   24.1117 C   0  0  2  0  0  0  0  0  0  0  0  0
   10.5458  -15.3928   23.4901 N   0  0  0  0  0  0  0  0  0  0  0  0
   10.8370  -16.6878   25.4318 C   0  0  0  0  0  0  0  0  0  0  0  0
   11.2045  -17.6803   26.0999 O   0  0  0  0  0  0  0  0  0  0  0  0
    9.8849  -15.8627   25.9816 O   0  0  0  0  0  0  0  0  0  0  0  0
  2  1  1  6
  2  3  1  0
  3  4  1  0
  5  2  1  0
  5 10  1  0
  6  5  2  0
  8  7  1  0
  9  8  1  1
  9 10  1  0
  9 11  1  0
 11 19  1  0
 12 11  2  0
 13 14  1  0
 14 15  2  0
 16 17  1  0
 16 14  1  0
 18 17  1  1
 18 20  1  0
 19 18  1  0
 20 22  1  0
 21 20  2  0
M  END
$$$$
