GYN.pdb
     RDKit          3D

 25 25  0  0  1  0  0  0  0  0999 V2000
    9.3956  -15.8979   19.4897 N   0  0  0  0  0  0  0  0  0  0  0  0
    8.7962  -16.3452   20.7335 C   0  0  0  0  0  0  0  0  0  0  0  0
    9.5256  -15.8020   21.9138 C   0  0  0  0  0  0  0  0  0  0  0  0
   10.6708  -15.3206   21.8044 O   0  0  0  0  0  0  0  0  0  0  0  0
   11.0373  -14.6239   30.6605 O   0  0  0  0  0  0  0  0  0  0  0  0
   10.4762  -14.7152   29.3939 C   0  0  0  0  0  0  0  0  0  0  0  0
   10.3169  -13.6149   28.5778 C   0  0  0  0  0  0  0  0  0  0  0  0
    9.7579  -13.7271   27.3246 C   0  0  0  0  0  0  0  0  0  0  0  0
    9.3280  -14.9328   26.8146 C   0  0  0  0  0  0  0  0  0  0  0  0
    8.7321  -15.0287   25.4736 C   0  0  0  0  0  0  0  0  0  0  0  0
    9.6670  -15.4369   24.4237 C   0  0  2  0  0  0  0  0  0  0  0  0
    8.9537  -15.8122   23.1855 N   0  0  0  0  0  0  0  0  0  0  0  0
   10.5092  -16.5743   24.7323 C   0  0  0  0  0  0  0  0  0  0  0  0
    9.9903  -17.7460   24.5890 O   0  0  0  0  0  0  0  0  0  0  0  0
    9.4899  -16.0358   27.6377 C   0  0  0  0  0  0  0  0  0  0  0  0
   10.0421  -15.9152   28.8714 C   0  0  0  0  0  0  0  0  0  0  0  0
   15.0230  -15.7918   23.5763 N   0  0  0  0  0  0  0  0  0  0  0  0
   14.2387  -16.9678   23.6317 C   0  0  0  0  0  0  0  0  0  0  0  0
   13.7132  -17.3953   22.5857 O   0  0  0  0  0  0  0  0  0  0  0  0
   14.0560  -17.6612   24.9045 C   0  0  0  0  0  0  0  0  0  0  0  0
   12.6040  -17.8501   25.3078 C   0  0  2  0  0  0  0  0  0  0  0  0
   11.8593  -16.6153   25.1698 N   0  0  0  0  0  0  0  0  0  0  0  0
   12.5132  -18.3954   26.6504 C   0  0  0  0  0  0  0  0  0  0  0  0
   11.8552  -17.8183   27.5849 O   0  0  0  0  0  0  0  0  0  0  0  0
   13.1271  -19.5671   27.0072 O   0  0  0  0  0  0  0  0  0  0  0  0
  1  2  1  0
  3 12  1  0
  3  2  1  0
  4  3  2  0
  6  5  1  0
  7  6  2  0
  8  7  1  0
  9  8  2  0
  9 15  1  0
 10  9  1  0
 11 10  1  1
 11 12  1  0
 13 11  1  0
 13 14  2  0
 15 16  2  0
 16  6  1  0
 18 19  2  0
 18 17  1  0
 20 18  1  0
 21 22  1  0
 21 20  1  1
 22 13  1  0
 23 21  1  0
 24 23  2  0
 25 23  1  0
M  END
$$$$
