GYN.pdb
     RDKit          3D

 25 25  0  0  1  0  0  0  0  0999 V2000
    9.5613  -18.6985   18.2169 N   0  0  0  0  0  0  0  0  0  0  0  0
    8.8056  -18.5644   19.4487 C   0  0  0  0  0  0  0  0  0  0  0  0
    9.5023  -17.6735   20.4188 C   0  0  0  0  0  0  0  0  0  0  0  0
   10.6558  -17.2526   20.2012 O   0  0  0  0  0  0  0  0  0  0  0  0
    7.0296  -11.8968   18.6758 O   0  0  0  0  0  0  0  0  0  0  0  0
    7.4119  -12.7222   19.7247 C   0  0  0  0  0  0  0  0  0  0  0  0
    8.6588  -12.6418   20.3084 C   0  0  0  0  0  0  0  0  0  0  0  0
    9.0181  -13.4700   21.3480 C   0  0  0  0  0  0  0  0  0  0  0  0
    8.1630  -14.4198   21.8631 C   0  0  0  0  0  0  0  0  0  0  0  0
    8.5690  -15.2949   22.9729 C   0  0  0  0  0  0  0  0  0  0  0  0
    9.4971  -16.3616   22.5941 C   0  0  2  0  0  0  0  0  0  0  0  0
    8.8891  -17.2772   21.6068 N   0  0  0  0  0  0  0  0  0  0  0  0
    9.9524  -17.2173   23.6704 C   0  0  0  0  0  0  0  0  0  0  0  0
    9.1237  -18.1032   24.1077 O   0  0  0  0  0  0  0  0  0  0  0  0
    6.9113  -14.4972   21.2738 C   0  0  0  0  0  0  0  0  0  0  0  0
    6.5662  -13.6765   20.2496 C   0  0  0  0  0  0  0  0  0  0  0  0
   13.7253  -20.2610   23.6211 N   0  0  0  0  0  0  0  0  0  0  0  0
   13.5491  -18.9052   23.9841 C   0  0  0  0  0  0  0  0  0  0  0  0
   13.8445  -18.0151   23.1635 O   0  0  0  0  0  0  0  0  0  0  0  0
   13.0271  -18.5679   25.3063 C   0  0  0  0  0  0  0  0  0  0  0  0
   11.5410  -18.2552   25.3277 C   0  0  2  0  0  0  0  0  0  0  0  0
   11.2048  -17.2518   24.3385 N   0  0  0  0  0  0  0  0  0  0  0  0
   11.1192  -17.8692   26.6623 C   0  0  0  0  0  0  0  0  0  0  0  0
   10.6383  -16.7119   26.9247 O   0  0  0  0  0  0  0  0  0  0  0  0
   11.2076  -18.7203   27.7323 O   0  0  0  0  0  0  0  0  0  0  0  0
  1  2  1  0
  3 12  1  0
  3  2  1  0
  4  3  2  0
  6  5  1  0
  7  6  2  0
  8  7  1  0
  9  8  2  0
  9 15  1  0
 10  9  1  0
 11 10  1  1
 11 12  1  0
 13 11  1  0
 13 14  2  0
 15 16  2  0
 16  6  1  0
 18 19  2  0
 18 17  1  0
 20 18  1  0
 21 22  1  0
 21 20  1  1
 22 13  1  0
 23 21  1  0
 24 23  2  0
 25 23  1  0
M  END
$$$$
