GYN.pdb
     RDKit          3D

 25 25  0  0  1  0  0  0  0  0999 V2000
    6.7225  -19.5261   20.2802 N   0  0  0  0  0  0  0  0  0  0  0  0
    6.4106  -18.5284   21.2869 C   0  0  0  0  0  0  0  0  0  0  0  0
    7.5973  -17.6834   21.5998 C   0  0  0  0  0  0  0  0  0  0  0  0
    8.7298  -17.9665   21.1612 O   0  0  0  0  0  0  0  0  0  0  0  0
    7.5833  -12.5617   17.1252 O   0  0  0  0  0  0  0  0  0  0  0  0
    7.7390  -12.9663   18.4442 C   0  0  0  0  0  0  0  0  0  0  0  0
    8.9794  -13.1029   19.0312 C   0  0  0  0  0  0  0  0  0  0  0  0
    9.1119  -13.5056   20.3412 C   0  0  0  0  0  0  0  0  0  0  0  0
    8.0247  -13.7938   21.1372 C   0  0  0  0  0  0  0  0  0  0  0  0
    8.1901  -14.2240   22.5336 C   0  0  0  0  0  0  0  0  0  0  0  0
    8.5993  -15.6205   22.6922 C   0  0  2  0  0  0  0  0  0  0  0  0
    7.4847  -16.5439   22.3955 N   0  0  0  0  0  0  0  0  0  0  0  0
    9.0610  -15.9997   24.0117 C   0  0  0  0  0  0  0  0  0  0  0  0
    8.1605  -16.2667   24.8953 O   0  0  0  0  0  0  0  0  0  0  0  0
    6.7803  -13.6552   20.5435 C   0  0  0  0  0  0  0  0  0  0  0  0
    6.6599  -13.2577   19.2516 C   0  0  0  0  0  0  0  0  0  0  0  0
   11.8777  -19.7397   26.1512 N   0  0  0  0  0  0  0  0  0  0  0  0
   11.0514  -19.8094   25.0051 C   0  0  0  0  0  0  0  0  0  0  0  0
   10.8177  -20.9214   24.4935 O   0  0  0  0  0  0  0  0  0  0  0  0
   10.4866  -18.5863   24.4399 C   0  0  0  0  0  0  0  0  0  0  0  0
   10.8372  -17.3250   25.2098 C   0  0  2  0  0  0  0  0  0  0  0  0
   10.3838  -16.1421   24.5074 N   0  0  0  0  0  0  0  0  0  0  0  0
   12.2602  -17.2791   25.4947 C   0  0  0  0  0  0  0  0  0  0  0  0
   13.1464  -17.2403   24.5713 O   0  0  0  0  0  0  0  0  0  0  0  0
   12.7505  -17.2738   26.7740 O   0  0  0  0  0  0  0  0  0  0  0  0
  1  2  1  0
  3 12  1  0
  3  2  1  0
  4  3  2  0
  6  5  1  0
  7  6  2  0
  8  7  1  0
  9  8  2  0
  9 15  1  0
 10  9  1  0
 11 10  1  1
 11 12  1  0
 13 11  1  0
 13 14  2  0
 15 16  2  0
 16  6  1  0
 18 19  2  0
 18 17  1  0
 20 18  1  0
 21 22  1  0
 21 20  1  6
 22 13  1  0
 23 21  1  0
 24 23  2  0
 25 23  1  0
M  END
$$$$
