GYN.pdb
     RDKit          3D

 25 25  0  0  1  0  0  0  0  0999 V2000
    9.7213  -16.9825   18.2344 N   0  0  0  0  0  0  0  0  0  0  0  0
    8.6079  -17.0434   19.1633 C   0  0  0  0  0  0  0  0  0  0  0  0
    8.8567  -16.1986   20.3652 C   0  0  0  0  0  0  0  0  0  0  0  0
    9.9420  -15.6068   20.5295 O   0  0  0  0  0  0  0  0  0  0  0  0
    6.9778  -12.1401   28.1158 O   0  0  0  0  0  0  0  0  0  0  0  0
    6.9217  -12.7716   26.8807 C   0  0  0  0  0  0  0  0  0  0  0  0
    6.5029  -14.0780   26.7396 C   0  0  0  0  0  0  0  0  0  0  0  0
    6.4546  -14.6858   25.5051 C   0  0  0  0  0  0  0  0  0  0  0  0
    6.8180  -14.0329   24.3474 C   0  0  0  0  0  0  0  0  0  0  0  0
    6.7600  -14.7027   23.0396 C   0  0  0  0  0  0  0  0  0  0  0  0
    8.0490  -15.2018   22.5576 C   0  0  2  0  0  0  0  0  0  0  0  0
    7.8840  -16.0388   21.3513 N   0  0  0  0  0  0  0  0  0  0  0  0
    8.7977  -16.0235   23.4863 C   0  0  0  0  0  0  0  0  0  0  0  0
    8.3991  -17.2390   23.6491 O   0  0  0  0  0  0  0  0  0  0  0  0
    7.2381  -12.7205   24.4935 C   0  0  0  0  0  0  0  0  0  0  0  0
    7.2822  -12.1300   25.7146 C   0  0  0  0  0  0  0  0  0  0  0  0
   13.4275  -15.8414   22.9345 N   0  0  0  0  0  0  0  0  0  0  0  0
   12.6489  -16.8145   23.6040 C   0  0  0  0  0  0  0  0  0  0  0  0
   12.4091  -17.8960   23.0332 O   0  0  0  0  0  0  0  0  0  0  0  0
   12.1396  -16.5414   24.9457 C   0  0  0  0  0  0  0  0  0  0  0  0
   10.6334  -16.6831   25.0807 C   0  0  2  0  0  0  0  0  0  0  0  0
    9.9423  -15.7063   24.2642 N   0  0  0  0  0  0  0  0  0  0  0  0
   10.2360  -16.6084   26.4752 C   0  0  0  0  0  0  0  0  0  0  0  0
    9.4156  -15.7273   26.9111 O   0  0  0  0  0  0  0  0  0  0  0  0
   10.7136  -17.4785   27.4197 O   0  0  0  0  0  0  0  0  0  0  0  0
  1  2  1  0
  3 12  1  0
  3  2  1  0
  4  3  2  0
  6  5  1  0
  7  6  2  0
  8  7  1  0
  9  8  2  0
  9 15  1  0
 10  9  1  0
 11 10  1  1
 11 12  1  0
 13 11  1  0
 13 14  2  0
 15 16  2  0
 16  6  1  0
 18 19  2  0
 18 17  1  0
 20 18  1  0
 21 22  1  0
 21 20  1  1
 22 13  1  0
 23 21  1  0
 24 23  2  0
 25 23  1  0
M  END
$$$$
