GYN.pdb
     RDKit          3D

 25 25  0  0  1  0  0  0  0  0999 V2000
    9.7142  -17.7590   18.9037 N   0  0  0  0  0  0  0  0  0  0  0  0
    8.5536  -17.6411   19.7670 C   0  0  0  0  0  0  0  0  0  0  0  0
    8.7990  -16.6790   20.8781 C   0  0  0  0  0  0  0  0  0  0  0  0
    9.9340  -16.2081   21.0906 O   0  0  0  0  0  0  0  0  0  0  0  0
    6.9873  -11.5758   27.9869 O   0  0  0  0  0  0  0  0  0  0  0  0
    6.9296  -12.3199   26.8162 C   0  0  0  0  0  0  0  0  0  0  0  0
    7.5283  -11.9007   25.6467 C   0  0  0  0  0  0  0  0  0  0  0  0
    7.4592  -12.6539   24.4963 C   0  0  0  0  0  0  0  0  0  0  0  0
    6.7945  -13.8598   24.4437 C   0  0  0  0  0  0  0  0  0  0  0  0
    6.7321  -14.6468   23.2030 C   0  0  0  0  0  0  0  0  0  0  0  0
    7.9505  -15.4005   22.9025 C   0  0  2  0  0  0  0  0  0  0  0  0
    7.7671  -16.2696   21.7219 N   0  0  0  0  0  0  0  0  0  0  0  0
    8.4244  -16.2825   23.9492 C   0  0  0  0  0  0  0  0  0  0  0  0
    7.7225  -17.3366   24.1922 O   0  0  0  0  0  0  0  0  0  0  0  0
    6.1944  -14.2773   25.6208 C   0  0  0  0  0  0  0  0  0  0  0  0
    6.2681  -13.5279   26.7498 C   0  0  0  0  0  0  0  0  0  0  0  0
   12.2676  -18.0099   23.1974 N   0  0  0  0  0  0  0  0  0  0  0  0
   11.4222  -18.4901   24.2250 C   0  0  0  0  0  0  0  0  0  0  0  0
   10.7794  -19.5413   24.0388 O   0  0  0  0  0  0  0  0  0  0  0  0
   11.3143  -17.7535   25.4820 C   0  0  0  0  0  0  0  0  0  0  0  0
    9.9321  -17.1858   25.7542 C   0  0  2  0  0  0  0  0  0  0  0  0
    9.5775  -16.1824   24.7716 N   0  0  0  0  0  0  0  0  0  0  0  0
    9.8473  -16.6755   27.1109 C   0  0  0  0  0  0  0  0  0  0  0  0
    9.6608  -15.4355   27.3697 O   0  0  0  0  0  0  0  0  0  0  0  0
    9.9611  -17.4894   28.2072 O   0  0  0  0  0  0  0  0  0  0  0  0
  1  2  1  0
  3 12  1  0
  3  2  1  0
  4  3  2  0
  6  5  1  0
  7  6  2  0
  8  7  1  0
  9  8  2  0
  9 15  1  0
 10  9  1  0
 11 10  1  1
 11 12  1  0
 13 11  1  0
 13 14  2  0
 15 16  2  0
 16  6  1  0
 18 19  2  0
 18 17  1  0
 20 18  1  0
 21 22  1  0
 21 20  1  6
 22 13  1  0
 23 21  1  0
 24 23  2  0
 25 23  1  0
M  END
$$$$
