GYN.pdb
     RDKit          3D

 25 25  0  0  1  0  0  0  0  0999 V2000
    6.1446  -19.6345   24.1291 N   0  0  0  0  0  0  0  0  0  0  0  0
    6.9447  -18.9077   25.0976 C   0  0  0  0  0  0  0  0  0  0  0  0
    7.6318  -17.7439   24.4701 C   0  0  0  0  0  0  0  0  0  0  0  0
    7.4976  -17.4872   23.2571 O   0  0  0  0  0  0  0  0  0  0  0  0
   10.8189  -15.6277   30.8839 O   0  0  0  0  0  0  0  0  0  0  0  0
   10.3563  -15.3703   29.6004 C   0  0  0  0  0  0  0  0  0  0  0  0
    9.1985  -15.9348   29.1077 C   0  0  0  0  0  0  0  0  0  0  0  0
    8.7571  -15.6663   27.8314 C   0  0  0  0  0  0  0  0  0  0  0  0
    9.4381  -14.8261   26.9775 C   0  0  0  0  0  0  0  0  0  0  0  0
    8.9487  -14.5551   25.6176 C   0  0  0  0  0  0  0  0  0  0  0  0
    9.0921  -15.6768   24.6881 C   0  0  2  0  0  0  0  0  0  0  0  0
    8.4510  -16.8983   25.2171 N   0  0  0  0  0  0  0  0  0  0  0  0
   10.4504  -16.0703   24.3745 C   0  0  0  0  0  0  0  0  0  0  0  0
   10.9053  -17.1273   24.9562 O   0  0  0  0  0  0  0  0  0  0  0  0
   10.6008  -14.2611   27.4765 C   0  0  0  0  0  0  0  0  0  0  0  0
   11.0278  -14.5318   28.7359 C   0  0  0  0  0  0  0  0  0  0  0  0
   15.7319  -15.2932   21.6188 N   0  0  0  0  0  0  0  0  0  0  0  0
   14.5332  -16.0349   21.4997 C   0  0  0  0  0  0  0  0  0  0  0  0
   14.5792  -17.1894   21.0327 O   0  0  0  0  0  0  0  0  0  0  0  0
   13.2663  -15.4429   21.9224 C   0  0  0  0  0  0  0  0  0  0  0  0
   12.6488  -16.1006   23.1443 C   0  0  2  0  0  0  0  0  0  0  0  0
   11.3915  -15.4725   23.4953 N   0  0  0  0  0  0  0  0  0  0  0  0
   13.5866  -16.1021   24.2527 C   0  0  0  0  0  0  0  0  0  0  0  0
   14.4291  -17.0478   24.4405 O   0  0  0  0  0  0  0  0  0  0  0  0
   13.6327  -15.0886   25.1735 O   0  0  0  0  0  0  0  0  0  0  0  0
  1  2  1  0
  3 12  1  0
  3  2  1  0
  4  3  2  0
  6  5  1  0
  7  6  2  0
  8  7  1  0
  9  8  2  0
  9 15  1  0
 10  9  1  0
 11 10  1  1
 11 12  1  0
 13 11  1  0
 13 14  2  0
 15 16  2  0
 16  6  1  0
 18 19  2  0
 18 17  1  0
 20 18  1  0
 21 22  1  0
 21 20  1  6
 22 13  1  0
 23 21  1  0
 24 23  2  0
 25 23  1  0
M  END
$$$$
