CKC.pdb
     RDKit          3D

 22 21  0  0  1  0  0  0  0  0999 V2000
    8.6451  -13.1881   18.3512 N   0  0  0  0  0  0  0  0  0  0  0  0
    7.5344  -13.6352   19.2097 C   0  0  1  0  0  0  0  0  0  0  0  0
    7.1733  -15.0425   18.7715 C   0  0  0  0  0  0  0  0  0  0  0  0
    8.5076  -16.1887   19.1625 S   0  0  0  0  0  0  0  0  0  0  0  0
    7.9806  -13.5424   20.6029 C   0  0  0  0  0  0  0  0  0  0  0  0
    9.2271  -13.4880   20.8405 O   0  0  0  0  0  0  0  0  0  0  0  0
    7.1332  -13.5055   21.7404 N   0  0  0  0  0  0  0  0  0  0  0  0
    7.7222  -13.4896   23.0874 C   0  0  1  0  0  0  0  0  0  0  0  0
    6.7002  -13.0005   24.1055 C   0  0  0  0  0  0  0  0  0  0  0  0
    7.3366  -12.8920   25.4655 C   0  0  0  0  0  0  0  0  0  0  0  0
    6.2885  -12.3374   26.4097 C   0  0  0  0  0  0  0  0  0  0  0  0
    6.8848  -12.1316   27.7889 C   0  0  0  0  0  0  0  0  0  0  0  0
    5.8693  -11.5587   28.6620 N   0  0  0  0  0  0  0  0  0  0  0  0
    8.0866  -14.8771   23.4416 C   0  0  0  0  0  0  0  0  0  0  0  0
    7.3493  -15.8650   23.1176 O   0  0  0  0  0  0  0  0  0  0  0  0
    9.2670  -15.1846   24.1559 N   0  0  0  0  0  0  0  0  0  0  0  0
    9.6521  -16.5621   24.4666 C   0  0  1  0  0  0  0  0  0  0  0  0
   10.8843  -16.8511   23.6015 C   0  0  0  0  0  0  0  0  0  0  0  0
   11.5732  -18.4267   24.1901 S   0  0  0  0  0  0  0  0  0  0  0  0
    9.9952  -16.6088   25.9066 C   0  0  0  0  0  0  0  0  0  0  0  0
   10.3140  -15.5110   26.4581 O   0  0  0  0  0  0  0  0  0  0  0  0
    9.9839  -17.7671   26.6587 O   0  0  0  0  0  0  0  0  0  0  0  0
  2  1  1  6
  2  3  1  0
  2  5  1  0
  4  3  1  0
  5  6  2  0
  7  8  1  0
  7  5  1  0
  8  9  1  1
 10  9  1  0
 11 12  1  0
 11 10  1  0
 13 12  1  0
 14 15  2  0
 14  8  1  0
 16 14  1  0
 17 16  1  0
 17 20  1  0
 17 18  1  6
 19 18  1  0
 20 22  1  0
 21 20  2  0
M  END
$$$$
