CKC.pdb
     RDKit          3D

 22 21  0  0  1  0  0  0  0  0999 V2000
    6.6339  -15.3994   19.2547 N   0  0  0  0  0  0  0  0  0  0  0  0
    7.6869  -14.8192   20.1062 C   0  0  1  0  0  0  0  0  0  0  0  0
    7.7044  -13.3262   19.8352 C   0  0  0  0  0  0  0  0  0  0  0  0
    8.5663  -12.9734   18.2926 S   0  0  0  0  0  0  0  0  0  0  0  0
    7.3804  -15.1676   21.4967 C   0  0  0  0  0  0  0  0  0  0  0  0
    6.2207  -14.9112   21.9469 O   0  0  0  0  0  0  0  0  0  0  0  0
    8.2762  -15.7798   22.4110 N   0  0  0  0  0  0  0  0  0  0  0  0
    7.8197  -16.1066   23.7699 C   0  0  1  0  0  0  0  0  0  0  0  0
    8.2258  -17.5282   24.1364 C   0  0  0  0  0  0  0  0  0  0  0  0
    7.8335  -17.8273   25.5587 C   0  0  0  0  0  0  0  0  0  0  0  0
    8.1649  -19.2832   25.8200 C   0  0  0  0  0  0  0  0  0  0  0  0
    7.8199  -19.6484   27.2510 C   0  0  0  0  0  0  0  0  0  0  0  0
    8.2738  -21.0072   27.5143 N   0  0  0  0  0  0  0  0  0  0  0  0
    8.4925  -15.1863   24.7100 C   0  0  0  0  0  0  0  0  0  0  0  0
    9.7436  -14.9536   24.6371 O   0  0  0  0  0  0  0  0  0  0  0  0
    7.7899  -14.5161   25.7373 N   0  0  0  0  0  0  0  0  0  0  0  0
    8.4633  -13.6398   26.6970 C   0  0  1  0  0  0  0  0  0  0  0  0
    7.5294  -12.4384   26.8844 C   0  0  0  0  0  0  0  0  0  0  0  0
    5.8579  -13.1125   27.1188 S   0  0  0  0  0  0  0  0  0  0  0  0
    8.6070  -14.3990   27.9605 C   0  0  0  0  0  0  0  0  0  0  0  0
    9.2185  -13.8225   28.9117 O   0  0  0  0  0  0  0  0  0  0  0  0
    8.1167  -15.6767   28.1454 O   0  0  0  0  0  0  0  0  0  0  0  0
  2  1  1  6
  2  3  1  0
  2  5  1  0
  4  3  1  0
  5  6  2  0
  7  8  1  0
  7  5  1  0
  8  9  1  1
 10  9  1  0
 11 12  1  0
 11 10  1  0
 13 12  1  0
 14 15  2  0
 14  8  1  0
 16 14  1  0
 17 16  1  0
 17 20  1  0
 17 18  1  1
 19 18  1  0
 20 22  1  0
 21 20  2  0
M  END
$$$$
