CKC.pdb
     RDKit          3D

 22 21  0  0  1  0  0  0  0  0999 V2000
    7.8784  -17.6407   17.1845 N   0  0  0  0  0  0  0  0  0  0  0  0
    8.4850  -18.4861   18.2274 C   0  0  1  0  0  0  0  0  0  0  0  0
    9.9798  -18.2263   18.1957 C   0  0  0  0  0  0  0  0  0  0  0  0
   10.8129  -19.4503   17.1687 S   0  0  0  0  0  0  0  0  0  0  0  0
    7.8495  -18.1468   19.5041 C   0  0  0  0  0  0  0  0  0  0  0  0
    7.2961  -17.0100   19.6253 O   0  0  0  0  0  0  0  0  0  0  0  0
    7.7905  -18.9871   20.6458 N   0  0  0  0  0  0  0  0  0  0  0  0
    7.0212  -18.5618   21.8244 C   0  0  1  0  0  0  0  0  0  0  0  0
    6.3047  -19.7535   22.4462 C   0  0  0  0  0  0  0  0  0  0  0  0
    5.0458  -20.0577   21.6788 C   0  0  0  0  0  0  0  0  0  0  0  0
    4.4437  -21.3115   22.2812 C   0  0  0  0  0  0  0  0  0  0  0  0
    3.1590  -21.6721   21.5602 C   0  0  0  0  0  0  0  0  0  0  0  0
    2.6379  -22.9136   22.1159 N   0  0  0  0  0  0  0  0  0  0  0  0
    7.9731  -18.0334   22.8234 C   0  0  0  0  0  0  0  0  0  0  0  0
    9.1794  -18.4414   22.8780 O   0  0  0  0  0  0  0  0  0  0  0  0
    7.6010  -17.0511   23.7693 N   0  0  0  0  0  0  0  0  0  0  0  0
    8.5592  -16.4820   24.7182 C   0  0  1  0  0  0  0  0  0  0  0  0
    8.0835  -15.0472   24.9744 C   0  0  0  0  0  0  0  0  0  0  0  0
    6.3880  -15.1700   25.6173 S   0  0  0  0  0  0  0  0  0  0  0  0
    8.4861  -17.2915   25.9563 C   0  0  0  0  0  0  0  0  0  0  0  0
    7.5151  -18.1028   26.0567 O   0  0  0  0  0  0  0  0  0  0  0  0
    9.4060  -17.2049   26.9826 O   0  0  0  0  0  0  0  0  0  0  0  0
  2  1  1  6
  2  3  1  0
  2  5  1  0
  4  3  1  0
  5  6  2  0
  7  8  1  0
  7  5  1  0
  8  9  1  1
 10  9  1  0
 11 12  1  0
 11 10  1  0
 13 12  1  0
 14 15  2  0
 14  8  1  0
 16 14  1  0
 17 16  1  0
 17 20  1  0
 17 18  1  1
 19 18  1  0
 20 22  1  0
 21 20  2  0
M  END
$$$$
