CKC.pdb
     RDKit          3D

 22 21  0  0  1  0  0  0  0  0999 V2000
    7.2666  -14.9809   19.4722 N   0  0  0  0  0  0  0  0  0  0  0  0
    8.2583  -14.4208   20.4066 C   0  0  1  0  0  0  0  0  0  0  0  0
    7.9235  -12.9510   20.5807 C   0  0  0  0  0  0  0  0  0  0  0  0
    8.3698  -12.0212   19.1031 S   0  0  0  0  0  0  0  0  0  0  0  0
    8.1913  -15.1970   21.6483 C   0  0  0  0  0  0  0  0  0  0  0  0
    7.0502  -15.5185   22.1042 O   0  0  0  0  0  0  0  0  0  0  0  0
    9.3060  -15.6359   22.4086 N   0  0  0  0  0  0  0  0  0  0  0  0
    9.0889  -16.4127   23.6380 C   0  0  1  0  0  0  0  0  0  0  0  0
    9.5930  -17.8388   23.4580 C   0  0  0  0  0  0  0  0  0  0  0  0
   10.9353  -17.8303   22.7765 C   0  0  0  0  0  0  0  0  0  0  0  0
   11.3012  -19.2722   22.4855 C   0  0  0  0  0  0  0  0  0  0  0  0
   12.6335  -19.3374   21.7638 C   0  0  0  0  0  0  0  0  0  0  0  0
   13.0086  -20.7340   21.5895 N   0  0  0  0  0  0  0  0  0  0  0  0
    9.8784  -15.7857   24.7183 C   0  0  0  0  0  0  0  0  0  0  0  0
   10.9594  -15.1552   24.4764 O   0  0  0  0  0  0  0  0  0  0  0  0
    9.4809  -15.8499   26.0733 N   0  0  0  0  0  0  0  0  0  0  0  0
   10.2355  -15.1870   27.1379 C   0  0  1  0  0  0  0  0  0  0  0  0
    9.2421  -14.2381   27.8184 C   0  0  0  0  0  0  0  0  0  0  0  0
   10.1268  -13.4709   29.2084 S   0  0  0  0  0  0  0  0  0  0  0  0
   10.6885  -16.2391   28.0768 C   0  0  0  0  0  0  0  0  0  0  0  0
   10.0490  -17.3354   28.0644 O   0  0  0  0  0  0  0  0  0  0  0  0
   11.7512  -16.0839   28.9450 O   0  0  0  0  0  0  0  0  0  0  0  0
  2  1  1  6
  2  3  1  0
  2  5  1  0
  4  3  1  0
  5  6  2  0
  7  8  1  0
  7  5  1  0
  8  9  1  6
 10  9  1  0
 11 12  1  0
 11 10  1  0
 13 12  1  0
 14 15  2  0
 14  8  1  0
 16 14  1  0
 17 16  1  0
 17 20  1  0
 17 18  1  1
 19 18  1  0
 20 22  1  0
 21 20  2  0
M  END
$$$$
