CKC.pdb
     RDKit          3D

 22 21  0  0  1  0  0  0  0  0999 V2000
    6.8244  -13.6323   18.7024 N   0  0  0  0  0  0  0  0  0  0  0  0
    8.1826  -14.0243   19.1173 C   0  0  1  0  0  0  0  0  0  0  0  0
    9.0018  -12.7507   19.2150 C   0  0  0  0  0  0  0  0  0  0  0  0
    8.3245  -11.6583   20.4779 S   0  0  0  0  0  0  0  0  0  0  0  0
    8.0700  -14.7574   20.3816 C   0  0  0  0  0  0  0  0  0  0  0  0
    7.0066  -14.6327   21.0649 O   0  0  0  0  0  0  0  0  0  0  0  0
    9.0587  -15.6153   20.9293 N   0  0  0  0  0  0  0  0  0  0  0  0
    8.7910  -16.3243   22.1892 C   0  0  1  0  0  0  0  0  0  0  0  0
    9.7750  -17.4731   22.3686 C   0  0  0  0  0  0  0  0  0  0  0  0
    9.5144  -18.1779   23.6731 C   0  0  0  0  0  0  0  0  0  0  0  0
   10.5713  -19.2541   23.8219 C   0  0  0  0  0  0  0  0  0  0  0  0
   10.3957  -19.9794   25.1423 C   0  0  0  0  0  0  0  0  0  0  0  0
   11.5160  -20.8903   25.3337 N   0  0  0  0  0  0  0  0  0  0  0  0
    8.9981  -15.3724   23.3003 C   0  0  0  0  0  0  0  0  0  0  0  0
    9.8745  -14.4493   23.2348 O   0  0  0  0  0  0  0  0  0  0  0  0
    8.2396  -15.4322   24.4917 N   0  0  0  0  0  0  0  0  0  0  0  0
    8.3551  -14.4168   25.5395 C   0  0  1  0  0  0  0  0  0  0  0  0
    7.0719  -13.5827   25.4490 C   0  0  0  0  0  0  0  0  0  0  0  0
    7.1101  -12.4192   26.8447 S   0  0  0  0  0  0  0  0  0  0  0  0
    8.4315  -15.1291   26.8358 C   0  0  0  0  0  0  0  0  0  0  0  0
    7.6981  -16.1560   26.9722 O   0  0  0  0  0  0  0  0  0  0  0  0
    9.2463  -14.7346   27.8787 O   0  0  0  0  0  0  0  0  0  0  0  0
  2  1  1  1
  2  3  1  0
  2  5  1  0
  4  3  1  0
  5  6  2  0
  7  8  1  0
  7  5  1  0
  8  9  1  1
 10  9  1  0
 11 12  1  0
 11 10  1  0
 13 12  1  0
 14 15  2  0
 14  8  1  0
 16 14  1  0
 17 16  1  0
 17 20  1  0
 17 18  1  1
 19 18  1  0
 20 22  1  0
 21 20  2  0
M  END
$$$$
