CKC.pdb
     RDKit          3D

 22 21  0  0  1  0  0  0  0  0999 V2000
    6.8671  -15.2919   18.7721 N   0  0  0  0  0  0  0  0  0  0  0  0
    7.8295  -14.6569   19.6892 C   0  0  1  0  0  0  0  0  0  0  0  0
    7.7466  -13.1602   19.4530 C   0  0  0  0  0  0  0  0  0  0  0  0
    8.9011  -12.2857   20.5250 S   0  0  0  0  0  0  0  0  0  0  0  0
    7.4822  -15.0636   21.0540 C   0  0  0  0  0  0  0  0  0  0  0  0
    6.2743  -14.9568   21.4321 O   0  0  0  0  0  0  0  0  0  0  0  0
    8.3874  -15.5790   22.0174 N   0  0  0  0  0  0  0  0  0  0  0  0
    7.9044  -15.9132   23.3653 C   0  0  1  0  0  0  0  0  0  0  0  0
    8.4381  -17.2734   23.7958 C   0  0  0  0  0  0  0  0  0  0  0  0
    7.7512  -18.3667   23.0217 C   0  0  0  0  0  0  0  0  0  0  0  0
    8.4184  -19.6738   23.4011 C   0  0  0  0  0  0  0  0  0  0  0  0
    7.7481  -20.8297   22.6834 C   0  0  0  0  0  0  0  0  0  0  0  0
    8.3762  -22.0749   23.1039 N   0  0  0  0  0  0  0  0  0  0  0  0
    8.4337  -14.9012   24.3028 C   0  0  0  0  0  0  0  0  0  0  0  0
    9.6538  -14.5339   24.2706 O   0  0  0  0  0  0  0  0  0  0  0  0
    7.6207  -14.2870   25.2826 N   0  0  0  0  0  0  0  0  0  0  0  0
    8.1602  -13.3399   26.2594 C   0  0  1  0  0  0  0  0  0  0  0  0
    7.1181  -12.2207   26.3681 C   0  0  0  0  0  0  0  0  0  0  0  0
    5.5268  -13.0261   26.7182 S   0  0  0  0  0  0  0  0  0  0  0  0
    8.2949  -14.0627   27.5451 C   0  0  0  0  0  0  0  0  0  0  0  0
    8.7667  -13.4095   28.5257 O   0  0  0  0  0  0  0  0  0  0  0  0
    7.9381  -15.3853   27.7203 O   0  0  0  0  0  0  0  0  0  0  0  0
  2  1  1  6
  2  3  1  0
  2  5  1  0
  4  3  1  0
  5  6  2  0
  7  8  1  0
  7  5  1  0
  8  9  1  1
 10  9  1  0
 11 12  1  0
 11 10  1  0
 13 12  1  0
 14 15  2  0
 14  8  1  0
 16 14  1  0
 17 16  1  0
 17 20  1  0
 17 18  1  1
 19 18  1  0
 20 22  1  0
 21 20  2  0
M  END
$$$$
