CKC.pdb
     RDKit          3D

 22 21  0  0  1  0  0  0  0  0999 V2000
    5.3108  -13.4771   26.9018 N   0  0  0  0  0  0  0  0  0  0  0  0
    6.2938  -12.8762   25.9836 C   0  0  1  0  0  0  0  0  0  0  0  0
    7.3489  -12.2028   26.8416 C   0  0  0  0  0  0  0  0  0  0  0  0
    6.6996  -10.6877   27.5697 S   0  0  0  0  0  0  0  0  0  0  0  0
    6.8170  -13.9444   25.1269 C   0  0  0  0  0  0  0  0  0  0  0  0
    7.0271  -15.0875   25.6392 O   0  0  0  0  0  0  0  0  0  0  0  0
    7.1182  -13.8220   23.7458 N   0  0  0  0  0  0  0  0  0  0  0  0
    7.6518  -14.9785   23.0113 C   0  0  1  0  0  0  0  0  0  0  0  0
    7.7369  -14.6660   21.5229 C   0  0  0  0  0  0  0  0  0  0  0  0
    8.3330  -15.8336   20.7829 C   0  0  0  0  0  0  0  0  0  0  0  0
    8.2913  -15.4984   19.3052 C   0  0  0  0  0  0  0  0  0  0  0  0
    8.8576  -16.6472   18.4930 C   0  0  0  0  0  0  0  0  0  0  0  0
    8.8830  -16.2649   17.0877 N   0  0  0  0  0  0  0  0  0  0  0  0
    9.0226  -15.2353   23.4997 C   0  0  0  0  0  0  0  0  0  0  0  0
    9.8373  -14.2837   23.7350 O   0  0  0  0  0  0  0  0  0  0  0  0
    9.5044  -16.5438   23.7319 N   0  0  0  0  0  0  0  0  0  0  0  0
   10.8885  -16.8041   24.1302 C   0  0  1  0  0  0  0  0  0  0  0  0
   10.9982  -16.3210   25.5811 C   0  0  0  0  0  0  0  0  0  0  0  0
    9.7644  -17.2558   26.5335 S   0  0  0  0  0  0  0  0  0  0  0  0
   11.1037  -18.2669   24.0430 C   0  0  0  0  0  0  0  0  0  0  0  0
   10.1029  -18.9774   23.7193 O   0  0  0  0  0  0  0  0  0  0  0  0
   12.3167  -18.8781   24.2926 O   0  0  0  0  0  0  0  0  0  0  0  0
  2  1  1  1
  2  3  1  0
  2  5  1  0
  4  3  1  0
  5  6  2  0
  7  8  1  0
  7  5  1  0
  8  9  1  6
 10  9  1  0
 11 12  1  0
 11 10  1  0
 13 12  1  0
 14 15  2  0
 14  8  1  0
 16 14  1  0
 17 16  1  0
 17 20  1  0
 17 18  1  1
 19 18  1  0
 20 22  1  0
 21 20  2  0
M  END
$$$$
