CKC.pdb
     RDKit          3D

 22 21  0  0  1  0  0  0  0  0999 V2000
    6.4588  -15.2504   19.0464 N   0  0  0  0  0  0  0  0  0  0  0  0
    7.7678  -14.8416   19.5846 C   0  0  1  0  0  0  0  0  0  0  0  0
    7.8489  -13.3318   19.4558 C   0  0  0  0  0  0  0  0  0  0  0  0
    8.1243  -12.5734   21.0670 S   0  0  0  0  0  0  0  0  0  0  0  0
    7.8550  -15.3261   20.9653 C   0  0  0  0  0  0  0  0  0  0  0  0
    6.8007  -15.3383   21.6737 O   0  0  0  0  0  0  0  0  0  0  0  0
    9.0325  -15.7955   21.6027 N   0  0  0  0  0  0  0  0  0  0  0  0
    8.9574  -16.3277   22.9713 C   0  0  1  0  0  0  0  0  0  0  0  0
   10.0340  -17.3833   23.1878 C   0  0  0  0  0  0  0  0  0  0  0  0
    9.9448  -17.9331   24.5864 C   0  0  0  0  0  0  0  0  0  0  0  0
   10.9897  -19.0244   24.7082 C   0  0  0  0  0  0  0  0  0  0  0  0
   10.9594  -19.6231   26.1013 C   0  0  0  0  0  0  0  0  0  0  0  0
   11.9642  -20.6743   26.1857 N   0  0  0  0  0  0  0  0  0  0  0  0
    9.2189  -15.2149   23.9077 C   0  0  0  0  0  0  0  0  0  0  0  0
    9.7481  -14.1232   23.5170 O   0  0  0  0  0  0  0  0  0  0  0  0
    8.8982  -15.2987   25.2819 N   0  0  0  0  0  0  0  0  0  0  0  0
    8.6727  -14.1078   26.1024 C   0  0  1  0  0  0  0  0  0  0  0  0
    7.3826  -13.4760   25.5667 C   0  0  0  0  0  0  0  0  0  0  0  0
    6.9877  -12.0876   26.6711 S   0  0  0  0  0  0  0  0  0  0  0  0
    8.4965  -14.5636   27.5005 C   0  0  0  0  0  0  0  0  0  0  0  0
    7.9302  -15.6865   27.6725 O   0  0  0  0  0  0  0  0  0  0  0  0
    8.9112  -13.8381   28.5999 O   0  0  0  0  0  0  0  0  0  0  0  0
  2  1  1  1
  2  3  1  0
  2  5  1  0
  4  3  1  0
  5  6  2  0
  7  8  1  0
  7  5  1  0
  8  9  1  6
 10  9  1  0
 11 12  1  0
 11 10  1  0
 13 12  1  0
 14 15  2  0
 14  8  1  0
 16 14  1  0
 17 16  1  0
 17 20  1  0
 17 18  1  6
 19 18  1  0
 20 22  1  0
 21 20  2  0
M  END
$$$$
