CKC.pdb
     RDKit          3D

 22 21  0  0  1  0  0  0  0  0999 V2000
    5.1551  -13.7964   26.1669 N   0  0  0  0  0  0  0  0  0  0  0  0
    6.2944  -13.1376   25.5047 C   0  0  1  0  0  0  0  0  0  0  0  0
    7.0170  -12.3281   26.5655 C   0  0  0  0  0  0  0  0  0  0  0  0
    6.1269  -10.7999   26.9104 S   0  0  0  0  0  0  0  0  0  0  0  0
    7.1189  -14.1818   24.8892 C   0  0  0  0  0  0  0  0  0  0  0  0
    7.3551  -15.2398   25.5511 O   0  0  0  0  0  0  0  0  0  0  0  0
    7.6922  -14.1237   23.5926 N   0  0  0  0  0  0  0  0  0  0  0  0
    8.5223  -15.2383   23.1126 C   0  0  1  0  0  0  0  0  0  0  0  0
    9.0152  -14.9595   21.6985 C   0  0  0  0  0  0  0  0  0  0  0  0
    9.7640  -16.1527   21.1676 C   0  0  0  0  0  0  0  0  0  0  0  0
    8.7669  -17.2865   21.0341 C   0  0  0  0  0  0  0  0  0  0  0  0
    9.4216  -18.4819   20.3688 C   0  0  0  0  0  0  0  0  0  0  0  0
    8.4475  -19.5605   20.2712 N   0  0  0  0  0  0  0  0  0  0  0  0
    9.7046  -15.3379   23.9934 C   0  0  0  0  0  0  0  0  0  0  0  0
   10.3417  -14.3025   24.3764 O   0  0  0  0  0  0  0  0  0  0  0  0
   10.1925  -16.5806   24.4579 N   0  0  0  0  0  0  0  0  0  0  0  0
   11.0710  -16.6850   25.6239 C   0  0  1  0  0  0  0  0  0  0  0  0
   10.2316  -16.2123   26.8165 C   0  0  0  0  0  0  0  0  0  0  0  0
   11.1966  -16.5863   28.3106 S   0  0  0  0  0  0  0  0  0  0  0  0
   11.4400  -18.1119   25.7704 C   0  0  0  0  0  0  0  0  0  0  0  0
   10.6271  -18.9673   25.3031 O   0  0  0  0  0  0  0  0  0  0  0  0
   12.6024  -18.5431   26.3788 O   0  0  0  0  0  0  0  0  0  0  0  0
  2  1  1  1
  2  3  1  0
  2  5  1  0
  4  3  1  0
  5  6  2  0
  7  8  1  0
  7  5  1  0
  8  9  1  6
 10  9  1  0
 11 12  1  0
 11 10  1  0
 13 12  1  0
 14 15  2  0
 14  8  1  0
 16 14  1  0
 17 16  1  0
 17 20  1  0
 17 18  1  1
 19 18  1  0
 20 22  1  0
 21 20  2  0
M  END
$$$$
