YMH.pdb
     RDKit          3D

 31 32  0  0  1  0  0  0  0  0999 V2000
   29.2021  -17.0948  -18.5039 O   0  0  0  0  0  0  0  0  0  0  0  0
   28.5239  -17.6772  -17.4259 C   0  0  0  0  0  0  0  0  0  0  0  0
   28.9073  -17.3187  -16.1418 C   0  0  0  0  0  0  0  0  0  0  0  0
   28.2563  -17.8770  -15.0592 C   0  0  0  0  0  0  0  0  0  0  0  0
   27.2306  -18.7849  -15.1968 C   0  0  0  0  0  0  0  0  0  0  0  0
   26.5422  -19.3743  -14.0179 C   0  0  0  0  0  0  0  0  0  0  0  0
   27.3803  -20.4220  -13.3430 C   0  0  2  0  0  0  0  0  0  0  0  0
   27.6819  -21.5107  -14.2526 N   0  0  0  0  0  0  0  0  0  0  0  0
   26.7943  -20.9651  -12.1250 C   0  0  0  0  0  0  0  0  0  0  0  0
   25.9929  -21.9499  -12.2515 O   0  0  0  0  0  0  0  0  0  0  0  0
   26.8717  -19.1221  -16.4970 C   0  0  0  0  0  0  0  0  0  0  0  0
   27.5069  -18.5778  -17.5900 C   0  0  0  0  0  0  0  0  0  0  0  0
   27.6627  -19.7058   -5.3532 C   0  0  0  0  0  0  0  0  0  0  0  0
   28.9193  -20.0348   -6.6012 S   0  0  0  0  0  0  0  0  0  0  0  0
   28.1639  -20.8442   -8.0668 C   0  0  0  0  0  0  0  0  0  0  0  0
   26.8853  -20.1927   -8.4374 C   0  0  0  0  0  0  0  0  0  0  0  0
   26.1971  -20.7297   -9.6683 C   0  0  2  0  0  0  0  0  0  0  0  0
   27.0648  -20.4643  -10.8375 N   0  0  0  0  0  0  0  0  0  0  0  0
   24.8744  -20.1635   -9.9284 C   0  0  0  0  0  0  0  0  0  0  0  0
   24.6773  -19.6080  -11.0506 O   0  0  0  0  0  0  0  0  0  0  0  0
   23.7757  -20.1759   -9.0503 N   0  0  0  0  0  0  0  0  0  0  0  0
   22.4067  -20.2252   -9.6078 C   0  0  1  0  0  0  0  0  0  0  0  0
   22.4622  -20.9963  -10.9266 C   0  0  0  0  0  0  0  0  0  0  0  0
   21.0950  -21.1518  -11.4531 C   0  0  0  0  0  0  0  0  0  0  0  0
   19.9255  -20.7524  -10.7806 C   0  0  0  0  0  0  0  0  0  0  0  0
   18.8643  -21.0435  -11.5472 N   0  0  0  0  0  0  0  0  0  0  0  0
   19.3129  -21.6079  -12.6718 C   0  0  0  0  0  0  0  0  0  0  0  0
   20.6427  -21.6632  -12.5962 N   0  0  0  0  0  0  0  0  0  0  0  0
   21.6415  -21.0532   -8.6526 C   0  0  0  0  0  0  0  0  0  0  0  0
   20.4789  -20.7075   -8.3307 O   0  0  0  0  0  0  0  0  0  0  0  0
   22.1337  -22.1905   -8.0928 O   0  0  0  0  0  0  0  0  0  0  0  0
  2  1  1  0
  3  2  2  0
  4  3  1  0
  5 11  1  0
  5  4  2  0
  6  5  1  0
  7  9  1  0
  7  6  1  0
  7  8  1  6
  9 10  2  0
 11 12  2  0
 12  2  1  0
 13 14  1  0
 14 15  1  0
 16 15  1  0
 17 16  1  1
 18  9  1  0
 18 17  1  0
 19 21  1  0
 19 17  1  0
 20 19  2  0
 22 29  1  0
 22 21  1  0
 22 23  1  6
 23 24  1  0
 24 25  2  0
 24 28  1  0
 25 26  1  0
 26 27  1  0
 28 27  2  0
 29 31  1  0
 30 29  2  0
M  END
$$$$
