YMH.pdb
     RDKit          3D

 31 32  0  0  1  0  0  0  0  0999 V2000
   37.1757  -24.7997  -19.4535 O   0  0  0  0  0  0  0  0  0  0  0  0
   35.8588  -24.9172  -18.9917 C   0  0  0  0  0  0  0  0  0  0  0  0
   34.9121  -24.0303  -19.4834 C   0  0  0  0  0  0  0  0  0  0  0  0
   33.6053  -24.1225  -19.0459 C   0  0  0  0  0  0  0  0  0  0  0  0
   33.1927  -25.0662  -18.1323 C   0  0  0  0  0  0  0  0  0  0  0  0
   31.7806  -25.1488  -17.6743 C   0  0  0  0  0  0  0  0  0  0  0  0
   31.4605  -24.1014  -16.6464 C   0  0  2  0  0  0  0  0  0  0  0  0
   32.2593  -24.2870  -15.4502 N   0  0  0  0  0  0  0  0  0  0  0  0
   30.0532  -24.0356  -16.2762 C   0  0  0  0  0  0  0  0  0  0  0  0
   29.7813  -23.8984  -15.0371 O   0  0  0  0  0  0  0  0  0  0  0  0
   34.1668  -25.9388  -17.6601 C   0  0  0  0  0  0  0  0  0  0  0  0
   35.4746  -25.8648  -18.0825 C   0  0  0  0  0  0  0  0  0  0  0  0
   27.7491  -19.0678  -13.6610 C   0  0  0  0  0  0  0  0  0  0  0  0
   28.0515  -19.6744  -15.3300 S   0  0  0  0  0  0  0  0  0  0  0  0
   27.7984  -21.4922  -15.4019 C   0  0  0  0  0  0  0  0  0  0  0  0
   27.9053  -21.9921  -16.7930 C   0  0  0  0  0  0  0  0  0  0  0  0
   27.6818  -23.4717  -16.9875 C   0  0  2  0  0  0  0  0  0  0  0  0
   28.9971  -24.1148  -17.2035 N   0  0  0  0  0  0  0  0  0  0  0  0
   26.8021  -23.8184  -18.1027 C   0  0  0  0  0  0  0  0  0  0  0  0
   27.2719  -23.7343  -19.2770 O   0  0  0  0  0  0  0  0  0  0  0  0
   25.4664  -24.2488  -18.0073 N   0  0  0  0  0  0  0  0  0  0  0  0
   24.7355  -24.6127  -19.2405 C   0  0  1  0  0  0  0  0  0  0  0  0
   23.6023  -25.5631  -18.8538 C   0  0  0  0  0  0  0  0  0  0  0  0
   24.1779  -26.8357  -18.3851 C   0  0  0  0  0  0  0  0  0  0  0  0
   25.1930  -27.5499  -19.0476 C   0  0  0  0  0  0  0  0  0  0  0  0
   25.4727  -28.6573  -18.3449 N   0  0  0  0  0  0  0  0  0  0  0  0
   24.6796  -28.6725  -17.2700 C   0  0  0  0  0  0  0  0  0  0  0  0
   23.9168  -27.5800  -17.3125 N   0  0  0  0  0  0  0  0  0  0  0  0
   24.1100  -23.3525  -19.6924 C   0  0  0  0  0  0  0  0  0  0  0  0
   24.2097  -22.3246  -18.9795 O   0  0  0  0  0  0  0  0  0  0  0  0
   23.4207  -23.2402  -20.8592 O   0  0  0  0  0  0  0  0  0  0  0  0
  2  1  1  0
  3  2  2  0
  4  3  1  0
  5 11  1  0
  5  4  2  0
  6  5  1  0
  7  9  1  0
  7  6  1  0
  7  8  1  1
  9 10  2  0
 11 12  2  0
 12  2  1  0
 13 14  1  0
 14 15  1  0
 16 15  1  0
 17 16  1  6
 18  9  1  0
 18 17  1  0
 19 21  1  0
 19 17  1  0
 20 19  2  0
 22 29  1  0
 22 21  1  0
 22 23  1  1
 23 24  1  0
 24 25  2  0
 24 28  1  0
 25 26  1  0
 26 27  1  0
 28 27  2  0
 29 31  1  0
 30 29  2  0
M  END
$$$$
