YMH.pdb
     RDKit          3D

 31 32  0  0  1  0  0  0  0  0999 V2000
   17.9404   -9.3139  -24.6748 O   0  0  0  0  0  0  0  0  0  0  0  0
   18.4774  -10.5282  -24.2294 C   0  0  0  0  0  0  0  0  0  0  0  0
   17.9715  -11.7029  -24.7667 C   0  0  0  0  0  0  0  0  0  0  0  0
   18.4819  -12.9155  -24.3464 C   0  0  0  0  0  0  0  0  0  0  0  0
   19.4829  -13.0142  -23.4063 C   0  0  0  0  0  0  0  0  0  0  0  0
   20.0189  -14.3298  -22.9675 C   0  0  0  0  0  0  0  0  0  0  0  0
   21.3592  -14.6232  -23.5785 C   0  0  2  0  0  0  0  0  0  0  0  0
   21.2496  -14.7894  -25.0150 N   0  0  0  0  0  0  0  0  0  0  0  0
   22.0344  -15.7835  -23.0131 C   0  0  0  0  0  0  0  0  0  0  0  0
   21.7757  -16.9200  -23.5323 O   0  0  0  0  0  0  0  0  0  0  0  0
   19.9669  -11.8180  -22.8885 C   0  0  0  0  0  0  0  0  0  0  0  0
   19.4727  -10.5988  -23.2932 C   0  0  0  0  0  0  0  0  0  0  0  0
   28.4989  -18.0886  -19.0347 C   0  0  0  0  0  0  0  0  0  0  0  0
   27.4672  -16.7890  -19.7358 S   0  0  0  0  0  0  0  0  0  0  0  0
   25.8342  -17.4697  -20.2294 C   0  0  0  0  0  0  0  0  0  0  0  0
   24.9964  -16.4326  -20.8767 C   0  0  0  0  0  0  0  0  0  0  0  0
   23.6622  -16.8927  -21.4107 C   0  0  2  0  0  0  0  0  0  0  0  0
   22.9427  -15.7126  -21.9400 N   0  0  0  0  0  0  0  0  0  0  0  0
   22.8071  -17.5626  -20.4320 C   0  0  0  0  0  0  0  0  0  0  0  0
   22.0124  -16.8475  -19.7509 O   0  0  0  0  0  0  0  0  0  0  0  0
   22.7688  -18.9432  -20.1661 N   0  0  0  0  0  0  0  0  0  0  0  0
   21.8258  -19.4564  -19.1488 C   0  0  1  0  0  0  0  0  0  0  0  0
   20.4197  -19.4178  -19.7475 C   0  0  0  0  0  0  0  0  0  0  0  0
   19.4745  -20.0348  -18.8006 C   0  0  0  0  0  0  0  0  0  0  0  0
   19.3373  -19.6679  -17.4494 C   0  0  0  0  0  0  0  0  0  0  0  0
   18.3901  -20.4326  -16.8870 N   0  0  0  0  0  0  0  0  0  0  0  0
   17.9248  -21.2643  -17.8231 C   0  0  0  0  0  0  0  0  0  0  0  0
   18.5829  -21.0116  -18.9545 N   0  0  0  0  0  0  0  0  0  0  0  0
   22.1885  -20.8794  -18.9840 C   0  0  0  0  0  0  0  0  0  0  0  0
   22.8245  -21.4628  -19.8950 O   0  0  0  0  0  0  0  0  0  0  0  0
   21.8678  -21.6063  -17.8805 O   0  0  0  0  0  0  0  0  0  0  0  0
  2  1  1  0
  3  2  2  0
  4  3  1  0
  5 11  1  0
  5  4  2  0
  6  5  1  0
  7  9  1  0
  7  6  1  0
  7  8  1  6
  9 10  2  0
 11 12  2  0
 12  2  1  0
 13 14  1  0
 14 15  1  0
 16 15  1  0
 17 16  1  1
 18  9  1  0
 18 17  1  0
 19 21  1  0
 19 17  1  0
 20 19  2  0
 22 29  1  0
 22 21  1  0
 22 23  1  6
 23 24  1  0
 24 25  2  0
 24 28  1  0
 25 26  1  0
 26 27  1  0
 28 27  2  0
 29 31  1  0
 30 29  2  0
M  END
$$$$
