YMH.pdb
     RDKit          3D

 31 32  0  0  1  0  0  0  0  0999 V2000
   32.5253  -23.1223   -9.4477 O   0  0  0  0  0  0  0  0  0  0  0  0
   31.5740  -22.2814  -10.0385 C   0  0  0  0  0  0  0  0  0  0  0  0
   31.7504  -21.9275  -11.3683 C   0  0  0  0  0  0  0  0  0  0  0  0
   30.8280  -21.0994  -11.9774 C   0  0  0  0  0  0  0  0  0  0  0  0
   29.7268  -20.6019  -11.3177 C   0  0  0  0  0  0  0  0  0  0  0  0
   28.7452  -19.7117  -11.9919 C   0  0  0  0  0  0  0  0  0  0  0  0
   27.5238  -20.4607  -12.4428 C   0  0  2  0  0  0  0  0  0  0  0  0
   27.8846  -21.5738  -13.2997 N   0  0  0  0  0  0  0  0  0  0  0  0
   26.5323  -19.6369  -13.1211 C   0  0  0  0  0  0  0  0  0  0  0  0
   26.1481  -18.5761  -12.5251 O   0  0  0  0  0  0  0  0  0  0  0  0
   29.5805  -20.9762   -9.9866 C   0  0  0  0  0  0  0  0  0  0  0  0
   30.4875  -21.8003   -9.3600 C   0  0  0  0  0  0  0  0  0  0  0  0
   26.0587  -21.3690  -20.0025 C   0  0  0  0  0  0  0  0  0  0  0  0
   26.0610  -19.8449  -19.0424 S   0  0  0  0  0  0  0  0  0  0  0  0
   25.5116  -20.1763  -17.3213 C   0  0  0  0  0  0  0  0  0  0  0  0
   25.4846  -18.9301  -16.5196 C   0  0  0  0  0  0  0  0  0  0  0  0
   25.0295  -19.0697  -15.0877 C   0  0  2  0  0  0  0  0  0  0  0  0
   25.9868  -19.9494  -14.3806 N   0  0  0  0  0  0  0  0  0  0  0  0
   23.6826  -19.6140  -14.9219 C   0  0  0  0  0  0  0  0  0  0  0  0
   22.7359  -19.0578  -15.5553 O   0  0  0  0  0  0  0  0  0  0  0  0
   23.3212  -20.7138  -14.1230 N   0  0  0  0  0  0  0  0  0  0  0  0
   21.8995  -21.1143  -14.0466 C   0  0  1  0  0  0  0  0  0  0  0  0
   21.8460  -22.6322  -13.8726 C   0  0  0  0  0  0  0  0  0  0  0  0
   20.4478  -23.0449  -13.6601 C   0  0  0  0  0  0  0  0  0  0  0  0
   19.3461  -22.1700  -13.6439 C   0  0  0  0  0  0  0  0  0  0  0  0
   18.2308  -22.8820  -13.4254 N   0  0  0  0  0  0  0  0  0  0  0  0
   18.5806  -24.1655  -13.3034 C   0  0  0  0  0  0  0  0  0  0  0  0
   19.9039  -24.2412  -13.4462 N   0  0  0  0  0  0  0  0  0  0  0  0
   21.4074  -20.5155  -12.7885 C   0  0  0  0  0  0  0  0  0  0  0  0
   22.2233  -20.2455  -11.8740 O   0  0  0  0  0  0  0  0  0  0  0  0
   20.0967  -20.2336  -12.5611 O   0  0  0  0  0  0  0  0  0  0  0  0
  2  1  1  0
  3  2  2  0
  4  3  1  0
  5 11  1  0
  5  4  2  0
  6  5  1  0
  7  9  1  0
  7  6  1  0
  7  8  1  6
  9 10  2  0
 11 12  2  0
 12  2  1  0
 13 14  1  0
 14 15  1  0
 16 15  1  0
 17 16  1  6
 18  9  1  0
 18 17  1  0
 19 21  1  0
 19 17  1  0
 20 19  2  0
 22 29  1  0
 22 21  1  0
 22 23  1  1
 23 24  1  0
 24 25  2  0
 24 28  1  0
 25 26  1  0
 26 27  1  0
 28 27  2  0
 29 31  1  0
 30 29  2  0
M  END
$$$$
