YMH.pdb
     RDKit          3D

 31 32  0  0  1  0  0  0  0  0999 V2000
   21.3976  -19.5559  -23.2967 O   0  0  0  0  0  0  0  0  0  0  0  0
   21.0362  -20.1828  -22.0977 C   0  0  0  0  0  0  0  0  0  0  0  0
   20.9910  -21.5691  -22.0727 C   0  0  0  0  0  0  0  0  0  0  0  0
   20.6378  -22.2148  -20.9040 C   0  0  0  0  0  0  0  0  0  0  0  0
   20.3244  -21.5377  -19.7469 C   0  0  0  0  0  0  0  0  0  0  0  0
   19.9469  -22.2520  -18.4987 C   0  0  0  0  0  0  0  0  0  0  0  0
   21.0781  -22.2958  -17.5117 C   0  0  2  0  0  0  0  0  0  0  0  0
   22.1878  -23.0737  -18.0282 N   0  0  0  0  0  0  0  0  0  0  0  0
   20.7078  -22.8048  -16.1980 C   0  0  0  0  0  0  0  0  0  0  0  0
   20.9274  -24.0404  -15.9675 O   0  0  0  0  0  0  0  0  0  0  0  0
   20.3797  -20.1497  -19.8068 C   0  0  0  0  0  0  0  0  0  0  0  0
   20.7291  -19.4860  -20.9608 C   0  0  0  0  0  0  0  0  0  0  0  0
   20.1775  -19.7174  -10.3680 C   0  0  0  0  0  0  0  0  0  0  0  0
   21.7135  -19.9022  -11.2906 S   0  0  0  0  0  0  0  0  0  0  0  0
   21.4983  -21.1220  -12.6470 C   0  0  0  0  0  0  0  0  0  0  0  0
   20.0700  -21.4738  -12.8276 C   0  0  0  0  0  0  0  0  0  0  0  0
   19.7719  -22.5406  -13.8524 C   0  0  2  0  0  0  0  0  0  0  0  0
   20.1292  -22.0130  -15.1882 N   0  0  0  0  0  0  0  0  0  0  0  0
   18.3812  -22.9909  -13.8832 C   0  0  0  0  0  0  0  0  0  0  0  0
   17.5466  -22.2945  -14.5352 O   0  0  0  0  0  0  0  0  0  0  0  0
   17.8638  -24.1400  -13.2586 N   0  0  0  0  0  0  0  0  0  0  0  0
   16.4022  -24.3661  -13.2600 C   0  0  1  0  0  0  0  0  0  0  0  0
   16.1576  -25.8682  -13.4047 C   0  0  0  0  0  0  0  0  0  0  0  0
   14.7084  -26.1144  -13.5030 C   0  0  0  0  0  0  0  0  0  0  0  0
   14.0024  -26.2811  -14.7084 C   0  0  0  0  0  0  0  0  0  0  0  0
   12.7072  -26.4855  -14.4270 N   0  0  0  0  0  0  0  0  0  0  0  0
   12.5660  -26.4550  -13.0989 C   0  0  0  0  0  0  0  0  0  0  0  0
   13.7683  -26.2330  -12.5676 N   0  0  0  0  0  0  0  0  0  0  0  0
   15.9613  -23.9832  -11.9026 C   0  0  0  0  0  0  0  0  0  0  0  0
   14.7346  -23.9465  -11.6404 O   0  0  0  0  0  0  0  0  0  0  0  0
   16.8248  -23.6636  -10.9020 O   0  0  0  0  0  0  0  0  0  0  0  0
  2  1  1  0
  3  2  2  0
  4  3  1  0
  5 11  1  0
  5  4  2  0
  6  5  1  0
  7  9  1  0
  7  6  1  0
  7  8  1  6
  9 10  2  0
 11 12  2  0
 12  2  1  0
 13 14  1  0
 14 15  1  0
 16 15  1  0
 17 16  1  1
 18  9  1  0
 18 17  1  0
 19 21  1  0
 19 17  1  0
 20 19  2  0
 22 29  1  0
 22 21  1  0
 22 23  1  1
 23 24  1  0
 24 25  2  0
 24 28  1  0
 25 26  1  0
 26 27  1  0
 28 27  2  0
 29 31  1  0
 30 29  2  0
M  END
$$$$
