YMH.pdb
     RDKit          3D

 31 32  0  0  1  0  0  0  0  0999 V2000
   25.4281    0.2698  -16.2736 O   0  0  0  0  0  0  0  0  0  0  0  0
   24.8617   -0.9917  -16.0523 C   0  0  0  0  0  0  0  0  0  0  0  0
   25.6736   -2.1073  -16.1966 C   0  0  0  0  0  0  0  0  0  0  0  0
   25.1422   -3.3644  -15.9846 C   0  0  0  0  0  0  0  0  0  0  0  0
   23.8266   -3.5648  -15.6318 C   0  0  0  0  0  0  0  0  0  0  0  0
   23.2739   -4.9268  -15.4078 C   0  0  0  0  0  0  0  0  0  0  0  0
   23.3568   -5.7775  -16.6428 C   0  0  2  0  0  0  0  0  0  0  0  0
   22.7171   -5.1229  -17.7678 N   0  0  0  0  0  0  0  0  0  0  0  0
   22.7999   -7.1146  -16.4879 C   0  0  0  0  0  0  0  0  0  0  0  0
   21.6319   -7.3188  -16.9593 O   0  0  0  0  0  0  0  0  0  0  0  0
   23.0411   -2.4256  -15.4958 C   0  0  0  0  0  0  0  0  0  0  0  0
   23.5501   -1.1636  -15.7024 C   0  0  0  0  0  0  0  0  0  0  0  0
   27.7984  -10.9935  -15.5528 C   0  0  0  0  0  0  0  0  0  0  0  0
   26.2710  -11.9140  -15.8066 S   0  0  0  0  0  0  0  0  0  0  0  0
   24.9426  -10.7919  -16.3981 C   0  0  0  0  0  0  0  0  0  0  0  0
   23.9841  -10.4792  -15.3118 C   0  0  0  0  0  0  0  0  0  0  0  0
   22.8779   -9.5131  -15.6581 C   0  0  2  0  0  0  0  0  0  0  0  0
   23.4764   -8.1738  -15.8539 N   0  0  0  0  0  0  0  0  0  0  0  0
   21.8168   -9.4103  -14.6574 C   0  0  0  0  0  0  0  0  0  0  0  0
   22.1046   -8.8867  -13.5395 O   0  0  0  0  0  0  0  0  0  0  0  0
   20.4843   -9.8341  -14.8098 N   0  0  0  0  0  0  0  0  0  0  0  0
   19.5810   -9.8104  -13.6389 C   0  0  1  0  0  0  0  0  0  0  0  0
   18.6977   -8.5676  -13.7500 C   0  0  0  0  0  0  0  0  0  0  0  0
   17.7212   -8.5689  -12.6469 C   0  0  0  0  0  0  0  0  0  0  0  0
   17.9955   -8.1522  -11.3314 C   0  0  0  0  0  0  0  0  0  0  0  0
   16.8837   -8.2871  -10.5937 N   0  0  0  0  0  0  0  0  0  0  0  0
   15.9221   -8.7699  -11.3853 C   0  0  0  0  0  0  0  0  0  0  0  0
   16.4406   -8.9306  -12.6028 N   0  0  0  0  0  0  0  0  0  0  0  0
   18.7024  -10.9849  -13.8181 C   0  0  0  0  0  0  0  0  0  0  0  0
   18.6246  -11.5301  -14.9457 O   0  0  0  0  0  0  0  0  0  0  0  0
   17.9604  -11.5198  -12.8119 O   0  0  0  0  0  0  0  0  0  0  0  0
  2  1  1  0
  3  2  2  0
  4  3  1  0
  5 11  1  0
  5  4  2  0
  6  5  1  0
  7  9  1  0
  7  6  1  0
  7  8  1  6
  9 10  2  0
 11 12  2  0
 12  2  1  0
 13 14  1  0
 14 15  1  0
 16 15  1  0
 17 16  1  1
 18  9  1  0
 18 17  1  0
 19 21  1  0
 19 17  1  0
 20 19  2  0
 22 29  1  0
 22 21  1  0
 22 23  1  6
 23 24  1  0
 24 25  2  0
 24 28  1  0
 25 26  1  0
 26 27  1  0
 28 27  2  0
 29 31  1  0
 30 29  2  0
M  END
$$$$
