YMH.pdb
     RDKit          3D

 31 32  0  0  1  0  0  0  0  0999 V2000
   29.9513   -7.1569  -22.3978 O   0  0  0  0  0  0  0  0  0  0  0  0
   28.7125   -7.1396  -21.7449 C   0  0  0  0  0  0  0  0  0  0  0  0
   27.5751   -7.4043  -22.4939 C   0  0  0  0  0  0  0  0  0  0  0  0
   26.3396   -7.3942  -21.8767 C   0  0  0  0  0  0  0  0  0  0  0  0
   26.1819   -7.1303  -20.5347 C   0  0  0  0  0  0  0  0  0  0  0  0
   24.8424   -7.1245  -19.8893 C   0  0  0  0  0  0  0  0  0  0  0  0
   24.6014   -8.3685  -19.0829 C   0  0  2  0  0  0  0  0  0  0  0  0
   24.6359   -9.5482  -19.9258 N   0  0  0  0  0  0  0  0  0  0  0  0
   23.3579   -8.3593  -18.3242 C   0  0  0  0  0  0  0  0  0  0  0  0
   22.3230   -8.8417  -18.8936 O   0  0  0  0  0  0  0  0  0  0  0  0
   27.3419   -6.8692  -19.8140 C   0  0  0  0  0  0  0  0  0  0  0  0
   28.5830   -6.8741  -20.4089 C   0  0  0  0  0  0  0  0  0  0  0  0
   20.3832   -9.7118  -11.2452 C   0  0  0  0  0  0  0  0  0  0  0  0
   21.7326   -9.6483  -12.4369 S   0  0  0  0  0  0  0  0  0  0  0  0
   21.2131   -8.7257  -13.9378 C   0  0  0  0  0  0  0  0  0  0  0  0
   22.3164   -8.6451  -14.9241 C   0  0  0  0  0  0  0  0  0  0  0  0
   22.0004   -7.9394  -16.2199 C   0  0  2  0  0  0  0  0  0  0  0  0
   23.2450   -7.8523  -17.0159 N   0  0  0  0  0  0  0  0  0  0  0  0
   21.4466   -6.5948  -16.0675 C   0  0  0  0  0  0  0  0  0  0  0  0
   22.2175   -5.6799  -15.6487 O   0  0  0  0  0  0  0  0  0  0  0  0
   20.1256   -6.2014  -16.3475 N   0  0  0  0  0  0  0  0  0  0  0  0
   19.7143   -4.8073  -16.0739 C   0  0  1  0  0  0  0  0  0  0  0  0
   18.6260   -4.4308  -17.0794 C   0  0  0  0  0  0  0  0  0  0  0  0
   19.2476   -4.1746  -18.3903 C   0  0  0  0  0  0  0  0  0  0  0  0
   19.8615   -2.9654  -18.7650 C   0  0  0  0  0  0  0  0  0  0  0  0
   20.3171   -3.0821  -20.0210 N   0  0  0  0  0  0  0  0  0  0  0  0
   20.0176   -4.3099  -20.4537 C   0  0  0  0  0  0  0  0  0  0  0  0
   19.3815   -4.9440  -19.4686 N   0  0  0  0  0  0  0  0  0  0  0  0
   19.0760   -4.8583  -14.7421 C   0  0  0  0  0  0  0  0  0  0  0  0
   18.9564   -5.9624  -14.1578 O   0  0  0  0  0  0  0  0  0  0  0  0
   18.6030   -3.7565  -14.1007 O   0  0  0  0  0  0  0  0  0  0  0  0
  2  1  1  0
  3  2  2  0
  4  3  1  0
  5 11  1  0
  5  4  2  0
  6  5  1  0
  7  9  1  0
  7  6  1  0
  7  8  1  6
  9 10  2  0
 11 12  2  0
 12  2  1  0
 13 14  1  0
 14 15  1  0
 16 15  1  0
 17 16  1  1
 18  9  1  0
 18 17  1  0
 19 21  1  0
 19 17  1  0
 20 19  2  0
 22 29  1  0
 22 21  1  0
 22 23  1  6
 23 24  1  0
 24 25  2  0
 24 28  1  0
 25 26  1  0
 26 27  1  0
 28 27  2  0
 29 31  1  0
 30 29  2  0
M  END
$$$$
