YMH.pdb
     RDKit          3D

 31 32  0  0  1  0  0  0  0  0999 V2000
   25.3535  -15.8841  -15.8879 O   0  0  0  0  0  0  0  0  0  0  0  0
   26.4643  -15.1565  -16.3328 C   0  0  0  0  0  0  0  0  0  0  0  0
   26.9529  -14.1459  -15.5175 C   0  0  0  0  0  0  0  0  0  0  0  0
   28.0474  -13.4116  -15.9303 C   0  0  0  0  0  0  0  0  0  0  0  0
   28.6848  -13.6387  -17.1293 C   0  0  0  0  0  0  0  0  0  0  0  0
   29.8622  -12.8368  -17.5552 C   0  0  0  0  0  0  0  0  0  0  0  0
   29.4786  -11.4379  -17.9449 C   0  0  2  0  0  0  0  0  0  0  0  0
   28.6028  -11.4428  -19.1008 N   0  0  0  0  0  0  0  0  0  0  0  0
   30.6093  -10.5572  -18.2055 C   0  0  0  0  0  0  0  0  0  0  0  0
   31.0006  -10.4521  -19.4154 O   0  0  0  0  0  0  0  0  0  0  0  0
   28.1694  -14.6584  -17.9217 C   0  0  0  0  0  0  0  0  0  0  0  0
   27.0798  -15.4024  -17.5298 C   0  0  0  0  0  0  0  0  0  0  0  0
   35.1410   -4.7456  -15.1699 C   0  0  0  0  0  0  0  0  0  0  0  0
   33.5955   -5.6673  -15.2527 S   0  0  0  0  0  0  0  0  0  0  0  0
   33.7417   -7.0478  -16.4554 C   0  0  0  0  0  0  0  0  0  0  0  0
   32.5318   -7.9037  -16.4362 C   0  0  0  0  0  0  0  0  0  0  0  0
   32.4758   -9.0002  -17.4713 C   0  0  2  0  0  0  0  0  0  0  0  0
   31.2794   -9.8293  -17.2042 N   0  0  0  0  0  0  0  0  0  0  0  0
   33.6502   -9.8705  -17.5079 C   0  0  0  0  0  0  0  0  0  0  0  0
   33.5781  -10.9891  -16.9160 O   0  0  0  0  0  0  0  0  0  0  0  0
   34.8720   -9.5942  -18.1476 N   0  0  0  0  0  0  0  0  0  0  0  0
   35.9771  -10.5720  -18.0461 C   0  0  1  0  0  0  0  0  0  0  0  0
   35.8775  -11.2561  -16.6826 C   0  0  0  0  0  0  0  0  0  0  0  0
   36.6520  -10.4827  -15.6964 C   0  0  0  0  0  0  0  0  0  0  0  0
   37.2863   -9.2546  -15.9585 C   0  0  0  0  0  0  0  0  0  0  0  0
   37.8970   -8.8353  -14.8405 N   0  0  0  0  0  0  0  0  0  0  0  0
   37.6757   -9.7440  -13.8867 C   0  0  0  0  0  0  0  0  0  0  0  0
   36.9330  -10.7162  -14.4161 N   0  0  0  0  0  0  0  0  0  0  0  0
   35.6697  -11.5940  -19.0681 C   0  0  0  0  0  0  0  0  0  0  0  0
   35.8233  -12.8083  -18.7912 O   0  0  0  0  0  0  0  0  0  0  0  0
   35.2203  -11.2884  -20.3146 O   0  0  0  0  0  0  0  0  0  0  0  0
  2  1  1  0
  3  2  2  0
  4  3  1  0
  5 11  1  0
  5  4  2  0
  6  5  1  0
  7  9  1  0
  7  6  1  0
  7  8  1  6
  9 10  2  0
 11 12  2  0
 12  2  1  0
 13 14  1  0
 14 15  1  0
 16 15  1  0
 17 16  1  1
 18  9  1  0
 18 17  1  0
 19 21  1  0
 19 17  1  0
 20 19  2  0
 22 29  1  0
 22 21  1  0
 22 23  1  1
 23 24  1  0
 24 25  2  0
 24 28  1  0
 25 26  1  0
 26 27  1  0
 28 27  2  0
 29 31  1  0
 30 29  2  0
M  END
$$$$
