YMH.pdb
     RDKit          3D

 31 32  0  0  1  0  0  0  0  0999 V2000
   27.6981  -16.2090  -18.1521 O   0  0  0  0  0  0  0  0  0  0  0  0
   27.2292  -16.9445  -17.0565 C   0  0  0  0  0  0  0  0  0  0  0  0
   26.4506  -18.0652  -17.3065 C   0  0  0  0  0  0  0  0  0  0  0  0
   25.9743  -18.8100  -16.2454 C   0  0  0  0  0  0  0  0  0  0  0  0
   26.2396  -18.4879  -14.9335 C   0  0  0  0  0  0  0  0  0  0  0  0
   25.7173  -19.3034  -13.8052 C   0  0  0  0  0  0  0  0  0  0  0  0
   26.8078  -20.0706  -13.1138 C   0  0  2  0  0  0  0  0  0  0  0  0
   27.3290  -21.1181  -13.9707 N   0  0  0  0  0  0  0  0  0  0  0  0
   26.4155  -20.6493  -11.8358 C   0  0  0  0  0  0  0  0  0  0  0  0
   26.1574  -21.8987  -11.8154 O   0  0  0  0  0  0  0  0  0  0  0  0
   27.0225  -17.3591  -14.7187 C   0  0  0  0  0  0  0  0  0  0  0  0
   27.5076  -16.6026  -15.7612 C   0  0  0  0  0  0  0  0  0  0  0  0
   27.4077  -19.9527   -4.0312 C   0  0  0  0  0  0  0  0  0  0  0  0
   27.7156  -19.4054   -5.7195 S   0  0  0  0  0  0  0  0  0  0  0  0
   26.5447  -20.2207   -6.8763 C   0  0  0  0  0  0  0  0  0  0  0  0
   26.8543  -19.8729   -8.2834 C   0  0  0  0  0  0  0  0  0  0  0  0
   25.9913  -20.5252   -9.3353 C   0  0  2  0  0  0  0  0  0  0  0  0
   26.3093  -19.9094  -10.6430 N   0  0  0  0  0  0  0  0  0  0  0  0
   24.5519  -20.4152   -9.1034 C   0  0  0  0  0  0  0  0  0  0  0  0
   23.9479  -19.4120   -9.5887 O   0  0  0  0  0  0  0  0  0  0  0  0
   23.7512  -21.3254   -8.3900 N   0  0  0  0  0  0  0  0  0  0  0  0
   22.3504  -21.5401   -8.8131 C   0  0  1  0  0  0  0  0  0  0  0  0
   21.8122  -22.7576   -8.0615 C   0  0  0  0  0  0  0  0  0  0  0  0
   20.4040  -22.9733   -8.4367 C   0  0  0  0  0  0  0  0  0  0  0  0
   19.4288  -21.9618   -8.5101 C   0  0  0  0  0  0  0  0  0  0  0  0
   18.2624  -22.5108   -8.8798 N   0  0  0  0  0  0  0  0  0  0  0  0
   18.4593  -23.8220   -9.0424 C   0  0  0  0  0  0  0  0  0  0  0  0
   19.7400  -24.0769   -8.7740 N   0  0  0  0  0  0  0  0  0  0  0  0
   21.6198  -20.3595   -8.3069 C   0  0  0  0  0  0  0  0  0  0  0  0
   22.0991  -19.7007   -7.3524 O   0  0  0  0  0  0  0  0  0  0  0  0
   20.4362  -19.9374   -8.8266 O   0  0  0  0  0  0  0  0  0  0  0  0
  2  1  1  0
  3  2  2  0
  4  3  1  0
  5 11  1  0
  5  4  2  0
  6  5  1  0
  7  9  1  0
  7  6  1  0
  7  8  1  6
  9 10  2  0
 11 12  2  0
 12  2  1  0
 13 14  1  0
 14 15  1  0
 16 15  1  0
 17 16  1  1
 18  9  1  0
 18 17  1  0
 19 21  1  0
 19 17  1  0
 20 19  2  0
 22 29  1  0
 22 21  1  0
 22 23  1  1
 23 24  1  0
 24 25  2  0
 24 28  1  0
 25 26  1  0
 26 27  1  0
 28 27  2  0
 29 31  1  0
 30 29  2  0
M  END
$$$$
