VMM.pdb
     RDKit          3D

 24 23  0  0  1  0  0  0  0  0999 V2000
    9.1941  -19.5594   21.3323 C   0  0  0  0  0  0  0  0  0  0  0  0
    7.7842  -19.0910   21.1354 C   0  0  2  0  0  0  0  0  0  0  0  0
    7.0456  -20.1254   20.3262 C   0  0  0  0  0  0  0  0  0  0  0  0
    7.7158  -17.7605   20.4419 C   0  0  2  0  0  0  0  0  0  0  0  0
    8.3615  -17.8644   19.1529 N   0  0  0  0  0  0  0  0  0  0  0  0
    8.3452  -16.6753   21.2303 C   0  0  0  0  0  0  0  0  0  0  0  0
    9.5477  -16.3696   21.0200 O   0  0  0  0  0  0  0  0  0  0  0  0
    5.6427  -11.7116   26.1035 C   0  0  0  0  0  0  0  0  0  0  0  0
    6.9457  -12.9884   26.1985 S   0  0  0  0  0  0  0  0  0  0  0  0
    7.8110  -12.9794   24.5999 C   0  0  0  0  0  0  0  0  0  0  0  0
    7.1988  -14.0553   23.7507 C   0  0  0  0  0  0  0  0  0  0  0  0
    8.2224  -14.9474   23.0886 C   0  0  2  0  0  0  0  0  0  0  0  0
    7.6501  -15.9446   22.2325 N   0  0  0  0  0  0  0  0  0  0  0  0
    9.0391  -15.5471   24.1843 C   0  0  0  0  0  0  0  0  0  0  0  0
    8.4923  -16.3504   24.9840 O   0  0  0  0  0  0  0  0  0  0  0  0
    9.9899  -13.3324   29.0170 C   0  0  0  0  0  0  0  0  0  0  0  0
   10.5713  -14.9802   29.4658 S   0  0  0  0  0  0  0  0  0  0  0  0
   10.8695  -16.0121   28.0493 C   0  0  0  0  0  0  0  0  0  0  0  0
   10.2716  -15.6121   26.7558 C   0  0  0  0  0  0  0  0  0  0  0  0
   11.1538  -15.6907   25.5864 C   0  0  2  0  0  0  0  0  0  0  0  0
   10.4068  -15.2558   24.3706 N   0  0  0  0  0  0  0  0  0  0  0  0
   11.6902  -17.0120   25.3012 C   0  0  0  0  0  0  0  0  0  0  0  0
   11.1477  -17.6802   24.3336 O   0  0  0  0  0  0  0  0  0  0  0  0
   12.7242  -17.6732   25.9213 O   0  0  0  0  0  0  0  0  0  0  0  0
  2  1  1  6
  2  4  1  0
  3  2  1  0
  4  5  1  6
  4  6  1  0
  6  7  2  0
  9  8  1  0
 10  9  1  0
 12 11  1  1
 11 10  1  0
 12 14  1  0
 13  6  1  0
 13 12  1  0
 14 15  2  0
 16 17  1  0
 17 18  1  0
 18 19  1  0
 20 19  1  1
 20 22  1  0
 21 20  1  0
 21 14  1  0
 22 23  2  0
 22 24  1  0
M  END
$$$$
