VMM.pdb
     RDKit          3D

 24 23  0  0  1  0  0  0  0  0999 V2000
    8.8322  -17.5980   17.8533 C   0  0  0  0  0  0  0  0  0  0  0  0
    9.3023  -16.7275   18.9789 C   0  0  2  0  0  0  0  0  0  0  0  0
   10.7780  -16.4773   18.8055 C   0  0  0  0  0  0  0  0  0  0  0  0
    9.0470  -17.3452   20.3239 C   0  0  2  0  0  0  0  0  0  0  0  0
    7.6647  -17.7606   20.3997 N   0  0  0  0  0  0  0  0  0  0  0  0
    9.3535  -16.4216   21.4412 C   0  0  0  0  0  0  0  0  0  0  0  0
   10.5291  -16.0001   21.5962 O   0  0  0  0  0  0  0  0  0  0  0  0
    6.1666  -11.5185   25.9116 C   0  0  0  0  0  0  0  0  0  0  0  0
    6.0850  -13.3296   26.1352 S   0  0  0  0  0  0  0  0  0  0  0  0
    7.6622  -14.0069   25.5369 C   0  0  0  0  0  0  0  0  0  0  0  0
    7.3828  -14.7299   24.2514 C   0  0  0  0  0  0  0  0  0  0  0  0
    8.6302  -15.2494   23.5759 C   0  0  2  0  0  0  0  0  0  0  0  0
    8.3713  -15.9759   22.3676 N   0  0  0  0  0  0  0  0  0  0  0  0
    9.3507  -16.0771   24.5873 C   0  0  0  0  0  0  0  0  0  0  0  0
    8.8138  -17.1363   25.0041 O   0  0  0  0  0  0  0  0  0  0  0  0
   10.7501  -12.5368   29.0501 C   0  0  0  0  0  0  0  0  0  0  0  0
   11.3954  -14.0968   28.4137 S   0  0  0  0  0  0  0  0  0  0  0  0
   10.1107  -15.2074   27.8883 C   0  0  0  0  0  0  0  0  0  0  0  0
   10.5050  -16.5395   27.3776 C   0  0  0  0  0  0  0  0  0  0  0  0
   11.3020  -16.5473   26.1460 C   0  0  2  0  0  0  0  0  0  0  0  0
   10.6158  -15.7282   25.1051 N   0  0  0  0  0  0  0  0  0  0  0  0
   11.5332  -17.8600   25.5645 C   0  0  0  0  0  0  0  0  0  0  0  0
   10.7732  -18.2186   24.5792 O   0  0  0  0  0  0  0  0  0  0  0  0
   12.4727  -18.8019   25.9124 O   0  0  0  0  0  0  0  0  0  0  0  0
  2  1  1  6
  2  4  1  0
  3  2  1  0
  4  5  1  6
  4  6  1  0
  6  7  2  0
  9  8  1  0
 10  9  1  0
 12 11  1  1
 11 10  1  0
 12 14  1  0
 13  6  1  0
 13 12  1  0
 14 15  2  0
 16 17  1  0
 17 18  1  0
 18 19  1  0
 20 19  1  1
 20 22  1  0
 21 20  1  0
 21 14  1  0
 22 23  2  0
 22 24  1  0
M  END
$$$$
