VMM.pdb
     RDKit          3D

 24 23  0  0  1  0  0  0  0  0999 V2000
    9.3777  -18.3792   20.9841 C   0  0  0  0  0  0  0  0  0  0  0  0
    8.1755  -17.5088   20.7764 C   0  0  2  0  0  0  0  0  0  0  0  0
    7.5941  -17.8126   19.4199 C   0  0  0  0  0  0  0  0  0  0  0  0
    8.5055  -16.0467   20.8712 C   0  0  2  0  0  0  0  0  0  0  0  0
    9.5084  -15.7223   19.8823 N   0  0  0  0  0  0  0  0  0  0  0  0
    8.9870  -15.6585   22.2176 C   0  0  0  0  0  0  0  0  0  0  0  0
   10.2231  -15.6240   22.4509 O   0  0  0  0  0  0  0  0  0  0  0  0
    7.1165  -11.4162   27.4088 C   0  0  0  0  0  0  0  0  0  0  0  0
    5.9895  -12.3267   26.2963 S   0  0  0  0  0  0  0  0  0  0  0  0
    7.0203  -13.0816   25.0033 C   0  0  0  0  0  0  0  0  0  0  0  0
    7.4165  -14.4474   25.4839 C   0  0  0  0  0  0  0  0  0  0  0  0
    8.4981  -15.0849   24.6437 C   0  0  2  0  0  0  0  0  0  0  0  0
    8.1103  -15.3153   23.2831 N   0  0  0  0  0  0  0  0  0  0  0  0
    8.8914  -16.3457   25.3384 C   0  0  0  0  0  0  0  0  0  0  0  0
    8.0913  -17.3171   25.3404 O   0  0  0  0  0  0  0  0  0  0  0  0
   14.3325  -17.7488   22.7617 C   0  0  0  0  0  0  0  0  0  0  0  0
   13.9823  -18.1790   24.4785 S   0  0  0  0  0  0  0  0  0  0  0  0
   12.3010  -17.8360   24.9426 C   0  0  0  0  0  0  0  0  0  0  0  0
   11.8882  -18.1241   26.3345 C   0  0  0  0  0  0  0  0  0  0  0  0
   10.5060  -17.7765   26.6818 C   0  0  2  0  0  0  0  0  0  0  0  0
   10.1273  -16.5048   26.0000 N   0  0  0  0  0  0  0  0  0  0  0  0
   10.2516  -17.5857   28.1008 C   0  0  0  0  0  0  0  0  0  0  0  0
   10.4517  -18.5973   28.8843 O   0  0  0  0  0  0  0  0  0  0  0  0
    9.8242  -16.4537   28.7538 O   0  0  0  0  0  0  0  0  0  0  0  0
  2  1  1  6
  2  4  1  0
  3  2  1  0
  4  5  1  6
  4  6  1  0
  6  7  2  0
  9  8  1  0
 10  9  1  0
 12 11  1  1
 11 10  1  0
 12 14  1  0
 13  6  1  0
 13 12  1  0
 14 15  2  0
 16 17  1  0
 17 18  1  0
 18 19  1  0
 20 19  1  1
 20 22  1  0
 21 20  1  0
 21 14  1  0
 22 23  2  0
 22 24  1  0
M  END
$$$$
