VMM.pdb
     RDKit          3D

 24 23  0  0  1  0  0  0  0  0999 V2000
    7.2817  -14.8238   18.7584 C   0  0  0  0  0  0  0  0  0  0  0  0
    8.5320  -15.5689   18.4014 C   0  0  2  0  0  0  0  0  0  0  0  0
    8.2442  -16.4404   17.2064 C   0  0  0  0  0  0  0  0  0  0  0  0
    9.0370  -16.4139   19.5358 C   0  0  2  0  0  0  0  0  0  0  0  0
    8.0969  -17.4829   19.7854 N   0  0  0  0  0  0  0  0  0  0  0  0
    9.2469  -15.6326   20.7772 C   0  0  0  0  0  0  0  0  0  0  0  0
   10.2678  -14.9055   20.8903 O   0  0  0  0  0  0  0  0  0  0  0  0
    6.5026  -12.1315   27.1307 C   0  0  0  0  0  0  0  0  0  0  0  0
    6.5002  -13.6409   26.1018 S   0  0  0  0  0  0  0  0  0  0  0  0
    7.2810  -13.2025   24.5198 C   0  0  0  0  0  0  0  0  0  0  0  0
    7.1372  -14.3836   23.6045 C   0  0  0  0  0  0  0  0  0  0  0  0
    8.4576  -14.8927   23.0757 C   0  0  2  0  0  0  0  0  0  0  0  0
    8.3387  -15.6599   21.8708 N   0  0  0  0  0  0  0  0  0  0  0  0
    9.0879  -15.6733   24.1805 C   0  0  0  0  0  0  0  0  0  0  0  0
    8.8884  -16.9143   24.2424 O   0  0  0  0  0  0  0  0  0  0  0  0
   10.1919  -13.2096   30.1104 C   0  0  0  0  0  0  0  0  0  0  0  0
   10.7790  -14.9050   30.2991 S   0  0  0  0  0  0  0  0  0  0  0  0
   10.9513  -15.7487   28.7440 C   0  0  0  0  0  0  0  0  0  0  0  0
   10.3965  -15.1021   27.5337 C   0  0  0  0  0  0  0  0  0  0  0  0
   10.4910  -15.8742   26.2899 C   0  0  2  0  0  0  0  0  0  0  0  0
    9.9040  -15.0840   25.1689 N   0  0  0  0  0  0  0  0  0  0  0  0
    9.8086  -17.1583   26.3029 C   0  0  0  0  0  0  0  0  0  0  0  0
   10.5404  -18.2221   26.4017 O   0  0  0  0  0  0  0  0  0  0  0  0
    8.4600  -17.4168   26.2308 O   0  0  0  0  0  0  0  0  0  0  0  0
  2  1  1  1
  2  4  1  0
  3  2  1  0
  4  5  1  1
  4  6  1  0
  6  7  2  0
  9  8  1  0
 10  9  1  0
 12 11  1  1
 11 10  1  0
 12 14  1  0
 13  6  1  0
 13 12  1  0
 14 15  2  0
 16 17  1  0
 17 18  1  0
 18 19  1  0
 20 19  1  1
 20 22  1  0
 21 20  1  0
 21 14  1  0
 22 23  2  0
 22 24  1  0
M  END
$$$$
