VMM.pdb
     RDKit          3D

 24 23  0  0  1  0  0  0  0  0999 V2000
    3.0105  -20.2055   22.6886 C   0  0  0  0  0  0  0  0  0  0  0  0
    4.2924  -19.4294   22.7049 C   0  0  2  0  0  0  0  0  0  0  0  0
    4.1138  -18.2303   23.5997 C   0  0  0  0  0  0  0  0  0  0  0  0
    4.7064  -18.9812   21.3325 C   0  0  2  0  0  0  0  0  0  0  0  0
    4.8203  -20.1363   20.4712 N   0  0  0  0  0  0  0  0  0  0  0  0
    5.9866  -18.2351   21.3401 C   0  0  0  0  0  0  0  0  0  0  0  0
    7.0592  -18.8413   21.5961 O   0  0  0  0  0  0  0  0  0  0  0  0
    7.2459  -11.3575   20.3705 C   0  0  0  0  0  0  0  0  0  0  0  0
    8.2116  -12.5077   19.3306 S   0  0  0  0  0  0  0  0  0  0  0  0
    8.4817  -14.0106   20.3168 C   0  0  0  0  0  0  0  0  0  0  0  0
    7.1757  -14.7481   20.3800 C   0  0  0  0  0  0  0  0  0  0  0  0
    7.2597  -16.0449   21.1505 C   0  0  2  0  0  0  0  0  0  0  0  0
    6.0712  -16.8421   21.0680 N   0  0  0  0  0  0  0  0  0  0  0  0
    7.5994  -15.6842   22.5582 C   0  0  0  0  0  0  0  0  0  0  0  0
    6.6864  -15.2737   23.3208 O   0  0  0  0  0  0  0  0  0  0  0  0
    6.3073  -12.9066   27.2921 C   0  0  0  0  0  0  0  0  0  0  0  0
    7.3394  -13.7140   26.0521 S   0  0  0  0  0  0  0  0  0  0  0  0
    7.5017  -15.4627   26.3275 C   0  0  0  0  0  0  0  0  0  0  0  0
    8.3290  -16.2446   25.3815 C   0  0  0  0  0  0  0  0  0  0  0  0
    9.2157  -15.4688   24.5074 C   0  0  2  0  0  0  0  0  0  0  0  0
    8.9057  -15.7812   23.0821 N   0  0  0  0  0  0  0  0  0  0  0  0
   10.6375  -15.7116   24.6925 C   0  0  0  0  0  0  0  0  0  0  0  0
   11.1877  -16.6248   23.9573 O   0  0  0  0  0  0  0  0  0  0  0  0
   11.5115  -15.0909   25.5537 O   0  0  0  0  0  0  0  0  0  0  0  0
  2  1  1  6
  2  4  1  0
  3  2  1  0
  4  5  1  6
  4  6  1  0
  6  7  2  0
  9  8  1  0
 10  9  1  0
 12 11  1  6
 11 10  1  0
 12 14  1  0
 13  6  1  0
 13 12  1  0
 14 15  2  0
 16 17  1  0
 17 18  1  0
 18 19  1  0
 20 19  1  1
 20 22  1  0
 21 20  1  0
 21 14  1  0
 22 23  2  0
 22 24  1  0
M  END
$$$$
