VMM.pdb
     RDKit          3D

 24 23  0  0  1  0  0  0  0  0999 V2000
    9.1782  -21.9119   21.1104 C   0  0  0  0  0  0  0  0  0  0  0  0
    9.3797  -20.4980   21.5644 C   0  0  2  0  0  0  0  0  0  0  0  0
    8.6662  -20.3117   22.8784 C   0  0  0  0  0  0  0  0  0  0  0  0
    8.8712  -19.4990   20.5648 C   0  0  2  0  0  0  0  0  0  0  0  0
    9.4185  -19.8100   19.2638 N   0  0  0  0  0  0  0  0  0  0  0  0
    9.2127  -18.1044   20.9305 C   0  0  0  0  0  0  0  0  0  0  0  0
   10.4102  -17.7214   20.8751 O   0  0  0  0  0  0  0  0  0  0  0  0
    7.4720  -11.9832   20.4643 C   0  0  0  0  0  0  0  0  0  0  0  0
    7.8675  -13.1727   19.1356 S   0  0  0  0  0  0  0  0  0  0  0  0
    7.4136  -14.8217   19.7512 C   0  0  0  0  0  0  0  0  0  0  0  0
    7.5384  -14.7937   21.2469 C   0  0  0  0  0  0  0  0  0  0  0  0
    8.5129  -15.8159   21.7834 C   0  0  2  0  0  0  0  0  0  0  0  0
    8.2409  -17.1547   21.3494 N   0  0  0  0  0  0  0  0  0  0  0  0
    8.4888  -15.6900   23.2702 C   0  0  0  0  0  0  0  0  0  0  0  0
    7.4937  -16.1277   23.9042 O   0  0  0  0  0  0  0  0  0  0  0  0
    6.4272  -10.8445   26.3096 C   0  0  0  0  0  0  0  0  0  0  0  0
    6.3185  -12.4481   27.1291 S   0  0  0  0  0  0  0  0  0  0  0  0
    7.7865  -13.4279   26.9171 C   0  0  0  0  0  0  0  0  0  0  0  0
    8.1354  -13.8763   25.5504 C   0  0  0  0  0  0  0  0  0  0  0  0
    9.3643  -14.6677   25.4259 C   0  0  2  0  0  0  0  0  0  0  0  0
    9.5359  -15.0989   24.0081 N   0  0  0  0  0  0  0  0  0  0  0  0
    9.4131  -15.8709   26.2411 C   0  0  0  0  0  0  0  0  0  0  0  0
    9.3608  -15.7233   27.5266 O   0  0  0  0  0  0  0  0  0  0  0  0
    9.5020  -17.1819   25.8359 O   0  0  0  0  0  0  0  0  0  0  0  0
  2  1  1  6
  2  4  1  0
  3  2  1  0
  4  5  1  6
  4  6  1  0
  6  7  2  0
  9  8  1  0
 10  9  1  0
 12 11  1  6
 11 10  1  0
 12 14  1  0
 13  6  1  0
 13 12  1  0
 14 15  2  0
 16 17  1  0
 17 18  1  0
 18 19  1  0
 20 19  1  6
 20 22  1  0
 21 20  1  0
 21 14  1  0
 22 23  2  0
 22 24  1  0
M  END
$$$$
