IMR.pdb
     RDKit          3D

 28 27  0  0  1  0  0  0  0  0999 V2000
    7.0048  -11.2926   27.5742 C   0  0  0  0  0  0  0  0  0  0  0  0
    6.9689  -12.6464   26.9454 C   0  0  0  0  0  0  0  0  0  0  0  0
    6.3937  -12.6505   25.5425 C   0  0  2  0  0  0  0  0  0  0  0  0
    4.9599  -12.2559   25.5949 C   0  0  0  0  0  0  0  0  0  0  0  0
    6.6704  -13.9966   24.9353 C   0  0  2  0  0  0  0  0  0  0  0  0
    6.0812  -14.9690   25.8734 N   0  0  0  0  0  0  0  0  0  0  0  0
    8.1245  -14.3029   24.8827 C   0  0  0  0  0  0  0  0  0  0  0  0
    8.9202  -13.6495   24.1389 O   0  0  0  0  0  0  0  0  0  0  0  0
   12.1066  -16.0269   29.6988 C   0  0  0  0  0  0  0  0  0  0  0  0
   10.6832  -14.9389   29.5193 S   0  0  0  0  0  0  0  0  0  0  0  0
   10.3986  -14.4676   27.7833 C   0  0  0  0  0  0  0  0  0  0  0  0
   10.8082  -15.6271   26.9386 C   0  0  0  0  0  0  0  0  0  0  0  0
   10.1465  -15.6432   25.5695 C   0  0  2  0  0  0  0  0  0  0  0  0
    8.7472  -15.3358   25.6460 N   0  0  0  0  0  0  0  0  0  0  0  0
   10.4359  -16.8716   24.8192 C   0  0  0  0  0  0  0  0  0  0  0  0
   11.3864  -17.5968   25.2496 O   0  0  0  0  0  0  0  0  0  0  0  0
    9.5276  -14.0437   17.5419 N   0  0  0  0  0  0  0  0  0  0  0  0
    8.3541  -13.7032   18.2660 C   0  0  0  0  0  0  0  0  0  0  0  0
    7.2228  -13.5042   17.6952 N   0  0  0  0  0  0  0  0  0  0  0  0
    8.4510  -13.5804   19.6812 N   0  0  0  0  0  0  0  0  0  0  0  0
    9.7266  -13.6272   20.3772 C   0  0  0  0  0  0  0  0  0  0  0  0
   10.1460  -15.0334   20.6703 C   0  0  0  0  0  0  0  0  0  0  0  0
    9.7282  -15.6256   21.9464 C   0  0  0  0  0  0  0  0  0  0  0  0
   10.1695  -16.9742   22.2835 C   0  0  2  0  0  0  0  0  0  0  0  0
    9.7495  -17.3027   23.6741 N   0  0  0  0  0  0  0  0  0  0  0  0
   11.5218  -17.3879   22.0426 C   0  0  0  0  0  0  0  0  0  0  0  0
   11.8470  -18.3510   21.3175 O   0  0  0  0  0  0  0  0  0  0  0  0
   12.5873  -16.6944   22.6406 O   0  0  0  0  0  0  0  0  0  0  0  0
  2  1  1  0
  3  4  1  1
  3  2  1  0
  5  3  1  0
  5  6  1  1
  7  5  1  0
  7  8  2  0
  9 10  1  0
 10 11  1  0
 11 12  1  0
 13 12  1  1
 13 14  1  0
 14  7  1  0
 15 25  1  0
 15 13  1  0
 16 15  2  0
 17 18  1  0
 18 20  1  0
 19 18  2  0
 20 21  1  0
 21 22  1  0
 22 23  1  0
 24 23  1  1
 24 25  1  0
 24 26  1  0
 26 27  2  0
 26 28  1  0
M  END
$$$$
