IMR.pdb
     RDKit          3D

 28 27  0  0  1  0  0  0  0  0999 V2000
    8.2387  -14.7985   16.6284 C   0  0  0  0  0  0  0  0  0  0  0  0
    8.0997  -13.7347   17.6668 C   0  0  0  0  0  0  0  0  0  0  0  0
    8.3402  -14.2289   19.0799 C   0  0  2  0  0  0  0  0  0  0  0  0
    7.4800  -15.4145   19.3422 C   0  0  0  0  0  0  0  0  0  0  0  0
    8.1415  -13.0687   20.0136 C   0  0  2  0  0  0  0  0  0  0  0  0
    9.0448  -12.0160   19.5150 N   0  0  0  0  0  0  0  0  0  0  0  0
    8.5899  -13.3760   21.3976 C   0  0  0  0  0  0  0  0  0  0  0  0
    9.8209  -13.4419   21.7038 O   0  0  0  0  0  0  0  0  0  0  0  0
    4.8204  -11.8461   26.6108 C   0  0  0  0  0  0  0  0  0  0  0  0
    6.5804  -11.4709   26.5502 S   0  0  0  0  0  0  0  0  0  0  0  0
    7.3293  -11.9628   24.9647 C   0  0  0  0  0  0  0  0  0  0  0  0
    7.2714  -13.4518   24.8927 C   0  0  0  0  0  0  0  0  0  0  0  0
    8.1345  -14.0391   23.7870 C   0  0  2  0  0  0  0  0  0  0  0  0
    7.6992  -13.6194   22.4860 N   0  0  0  0  0  0  0  0  0  0  0  0
    8.2938  -15.4935   23.9101 C   0  0  0  0  0  0  0  0  0  0  0  0
    7.7484  -16.2088   23.0125 O   0  0  0  0  0  0  0  0  0  0  0  0
   12.2352  -16.4657   18.5246 N   0  0  0  0  0  0  0  0  0  0  0  0
   12.6506  -15.6307   19.5959 C   0  0  0  0  0  0  0  0  0  0  0  0
   13.2874  -14.5329   19.4100 N   0  0  0  0  0  0  0  0  0  0  0  0
   12.3421  -16.0403   20.9242 N   0  0  0  0  0  0  0  0  0  0  0  0
   11.5746  -17.2426   21.2055 C   0  0  0  0  0  0  0  0  0  0  0  0
   10.5039  -16.9911   22.2203 C   0  0  0  0  0  0  0  0  0  0  0  0
   10.9124  -16.7639   23.6113 C   0  0  0  0  0  0  0  0  0  0  0  0
   10.0304  -17.1922   24.6911 C   0  0  2  0  0  0  0  0  0  0  0  0
    8.9959  -16.1484   24.9330 N   0  0  0  0  0  0  0  0  0  0  0  0
   10.5659  -17.6830   25.9280 C   0  0  0  0  0  0  0  0  0  0  0  0
   10.5725  -17.0408   26.9988 O   0  0  0  0  0  0  0  0  0  0  0  0
   11.1320  -18.9674   25.9898 O   0  0  0  0  0  0  0  0  0  0  0  0
  2  1  1  0
  3  4  1  1
  3  2  1  0
  5  3  1  0
  5  6  1  6
  7  5  1  0
  7  8  2  0
  9 10  1  0
 10 11  1  0
 11 12  1  0
 13 12  1  1
 13 14  1  0
 14  7  1  0
 15 25  1  0
 15 13  1  0
 16 15  2  0
 17 18  1  0
 18 20  1  0
 19 18  2  0
 20 21  1  0
 21 22  1  0
 22 23  1  0
 24 23  1  6
 24 25  1  0
 24 26  1  0
 26 27  2  0
 26 28  1  0
M  END
$$$$
