IMR.pdb
     RDKit          3D

 28 27  0  0  1  0  0  0  0  0999 V2000
    2.9705  -16.2798   20.5241 C   0  0  0  0  0  0  0  0  0  0  0  0
    3.8286  -16.9731   21.5303 C   0  0  0  0  0  0  0  0  0  0  0  0
    4.6148  -18.1375   20.9602 C   0  0  2  0  0  0  0  0  0  0  0  0
    3.6782  -19.0996   20.3188 C   0  0  0  0  0  0  0  0  0  0  0  0
    5.4652  -18.7026   22.0624 C   0  0  2  0  0  0  0  0  0  0  0  0
    4.5214  -19.0266   23.1473 N   0  0  0  0  0  0  0  0  0  0  0  0
    6.4060  -17.6957   22.6208 C   0  0  0  0  0  0  0  0  0  0  0  0
    7.4324  -17.3099   21.9797 O   0  0  0  0  0  0  0  0  0  0  0  0
    6.4892  -11.2774   26.2853 C   0  0  0  0  0  0  0  0  0  0  0  0
    6.6068  -13.0255   26.6999 S   0  0  0  0  0  0  0  0  0  0  0  0
    6.9032  -14.0578   25.2292 C   0  0  0  0  0  0  0  0  0  0  0  0
    6.8168  -15.4820   25.6653 C   0  0  0  0  0  0  0  0  0  0  0  0
    7.3223  -16.4667   24.6225 C   0  0  2  0  0  0  0  0  0  0  0  0
    6.2468  -17.0827   23.9000 N   0  0  0  0  0  0  0  0  0  0  0  0
    8.2823  -17.4296   25.1767 C   0  0  0  0  0  0  0  0  0  0  0  0
    7.8894  -18.6329   25.2877 O   0  0  0  0  0  0  0  0  0  0  0  0
   14.6592  -21.6440   20.7852 N   0  0  0  0  0  0  0  0  0  0  0  0
   14.0387  -20.4317   21.1887 C   0  0  0  0  0  0  0  0  0  0  0  0
   14.6908  -19.3373   21.3372 N   0  0  0  0  0  0  0  0  0  0  0  0
   12.6365  -20.4456   21.4355 N   0  0  0  0  0  0  0  0  0  0  0  0
   11.8960  -19.2386   21.7650 C   0  0  0  0  0  0  0  0  0  0  0  0
   11.9212  -18.9575   23.2346 C   0  0  0  0  0  0  0  0  0  0  0  0
   10.7839  -18.2367   23.8181 C   0  0  0  0  0  0  0  0  0  0  0  0
   10.7783  -17.9550   25.2491 C   0  0  2  0  0  0  0  0  0  0  0  0
    9.5885  -17.1261   25.5890 N   0  0  0  0  0  0  0  0  0  0  0  0
   11.9540  -17.4623   25.9069 C   0  0  0  0  0  0  0  0  0  0  0  0
   13.0902  -17.9678   25.7945 O   0  0  0  0  0  0  0  0  0  0  0  0
   11.8729  -16.3374   26.7447 O   0  0  0  0  0  0  0  0  0  0  0  0
  2  1  1  0
  3  4  1  1
  3  2  1  0
  5  3  1  0
  5  6  1  1
  7  5  1  0
  7  8  2  0
  9 10  1  0
 10 11  1  0
 11 12  1  0
 13 12  1  1
 13 14  1  0
 14  7  1  0
 15 25  1  0
 15 13  1  0
 16 15  2  0
 17 18  1  0
 18 20  1  0
 19 18  2  0
 20 21  1  0
 21 22  1  0
 22 23  1  0
 24 23  1  6
 24 25  1  0
 24 26  1  0
 26 27  2  0
 26 28  1  0
M  END
$$$$
