IMR.pdb
     RDKit          3D

 28 27  0  0  1  0  0  0  0  0999 V2000
    6.7146  -19.9205   19.4496 C   0  0  0  0  0  0  0  0  0  0  0  0
    6.7630  -18.4312   19.5453 C   0  0  0  0  0  0  0  0  0  0  0  0
    7.4324  -17.9242   20.8078 C   0  0  2  0  0  0  0  0  0  0  0  0
    6.8379  -18.6048   21.9901 C   0  0  0  0  0  0  0  0  0  0  0  0
    7.3351  -16.4249   20.8103 C   0  0  2  0  0  0  0  0  0  0  0  0
    7.9885  -15.9960   19.5605 N   0  0  0  0  0  0  0  0  0  0  0  0
    8.1168  -15.8114   21.9163 C   0  0  0  0  0  0  0  0  0  0  0  0
    9.3833  -15.8931   21.9671 O   0  0  0  0  0  0  0  0  0  0  0  0
    5.5199  -12.1542   26.9748 C   0  0  0  0  0  0  0  0  0  0  0  0
    7.1850  -11.5423   26.6665 S   0  0  0  0  0  0  0  0  0  0  0  0
    8.2584  -12.8206   25.9381 C   0  0  0  0  0  0  0  0  0  0  0  0
    7.4965  -13.4528   24.8220 C   0  0  0  0  0  0  0  0  0  0  0  0
    8.2907  -14.5073   24.0671 C   0  0  2  0  0  0  0  0  0  0  0  0
    7.5302  -15.0896   22.9990 N   0  0  0  0  0  0  0  0  0  0  0  0
    8.8996  -15.5001   24.9612 C   0  0  0  0  0  0  0  0  0  0  0  0
   10.0579  -15.2338   25.4108 O   0  0  0  0  0  0  0  0  0  0  0  0
   14.5527  -19.8333   25.0195 N   0  0  0  0  0  0  0  0  0  0  0  0
   14.1389  -19.0686   23.8964 C   0  0  0  0  0  0  0  0  0  0  0  0
   14.9549  -18.3654   23.2001 N   0  0  0  0  0  0  0  0  0  0  0  0
   12.7605  -19.0917   23.5402 N   0  0  0  0  0  0  0  0  0  0  0  0
   11.7834  -19.8776   24.2759 C   0  0  0  0  0  0  0  0  0  0  0  0
   11.0957  -19.0634   25.3264 C   0  0  0  0  0  0  0  0  0  0  0  0
    9.7113  -18.6449   25.0777 C   0  0  0  0  0  0  0  0  0  0  0  0
    9.0363  -17.8006   26.0567 C   0  0  2  0  0  0  0  0  0  0  0  0
    8.3062  -16.7091   25.3540 N   0  0  0  0  0  0  0  0  0  0  0  0
    9.7375  -17.2967   27.2022 C   0  0  0  0  0  0  0  0  0  0  0  0
    9.8942  -16.0845   27.4573 O   0  0  0  0  0  0  0  0  0  0  0  0
   10.3042  -18.1878   28.1289 O   0  0  0  0  0  0  0  0  0  0  0  0
  2  1  1  0
  3  4  1  1
  3  2  1  0
  5  3  1  0
  5  6  1  6
  7  5  1  0
  7  8  2  0
  9 10  1  0
 10 11  1  0
 11 12  1  0
 13 12  1  1
 13 14  1  0
 14  7  1  0
 15 25  1  0
 15 13  1  0
 16 15  2  0
 17 18  1  0
 18 20  1  0
 19 18  2  0
 20 21  1  0
 21 22  1  0
 22 23  1  0
 24 23  1  6
 24 25  1  0
 24 26  1  0
 26 27  2  0
 26 28  1  0
M  END
$$$$
