IMR.pdb
     RDKit          3D

 28 27  0  0  1  0  0  0  0  0999 V2000
    7.8571  -11.7191   19.1812 C   0  0  0  0  0  0  0  0  0  0  0  0
    7.6745  -13.0157   19.8987 C   0  0  0  0  0  0  0  0  0  0  0  0
    8.3716  -14.1845   19.2300 C   0  0  2  0  0  0  0  0  0  0  0  0
    7.7750  -14.4128   17.8860 C   0  0  0  0  0  0  0  0  0  0  0  0
    8.3114  -15.3553   20.1696 C   0  0  2  0  0  0  0  0  0  0  0  0
    6.8804  -15.6943   20.2691 N   0  0  0  0  0  0  0  0  0  0  0  0
    8.7472  -14.9968   21.5452 C   0  0  0  0  0  0  0  0  0  0  0  0
    9.9614  -14.7431   21.8185 O   0  0  0  0  0  0  0  0  0  0  0  0
    7.0096  -10.6998   26.8476 C   0  0  0  0  0  0  0  0  0  0  0  0
    6.4116  -12.3981   26.8398 S   0  0  0  0  0  0  0  0  0  0  0  0
    7.6560  -13.5573   26.1885 C   0  0  0  0  0  0  0  0  0  0  0  0
    7.2038  -13.9715   24.8284 C   0  0  0  0  0  0  0  0  0  0  0  0
    8.2988  -14.6226   23.9979 C   0  0  2  0  0  0  0  0  0  0  0  0
    7.8618  -14.9060   22.6611 N   0  0  0  0  0  0  0  0  0  0  0  0
    8.9055  -15.7769   24.6726 C   0  0  0  0  0  0  0  0  0  0  0  0
    8.1433  -16.7632   24.9200 O   0  0  0  0  0  0  0  0  0  0  0  0
   17.1698  -18.6083   23.6730 N   0  0  0  0  0  0  0  0  0  0  0  0
   16.8622  -18.2851   25.0215 C   0  0  0  0  0  0  0  0  0  0  0  0
   17.7660  -18.1222   25.9169 N   0  0  0  0  0  0  0  0  0  0  0  0
   15.4922  -18.1393   25.3807 N   0  0  0  0  0  0  0  0  0  0  0  0
   14.4120  -18.4706   24.4657 C   0  0  0  0  0  0  0  0  0  0  0  0
   13.0761  -18.3952   25.1357 C   0  0  0  0  0  0  0  0  0  0  0  0
   12.2288  -17.2305   24.8548 C   0  0  0  0  0  0  0  0  0  0  0  0
   10.9060  -17.1493   25.4637 C   0  0  2  0  0  0  0  0  0  0  0  0
   10.2499  -15.8742   25.0614 N   0  0  0  0  0  0  0  0  0  0  0  0
   10.7233  -17.4030   26.8637 C   0  0  0  0  0  0  0  0  0  0  0  0
   10.5557  -16.5158   27.7261 O   0  0  0  0  0  0  0  0  0  0  0  0
   10.7253  -18.7226   27.3462 O   0  0  0  0  0  0  0  0  0  0  0  0
  2  1  1  0
  3  4  1  6
  3  2  1  0
  5  3  1  0
  5  6  1  1
  7  5  1  0
  7  8  2  0
  9 10  1  0
 10 11  1  0
 11 12  1  0
 13 12  1  1
 13 14  1  0
 14  7  1  0
 15 25  1  0
 15 13  1  0
 16 15  2  0
 17 18  1  0
 18 20  1  0
 19 18  2  0
 20 21  1  0
 21 22  1  0
 22 23  1  0
 24 23  1  1
 24 25  1  0
 24 26  1  0
 26 27  2  0
 26 28  1  0
M  END
$$$$
