IMR.pdb
     RDKit          3D

 28 27  0  0  1  0  0  0  0  0999 V2000
    7.8394  -11.5818   20.2154 C   0  0  0  0  0  0  0  0  0  0  0  0
    7.8458  -12.9338   20.8489 C   0  0  0  0  0  0  0  0  0  0  0  0
    8.5781  -13.9833   20.0356 C   0  0  2  0  0  0  0  0  0  0  0  0
    7.9671  -14.0747   18.6818 C   0  0  0  0  0  0  0  0  0  0  0  0
    8.5831  -15.2595   20.8284 C   0  0  2  0  0  0  0  0  0  0  0  0
    7.1748  -15.6932   20.8661 N   0  0  0  0  0  0  0  0  0  0  0  0
    8.9861  -15.0425   22.2430 C   0  0  0  0  0  0  0  0  0  0  0  0
   10.1836  -14.7660   22.5636 O   0  0  0  0  0  0  0  0  0  0  0  0
    4.8302  -12.1754   26.9179 C   0  0  0  0  0  0  0  0  0  0  0  0
    6.6281  -12.2071   26.8253 S   0  0  0  0  0  0  0  0  0  0  0  0
    7.2193  -13.0043   25.2984 C   0  0  0  0  0  0  0  0  0  0  0  0
    7.4685  -14.4400   25.6183 C   0  0  0  0  0  0  0  0  0  0  0  0
    8.5075  -15.0901   24.7180 C   0  0  2  0  0  0  0  0  0  0  0  0
    8.0851  -15.1223   23.3473 N   0  0  0  0  0  0  0  0  0  0  0  0
    8.9535  -16.3942   25.2240 C   0  0  0  0  0  0  0  0  0  0  0  0
    8.1174  -17.3493   25.1652 O   0  0  0  0  0  0  0  0  0  0  0  0
   13.2546  -19.0943   20.2105 N   0  0  0  0  0  0  0  0  0  0  0  0
   11.9364  -19.6102   20.3283 C   0  0  0  0  0  0  0  0  0  0  0  0
   11.2671  -20.0338   19.3195 N   0  0  0  0  0  0  0  0  0  0  0  0
   11.3460  -19.6528   21.6232 N   0  0  0  0  0  0  0  0  0  0  0  0
   11.9789  -19.0470   22.7835 C   0  0  0  0  0  0  0  0  0  0  0  0
   11.1157  -19.1496   24.0016 C   0  0  0  0  0  0  0  0  0  0  0  0
   11.6132  -18.5612   25.2504 C   0  0  0  0  0  0  0  0  0  0  0  0
   10.6595  -18.0157   26.2096 C   0  0  2  0  0  0  0  0  0  0  0  0
   10.2205  -16.6647   25.7622 N   0  0  0  0  0  0  0  0  0  0  0  0
   10.9425  -18.0257   27.6159 C   0  0  0  0  0  0  0  0  0  0  0  0
   11.3459  -19.0241   28.2479 O   0  0  0  0  0  0  0  0  0  0  0  0
   10.7697  -16.8575   28.3771 O   0  0  0  0  0  0  0  0  0  0  0  0
  2  1  1  0
  3  4  1  6
  3  2  1  0
  5  3  1  0
  5  6  1  1
  7  5  1  0
  7  8  2  0
  9 10  1  0
 10 11  1  0
 11 12  1  0
 13 12  1  1
 13 14  1  0
 14  7  1  0
 15 25  1  0
 15 13  1  0
 16 15  2  0
 17 18  1  0
 18 20  1  0
 19 18  2  0
 20 21  1  0
 21 22  1  0
 22 23  1  0
 24 23  1  6
 24 25  1  0
 24 26  1  0
 26 27  2  0
 26 28  1  0
M  END
$$$$
