IMR.pdb
     RDKit          3D

 28 27  0  0  1  0  0  0  0  0999 V2000
    2.1567  -18.5135   21.8137 C   0  0  0  0  0  0  0  0  0  0  0  0
    3.2490  -18.6978   22.8150 C   0  0  0  0  0  0  0  0  0  0  0  0
    4.4402  -17.7871   22.5901 C   0  0  2  0  0  0  0  0  0  0  0  0
    4.7887  -17.7769   21.1435 C   0  0  0  0  0  0  0  0  0  0  0  0
    5.5387  -18.2290   23.5150 C   0  0  2  0  0  0  0  0  0  0  0  0
    4.9542  -18.1578   24.8664 N   0  0  0  0  0  0  0  0  0  0  0  0
    6.6897  -17.2877   23.5131 C   0  0  0  0  0  0  0  0  0  0  0  0
    7.5258  -17.2538   22.5575 O   0  0  0  0  0  0  0  0  0  0  0  0
    6.4937  -12.9297   28.2646 C   0  0  0  0  0  0  0  0  0  0  0  0
    6.7666  -12.1854   26.6480 S   0  0  0  0  0  0  0  0  0  0  0  0
    6.7835  -13.4289   25.3177 C   0  0  0  0  0  0  0  0  0  0  0  0
    7.9211  -14.3541   25.5931 C   0  0  0  0  0  0  0  0  0  0  0  0
    8.0723  -15.4546   24.5546 C   0  0  2  0  0  0  0  0  0  0  0  0
    6.9559  -16.3557   24.5608 N   0  0  0  0  0  0  0  0  0  0  0  0
    9.3721  -16.1323   24.6382 C   0  0  0  0  0  0  0  0  0  0  0  0
    9.5782  -16.8544   25.6632 O   0  0  0  0  0  0  0  0  0  0  0  0
   10.5392  -21.0899   20.7791 N   0  0  0  0  0  0  0  0  0  0  0  0
    9.5173  -20.4007   20.0733 C   0  0  0  0  0  0  0  0  0  0  0  0
    8.4915  -20.9965   19.5853 N   0  0  0  0  0  0  0  0  0  0  0  0
    9.6490  -18.9928   19.9074 N   0  0  0  0  0  0  0  0  0  0  0  0
   10.8092  -18.2611   20.3896 C   0  0  0  0  0  0  0  0  0  0  0  0
   10.8664  -18.2371   21.8848 C   0  0  0  0  0  0  0  0  0  0  0  0
   11.9466  -17.4744   22.5210 C   0  0  0  0  0  0  0  0  0  0  0  0
   11.6848  -16.7832   23.7784 C   0  0  2  0  0  0  0  0  0  0  0  0
   10.3948  -16.0451   23.6817 N   0  0  0  0  0  0  0  0  0  0  0  0
   12.6951  -15.9754   24.3985 C   0  0  0  0  0  0  0  0  0  0  0  0
   13.8447  -16.3742   24.6783 O   0  0  0  0  0  0  0  0  0  0  0  0
   12.4207  -14.6386   24.7327 O   0  0  0  0  0  0  0  0  0  0  0  0
  2  1  1  0
  3  4  1  6
  3  2  1  0
  5  3  1  0
  5  6  1  1
  7  5  1  0
  7  8  2  0
  9 10  1  0
 10 11  1  0
 11 12  1  0
 13 12  1  1
 13 14  1  0
 14  7  1  0
 15 25  1  0
 15 13  1  0
 16 15  2  0
 17 18  1  0
 18 20  1  0
 19 18  2  0
 20 21  1  0
 21 22  1  0
 22 23  1  0
 24 23  1  6
 24 25  1  0
 24 26  1  0
 26 27  2  0
 26 28  1  0
M  END
$$$$
