IMR.pdb
     RDKit          3D

 28 27  0  0  1  0  0  0  0  0999 V2000
    8.5639  -16.7441   18.1041 C   0  0  0  0  0  0  0  0  0  0  0  0
    8.7620  -15.3953   18.7129 C   0  0  0  0  0  0  0  0  0  0  0  0
    7.4723  -14.6243   18.9162 C   0  0  2  0  0  0  0  0  0  0  0  0
    6.7887  -14.4500   17.6060 C   0  0  0  0  0  0  0  0  0  0  0  0
    7.8058  -13.3528   19.6439 C   0  0  2  0  0  0  0  0  0  0  0  0
    8.9018  -12.7435   18.8691 N   0  0  0  0  0  0  0  0  0  0  0  0
    8.3531  -13.6081   21.0026 C   0  0  0  0  0  0  0  0  0  0  0  0
    9.5841  -13.8564   21.1932 O   0  0  0  0  0  0  0  0  0  0  0  0
    7.4283  -12.0019   28.5511 C   0  0  0  0  0  0  0  0  0  0  0  0
    6.5540  -12.6474   27.1156 S   0  0  0  0  0  0  0  0  0  0  0  0
    7.6705  -13.5193   25.9711 C   0  0  0  0  0  0  0  0  0  0  0  0
    7.2065  -13.2164   24.5859 C   0  0  0  0  0  0  0  0  0  0  0  0
    8.1085  -13.7920   23.5052 C   0  0  2  0  0  0  0  0  0  0  0  0
    7.5642  -13.5977   22.1921 N   0  0  0  0  0  0  0  0  0  0  0  0
    8.4974  -15.1812   23.7781 C   0  0  0  0  0  0  0  0  0  0  0  0
    7.5908  -16.0642   23.6638 O   0  0  0  0  0  0  0  0  0  0  0  0
   12.4808  -15.1073   19.2630 N   0  0  0  0  0  0  0  0  0  0  0  0
   13.2346  -14.9694   20.4590 C   0  0  0  0  0  0  0  0  0  0  0  0
   14.0629  -14.0083   20.6472 N   0  0  0  0  0  0  0  0  0  0  0  0
   13.0547  -15.9438   21.4814 N   0  0  0  0  0  0  0  0  0  0  0  0
   12.2613  -17.1446   21.2762 C   0  0  0  0  0  0  0  0  0  0  0  0
   11.0179  -17.1357   22.1087 C   0  0  0  0  0  0  0  0  0  0  0  0
   11.1351  -17.4960   23.5264 C   0  0  0  0  0  0  0  0  0  0  0  0
   10.1284  -17.0185   24.4676 C   0  0  2  0  0  0  0  0  0  0  0  0
    9.7816  -15.6050   24.1515 N   0  0  0  0  0  0  0  0  0  0  0  0
   10.2945  -17.2045   25.8803 C   0  0  0  0  0  0  0  0  0  0  0  0
   10.2663  -16.2826   26.7220 O   0  0  0  0  0  0  0  0  0  0  0  0
   10.5059  -18.4922   26.4008 O   0  0  0  0  0  0  0  0  0  0  0  0
  2  1  1  0
  3  4  1  6
  3  2  1  0
  5  3  1  0
  5  6  1  6
  7  5  1  0
  7  8  2  0
  9 10  1  0
 10 11  1  0
 11 12  1  0
 13 12  1  1
 13 14  1  0
 14  7  1  0
 15 25  1  0
 15 13  1  0
 16 15  2  0
 17 18  1  0
 18 20  1  0
 19 18  2  0
 20 21  1  0
 21 22  1  0
 22 23  1  0
 24 23  1  6
 24 25  1  0
 24 26  1  0
 26 27  2  0
 26 28  1  0
M  END
$$$$
