QIA.pdb
     RDKit          3D

 23 22  0  0  1  0  0  0  0  0999 V2000
   24.9303  -18.4028  -17.1234 N   0  0  0  0  0  0  0  0  0  0  0  0
   25.9624  -18.3421  -18.0908 C   0  0  0  0  0  0  0  0  0  0  0  0
   25.6667  -18.2279  -19.2948 O   0  0  0  0  0  0  0  0  0  0  0  0
   27.3600  -18.4195  -17.6570 C   0  0  0  0  0  0  0  0  0  0  0  0
   27.4855  -18.5131  -16.1805 C   0  0  0  0  0  0  0  0  0  0  0  0
   28.0220  -19.8089  -15.7025 C   0  0  2  0  0  0  0  0  0  0  0  0
   28.6418  -20.6721  -16.6334 N   0  0  0  0  0  0  0  0  0  0  0  0
   26.9645  -20.4724  -14.8894 C   0  0  0  0  0  0  0  0  0  0  0  0
   26.2870  -21.3679  -15.4710 O   0  0  0  0  0  0  0  0  0  0  0  0
   25.2672  -21.3999   -9.0249 C   0  0  0  0  0  0  0  0  0  0  0  0
   24.9327  -21.6247  -10.4856 C   0  0  0  0  0  0  0  0  0  0  0  0
   25.8900  -20.7877  -11.2962 C   0  0  2  0  0  0  0  0  0  0  0  0
   25.8265  -19.3216  -10.9053 C   0  0  0  0  0  0  0  0  0  0  0  0
   25.6891  -20.9415  -12.7783 C   0  0  2  0  0  0  0  0  0  0  0  0
   26.6651  -20.1847  -13.5458 N   0  0  0  0  0  0  0  0  0  0  0  0
   24.2974  -20.4550  -13.0861 C   0  0  0  0  0  0  0  0  0  0  0  0
   24.0055  -19.2433  -12.9226 O   0  0  0  0  0  0  0  0  0  0  0  0
   21.4369  -21.4654  -15.1699 C   0  0  0  0  0  0  0  0  0  0  0  0
   21.9416  -20.8920  -13.8632 C   0  0  2  0  0  0  0  0  0  0  0  0
   23.2830  -21.3189  -13.5608 N   0  0  0  0  0  0  0  0  0  0  0  0
   21.0037  -21.0988  -12.7493 C   0  0  0  0  0  0  0  0  0  0  0  0
   19.8543  -20.6164  -12.8202 O   0  0  0  0  0  0  0  0  0  0  0  0
   21.3513  -21.8114  -11.6216 O   0  0  0  0  0  0  0  0  0  0  0  0
  2  1  1  0
  2  3  2  0
  4  5  1  0
  4  2  1  0
  5  6  1  0
  6  7  1  6
  8  6  1  0
  8  9  2  0
 10 11  1  0
 11 12  1  0
 12 13  1  1
 12 14  1  0
 14 15  1  6
 14 16  1  0
 15  8  1  0
 16 20  1  0
 17 16  2  0
 19 18  1  6
 19 21  1  0
 20 19  1  0
 21 22  2  0
 21 23  1  0
M  END
$$$$
