QIA.pdb
     RDKit          3D

 23 22  0  0  1  0  0  0  0  0999 V2000
   23.2337  -12.9406  -21.6462 N   0  0  0  0  0  0  0  0  0  0  0  0
   22.2462  -13.9083  -21.9518 C   0  0  0  0  0  0  0  0  0  0  0  0
   22.2696  -14.4781  -23.0584 O   0  0  0  0  0  0  0  0  0  0  0  0
   21.2119  -14.2178  -20.9609 C   0  0  0  0  0  0  0  0  0  0  0  0
   21.3950  -13.4545  -19.7006 C   0  0  0  0  0  0  0  0  0  0  0  0
   22.3606  -14.0684  -18.7593 C   0  0  2  0  0  0  0  0  0  0  0  0
   22.1563  -15.4060  -18.3533 N   0  0  0  0  0  0  0  0  0  0  0  0
   22.5572  -13.1256  -17.6226 C   0  0  0  0  0  0  0  0  0  0  0  0
   21.8174  -13.3012  -16.6120 O   0  0  0  0  0  0  0  0  0  0  0  0
   27.2974  -11.8253  -15.6101 C   0  0  0  0  0  0  0  0  0  0  0  0
   25.8472  -12.2131  -15.8166 C   0  0  0  0  0  0  0  0  0  0  0  0
   25.0825  -10.9445  -16.0994 C   0  0  2  0  0  0  0  0  0  0  0  0
   25.1922   -9.9534  -14.9541 C   0  0  0  0  0  0  0  0  0  0  0  0
   23.6385  -11.1959  -16.4350 C   0  0  2  0  0  0  0  0  0  0  0  0
   23.4872  -12.0713  -17.5862 N   0  0  0  0  0  0  0  0  0  0  0  0
   23.0132   -9.8553  -16.7174 C   0  0  0  0  0  0  0  0  0  0  0  0
   23.5080   -9.1040  -17.5954 O   0  0  0  0  0  0  0  0  0  0  0  0
   19.7923   -8.0970  -15.8802 C   0  0  0  0  0  0  0  0  0  0  0  0
   21.2612   -8.1081  -16.2451 C   0  0  2  0  0  0  0  0  0  0  0  0
   21.8698   -9.3941  -16.0240 N   0  0  0  0  0  0  0  0  0  0  0  0
   22.0099   -7.0006  -15.6317 C   0  0  0  0  0  0  0  0  0  0  0  0
   22.6286   -7.1976  -14.5653 O   0  0  0  0  0  0  0  0  0  0  0  0
   22.0530   -5.7439  -16.1966 O   0  0  0  0  0  0  0  0  0  0  0  0
  2  1  1  0
  2  3  2  0
  4  5  1  0
  4  2  1  0
  5  6  1  0
  6  7  1  1
  8  6  1  0
  8  9  2  0
 10 11  1  0
 11 12  1  0
 12 13  1  1
 12 14  1  0
 14 15  1  6
 14 16  1  0
 15  8  1  0
 16 20  1  0
 17 16  2  0
 19 18  1  1
 19 21  1  0
 20 19  1  0
 21 22  2  0
 21 23  1  0
M  END
$$$$
