QIA.pdb
     RDKit          3D

 23 22  0  0  1  0  0  0  0  0999 V2000
   13.7136   -9.5997  -18.0577 N   0  0  0  0  0  0  0  0  0  0  0  0
   14.6390   -8.9749  -18.9285 C   0  0  0  0  0  0  0  0  0  0  0  0
   14.2358   -8.4814  -19.9980 O   0  0  0  0  0  0  0  0  0  0  0  0
   16.0554   -8.9246  -18.5564 C   0  0  0  0  0  0  0  0  0  0  0  0
   16.3059   -9.5156  -17.2175 C   0  0  0  0  0  0  0  0  0  0  0  0
   17.3911  -10.5241  -17.1976 C   0  0  2  0  0  0  0  0  0  0  0  0
   17.0451  -11.8929  -17.1453 N   0  0  0  0  0  0  0  0  0  0  0  0
   18.3755  -10.1197  -16.1550 C   0  0  0  0  0  0  0  0  0  0  0  0
   18.0066  -10.2506  -14.9525 O   0  0  0  0  0  0  0  0  0  0  0  0
   23.9470  -10.4263  -14.1940 C   0  0  0  0  0  0  0  0  0  0  0  0
   22.7397   -9.5110  -14.1702 C   0  0  0  0  0  0  0  0  0  0  0  0
   21.8094   -9.9715  -15.2640 C   0  0  2  0  0  0  0  0  0  0  0  0
   22.4985   -9.9948  -16.6170 C   0  0  0  0  0  0  0  0  0  0  0  0
   20.5460   -9.1595  -15.3361 C   0  0  2  0  0  0  0  0  0  0  0  0
   19.6635   -9.6111  -16.4000 N   0  0  0  0  0  0  0  0  0  0  0  0
   20.9553   -7.7299  -15.5738 C   0  0  0  0  0  0  0  0  0  0  0  0
   21.5654   -7.4184  -16.6279 O   0  0  0  0  0  0  0  0  0  0  0  0
   19.7775   -4.4366  -14.9328 C   0  0  0  0  0  0  0  0  0  0  0  0
   21.0077   -5.3152  -14.8585 C   0  0  2  0  0  0  0  0  0  0  0  0
   20.6781   -6.7003  -14.6443 N   0  0  0  0  0  0  0  0  0  0  0  0
   22.0153   -4.8076  -13.9149 C   0  0  0  0  0  0  0  0  0  0  0  0
   22.2232   -5.4269  -12.8509 O   0  0  0  0  0  0  0  0  0  0  0  0
   22.7433   -3.6642  -14.1654 O   0  0  0  0  0  0  0  0  0  0  0  0
  2  1  1  0
  2  3  2  0
  4  5  1  0
  4  2  1  0
  5  6  1  0
  6  7  1  1
  8  6  1  0
  8  9  2  0
 10 11  1  0
 11 12  1  0
 12 13  1  6
 12 14  1  0
 14 15  1  6
 14 16  1  0
 15  8  1  0
 16 20  1  0
 17 16  2  0
 19 18  1  1
 19 21  1  0
 20 19  1  0
 21 22  2  0
 21 23  1  0
M  END
$$$$
