QIA.pdb
     RDKit          3D

 23 22  0  0  1  0  0  0  0  0999 V2000
   20.1028  -10.0905  -21.0963 N   0  0  0  0  0  0  0  0  0  0  0  0
   18.9518  -10.8460  -21.4271 C   0  0  0  0  0  0  0  0  0  0  0  0
   18.8555  -11.3496  -22.5616 O   0  0  0  0  0  0  0  0  0  0  0  0
   17.8928  -11.0174  -20.4288 C   0  0  0  0  0  0  0  0  0  0  0  0
   18.2000  -10.3142  -19.1576 C   0  0  0  0  0  0  0  0  0  0  0  0
   19.0428  -11.0976  -18.2242 C   0  0  2  0  0  0  0  0  0  0  0  0
   18.6191  -12.3926  -17.8507 N   0  0  0  0  0  0  0  0  0  0  0  0
   19.3782  -10.2245  -17.0646 C   0  0  0  0  0  0  0  0  0  0  0  0
   18.4796  -10.0873  -16.1855 O   0  0  0  0  0  0  0  0  0  0  0  0
   23.3639  -11.3011  -14.8698 C   0  0  0  0  0  0  0  0  0  0  0  0
   22.0696  -10.6135  -14.4851 C   0  0  0  0  0  0  0  0  0  0  0  0
   22.1456   -9.1988  -15.0018 C   0  0  2  0  0  0  0  0  0  0  0  0
   22.5179   -8.2174  -13.9043 C   0  0  0  0  0  0  0  0  0  0  0  0
   20.8820   -8.7592  -15.6879 C   0  0  2  0  0  0  0  0  0  0  0  0
   20.5979   -9.5507  -16.8742 N   0  0  0  0  0  0  0  0  0  0  0  0
   21.0656   -7.3120  -16.0620 C   0  0  0  0  0  0  0  0  0  0  0  0
   21.9443   -6.9867  -16.9000 O   0  0  0  0  0  0  0  0  0  0  0  0
   19.2444   -4.0552  -15.5102 C   0  0  0  0  0  0  0  0  0  0  0  0
   20.4910   -4.8793  -15.7511 C   0  0  2  0  0  0  0  0  0  0  0  0
   20.2767   -6.2809  -15.5005 N   0  0  0  0  0  0  0  0  0  0  0  0
   21.6726   -4.3420  -15.0594 C   0  0  0  0  0  0  0  0  0  0  0  0
   22.2681   -3.3565  -15.5420 O   0  0  0  0  0  0  0  0  0  0  0  0
   22.1493   -4.8920  -13.8886 O   0  0  0  0  0  0  0  0  0  0  0  0
  2  1  1  0
  2  3  2  0
  4  5  1  0
  4  2  1  0
  5  6  1  0
  6  7  1  1
  8  6  1  0
  8  9  2  0
 10 11  1  0
 11 12  1  0
 12 13  1  1
 12 14  1  0
 14 15  1  6
 14 16  1  0
 15  8  1  0
 16 20  1  0
 17 16  2  0
 19 18  1  1
 19 21  1  0
 20 19  1  0
 21 22  2  0
 21 23  1  0
M  END
$$$$
