QIA.pdb
     RDKit          3D

 23 22  0  0  1  0  0  0  0  0999 V2000
   20.8203  -24.1680  -15.6751 N   0  0  0  0  0  0  0  0  0  0  0  0
   19.8033  -23.3375  -15.1452 C   0  0  0  0  0  0  0  0  0  0  0  0
   18.9639  -23.8210  -14.3631 O   0  0  0  0  0  0  0  0  0  0  0  0
   19.7549  -21.9246  -15.5310 C   0  0  0  0  0  0  0  0  0  0  0  0
   20.9556  -21.1774  -15.0787 C   0  0  0  0  0  0  0  0  0  0  0  0
   20.9784  -20.8976  -13.6238 C   0  0  2  0  0  0  0  0  0  0  0  0
   19.8873  -20.2095  -13.0476 N   0  0  0  0  0  0  0  0  0  0  0  0
   22.3013  -20.2984  -13.2917 C   0  0  0  0  0  0  0  0  0  0  0  0
   22.3717  -19.0362  -13.3265 O   0  0  0  0  0  0  0  0  0  0  0  0
   25.1911  -20.9221   -8.9268 C   0  0  0  0  0  0  0  0  0  0  0  0
   24.5009  -20.3855  -10.1645 C   0  0  0  0  0  0  0  0  0  0  0  0
   25.3181  -20.8207  -11.3548 C   0  0  2  0  0  0  0  0  0  0  0  0
   26.7634  -20.3686  -11.2416 C   0  0  0  0  0  0  0  0  0  0  0  0
   24.7310  -20.3681  -12.6629 C   0  0  2  0  0  0  0  0  0  0  0  0
   23.4608  -21.0161  -12.9477 N   0  0  0  0  0  0  0  0  0  0  0  0
   25.7352  -20.7022  -13.7344 C   0  0  0  0  0  0  0  0  0  0  0  0
   25.9555  -21.9024  -14.0361 O   0  0  0  0  0  0  0  0  0  0  0  0
   28.2329  -18.7568  -15.8329 C   0  0  0  0  0  0  0  0  0  0  0  0
   27.4364  -19.9850  -15.4480 C   0  0  2  0  0  0  0  0  0  0  0  0
   26.4567  -19.7046  -14.4308 N   0  0  0  0  0  0  0  0  0  0  0  0
   28.2884  -21.1404  -15.1277 C   0  0  0  0  0  0  0  0  0  0  0  0
   28.6292  -21.3390  -13.9431 O   0  0  0  0  0  0  0  0  0  0  0  0
   28.7272  -22.0180  -16.0960 O   0  0  0  0  0  0  0  0  0  0  0  0
  2  1  1  0
  2  3  2  0
  4  5  1  0
  4  2  1  0
  5  6  1  0
  6  7  1  6
  8  6  1  0
  8  9  2  0
 10 11  1  0
 11 12  1  0
 12 13  1  1
 12 14  1  0
 14 15  1  6
 14 16  1  0
 15  8  1  0
 16 20  1  0
 17 16  2  0
 19 18  1  1
 19 21  1  0
 20 19  1  0
 21 22  2  0
 21 23  1  0
M  END
$$$$
