QIA.pdb
     RDKit          3D

 23 22  0  0  1  0  0  0  0  0999 V2000
   17.8764   -8.5592  -22.2449 N   0  0  0  0  0  0  0  0  0  0  0  0
   18.6914   -9.4140  -21.4640 C   0  0  0  0  0  0  0  0  0  0  0  0
   19.9189   -9.4452  -21.6695 O   0  0  0  0  0  0  0  0  0  0  0  0
   18.0739  -10.2499  -20.4307 C   0  0  0  0  0  0  0  0  0  0  0  0
   18.4494   -9.8184  -19.0605 C   0  0  0  0  0  0  0  0  0  0  0  0
   18.8501  -10.9306  -18.1673 C   0  0  2  0  0  0  0  0  0  0  0  0
   17.8880  -11.9069  -17.8252 N   0  0  0  0  0  0  0  0  0  0  0  0
   19.5477  -10.3449  -16.9884 C   0  0  0  0  0  0  0  0  0  0  0  0
   18.8943  -10.3147  -15.9061 O   0  0  0  0  0  0  0  0  0  0  0  0
   24.2502  -11.8808  -15.3192 C   0  0  0  0  0  0  0  0  0  0  0  0
   22.8165  -11.4083  -15.4509 C   0  0  0  0  0  0  0  0  0  0  0  0
   22.8507   -9.9044  -15.5559 C   0  0  2  0  0  0  0  0  0  0  0  0
   23.5067   -9.2697  -14.3422 C   0  0  0  0  0  0  0  0  0  0  0  0
   21.4917   -9.3043  -15.7877 C   0  0  2  0  0  0  0  0  0  0  0  0
   20.8565   -9.8305  -16.9853 N   0  0  0  0  0  0  0  0  0  0  0  0
   21.6840   -7.8160  -15.9139 C   0  0  0  0  0  0  0  0  0  0  0  0
   22.4163   -7.3526  -16.8246 O   0  0  0  0  0  0  0  0  0  0  0  0
   19.9534   -4.7107  -14.9679 C   0  0  0  0  0  0  0  0  0  0  0  0
   21.2554   -5.4714  -15.0992 C   0  0  2  0  0  0  0  0  0  0  0  0
   21.0644   -6.8971  -15.0351 N   0  0  0  0  0  0  0  0  0  0  0  0
   22.2955   -4.9851  -14.1799 C   0  0  0  0  0  0  0  0  0  0  0  0
   22.4049   -5.5055  -13.0503 O   0  0  0  0  0  0  0  0  0  0  0  0
   23.1599   -3.9679  -14.5239 O   0  0  0  0  0  0  0  0  0  0  0  0
  2  1  1  0
  2  3  2  0
  4  5  1  0
  4  2  1  0
  5  6  1  0
  6  7  1  1
  8  6  1  0
  8  9  2  0
 10 11  1  0
 11 12  1  0
 12 13  1  1
 12 14  1  0
 14 15  1  6
 14 16  1  0
 15  8  1  0
 16 20  1  0
 17 16  2  0
 19 18  1  1
 19 21  1  0
 20 19  1  0
 21 22  2  0
 21 23  1  0
M  END
$$$$
