QIA.pdb
     RDKit          3D

 23 22  0  0  1  0  0  0  0  0999 V2000
   25.8703  -41.2862   -9.3902 N   0  0  0  0  0  0  0  0  0  0  0  0
   24.5117  -40.8874   -9.3934 C   0  0  0  0  0  0  0  0  0  0  0  0
   23.6242  -41.7396   -9.5831 O   0  0  0  0  0  0  0  0  0  0  0  0
   24.1757  -39.4774   -9.1778 C   0  0  0  0  0  0  0  0  0  0  0  0
   25.3755  -38.6519   -8.8884 C   0  0  0  0  0  0  0  0  0  0  0  0
   25.4510  -37.4010   -9.6789 C   0  0  2  0  0  0  0  0  0  0  0  0
   26.0210  -37.4476  -10.9707 N   0  0  0  0  0  0  0  0  0  0  0  0
   26.0359  -36.3423   -8.8091 C   0  0  0  0  0  0  0  0  0  0  0  0
   27.2984  -36.2784   -8.7724 O   0  0  0  0  0  0  0  0  0  0  0  0
   24.5794  -31.2288   -8.8105 C   0  0  0  0  0  0  0  0  0  0  0  0
   25.2905  -32.5667   -8.7965 C   0  0  0  0  0  0  0  0  0  0  0  0
   25.2853  -33.0595   -7.3713 C   0  0  2  0  0  0  0  0  0  0  0  0
   25.9167  -32.0535   -6.4251 C   0  0  0  0  0  0  0  0  0  0  0  0
   25.9403  -34.4040   -7.2161 C   0  0  2  0  0  0  0  0  0  0  0  0
   25.3045  -35.4221   -8.0369 N   0  0  0  0  0  0  0  0  0  0  0  0
   25.8414  -34.7756   -5.7600 C   0  0  0  0  0  0  0  0  0  0  0  0
   24.7175  -35.0029   -5.2450 O   0  0  0  0  0  0  0  0  0  0  0  0
   28.3154  -35.4973   -2.9640 C   0  0  0  0  0  0  0  0  0  0  0  0
   26.9344  -35.3069   -3.5537 C   0  0  2  0  0  0  0  0  0  0  0  0
   26.9809  -34.8825   -4.9288 N   0  0  0  0  0  0  0  0  0  0  0  0
   26.0681  -34.4629   -2.7167 C   0  0  0  0  0  0  0  0  0  0  0  0
   25.9198  -33.2585   -3.0103 O   0  0  0  0  0  0  0  0  0  0  0  0
   25.4093  -34.9582   -1.6117 O   0  0  0  0  0  0  0  0  0  0  0  0
  2  1  1  0
  2  3  2  0
  4  5  1  0
  4  2  1  0
  5  6  1  0
  6  7  1  6
  8  6  1  0
  8  9  2  0
 10 11  1  0
 11 12  1  0
 12 13  1  1
 12 14  1  0
 14 15  1  6
 14 16  1  0
 15  8  1  0
 16 20  1  0
 17 16  2  0
 19 18  1  1
 19 21  1  0
 20 19  1  0
 21 22  2  0
 21 23  1  0
M  END
$$$$
