LVY.pdb
     RDKit          3D

 28 28  0  0  1  0  0  0  0  0999 V2000
    4.8058  -20.2270   21.6839 C   0  0  0  0  0  0  0  0  0  0  0  0
    6.2368  -20.4693   22.0426 C   0  0  2  0  0  0  0  0  0  0  0  0
    6.3007  -20.9625   23.4758 C   0  0  0  0  0  0  0  0  0  0  0  0
    7.0902  -19.2687   21.8130 C   0  0  0  0  0  0  0  0  0  0  0  0
    6.8330  -18.5599   20.5127 C   0  0  2  0  0  0  0  0  0  0  0  0
    7.1959  -19.3872   19.3790 N   0  0  0  0  0  0  0  0  0  0  0  0
    7.6264  -17.3008   20.5237 C   0  0  0  0  0  0  0  0  0  0  0  0
    8.8774  -17.3493   20.3545 O   0  0  0  0  0  0  0  0  0  0  0  0
    8.1018  -12.3931   20.8769 C   0  0  0  0  0  0  0  0  0  0  0  0
    7.1906  -13.5631   20.5980 C   0  0  1  0  0  0  0  0  0  0  0  0
    6.7741  -13.5016   19.1521 C   0  0  0  0  0  0  0  0  0  0  0  0
    7.8959  -14.8613   20.9278 C   0  0  2  0  0  0  0  0  0  0  0  0
    7.0674  -16.0076   20.7159 N   0  0  0  0  0  0  0  0  0  0  0  0
    8.4645  -14.7782   22.2887 C   0  0  0  0  0  0  0  0  0  0  0  0
    7.7764  -14.1660   23.1526 O   0  0  0  0  0  0  0  0  0  0  0  0
   10.6088  -15.1815   30.4647 O   0  0  0  0  0  0  0  0  0  0  0  0
   10.2448  -15.2657   29.1372 C   0  0  0  0  0  0  0  0  0  0  0  0
   10.3679  -16.4750   28.4989 C   0  0  0  0  0  0  0  0  0  0  0  0
   10.0099  -16.5891   27.1669 C   0  0  0  0  0  0  0  0  0  0  0  0
    9.5243  -15.5252   26.4300 C   0  0  0  0  0  0  0  0  0  0  0  0
    9.1388  -15.5948   25.0226 C   0  0  0  0  0  0  0  0  0  0  0  0
   10.2050  -15.1358   24.0580 C   0  0  2  0  0  0  0  0  0  0  0  0
    9.6943  -15.3181   22.6959 N   0  0  0  0  0  0  0  0  0  0  0  0
   11.4944  -15.8104   24.2082 C   0  0  0  0  0  0  0  0  0  0  0  0
   11.8332  -17.0100   23.5574 O   0  0  0  0  0  0  0  0  0  0  0  0
    9.4107  -14.3135   27.1032 C   0  0  0  0  0  0  0  0  0  0  0  0
    9.7636  -14.1864   28.4290 C   0  0  0  0  0  0  0  0  0  0  0  0
   12.3613  -15.2828   24.9718 O   0  0  0  0  0  0  0  0  0  0  0  0
  2  1  1  1
  2  3  1  0
  4  5  1  0
  4  2  1  0
  5  6  1  6
  7 13  1  0
  7  5  1  0
  8  7  2  0
 10  9  1  6
 11 10  1  0
 12 14  1  0
 12 10  1  0
 12 13  1  1
 14 15  2  0
 16 17  1  0
 17 27  2  0
 17 18  1  0
 18 19  2  0
 19 20  1  0
 20 21  1  0
 22 21  1  1
 22 24  1  0
 23 22  1  0
 23 14  1  0
 24 25  1  0
 26 20  2  0
 27 26  1  0
 28 24  2  0
M  END
$$$$
