LVY.pdb
     RDKit          3D

 28 28  0  0  1  0  0  0  0  0999 V2000
    9.4170  -12.6876   18.9945 C   0  0  0  0  0  0  0  0  0  0  0  0
    8.0066  -13.1688   18.8742 C   0  0  2  0  0  0  0  0  0  0  0  0
    7.0985  -12.1962   19.6028 C   0  0  0  0  0  0  0  0  0  0  0  0
    7.8431  -14.5712   19.3528 C   0  0  0  0  0  0  0  0  0  0  0  0
    8.7112  -15.5760   18.6486 C   0  0  2  0  0  0  0  0  0  0  0  0
    7.9966  -16.2268   17.5683 N   0  0  0  0  0  0  0  0  0  0  0  0
    9.1581  -16.5706   19.6615 C   0  0  0  0  0  0  0  0  0  0  0  0
    8.3168  -17.3620   20.1733 O   0  0  0  0  0  0  0  0  0  0  0  0
   12.3277  -19.4560   21.9116 C   0  0  0  0  0  0  0  0  0  0  0  0
   11.9871  -18.5383   20.7632 C   0  0  1  0  0  0  0  0  0  0  0  0
   11.6372  -19.3874   19.5697 C   0  0  0  0  0  0  0  0  0  0  0  0
   10.8510  -17.6172   21.1534 C   0  0  2  0  0  0  0  0  0  0  0  0
   10.5005  -16.7027   20.1113 N   0  0  0  0  0  0  0  0  0  0  0  0
   11.1692  -16.9641   22.4397 C   0  0  0  0  0  0  0  0  0  0  0  0
   12.1710  -16.1953   22.4509 O   0  0  0  0  0  0  0  0  0  0  0  0
   10.6128  -14.0212   30.8173 O   0  0  0  0  0  0  0  0  0  0  0  0
   10.3679  -14.5341   29.5609 C   0  0  0  0  0  0  0  0  0  0  0  0
   10.3648  -15.8974   29.3982 C   0  0  0  0  0  0  0  0  0  0  0  0
   10.1218  -16.4403   28.1486 C   0  0  0  0  0  0  0  0  0  0  0  0
    9.8769  -15.6639   27.0314 C   0  0  0  0  0  0  0  0  0  0  0  0
    9.6208  -16.1894   25.6926 C   0  0  0  0  0  0  0  0  0  0  0  0
   10.8619  -16.4516   24.8749 C   0  0  2  0  0  0  0  0  0  0  0  0
   10.4570  -17.1264   23.6380 N   0  0  0  0  0  0  0  0  0  0  0  0
   11.8911  -17.2319   25.5620 C   0  0  0  0  0  0  0  0  0  0  0  0
   13.0787  -16.6830   26.0779 O   0  0  0  0  0  0  0  0  0  0  0  0
    9.8865  -14.2869   27.2270 C   0  0  0  0  0  0  0  0  0  0  0  0
   10.1270  -13.7336   28.4657 C   0  0  0  0  0  0  0  0  0  0  0  0
   11.7030  -18.4801   25.7022 O   0  0  0  0  0  0  0  0  0  0  0  0
  2  1  1  1
  2  3  1  0
  4  5  1  0
  4  2  1  0
  5  6  1  6
  7 13  1  0
  7  5  1  0
  8  7  2  0
 10  9  1  1
 11 10  1  0
 12 14  1  0
 12 10  1  0
 12 13  1  6
 14 15  2  0
 16 17  1  0
 17 27  2  0
 17 18  1  0
 18 19  2  0
 19 20  1  0
 20 21  1  0
 22 21  1  1
 22 24  1  0
 23 22  1  0
 23 14  1  0
 24 25  1  0
 26 20  2  0
 27 26  1  0
 28 24  2  0
M  END
$$$$
