LVY.pdb
     RDKit          3D

 28 28  0  0  1  0  0  0  0  0999 V2000
    4.3560  -12.2588   25.2445 C   0  0  0  0  0  0  0  0  0  0  0  0
    5.5673  -12.4505   26.0996 C   0  0  2  0  0  0  0  0  0  0  0  0
    6.1389  -11.0879   26.4433 C   0  0  0  0  0  0  0  0  0  0  0  0
    6.5736  -13.3485   25.4645 C   0  0  0  0  0  0  0  0  0  0  0  0
    6.0340  -14.6833   25.0327 C   0  0  2  0  0  0  0  0  0  0  0  0
    5.6831  -15.5057   26.1736 N   0  0  0  0  0  0  0  0  0  0  0  0
    7.0809  -15.3442   24.2068 C   0  0  0  0  0  0  0  0  0  0  0  0
    7.7708  -16.2788   24.7035 O   0  0  0  0  0  0  0  0  0  0  0  0
    9.4727  -16.0741   19.9317 C   0  0  0  0  0  0  0  0  0  0  0  0
    8.4193  -15.2783   20.6625 C   0  0  1  0  0  0  0  0  0  0  0  0
    7.0873  -15.5559   20.0171 C   0  0  0  0  0  0  0  0  0  0  0  0
    8.4211  -15.6403   22.1323 C   0  0  2  0  0  0  0  0  0  0  0  0
    7.3734  -14.9939   22.8600 N   0  0  0  0  0  0  0  0  0  0  0  0
    9.7684  -15.4094   22.6924 C   0  0  0  0  0  0  0  0  0  0  0  0
   10.1554  -14.2091   22.7580 O   0  0  0  0  0  0  0  0  0  0  0  0
   11.7371  -16.2401   30.9022 O   0  0  0  0  0  0  0  0  0  0  0  0
   11.3338  -16.2478   29.5835 C   0  0  0  0  0  0  0  0  0  0  0  0
   11.2021  -17.4561   28.9450 C   0  0  0  0  0  0  0  0  0  0  0  0
   10.7987  -17.4942   27.6217 C   0  0  0  0  0  0  0  0  0  0  0  0
   10.5154  -16.3537   26.8937 C   0  0  0  0  0  0  0  0  0  0  0  0
   10.0921  -16.3426   25.4955 C   0  0  0  0  0  0  0  0  0  0  0  0
   11.2248  -16.3606   24.4983 C   0  0  2  0  0  0  0  0  0  0  0  0
   10.6447  -16.4043   23.1526 N   0  0  0  0  0  0  0  0  0  0  0  0
   12.1747  -17.4592   24.6744 C   0  0  0  0  0  0  0  0  0  0  0  0
   13.4404  -17.3147   25.2699 O   0  0  0  0  0  0  0  0  0  0  0  0
   10.6578  -15.1450   27.5669 C   0  0  0  0  0  0  0  0  0  0  0  0
   11.0585  -15.0931   28.8841 C   0  0  0  0  0  0  0  0  0  0  0  0
   11.8382  -18.6137   24.2658 O   0  0  0  0  0  0  0  0  0  0  0  0
  2  1  1  6
  2  3  1  0
  4  5  1  0
  4  2  1  0
  5  6  1  1
  7 13  1  0
  7  5  1  0
  8  7  2  0
 10  9  1  6
 11 10  1  0
 12 14  1  0
 12 10  1  0
 12 13  1  1
 14 15  2  0
 16 17  1  0
 17 27  2  0
 17 18  1  0
 18 19  2  0
 19 20  1  0
 20 21  1  0
 22 21  1  1
 22 24  1  0
 23 22  1  0
 23 14  1  0
 24 25  1  0
 26 20  2  0
 27 26  1  0
 28 24  2  0
M  END
$$$$
