LVY.pdb
     RDKit          3D

 28 28  0  0  1  0  0  0  0  0999 V2000
    8.2090  -13.2875   18.7073 C   0  0  0  0  0  0  0  0  0  0  0  0
    7.3899  -13.1567   19.9511 C   0  0  2  0  0  0  0  0  0  0  0  0
    7.4490  -11.7156   20.4215 C   0  0  0  0  0  0  0  0  0  0  0  0
    7.8074  -14.1206   21.0090 C   0  0  0  0  0  0  0  0  0  0  0  0
    7.8118  -15.5597   20.5753 C   0  0  2  0  0  0  0  0  0  0  0  0
    6.4814  -16.0061   20.2117 N   0  0  0  0  0  0  0  0  0  0  0  0
    8.3500  -16.3666   21.7040 C   0  0  0  0  0  0  0  0  0  0  0  0
    7.5565  -16.8531   22.5583 O   0  0  0  0  0  0  0  0  0  0  0  0
   11.9450  -19.0183   23.7984 C   0  0  0  0  0  0  0  0  0  0  0  0
   11.5672  -18.0514   22.7033 C   0  0  1  0  0  0  0  0  0  0  0  0
   11.6598  -18.7732   21.3849 C   0  0  0  0  0  0  0  0  0  0  0  0
   10.1780  -17.5032   22.9505 C   0  0  2  0  0  0  0  0  0  0  0  0
    9.7314  -16.6406   21.9010 N   0  0  0  0  0  0  0  0  0  0  0  0
   10.1255  -16.8882   24.2927 C   0  0  0  0  0  0  0  0  0  0  0  0
   10.7267  -15.7867   24.4339 O   0  0  0  0  0  0  0  0  0  0  0  0
    6.7004  -11.1292   25.9711 O   0  0  0  0  0  0  0  0  0  0  0  0
    7.0588  -12.4271   26.2690 C   0  0  0  0  0  0  0  0  0  0  0  0
    8.2233  -12.6430   26.9635 C   0  0  0  0  0  0  0  0  0  0  0  0
    8.6079  -13.9350   27.2766 C   0  0  0  0  0  0  0  0  0  0  0  0
    7.8639  -15.0436   26.9182 C   0  0  0  0  0  0  0  0  0  0  0  0
    8.2305  -16.4251   27.2206 C   0  0  0  0  0  0  0  0  0  0  0  0
    9.6053  -16.8266   26.7448 C   0  0  2  0  0  0  0  0  0  0  0  0
    9.4690  -17.4223   25.4123 N   0  0  0  0  0  0  0  0  0  0  0  0
   10.3158  -17.7427   27.6371 C   0  0  0  0  0  0  0  0  0  0  0  0
   10.9630  -17.3426   28.8197 O   0  0  0  0  0  0  0  0  0  0  0  0
    6.6899  -14.7937   26.2156 C   0  0  0  0  0  0  0  0  0  0  0  0
    6.2956  -13.5124   25.8977 C   0  0  0  0  0  0  0  0  0  0  0  0
   10.3516  -18.9738   27.3270 O   0  0  0  0  0  0  0  0  0  0  0  0
  2  1  1  6
  2  3  1  0
  4  5  1  0
  4  2  1  0
  5  6  1  1
  7 13  1  0
  7  5  1  0
  8  7  2  0
 10  9  1  1
 11 10  1  0
 12 14  1  0
 12 10  1  0
 12 13  1  6
 14 15  2  0
 16 17  1  0
 17 27  2  0
 17 18  1  0
 18 19  2  0
 19 20  1  0
 20 21  1  0
 22 21  1  1
 22 24  1  0
 23 22  1  0
 23 14  1  0
 24 25  1  0
 26 20  2  0
 27 26  1  0
 28 24  2  0
M  END
$$$$
