LVY.pdb
     RDKit          3D

 28 28  0  0  1  0  0  0  0  0999 V2000
    7.9254  -11.6237   20.4441 C   0  0  0  0  0  0  0  0  0  0  0  0
    7.9536  -12.9838   19.8240 C   0  0  2  0  0  0  0  0  0  0  0  0
    7.0488  -12.9805   18.6063 C   0  0  0  0  0  0  0  0  0  0  0  0
    7.5999  -14.0576   20.7957 C   0  0  0  0  0  0  0  0  0  0  0  0
    7.9383  -15.4488   20.3385 C   0  0  2  0  0  0  0  0  0  0  0  0
    6.8949  -15.9960   19.4939 N   0  0  0  0  0  0  0  0  0  0  0  0
    8.1281  -16.2865   21.5538 C   0  0  0  0  0  0  0  0  0  0  0  0
    7.1187  -16.7143   22.1816 O   0  0  0  0  0  0  0  0  0  0  0  0
   10.5734  -19.6116   24.0864 C   0  0  0  0  0  0  0  0  0  0  0  0
   10.5085  -18.6759   22.9044 C   0  0  1  0  0  0  0  0  0  0  0  0
   10.1349  -19.4799   21.6872 C   0  0  0  0  0  0  0  0  0  0  0  0
    9.5156  -17.5656   23.1744 C   0  0  2  0  0  0  0  0  0  0  0  0
    9.3975  -16.6538   22.0790 N   0  0  0  0  0  0  0  0  0  0  0  0
    9.8441  -16.9161   24.4599 C   0  0  0  0  0  0  0  0  0  0  0  0
   10.8809  -16.1954   24.4806 O   0  0  0  0  0  0  0  0  0  0  0  0
    6.5972  -10.9077   25.5601 O   0  0  0  0  0  0  0  0  0  0  0  0
    7.0186  -12.1206   26.0629 C   0  0  0  0  0  0  0  0  0  0  0  0
    8.3399  -12.2644   26.4073 C   0  0  0  0  0  0  0  0  0  0  0  0
    8.7910  -13.4704   26.9147 C   0  0  0  0  0  0  0  0  0  0  0  0
    7.9619  -14.5615   27.0963 C   0  0  0  0  0  0  0  0  0  0  0  0
    8.3917  -15.8548   27.6225 C   0  0  0  0  0  0  0  0  0  0  0  0
    9.5783  -16.4573   26.9106 C   0  0  2  0  0  0  0  0  0  0  0  0
    9.1062  -17.0333   25.6479 N   0  0  0  0  0  0  0  0  0  0  0  0
   10.3065  -17.4636   27.6835 C   0  0  0  0  0  0  0  0  0  0  0  0
   11.2477  -17.1568   28.6822 O   0  0  0  0  0  0  0  0  0  0  0  0
    6.6294  -14.3859   26.7386 C   0  0  0  0  0  0  0  0  0  0  0  0
    6.1674  -13.1906   26.2325 C   0  0  0  0  0  0  0  0  0  0  0  0
   10.0763  -18.6886   27.4396 O   0  0  0  0  0  0  0  0  0  0  0  0
  2  1  1  1
  2  3  1  0
  4  5  1  0
  4  2  1  0
  5  6  1  6
  7 13  1  0
  7  5  1  0
  8  7  2  0
 10  9  1  1
 11 10  1  0
 12 14  1  0
 12 10  1  0
 12 13  1  6
 14 15  2  0
 16 17  1  0
 17 27  2  0
 17 18  1  0
 18 19  2  0
 19 20  1  0
 20 21  1  0
 22 21  1  1
 22 24  1  0
 23 22  1  0
 23 14  1  0
 24 25  1  0
 26 20  2  0
 27 26  1  0
 28 24  2  0
M  END
$$$$
