LVY.pdb
     RDKit          3D

 28 28  0  0  1  0  0  0  0  0999 V2000
    4.8807  -12.2709   25.6406 C   0  0  0  0  0  0  0  0  0  0  0  0
    6.0341  -12.6347   26.5195 C   0  0  2  0  0  0  0  0  0  0  0  0
    6.7162  -11.3592   26.9772 C   0  0  0  0  0  0  0  0  0  0  0  0
    6.9767  -13.5801   25.8559 C   0  0  0  0  0  0  0  0  0  0  0  0
    6.3214  -14.7833   25.2379 C   0  0  2  0  0  0  0  0  0  0  0  0
    5.9507  -15.7585   26.2443 N   0  0  0  0  0  0  0  0  0  0  0  0
    7.2838  -15.3678   24.2647 C   0  0  0  0  0  0  0  0  0  0  0  0
    7.9552  -16.3884   24.5865 O   0  0  0  0  0  0  0  0  0  0  0  0
    9.2012  -15.8233   19.7448 C   0  0  0  0  0  0  0  0  0  0  0  0
    8.2584  -15.0515   20.6350 C   0  0  1  0  0  0  0  0  0  0  0  0
    6.8493  -15.3302   20.1825 C   0  0  0  0  0  0  0  0  0  0  0  0
    8.4741  -15.4407   22.0819 C   0  0  2  0  0  0  0  0  0  0  0  0
    7.5128  -14.8499   22.9604 N   0  0  0  0  0  0  0  0  0  0  0  0
    9.8760  -15.1673   22.4591 C   0  0  0  0  0  0  0  0  0  0  0  0
   10.2733  -13.9752   22.3331 O   0  0  0  0  0  0  0  0  0  0  0  0
   11.2714  -15.8846   30.7475 O   0  0  0  0  0  0  0  0  0  0  0  0
   10.9740  -15.9336   29.4018 C   0  0  0  0  0  0  0  0  0  0  0  0
   10.8529  -17.1623   28.8012 C   0  0  0  0  0  0  0  0  0  0  0  0
   10.5547  -17.2418   27.4521 C   0  0  0  0  0  0  0  0  0  0  0  0
   10.3686  -16.1238   26.6608 C   0  0  0  0  0  0  0  0  0  0  0  0
   10.0582  -16.1566   25.2336 C   0  0  0  0  0  0  0  0  0  0  0  0
   11.2647  -16.0961   24.3289 C   0  0  2  0  0  0  0  0  0  0  0  0
   10.7932  -16.1140   22.9409 N   0  0  0  0  0  0  0  0  0  0  0  0
   12.2421  -17.1632   24.5439 C   0  0  0  0  0  0  0  0  0  0  0  0
   12.0369  -18.5029   24.1688 O   0  0  0  0  0  0  0  0  0  0  0  0
   10.4976  -14.8936   27.2967 C   0  0  0  0  0  0  0  0  0  0  0  0
   10.7940  -14.8004   28.6390 C   0  0  0  0  0  0  0  0  0  0  0  0
   13.3427  -16.8641   25.1027 O   0  0  0  0  0  0  0  0  0  0  0  0
  2  1  1  6
  2  3  1  0
  4  5  1  0
  4  2  1  0
  5  6  1  1
  7 13  1  0
  7  5  1  0
  8  7  2  0
 10  9  1  6
 11 10  1  0
 12 14  1  0
 12 10  1  0
 12 13  1  1
 14 15  2  0
 16 17  1  0
 17 27  2  0
 17 18  1  0
 18 19  2  0
 19 20  1  0
 20 21  1  0
 22 21  1  1
 22 24  1  0
 23 22  1  0
 23 14  1  0
 24 25  1  0
 26 20  2  0
 27 26  1  0
 28 24  2  0
M  END
$$$$
