LVY.pdb
     RDKit          3D

 28 28  0  0  1  0  0  0  0  0999 V2000
    8.8297  -13.2187   19.2843 C   0  0  0  0  0  0  0  0  0  0  0  0
    7.7133  -13.1652   20.2772 C   0  0  2  0  0  0  0  0  0  0  0  0
    7.5223  -11.7253   20.7151 C   0  0  0  0  0  0  0  0  0  0  0  0
    7.9326  -14.0878   21.4275 C   0  0  0  0  0  0  0  0  0  0  0  0
    8.1153  -15.5297   21.0446 C   0  0  2  0  0  0  0  0  0  0  0  0
    6.8989  -16.0865   20.4862 N   0  0  0  0  0  0  0  0  0  0  0  0
    8.5221  -16.2709   22.2693 C   0  0  0  0  0  0  0  0  0  0  0  0
    7.6367  -16.7259   23.0471 O   0  0  0  0  0  0  0  0  0  0  0  0
   12.5756  -17.3998   23.0621 C   0  0  0  0  0  0  0  0  0  0  0  0
   11.3951  -18.2349   23.4935 C   0  0  1  0  0  0  0  0  0  0  0  0
   11.7945  -19.0192   24.7155 C   0  0  0  0  0  0  0  0  0  0  0  0
   10.1990  -17.3459   23.7592 C   0  0  2  0  0  0  0  0  0  0  0  0
    9.8725  -16.5138   22.6429 N   0  0  0  0  0  0  0  0  0  0  0  0
   10.4112  -16.6019   25.0175 C   0  0  0  0  0  0  0  0  0  0  0  0
   11.1909  -15.6100   24.9634 O   0  0  0  0  0  0  0  0  0  0  0  0
    6.1626  -11.7599   24.9978 O   0  0  0  0  0  0  0  0  0  0  0  0
    6.8314  -12.7007   25.7524 C   0  0  0  0  0  0  0  0  0  0  0  0
    6.3231  -13.9746   25.8132 C   0  0  0  0  0  0  0  0  0  0  0  0
    6.9734  -14.9394   26.5626 C   0  0  0  0  0  0  0  0  0  0  0  0
    8.1335  -14.6810   27.2685 C   0  0  0  0  0  0  0  0  0  0  0  0
    8.8522  -15.6631   28.0766 C   0  0  0  0  0  0  0  0  0  0  0  0
   10.1462  -16.1473   27.4692 C   0  0  2  0  0  0  0  0  0  0  0  0
    9.8234  -16.9039   26.2557 N   0  0  0  0  0  0  0  0  0  0  0  0
   10.9742  -16.9566   28.3634 C   0  0  0  0  0  0  0  0  0  0  0  0
   11.2569  -18.3181   28.1537 O   0  0  0  0  0  0  0  0  0  0  0  0
    8.6243  -13.3821   27.1879 C   0  0  0  0  0  0  0  0  0  0  0  0
    7.9867  -12.4123   26.4455 C   0  0  0  0  0  0  0  0  0  0  0  0
   11.4685  -16.3982   29.3915 O   0  0  0  0  0  0  0  0  0  0  0  0
  2  1  1  6
  2  3  1  0
  4  5  1  0
  4  2  1  0
  5  6  1  1
  7 13  1  0
  7  5  1  0
  8  7  2  0
 10  9  1  1
 11 10  1  0
 12 14  1  0
 12 10  1  0
 12 13  1  6
 14 15  2  0
 16 17  1  0
 17 27  2  0
 17 18  1  0
 18 19  2  0
 19 20  1  0
 20 21  1  0
 22 21  1  1
 22 24  1  0
 23 22  1  0
 23 14  1  0
 24 25  1  0
 26 20  2  0
 27 26  1  0
 28 24  2  0
M  END
$$$$
