LVY.pdb
     RDKit          3D

 28 28  0  0  1  0  0  0  0  0999 V2000
    9.2946  -12.9339   18.2752 C   0  0  0  0  0  0  0  0  0  0  0  0
    7.8528  -13.1773   18.5870 C   0  0  2  0  0  0  0  0  0  0  0  0
    7.2694  -11.9173   19.1983 C   0  0  0  0  0  0  0  0  0  0  0  0
    7.6538  -14.3762   19.4504 C   0  0  0  0  0  0  0  0  0  0  0  0
    8.2535  -15.6428   18.9069 C   0  0  2  0  0  0  0  0  0  0  0  0
    7.2971  -16.3777   18.1028 N   0  0  0  0  0  0  0  0  0  0  0  0
    8.7061  -16.4582   20.0666 C   0  0  0  0  0  0  0  0  0  0  0  0
    7.8628  -16.8504   20.9216 O   0  0  0  0  0  0  0  0  0  0  0  0
   11.8890  -19.5204   22.1979 C   0  0  0  0  0  0  0  0  0  0  0  0
   11.5465  -18.6482   21.0152 C   0  0  1  0  0  0  0  0  0  0  0  0
   11.1904  -19.5431   19.8575 C   0  0  0  0  0  0  0  0  0  0  0  0
   10.4139  -17.7094   21.3724 C   0  0  2  0  0  0  0  0  0  0  0  0
   10.0565  -16.8418   20.2933 N   0  0  0  0  0  0  0  0  0  0  0  0
   10.7421  -17.0002   22.6260 C   0  0  0  0  0  0  0  0  0  0  0  0
   11.6813  -16.1580   22.5700 O   0  0  0  0  0  0  0  0  0  0  0  0
   10.8180  -14.2795   31.0923 O   0  0  0  0  0  0  0  0  0  0  0  0
   10.4766  -14.7613   29.8461 C   0  0  0  0  0  0  0  0  0  0  0  0
   10.4468  -16.1205   29.6540 C   0  0  0  0  0  0  0  0  0  0  0  0
   10.1075  -16.6324   28.4138 C   0  0  0  0  0  0  0  0  0  0  0  0
    9.7902  -15.8285   27.3350 C   0  0  0  0  0  0  0  0  0  0  0  0
    9.4314  -16.3210   26.0072 C   0  0  0  0  0  0  0  0  0  0  0  0
   10.6062  -16.5662   25.0919 C   0  0  2  0  0  0  0  0  0  0  0  0
   10.1023  -17.1840   23.8616 N   0  0  0  0  0  0  0  0  0  0  0  0
   11.6690  -17.3880   25.6708 C   0  0  0  0  0  0  0  0  0  0  0  0
   12.8890  -16.8737   26.1449 O   0  0  0  0  0  0  0  0  0  0  0  0
    9.8290  -14.4565   27.5597 C   0  0  0  0  0  0  0  0  0  0  0  0
   10.1651  -13.9338   28.7894 C   0  0  0  0  0  0  0  0  0  0  0  0
   11.4808  -18.6415   25.7512 O   0  0  0  0  0  0  0  0  0  0  0  0
  2  1  1  1
  2  3  1  0
  4  5  1  0
  4  2  1  0
  5  6  1  1
  7 13  1  0
  7  5  1  0
  8  7  2  0
 10  9  1  1
 11 10  1  0
 12 14  1  0
 12 10  1  0
 12 13  1  6
 14 15  2  0
 16 17  1  0
 17 27  2  0
 17 18  1  0
 18 19  2  0
 19 20  1  0
 20 21  1  0
 22 21  1  1
 22 24  1  0
 23 22  1  0
 23 14  1  0
 24 25  1  0
 26 20  2  0
 27 26  1  0
 28 24  2  0
M  END
$$$$
