LVY.pdb
     RDKit          3D

 28 28  0  0  1  0  0  0  0  0999 V2000
    5.2052  -12.3028   25.9831 C   0  0  0  0  0  0  0  0  0  0  0  0
    6.3127  -12.9197   26.7756 C   0  0  2  0  0  0  0  0  0  0  0  0
    7.0938  -11.8137   27.4599 C   0  0  0  0  0  0  0  0  0  0  0  0
    7.1807  -13.8026   25.9452 C   0  0  0  0  0  0  0  0  0  0  0  0
    6.4427  -14.8750   25.1941 C   0  0  2  0  0  0  0  0  0  0  0  0
    5.9457  -15.9009   26.0896 N   0  0  0  0  0  0  0  0  0  0  0  0
    7.3847  -15.4541   24.1980 C   0  0  0  0  0  0  0  0  0  0  0  0
    8.0051  -16.5202   24.4711 O   0  0  0  0  0  0  0  0  0  0  0  0
    9.3857  -15.6705   19.6836 C   0  0  0  0  0  0  0  0  0  0  0  0
    8.4947  -14.8963   20.6236 C   0  0  1  0  0  0  0  0  0  0  0  0
    7.0886  -14.9443   20.0865 C   0  0  0  0  0  0  0  0  0  0  0  0
    8.5858  -15.4740   22.0199 C   0  0  2  0  0  0  0  0  0  0  0  0
    7.6482  -14.8821   22.9231 N   0  0  0  0  0  0  0  0  0  0  0  0
    9.9862  -15.4110   22.4859 C   0  0  0  0  0  0  0  0  0  0  0  0
   10.6379  -14.3736   22.1800 O   0  0  0  0  0  0  0  0  0  0  0  0
   10.6769  -16.3512   30.6764 O   0  0  0  0  0  0  0  0  0  0  0  0
   10.7454  -16.0113   29.3417 C   0  0  0  0  0  0  0  0  0  0  0  0
   10.3964  -16.9538   28.4062 C   0  0  0  0  0  0  0  0  0  0  0  0
   10.4553  -16.6406   27.0594 C   0  0  0  0  0  0  0  0  0  0  0  0
   10.8561  -15.4009   26.5974 C   0  0  0  0  0  0  0  0  0  0  0  0
   10.9395  -15.0251   25.1881 C   0  0  0  0  0  0  0  0  0  0  0  0
   11.5892  -16.0595   24.3017 C   0  0  2  0  0  0  0  0  0  0  0  0
   10.6450  -16.3997   23.2331 N   0  0  0  0  0  0  0  0  0  0  0  0
   12.0235  -17.2716   24.9964 C   0  0  0  0  0  0  0  0  0  0  0  0
   11.2960  -18.4750   25.0047 O   0  0  0  0  0  0  0  0  0  0  0  0
   11.2034  -14.4672   27.5680 C   0  0  0  0  0  0  0  0  0  0  0  0
   11.1492  -14.7661   28.9119 C   0  0  0  0  0  0  0  0  0  0  0  0
   13.1232  -17.2372   25.6307 O   0  0  0  0  0  0  0  0  0  0  0  0
  2  1  1  6
  2  3  1  0
  4  5  1  0
  4  2  1  0
  5  6  1  1
  7 13  1  0
  7  5  1  0
  8  7  2  0
 10  9  1  6
 11 10  1  0
 12 14  1  0
 12 10  1  0
 12 13  1  1
 14 15  2  0
 16 17  1  0
 17 27  2  0
 17 18  1  0
 18 19  2  0
 19 20  1  0
 20 21  1  0
 22 21  1  1
 22 24  1  0
 23 22  1  0
 23 14  1  0
 24 25  1  0
 26 20  2  0
 27 26  1  0
 28 24  2  0
M  END
$$$$
