DRL.pdb
     RDKit          3D

 28 27  0  0  1  0  0  0  0  0999 V2000
    6.5123  -19.6397   22.9142 N   0  0  0  0  0  0  0  0  0  0  0  0
    7.8560  -19.7583   22.3853 C   0  0  1  0  0  0  0  0  0  0  0  0
    7.8675  -20.4396   21.0343 C   0  0  0  0  0  0  0  0  0  0  0  0
    7.9600  -21.9026   21.1475 C   0  0  0  0  0  0  0  0  0  0  0  0
    7.9312  -22.4286   22.2886 O   0  0  0  0  0  0  0  0  0  0  0  0
    8.5269  -18.4361   22.2767 C   0  0  0  0  0  0  0  0  0  0  0  0
    9.7528  -18.4352   22.0480 O   0  0  0  0  0  0  0  0  0  0  0  0
    8.0757  -22.6582   20.0022 O   0  0  0  0  0  0  0  0  0  0  0  0
    7.9136  -11.7251   17.5230 N   0  0  0  0  0  0  0  0  0  0  0  0
    8.3832  -13.0553   17.7155 C   0  0  0  0  0  0  0  0  0  0  0  0
    8.7123  -13.8378   16.7415 N   0  0  0  0  0  0  0  0  0  0  0  0
    8.5098  -13.5851   19.0364 N   0  0  0  0  0  0  0  0  0  0  0  0
    7.8063  -12.8885   20.1315 C   0  0  0  0  0  0  0  0  0  0  0  0
    8.1520  -13.6505   21.4037 C   0  0  0  0  0  0  0  0  0  0  0  0
    7.4720  -14.9570   21.5430 C   0  0  0  0  0  0  0  0  0  0  0  0
    8.2691  -15.9243   22.3735 C   0  0  2  0  0  0  0  0  0  0  0  0
    7.7703  -17.2620   22.4325 N   0  0  0  0  0  0  0  0  0  0  0  0
    8.6645  -15.3818   23.6931 C   0  0  0  0  0  0  0  0  0  0  0  0
    8.9256  -14.1449   23.7563 O   0  0  0  0  0  0  0  0  0  0  0  0
    9.0511  -14.7971   17.0124 C   0  0  0  0  0  0  0  0  0  0  0  0
    6.8021  -12.3381   26.0903 C   0  0  1  0  0  0  0  0  0  0  0  0
    8.0864  -13.1653   25.7812 C   0  0  0  0  0  0  0  0  0  0  0  0
    9.2488  -12.3121   26.2872 C   0  0  0  0  0  0  0  0  0  0  0  0
    7.9578  -14.4938   26.4156 C   0  0  2  0  0  0  0  0  0  0  0  0
    8.9630  -15.5425   26.1927 N   0  0  0  0  0  0  0  0  0  0  0  0
    8.7653  -16.1473   24.8617 C   0  0  0  0  0  0  0  0  0  0  0  0
    9.1304  -16.6316   27.1355 O   0  0  0  0  0  0  0  0  0  0  0  0
    8.9029  -17.8461   26.9152 O   0  0  0  0  0  0  0  0  0  0  0  0
  2  1  1  6
  2  3  1  0
  3  4  1  0
  4  5  2  0
  4  8  1  0
  6  7  2  0
  6  2  1  0
  9 10  1  0
 10 12  1  0
 11 10  2  0
 12 13  1  0
 14 13  1  0
 14 15  1  0
 16 15  1  1
 16 17  1  0
 17  6  1  0
 18 16  1  0
 19 18  2  0
 21 20  1  6
 21 22  1  0
 23 21  1  0
 24 23  1  6
 24 25  1  0
 25 18  1  0
 26 28  1  0
 26 24  1  0
 27 26  2  0
M  END
$$$$
