DRL.pdb
     RDKit          3D

 28 27  0  0  1  0  0  0  0  0999 V2000
   13.1266  -18.7374   22.2020 N   0  0  0  0  0  0  0  0  0  0  0  0
   13.5472  -17.3521   22.2591 C   0  0  1  0  0  0  0  0  0  0  0  0
   14.2998  -16.9438   21.0116 C   0  0  0  0  0  0  0  0  0  0  0  0
   15.6508  -17.5215   20.9602 C   0  0  0  0  0  0  0  0  0  0  0  0
   15.9817  -18.2100   19.9621 O   0  0  0  0  0  0  0  0  0  0  0  0
   12.3974  -16.4324   22.4647 C   0  0  0  0  0  0  0  0  0  0  0  0
   12.6445  -15.2109   22.5101 O   0  0  0  0  0  0  0  0  0  0  0  0
   16.5182  -17.2939   22.0051 O   0  0  0  0  0  0  0  0  0  0  0  0
    6.5310  -13.9335   18.1443 N   0  0  0  0  0  0  0  0  0  0  0  0
    7.6175  -13.4583   18.9322 C   0  0  0  0  0  0  0  0  0  0  0  0
    8.3307  -12.4309   18.6085 N   0  0  0  0  0  0  0  0  0  0  0  0
    7.9655  -14.1253   20.1470 N   0  0  0  0  0  0  0  0  0  0  0  0
    7.0198  -15.1239   20.6834 C   0  0  0  0  0  0  0  0  0  0  0  0
    7.6276  -15.6181   21.9891 C   0  0  0  0  0  0  0  0  0  0  0  0
    8.7757  -16.5366   21.8251 C   0  0  0  0  0  0  0  0  0  0  0  0
    9.8988  -16.2134   22.7712 C   0  0  2  0  0  0  0  0  0  0  0  0
   11.1028  -16.9630   22.5973 N   0  0  0  0  0  0  0  0  0  0  0  0
    9.4675  -16.1063   24.1835 C   0  0  0  0  0  0  0  0  0  0  0  0
   10.0361  -16.8653   25.0219 O   0  0  0  0  0  0  0  0  0  0  0  0
    9.1816  -12.2522   19.2021 C   0  0  0  0  0  0  0  0  0  0  0  0
    6.5577  -11.6427   26.1079 C   0  0  1  0  0  0  0  0  0  0  0  0
    7.7260  -12.6696   26.0102 C   0  0  0  0  0  0  0  0  0  0  0  0
    8.7823  -12.1760   26.9980 C   0  0  0  0  0  0  0  0  0  0  0  0
    7.1924  -14.0207   26.2821 C   0  0  2  0  0  0  0  0  0  0  0  0
    8.0041  -15.2213   26.0376 N   0  0  0  0  0  0  0  0  0  0  0  0
    8.4795  -15.2254   24.6411 C   0  0  0  0  0  0  0  0  0  0  0  0
    7.4836  -16.5461   26.3150 O   0  0  0  0  0  0  0  0  0  0  0  0
    6.8636  -17.2837   25.5108 O   0  0  0  0  0  0  0  0  0  0  0  0
  2  1  1  6
  2  3  1  0
  3  4  1  0
  4  5  2  0
  4  8  1  0
  6  7  2  0
  6  2  1  0
  9 10  1  0
 10 12  1  0
 11 10  2  0
 12 13  1  0
 14 13  1  0
 14 15  1  0
 16 15  1  6
 16 17  1  0
 17  6  1  0
 18 16  1  0
 19 18  2  0
 21 20  1  6
 21 22  1  0
 23 21  1  0
 24 23  1  1
 24 25  1  0
 25 18  1  0
 26 28  1  0
 26 24  1  0
 27 26  2  0
M  END
$$$$
