DRL.pdb
     RDKit          3D

 28 27  0  0  1  0  0  0  0  0999 V2000
    6.4349  -15.0240   19.3549 N   0  0  0  0  0  0  0  0  0  0  0  0
    7.4964  -15.6925   20.0800 C   0  0  1  0  0  0  0  0  0  0  0  0
    8.8547  -15.1216   19.7361 C   0  0  0  0  0  0  0  0  0  0  0  0
    9.2365  -15.3898   18.3418 C   0  0  0  0  0  0  0  0  0  0  0  0
    8.4255  -15.9905   17.5927 O   0  0  0  0  0  0  0  0  0  0  0  0
    7.2904  -15.6240   21.5508 C   0  0  0  0  0  0  0  0  0  0  0  0
    7.0846  -14.4984   22.0465 O   0  0  0  0  0  0  0  0  0  0  0  0
   10.4708  -14.9767   17.8927 O   0  0  0  0  0  0  0  0  0  0  0  0
    7.3366  -23.0505   26.5152 N   0  0  0  0  0  0  0  0  0  0  0  0
    7.1864  -21.9269   27.3766 C   0  0  0  0  0  0  0  0  0  0  0  0
    6.8764  -22.0295   28.6266 N   0  0  0  0  0  0  0  0  0  0  0  0
    7.3804  -20.6055   26.8689 N   0  0  0  0  0  0  0  0  0  0  0  0
    6.6192  -20.2069   25.6684 C   0  0  0  0  0  0  0  0  0  0  0  0
    7.1559  -18.8399   25.2663 C   0  0  0  0  0  0  0  0  0  0  0  0
    6.4145  -18.1869   24.1650 C   0  0  0  0  0  0  0  0  0  0  0  0
    7.0775  -16.9157   23.7120 C   0  0  2  0  0  0  0  0  0  0  0  0
    7.3345  -16.8053   22.3108 N   0  0  0  0  0  0  0  0  0  0  0  0
    8.2256  -16.5161   24.5571 C   0  0  0  0  0  0  0  0  0  0  0  0
    9.2571  -16.0822   23.9655 O   0  0  0  0  0  0  0  0  0  0  0  0
    6.8489  -23.0064   29.0183 C   0  0  0  0  0  0  0  0  0  0  0  0
    6.1348  -12.3836   26.4020 C   0  0  2  0  0  0  0  0  0  0  0  0
    7.4694  -13.1536   26.1667 C   0  0  0  0  0  0  0  0  0  0  0  0
    8.5590  -12.2685   26.7705 C   0  0  0  0  0  0  0  0  0  0  0  0
    7.3501  -14.5004   26.7632 C   0  0  2  0  0  0  0  0  0  0  0  0
    8.4996  -15.4149   26.8100 N   0  0  0  0  0  0  0  0  0  0  0  0
    8.2376  -16.5888   25.9558 C   0  0  0  0  0  0  0  0  0  0  0  0
    9.0100  -15.9119   28.0732 O   0  0  0  0  0  0  0  0  0  0  0  0
    8.6865  -16.9875   28.6332 O   0  0  0  0  0  0  0  0  0  0  0  0
  2  1  1  6
  2  3  1  0
  3  4  1  0
  4  5  2  0
  4  8  1  0
  6  7  2  0
  6  2  1  0
  9 10  1  0
 10 12  1  0
 11 10  2  0
 12 13  1  0
 14 13  1  0
 14 15  1  0
 16 15  1  6
 16 17  1  0
 17  6  1  0
 18 16  1  0
 19 18  2  0
 21 20  1  6
 21 22  1  0
 23 21  1  0
 24 23  1  6
 24 25  1  0
 25 18  1  0
 26 28  1  0
 26 24  1  0
 27 26  2  0
M  END
$$$$
