DRL.pdb
     RDKit          3D

 28 27  0  0  1  0  0  0  0  0999 V2000
    9.3901  -15.7863   18.7463 N   0  0  0  0  0  0  0  0  0  0  0  0
    8.7162  -14.6397   19.3211 C   0  0  1  0  0  0  0  0  0  0  0  0
    7.7195  -14.0348   18.3567 C   0  0  0  0  0  0  0  0  0  0  0  0
    8.1609  -14.1402   16.9583 C   0  0  0  0  0  0  0  0  0  0  0  0
    9.0517  -14.9758   16.6617 O   0  0  0  0  0  0  0  0  0  0  0  0
    8.0265  -14.9829   20.5927 C   0  0  0  0  0  0  0  0  0  0  0  0
    7.2364  -14.1384   21.0593 O   0  0  0  0  0  0  0  0  0  0  0  0
    7.5881  -13.3222   16.0103 O   0  0  0  0  0  0  0  0  0  0  0  0
    9.0890  -20.8483   26.5728 N   0  0  0  0  0  0  0  0  0  0  0  0
    7.7195  -20.5669   26.8421 C   0  0  0  0  0  0  0  0  0  0  0  0
    7.1787  -20.7288   28.0042 N   0  0  0  0  0  0  0  0  0  0  0  0
    6.8711  -20.0801   25.8006 N   0  0  0  0  0  0  0  0  0  0  0  0
    7.4428  -19.9520   24.4455 C   0  0  0  0  0  0  0  0  0  0  0  0
    7.4188  -18.4650   24.1190 C   0  0  0  0  0  0  0  0  0  0  0  0
    7.8911  -18.1255   22.7587 C   0  0  0  0  0  0  0  0  0  0  0  0
    7.7823  -16.6533   22.4728 C   0  0  2  0  0  0  0  0  0  0  0  0
    8.2855  -16.2197   21.2076 N   0  0  0  0  0  0  0  0  0  0  0  0
    8.2114  -15.7998   23.6039 C   0  0  0  0  0  0  0  0  0  0  0  0
    9.4558  -15.6319   23.7633 O   0  0  0  0  0  0  0  0  0  0  0  0
    6.1473  -20.5271   28.0671 C   0  0  0  0  0  0  0  0  0  0  0  0
    7.3761  -11.0747   26.2910 C   0  0  2  0  0  0  0  0  0  0  0  0
    6.7717  -12.3379   26.9753 C   0  0  0  0  0  0  0  0  0  0  0  0
    5.4723  -11.8637   27.6247 C   0  0  0  0  0  0  0  0  0  0  0  0
    6.6165  -13.3985   25.9580 C   0  0  1  0  0  0  0  0  0  0  0  0
    7.7767  -14.1551   25.4664 N   0  0  0  0  0  0  0  0  0  0  0  0
    7.3323  -15.1747   24.4971 C   0  0  0  0  0  0  0  0  0  0  0  0
    8.6882  -14.8089   26.3854 O   0  0  0  0  0  0  0  0  0  0  0  0
    9.7685  -14.3399   26.8194 O   0  0  0  0  0  0  0  0  0  0  0  0
  2  1  1  6
  2  3  1  0
  3  4  1  0
  4  5  2  0
  4  8  1  0
  6  7  2  0
  6  2  1  0
  9 10  1  0
 10 12  1  0
 11 10  2  0
 12 13  1  0
 14 13  1  0
 14 15  1  0
 16 15  1  1
 16 17  1  0
 17  6  1  0
 18 16  1  0
 19 18  2  0
 21 20  1  1
 21 22  1  0
 23 21  1  0
 24 23  1  6
 24 25  1  0
 25 18  1  0
 26 28  1  0
 26 24  1  0
 27 26  2  0
M  END
$$$$
