DRL.pdb
     RDKit          3D

 28 27  0  0  1  0  0  0  0  0999 V2000
    9.2640  -16.0080   18.4550 N   0  0  0  0  0  0  0  0  0  0  0  0
    8.7790  -14.8028   19.0965 C   0  0  1  0  0  0  0  0  0  0  0  0
    7.7024  -14.1266   18.2761 C   0  0  0  0  0  0  0  0  0  0  0  0
    8.1180  -13.9047   16.8834 C   0  0  0  0  0  0  0  0  0  0  0  0
    9.2375  -14.3337   16.5058 O   0  0  0  0  0  0  0  0  0  0  0  0
    8.2609  -15.0733   20.4634 C   0  0  0  0  0  0  0  0  0  0  0  0
    7.7098  -14.1284   21.0622 O   0  0  0  0  0  0  0  0  0  0  0  0
    7.2718  -13.2336   16.0293 O   0  0  0  0  0  0  0  0  0  0  0  0
    4.9376  -21.3822   22.8263 N   0  0  0  0  0  0  0  0  0  0  0  0
    6.1758  -21.5931   23.4966 C   0  0  0  0  0  0  0  0  0  0  0  0
    6.9283  -22.6220   23.2865 N   0  0  0  0  0  0  0  0  0  0  0  0
    6.6413  -20.6415   24.4554 N   0  0  0  0  0  0  0  0  0  0  0  0
    6.3743  -19.2126   24.1979 C   0  0  0  0  0  0  0  0  0  0  0  0
    7.7363  -18.5592   24.0067 C   0  0  0  0  0  0  0  0  0  0  0  0
    8.0778  -18.2470   22.6015 C   0  0  0  0  0  0  0  0  0  0  0  0
    7.9327  -16.7820   22.2958 C   0  0  2  0  0  0  0  0  0  0  0  0
    8.4085  -16.3564   21.0174 N   0  0  0  0  0  0  0  0  0  0  0  0
    8.3587  -15.9027   23.4081 C   0  0  0  0  0  0  0  0  0  0  0  0
    9.5959  -15.6548   23.5094 O   0  0  0  0  0  0  0  0  0  0  0  0
    7.8323  -22.6524   23.8253 C   0  0  0  0  0  0  0  0  0  0  0  0
    7.5222  -11.0236   25.9050 C   0  0  2  0  0  0  0  0  0  0  0  0
    6.9683  -12.3077   26.5931 C   0  0  0  0  0  0  0  0  0  0  0  0
    5.6628  -11.8779   27.2610 C   0  0  0  0  0  0  0  0  0  0  0  0
    6.8344  -13.3700   25.5746 C   0  0  1  0  0  0  0  0  0  0  0  0
    7.9203  -14.3300   25.3309 N   0  0  0  0  0  0  0  0  0  0  0  0
    7.4842  -15.3357   24.3436 C   0  0  0  0  0  0  0  0  0  0  0  0
    8.5437  -15.0489   26.4253 O   0  0  0  0  0  0  0  0  0  0  0  0
    8.2979  -16.2292   26.7739 O   0  0  0  0  0  0  0  0  0  0  0  0
  2  1  1  6
  2  3  1  0
  3  4  1  0
  4  5  2  0
  4  8  1  0
  6  7  2  0
  6  2  1  0
  9 10  1  0
 10 12  1  0
 11 10  2  0
 12 13  1  0
 14 13  1  0
 14 15  1  0
 16 15  1  1
 16 17  1  0
 17  6  1  0
 18 16  1  0
 19 18  2  0
 21 20  1  1
 21 22  1  0
 23 21  1  0
 24 23  1  6
 24 25  1  0
 25 18  1  0
 26 28  1  0
 26 24  1  0
 27 26  2  0
M  END
$$$$
