DRL.pdb
     RDKit          3D

 28 27  0  0  1  0  0  0  0  0999 V2000
    9.4550  -18.7518   21.2801 N   0  0  0  0  0  0  0  0  0  0  0  0
   10.7301  -18.0700   21.3726 C   0  0  1  0  0  0  0  0  0  0  0  0
   11.5002  -18.1446   20.0724 C   0  0  0  0  0  0  0  0  0  0  0  0
   11.9662  -19.5073   19.7767 C   0  0  0  0  0  0  0  0  0  0  0  0
   11.5096  -20.4667   20.4482 O   0  0  0  0  0  0  0  0  0  0  0  0
   10.5692  -16.6464   21.7697 C   0  0  0  0  0  0  0  0  0  0  0  0
   11.6060  -16.0090   22.0413 O   0  0  0  0  0  0  0  0  0  0  0  0
   12.8896  -19.6979   18.7732 O   0  0  0  0  0  0  0  0  0  0  0  0
    7.9812  -12.2139   16.4541 N   0  0  0  0  0  0  0  0  0  0  0  0
    7.9332  -13.6366   16.4279 C   0  0  0  0  0  0  0  0  0  0  0  0
    8.0050  -14.3275   15.3386 N   0  0  0  0  0  0  0  0  0  0  0  0
    7.7996  -14.3703   17.6467 N   0  0  0  0  0  0  0  0  0  0  0  0
    8.0077  -13.6464   18.9164 C   0  0  0  0  0  0  0  0  0  0  0  0
    7.7213  -14.6514   20.0239 C   0  0  0  0  0  0  0  0  0  0  0  0
    7.8346  -14.1062   21.3946 C   0  0  0  0  0  0  0  0  0  0  0  0
    8.9661  -14.7330   22.1613 C   0  0  2  0  0  0  0  0  0  0  0  0
    9.2821  -16.0848   21.8229 N   0  0  0  0  0  0  0  0  0  0  0  0
    8.8959  -14.4893   23.6200 C   0  0  0  0  0  0  0  0  0  0  0  0
    8.8864  -13.2839   24.0061 O   0  0  0  0  0  0  0  0  0  0  0  0
    8.0357  -15.3735   15.4548 C   0  0  0  0  0  0  0  0  0  0  0  0
    6.1162  -12.5074   26.3924 C   0  0  1  0  0  0  0  0  0  0  0  0
    7.5474  -13.0058   26.0283 C   0  0  0  0  0  0  0  0  0  0  0  0
    8.5023  -12.0691   26.7673 C   0  0  0  0  0  0  0  0  0  0  0  0
    7.6584  -14.4336   26.3929 C   0  0  2  0  0  0  0  0  0  0  0  0
    8.8477  -15.2190   26.0341 N   0  0  0  0  0  0  0  0  0  0  0  0
    8.8399  -15.5017   24.5862 C   0  0  0  0  0  0  0  0  0  0  0  0
    9.1542  -16.4648   26.7103 O   0  0  0  0  0  0  0  0  0  0  0  0
    9.2901  -17.5892   26.1697 O   0  0  0  0  0  0  0  0  0  0  0  0
  2  1  1  6
  2  3  1  0
  3  4  1  0
  4  5  2  0
  4  8  1  0
  6  7  2  0
  6  2  1  0
  9 10  1  0
 10 12  1  0
 11 10  2  0
 12 13  1  0
 14 13  1  0
 14 15  1  0
 16 15  1  6
 16 17  1  0
 17  6  1  0
 18 16  1  0
 19 18  2  0
 21 20  1  6
 21 22  1  0
 23 21  1  0
 24 23  1  6
 24 25  1  0
 25 18  1  0
 26 28  1  0
 26 24  1  0
 27 26  2  0
M  END
$$$$
