DRL.pdb
     RDKit          3D

 28 27  0  0  1  0  0  0  0  0999 V2000
   10.9816  -18.9173   19.6819 N   0  0  0  0  0  0  0  0  0  0  0  0
   11.2214  -17.6462   20.3346 C   0  0  1  0  0  0  0  0  0  0  0  0
   11.5031  -16.5473   19.3334 C   0  0  0  0  0  0  0  0  0  0  0  0
   12.8636  -16.6294   18.7821 C   0  0  0  0  0  0  0  0  0  0  0  0
   13.5465  -17.6627   18.9959 O   0  0  0  0  0  0  0  0  0  0  0  0
   10.0814  -17.2446   21.2003 C   0  0  0  0  0  0  0  0  0  0  0  0
    9.7126  -16.0548   21.1426 O   0  0  0  0  0  0  0  0  0  0  0  0
   13.3544  -15.5740   18.0465 O   0  0  0  0  0  0  0  0  0  0  0  0
    5.2925  -22.6137   26.1331 N   0  0  0  0  0  0  0  0  0  0  0  0
    6.2642  -21.7517   26.7159 C   0  0  0  0  0  0  0  0  0  0  0  0
    6.7623  -21.9398   27.8930 N   0  0  0  0  0  0  0  0  0  0  0  0
    6.7352  -20.6126   25.9932 N   0  0  0  0  0  0  0  0  0  0  0  0
    5.8479  -20.0282   24.9683 C   0  0  0  0  0  0  0  0  0  0  0  0
    6.5976  -18.8322   24.3971 C   0  0  0  0  0  0  0  0  0  0  0  0
    7.7314  -19.1811   23.5132 C   0  0  0  0  0  0  0  0  0  0  0  0
    8.4098  -17.9611   22.9544 C   0  0  2  0  0  0  0  0  0  0  0  0
    9.4754  -18.2007   22.0330 N   0  0  0  0  0  0  0  0  0  0  0  0
    8.7327  -16.9441   23.9807 C   0  0  0  0  0  0  0  0  0  0  0  0
    9.9237  -16.9102   24.4080 O   0  0  0  0  0  0  0  0  0  0  0  0
    7.5070  -21.2595   28.1949 C   0  0  0  0  0  0  0  0  0  0  0  0
    8.0626  -11.6133   25.4791 C   0  0  2  0  0  0  0  0  0  0  0  0
    7.2676  -12.6980   26.2668 C   0  0  0  0  0  0  0  0  0  0  0  0
    5.9451  -12.0338   26.6475 C   0  0  0  0  0  0  0  0  0  0  0  0
    7.1460  -13.9034   25.4206 C   0  0  1  0  0  0  0  0  0  0  0  0
    8.2038  -14.9235   25.3951 N   0  0  0  0  0  0  0  0  0  0  0  0
    7.8093  -16.0281   24.5003 C   0  0  0  0  0  0  0  0  0  0  0  0
    8.6961  -15.5224   26.6207 O   0  0  0  0  0  0  0  0  0  0  0  0
    9.6648  -15.1173   27.3081 O   0  0  0  0  0  0  0  0  0  0  0  0
  2  1  1  6
  2  3  1  0
  3  4  1  0
  4  5  2  0
  4  8  1  0
  6  7  2  0
  6  2  1  0
  9 10  1  0
 10 12  1  0
 11 10  2  0
 12 13  1  0
 14 13  1  0
 14 15  1  0
 16 15  1  1
 16 17  1  0
 17  6  1  0
 18 16  1  0
 19 18  2  0
 21 20  1  1
 21 22  1  0
 23 21  1  0
 24 23  1  6
 24 25  1  0
 25 18  1  0
 26 28  1  0
 26 24  1  0
 27 26  2  0
M  END
$$$$
