DRL.pdb
     RDKit          3D

 28 27  0  0  1  0  0  0  0  0999 V2000
    6.6483  -15.6357   18.8224 N   0  0  0  0  0  0  0  0  0  0  0  0
    7.6619  -15.2397   19.7790 C   0  0  1  0  0  0  0  0  0  0  0  0
    8.0337  -13.7808   19.6289 C   0  0  0  0  0  0  0  0  0  0  0  0
    8.7300  -13.5093   18.3628 C   0  0  0  0  0  0  0  0  0  0  0  0
    9.5314  -14.3663   17.9121 O   0  0  0  0  0  0  0  0  0  0  0  0
    7.2330  -15.4980   21.1789 C   0  0  0  0  0  0  0  0  0  0  0  0
    6.2734  -14.8311   21.6140 O   0  0  0  0  0  0  0  0  0  0  0  0
    8.4870  -12.3249   17.7038 O   0  0  0  0  0  0  0  0  0  0  0  0
    9.3492  -20.4055   27.1232 N   0  0  0  0  0  0  0  0  0  0  0  0
    8.0097  -20.4505   27.6035 C   0  0  0  0  0  0  0  0  0  0  0  0
    7.7083  -20.6618   28.8419 N   0  0  0  0  0  0  0  0  0  0  0  0
    6.9192  -20.2567   26.7008 N   0  0  0  0  0  0  0  0  0  0  0  0
    7.2233  -20.1582   25.2595 C   0  0  0  0  0  0  0  0  0  0  0  0
    7.2815  -18.6697   24.9440 C   0  0  0  0  0  0  0  0  0  0  0  0
    7.5766  -18.3511   23.5297 C   0  0  0  0  0  0  0  0  0  0  0  0
    7.5809  -16.8697   23.2722 C   0  0  2  0  0  0  0  0  0  0  0  0
    7.9108  -16.4636   21.9426 N   0  0  0  0  0  0  0  0  0  0  0  0
    8.2810  -16.0914   24.3192 C   0  0  0  0  0  0  0  0  0  0  0  0
    9.5434  -16.0310   24.2492 O   0  0  0  0  0  0  0  0  0  0  0  0
    6.6822  -20.7510   29.0601 C   0  0  0  0  0  0  0  0  0  0  0  0
    5.4977  -12.2433   27.4109 C   0  0  2  0  0  0  0  0  0  0  0  0
    6.4539  -12.9003   26.3701 C   0  0  0  0  0  0  0  0  0  0  0  0
    7.0651  -11.7364   25.5910 C   0  0  0  0  0  0  0  0  0  0  0  0
    7.4223  -13.7537   27.0897 C   0  0  2  0  0  0  0  0  0  0  0  0
    8.3664  -14.6124   26.3608 N   0  0  0  0  0  0  0  0  0  0  0  0
    7.6367  -15.4260   25.3698 C   0  0  0  0  0  0  0  0  0  0  0  0
    9.2651  -15.5050   27.0669 O   0  0  0  0  0  0  0  0  0  0  0  0
    9.1876  -16.7570   27.1081 O   0  0  0  0  0  0  0  0  0  0  0  0
  2  1  1  6
  2  3  1  0
  3  4  1  0
  4  5  2  0
  4  8  1  0
  6  7  2  0
  6  2  1  0
  9 10  1  0
 10 12  1  0
 11 10  2  0
 12 13  1  0
 14 13  1  0
 14 15  1  0
 16 15  1  6
 16 17  1  0
 17  6  1  0
 18 16  1  0
 19 18  2  0
 21 20  1  6
 21 22  1  0
 23 21  1  0
 24 23  1  6
 24 25  1  0
 25 18  1  0
 26 28  1  0
 26 24  1  0
 27 26  2  0
M  END
$$$$
