KQM.pdb
     RDKit          3D

 27 26  0  0  1  0  0  0  0  0999 V2000
   11.0022  -13.8347   18.9794 N   0  0  0  0  0  0  0  0  0  0  0  0
    9.6848  -13.5720   19.4078 C   0  0  1  0  0  0  0  0  0  0  0  0
    8.6510  -13.2953   18.3689 C   0  0  0  0  0  0  0  0  0  0  0  0
    8.5909  -14.1920   17.2027 C   0  0  0  0  0  0  0  0  0  0  0  0
    7.8641  -13.7567   15.9936 C   0  0  0  0  0  0  0  0  0  0  0  0
    7.8273  -14.7181   14.8555 C   0  0  0  0  0  0  0  0  0  0  0  0
    7.2265  -14.1154   13.7021 N   0  0  0  0  0  0  0  0  0  0  0  0
    9.1760  -14.5410   20.4435 C   0  0  0  0  0  0  0  0  0  0  0  0
    8.0562  -14.2744   20.9672 O   0  0  0  0  0  0  0  0  0  0  0  0
    7.6381  -19.0581   19.3189 N   0  0  0  0  0  0  0  0  0  0  0  0
    8.3047  -19.0698   20.5638 C   0  0  0  0  0  0  0  0  0  0  0  0
    7.7302  -19.3668   21.6413 O   0  0  0  0  0  0  0  0  0  0  0  0
    9.7648  -18.7169   20.6398 C   0  0  0  0  0  0  0  0  0  0  0  0
   10.0580  -17.8882   21.8442 C   0  0  0  0  0  0  0  0  0  0  0  0
    9.3003  -16.5837   21.9097 C   0  0  2  0  0  0  0  0  0  0  0  0
    9.8411  -15.6916   20.8596 N   0  0  0  0  0  0  0  0  0  0  0  0
    9.4833  -15.9595   23.2312 C   0  0  0  0  0  0  0  0  0  0  0  0
   10.6430  -15.5192   23.5421 O   0  0  0  0  0  0  0  0  0  0  0  0
    6.4924  -10.9826   26.4372 C   0  0  0  0  0  0  0  0  0  0  0  0
    6.3447  -12.4631   27.4753 S   0  0  0  0  0  0  0  0  0  0  0  0
    7.7489  -13.5964   27.1782 C   0  0  0  0  0  0  0  0  0  0  0  0
    7.6405  -14.2214   25.8304 C   0  0  0  0  0  0  0  0  0  0  0  0
    8.8122  -15.1222   25.5059 C   0  0  2  0  0  0  0  0  0  0  0  0
    8.4958  -15.7787   24.2221 N   0  0  0  0  0  0  0  0  0  0  0  0
    8.9382  -16.1378   26.5644 C   0  0  0  0  0  0  0  0  0  0  0  0
    8.5130  -17.3010   26.3479 O   0  0  0  0  0  0  0  0  0  0  0  0
    9.5003  -15.9264   27.8143 O   0  0  0  0  0  0  0  0  0  0  0  0
  2  3  1  0
  2  1  1  6
  4  5  1  0
  4  3  1  0
  6  5  1  0
  7  6  1  0
  8  9  2  0
  8  2  1  0
 10 11  1  0
 11 12  2  0
 13 14  1  0
 13 11  1  0
 15 14  1  1
 15 16  1  0
 16  8  1  0
 17 24  1  0
 17 15  1  0
 18 17  2  0
 19 20  1  0
 20 21  1  0
 21 22  1  0
 23 22  1  1
 23 24  1  0
 23 25  1  0
 25 27  1  0
 26 25  2  0
M  END
$$$$
