KQM.pdb
     RDKit          3D

 27 26  0  0  1  0  0  0  0  0999 V2000
    5.7017  -18.0404   19.8961 N   0  0  0  0  0  0  0  0  0  0  0  0
    6.6274  -17.2870   20.6466 C   0  0  1  0  0  0  0  0  0  0  0  0
    6.8507  -15.8636   20.2609 C   0  0  0  0  0  0  0  0  0  0  0  0
    7.3680  -15.5902   18.9099 C   0  0  0  0  0  0  0  0  0  0  0  0
    7.6138  -14.1935   18.4996 C   0  0  0  0  0  0  0  0  0  0  0  0
    8.0022  -13.9749   17.0775 C   0  0  0  0  0  0  0  0  0  0  0  0
    8.2763  -12.5892   16.8342 N   0  0  0  0  0  0  0  0  0  0  0  0
    6.4651  -17.4323   22.1376 C   0  0  0  0  0  0  0  0  0  0  0  0
    5.3025  -17.2515   22.6014 O   0  0  0  0  0  0  0  0  0  0  0  0
    7.9101  -21.5616   26.1429 N   0  0  0  0  0  0  0  0  0  0  0  0
    7.8481  -20.4850   27.0547 C   0  0  0  0  0  0  0  0  0  0  0  0
    7.7947  -20.6489   28.2995 O   0  0  0  0  0  0  0  0  0  0  0  0
    7.8440  -19.0686   26.5487 C   0  0  0  0  0  0  0  0  0  0  0  0
    7.7497  -19.0269   25.0612 C   0  0  0  0  0  0  0  0  0  0  0  0
    7.3039  -17.6994   24.4963 C   0  0  2  0  0  0  0  0  0  0  0  0
    7.4887  -17.7459   23.0283 N   0  0  0  0  0  0  0  0  0  0  0  0
    8.1182  -16.6106   25.0628 C   0  0  0  0  0  0  0  0  0  0  0  0
    9.3315  -16.4923   24.6764 O   0  0  0  0  0  0  0  0  0  0  0  0
    6.9448  -10.3952   27.6690 C   0  0  0  0  0  0  0  0  0  0  0  0
    5.9994  -11.4528   26.5380 S   0  0  0  0  0  0  0  0  0  0  0  0
    7.0530  -12.7995   25.8894 C   0  0  0  0  0  0  0  0  0  0  0  0
    7.7879  -13.4692   26.9987 C   0  0  0  0  0  0  0  0  0  0  0  0
    8.6347  -14.6300   26.5244 C   0  0  2  0  0  0  0  0  0  0  0  0
    7.7004  -15.6488   26.0063 N   0  0  0  0  0  0  0  0  0  0  0  0
    9.3777  -15.1764   27.6719 C   0  0  0  0  0  0  0  0  0  0  0  0
    8.9705  -16.2349   28.2145 O   0  0  0  0  0  0  0  0  0  0  0  0
   10.5195  -14.6179   28.2260 O   0  0  0  0  0  0  0  0  0  0  0  0
  2  3  1  0
  2  1  1  6
  4  5  1  0
  4  3  1  0
  6  5  1  0
  7  6  1  0
  8  9  2  0
  8  2  1  0
 10 11  1  0
 11 12  2  0
 13 14  1  0
 13 11  1  0
 15 14  1  1
 15 16  1  0
 16  8  1  0
 17 24  1  0
 17 15  1  0
 18 17  2  0
 19 20  1  0
 20 21  1  0
 21 22  1  0
 23 22  1  1
 23 24  1  0
 23 25  1  0
 25 27  1  0
 26 25  2  0
M  END
$$$$
