KQM.pdb
     RDKit          3D

 27 26  0  0  1  0  0  0  0  0999 V2000
    7.0233  -17.7595   21.0747 N   0  0  0  0  0  0  0  0  0  0  0  0
    8.2488  -17.0731   21.1976 C   0  0  1  0  0  0  0  0  0  0  0  0
    8.2352  -15.5862   21.0810 C   0  0  0  0  0  0  0  0  0  0  0  0
    7.7474  -14.9995   19.8218 C   0  0  0  0  0  0  0  0  0  0  0  0
    7.7016  -13.5308   19.6793 C   0  0  0  0  0  0  0  0  0  0  0  0
    7.0957  -13.0013   18.4249 C   0  0  0  0  0  0  0  0  0  0  0  0
    7.0312  -11.5697   18.4583 N   0  0  0  0  0  0  0  0  0  0  0  0
    9.0854  -17.5239   22.3670 C   0  0  0  0  0  0  0  0  0  0  0  0
    8.5149  -18.2622   23.2206 O   0  0  0  0  0  0  0  0  0  0  0  0
   14.7369  -19.0799   24.3232 N   0  0  0  0  0  0  0  0  0  0  0  0
   14.3018  -19.2818   22.9950 C   0  0  0  0  0  0  0  0  0  0  0  0
   14.8255  -20.1282   22.2278 O   0  0  0  0  0  0  0  0  0  0  0  0
   13.1653  -18.4661   22.4424 C   0  0  0  0  0  0  0  0  0  0  0  0
   12.6493  -17.5024   23.4564 C   0  0  0  0  0  0  0  0  0  0  0  0
   11.1772  -17.6401   23.7630 C   0  0  2  0  0  0  0  0  0  0  0  0
   10.4217  -17.1900   22.5723 N   0  0  0  0  0  0  0  0  0  0  0  0
   10.8219  -16.8010   24.9202 C   0  0  0  0  0  0  0  0  0  0  0  0
   11.4174  -17.0122   26.0321 O   0  0  0  0  0  0  0  0  0  0  0  0
    7.0188  -11.1762   25.7641 C   0  0  0  0  0  0  0  0  0  0  0  0
    6.3435  -12.5387   26.7537 S   0  0  0  0  0  0  0  0  0  0  0  0
    7.6630  -13.7260   27.1936 C   0  0  0  0  0  0  0  0  0  0  0  0
    8.1895  -14.3986   25.9731 C   0  0  0  0  0  0  0  0  0  0  0  0
    9.5264  -15.0688   26.2036 C   0  0  2  0  0  0  0  0  0  0  0  0
    9.8767  -15.7542   24.9439 N   0  0  0  0  0  0  0  0  0  0  0  0
    9.3817  -16.0592   27.2833 C   0  0  0  0  0  0  0  0  0  0  0  0
    9.3929  -15.6662   28.4775 O   0  0  0  0  0  0  0  0  0  0  0  0
    9.2278  -17.4253   27.1016 O   0  0  0  0  0  0  0  0  0  0  0  0
  2  3  1  0
  2  1  1  1
  4  5  1  0
  4  3  1  0
  6  5  1  0
  7  6  1  0
  8  9  2  0
  8  2  1  0
 10 11  1  0
 11 12  2  0
 13 14  1  0
 13 11  1  0
 15 14  1  6
 15 16  1  0
 16  8  1  0
 17 24  1  0
 17 15  1  0
 18 17  2  0
 19 20  1  0
 20 21  1  0
 21 22  1  0
 23 22  1  6
 23 24  1  0
 23 25  1  0
 25 27  1  0
 26 25  2  0
M  END
$$$$
