KQM.pdb
     RDKit          3D

 27 26  0  0  1  0  0  0  0  0999 V2000
    6.5157  -16.3666   20.4333 N   0  0  0  0  0  0  0  0  0  0  0  0
    7.7278  -15.8165   20.8983 C   0  0  1  0  0  0  0  0  0  0  0  0
    7.8893  -14.3345   20.8525 C   0  0  0  0  0  0  0  0  0  0  0  0
    7.6336  -13.6541   19.5720 C   0  0  0  0  0  0  0  0  0  0  0  0
    8.7257  -13.5372   18.5856 C   0  0  0  0  0  0  0  0  0  0  0  0
    8.3812  -12.9032   17.2816 C   0  0  0  0  0  0  0  0  0  0  0  0
    9.5366  -12.8205   16.4373 N   0  0  0  0  0  0  0  0  0  0  0  0
    8.1841  -16.3773   22.2204 C   0  0  0  0  0  0  0  0  0  0  0  0
    7.3270  -16.4063   23.1498 O   0  0  0  0  0  0  0  0  0  0  0  0
   12.8715  -20.9793   24.9684 N   0  0  0  0  0  0  0  0  0  0  0  0
   12.8799  -19.6056   24.6411 C   0  0  0  0  0  0  0  0  0  0  0  0
   13.8733  -19.0344   24.1252 O   0  0  0  0  0  0  0  0  0  0  0  0
   11.6648  -18.7603   24.9076 C   0  0  0  0  0  0  0  0  0  0  0  0
   11.0968  -18.2165   23.6408 C   0  0  0  0  0  0  0  0  0  0  0  0
    9.8512  -17.3814   23.8175 C   0  0  2  0  0  0  0  0  0  0  0  0
    9.4634  -16.8580   22.4882 N   0  0  0  0  0  0  0  0  0  0  0  0
   10.1219  -16.2583   24.7312 C   0  0  0  0  0  0  0  0  0  0  0  0
   10.8629  -15.3014   24.3182 O   0  0  0  0  0  0  0  0  0  0  0  0
    6.3938  -12.1916   25.9627 C   0  0  0  0  0  0  0  0  0  0  0  0
    7.7213  -11.4548   26.9558 S   0  0  0  0  0  0  0  0  0  0  0  0
    8.8843  -12.7448   27.5282 C   0  0  0  0  0  0  0  0  0  0  0  0
    8.7710  -13.9646   26.6807 C   0  0  0  0  0  0  0  0  0  0  0  0
    9.9476  -14.9021   26.8422 C   0  0  2  0  0  0  0  0  0  0  0  0
    9.6381  -16.1072   26.0476 N   0  0  0  0  0  0  0  0  0  0  0  0
   10.0748  -15.2646   28.2635 C   0  0  0  0  0  0  0  0  0  0  0  0
    9.7750  -16.4308   28.6252 O   0  0  0  0  0  0  0  0  0  0  0  0
   10.5088  -14.4160   29.2707 O   0  0  0  0  0  0  0  0  0  0  0  0
  2  3  1  0
  2  1  1  1
  4  5  1  0
  4  3  1  0
  6  5  1  0
  7  6  1  0
  8  9  2  0
  8  2  1  0
 10 11  1  0
 11 12  2  0
 13 14  1  0
 13 11  1  0
 15 14  1  6
 15 16  1  0
 16  8  1  0
 17 24  1  0
 17 15  1  0
 18 17  2  0
 19 20  1  0
 20 21  1  0
 21 22  1  0
 23 22  1  1
 23 24  1  0
 23 25  1  0
 25 27  1  0
 26 25  2  0
M  END
$$$$
