WRM.pdb
     RDKit          3D

 34 35  0  0  1  0  0  0  0  0999 V2000
   25.5631  -20.8356  -16.7731 N   0  0  0  0  0  0  0  0  0  0  0  0
   26.0648  -20.1329  -15.6092 C   0  0  1  0  0  0  0  0  0  0  0  0
   25.0955  -19.0692  -15.1415 C   0  0  0  0  0  0  0  0  0  0  0  0
   24.9377  -17.9869  -16.1364 C   0  0  0  0  0  0  0  0  0  0  0  0
   23.8350  -17.7214  -16.8897 C   0  0  0  0  0  0  0  0  0  0  0  0
   24.1074  -16.6598  -17.6624 N   0  0  0  0  0  0  0  0  0  0  0  0
   25.3617  -16.2454  -17.4151 C   0  0  0  0  0  0  0  0  0  0  0  0
   26.1081  -15.1981  -17.9512 C   0  0  0  0  0  0  0  0  0  0  0  0
   27.3943  -15.0094  -17.4986 C   0  0  0  0  0  0  0  0  0  0  0  0
   27.9585  -15.8216  -16.5378 C   0  0  0  0  0  0  0  0  0  0  0  0
   27.2117  -16.8489  -16.0190 C   0  0  0  0  0  0  0  0  0  0  0  0
   25.9193  -17.0645  -16.4518 C   0  0  0  0  0  0  0  0  0  0  0  0
   26.3108  -21.0512  -14.4748 C   0  0  0  0  0  0  0  0  0  0  0  0
   25.4708  -21.9474  -14.2414 O   0  0  0  0  0  0  0  0  0  0  0  0
   32.5403  -22.9082   -9.0617 N   0  0  0  0  0  0  0  0  0  0  0  0
   32.1342  -22.6003  -10.4066 C   0  0  0  0  0  0  0  0  0  0  0  0
   32.8189  -23.0265  -11.4107 N   0  0  0  0  0  0  0  0  0  0  0  0
   30.9777  -21.8261  -10.6750 N   0  0  0  0  0  0  0  0  0  0  0  0
   29.9802  -21.5395   -9.6925 C   0  0  0  0  0  0  0  0  0  0  0  0
   28.8457  -20.6713  -10.2221 C   0  0  0  0  0  0  0  0  0  0  0  0
   28.8545  -20.8477  -11.7263 C   0  0  0  0  0  0  0  0  0  0  0  0
   27.5129  -21.2949  -12.2549 C   0  0  2  0  0  0  0  0  0  0  0  0
   27.4585  -20.9333  -13.6673 N   0  0  0  0  0  0  0  0  0  0  0  0
   26.3712  -20.6620  -11.5206 C   0  0  0  0  0  0  0  0  0  0  0  0
   26.2882  -19.4269  -11.5268 O   0  0  0  0  0  0  0  0  0  0  0  0
   32.5531  -22.8191  -12.3827 C   0  0  0  0  0  0  0  0  0  0  0  0
   20.5786  -22.1251  -11.9316 S   0  0  0  0  0  0  0  0  0  0  0  0
   20.2635  -21.3470  -10.3234 C   0  0  0  0  0  0  0  0  0  0  0  0
   21.8588  -20.7500   -9.6901 C   0  0  0  0  0  0  0  0  0  0  0  0
   23.0052  -21.2567  -10.4981 C   0  0  1  0  0  0  0  0  0  0  0  0
   24.3502  -20.8295  -10.0157 N   0  0  0  0  0  0  0  0  0  0  0  0
   25.3969  -21.4078  -10.8298 C   0  0  0  0  0  0  0  0  0  0  0  0
   24.5636  -21.0991   -8.5730 O   0  0  0  0  0  0  0  0  0  0  0  0
   23.8172  -20.4402   -7.5751 O   0  0  0  0  0  0  0  0  0  0  0  0
  2  1  1  6
  2  3  1  0
  3  4  1  0
  4  5  2  0
  5  6  1  0
  7  6  1  0
  8  7  2  0
  9  8  1  0
 10 11  1  0
 10  9  2  0
 11 12  2  0
 12  4  1  0
 12  7  1  0
 13  2  1  0
 13 23  1  0
 14 13  2  0
 16 15  1  0
 17 16  2  0
 18 16  1  0
 19 18  1  0
 20 19  1  0
 20 21  1  0
 22 21  1  1
 22 24  1  0
 22 23  1  0
 24 31  1  0
 25 24  2  0
 27 28  1  0
 27 26  1  0
 29 28  1  0
 30 29  1  6
 31 30  1  0
 32 33  1  0
 32 30  1  0
 34 32  2  0
M  END
$$$$
