WRM.pdb
     RDKit          3D

 34 35  0  0  1  0  0  0  0  0999 V2000
   27.5508  -21.7213  -16.0148 N   0  0  0  0  0  0  0  0  0  0  0  0
   26.5824  -21.8154  -14.9408 C   0  0  1  0  0  0  0  0  0  0  0  0
   26.4714  -20.5140  -14.1768 C   0  0  0  0  0  0  0  0  0  0  0  0
   27.7540  -20.1274  -13.5509 C   0  0  0  0  0  0  0  0  0  0  0  0
   28.6807  -19.2633  -14.0491 C   0  0  0  0  0  0  0  0  0  0  0  0
   29.6942  -19.1934  -13.1737 N   0  0  0  0  0  0  0  0  0  0  0  0
   29.4297  -19.9961  -12.1289 C   0  0  0  0  0  0  0  0  0  0  0  0
   30.1569  -20.2731  -10.9731 C   0  0  0  0  0  0  0  0  0  0  0  0
   29.6273  -21.1562  -10.0598 C   0  0  0  0  0  0  0  0  0  0  0  0
   28.4075  -21.7684  -10.2562 C   0  0  0  0  0  0  0  0  0  0  0  0
   27.7027  -21.4861  -11.3989 C   0  0  0  0  0  0  0  0  0  0  0  0
   28.2064  -20.6053  -12.3340 C   0  0  0  0  0  0  0  0  0  0  0  0
   25.2339  -22.1614  -15.4435 C   0  0  0  0  0  0  0  0  0  0  0  0
   24.7706  -21.5075  -16.4033 O   0  0  0  0  0  0  0  0  0  0  0  0
   26.6905  -26.7244  -16.4856 N   0  0  0  0  0  0  0  0  0  0  0  0
   25.6379  -27.6516  -16.8030 C   0  0  0  0  0  0  0  0  0  0  0  0
   25.5058  -28.7451  -16.1356 N   0  0  0  0  0  0  0  0  0  0  0  0
   24.7159  -27.3996  -17.8497 N   0  0  0  0  0  0  0  0  0  0  0  0
   23.7552  -26.3422  -17.8110 C   0  0  0  0  0  0  0  0  0  0  0  0
   24.2210  -25.1349  -17.0066 C   0  0  0  0  0  0  0  0  0  0  0  0
   23.2691  -25.0243  -15.8338 C   0  0  0  0  0  0  0  0  0  0  0  0
   23.1535  -23.6071  -15.3262 C   0  0  2  0  0  0  0  0  0  0  0  0
   24.4770  -23.1995  -14.8669 N   0  0  0  0  0  0  0  0  0  0  0  0
   22.1633  -23.4807  -14.2096 C   0  0  0  0  0  0  0  0  0  0  0  0
   22.3867  -24.0988  -13.1606 O   0  0  0  0  0  0  0  0  0  0  0  0
   24.8055  -29.4569  -16.3833 C   0  0  0  0  0  0  0  0  0  0  0  0
   22.3336  -21.6635  -10.3679 S   0  0  0  0  0  0  0  0  0  0  0  0
   22.2534  -19.8669  -10.6060 C   0  0  0  0  0  0  0  0  0  0  0  0
   21.5492  -19.5711  -12.2550 C   0  0  0  0  0  0  0  0  0  0  0  0
   21.8089  -20.7077  -13.1850 C   0  0  1  0  0  0  0  0  0  0  0  0
   20.6549  -21.6310  -13.3848 N   0  0  0  0  0  0  0  0  0  0  0  0
   20.9991  -22.6943  -14.3033 C   0  0  0  0  0  0  0  0  0  0  0  0
   19.4136  -20.9306  -13.7952 O   0  0  0  0  0  0  0  0  0  0  0  0
   18.4286  -20.5539  -12.8598 O   0  0  0  0  0  0  0  0  0  0  0  0
  2  1  1  6
  2  3  1  0
  3  4  1  0
  4  5  2  0
  5  6  1  0
  7  6  1  0
  8  7  2  0
  9  8  1  0
 10 11  1  0
 10  9  2  0
 11 12  2  0
 12  4  1  0
 12  7  1  0
 13  2  1  0
 13 23  1  0
 14 13  2  0
 16 15  1  0
 17 16  2  0
 18 16  1  0
 19 18  1  0
 20 19  1  0
 20 21  1  0
 22 21  1  1
 22 24  1  0
 22 23  1  0
 24 31  1  0
 25 24  2  0
 27 28  1  0
 27 26  1  0
 29 28  1  0
 30 29  1  1
 31 30  1  0
 32 33  1  0
 32 30  1  0
 34 32  2  0
M  END
$$$$
