WRM.pdb
     RDKit          3D

 34 35  0  0  1  0  0  0  0  0999 V2000
   14.6188  -11.7929  -11.0385 N   0  0  0  0  0  0  0  0  0  0  0  0
   13.9663  -10.5340  -10.7395 C   0  0  1  0  0  0  0  0  0  0  0  0
   13.1512  -10.6187   -9.4674 C   0  0  0  0  0  0  0  0  0  0  0  0
   11.9636  -11.4850   -9.6266 C   0  0  0  0  0  0  0  0  0  0  0  0
   11.7105  -12.6551   -8.9782 C   0  0  0  0  0  0  0  0  0  0  0  0
   10.5300  -13.1213   -9.4111 N   0  0  0  0  0  0  0  0  0  0  0  0
   10.0278  -12.2704  -10.3220 C   0  0  0  0  0  0  0  0  0  0  0  0
    8.8457  -12.3025  -11.0589 C   0  0  0  0  0  0  0  0  0  0  0  0
    8.5910  -11.2734  -11.9368 C   0  0  0  0  0  0  0  0  0  0  0  0
    9.4663  -10.2214  -12.1050 C   0  0  0  0  0  0  0  0  0  0  0  0
   10.6264  -10.2032  -11.3727 C   0  0  0  0  0  0  0  0  0  0  0  0
   10.9110  -11.2199  -10.4843 C   0  0  0  0  0  0  0  0  0  0  0  0
   14.9417   -9.4322  -10.5793 C   0  0  0  0  0  0  0  0  0  0  0  0
   15.9918   -9.6553   -9.9383 O   0  0  0  0  0  0  0  0  0  0  0  0
   21.4384   -6.5005  -12.3765 N   0  0  0  0  0  0  0  0  0  0  0  0
   20.8866   -5.1762  -12.4763 C   0  0  0  0  0  0  0  0  0  0  0  0
   21.6584   -4.1542  -12.6120 N   0  0  0  0  0  0  0  0  0  0  0  0
   19.4884   -4.9481  -12.4308 N   0  0  0  0  0  0  0  0  0  0  0  0
   18.5222   -6.0010  -12.4094 C   0  0  0  0  0  0  0  0  0  0  0  0
   17.0866   -5.4986  -12.3190 C   0  0  0  0  0  0  0  0  0  0  0  0
   16.2119   -6.7350  -12.3307 C   0  0  0  0  0  0  0  0  0  0  0  0
   15.6072   -7.0174  -10.9764 C   0  0  2  0  0  0  0  0  0  0  0  0
   14.7091   -8.1569  -11.1294 N   0  0  0  0  0  0  0  0  0  0  0  0
   14.8546   -5.8425  -10.4321 C   0  0  0  0  0  0  0  0  0  0  0  0
   14.0285   -5.2882  -11.1688 O   0  0  0  0  0  0  0  0  0  0  0  0
   21.2936   -3.1930  -12.6485 C   0  0  0  0  0  0  0  0  0  0  0  0
   12.7437   -1.8540   -3.9463 S   0  0  0  0  0  0  0  0  0  0  0  0
   13.6399   -3.2832   -4.6134 C   0  0  0  0  0  0  0  0  0  0  0  0
   13.6885   -3.0953   -6.4203 C   0  0  0  0  0  0  0  0  0  0  0  0
   14.3197   -4.2706   -7.0870 C   0  0  1  0  0  0  0  0  0  0  0  0
   14.3495   -4.2056   -8.5767 N   0  0  0  0  0  0  0  0  0  0  0  0
   15.0464   -5.3471   -9.1281 C   0  0  0  0  0  0  0  0  0  0  0  0
   14.8952   -2.9266   -9.0925 O   0  0  0  0  0  0  0  0  0  0  0  0
   16.2821   -2.7035   -9.2099 O   0  0  0  0  0  0  0  0  0  0  0  0
  2  1  1  1
  2  3  1  0
  3  4  1  0
  4  5  2  0
  5  6  1  0
  7  6  1  0
  8  7  2  0
  9  8  1  0
 10 11  1  0
 10  9  2  0
 11 12  2  0
 12  4  1  0
 12  7  1  0
 13  2  1  0
 13 23  1  0
 14 13  2  0
 16 15  1  0
 17 16  2  0
 18 16  1  0
 19 18  1  0
 20 19  1  0
 20 21  1  0
 22 21  1  6
 22 24  1  0
 22 23  1  0
 24 31  1  0
 25 24  2  0
 27 28  1  0
 27 26  1  0
 29 28  1  0
 30 29  1  6
 31 30  1  0
 32 33  1  0
 32 30  1  0
 34 32  2  0
M  END
$$$$
