WRM.pdb
     RDKit          3D

 34 35  0  0  1  0  0  0  0  0999 V2000
   26.0589  -19.6100  -11.7182 N   0  0  0  0  0  0  0  0  0  0  0  0
   26.1597  -21.0538  -11.7910 C   0  0  1  0  0  0  0  0  0  0  0  0
   25.8887  -21.6983  -10.4490 C   0  0  0  0  0  0  0  0  0  0  0  0
   26.3967  -20.8790   -9.3279 C   0  0  0  0  0  0  0  0  0  0  0  0
   25.6777  -20.0315   -8.5414 C   0  0  0  0  0  0  0  0  0  0  0  0
   26.5149  -19.4862   -7.6470 N   0  0  0  0  0  0  0  0  0  0  0  0
   27.7520  -19.9705   -7.8496 C   0  0  0  0  0  0  0  0  0  0  0  0
   28.9572  -19.7205   -7.1966 C   0  0  0  0  0  0  0  0  0  0  0  0
   30.0880  -20.3733   -7.6323 C   0  0  0  0  0  0  0  0  0  0  0  0
   30.0601  -21.2599   -8.6880 C   0  0  0  0  0  0  0  0  0  0  0  0
   28.8663  -21.4962   -9.3214 C   0  0  0  0  0  0  0  0  0  0  0  0
   27.7149  -20.8575   -8.9087 C   0  0  0  0  0  0  0  0  0  0  0  0
   25.2051  -21.6243  -12.7678 C   0  0  0  0  0  0  0  0  0  0  0  0
   24.1583  -20.9881  -13.0184 O   0  0  0  0  0  0  0  0  0  0  0  0
   23.3132  -26.4004  -18.8139 N   0  0  0  0  0  0  0  0  0  0  0  0
   24.6958  -26.1721  -19.1374 C   0  0  0  0  0  0  0  0  0  0  0  0
   25.0587  -25.9770  -20.3576 N   0  0  0  0  0  0  0  0  0  0  0  0
   25.6998  -26.1525  -18.1372 N   0  0  0  0  0  0  0  0  0  0  0  0
   25.4238  -26.3225  -16.7452 C   0  0  0  0  0  0  0  0  0  0  0  0
   24.5281  -25.2315  -16.1717 C   0  0  0  0  0  0  0  0  0  0  0  0
   25.3499  -24.5359  -15.1065 C   0  0  0  0  0  0  0  0  0  0  0  0
   24.5626  -23.4669  -14.3876 C   0  0  2  0  0  0  0  0  0  0  0  0
   25.4541  -22.8528  -13.4095 N   0  0  0  0  0  0  0  0  0  0  0  0
   23.3506  -24.0167  -13.7007 C   0  0  0  0  0  0  0  0  0  0  0  0
   23.3938  -24.1629  -12.4722 O   0  0  0  0  0  0  0  0  0  0  0  0
   26.0439  -25.8416  -20.6212 C   0  0  0  0  0  0  0  0  0  0  0  0
   17.1762  -21.0541  -11.4960 S   0  0  0  0  0  0  0  0  0  0  0  0
   18.8860  -21.1212  -12.0983 C   0  0  0  0  0  0  0  0  0  0  0  0
   19.1868  -22.8153  -12.6834 C   0  0  0  0  0  0  0  0  0  0  0  0
   20.5428  -22.9653  -13.2858 C   0  0  1  0  0  0  0  0  0  0  0  0
   20.8469  -24.3260  -13.8153 N   0  0  0  0  0  0  0  0  0  0  0  0
   22.1743  -24.3705  -14.3889 C   0  0  0  0  0  0  0  0  0  0  0  0
   19.8212  -24.8239  -14.7639 O   0  0  0  0  0  0  0  0  0  0  0  0
   19.9388  -24.6303  -16.1552 O   0  0  0  0  0  0  0  0  0  0  0  0
  2  1  1  1
  2  3  1  0
  3  4  1  0
  4  5  2  0
  5  6  1  0
  7  6  1  0
  8  7  2  0
  9  8  1  0
 10 11  1  0
 10  9  2  0
 11 12  2  0
 12  4  1  0
 12  7  1  0
 13  2  1  0
 13 23  1  0
 14 13  2  0
 16 15  1  0
 17 16  2  0
 18 16  1  0
 19 18  1  0
 20 19  1  0
 20 21  1  0
 22 21  1  1
 22 24  1  0
 22 23  1  0
 24 31  1  0
 25 24  2  0
 27 28  1  0
 27 26  1  0
 29 28  1  0
 30 29  1  1
 31 30  1  0
 32 33  1  0
 32 30  1  0
 34 32  2  0
M  END
$$$$
