WRM.pdb
     RDKit          3D

 34 35  0  0  1  0  0  0  0  0999 V2000
   18.8300  -21.0612  -14.5793 N   0  0  0  0  0  0  0  0  0  0  0  0
   19.8382  -20.0230  -14.5024 C   0  0  1  0  0  0  0  0  0  0  0  0
   19.8381  -19.3473  -13.1484 C   0  0  0  0  0  0  0  0  0  0  0  0
   18.5637  -18.6479  -12.8780 C   0  0  0  0  0  0  0  0  0  0  0  0
   18.1193  -17.5009  -13.4615 C   0  0  0  0  0  0  0  0  0  0  0  0
   16.9219  -17.2055  -12.9346 N   0  0  0  0  0  0  0  0  0  0  0  0
   16.5968  -18.1423  -12.0276 C   0  0  0  0  0  0  0  0  0  0  0  0
   15.4743  -18.2869  -11.2149 C   0  0  0  0  0  0  0  0  0  0  0  0
   15.4143  -19.3671  -10.3640 C   0  0  0  0  0  0  0  0  0  0  0  0
   16.4260  -20.3014  -10.2950 C   0  0  0  0  0  0  0  0  0  0  0  0
   17.5252  -20.1461  -11.1012 C   0  0  0  0  0  0  0  0  0  0  0  0
   17.6156  -19.0739  -11.9650 C   0  0  0  0  0  0  0  0  0  0  0  0
   21.1979  -20.5565  -14.7416 C   0  0  0  0  0  0  0  0  0  0  0  0
   21.5939  -21.5131  -14.0407 O   0  0  0  0  0  0  0  0  0  0  0  0
   27.0597  -22.4686  -16.2447 N   0  0  0  0  0  0  0  0  0  0  0  0
   27.2964  -22.6668  -17.6494 C   0  0  0  0  0  0  0  0  0  0  0  0
   28.2866  -23.3858  -18.0510 N   0  0  0  0  0  0  0  0  0  0  0  0
   26.4582  -22.0859  -18.6337 N   0  0  0  0  0  0  0  0  0  0  0  0
   25.1864  -21.5051  -18.3374 C   0  0  0  0  0  0  0  0  0  0  0  0
   25.2892  -20.1662  -17.6176 C   0  0  0  0  0  0  0  0  0  0  0  0
   23.8709  -19.7804  -17.2525 C   0  0  0  0  0  0  0  0  0  0  0  0
   23.4080  -20.4504  -15.9812 C   0  0  2  0  0  0  0  0  0  0  0  0
   22.0390  -20.0122  -15.7313 N   0  0  0  0  0  0  0  0  0  0  0  0
   24.2759  -20.1101  -14.8090 C   0  0  0  0  0  0  0  0  0  0  0  0
   23.8474  -19.2911  -13.9856 O   0  0  0  0  0  0  0  0  0  0  0  0
   28.4421  -23.5974  -19.0457 C   0  0  0  0  0  0  0  0  0  0  0  0
   24.3914  -20.2210   -9.1594 S   0  0  0  0  0  0  0  0  0  0  0  0
   26.0723  -20.7963   -9.5261 C   0  0  0  0  0  0  0  0  0  0  0  0
   26.6058  -19.9682  -11.0532 C   0  0  0  0  0  0  0  0  0  0  0  0
   25.7573  -20.3474  -12.2196 C   0  0  2  0  0  0  0  0  0  0  0  0
   26.4503  -20.3051  -13.5395 N   0  0  0  0  0  0  0  0  0  0  0  0
   25.5481  -20.6787  -14.6070 C   0  0  0  0  0  0  0  0  0  0  0  0
   27.6975  -21.1071  -13.5679 O   0  0  0  0  0  0  0  0  0  0  0  0
   28.7988  -20.7985  -12.7440 O   0  0  0  0  0  0  0  0  0  0  0  0
  2  1  1  1
  2  3  1  0
  3  4  1  0
  4  5  2  0
  5  6  1  0
  7  6  1  0
  8  7  2  0
  9  8  1  0
 10 11  1  0
 10  9  2  0
 11 12  2  0
 12  4  1  0
 12  7  1  0
 13  2  1  0
 13 23  1  0
 14 13  2  0
 16 15  1  0
 17 16  2  0
 18 16  1  0
 19 18  1  0
 20 19  1  0
 20 21  1  0
 22 21  1  6
 22 24  1  0
 22 23  1  0
 24 31  1  0
 25 24  2  0
 27 28  1  0
 27 26  1  0
 29 28  1  0
 30 29  1  6
 31 30  1  0
 32 33  1  0
 32 30  1  0
 34 32  2  0
M  END
$$$$
