WRM.pdb
     RDKit          3D

 34 35  0  0  1  0  0  0  0  0999 V2000
   23.5251  -12.8095  -18.3555 N   0  0  0  0  0  0  0  0  0  0  0  0
   24.1437  -13.4302  -17.2013 C   0  0  1  0  0  0  0  0  0  0  0  0
   23.6401  -12.8261  -15.9086 C   0  0  0  0  0  0  0  0  0  0  0  0
   24.0473  -11.4123  -15.7617 C   0  0  0  0  0  0  0  0  0  0  0  0
   23.2304  -10.3410  -15.5653 C   0  0  0  0  0  0  0  0  0  0  0  0
   23.9979   -9.2441  -15.4865 N   0  0  0  0  0  0  0  0  0  0  0  0
   25.2866   -9.5973  -15.6289 C   0  0  0  0  0  0  0  0  0  0  0  0
   26.4554   -8.8387  -15.6246 C   0  0  0  0  0  0  0  0  0  0  0  0
   27.6583   -9.4847  -15.7986 C   0  0  0  0  0  0  0  0  0  0  0  0
   27.7369  -10.8499  -15.9754 C   0  0  0  0  0  0  0  0  0  0  0  0
   26.5779  -11.5840  -15.9775 C   0  0  0  0  0  0  0  0  0  0  0  0
   25.3561  -10.9662  -15.8057 C   0  0  0  0  0  0  0  0  0  0  0  0
   23.8823  -14.8862  -17.1523 C   0  0  0  0  0  0  0  0  0  0  0  0
   22.8190  -15.3171  -17.6495 O   0  0  0  0  0  0  0  0  0  0  0  0
   25.9455  -21.6806  -13.8492 N   0  0  0  0  0  0  0  0  0  0  0  0
   26.7181  -22.0919  -14.9903 C   0  0  0  0  0  0  0  0  0  0  0  0
   26.6847  -23.3133  -15.3974 N   0  0  0  0  0  0  0  0  0  0  0  0
   27.5356  -21.1791  -15.7027 N   0  0  0  0  0  0  0  0  0  0  0  0
   27.3466  -19.7629  -15.6656 C   0  0  0  0  0  0  0  0  0  0  0  0
   25.9560  -19.3294  -16.1126 C   0  0  0  0  0  0  0  0  0  0  0  0
   25.9829  -17.8155  -16.1453 C   0  0  0  0  0  0  0  0  0  0  0  0
   24.6616  -17.2320  -16.5848 C   0  0  2  0  0  0  0  0  0  0  0  0
   24.7984  -15.7796  -16.5642 N   0  0  0  0  0  0  0  0  0  0  0  0
   23.5300  -17.6518  -15.6980 C   0  0  0  0  0  0  0  0  0  0  0  0
   23.5262  -17.2472  -14.5281 O   0  0  0  0  0  0  0  0  0  0  0  0
   27.2657  -23.6467  -16.1782 C   0  0  0  0  0  0  0  0  0  0  0  0
   15.9899  -18.1078  -14.6937 S   0  0  0  0  0  0  0  0  0  0  0  0
   17.3834  -17.7583  -15.8014 C   0  0  0  0  0  0  0  0  0  0  0  0
   18.8547  -18.5481  -15.0847 C   0  0  0  0  0  0  0  0  0  0  0  0
   20.0985  -18.1865  -15.8239 C   0  0  1  0  0  0  0  0  0  0  0  0
   21.3384  -18.8507  -15.3283 N   0  0  0  0  0  0  0  0  0  0  0  0
   22.4794  -18.4802  -16.1368 C   0  0  0  0  0  0  0  0  0  0  0  0
   21.2027  -20.3230  -15.2109 O   0  0  0  0  0  0  0  0  0  0  0  0
   20.6339  -20.9287  -14.0723 O   0  0  0  0  0  0  0  0  0  0  0  0
  2  1  1  6
  2  3  1  0
  3  4  1  0
  4  5  2  0
  5  6  1  0
  7  6  1  0
  8  7  2  0
  9  8  1  0
 10 11  1  0
 10  9  2  0
 11 12  2  0
 12  4  1  0
 12  7  1  0
 13  2  1  0
 13 23  1  0
 14 13  2  0
 16 15  1  0
 17 16  2  0
 18 16  1  0
 19 18  1  0
 20 19  1  0
 20 21  1  0
 22 21  1  1
 22 24  1  0
 22 23  1  0
 24 31  1  0
 25 24  2  0
 27 28  1  0
 27 26  1  0
 29 28  1  0
 30 29  1  1
 31 30  1  0
 32 33  1  0
 32 30  1  0
 34 32  2  0
M  END
$$$$
