WRM.pdb
     RDKit          3D

 34 35  0  0  1  0  0  0  0  0999 V2000
   28.6181  -20.5501  -10.2092 N   0  0  0  0  0  0  0  0  0  0  0  0
   27.2496  -20.9434   -9.9401 C   0  0  1  0  0  0  0  0  0  0  0  0
   26.6697  -20.1750   -8.7726 C   0  0  0  0  0  0  0  0  0  0  0  0
   27.7047  -19.8047   -7.7837 C   0  0  0  0  0  0  0  0  0  0  0  0
   28.7452  -18.9465   -7.9696 C   0  0  0  0  0  0  0  0  0  0  0  0
   29.4458  -18.8918   -6.8274 N   0  0  0  0  0  0  0  0  0  0  0  0
   28.8710  -19.6985   -5.9192 C   0  0  0  0  0  0  0  0  0  0  0  0
   29.2112  -19.9897   -4.5998 C   0  0  0  0  0  0  0  0  0  0  0  0
   28.4230  -20.8734   -3.8981 C   0  0  0  0  0  0  0  0  0  0  0  0
   27.3159  -21.4725   -4.4607 C   0  0  0  0  0  0  0  0  0  0  0  0
   26.9930  -21.1763   -5.7608 C   0  0  0  0  0  0  0  0  0  0  0  0
   27.7631  -20.2946   -6.4912 C   0  0  0  0  0  0  0  0  0  0  0  0
   26.3714  -20.7191  -11.1102 C   0  0  0  0  0  0  0  0  0  0  0  0
   26.4192  -19.6105  -11.6865 O   0  0  0  0  0  0  0  0  0  0  0  0
   25.7859  -24.1450  -17.0617 N   0  0  0  0  0  0  0  0  0  0  0  0
   25.7684  -25.2328  -16.1210 C   0  0  0  0  0  0  0  0  0  0  0  0
   26.5488  -26.2453  -16.2769 N   0  0  0  0  0  0  0  0  0  0  0  0
   24.9023  -25.2313  -14.9990 N   0  0  0  0  0  0  0  0  0  0  0  0
   23.6401  -24.5609  -14.9833 C   0  0  0  0  0  0  0  0  0  0  0  0
   23.7458  -23.0877  -14.6094 C   0  0  0  0  0  0  0  0  0  0  0  0
   24.6184  -23.0341  -13.3727 C   0  0  0  0  0  0  0  0  0  0  0  0
   24.7367  -21.6342  -12.8197 C   0  0  2  0  0  0  0  0  0  0  0  0
   25.4972  -21.7193  -11.5775 N   0  0  0  0  0  0  0  0  0  0  0  0
   23.4006  -21.0094  -12.5595 C   0  0  0  0  0  0  0  0  0  0  0  0
   22.7661  -21.3847  -11.5650 O   0  0  0  0  0  0  0  0  0  0  0  0
   26.6385  -26.9827  -15.5651 C   0  0  0  0  0  0  0  0  0  0  0  0
   18.2419  -15.4377  -14.8742 S   0  0  0  0  0  0  0  0  0  0  0  0
   19.8355  -16.2410  -15.2000 C   0  0  0  0  0  0  0  0  0  0  0  0
   20.0266  -17.5764  -13.9823 C   0  0  0  0  0  0  0  0  0  0  0  0
   21.3562  -18.2434  -14.0892 C   0  0  1  0  0  0  0  0  0  0  0  0
   21.5468  -19.4115  -13.1818 N   0  0  0  0  0  0  0  0  0  0  0  0
   22.8417  -20.0212  -13.3924 C   0  0  0  0  0  0  0  0  0  0  0  0
   20.4497  -20.4052  -13.2742 O   0  0  0  0  0  0  0  0  0  0  0  0
   19.3321  -20.3609  -12.4163 O   0  0  0  0  0  0  0  0  0  0  0  0
  2  1  1  6
  2  3  1  0
  3  4  1  0
  4  5  2  0
  5  6  1  0
  7  6  1  0
  8  7  2  0
  9  8  1  0
 10 11  1  0
 10  9  2  0
 11 12  2  0
 12  4  1  0
 12  7  1  0
 13  2  1  0
 13 23  1  0
 14 13  2  0
 16 15  1  0
 17 16  2  0
 18 16  1  0
 19 18  1  0
 20 19  1  0
 20 21  1  0
 22 21  1  1
 22 24  1  0
 22 23  1  0
 24 31  1  0
 25 24  2  0
 27 28  1  0
 27 26  1  0
 29 28  1  0
 30 29  1  1
 31 30  1  0
 32 33  1  0
 32 30  1  0
 34 32  2  0
M  END
$$$$
