IEA.pdb
     RDKit          3D

 23 22  0  0  1  0  0  0  0  0999 V2000
   25.2599  -31.6135   -8.7244 C   0  0  0  0  0  0  0  0  0  0  0  0
   26.2484  -32.7187   -8.4191 C   0  0  0  0  0  0  0  0  0  0  0  0
   25.9492  -33.2703   -7.0483 C   0  0  2  0  0  0  0  0  0  0  0  0
   25.9673  -32.1202   -6.0663 C   0  0  0  0  0  0  0  0  0  0  0  0
   26.9288  -34.3509   -6.6447 C   0  0  2  0  0  0  0  0  0  0  0  0
   26.9676  -35.4364   -7.5790 N   0  0  0  0  0  0  0  0  0  0  0  0
   26.5703  -34.9050   -5.2891 C   0  0  0  0  0  0  0  0  0  0  0  0
   25.3879  -35.2516   -5.1196 O   0  0  0  0  0  0  0  0  0  0  0  0
   27.5215  -35.0257   -4.2645 N   0  0  0  0  0  0  0  0  0  0  0  0
   27.3694  -35.5655   -2.9459 C   0  0  1  0  0  0  0  0  0  0  0  0
   28.6986  -36.0125   -2.3435 C   0  0  0  0  0  0  0  0  0  0  0  0
   29.1820  -37.2290   -3.0563 C   0  0  0  0  0  0  0  0  0  0  0  0
   30.4428  -37.7312   -2.4309 C   0  0  0  0  0  0  0  0  0  0  0  0
   31.2754  -38.3539   -3.1123 O   0  0  0  0  0  0  0  0  0  0  0  0
   26.5615  -34.7328   -2.0773 C   0  0  0  0  0  0  0  0  0  0  0  0
   26.8521  -33.5115   -1.8628 O   0  0  0  0  0  0  0  0  0  0  0  0
   30.6855  -37.5018   -1.0845 O   0  0  0  0  0  0  0  0  0  0  0  0
   23.1078  -34.8485   -0.8984 C   0  0  0  0  0  0  0  0  0  0  0  0
   24.5366  -34.3848   -0.6216 C   0  0  2  0  0  0  0  0  0  0  0  0
   25.4053  -35.2261   -1.4181 N   0  0  0  0  0  0  0  0  0  0  0  0
   24.8632  -34.4789    0.8247 C   0  0  0  0  0  0  0  0  0  0  0  0
   24.3631  -33.5586    1.7373 O   0  0  0  0  0  0  0  0  0  0  0  0
   25.6078  -35.4160    1.2096 O   0  0  0  0  0  0  0  0  0  0  0  0
  2  3  1  0
  2  1  1  0
  3  4  1  1
  5  7  1  0
  5  3  1  0
  5  6  1  6
  7  8  2  0
  9 10  1  0
  9  7  1  0
 10 11  1  1
 12 11  1  0
 12 13  1  0
 13 17  1  0
 14 13  2  0
 15 20  1  0
 15 10  1  0
 16 15  2  0
 19 18  1  1
 19 21  1  0
 19 20  1  0
 21 22  1  0
 23 21  2  0
M  END
$$$$
