IEA.pdb
     RDKit          3D

 23 22  0  0  1  0  0  0  0  0999 V2000
   25.7063  -14.3579  -15.3941 C   0  0  0  0  0  0  0  0  0  0  0  0
   24.1993  -14.3130  -15.5300 C   0  0  0  0  0  0  0  0  0  0  0  0
   23.7896  -12.9143  -15.9152 C   0  0  2  0  0  0  0  0  0  0  0  0
   24.2500  -11.9739  -14.8238 C   0  0  0  0  0  0  0  0  0  0  0  0
   22.2977  -12.8016  -16.1423 C   0  0  2  0  0  0  0  0  0  0  0  0
   21.8197  -13.7221  -17.1307 N   0  0  0  0  0  0  0  0  0  0  0  0
   21.9374  -11.4050  -16.5818 C   0  0  0  0  0  0  0  0  0  0  0  0
   22.3091  -11.0610  -17.7178 O   0  0  0  0  0  0  0  0  0  0  0  0
   21.2174  -10.5316  -15.7525 N   0  0  0  0  0  0  0  0  0  0  0  0
   20.8148   -9.1778  -15.9947 C   0  0  1  0  0  0  0  0  0  0  0  0
   19.2982   -9.0084  -15.9673 C   0  0  0  0  0  0  0  0  0  0  0  0
   18.7015   -9.6910  -17.1503 C   0  0  0  0  0  0  0  0  0  0  0  0
   17.2215   -9.4862  -17.1767 C   0  0  0  0  0  0  0  0  0  0  0  0
   16.6983   -8.8119  -18.0805 O   0  0  0  0  0  0  0  0  0  0  0  0
   21.5455   -8.2131  -15.1973 C   0  0  0  0  0  0  0  0  0  0  0  0
   21.7725   -8.4047  -13.9588 O   0  0  0  0  0  0  0  0  0  0  0  0
   16.4279  -10.0504  -16.1887 O   0  0  0  0  0  0  0  0  0  0  0  0
   23.3768   -5.0374  -15.9852 C   0  0  0  0  0  0  0  0  0  0  0  0
   22.8743   -6.0841  -14.9927 C   0  0  2  0  0  0  0  0  0  0  0  0
   22.0486   -7.0046  -15.7460 N   0  0  0  0  0  0  0  0  0  0  0  0
   22.1143   -5.4534  -13.8827 C   0  0  0  0  0  0  0  0  0  0  0  0
   22.7648   -4.9090  -12.7826 O   0  0  0  0  0  0  0  0  0  0  0  0
   20.8598   -5.4220  -13.9595 O   0  0  0  0  0  0  0  0  0  0  0  0
  2  3  1  0
  2  1  1  0
  3  4  1  1
  5  7  1  0
  5  3  1  0
  5  6  1  6
  7  8  2  0
  9 10  1  0
  9  7  1  0
 10 11  1  1
 12 11  1  0
 12 13  1  0
 13 17  1  0
 14 13  2  0
 15 20  1  0
 15 10  1  0
 16 15  2  0
 19 18  1  6
 19 21  1  0
 19 20  1  0
 21 22  1  0
 23 21  2  0
M  END
$$$$
