IEA.pdb
     RDKit          3D

 23 22  0  0  1  0  0  0  0  0999 V2000
   24.3369  -23.8145  -15.2717 C   0  0  0  0  0  0  0  0  0  0  0  0
   24.7590  -23.6264  -16.7132 C   0  0  0  0  0  0  0  0  0  0  0  0
   25.0968  -24.9741  -17.2983 C   0  0  2  0  0  0  0  0  0  0  0  0
   24.0217  -25.9507  -16.8766 C   0  0  0  0  0  0  0  0  0  0  0  0
   26.4682  -25.4510  -16.8717 C   0  0  2  0  0  0  0  0  0  0  0  0
   27.5038  -24.5180  -17.2031 N   0  0  0  0  0  0  0  0  0  0  0  0
   26.7922  -26.7704  -17.5255 C   0  0  0  0  0  0  0  0  0  0  0  0
   26.4673  -26.8998  -18.7191 O   0  0  0  0  0  0  0  0  0  0  0  0
   27.4296  -27.8058  -16.8250 N   0  0  0  0  0  0  0  0  0  0  0  0
   27.8160  -29.1069  -17.2846 C   0  0  1  0  0  0  0  0  0  0  0  0
   29.3314  -29.2663  -17.3725 C   0  0  0  0  0  0  0  0  0  0  0  0
   29.6564  -30.5800  -17.9971 C   0  0  0  0  0  0  0  0  0  0  0  0
   31.1353  -30.7324  -18.1471 C   0  0  0  0  0  0  0  0  0  0  0  0
   31.6135  -31.7841  -18.6060 O   0  0  0  0  0  0  0  0  0  0  0  0
   27.1339  -30.1828  -16.5934 C   0  0  0  0  0  0  0  0  0  0  0  0
   27.0598  -30.2197  -15.3225 O   0  0  0  0  0  0  0  0  0  0  0  0
   31.9784  -29.6963  -17.7729 O   0  0  0  0  0  0  0  0  0  0  0  0
   24.9099  -32.9634  -17.7354 C   0  0  0  0  0  0  0  0  0  0  0  0
   25.6699  -32.2312  -16.6311 C   0  0  2  0  0  0  0  0  0  0  0  0
   26.5117  -31.2531  -17.2878 N   0  0  0  0  0  0  0  0  0  0  0  0
   26.4705  -33.1757  -15.8101 C   0  0  0  0  0  0  0  0  0  0  0  0
   27.8457  -33.2850  -15.9736 O   0  0  0  0  0  0  0  0  0  0  0  0
   25.8736  -33.8804  -14.9571 O   0  0  0  0  0  0  0  0  0  0  0  0
  2  3  1  0
  2  1  1  0
  3  4  1  1
  5  7  1  0
  5  3  1  0
  5  6  1  6
  7  8  2  0
  9 10  1  0
  9  7  1  0
 10 11  1  1
 12 11  1  0
 12 13  1  0
 13 17  1  0
 14 13  2  0
 15 20  1  0
 15 10  1  0
 16 15  2  0
 19 18  1  6
 19 21  1  0
 19 20  1  0
 21 22  1  0
 23 21  2  0
M  END
$$$$
