IEA.pdb
     RDKit          3D

 23 22  0  0  1  0  0  0  0  0999 V2000
   25.8166  -34.4461  -13.7275 C   0  0  0  0  0  0  0  0  0  0  0  0
   25.7936  -33.3924  -12.6409 C   0  0  0  0  0  0  0  0  0  0  0  0
   25.5129  -34.0645  -11.3209 C   0  0  2  0  0  0  0  0  0  0  0  0
   24.1996  -34.8047  -11.4420 C   0  0  0  0  0  0  0  0  0  0  0  0
   25.4812  -33.0760  -10.1755 C   0  0  2  0  0  0  0  0  0  0  0  0
   26.7106  -32.3535  -10.0370 N   0  0  0  0  0  0  0  0  0  0  0  0
   25.2003  -33.7870   -8.8759 C   0  0  0  0  0  0  0  0  0  0  0  0
   24.1627  -34.4708   -8.8235 O   0  0  0  0  0  0  0  0  0  0  0  0
   26.0651  -33.6851   -7.7756 N   0  0  0  0  0  0  0  0  0  0  0  0
   26.0046  -34.3552   -6.5104 C   0  0  1  0  0  0  0  0  0  0  0  0
   27.3816  -34.7897   -6.0159 C   0  0  0  0  0  0  0  0  0  0  0  0
   27.2347  -35.5429   -4.7381 C   0  0  0  0  0  0  0  0  0  0  0  0
   28.5741  -35.9630   -4.2256 C   0  0  0  0  0  0  0  0  0  0  0  0
   29.1392  -35.3044   -3.3356 O   0  0  0  0  0  0  0  0  0  0  0  0
   25.2041  -33.6510   -5.5287 C   0  0  0  0  0  0  0  0  0  0  0  0
   25.5993  -32.5610   -5.0016 O   0  0  0  0  0  0  0  0  0  0  0  0
   29.1896  -37.0924   -4.7449 O   0  0  0  0  0  0  0  0  0  0  0  0
   21.7023  -33.8677   -4.3136 C   0  0  0  0  0  0  0  0  0  0  0  0
   23.1585  -33.4759   -4.0707 C   0  0  2  0  0  0  0  0  0  0  0  0
   23.9395  -34.1315   -5.0988 N   0  0  0  0  0  0  0  0  0  0  0  0
   23.6042  -33.8743   -2.7106 C   0  0  0  0  0  0  0  0  0  0  0  0
   23.2647  -33.1230   -1.5925 O   0  0  0  0  0  0  0  0  0  0  0  0
   24.3010  -34.9139   -2.5905 O   0  0  0  0  0  0  0  0  0  0  0  0
  2  3  1  0
  2  1  1  0
  3  4  1  6
  5  7  1  0
  5  3  1  0
  5  6  1  1
  7  8  2  0
  9 10  1  0
  9  7  1  0
 10 11  1  1
 12 11  1  0
 12 13  1  0
 13 17  1  0
 14 13  2  0
 15 20  1  0
 15 10  1  0
 16 15  2  0
 19 18  1  6
 19 21  1  0
 19 20  1  0
 21 22  1  0
 23 21  2  0
M  END
$$$$
