IEA.pdb
     RDKit          3D

 23 22  0  0  1  0  0  0  0  0999 V2000
   15.7739  -10.8595  -14.2304 C   0  0  0  0  0  0  0  0  0  0  0  0
   17.1663  -11.1670  -14.7384 C   0  0  0  0  0  0  0  0  0  0  0  0
   17.1154  -11.3003  -16.2392 C   0  0  2  0  0  0  0  0  0  0  0  0
   16.0432  -12.3098  -16.5838 C   0  0  0  0  0  0  0  0  0  0  0  0
   18.4538  -11.7028  -16.8195 C   0  0  2  0  0  0  0  0  0  0  0  0
   18.9510  -12.9252  -16.2616 N   0  0  0  0  0  0  0  0  0  0  0  0
   19.4769  -10.6217  -16.5793 C   0  0  0  0  0  0  0  0  0  0  0  0
   20.1881  -10.7376  -15.5656 O   0  0  0  0  0  0  0  0  0  0  0  0
   19.6233   -9.5348  -17.4547 N   0  0  0  0  0  0  0  0  0  0  0  0
   20.4583   -8.3770  -17.3299 C   0  0  1  0  0  0  0  0  0  0  0  0
   20.5750   -7.6002  -18.6385 C   0  0  0  0  0  0  0  0  0  0  0  0
   21.5644   -6.4977  -18.4743 C   0  0  0  0  0  0  0  0  0  0  0  0
   21.7276   -5.7504  -19.7580 C   0  0  0  0  0  0  0  0  0  0  0  0
   21.9795   -4.5331  -19.7468 O   0  0  0  0  0  0  0  0  0  0  0  0
   20.1409   -7.5658  -16.1716 C   0  0  0  0  0  0  0  0  0  0  0  0
   18.9511   -7.1797  -15.9318 O   0  0  0  0  0  0  0  0  0  0  0  0
   21.5975   -6.4173  -20.9674 O   0  0  0  0  0  0  0  0  0  0  0  0
   21.9329   -6.7766  -13.0264 C   0  0  0  0  0  0  0  0  0  0  0  0
   20.8141   -6.4539  -14.0149 C   0  0  2  0  0  0  0  0  0  0  0  0
   21.1312   -7.1559  -15.2411 N   0  0  0  0  0  0  0  0  0  0  0  0
   20.6987   -4.9899  -14.2394 C   0  0  0  0  0  0  0  0  0  0  0  0
   21.0141   -4.4224  -15.4675 O   0  0  0  0  0  0  0  0  0  0  0  0
   20.3064   -4.2683  -13.2875 O   0  0  0  0  0  0  0  0  0  0  0  0
  2  3  1  0
  2  1  1  0
  3  4  1  1
  5  7  1  0
  5  3  1  0
  5  6  1  1
  7  8  2  0
  9 10  1  0
  9  7  1  0
 10 11  1  6
 12 11  1  0
 12 13  1  0
 13 17  1  0
 14 13  2  0
 15 20  1  0
 15 10  1  0
 16 15  2  0
 19 18  1  1
 19 21  1  0
 19 20  1  0
 21 22  1  0
 23 21  2  0
M  END
$$$$
