IEA.pdb
     RDKit          3D

 23 22  0  0  1  0  0  0  0  0999 V2000
   23.6390  -12.7190  -15.4020 C   0  0  0  0  0  0  0  0  0  0  0  0
   23.6492  -11.3258  -14.8102 C   0  0  0  0  0  0  0  0  0  0  0  0
   22.6658  -10.4708  -15.5683 C   0  0  2  0  0  0  0  0  0  0  0  0
   22.9621  -10.6130  -17.0446 C   0  0  0  0  0  0  0  0  0  0  0  0
   22.7212   -9.0218  -15.1355 C   0  0  2  0  0  0  0  0  0  0  0  0
   22.4173   -8.8497  -13.7460 N   0  0  0  0  0  0  0  0  0  0  0  0
   21.7485   -8.1962  -15.9390 C   0  0  0  0  0  0  0  0  0  0  0  0
   21.9189   -8.1697  -17.1708 O   0  0  0  0  0  0  0  0  0  0  0  0
   20.6996   -7.4897  -15.3308 N   0  0  0  0  0  0  0  0  0  0  0  0
   19.6642   -6.7059  -15.9364 C   0  0  1  0  0  0  0  0  0  0  0  0
   18.2785   -7.0629  -15.4053 C   0  0  0  0  0  0  0  0  0  0  0  0
   17.8761   -8.3993  -15.9284 C   0  0  0  0  0  0  0  0  0  0  0  0
   16.5117   -8.7603  -15.4372 C   0  0  0  0  0  0  0  0  0  0  0  0
   15.5018   -8.3456  -16.0315 O   0  0  0  0  0  0  0  0  0  0  0  0
   19.9579   -5.2868  -15.9538 C   0  0  0  0  0  0  0  0  0  0  0  0
   20.4786   -4.6997  -14.9506 O   0  0  0  0  0  0  0  0  0  0  0  0
   16.3712   -9.5614  -14.3135 O   0  0  0  0  0  0  0  0  0  0  0  0
   19.7614   -2.6037  -18.5650 C   0  0  0  0  0  0  0  0  0  0  0  0
   19.9977   -3.0587  -17.1262 C   0  0  2  0  0  0  0  0  0  0  0  0
   19.6843   -4.4717  -17.0832 N   0  0  0  0  0  0  0  0  0  0  0  0
   19.1612   -2.2857  -16.1721 C   0  0  0  0  0  0  0  0  0  0  0  0
   19.5165   -1.0014  -15.7796 O   0  0  0  0  0  0  0  0  0  0  0  0
   18.1163   -2.8218  -15.7231 O   0  0  0  0  0  0  0  0  0  0  0  0
  2  3  1  0
  2  1  1  0
  3  4  1  6
  5  7  1  0
  5  3  1  0
  5  6  1  1
  7  8  2  0
  9 10  1  0
  9  7  1  0
 10 11  1  1
 12 11  1  0
 12 13  1  0
 13 17  1  0
 14 13  2  0
 15 20  1  0
 15 10  1  0
 16 15  2  0
 19 18  1  6
 19 21  1  0
 19 20  1  0
 21 22  1  0
 23 21  2  0
M  END
$$$$
