IEA.pdb
     RDKit          3D

 23 22  0  0  1  0  0  0  0  0999 V2000
   15.7148  -11.8279  -18.6530 C   0  0  0  0  0  0  0  0  0  0  0  0
   17.1129  -11.7766  -18.0750 C   0  0  0  0  0  0  0  0  0  0  0  0
   17.1724  -10.6733  -17.0494 C   0  0  2  0  0  0  0  0  0  0  0  0
   16.8706   -9.3667  -17.7488 C   0  0  0  0  0  0  0  0  0  0  0  0
   18.5118  -10.6221  -16.3470 C   0  0  2  0  0  0  0  0  0  0  0  0
   18.8186  -11.8394  -15.6564 N   0  0  0  0  0  0  0  0  0  0  0  0
   18.5390   -9.4917  -15.3496 C   0  0  0  0  0  0  0  0  0  0  0  0
   17.8907   -9.6535  -14.3006 O   0  0  0  0  0  0  0  0  0  0  0  0
   19.2596   -8.3117  -15.5890 N   0  0  0  0  0  0  0  0  0  0  0  0
   19.3206   -7.1128  -14.8066 C   0  0  1  0  0  0  0  0  0  0  0  0
   20.7549   -6.6921  -14.4979 C   0  0  0  0  0  0  0  0  0  0  0  0
   20.7405   -5.5026  -13.5999 C   0  0  0  0  0  0  0  0  0  0  0  0
   22.1345   -5.0320  -13.3383 C   0  0  0  0  0  0  0  0  0  0  0  0
   22.7043   -5.3230  -12.2725 O   0  0  0  0  0  0  0  0  0  0  0  0
   18.4766   -6.0522  -15.3197 C   0  0  0  0  0  0  0  0  0  0  0  0
   18.6355   -5.5792  -16.4914 O   0  0  0  0  0  0  0  0  0  0  0  0
   22.7956   -4.2674  -14.2882 O   0  0  0  0  0  0  0  0  0  0  0  0
   15.3345   -4.4311  -14.1004 C   0  0  0  0  0  0  0  0  0  0  0  0
   16.4921   -4.5189  -15.0931 C   0  0  2  0  0  0  0  0  0  0  0  0
   17.4287   -5.4811  -14.5512 N   0  0  0  0  0  0  0  0  0  0  0  0
   17.1298   -3.1925  -15.2961 C   0  0  0  0  0  0  0  0  0  0  0  0
   16.6183   -2.2797  -16.2099 O   0  0  0  0  0  0  0  0  0  0  0  0
   18.1506   -2.9100  -14.6186 O   0  0  0  0  0  0  0  0  0  0  0  0
  2  3  1  0
  2  1  1  0
  3  4  1  6
  5  7  1  0
  5  3  1  0
  5  6  1  1
  7  8  2  0
  9 10  1  0
  9  7  1  0
 10 11  1  6
 12 11  1  0
 12 13  1  0
 13 17  1  0
 14 13  2  0
 15 20  1  0
 15 10  1  0
 16 15  2  0
 19 18  1  1
 19 21  1  0
 19 20  1  0
 21 22  1  0
 23 21  2  0
M  END
$$$$
