IEA.pdb
     RDKit          3D

 23 22  0  0  1  0  0  0  0  0999 V2000
   14.1602  -10.8345  -15.0971 C   0  0  0  0  0  0  0  0  0  0  0  0
   15.2292  -11.2841  -16.0701 C   0  0  0  0  0  0  0  0  0  0  0  0
   16.5322  -10.6244  -15.6961 C   0  0  2  0  0  0  0  0  0  0  0  0
   16.3287   -9.1264  -15.7405 C   0  0  0  0  0  0  0  0  0  0  0  0
   17.6657  -11.0505  -16.6036 C   0  0  2  0  0  0  0  0  0  0  0  0
   17.9401  -12.4543  -16.5205 N   0  0  0  0  0  0  0  0  0  0  0  0
   18.9265  -10.2998  -16.2570 C   0  0  0  0  0  0  0  0  0  0  0  0
   19.5274  -10.6574  -15.2285 O   0  0  0  0  0  0  0  0  0  0  0  0
   19.4030   -9.2475  -17.0537 N   0  0  0  0  0  0  0  0  0  0  0  0
   20.5730   -8.4383  -16.8810 C   0  0  1  0  0  0  0  0  0  0  0  0
   21.1530   -7.9633  -18.2104 C   0  0  0  0  0  0  0  0  0  0  0  0
   21.7701   -9.1178  -18.9230 C   0  0  0  0  0  0  0  0  0  0  0  0
   22.4120   -8.6617  -20.1931 C   0  0  0  0  0  0  0  0  0  0  0  0
   21.8123   -7.8821  -20.9534 O   0  0  0  0  0  0  0  0  0  0  0  0
   20.4054   -7.3964  -15.8876 C   0  0  0  0  0  0  0  0  0  0  0  0
   19.4237   -6.5860  -15.9281 O   0  0  0  0  0  0  0  0  0  0  0  0
   23.6820   -9.1097  -20.5254 O   0  0  0  0  0  0  0  0  0  0  0  0
   21.9818   -6.6950  -12.5854 C   0  0  0  0  0  0  0  0  0  0  0  0
   21.1133   -6.2499  -13.7604 C   0  0  2  0  0  0  0  0  0  0  0  0
   21.3201   -7.2183  -14.8169 N   0  0  0  0  0  0  0  0  0  0  0  0
   21.4676   -4.8766  -14.2029 C   0  0  0  0  0  0  0  0  0  0  0  0
   22.1157   -4.6540  -15.4113 O   0  0  0  0  0  0  0  0  0  0  0  0
   21.1666   -3.9115  -13.4555 O   0  0  0  0  0  0  0  0  0  0  0  0
  2  3  1  0
  2  1  1  0
  3  4  1  6
  5  7  1  0
  5  3  1  0
  5  6  1  1
  7  8  2  0
  9 10  1  0
  9  7  1  0
 10 11  1  6
 12 11  1  0
 12 13  1  0
 13 17  1  0
 14 13  2  0
 15 20  1  0
 15 10  1  0
 16 15  2  0
 19 18  1  1
 19 21  1  0
 19 20  1  0
 21 22  1  0
 23 21  2  0
M  END
$$$$
