IEA.pdb
     RDKit          3D

 23 22  0  0  1  0  0  0  0  0999 V2000
   27.9704  -11.9012  -16.3240 C   0  0  0  0  0  0  0  0  0  0  0  0
   26.5377  -12.3195  -16.0709 C   0  0  0  0  0  0  0  0  0  0  0  0
   25.6341  -11.1461  -16.3526 C   0  0  2  0  0  0  0  0  0  0  0  0
   25.9826  -10.0422  -15.3793 C   0  0  0  0  0  0  0  0  0  0  0  0
   24.1709  -11.5199  -16.2561 C   0  0  2  0  0  0  0  0  0  0  0  0
   23.8266  -12.6219  -17.1045 N   0  0  0  0  0  0  0  0  0  0  0  0
   23.3030  -10.3450  -16.6298 C   0  0  0  0  0  0  0  0  0  0  0  0
   23.3195   -9.9923  -17.8224 O   0  0  0  0  0  0  0  0  0  0  0  0
   22.5127   -9.6782  -15.6811 N   0  0  0  0  0  0  0  0  0  0  0  0
   21.6424   -8.5535  -15.8564 C   0  0  1  0  0  0  0  0  0  0  0  0
   20.1968   -8.8733  -15.4853 C   0  0  0  0  0  0  0  0  0  0  0  0
   19.3376   -7.6899  -15.7729 C   0  0  0  0  0  0  0  0  0  0  0  0
   17.9108   -7.9923  -15.4478 C   0  0  0  0  0  0  0  0  0  0  0  0
   17.1843   -7.1189  -14.9432 O   0  0  0  0  0  0  0  0  0  0  0  0
   22.1610   -7.3331  -15.2713 C   0  0  0  0  0  0  0  0  0  0  0  0
   22.5270   -7.2792  -14.0526 O   0  0  0  0  0  0  0  0  0  0  0  0
   17.3944   -9.2528  -15.7100 O   0  0  0  0  0  0  0  0  0  0  0  0
   22.8126   -3.8711  -16.5696 C   0  0  0  0  0  0  0  0  0  0  0  0
   22.7727   -4.8962  -15.4379 C   0  0  2  0  0  0  0  0  0  0  0  0
   22.2911   -6.1327  -16.0174 N   0  0  0  0  0  0  0  0  0  0  0  0
   21.8993   -4.4387  -14.3266 C   0  0  0  0  0  0  0  0  0  0  0  0
   22.4213   -3.7597  -13.2329 O   0  0  0  0  0  0  0  0  0  0  0  0
   20.6674   -4.6803  -14.3962 O   0  0  0  0  0  0  0  0  0  0  0  0
  2  3  1  0
  2  1  1  0
  3  4  1  1
  5  7  1  0
  5  3  1  0
  5  6  1  6
  7  8  2  0
  9 10  1  0
  9  7  1  0
 10 11  1  1
 12 11  1  0
 12 13  1  0
 13 17  1  0
 14 13  2  0
 15 20  1  0
 15 10  1  0
 16 15  2  0
 19 18  1  6
 19 21  1  0
 19 20  1  0
 21 22  1  0
 23 21  2  0
M  END
$$$$
