IEA.pdb
     RDKit          3D

 23 22  0  0  1  0  0  0  0  0999 V2000
   28.6365  -12.6966  -15.7901 C   0  0  0  0  0  0  0  0  0  0  0  0
   27.1955  -13.0130  -16.1291 C   0  0  0  0  0  0  0  0  0  0  0  0
   26.5211  -11.7504  -16.6020 C   0  0  2  0  0  0  0  0  0  0  0  0
   26.4995  -10.7709  -15.4498 C   0  0  0  0  0  0  0  0  0  0  0  0
   25.1252  -12.0132  -17.1239 C   0  0  2  0  0  0  0  0  0  0  0  0
   25.1123  -12.9282  -18.2264 N   0  0  0  0  0  0  0  0  0  0  0  0
   24.4800  -10.7253  -17.5695 C   0  0  0  0  0  0  0  0  0  0  0  0
   24.9047  -10.2206  -18.6239 O   0  0  0  0  0  0  0  0  0  0  0  0
   23.4494  -10.1213  -16.8331 N   0  0  0  0  0  0  0  0  0  0  0  0
   22.7478   -8.8988  -17.0912 C   0  0  1  0  0  0  0  0  0  0  0  0
   21.2859   -9.1342  -17.4612 C   0  0  0  0  0  0  0  0  0  0  0  0
   20.6457   -7.8330  -17.8052 C   0  0  0  0  0  0  0  0  0  0  0  0
   19.1824   -7.8785  -17.5056 C   0  0  0  0  0  0  0  0  0  0  0  0
   18.6782   -8.8947  -16.9974 O   0  0  0  0  0  0  0  0  0  0  0  0
   22.9584   -7.8926  -16.0696 C   0  0  0  0  0  0  0  0  0  0  0  0
   22.8132   -8.1560  -14.8320 O   0  0  0  0  0  0  0  0  0  0  0  0
   18.3831   -6.7825  -17.7958 O   0  0  0  0  0  0  0  0  0  0  0  0
   24.0083   -4.2902  -16.1003 C   0  0  0  0  0  0  0  0  0  0  0  0
   23.4412   -5.5170  -15.3885 C   0  0  2  0  0  0  0  0  0  0  0  0
   23.3370   -6.5616  -16.3858 N   0  0  0  0  0  0  0  0  0  0  0  0
   22.1232   -5.2202  -14.7704 C   0  0  0  0  0  0  0  0  0  0  0  0
   22.0288   -4.7451  -13.4684 O   0  0  0  0  0  0  0  0  0  0  0  0
   21.0857   -5.4093  -15.4550 O   0  0  0  0  0  0  0  0  0  0  0  0
  2  3  1  0
  2  1  1  0
  3  4  1  1
  5  7  1  0
  5  3  1  0
  5  6  1  6
  7  8  2  0
  9 10  1  0
  9  7  1  0
 10 11  1  1
 12 11  1  0
 12 13  1  0
 13 17  1  0
 14 13  2  0
 15 20  1  0
 15 10  1  0
 16 15  2  0
 19 18  1  6
 19 21  1  0
 19 20  1  0
 21 22  1  0
 23 21  2  0
M  END
$$$$
