IEA.pdb
     RDKit          3D

 23 22  0  0  1  0  0  0  0  0999 V2000
   16.9556  -12.6982  -14.7857 C   0  0  0  0  0  0  0  0  0  0  0  0
   17.9273  -12.4902  -15.9278 C   0  0  0  0  0  0  0  0  0  0  0  0
   18.7516  -11.2603  -15.6438 C   0  0  2  0  0  0  0  0  0  0  0  0
   17.8065  -10.0919  -15.4734 C   0  0  0  0  0  0  0  0  0  0  0  0
   19.7646  -10.9909  -16.7352 C   0  0  2  0  0  0  0  0  0  0  0  0
   20.6708  -12.0839  -16.9278 N   0  0  0  0  0  0  0  0  0  0  0  0
   20.5706   -9.7586  -16.4111 C   0  0  0  0  0  0  0  0  0  0  0  0
   21.3650   -9.8425  -15.4577 O   0  0  0  0  0  0  0  0  0  0  0  0
   20.4345   -8.5715  -17.1469 N   0  0  0  0  0  0  0  0  0  0  0  0
   21.1120   -7.3198  -16.9808 C   0  0  1  0  0  0  0  0  0  0  0  0
   21.1763   -6.5168  -18.2772 C   0  0  0  0  0  0  0  0  0  0  0  0
   22.1152   -7.1804  -19.2256 C   0  0  0  0  0  0  0  0  0  0  0  0
   22.1083   -6.4749  -20.5429 C   0  0  0  0  0  0  0  0  0  0  0  0
   23.1239   -5.8777  -20.9391 O   0  0  0  0  0  0  0  0  0  0  0  0
   20.6540   -6.5708  -15.8277 C   0  0  0  0  0  0  0  0  0  0  0  0
   19.4185   -6.3287  -15.6357 O   0  0  0  0  0  0  0  0  0  0  0  0
   20.9640   -6.4862  -21.3269 O   0  0  0  0  0  0  0  0  0  0  0  0
   22.1986   -5.4236  -12.6454 C   0  0  0  0  0  0  0  0  0  0  0  0
   21.1110   -5.2885  -13.7094 C   0  0  2  0  0  0  0  0  0  0  0  0
   21.5500   -6.0656  -14.8496 N   0  0  0  0  0  0  0  0  0  0  0  0
   20.8869   -3.8656  -14.0735 C   0  0  0  0  0  0  0  0  0  0  0  0
   20.0445   -3.0544  -13.3237 O   0  0  0  0  0  0  0  0  0  0  0  0
   21.4799   -3.4062  -15.0824 O   0  0  0  0  0  0  0  0  0  0  0  0
  2  3  1  0
  2  1  1  0
  3  4  1  6
  5  7  1  0
  5  3  1  0
  5  6  1  1
  7  8  2  0
  9 10  1  0
  9  7  1  0
 10 11  1  6
 12 11  1  0
 12 13  1  0
 13 17  1  0
 14 13  2  0
 15 20  1  0
 15 10  1  0
 16 15  2  0
 19 18  1  1
 19 21  1  0
 19 20  1  0
 21 22  1  0
 23 21  2  0
M  END
$$$$
