IEA.pdb
     RDKit          3D

 23 22  0  0  1  0  0  0  0  0999 V2000
   17.1278  -13.6687  -17.0140 C   0  0  0  0  0  0  0  0  0  0  0  0
   18.3128  -12.7384  -17.1616 C   0  0  0  0  0  0  0  0  0  0  0  0
   18.0358  -11.4752  -16.3867 C   0  0  2  0  0  0  0  0  0  0  0  0
   16.7910  -10.8366  -16.9612 C   0  0  0  0  0  0  0  0  0  0  0  0
   19.2081  -10.5188  -16.4215 C   0  0  2  0  0  0  0  0  0  0  0  0
   20.4115  -11.1034  -15.9086 N   0  0  0  0  0  0  0  0  0  0  0  0
   18.9011   -9.2822  -15.6155 C   0  0  0  0  0  0  0  0  0  0  0  0
   18.1288   -9.4191  -14.6502 O   0  0  0  0  0  0  0  0  0  0  0  0
   19.4575   -8.0343  -15.9351 N   0  0  0  0  0  0  0  0  0  0  0  0
   19.3550   -6.7896  -15.2325 C   0  0  1  0  0  0  0  0  0  0  0  0
   20.7045   -6.3029  -14.7116 C   0  0  0  0  0  0  0  0  0  0  0  0
   20.5104   -5.0525  -13.9239 C   0  0  0  0  0  0  0  0  0  0  0  0
   21.8241   -4.5415  -13.4279 C   0  0  0  0  0  0  0  0  0  0  0  0
   22.7252   -5.3360  -13.1085 O   0  0  0  0  0  0  0  0  0  0  0  0
   18.5874   -5.7907  -15.9489 C   0  0  0  0  0  0  0  0  0  0  0  0
   18.8891   -5.4403  -17.1357 O   0  0  0  0  0  0  0  0  0  0  0  0
   22.0393   -3.1752  -13.3233 O   0  0  0  0  0  0  0  0  0  0  0  0
   15.5457   -3.7415  -15.1522 C   0  0  0  0  0  0  0  0  0  0  0  0
   16.7486   -4.0725  -16.0334 C   0  0  2  0  0  0  0  0  0  0  0  0
   17.4604   -5.1472  -15.3739 N   0  0  0  0  0  0  0  0  0  0  0  0
   17.6171   -2.8831  -16.2290 C   0  0  0  0  0  0  0  0  0  0  0  0
   17.4163   -2.0116  -17.2920 O   0  0  0  0  0  0  0  0  0  0  0  0
   18.5455   -2.6791  -15.4061 O   0  0  0  0  0  0  0  0  0  0  0  0
  2  3  1  0
  2  1  1  0
  3  4  1  6
  5  7  1  0
  5  3  1  0
  5  6  1  1
  7  8  2  0
  9 10  1  0
  9  7  1  0
 10 11  1  6
 12 11  1  0
 12 13  1  0
 13 17  1  0
 14 13  2  0
 15 20  1  0
 15 10  1  0
 16 15  2  0
 19 18  1  1
 19 21  1  0
 19 20  1  0
 21 22  1  0
 23 21  2  0
M  END
$$$$
