GPS.pdb
     RDKit          3D

 18 18  0  0  1  0  0  0  0  0999 V2000
   20.2925  -12.9880  -18.0998 N   0  0  0  0  0  0  0  0  0  0  0  0
   21.0262  -11.7872  -18.3053 C   0  0  0  0  0  0  0  0  0  0  0  0
   21.1815  -10.8981  -17.1590 C   0  0  0  0  0  0  0  0  0  0  0  0
   20.2218  -10.1030  -16.9083 O   0  0  0  0  0  0  0  0  0  0  0  0
   22.3016  -10.8310  -16.2928 N   0  0  0  0  0  0  0  0  0  0  0  0
   23.4311  -11.7346  -16.3988 C   0  0  0  0  0  0  0  0  0  0  0  0
   24.0359  -11.6105  -14.9899 C   0  0  0  0  0  0  0  0  0  0  0  0
   23.9881  -10.1122  -14.8519 C   0  0  0  0  0  0  0  0  0  0  0  0
   22.5095   -9.8746  -15.1986 C   0  0  1  0  0  0  0  0  0  0  0  0
   22.3215   -8.4876  -15.6200 C   0  0  0  0  0  0  0  0  0  0  0  0
   22.4174   -8.1634  -16.8266 O   0  0  0  0  0  0  0  0  0  0  0  0
   19.5997   -6.0809  -14.8304 O   0  0  0  0  0  0  0  0  0  0  0  0
   20.6229   -5.7603  -15.6961 C   0  0  0  0  0  0  0  0  0  0  0  0
   21.9700   -6.0574  -15.0577 C   0  0  2  0  0  0  0  0  0  0  0  0
   22.0260   -7.4618  -14.6915 N   0  0  0  0  0  0  0  0  0  0  0  0
   22.1905   -5.2045  -13.8443 C   0  0  0  0  0  0  0  0  0  0  0  0
   22.3641   -3.8427  -13.9283 O   0  0  0  0  0  0  0  0  0  0  0  0
   22.2200   -5.7410  -12.7023 O   0  0  0  0  0  0  0  0  0  0  0  0
  1  2  1  0
  3  2  1  0
  3  4  2  0
  5  6  1  0
  5  3  1  0
  7  6  1  0
  8  7  1  0
  8  9  1  0
  9  5  1  0
  9 10  1  6
 10 11  2  0
 12 13  1  0
 14 13  1  1
 14 15  1  0
 15 10  1  0
 16 17  1  0
 16 14  1  0
 18 16  2  0
M  END
$$$$
