GPS.pdb
     RDKit          3D

 18 18  0  0  1  0  0  0  0  0999 V2000
   28.0906  -33.1454   -8.2106 N   0  0  0  0  0  0  0  0  0  0  0  0
   29.2547  -32.6352   -7.5726 C   0  0  0  0  0  0  0  0  0  0  0  0
   30.1523  -33.6041   -6.9527 C   0  0  0  0  0  0  0  0  0  0  0  0
   29.6420  -34.7030   -6.5677 O   0  0  0  0  0  0  0  0  0  0  0  0
   31.5436  -33.4417   -6.7346 N   0  0  0  0  0  0  0  0  0  0  0  0
   32.2734  -32.2648   -7.1656 C   0  0  0  0  0  0  0  0  0  0  0  0
   33.7117  -32.8094   -7.1950 C   0  0  0  0  0  0  0  0  0  0  0  0
   33.7091  -33.5332   -5.8750 C   0  0  0  0  0  0  0  0  0  0  0  0
   32.4422  -34.3845   -6.0573 C   0  0  1  0  0  0  0  0  0  0  0  0
   31.9391  -34.8010   -4.7496 C   0  0  0  0  0  0  0  0  0  0  0  0
   31.1531  -34.0719   -4.1009 O   0  0  0  0  0  0  0  0  0  0  0  0
   31.1625  -38.3845   -1.6426 O   0  0  0  0  0  0  0  0  0  0  0  0
   31.6918  -37.9671   -2.8445 C   0  0  0  0  0  0  0  0  0  0  0  0
   31.8623  -36.4567   -2.8527 C   0  0  2  0  0  0  0  0  0  0  0  0
   32.3150  -36.0340   -4.1665 N   0  0  0  0  0  0  0  0  0  0  0  0
   32.8467  -36.0204   -1.8091 C   0  0  0  0  0  0  0  0  0  0  0  0
   32.4621  -35.7022   -0.5275 O   0  0  0  0  0  0  0  0  0  0  0  0
   34.0713  -35.9381   -2.1030 O   0  0  0  0  0  0  0  0  0  0  0  0
  1  2  1  0
  3  2  1  0
  3  4  2  0
  5  6  1  0
  5  3  1  0
  7  6  1  0
  8  7  1  0
  8  9  1  0
  9  5  1  0
  9 10  1  1
 10 11  2  0
 12 13  1  0
 14 13  1  6
 14 15  1  0
 15 10  1  0
 16 17  1  0
 16 14  1  0
 18 16  2  0
M  END
$$$$
