GPS.pdb
     RDKit          3D

 18 18  0  0  1  0  0  0  0  0999 V2000
   28.9375  -20.9601  -16.9313 N   0  0  0  0  0  0  0  0  0  0  0  0
   28.9825  -20.1897  -15.7367 C   0  0  0  0  0  0  0  0  0  0  0  0
   28.3741  -20.7728  -14.5458 C   0  0  0  0  0  0  0  0  0  0  0  0
   27.1680  -21.1628  -14.6431 O   0  0  0  0  0  0  0  0  0  0  0  0
   28.9960  -20.9481  -13.2840 N   0  0  0  0  0  0  0  0  0  0  0  0
   30.4135  -20.7279  -13.0702 C   0  0  0  0  0  0  0  0  0  0  0  0
   30.6440  -21.5433  -11.7864 C   0  0  0  0  0  0  0  0  0  0  0  0
   29.4489  -21.0741  -11.0002 C   0  0  0  0  0  0  0  0  0  0  0  0
   28.3440  -21.3517  -12.0321 C   0  0  1  0  0  0  0  0  0  0  0  0
   27.1687  -20.5397  -11.7224 C   0  0  0  0  0  0  0  0  0  0  0  0
   27.0990  -19.3432  -12.0884 O   0  0  0  0  0  0  0  0  0  0  0  0
   23.6364  -21.5167  -12.3938 O   0  0  0  0  0  0  0  0  0  0  0  0
   24.0257  -20.2498  -12.0167 C   0  0  0  0  0  0  0  0  0  0  0  0
   24.8581  -20.3072  -10.7462 C   0  0  2  0  0  0  0  0  0  0  0  0
   26.0700  -21.0657  -11.0027 N   0  0  0  0  0  0  0  0  0  0  0  0
   24.0878  -20.9399   -9.6260 C   0  0  0  0  0  0  0  0  0  0  0  0
   22.8829  -20.4389   -9.1917 O   0  0  0  0  0  0  0  0  0  0  0  0
   24.5489  -21.9662   -9.0543 O   0  0  0  0  0  0  0  0  0  0  0  0
  1  2  1  0
  3  2  1  0
  3  4  2  0
  5  6  1  0
  5  3  1  0
  7  6  1  0
  8  7  1  0
  8  9  1  0
  9  5  1  0
  9 10  1  1
 10 11  2  0
 12 13  1  0
 14 13  1  6
 14 15  1  0
 15 10  1  0
 16 17  1  0
 16 14  1  0
 18 16  2  0
M  END
$$$$
