GPS.pdb
     RDKit          3D

 18 18  0  0  1  0  0  0  0  0999 V2000
   41.5375  -10.3495  -10.7759 N   0  0  0  0  0  0  0  0  0  0  0  0
   41.1023  -10.1358   -9.4389 C   0  0  0  0  0  0  0  0  0  0  0  0
   39.8214   -9.4618   -9.2561 C   0  0  0  0  0  0  0  0  0  0  0  0
   39.4282   -8.6999  -10.1948 O   0  0  0  0  0  0  0  0  0  0  0  0
   38.9670   -9.5711   -8.1301 N   0  0  0  0  0  0  0  0  0  0  0  0
   39.0878  -10.6367   -7.1537 C   0  0  0  0  0  0  0  0  0  0  0  0
   37.6852  -10.6132   -6.5227 C   0  0  0  0  0  0  0  0  0  0  0  0
   37.5423   -9.1259   -6.3388 C   0  0  0  0  0  0  0  0  0  0  0  0
   37.8723   -8.6629   -7.7669 C   0  0  1  0  0  0  0  0  0  0  0  0
   38.2876   -7.2615   -7.7443 C   0  0  0  0  0  0  0  0  0  0  0  0
   39.4467   -6.9399   -7.3933 O   0  0  0  0  0  0  0  0  0  0  0  0
   36.9335   -2.6282   -8.4617 O   0  0  0  0  0  0  0  0  0  0  0  0
   36.6469   -3.9690   -8.6000 C   0  0  0  0  0  0  0  0  0  0  0  0
   37.7370   -4.8128   -7.9597 C   0  0  2  0  0  0  0  0  0  0  0  0
   37.4061   -6.2186   -8.1144 N   0  0  0  0  0  0  0  0  0  0  0  0
   37.8897   -4.4817   -6.5052 C   0  0  0  0  0  0  0  0  0  0  0  0
   38.8835   -3.6503   -6.0441 O   0  0  0  0  0  0  0  0  0  0  0  0
   37.0867   -4.9753   -5.6659 O   0  0  0  0  0  0  0  0  0  0  0  0
  1  2  1  0
  3  2  1  0
  3  4  2  0
  5  6  1  0
  5  3  1  0
  7  6  1  0
  8  7  1  0
  8  9  1  0
  9  5  1  0
  9 10  1  1
 10 11  2  0
 12 13  1  0
 14 13  1  1
 14 15  1  0
 15 10  1  0
 16 17  1  0
 16 14  1  0
 18 16  2  0
M  END
$$$$
