GPS.pdb
     RDKit          3D

 18 18  0  0  1  0  0  0  0  0999 V2000
   17.1572  -11.8884  -14.6389 N   0  0  0  0  0  0  0  0  0  0  0  0
   17.2355  -10.9241  -15.6813 C   0  0  0  0  0  0  0  0  0  0  0  0
   18.4662  -10.1467  -15.7773 C   0  0  0  0  0  0  0  0  0  0  0  0
   19.1332   -9.9832  -14.7074 O   0  0  0  0  0  0  0  0  0  0  0  0
   18.9954   -9.5514  -16.9500 N   0  0  0  0  0  0  0  0  0  0  0  0
   18.3923   -9.7227  -18.2579 C   0  0  0  0  0  0  0  0  0  0  0  0
   19.5799   -9.3788  -19.1730 C   0  0  0  0  0  0  0  0  0  0  0  0
   20.0590   -8.1375  -18.4687 C   0  0  0  0  0  0  0  0  0  0  0  0
   20.1808   -8.6901  -17.0395 C   0  0  1  0  0  0  0  0  0  0  0  0
   20.1478   -7.5858  -16.0824 C   0  0  0  0  0  0  0  0  0  0  0  0
   19.0580   -7.1190  -15.6764 O   0  0  0  0  0  0  0  0  0  0  0  0
   22.4388   -5.2790  -12.5738 O   0  0  0  0  0  0  0  0  0  0  0  0
   22.3307   -6.3111  -13.4805 C   0  0  0  0  0  0  0  0  0  0  0  0
   21.3337   -5.9559  -14.5715 C   0  0  2  0  0  0  0  0  0  0  0  0
   21.3342   -7.0026  -15.5785 N   0  0  0  0  0  0  0  0  0  0  0  0
   21.6737   -4.6394  -15.2037 C   0  0  0  0  0  0  0  0  0  0  0  0
   21.2214   -3.4444  -14.6949 O   0  0  0  0  0  0  0  0  0  0  0  0
   22.3978   -4.6128  -16.2371 O   0  0  0  0  0  0  0  0  0  0  0  0
  1  2  1  0
  3  2  1  0
  3  4  2  0
  5  6  1  0
  5  3  1  0
  7  6  1  0
  8  7  1  0
  8  9  1  0
  9  5  1  0
  9 10  1  1
 10 11  2  0
 12 13  1  0
 14 13  1  1
 14 15  1  0
 15 10  1  0
 16 17  1  0
 16 14  1  0
 18 16  2  0
M  END
$$$$
