GPS.pdb
     RDKit          3D

 18 18  0  0  1  0  0  0  0  0999 V2000
   22.7322  -13.0969  -18.8415 N   0  0  0  0  0  0  0  0  0  0  0  0
   23.7417  -12.1272  -18.5901 C   0  0  0  0  0  0  0  0  0  0  0  0
   23.6066  -11.3248  -17.3792 C   0  0  0  0  0  0  0  0  0  0  0  0
   22.4286  -11.1257  -16.9445 O   0  0  0  0  0  0  0  0  0  0  0  0
   24.6626  -10.7409  -16.6353 N   0  0  0  0  0  0  0  0  0  0  0  0
   26.0586  -11.0501  -16.8787 C   0  0  0  0  0  0  0  0  0  0  0  0
   26.6874  -10.6289  -15.5396 C   0  0  0  0  0  0  0  0  0  0  0  0
   25.9916   -9.3051  -15.3669 C   0  0  0  0  0  0  0  0  0  0  0  0
   24.5350   -9.7606  -15.5500 C   0  0  1  0  0  0  0  0  0  0  0  0
   23.7061   -8.6151  -15.9209 C   0  0  0  0  0  0  0  0  0  0  0  0
   23.6742   -8.2002  -17.1029 O   0  0  0  0  0  0  0  0  0  0  0  0
   19.8584   -5.9557  -14.9822 O   0  0  0  0  0  0  0  0  0  0  0  0
   20.7047   -6.9881  -14.6404 C   0  0  0  0  0  0  0  0  0  0  0  0
   22.0557   -6.8113  -15.3142 C   0  0  2  0  0  0  0  0  0  0  0  0
   22.9121   -7.9327  -14.9694 N   0  0  0  0  0  0  0  0  0  0  0  0
   22.7034   -5.5262  -14.8929 C   0  0  0  0  0  0  0  0  0  0  0  0
   22.4549   -4.3360  -15.5357 O   0  0  0  0  0  0  0  0  0  0  0  0
   23.5050   -5.5225  -13.9181 O   0  0  0  0  0  0  0  0  0  0  0  0
  1  2  1  0
  3  2  1  0
  3  4  2  0
  5  6  1  0
  5  3  1  0
  7  6  1  0
  8  7  1  0
  8  9  1  0
  9  5  1  0
  9 10  1  6
 10 11  2  0
 12 13  1  0
 14 13  1  1
 14 15  1  0
 15 10  1  0
 16 17  1  0
 16 14  1  0
 18 16  2  0
M  END
$$$$
