WCL.pdb
     RDKit          3D

 29 30  0  0  1  0  0  0  0  0999 V2000
   26.4396  -19.7498  -11.8438 N   0  0  0  0  0  0  0  0  0  0  0  0
   26.1216  -21.1513  -11.8315 C   0  0  1  0  0  0  0  0  0  0  0  0
   25.6093  -21.5658  -10.5020 C   0  0  0  0  0  0  0  0  0  0  0  0
   26.2916  -20.9384   -9.3466 C   0  0  0  0  0  0  0  0  0  0  0  0
   25.7547  -20.1195   -8.3818 C   0  0  0  0  0  0  0  0  0  0  0  0
   26.7297  -19.8272   -7.5206 N   0  0  0  0  0  0  0  0  0  0  0  0
   27.8937  -20.4137   -7.8678 C   0  0  0  0  0  0  0  0  0  0  0  0
   29.1561  -20.4319   -7.3523 C   0  0  0  0  0  0  0  0  0  0  0  0
   30.1576  -21.1334   -7.9597 C   0  0  0  0  0  0  0  0  0  0  0  0
   29.9033  -21.8354   -9.1081 C   0  0  0  0  0  0  0  0  0  0  0  0
   28.6486  -21.8351   -9.6459 C   0  0  0  0  0  0  0  0  0  0  0  0
   27.6142  -21.1193   -9.0290 C   0  0  0  0  0  0  0  0  0  0  0  0
   25.1642  -21.4123  -12.9345 C   0  0  0  0  0  0  0  0  0  0  0  0
   24.4555  -20.4998  -13.4227 O   0  0  0  0  0  0  0  0  0  0  0  0
   25.0205  -22.7042  -13.4716 N   0  0  0  0  0  0  0  0  0  0  0  0
   24.0739  -23.0060  -14.5417 C   0  0  1  0  0  0  0  0  0  0  0  0
   24.4793  -24.2617  -15.2638 C   0  0  0  0  0  0  0  0  0  0  0  0
   26.2603  -24.3049  -15.5401 S   0  0  0  0  0  0  0  0  0  0  0  0
   22.7300  -23.0261  -13.9518 C   0  0  0  0  0  0  0  0  0  0  0  0
   22.6346  -23.0461  -12.6929 O   0  0  0  0  0  0  0  0  0  0  0  0
   18.4779  -20.3092  -13.1868 C   0  0  0  0  0  0  0  0  0  0  0  0
   19.8200  -19.8285  -13.5910 C   0  0  2  0  0  0  0  0  0  0  0  0
   19.6688  -18.6872  -14.6347 C   0  0  0  0  0  0  0  0  0  0  0  0
   20.7746  -20.8225  -14.0997 C   0  0  0  0  0  0  0  0  0  0  0  0
   20.3394  -22.2272  -14.1723 C   0  0  2  0  0  0  0  0  0  0  0  0
   21.5286  -23.0226  -14.6718 N   0  0  0  0  0  0  0  0  0  0  0  0
   19.2620  -22.5577  -15.0799 C   0  0  0  0  0  0  0  0  0  0  0  0
   17.9809  -22.8748  -14.7020 O   0  0  0  0  0  0  0  0  0  0  0  0
   19.4738  -22.5795  -16.3562 O   0  0  0  0  0  0  0  0  0  0  0  0
  2  1  1  1
  2  3  1  0
  2 13  1  0
  3  4  1  0
  4  5  2  0
  5  6  1  0
  7  8  2  0
  7  6  1  0
  9  8  1  0
 10  9  2  0
 11 10  1  0
 11 12  2  0
 12  4  1  0
 12  7  1  0
 13 15  1  0
 13 14  2  0
 15 16  1  0
 16 17  1  1
 18 17  1  0
 19 16  1  0
 19 20  2  0
 22 21  1  6
 23 22  1  0
 24 22  1  0
 25 24  1  6
 25 26  1  0
 26 19  1  0
 27 28  1  0
 27 25  1  0
 29 27  2  0
M  END
$$$$
