WCL.pdb
     RDKit          3D

 29 30  0  0  1  0  0  0  0  0999 V2000
   22.3606  -23.3624  -16.6244 N   0  0  0  0  0  0  0  0  0  0  0  0
   22.2549  -22.9656  -15.2471 C   0  0  1  0  0  0  0  0  0  0  0  0
   21.7193  -24.0730  -14.4172 C   0  0  0  0  0  0  0  0  0  0  0  0
   20.2413  -24.1573  -14.3672 C   0  0  0  0  0  0  0  0  0  0  0  0
   19.3954  -24.8113  -15.2311 C   0  0  0  0  0  0  0  0  0  0  0  0
   18.1543  -24.6485  -14.7720 N   0  0  0  0  0  0  0  0  0  0  0  0
   18.1337  -23.9142  -13.6407 C   0  0  0  0  0  0  0  0  0  0  0  0
   17.1585  -23.4636  -12.8008 C   0  0  0  0  0  0  0  0  0  0  0  0
   17.4626  -22.7055  -11.7067 C   0  0  0  0  0  0  0  0  0  0  0  0
   18.7665  -22.3845  -11.4368 C   0  0  0  0  0  0  0  0  0  0  0  0
   19.7631  -22.8225  -12.2604 C   0  0  0  0  0  0  0  0  0  0  0  0
   19.4609  -23.6020  -13.3846 C   0  0  0  0  0  0  0  0  0  0  0  0
   23.5903  -22.4953  -14.8033 C   0  0  0  0  0  0  0  0  0  0  0  0
   24.6399  -22.8268  -15.4046 O   0  0  0  0  0  0  0  0  0  0  0  0
   23.7211  -21.6550  -13.6830 N   0  0  0  0  0  0  0  0  0  0  0  0
   24.9914  -21.0376  -13.3121 C   0  0  1  0  0  0  0  0  0  0  0  0
   24.9887  -19.5757  -13.6662 C   0  0  0  0  0  0  0  0  0  0  0  0
   23.6417  -18.7100  -12.8379 S   0  0  0  0  0  0  0  0  0  0  0  0
   25.2350  -21.3412  -11.8968 C   0  0  0  0  0  0  0  0  0  0  0  0
   24.2887  -21.8387  -11.2250 O   0  0  0  0  0  0  0  0  0  0  0  0
   27.4435  -20.1182   -7.0032 C   0  0  0  0  0  0  0  0  0  0  0  0
   28.2343  -21.0006   -7.8930 C   0  0  2  0  0  0  0  0  0  0  0  0
   29.7468  -20.6873   -7.7220 C   0  0  0  0  0  0  0  0  0  0  0  0
   27.9014  -20.9997   -9.3237 C   0  0  0  0  0  0  0  0  0  0  0  0
   26.5072  -21.2718   -9.7108 C   0  0  2  0  0  0  0  0  0  0  0  0
   26.4411  -21.1269  -11.2178 N   0  0  0  0  0  0  0  0  0  0  0  0
   25.4780  -20.3889   -9.2058 C   0  0  0  0  0  0  0  0  0  0  0  0
   24.5337  -20.7313   -8.2700 O   0  0  0  0  0  0  0  0  0  0  0  0
   25.3927  -19.1751   -9.6458 O   0  0  0  0  0  0  0  0  0  0  0  0
  2  1  1  6
  2  3  1  0
  2 13  1  0
  3  4  1  0
  4  5  2  0
  5  6  1  0
  7  8  2  0
  7  6  1  0
  9  8  1  0
 10  9  2  0
 11 10  1  0
 11 12  2  0
 12  4  1  0
 12  7  1  0
 13 15  1  0
 13 14  2  0
 15 16  1  0
 16 17  1  1
 18 17  1  0
 19 16  1  0
 19 20  2  0
 22 21  1  1
 23 22  1  0
 24 22  1  0
 25 24  1  1
 25 26  1  0
 26 19  1  0
 27 28  1  0
 27 25  1  0
 29 27  2  0
M  END
$$$$
