WCL.pdb
     RDKit          3D

 29 30  0  0  1  0  0  0  0  0999 V2000
   19.3289  -21.9490  -11.1279 N   0  0  0  0  0  0  0  0  0  0  0  0
   19.1645  -23.1311  -11.9285 C   0  0  1  0  0  0  0  0  0  0  0  0
   20.3949  -23.4184  -12.7065 C   0  0  0  0  0  0  0  0  0  0  0  0
   20.8412  -22.3217  -13.5966 C   0  0  0  0  0  0  0  0  0  0  0  0
   21.6091  -21.2264  -13.2799 C   0  0  0  0  0  0  0  0  0  0  0  0
   21.7922  -20.5311  -14.4027 N   0  0  0  0  0  0  0  0  0  0  0  0
   21.1802  -21.1128  -15.4546 C   0  0  0  0  0  0  0  0  0  0  0  0
   21.0515  -20.8179  -16.7798 C   0  0  0  0  0  0  0  0  0  0  0  0
   20.3342  -21.6235  -17.6169 C   0  0  0  0  0  0  0  0  0  0  0  0
   19.7277  -22.7508  -17.1295 C   0  0  0  0  0  0  0  0  0  0  0  0
   19.8404  -23.0705  -15.8072 C   0  0  0  0  0  0  0  0  0  0  0  0
   20.5755  -22.2507  -14.9409 C   0  0  0  0  0  0  0  0  0  0  0  0
   18.7694  -24.2418  -11.0277 C   0  0  0  0  0  0  0  0  0  0  0  0
   18.8317  -25.4404  -11.3918 O   0  0  0  0  0  0  0  0  0  0  0  0
   18.3080  -23.9818   -9.7247 N   0  0  0  0  0  0  0  0  0  0  0  0
   17.9593  -25.0487   -8.7906 C   0  0  1  0  0  0  0  0  0  0  0  0
   18.1682  -24.5945   -7.3720 C   0  0  0  0  0  0  0  0  0  0  0  0
   19.8401  -23.9642   -7.1321 S   0  0  0  0  0  0  0  0  0  0  0  0
   16.5985  -25.4937   -9.1144 C   0  0  0  0  0  0  0  0  0  0  0  0
   15.7764  -24.6322   -9.5343 O   0  0  0  0  0  0  0  0  0  0  0  0
   12.4067  -29.2647   -9.2088 C   0  0  0  0  0  0  0  0  0  0  0  0
   13.3405  -28.9900  -10.3261 C   0  0  2  0  0  0  0  0  0  0  0  0
   13.5577  -30.2891  -11.1509 C   0  0  0  0  0  0  0  0  0  0  0  0
   14.6471  -28.4068   -9.9938 C   0  0  0  0  0  0  0  0  0  0  0  0
   14.6698  -27.1237   -9.2721 C   0  0  2  0  0  0  0  0  0  0  0  0
   16.1265  -26.8073   -8.9992 N   0  0  0  0  0  0  0  0  0  0  0  0
   14.0258  -27.0616   -7.9779 C   0  0  0  0  0  0  0  0  0  0  0  0
   12.7725  -26.5529   -7.7435 O   0  0  0  0  0  0  0  0  0  0  0  0
   14.6412  -27.4977   -6.9265 O   0  0  0  0  0  0  0  0  0  0  0  0
  2  1  1  1
  2  3  1  0
  2 13  1  0
  3  4  1  0
  4  5  2  0
  5  6  1  0
  7  8  2  0
  7  6  1  0
  9  8  1  0
 10  9  2  0
 11 10  1  0
 11 12  2  0
 12  4  1  0
 12  7  1  0
 13 15  1  0
 13 14  2  0
 15 16  1  0
 16 17  1  1
 18 17  1  0
 19 16  1  0
 19 20  2  0
 22 21  1  1
 23 22  1  0
 24 22  1  0
 25 24  1  1
 25 26  1  0
 26 19  1  0
 27 28  1  0
 27 25  1  0
 29 27  2  0
M  END
$$$$
