WCL.pdb
     RDKit          3D

 29 30  0  0  1  0  0  0  0  0999 V2000
   22.3831  -12.3363  -19.4009 N   0  0  0  0  0  0  0  0  0  0  0  0
   22.6418  -11.2656  -18.4778 C   0  0  1  0  0  0  0  0  0  0  0  0
   23.9592  -10.6393  -18.7500 C   0  0  0  0  0  0  0  0  0  0  0  0
   25.1316  -11.4756  -18.4031 C   0  0  0  0  0  0  0  0  0  0  0  0
   25.6943  -12.4976  -19.1302 C   0  0  0  0  0  0  0  0  0  0  0  0
   26.7534  -12.9346  -18.4483 N   0  0  0  0  0  0  0  0  0  0  0  0
   26.9224  -12.2506  -17.2980 C   0  0  0  0  0  0  0  0  0  0  0  0
   27.8140  -12.3018  -16.2674 C   0  0  0  0  0  0  0  0  0  0  0  0
   27.7111  -11.4554  -15.2010 C   0  0  0  0  0  0  0  0  0  0  0  0
   26.6987  -10.5340  -15.1530 C   0  0  0  0  0  0  0  0  0  0  0  0
   25.7923  -10.4604  -16.1710 C   0  0  0  0  0  0  0  0  0  0  0  0
   25.8906  -11.3238  -17.2700 C   0  0  0  0  0  0  0  0  0  0  0  0
   21.5112  -10.3084  -18.5598 C   0  0  0  0  0  0  0  0  0  0  0  0
   21.1628   -9.7905  -19.6478 O   0  0  0  0  0  0  0  0  0  0  0  0
   20.7884   -9.9486  -17.4081 N   0  0  0  0  0  0  0  0  0  0  0  0
   19.7364   -8.9359  -17.4290 C   0  0  1  0  0  0  0  0  0  0  0  0
   18.3803   -9.5857  -17.3944 C   0  0  0  0  0  0  0  0  0  0  0  0
   18.4971  -11.3499  -17.7465 S   0  0  0  0  0  0  0  0  0  0  0  0
   20.0091   -7.9915  -16.3390 C   0  0  0  0  0  0  0  0  0  0  0  0
   20.9213   -8.2822  -15.5158 O   0  0  0  0  0  0  0  0  0  0  0  0
   23.2705   -3.9294  -15.4917 C   0  0  0  0  0  0  0  0  0  0  0  0
   21.9861   -4.3788  -14.9050 C   0  0  2  0  0  0  0  0  0  0  0  0
   22.2089   -4.7879  -13.4224 C   0  0  0  0  0  0  0  0  0  0  0  0
   21.2604   -5.4526  -15.5967 C   0  0  0  0  0  0  0  0  0  0  0  0
   19.8898   -5.7587  -15.1548 C   0  0  2  0  0  0  0  0  0  0  0  0
   19.3392   -6.7793  -16.1304 N   0  0  0  0  0  0  0  0  0  0  0  0
   18.9212   -4.6837  -15.1536 C   0  0  0  0  0  0  0  0  0  0  0  0
   18.5281   -3.9768  -14.0444 O   0  0  0  0  0  0  0  0  0  0  0  0
   18.3451   -4.3296  -16.2567 O   0  0  0  0  0  0  0  0  0  0  0  0
  2  1  1  6
  2  3  1  0
  2 13  1  0
  3  4  1  0
  4  5  2  0
  5  6  1  0
  7  8  2  0
  7  6  1  0
  9  8  1  0
 10  9  2  0
 11 10  1  0
 11 12  2  0
 12  4  1  0
 12  7  1  0
 13 15  1  0
 13 14  2  0
 15 16  1  0
 16 17  1  1
 18 17  1  0
 19 16  1  0
 19 20  2  0
 22 21  1  6
 23 22  1  0
 24 22  1  0
 25 24  1  6
 25 26  1  0
 26 19  1  0
 27 28  1  0
 27 25  1  0
 29 27  2  0
M  END
$$$$
