WCL.pdb
     RDKit          3D

 29 30  0  0  1  0  0  0  0  0999 V2000
   24.8679  -17.9568  -15.3179 N   0  0  0  0  0  0  0  0  0  0  0  0
   25.9785  -18.3234  -14.4826 C   0  0  1  0  0  0  0  0  0  0  0  0
   26.7135  -17.1197  -14.0214 C   0  0  0  0  0  0  0  0  0  0  0  0
   27.3421  -16.3211  -15.0990 C   0  0  0  0  0  0  0  0  0  0  0  0
   27.2329  -14.9710  -15.3334 C   0  0  0  0  0  0  0  0  0  0  0  0
   28.0014  -14.6864  -16.3851 N   0  0  0  0  0  0  0  0  0  0  0  0
   28.6182  -15.7864  -16.8638 C   0  0  0  0  0  0  0  0  0  0  0  0
   29.4751  -16.0406  -17.8937 C   0  0  0  0  0  0  0  0  0  0  0  0
   29.9299  -17.3043  -18.1394 C   0  0  0  0  0  0  0  0  0  0  0  0
   29.5259  -18.3443  -17.3448 C   0  0  0  0  0  0  0  0  0  0  0  0
   28.6690  -18.1185  -16.3064 C   0  0  0  0  0  0  0  0  0  0  0  0
   28.1979  -16.8250  -16.0458 C   0  0  0  0  0  0  0  0  0  0  0  0
   25.4578  -19.1533  -13.3683 C   0  0  0  0  0  0  0  0  0  0  0  0
   24.3822  -18.8756  -12.7857 O   0  0  0  0  0  0  0  0  0  0  0  0
   26.1618  -20.2880  -12.9266 N   0  0  0  0  0  0  0  0  0  0  0  0
   25.7289  -21.0795  -11.7783 C   0  0  1  0  0  0  0  0  0  0  0  0
   25.9786  -22.5423  -12.0239 C   0  0  0  0  0  0  0  0  0  0  0  0
   25.7587  -23.5006  -10.5129 S   0  0  0  0  0  0  0  0  0  0  0  0
   26.3788  -20.5223  -10.5860 C   0  0  0  0  0  0  0  0  0  0  0  0
   27.6029  -20.2223  -10.6625 O   0  0  0  0  0  0  0  0  0  0  0  0
   28.2459  -18.4124   -5.6083 C   0  0  0  0  0  0  0  0  0  0  0  0
   27.8339  -19.6754   -6.2649 C   0  0  2  0  0  0  0  0  0  0  0  0
   29.0510  -20.6384   -6.3450 C   0  0  0  0  0  0  0  0  0  0  0  0
   27.2069  -19.5809   -7.5900 C   0  0  0  0  0  0  0  0  0  0  0  0
   26.4132  -20.7266   -8.0642 C   0  0  2  0  0  0  0  0  0  0  0  0
   25.7517  -20.2890   -9.3555 N   0  0  0  0  0  0  0  0  0  0  0  0
   25.3278  -21.1927   -7.2285 C   0  0  0  0  0  0  0  0  0  0  0  0
   23.9998  -21.1734   -7.5759 O   0  0  0  0  0  0  0  0  0  0  0  0
   25.5748  -21.6643   -6.0492 O   0  0  0  0  0  0  0  0  0  0  0  0
  2  1  1  6
  2  3  1  0
  2 13  1  0
  3  4  1  0
  4  5  2  0
  5  6  1  0
  7  8  2  0
  7  6  1  0
  9  8  1  0
 10  9  2  0
 11 10  1  0
 11 12  2  0
 12  4  1  0
 12  7  1  0
 13 15  1  0
 13 14  2  0
 15 16  1  0
 16 17  1  6
 18 17  1  0
 19 16  1  0
 19 20  2  0
 22 21  1  6
 23 22  1  0
 24 22  1  0
 25 24  1  1
 25 26  1  0
 26 19  1  0
 27 28  1  0
 27 25  1  0
 29 27  2  0
M  END
$$$$
