WCL.pdb
     RDKit          3D

 29 30  0  0  1  0  0  0  0  0999 V2000
   25.7168  -19.0857  -11.8383 N   0  0  0  0  0  0  0  0  0  0  0  0
   26.6189  -20.1596  -12.1522 C   0  0  1  0  0  0  0  0  0  0  0  0
   26.3890  -21.3217  -11.2586 C   0  0  0  0  0  0  0  0  0  0  0  0
   26.2800  -20.9904   -9.8190 C   0  0  0  0  0  0  0  0  0  0  0  0
   25.1415  -20.8201   -9.0676 C   0  0  0  0  0  0  0  0  0  0  0  0
   25.5251  -20.5726   -7.8149 N   0  0  0  0  0  0  0  0  0  0  0  0
   26.8687  -20.5691   -7.6965 C   0  0  0  0  0  0  0  0  0  0  0  0
   27.7463  -20.3664   -6.6726 C   0  0  0  0  0  0  0  0  0  0  0  0
   29.0953  -20.4177   -6.8773 C   0  0  0  0  0  0  0  0  0  0  0  0
   29.5889  -20.6764   -8.1285 C   0  0  0  0  0  0  0  0  0  0  0  0
   28.7334  -20.8837   -9.1717 C   0  0  0  0  0  0  0  0  0  0  0  0
   27.3476  -20.8343   -8.9712 C   0  0  0  0  0  0  0  0  0  0  0  0
   26.4571  -20.4868  -13.5903 C   0  0  0  0  0  0  0  0  0  0  0  0
   25.3594  -20.3437  -14.1799 O   0  0  0  0  0  0  0  0  0  0  0  0
   27.5409  -20.9725  -14.3437 N   0  0  0  0  0  0  0  0  0  0  0  0
   27.5039  -21.0607  -15.8009 C   0  0  1  0  0  0  0  0  0  0  0  0
   28.8508  -20.7286  -16.3822 C   0  0  0  0  0  0  0  0  0  0  0  0
   29.2083  -18.9684  -16.2269 S   0  0  0  0  0  0  0  0  0  0  0  0
   26.9772  -22.3852  -16.1513 C   0  0  0  0  0  0  0  0  0  0  0  0
   27.3186  -23.3680  -15.4359 O   0  0  0  0  0  0  0  0  0  0  0  0
   21.7678  -23.5292  -16.3671 C   0  0  0  0  0  0  0  0  0  0  0  0
   22.8569  -23.2421  -15.4040 C   0  0  2  0  0  0  0  0  0  0  0  0
   22.3147  -22.3357  -14.2641 C   0  0  0  0  0  0  0  0  0  0  0  0
   24.0976  -22.6599  -15.9330 C   0  0  0  0  0  0  0  0  0  0  0  0
   24.8138  -23.3964  -16.9876 C   0  0  2  0  0  0  0  0  0  0  0  0
   26.1162  -22.6578  -17.2218 N   0  0  0  0  0  0  0  0  0  0  0  0
   24.1956  -23.4852  -18.2928 C   0  0  0  0  0  0  0  0  0  0  0  0
   24.0618  -22.4423  -19.1754 O   0  0  0  0  0  0  0  0  0  0  0  0
   23.7064  -24.6108  -18.7027 O   0  0  0  0  0  0  0  0  0  0  0  0
  2  1  1  1
  2  3  1  0
  2 13  1  0
  3  4  1  0
  4  5  2  0
  5  6  1  0
  7  8  2  0
  7  6  1  0
  9  8  1  0
 10  9  2  0
 11 10  1  0
 11 12  2  0
 12  4  1  0
 12  7  1  0
 13 15  1  0
 13 14  2  0
 15 16  1  0
 16 17  1  6
 18 17  1  0
 19 16  1  0
 19 20  2  0
 22 21  1  6
 23 22  1  0
 24 22  1  0
 25 24  1  1
 25 26  1  0
 26 19  1  0
 27 28  1  0
 27 25  1  0
 29 27  2  0
M  END
$$$$
