WCL.pdb
     RDKit          3D

 29 30  0  0  1  0  0  0  0  0999 V2000
   24.4823  -21.3355  -14.1190 N   0  0  0  0  0  0  0  0  0  0  0  0
   24.3401  -21.0906  -12.7100 C   0  0  1  0  0  0  0  0  0  0  0  0
   23.1687  -21.8184  -12.1622 C   0  0  0  0  0  0  0  0  0  0  0  0
   21.8513  -21.2821  -12.5758 C   0  0  0  0  0  0  0  0  0  0  0  0
   21.0931  -21.6329  -13.6675 C   0  0  0  0  0  0  0  0  0  0  0  0
   19.9676  -20.9200  -13.6157 N   0  0  0  0  0  0  0  0  0  0  0  0
   19.9409  -20.1083  -12.5387 C   0  0  0  0  0  0  0  0  0  0  0  0
   19.0576  -19.1974  -12.0390 C   0  0  0  0  0  0  0  0  0  0  0  0
   19.3301  -18.5019  -10.8961 C   0  0  0  0  0  0  0  0  0  0  0  0
   20.5081  -18.7133  -10.2300 C   0  0  0  0  0  0  0  0  0  0  0  0
   21.4104  -19.6196  -10.7074 C   0  0  0  0  0  0  0  0  0  0  0  0
   21.1391  -20.3389  -11.8787 C   0  0  0  0  0  0  0  0  0  0  0  0
   25.6176  -21.4585  -12.0510 C   0  0  0  0  0  0  0  0  0  0  0  0
   26.0248  -22.6443  -12.0173 O   0  0  0  0  0  0  0  0  0  0  0  0
   26.4187  -20.4786  -11.4377 N   0  0  0  0  0  0  0  0  0  0  0  0
   27.5906  -20.8163  -10.6346 C   0  0  1  0  0  0  0  0  0  0  0  0
   28.8355  -20.2424  -11.2538 C   0  0  0  0  0  0  0  0  0  0  0  0
   30.2409  -20.3815  -10.1333 S   0  0  0  0  0  0  0  0  0  0  0  0
   27.3205  -20.3908   -9.2560 C   0  0  0  0  0  0  0  0  0  0  0  0
   26.5237  -19.4277   -9.0773 O   0  0  0  0  0  0  0  0  0  0  0  0
   29.5817  -21.2280   -3.5224 C   0  0  0  0  0  0  0  0  0  0  0  0
   28.5507  -20.6295   -4.4025 C   0  0  2  0  0  0  0  0  0  0  0  0
   27.1501  -20.8026   -3.7517 C   0  0  0  0  0  0  0  0  0  0  0  0
   28.4941  -21.0906   -5.7961 C   0  0  0  0  0  0  0  0  0  0  0  0
   27.7175  -20.2922   -6.7591 C   0  0  2  0  0  0  0  0  0  0  0  0
   27.8743  -20.9681   -8.1063 N   0  0  0  0  0  0  0  0  0  0  0  0
   28.1179  -18.9197   -6.9815 C   0  0  0  0  0  0  0  0  0  0  0  0
   27.5293  -17.8223   -6.4036 O   0  0  0  0  0  0  0  0  0  0  0  0
   29.0950  -18.6523   -7.7864 O   0  0  0  0  0  0  0  0  0  0  0  0
  2  1  1  6
  2  3  1  0
  2 13  1  0
  3  4  1  0
  4  5  2  0
  5  6  1  0
  7  8  2  0
  7  6  1  0
  9  8  1  0
 10  9  2  0
 11 10  1  0
 11 12  2  0
 12  4  1  0
 12  7  1  0
 13 15  1  0
 13 14  2  0
 15 16  1  0
 16 17  1  6
 18 17  1  0
 19 16  1  0
 19 20  2  0
 22 21  1  1
 23 22  1  0
 24 22  1  0
 25 24  1  1
 25 26  1  0
 26 19  1  0
 27 28  1  0
 27 25  1  0
 29 27  2  0
M  END
$$$$
