WCL.pdb
     RDKit          3D

 29 30  0  0  1  0  0  0  0  0999 V2000
   24.6628  -21.2366   -8.0641 N   0  0  0  0  0  0  0  0  0  0  0  0
   25.6490  -20.5369   -8.8409 C   0  0  1  0  0  0  0  0  0  0  0  0
   27.0144  -20.7991   -8.3223 C   0  0  0  0  0  0  0  0  0  0  0  0
   27.4777  -19.8557   -7.2786 C   0  0  0  0  0  0  0  0  0  0  0  0
   27.0925  -18.5515   -7.0772 C   0  0  0  0  0  0  0  0  0  0  0  0
   27.7396  -18.1077   -5.9992 N   0  0  0  0  0  0  0  0  0  0  0  0
   28.5402  -19.0570   -5.4725 C   0  0  0  0  0  0  0  0  0  0  0  0
   29.3954  -19.1180   -4.4120 C   0  0  0  0  0  0  0  0  0  0  0  0
   30.0965  -20.2561   -4.1339 C   0  0  0  0  0  0  0  0  0  0  0  0
   29.9476  -21.3632   -4.9265 C   0  0  0  0  0  0  0  0  0  0  0  0
   29.0980  -21.3304   -5.9945 C   0  0  0  0  0  0  0  0  0  0  0  0
   28.3734  -20.1675   -6.2869 C   0  0  0  0  0  0  0  0  0  0  0  0
   25.4768  -20.9318  -10.2607 C   0  0  0  0  0  0  0  0  0  0  0  0
   26.1198  -21.8843  -10.7631 O   0  0  0  0  0  0  0  0  0  0  0  0
   24.5783  -20.2427  -11.0950 N   0  0  0  0  0  0  0  0  0  0  0  0
   23.9854  -20.8546  -12.2810 C   0  0  1  0  0  0  0  0  0  0  0  0
   22.5497  -20.4312  -12.4290 C   0  0  0  0  0  0  0  0  0  0  0  0
   21.5622  -20.9842  -11.0258 S   0  0  0  0  0  0  0  0  0  0  0  0
   24.8540  -20.5417  -13.4221 C   0  0  0  0  0  0  0  0  0  0  0  0
   25.2972  -19.3639  -13.5254 O   0  0  0  0  0  0  0  0  0  0  0  0
   28.8220  -20.9339  -17.1879 C   0  0  0  0  0  0  0  0  0  0  0  0
   28.5638  -21.7373  -15.9698 C   0  0  2  0  0  0  0  0  0  0  0  0
   29.4301  -23.0269  -16.0067 C   0  0  0  0  0  0  0  0  0  0  0  0
   27.1711  -22.1012  -15.6768 C   0  0  0  0  0  0  0  0  0  0  0  0
   26.1898  -21.0151  -15.5182 C   0  0  2  0  0  0  0  0  0  0  0  0
   25.2414  -21.4471  -14.4180 N   0  0  0  0  0  0  0  0  0  0  0  0
   25.3368  -20.7014  -16.6441 C   0  0  0  0  0  0  0  0  0  0  0  0
   25.6482  -19.8187  -17.6484 O   0  0  0  0  0  0  0  0  0  0  0  0
   24.1762  -21.2627  -16.7537 O   0  0  0  0  0  0  0  0  0  0  0  0
  2  1  1  1
  2  3  1  0
  2 13  1  0
  3  4  1  0
  4  5  2  0
  5  6  1  0
  7  8  2  0
  7  6  1  0
  9  8  1  0
 10  9  2  0
 11 10  1  0
 11 12  2  0
 12  4  1  0
 12  7  1  0
 13 15  1  0
 13 14  2  0
 15 16  1  0
 16 17  1  6
 18 17  1  0
 19 16  1  0
 19 20  2  0
 22 21  1  6
 23 22  1  0
 24 22  1  0
 25 24  1  6
 25 26  1  0
 26 19  1  0
 27 28  1  0
 27 25  1  0
 29 27  2  0
M  END
$$$$
