DMH.pdb
     RDKit          3D

 27 27  0  0  1  0  0  0  0  0999 V2000
    9.6284  -17.0421   19.6072 N   0  0  0  0  0  0  0  0  0  0  0  0
    8.8491  -17.4134   20.8191 C   0  0  1  0  0  0  0  0  0  0  0  0
    9.3570  -18.7728   21.2002 C   0  0  0  0  0  0  0  0  0  0  0  0
    9.2594  -19.7523   20.1117 C   0  0  0  0  0  0  0  0  0  0  0  0
    8.9912  -19.3142   18.9581 O   0  0  0  0  0  0  0  0  0  0  0  0
    9.1877  -16.3890   21.8427 C   0  0  0  0  0  0  0  0  0  0  0  0
   10.3735  -16.0143   21.8756 O   0  0  0  0  0  0  0  0  0  0  0  0
    9.4507  -21.0997   20.3263 O   0  0  0  0  0  0  0  0  0  0  0  0
    6.4956  -11.6393   27.6383 C   0  0  0  0  0  0  0  0  0  0  0  0
    6.0549  -12.3730   26.0352 S   0  0  0  0  0  0  0  0  0  0  0  0
    7.4994  -13.1969   25.3841 C   0  0  0  0  0  0  0  0  0  0  0  0
    7.2493  -14.1819   24.2764 C   0  0  0  0  0  0  0  0  0  0  0  0
    8.4169  -14.9038   23.7799 C   0  0  2  0  0  0  0  0  0  0  0  0
    8.2183  -15.8562   22.7320 N   0  0  0  0  0  0  0  0  0  0  0  0
    9.4683  -15.2947   24.7140 C   0  0  0  0  0  0  0  0  0  0  0  0
    9.8903  -14.4662   25.5544 O   0  0  0  0  0  0  0  0  0  0  0  0
   10.0309  -16.6089   24.6935 N   0  0  0  0  0  0  0  0  0  0  0  0
   10.9752  -16.9506   25.7332 C   0  0  1  0  0  0  0  0  0  0  0  0
   10.2250  -16.9661   27.0493 C   0  0  0  0  0  0  0  0  0  0  0  0
   10.4625  -15.7838   27.8787 C   0  0  0  0  0  0  0  0  0  0  0  0
   11.0619  -14.6047   27.5162 C   0  0  0  0  0  0  0  0  0  0  0  0
   11.1017  -13.7566   28.5897 N   0  0  0  0  0  0  0  0  0  0  0  0
   10.5346  -14.4045   29.6033 C   0  0  0  0  0  0  0  0  0  0  0  0
   10.1425  -15.6250   29.1996 N   0  0  0  0  0  0  0  0  0  0  0  0
   11.5000  -18.2999   25.4594 C   0  0  0  0  0  0  0  0  0  0  0  0
   11.0371  -18.9710   24.5111 O   0  0  0  0  0  0  0  0  0  0  0  0
   12.5042  -18.8260   26.2492 O   0  0  0  0  0  0  0  0  0  0  0  0
  2  1  1  6
  2  3  1  0
  3  4  1  0
  4  5  2  0
  6  7  2  0
  6  2  1  0
  8  4  1  0
  9 10  1  0
 10 11  1  0
 11 12  1  0
 13 12  1  1
 13 14  1  0
 14  6  1  0
 15 16  2  0
 15 13  1  0
 17 15  1  0
 18 19  1  1
 18 17  1  0
 20 24  1  0
 20 19  1  0
 21 20  2  0
 22 21  1  0
 22 23  1  0
 23 24  2  0
 25 18  1  0
 26 25  2  0
 27 25  1  0
M  END
$$$$
