DMH.pdb
     RDKit          3D

 27 27  0  0  1  0  0  0  0  0999 V2000
    9.9668  -15.9011   19.2781 N   0  0  0  0  0  0  0  0  0  0  0  0
    8.7961  -16.2967   20.1068 C   0  0  1  0  0  0  0  0  0  0  0  0
    8.7426  -17.7927   20.0057 C   0  0  0  0  0  0  0  0  0  0  0  0
    8.3319  -18.2681   18.6794 C   0  0  0  0  0  0  0  0  0  0  0  0
    7.5888  -17.5104   17.9950 O   0  0  0  0  0  0  0  0  0  0  0  0
    9.1126  -15.8462   21.4884 C   0  0  0  0  0  0  0  0  0  0  0  0
   10.2808  -16.0317   21.8741 O   0  0  0  0  0  0  0  0  0  0  0  0
    8.7341  -19.4909   18.1882 O   0  0  0  0  0  0  0  0  0  0  0  0
    7.0324  -11.7404   27.9604 C   0  0  0  0  0  0  0  0  0  0  0  0
    6.5265  -12.1276   26.2584 S   0  0  0  0  0  0  0  0  0  0  0  0
    7.5469  -13.4681   25.6657 C   0  0  0  0  0  0  0  0  0  0  0  0
    7.3797  -13.8280   24.2157 C   0  0  0  0  0  0  0  0  0  0  0  0
    8.2874  -14.8461   23.6955 C   0  0  2  0  0  0  0  0  0  0  0  0
    8.1457  -15.2310   22.3257 N   0  0  0  0  0  0  0  0  0  0  0  0
    8.6962  -15.9500   24.5587 C   0  0  0  0  0  0  0  0  0  0  0  0
    7.9273  -16.9260   24.7228 O   0  0  0  0  0  0  0  0  0  0  0  0
    9.9614  -15.9446   25.2246 N   0  0  0  0  0  0  0  0  0  0  0  0
   10.4084  -17.1810   25.8254 C   0  0  1  0  0  0  0  0  0  0  0  0
   11.8175  -17.4470   25.3368 C   0  0  0  0  0  0  0  0  0  0  0  0
   12.4516  -18.6068   25.9654 C   0  0  0  0  0  0  0  0  0  0  0  0
   11.8547  -19.6044   26.6930 C   0  0  0  0  0  0  0  0  0  0  0  0
   12.8012  -20.4971   27.1179 N   0  0  0  0  0  0  0  0  0  0  0  0
   13.9688  -20.0556   26.6591 C   0  0  0  0  0  0  0  0  0  0  0  0
   13.7835  -18.9208   25.9633 N   0  0  0  0  0  0  0  0  0  0  0  0
   10.4283  -17.0065   27.2883 C   0  0  0  0  0  0  0  0  0  0  0  0
   10.7361  -17.9659   28.0291 O   0  0  0  0  0  0  0  0  0  0  0  0
   10.1076  -15.7830   27.8443 O   0  0  0  0  0  0  0  0  0  0  0  0
  2  1  1  6
  2  3  1  0
  3  4  1  0
  4  5  2  0
  6  7  2  0
  6  2  1  0
  8  4  1  0
  9 10  1  0
 10 11  1  0
 11 12  1  0
 13 12  1  1
 13 14  1  0
 14  6  1  0
 15 16  2  0
 15 13  1  0
 17 15  1  0
 18 19  1  6
 18 17  1  0
 20 24  1  0
 20 19  1  0
 21 20  2  0
 22 21  1  0
 22 23  1  0
 23 24  2  0
 25 18  1  0
 26 25  2  0
 27 25  1  0
M  END
$$$$
