DMH.pdb
     RDKit          3D

 27 27  0  0  1  0  0  0  0  0999 V2000
    9.6032  -17.4335   20.5339 N   0  0  0  0  0  0  0  0  0  0  0  0
    8.3256  -17.6431   21.2672 C   0  0  1  0  0  0  0  0  0  0  0  0
    8.1609  -19.1330   21.3326 C   0  0  0  0  0  0  0  0  0  0  0  0
    7.7643  -19.7275   20.0508 C   0  0  0  0  0  0  0  0  0  0  0  0
    7.6987  -18.9603   19.0500 O   0  0  0  0  0  0  0  0  0  0  0  0
    8.5349  -17.0496   22.6147 C   0  0  0  0  0  0  0  0  0  0  0  0
    9.5381  -17.4397   23.2385 O   0  0  0  0  0  0  0  0  0  0  0  0
    7.4721  -21.0685   19.9304 O   0  0  0  0  0  0  0  0  0  0  0  0
    7.2381  -11.3951   27.8494 C   0  0  0  0  0  0  0  0  0  0  0  0
    7.0611  -11.9202   26.1187 S   0  0  0  0  0  0  0  0  0  0  0  0
    6.9944  -13.7044   26.0823 C   0  0  0  0  0  0  0  0  0  0  0  0
    6.8644  -14.3283   24.7208 C   0  0  0  0  0  0  0  0  0  0  0  0
    7.6756  -15.5170   24.4763 C   0  0  2  0  0  0  0  0  0  0  0  0
    7.6501  -16.0856   23.1646 N   0  0  0  0  0  0  0  0  0  0  0  0
    7.8152  -16.5183   25.5292 C   0  0  0  0  0  0  0  0  0  0  0  0
    6.9624  -17.4308   25.6337 O   0  0  0  0  0  0  0  0  0  0  0  0
    8.9089  -16.4831   26.4493 N   0  0  0  0  0  0  0  0  0  0  0  0
    9.0544  -17.5953   27.3611 C   0  0  1  0  0  0  0  0  0  0  0  0
    9.5960  -18.7696   26.5719 C   0  0  0  0  0  0  0  0  0  0  0  0
    8.5974  -19.8014   26.2878 C   0  0  0  0  0  0  0  0  0  0  0  0
    7.2878  -19.8431   26.6928 C   0  0  0  0  0  0  0  0  0  0  0  0
    6.6953  -20.9854   26.2264 N   0  0  0  0  0  0  0  0  0  0  0  0
    7.6282  -21.6417   25.5424 C   0  0  0  0  0  0  0  0  0  0  0  0
    8.7798  -20.9492   25.5655 N   0  0  0  0  0  0  0  0  0  0  0  0
   10.0292  -17.2200   28.4003 C   0  0  0  0  0  0  0  0  0  0  0  0
   10.6166  -16.1176   28.3387 O   0  0  0  0  0  0  0  0  0  0  0  0
   10.2958  -18.0844   29.4446 O   0  0  0  0  0  0  0  0  0  0  0  0
  2  1  1  6
  2  3  1  0
  3  4  1  0
  4  5  2  0
  6  7  2  0
  6  2  1  0
  8  4  1  0
  9 10  1  0
 10 11  1  0
 11 12  1  0
 13 12  1  1
 13 14  1  0
 14  6  1  0
 15 16  2  0
 15 13  1  0
 17 15  1  0
 18 19  1  6
 18 17  1  0
 20 24  1  0
 20 19  1  0
 21 20  2  0
 22 21  1  0
 22 23  1  0
 23 24  2  0
 25 18  1  0
 26 25  2  0
 27 25  1  0
M  END
$$$$
