DMH.pdb
     RDKit          3D

 27 27  0  0  1  0  0  0  0  0999 V2000
   10.1068  -16.7191   18.6040 N   0  0  0  0  0  0  0  0  0  0  0  0
    9.0041  -17.0230   19.5556 C   0  0  1  0  0  0  0  0  0  0  0  0
    9.0462  -18.5128   19.7284 C   0  0  0  0  0  0  0  0  0  0  0  0
    8.8063  -19.2464   18.4802 C   0  0  0  0  0  0  0  0  0  0  0  0
    8.0335  -18.7161   17.6339 O   0  0  0  0  0  0  0  0  0  0  0  0
    9.3524  -16.3098   20.8134 C   0  0  0  0  0  0  0  0  0  0  0  0
   10.5630  -16.2459   21.0931 O   0  0  0  0  0  0  0  0  0  0  0  0
    9.3948  -20.4665   18.2289 O   0  0  0  0  0  0  0  0  0  0  0  0
    6.8340  -11.8326   26.9045 C   0  0  0  0  0  0  0  0  0  0  0  0
    6.2513  -12.8756   25.5351 S   0  0  0  0  0  0  0  0  0  0  0  0
    7.6801  -13.5245   24.6826 C   0  0  0  0  0  0  0  0  0  0  0  0
    7.3946  -14.4754   23.5538 C   0  0  0  0  0  0  0  0  0  0  0  0
    8.5568  -15.0878   22.9173 C   0  0  2  0  0  0  0  0  0  0  0  0
    8.3674  -15.7246   21.6510 N   0  0  0  0  0  0  0  0  0  0  0  0
    9.5606  -15.7504   23.7443 C   0  0  0  0  0  0  0  0  0  0  0  0
   10.7758  -15.5055   23.5596 O   0  0  0  0  0  0  0  0  0  0  0  0
    9.1881  -16.6773   24.7671 N   0  0  0  0  0  0  0  0  0  0  0  0
    9.8983  -16.6101   26.0243 C   0  0  1  0  0  0  0  0  0  0  0  0
    9.5757  -15.2754   26.6644 C   0  0  0  0  0  0  0  0  0  0  0  0
   10.1801  -15.0919   27.9847 C   0  0  0  0  0  0  0  0  0  0  0  0
   10.9805  -15.9653   28.6756 C   0  0  0  0  0  0  0  0  0  0  0  0
   11.3274  -15.4198   29.8820 N   0  0  0  0  0  0  0  0  0  0  0  0
   10.7474  -14.2242   29.9359 C   0  0  0  0  0  0  0  0  0  0  0  0
   10.0525  -14.0053   28.8065 N   0  0  0  0  0  0  0  0  0  0  0  0
    9.4086  -17.6945   26.8934 C   0  0  0  0  0  0  0  0  0  0  0  0
    8.2181  -18.0698   26.8156 O   0  0  0  0  0  0  0  0  0  0  0  0
   10.2632  -18.2989   27.7953 O   0  0  0  0  0  0  0  0  0  0  0  0
  2  1  1  6
  2  3  1  0
  3  4  1  0
  4  5  2  0
  6  7  2  0
  6  2  1  0
  8  4  1  0
  9 10  1  0
 10 11  1  0
 11 12  1  0
 13 12  1  1
 13 14  1  0
 14  6  1  0
 15 16  2  0
 15 13  1  0
 17 15  1  0
 18 19  1  1
 18 17  1  0
 20 24  1  0
 20 19  1  0
 21 20  2  0
 22 21  1  0
 22 23  1  0
 23 24  2  0
 25 18  1  0
 26 25  2  0
 27 25  1  0
M  END
$$$$
