DMH.pdb
     RDKit          3D

 27 27  0  0  1  0  0  0  0  0999 V2000
    8.1903  -17.5328   20.8080 N   0  0  0  0  0  0  0  0  0  0  0  0
    9.3963  -16.6667   20.7123 C   0  0  1  0  0  0  0  0  0  0  0  0
    9.2347  -15.9258   19.4177 C   0  0  0  0  0  0  0  0  0  0  0  0
    9.1940  -16.8099   18.2470 C   0  0  0  0  0  0  0  0  0  0  0  0
   10.1535  -17.6164   18.0943 O   0  0  0  0  0  0  0  0  0  0  0  0
    9.3283  -15.7541   21.8846 C   0  0  0  0  0  0  0  0  0  0  0  0
   10.2631  -14.9421   22.0055 O   0  0  0  0  0  0  0  0  0  0  0  0
    8.1555  -16.7716   17.3423 O   0  0  0  0  0  0  0  0  0  0  0  0
    6.8657  -11.5721   27.5175 C   0  0  0  0  0  0  0  0  0  0  0  0
    6.8221  -12.2051   25.8145 S   0  0  0  0  0  0  0  0  0  0  0  0
    6.8594  -13.9893   25.8827 C   0  0  0  0  0  0  0  0  0  0  0  0
    6.8817  -14.6960   24.5561 C   0  0  0  0  0  0  0  0  0  0  0  0
    8.1854  -15.1674   24.0988 C   0  0  2  0  0  0  0  0  0  0  0  0
    8.2573  -15.7935   22.8152 N   0  0  0  0  0  0  0  0  0  0  0  0
    9.1205  -15.7369   25.0642 C   0  0  0  0  0  0  0  0  0  0  0  0
    9.2205  -15.2276   26.2049 O   0  0  0  0  0  0  0  0  0  0  0  0
    9.9294  -16.8696   24.7375 N   0  0  0  0  0  0  0  0  0  0  0  0
   10.7450  -17.4366   25.7876 C   0  0  1  0  0  0  0  0  0  0  0  0
   10.3570  -18.8935   25.9358 C   0  0  0  0  0  0  0  0  0  0  0  0
    9.1432  -19.1042   26.7260 C   0  0  0  0  0  0  0  0  0  0  0  0
    8.7379  -18.4272   27.8477 C   0  0  0  0  0  0  0  0  0  0  0  0
    7.5496  -18.9397   28.2935 N   0  0  0  0  0  0  0  0  0  0  0  0
    7.2255  -19.9221   27.4577 C   0  0  0  0  0  0  0  0  0  0  0  0
    8.1685  -20.0394   26.5073 N   0  0  0  0  0  0  0  0  0  0  0  0
   12.1574  -17.3514   25.3766 C   0  0  0  0  0  0  0  0  0  0  0  0
   12.4567  -16.8733   24.2604 O   0  0  0  0  0  0  0  0  0  0  0  0
   13.1534  -17.7988   26.2232 O   0  0  0  0  0  0  0  0  0  0  0  0
  2  1  1  1
  2  3  1  0
  3  4  1  0
  4  5  2  0
  6  7  2  0
  6  2  1  0
  8  4  1  0
  9 10  1  0
 10 11  1  0
 11 12  1  0
 13 12  1  1
 13 14  1  0
 14  6  1  0
 15 16  2  0
 15 13  1  0
 17 15  1  0
 18 19  1  6
 18 17  1  0
 20 24  1  0
 20 19  1  0
 21 20  2  0
 22 21  1  0
 22 23  1  0
 23 24  2  0
 25 18  1  0
 26 25  2  0
 27 25  1  0
M  END
$$$$
