CKK.pdb
     RDKit          3D

 25 24  0  0  1  0  0  0  0  0999 V2000
   11.1247  -18.5653   17.0241 N   0  0  0  0  0  0  0  0  0  0  0  0
   10.6293  -19.0984   18.2635 C   0  0  1  0  0  0  0  0  0  0  0  0
   11.2387  -20.4614   18.5061 C   0  0  0  0  0  0  0  0  0  0  0  0
   10.6031  -21.0771   20.0897 S   0  0  0  0  0  0  0  0  0  0  0  0
   10.9398  -18.1506   19.3554 C   0  0  0  0  0  0  0  0  0  0  0  0
   12.1000  -17.6973   19.4866 O   0  0  0  0  0  0  0  0  0  0  0  0
    9.9277  -17.7583   20.2479 N   0  0  0  0  0  0  0  0  0  0  0  0
   10.1978  -16.7698   21.2493 C   0  0  1  0  0  0  0  0  0  0  0  0
    8.9522  -15.8938   21.4402 C   0  0  0  0  0  0  0  0  0  0  0  0
    8.9459  -14.9210   20.2700 C   0  0  0  0  0  0  0  0  0  0  0  0
    7.7453  -14.0186   20.3001 C   0  0  0  0  0  0  0  0  0  0  0  0
    7.8392  -13.0963   19.1032 C   0  0  0  0  0  0  0  0  0  0  0  0
    6.6841  -12.2322   18.9860 N   0  0  0  0  0  0  0  0  0  0  0  0
   10.4364  -17.4611   22.5433 C   0  0  0  0  0  0  0  0  0  0  0  0
    9.6515  -18.3952   22.8719 O   0  0  0  0  0  0  0  0  0  0  0  0
   11.5043  -17.1078   23.4076 N   0  0  0  0  0  0  0  0  0  0  0  0
   11.6742  -17.8812   24.6262 C   0  0  1  0  0  0  0  0  0  0  0  0
   13.1393  -18.0301   24.9661 C   0  0  0  0  0  0  0  0  0  0  0  0
   13.7056  -19.2969   24.4561 C   0  0  0  0  0  0  0  0  0  0  0  0
   15.0622  -19.1512   23.8107 C   0  0  0  0  0  0  0  0  0  0  0  0
   15.6256  -20.5007   23.3923 C   0  0  0  0  0  0  0  0  0  0  0  0
   16.9689  -20.3576   22.8609 N   0  0  0  0  0  0  0  0  0  0  0  0
   10.9003  -17.1764   25.6675 C   0  0  0  0  0  0  0  0  0  0  0  0
   10.8763  -17.6175   26.8232 O   0  0  0  0  0  0  0  0  0  0  0  0
   10.1867  -16.0207   25.4000 O   0  0  0  0  0  0  0  0  0  0  0  0
  2  3  1  0
  2  1  1  6
  4  3  1  0
  5  2  1  0
  6  5  2  0
  7  5  1  0
  8  7  1  0
  8  9  1  1
 10  9  1  0
 11 10  1  0
 12 11  1  0
 13 12  1  0
 14  8  1  0
 14 15  2  0
 16 14  1  0
 17 16  1  0
 17 18  1  1
 19 20  1  0
 19 18  1  0
 20 21  1  0
 21 22  1  0
 23 17  1  0
 24 23  2  0
 25 23  1  0
M  END
$$$$
