CKK.pdb
     RDKit          3D

 25 24  0  0  1  0  0  0  0  0999 V2000
    8.0424  -18.7585   18.7412 N   0  0  0  0  0  0  0  0  0  0  0  0
    8.6744  -17.6024   19.3153 C   0  0  1  0  0  0  0  0  0  0  0  0
    8.2319  -16.3628   18.5699 C   0  0  0  0  0  0  0  0  0  0  0  0
    8.7776  -16.5291   16.8478 S   0  0  0  0  0  0  0  0  0  0  0  0
    8.3389  -17.5330   20.7540 C   0  0  0  0  0  0  0  0  0  0  0  0
    8.8306  -16.6337   21.4738 O   0  0  0  0  0  0  0  0  0  0  0  0
    7.4650  -18.4807   21.3133 N   0  0  0  0  0  0  0  0  0  0  0  0
    7.0923  -18.3862   22.6936 C   0  0  1  0  0  0  0  0  0  0  0  0
    5.8571  -19.2626   22.9422 C   0  0  0  0  0  0  0  0  0  0  0  0
    4.7550  -18.6841   22.0669 C   0  0  0  0  0  0  0  0  0  0  0  0
    3.4866  -19.4832   22.1645 C   0  0  0  0  0  0  0  0  0  0  0  0
    2.4231  -18.7467   21.3780 C   0  0  0  0  0  0  0  0  0  0  0  0
    1.1382  -19.4098   21.4408 N   0  0  0  0  0  0  0  0  0  0  0  0
    8.1909  -18.9519   23.5194 C   0  0  0  0  0  0  0  0  0  0  0  0
    8.6547  -20.0825   23.1981 O   0  0  0  0  0  0  0  0  0  0  0  0
    8.7262  -18.2693   24.6418 N   0  0  0  0  0  0  0  0  0  0  0  0
    9.7509  -18.9445   25.4204 C   0  0  1  0  0  0  0  0  0  0  0  0
   11.1170  -18.3732   25.1174 C   0  0  0  0  0  0  0  0  0  0  0  0
   11.6016  -18.7640   23.7765 C   0  0  0  0  0  0  0  0  0  0  0  0
   12.8466  -18.0351   23.3332 C   0  0  0  0  0  0  0  0  0  0  0  0
   13.2821  -18.4748   21.9437 C   0  0  0  0  0  0  0  0  0  0  0  0
   14.4200  -17.6967   21.4886 N   0  0  0  0  0  0  0  0  0  0  0  0
    9.3538  -18.7940   26.8344 C   0  0  0  0  0  0  0  0  0  0  0  0
   10.0769  -19.2474   27.7300 O   0  0  0  0  0  0  0  0  0  0  0  0
    8.1840  -18.1545   27.2074 O   0  0  0  0  0  0  0  0  0  0  0  0
  2  3  1  0
  2  1  1  6
  4  3  1  0
  5  2  1  0
  6  5  2  0
  7  5  1  0
  8  7  1  0
  8  9  1  6
 10  9  1  0
 11 10  1  0
 12 11  1  0
 13 12  1  0
 14  8  1  0
 14 15  2  0
 16 14  1  0
 17 16  1  0
 17 18  1  1
 19 20  1  0
 19 18  1  0
 20 21  1  0
 21 22  1  0
 23 17  1  0
 24 23  2  0
 25 23  1  0
M  END
$$$$
