CKK.pdb
     RDKit          3D

 25 24  0  0  1  0  0  0  0  0999 V2000
    6.9754  -13.7853   18.5616 N   0  0  0  0  0  0  0  0  0  0  0  0
    8.3191  -14.0168   19.0161 C   0  0  1  0  0  0  0  0  0  0  0  0
    8.9151  -12.7180   19.5120 C   0  0  0  0  0  0  0  0  0  0  0  0
    9.2434  -11.6728   18.0661 S   0  0  0  0  0  0  0  0  0  0  0  0
    8.3007  -15.0554   20.0687 C   0  0  0  0  0  0  0  0  0  0  0  0
    7.3936  -15.0625   20.9323 O   0  0  0  0  0  0  0  0  0  0  0  0
    9.3057  -16.0372   20.0981 N   0  0  0  0  0  0  0  0  0  0  0  0
    9.2828  -17.0574   21.1039 C   0  0  1  0  0  0  0  0  0  0  0  0
    9.9715  -18.3162   20.5592 C   0  0  0  0  0  0  0  0  0  0  0  0
    9.9139  -19.3400   21.6835 C   0  0  0  0  0  0  0  0  0  0  0  0
   10.4167  -20.6847   21.2410 C   0  0  0  0  0  0  0  0  0  0  0  0
   10.2220  -21.6455   22.3946 C   0  0  0  0  0  0  0  0  0  0  0  0
   10.6322  -22.9926   22.0603 N   0  0  0  0  0  0  0  0  0  0  0  0
   10.0905  -16.5962   22.2632 C   0  0  0  0  0  0  0  0  0  0  0  0
   11.2172  -16.0728   22.0323 O   0  0  0  0  0  0  0  0  0  0  0  0
    9.6398  -16.7247   23.6021 N   0  0  0  0  0  0  0  0  0  0  0  0
   10.4577  -16.1402   24.6516 C   0  0  1  0  0  0  0  0  0  0  0  0
    9.6380  -15.9008   25.8986 C   0  0  0  0  0  0  0  0  0  0  0  0
   10.4641  -15.4221   27.0273 C   0  0  0  0  0  0  0  0  0  0  0  0
    9.6932  -15.1984   28.3055 C   0  0  0  0  0  0  0  0  0  0  0  0
   10.5765  -14.5982   29.3886 C   0  0  0  0  0  0  0  0  0  0  0  0
    9.8264  -14.3988   30.6154 N   0  0  0  0  0  0  0  0  0  0  0  0
   11.5819  -17.0743   24.8603 C   0  0  0  0  0  0  0  0  0  0  0  0
   11.3778  -18.2945   24.8634 O   0  0  0  0  0  0  0  0  0  0  0  0
   12.8795  -16.6336   25.0562 O   0  0  0  0  0  0  0  0  0  0  0  0
  2  3  1  0
  2  1  1  1
  4  3  1  0
  5  2  1  0
  6  5  2  0
  7  5  1  0
  8  7  1  0
  8  9  1  6
 10  9  1  0
 11 10  1  0
 12 11  1  0
 13 12  1  0
 14  8  1  0
 14 15  2  0
 16 14  1  0
 17 16  1  0
 17 18  1  1
 19 20  1  0
 19 18  1  0
 20 21  1  0
 21 22  1  0
 23 17  1  0
 24 23  2  0
 25 23  1  0
M  END
$$$$
