CKK.pdb
     RDKit          3D

 25 24  0  0  1  0  0  0  0  0999 V2000
    8.4519  -14.3351   14.7772 N   0  0  0  0  0  0  0  0  0  0  0  0
    7.7515  -15.0025   15.8402 C   0  0  1  0  0  0  0  0  0  0  0  0
    7.5757  -16.4634   15.4897 C   0  0  0  0  0  0  0  0  0  0  0  0
    9.2257  -17.2115   15.3952 S   0  0  0  0  0  0  0  0  0  0  0  0
    8.5023  -14.8218   17.1014 C   0  0  0  0  0  0  0  0  0  0  0  0
    9.6742  -14.3804   17.0803 O   0  0  0  0  0  0  0  0  0  0  0  0
    7.8966  -15.1473   18.3269 N   0  0  0  0  0  0  0  0  0  0  0  0
    8.5792  -14.8798   19.5580 C   0  0  1  0  0  0  0  0  0  0  0  0
    7.5570  -14.8441   20.7023 C   0  0  0  0  0  0  0  0  0  0  0  0
    8.3577  -14.5606   21.9649 C   0  0  0  0  0  0  0  0  0  0  0  0
    7.5211  -14.7141   23.2032 C   0  0  0  0  0  0  0  0  0  0  0  0
    8.3629  -14.2670   24.3794 C   0  0  0  0  0  0  0  0  0  0  0  0
    7.7153  -14.5287   25.6470 N   0  0  0  0  0  0  0  0  0  0  0  0
    9.5003  -16.0109   19.8429 C   0  0  0  0  0  0  0  0  0  0  0  0
    9.1658  -17.1639   19.4488 O   0  0  0  0  0  0  0  0  0  0  0  0
   10.7264  -15.8361   20.5346 N   0  0  0  0  0  0  0  0  0  0  0  0
   11.5581  -17.0089   20.7465 C   0  0  1  0  0  0  0  0  0  0  0  0
   12.9472  -16.7873   20.1935 C   0  0  0  0  0  0  0  0  0  0  0  0
   13.8383  -17.9405   20.4417 C   0  0  0  0  0  0  0  0  0  0  0  0
   15.2649  -17.7250   19.9988 C   0  0  0  0  0  0  0  0  0  0  0  0
   16.1273  -18.9430   20.2927 C   0  0  0  0  0  0  0  0  0  0  0  0
   17.5189  -18.6798   19.9741 N   0  0  0  0  0  0  0  0  0  0  0  0
   11.5408  -17.2637   22.2007 C   0  0  0  0  0  0  0  0  0  0  0  0
   11.0647  -16.4193   22.9695 O   0  0  0  0  0  0  0  0  0  0  0  0
   12.0444  -18.4300   22.7506 O   0  0  0  0  0  0  0  0  0  0  0  0
  2  3  1  0
  2  1  1  6
  4  3  1  0
  5  2  1  0
  6  5  2  0
  7  5  1  0
  8  7  1  0
  8  9  1  1
 10  9  1  0
 11 10  1  0
 12 11  1  0
 13 12  1  0
 14  8  1  0
 14 15  2  0
 16 14  1  0
 17 16  1  0
 17 18  1  1
 19 20  1  0
 19 18  1  0
 20 21  1  0
 21 22  1  0
 23 17  1  0
 24 23  2  0
 25 23  1  0
M  END
$$$$
