HGN.pdb
     RDKit          3D

 23 23  0  0  1  0  0  0  0  0999 V2000
   22.8923  -13.1241  -18.7503 N   0  0  0  0  0  0  0  0  0  0  0  0
   22.3784  -12.5317  -19.9581 C   0  0  1  0  0  0  0  0  0  0  0  0
   21.0656  -13.2066  -20.2912 C   0  0  0  0  0  0  0  0  0  0  0  0
   21.3447  -14.6534  -20.5658 C   0  0  0  0  0  0  0  0  0  0  0  0
   21.6292  -15.6556  -19.6595 C   0  0  0  0  0  0  0  0  0  0  0  0
   21.8140  -16.8073  -20.3226 N   0  0  0  0  0  0  0  0  0  0  0  0
   21.6541  -16.5665  -21.6376 C   0  0  0  0  0  0  0  0  0  0  0  0
   21.3698  -15.2596  -21.7787 N   0  0  0  0  0  0  0  0  0  0  0  0
   22.2374  -11.0817  -19.7744 C   0  0  0  0  0  0  0  0  0  0  0  0
   21.7821  -10.3313  -20.7051 O   0  0  0  0  0  0  0  0  0  0  0  0
   22.5862  -10.4017  -18.5747 N   0  0  0  0  0  0  0  0  0  0  0  0
   22.4646   -8.9889  -18.4013 C   0  0  0  0  0  0  0  0  0  0  0  0
   22.2212   -8.5780  -17.0141 C   0  0  0  0  0  0  0  0  0  0  0  0
   21.8690   -9.4352  -16.1680 O   0  0  0  0  0  0  0  0  0  0  0  0
   21.9650   -5.5784  -12.6823 N   0  0  0  0  0  0  0  0  0  0  0  0
   22.3872   -4.7851  -13.7776 C   0  0  0  0  0  0  0  0  0  0  0  0
   22.6734   -3.5841  -13.5687 O   0  0  0  0  0  0  0  0  0  0  0  0
   22.5050   -5.3121  -15.1563 C   0  0  0  0  0  0  0  0  0  0  0  0
   22.1306   -6.7679  -15.2633 C   0  0  2  0  0  0  0  0  0  0  0  0
   22.3825   -7.2199  -16.6297 N   0  0  0  0  0  0  0  0  0  0  0  0
   20.7307   -7.0054  -14.8484 C   0  0  0  0  0  0  0  0  0  0  0  0
   19.7859   -6.7970  -15.6108 O   0  0  0  0  0  0  0  0  0  0  0  0
   20.4934   -7.4731  -13.5693 O   0  0  0  0  0  0  0  0  0  0  0  0
  2  1  1  1
  2  9  1  0
  2  3  1  0
  4  3  1  0
  5  4  2  0
  6  5  1  0
  7  6  1  0
  7  8  2  0
  8  4  1  0
  9 11  1  0
 10  9  2  0
 11 12  1  0
 12 13  1  0
 13 14  2  0
 13 20  1  0
 16 15  1  0
 17 16  2  0
 18 16  1  0
 19 21  1  0
 19 18  1  6
 20 19  1  0
 21 23  1  0
 22 21  2  0
M  END
$$$$
