HGN.pdb
     RDKit          3D

 23 23  0  0  1  0  0  0  0  0999 V2000
   24.4144  -10.7847  -19.1416 N   0  0  0  0  0  0  0  0  0  0  0  0
   25.1836   -9.8951  -19.9727 C   0  0  1  0  0  0  0  0  0  0  0  0
   24.3621   -9.5722  -21.2021 C   0  0  0  0  0  0  0  0  0  0  0  0
   24.2302  -10.8253  -22.0137 C   0  0  0  0  0  0  0  0  0  0  0  0
   25.0253  -11.9537  -21.9785 C   0  0  0  0  0  0  0  0  0  0  0  0
   24.5607  -12.8458  -22.8665 N   0  0  0  0  0  0  0  0  0  0  0  0
   23.4823  -12.3142  -23.4726 C   0  0  0  0  0  0  0  0  0  0  0  0
   23.2871  -11.0899  -22.9517 N   0  0  0  0  0  0  0  0  0  0  0  0
   25.5483   -8.6968  -19.2065 C   0  0  0  0  0  0  0  0  0  0  0  0
   26.1767   -7.7229  -19.7480 O   0  0  0  0  0  0  0  0  0  0  0  0
   25.2420   -8.5188  -17.8288 N   0  0  0  0  0  0  0  0  0  0  0  0
   25.4956   -7.3100  -17.1111 C   0  0  0  0  0  0  0  0  0  0  0  0
   24.3381   -6.4125  -17.0286 C   0  0  0  0  0  0  0  0  0  0  0  0
   23.9611   -5.7936  -18.0531 O   0  0  0  0  0  0  0  0  0  0  0  0
   21.9289   -7.9440  -14.4037 N   0  0  0  0  0  0  0  0  0  0  0  0
   21.0546   -7.5201  -15.4348 C   0  0  0  0  0  0  0  0  0  0  0  0
   20.0543   -8.2265  -15.6963 O   0  0  0  0  0  0  0  0  0  0  0  0
   21.2707   -6.2808  -16.2158 C   0  0  0  0  0  0  0  0  0  0  0  0
   22.4216   -5.4550  -15.7017 C   0  0  2  0  0  0  0  0  0  0  0  0
   23.6476   -6.2439  -15.7985 N   0  0  0  0  0  0  0  0  0  0  0  0
   22.1779   -4.9730  -14.3246 C   0  0  0  0  0  0  0  0  0  0  0  0
   21.2863   -4.1616  -14.0717 O   0  0  0  0  0  0  0  0  0  0  0  0
   22.9796   -5.4549  -13.3067 O   0  0  0  0  0  0  0  0  0  0  0  0
  2  1  1  1
  2  9  1  0
  2  3  1  0
  4  3  1  0
  5  4  2  0
  6  5  1  0
  7  6  1  0
  7  8  2  0
  8  4  1  0
  9 11  1  0
 10  9  2  0
 11 12  1  0
 12 13  1  0
 13 14  2  0
 13 20  1  0
 16 15  1  0
 17 16  2  0
 18 16  1  0
 19 21  1  0
 19 18  1  1
 20 19  1  0
 21 23  1  0
 22 21  2  0
M  END
$$$$
