HGN.pdb
     RDKit          3D

 23 23  0  0  1  0  0  0  0  0999 V2000
   21.6080  -14.4746  -17.3136 N   0  0  0  0  0  0  0  0  0  0  0  0
   20.3296  -14.1481  -17.8903 C   0  0  1  0  0  0  0  0  0  0  0  0
   19.5058  -15.4158  -17.9561 C   0  0  0  0  0  0  0  0  0  0  0  0
   20.1847  -16.3613  -18.9004 C   0  0  0  0  0  0  0  0  0  0  0  0
   20.7463  -16.0834  -20.1308 C   0  0  0  0  0  0  0  0  0  0  0  0
   21.2500  -17.2141  -20.6487 N   0  0  0  0  0  0  0  0  0  0  0  0
   21.0238  -18.2143  -19.7761 C   0  0  0  0  0  0  0  0  0  0  0  0
   20.3780  -17.6913  -18.7188 N   0  0  0  0  0  0  0  0  0  0  0  0
   19.6843  -13.0960  -17.0947 C   0  0  0  0  0  0  0  0  0  0  0  0
   18.5387  -12.6245  -17.4138 O   0  0  0  0  0  0  0  0  0  0  0  0
   20.2629  -12.5235  -15.9281 N   0  0  0  0  0  0  0  0  0  0  0  0
   19.6545  -11.4715  -15.1772 C   0  0  0  0  0  0  0  0  0  0  0  0
   20.4525  -10.2416  -15.1208 C   0  0  0  0  0  0  0  0  0  0  0  0
   20.0170   -9.2506  -14.4861 O   0  0  0  0  0  0  0  0  0  0  0  0
   24.4996   -6.9025  -15.7170 N   0  0  0  0  0  0  0  0  0  0  0  0
   24.8605   -8.1815  -16.2081 C   0  0  0  0  0  0  0  0  0  0  0  0
   26.0321   -8.3553  -16.6147 O   0  0  0  0  0  0  0  0  0  0  0  0
   23.9156   -9.3203  -16.2619 C   0  0  0  0  0  0  0  0  0  0  0  0
   22.5575   -8.9842  -15.7021 C   0  0  2  0  0  0  0  0  0  0  0  0
   21.7092  -10.1714  -15.7795 N   0  0  0  0  0  0  0  0  0  0  0  0
   21.9530   -7.8232  -16.3911 C   0  0  0  0  0  0  0  0  0  0  0  0
   21.4547   -7.9244  -17.5130 O   0  0  0  0  0  0  0  0  0  0  0  0
   21.9552   -6.6004  -15.7462 O   0  0  0  0  0  0  0  0  0  0  0  0
  2  1  1  1
  2  9  1  0
  2  3  1  0
  4  3  1  0
  5  4  2  0
  6  5  1  0
  7  6  1  0
  7  8  2  0
  8  4  1  0
  9 11  1  0
 10  9  2  0
 11 12  1  0
 12 13  1  0
 13 14  2  0
 13 20  1  0
 16 15  1  0
 17 16  2  0
 18 16  1  0
 19 21  1  0
 19 18  1  6
 20 19  1  0
 21 23  1  0
 22 21  2  0
M  END
$$$$
