HGN.pdb
     RDKit          3D

 23 23  0  0  1  0  0  0  0  0999 V2000
   26.4505  -19.2603  -10.4602 N   0  0  0  0  0  0  0  0  0  0  0  0
   26.8371  -20.6308  -10.2460 C   0  0  1  0  0  0  0  0  0  0  0  0
   26.2093  -21.0996   -8.9513 C   0  0  0  0  0  0  0  0  0  0  0  0
   26.9284  -20.4314   -7.8187 C   0  0  0  0  0  0  0  0  0  0  0  0
   28.2142  -19.9283   -7.8014 C   0  0  0  0  0  0  0  0  0  0  0  0
   28.4672  -19.4123   -6.5889 N   0  0  0  0  0  0  0  0  0  0  0  0
   27.3699  -19.5733   -5.8255 C   0  0  0  0  0  0  0  0  0  0  0  0
   26.4410  -20.1914   -6.5761 N   0  0  0  0  0  0  0  0  0  0  0  0
   26.4289  -21.4439  -11.3985 C   0  0  0  0  0  0  0  0  0  0  0  0
   26.4579  -22.7222  -11.3584 O   0  0  0  0  0  0  0  0  0  0  0  0
   25.9766  -20.8942  -12.6301 N   0  0  0  0  0  0  0  0  0  0  0  0
   25.6790  -21.6795  -13.7857 C   0  0  0  0  0  0  0  0  0  0  0  0
   24.2435  -21.8450  -14.0397 C   0  0  0  0  0  0  0  0  0  0  0  0
   23.8635  -22.4234  -15.0865 O   0  0  0  0  0  0  0  0  0  0  0  0
   19.0109  -21.3725  -13.5063 N   0  0  0  0  0  0  0  0  0  0  0  0
   19.6510  -20.8140  -12.3725 C   0  0  0  0  0  0  0  0  0  0  0  0
   18.9389  -20.3194  -11.4690 O   0  0  0  0  0  0  0  0  0  0  0  0
   21.1224  -20.7891  -12.2085 C   0  0  0  0  0  0  0  0  0  0  0  0
   21.8556  -21.3707  -13.3896 C   0  0  2  0  0  0  0  0  0  0  0  0
   23.2893  -21.3547  -13.1085 N   0  0  0  0  0  0  0  0  0  0  0  0
   21.5269  -20.6580  -14.6435 C   0  0  0  0  0  0  0  0  0  0  0  0
   21.9402  -19.5195  -14.8677 O   0  0  0  0  0  0  0  0  0  0  0  0
   20.7348  -21.2996  -15.5774 O   0  0  0  0  0  0  0  0  0  0  0  0
  2  1  1  6
  2  9  1  0
  2  3  1  0
  4  3  1  0
  5  4  2  0
  6  5  1  0
  7  6  1  0
  7  8  2  0
  8  4  1  0
  9 11  1  0
 10  9  2  0
 11 12  1  0
 12 13  1  0
 13 14  2  0
 13 20  1  0
 16 15  1  0
 17 16  2  0
 18 16  1  0
 19 21  1  0
 19 18  1  1
 20 19  1  0
 21 23  1  0
 22 21  2  0
M  END
$$$$
