HGN.pdb
     RDKit          3D

 23 23  0  0  1  0  0  0  0  0999 V2000
   29.4571  -11.3743  -18.2524 N   0  0  0  0  0  0  0  0  0  0  0  0
   30.2828  -10.7970  -19.2814 C   0  0  1  0  0  0  0  0  0  0  0  0
   29.4120   -9.9014  -20.1357 C   0  0  0  0  0  0  0  0  0  0  0  0
   28.4259  -10.7674  -20.8596 C   0  0  0  0  0  0  0  0  0  0  0  0
   28.5386  -11.3211  -22.1195 C   0  0  0  0  0  0  0  0  0  0  0  0
   27.4312  -12.0295  -22.3882 N   0  0  0  0  0  0  0  0  0  0  0  0
   26.6080  -11.9429  -21.3264 C   0  0  0  0  0  0  0  0  0  0  0  0
   27.2161  -11.1769  -20.4035 N   0  0  0  0  0  0  0  0  0  0  0  0
   31.4037  -10.0749  -18.6665 C   0  0  0  0  0  0  0  0  0  0  0  0
   32.2664   -9.4511  -19.3759 O   0  0  0  0  0  0  0  0  0  0  0  0
   31.6226  -10.0077  -17.2625 N   0  0  0  0  0  0  0  0  0  0  0  0
   32.7627   -9.3854  -16.6679 C   0  0  0  0  0  0  0  0  0  0  0  0
   32.5820   -7.9572  -16.3854 C   0  0  0  0  0  0  0  0  0  0  0  0
   31.6421   -7.5884  -15.6402 O   0  0  0  0  0  0  0  0  0  0  0  0
   33.7123   -3.0490  -15.2666 N   0  0  0  0  0  0  0  0  0  0  0  0
   33.9533   -4.2086  -14.4892 C   0  0  0  0  0  0  0  0  0  0  0  0
   34.2105   -4.0674  -13.2718 O   0  0  0  0  0  0  0  0  0  0  0  0
   33.9149   -5.5779  -15.0511 C   0  0  0  0  0  0  0  0  0  0  0  0
   33.4888   -5.6087  -16.4962 C   0  0  2  0  0  0  0  0  0  0  0  0
   33.4637   -6.9972  -16.9504 N   0  0  0  0  0  0  0  0  0  0  0  0
   34.3589   -4.7628  -17.3420 C   0  0  0  0  0  0  0  0  0  0  0  0
   35.4695   -5.1451  -17.7131 O   0  0  0  0  0  0  0  0  0  0  0  0
   33.8996   -3.5139  -17.7172 O   0  0  0  0  0  0  0  0  0  0  0  0
  2  1  1  1
  2  9  1  0
  2  3  1  0
  4  3  1  0
  5  4  2  0
  6  5  1  0
  7  6  1  0
  7  8  2  0
  8  4  1  0
  9 11  1  0
 10  9  2  0
 11 12  1  0
 12 13  1  0
 13 14  2  0
 13 20  1  0
 16 15  1  0
 17 16  2  0
 18 16  1  0
 19 21  1  0
 19 18  1  1
 20 19  1  0
 21 23  1  0
 22 21  2  0
M  END
$$$$
