HGN.pdb
     RDKit          3D

 23 23  0  0  1  0  0  0  0  0999 V2000
   20.4173  -12.9431  -16.1398 N   0  0  0  0  0  0  0  0  0  0  0  0
   19.6666  -11.8153  -16.6280 C   0  0  1  0  0  0  0  0  0  0  0  0
   18.3448  -11.7762  -15.8922 C   0  0  0  0  0  0  0  0  0  0  0  0
   17.5576  -12.9886  -16.2884 C   0  0  0  0  0  0  0  0  0  0  0  0
   16.8258  -13.1929  -17.4414 C   0  0  0  0  0  0  0  0  0  0  0  0
   16.2752  -14.4157  -17.4008 N   0  0  0  0  0  0  0  0  0  0  0  0
   16.6379  -15.0028  -16.2447 C   0  0  0  0  0  0  0  0  0  0  0  0
   17.4149  -14.1331  -15.5749 N   0  0  0  0  0  0  0  0  0  0  0  0
   20.4499  -10.5865  -16.4476 C   0  0  0  0  0  0  0  0  0  0  0  0
   20.0425   -9.4617  -16.9007 O   0  0  0  0  0  0  0  0  0  0  0  0
   21.6997  -10.5410  -15.7696 N   0  0  0  0  0  0  0  0  0  0  0  0
   22.5105   -9.3682  -15.6818 C   0  0  0  0  0  0  0  0  0  0  0  0
   21.8398   -8.2266  -15.0499 C   0  0  0  0  0  0  0  0  0  0  0  0
   21.0980   -8.4178  -14.0560 O   0  0  0  0  0  0  0  0  0  0  0  0
   20.5113   -3.3070  -13.7766 N   0  0  0  0  0  0  0  0  0  0  0  0
   21.9010   -3.5648  -13.8741 C   0  0  0  0  0  0  0  0  0  0  0  0
   22.6998   -2.6859  -13.4773 O   0  0  0  0  0  0  0  0  0  0  0  0
   22.4501   -4.8254  -14.4236 C   0  0  0  0  0  0  0  0  0  0  0  0
   21.3840   -5.7501  -14.9520 C   0  0  2  0  0  0  0  0  0  0  0  0
   22.0276   -6.9133  -15.5582 N   0  0  0  0  0  0  0  0  0  0  0  0
   20.4793   -5.0599  -15.8970 C   0  0  0  0  0  0  0  0  0  0  0  0
   20.7021   -5.0403  -17.1083 O   0  0  0  0  0  0  0  0  0  0  0  0
   19.3595   -4.4253  -15.3923 O   0  0  0  0  0  0  0  0  0  0  0  0
  2  1  1  1
  2  9  1  0
  2  3  1  0
  4  3  1  0
  5  4  2  0
  6  5  1  0
  7  6  1  0
  7  8  2  0
  8  4  1  0
  9 11  1  0
 10  9  2  0
 11 12  1  0
 12 13  1  0
 13 14  2  0
 13 20  1  0
 16 15  1  0
 17 16  2  0
 18 16  1  0
 19 21  1  0
 19 18  1  6
 20 19  1  0
 21 23  1  0
 22 21  2  0
M  END
$$$$
