HGN.pdb
     RDKit          3D

 23 23  0  0  1  0  0  0  0  0999 V2000
   19.6992   -9.5267  -17.0784 N   0  0  0  0  0  0  0  0  0  0  0  0
   20.3948   -9.8231  -15.8529 C   0  0  1  0  0  0  0  0  0  0  0  0
   21.3475  -10.9687  -16.1183 C   0  0  0  0  0  0  0  0  0  0  0  0
   20.5321  -12.1861  -16.4338 C   0  0  0  0  0  0  0  0  0  0  0  0
   19.3351  -12.5821  -15.8707 C   0  0  0  0  0  0  0  0  0  0  0  0
   18.9421  -13.7323  -16.4389 N   0  0  0  0  0  0  0  0  0  0  0  0
   19.8623  -14.0846  -17.3565 C   0  0  0  0  0  0  0  0  0  0  0  0
   20.8233  -13.1438  -17.3487 N   0  0  0  0  0  0  0  0  0  0  0  0
   21.0814   -8.6176  -15.3719 C   0  0  0  0  0  0  0  0  0  0  0  0
   21.7426   -8.6171  -14.2767 O   0  0  0  0  0  0  0  0  0  0  0  0
   21.0713   -7.3754  -16.0650 N   0  0  0  0  0  0  0  0  0  0  0  0
   21.6546   -6.1771  -15.5508 C   0  0  0  0  0  0  0  0  0  0  0  0
   20.6861   -5.1046  -15.2974 C   0  0  0  0  0  0  0  0  0  0  0  0
   21.0883   -3.9984  -14.8623 O   0  0  0  0  0  0  0  0  0  0  0  0
   16.3040   -2.2507  -15.2197 N   0  0  0  0  0  0  0  0  0  0  0  0
   16.7443   -2.7351  -16.4762 C   0  0  0  0  0  0  0  0  0  0  0  0
   16.2675   -2.2212  -17.5138 O   0  0  0  0  0  0  0  0  0  0  0  0
   17.7418   -3.8203  -16.6170 C   0  0  0  0  0  0  0  0  0  0  0  0
   18.3068   -4.2746  -15.2959 C   0  0  2  0  0  0  0  0  0  0  0  0
   19.3027   -5.3150  -15.5423 N   0  0  0  0  0  0  0  0  0  0  0  0
   17.2441   -4.7296  -14.3730 C   0  0  0  0  0  0  0  0  0  0  0  0
   16.9618   -5.9222  -14.2495 O   0  0  0  0  0  0  0  0  0  0  0  0
   16.5597   -3.7800  -13.6374 O   0  0  0  0  0  0  0  0  0  0  0  0
  2  1  1  6
  2  9  1  0
  2  3  1  0
  4  3  1  0
  5  4  2  0
  6  5  1  0
  7  6  1  0
  7  8  2  0
  8  4  1  0
  9 11  1  0
 10  9  2  0
 11 12  1  0
 12 13  1  0
 13 14  2  0
 13 20  1  0
 16 15  1  0
 17 16  2  0
 18 16  1  0
 19 21  1  0
 19 18  1  6
 20 19  1  0
 21 23  1  0
 22 21  2  0
M  END
$$$$
