FKI.pdb
     RDKit          3D

 29 29  0  0  1  0  0  0  0  0999 V2000
   28.8456  -20.4966  -18.0908 N   0  0  0  0  0  0  0  0  0  0  0  0
   27.5642  -20.1897  -17.4832 C   0  0  1  0  0  0  0  0  0  0  0  0
   26.5201  -20.3608  -18.5897 C   0  0  0  0  0  0  0  0  0  0  0  0
   26.5732  -19.1294  -19.4305 C   0  0  0  0  0  0  0  0  0  0  0  0
   27.0611  -19.1458  -20.7293 C   0  0  0  0  0  0  0  0  0  0  0  0
   27.1072  -17.9991  -21.5032 C   0  0  0  0  0  0  0  0  0  0  0  0
   26.6627  -16.7890  -20.9981 C   0  0  0  0  0  0  0  0  0  0  0  0
   26.1801  -16.7858  -19.7065 C   0  0  0  0  0  0  0  0  0  0  0  0
   26.1326  -17.9263  -18.9322 C   0  0  0  0  0  0  0  0  0  0  0  0
   27.2675  -21.1318  -16.3820 C   0  0  0  0  0  0  0  0  0  0  0  0
   27.6524  -22.3097  -16.4255 O   0  0  0  0  0  0  0  0  0  0  0  0
   26.5363  -20.6952  -15.2600 N   0  0  0  0  0  0  0  0  0  0  0  0
   26.1403  -21.6246  -14.1749 C   0  0  1  0  0  0  0  0  0  0  0  0
   25.8957  -20.7315  -12.9909 C   0  0  0  0  0  0  0  0  0  0  0  0
   25.3862  -21.4953  -11.8145 C   0  0  0  0  0  0  0  0  0  0  0  0
   24.6028  -20.5467  -10.8973 C   0  0  0  0  0  0  0  0  0  0  0  0
   24.2104  -21.3660   -9.6861 C   0  0  0  0  0  0  0  0  0  0  0  0
   23.5199  -20.5562   -8.6986 N   0  0  0  0  0  0  0  0  0  0  0  0
   24.8560  -22.2912  -14.5555 C   0  0  0  0  0  0  0  0  0  0  0  0
   23.9055  -21.5813  -14.9654 O   0  0  0  0  0  0  0  0  0  0  0  0
   25.0921  -27.5288  -16.4237 C   0  0  0  0  0  0  0  0  0  0  0  0
   24.7742  -26.0653  -16.2359 C   0  0  0  0  0  0  0  0  0  0  0  0
   23.7100  -25.8671  -15.1706 C   0  0  2  0  0  0  0  0  0  0  0  0
   22.4159  -26.3843  -15.7714 C   0  0  0  0  0  0  0  0  0  0  0  0
   23.5068  -24.4220  -14.8065 C   0  0  2  0  0  0  0  0  0  0  0  0
   24.6670  -23.6793  -14.4736 N   0  0  0  0  0  0  0  0  0  0  0  0
   22.4035  -24.2734  -13.8535 C   0  0  0  0  0  0  0  0  0  0  0  0
   22.4902  -24.0262  -12.5071 O   0  0  0  0  0  0  0  0  0  0  0  0
   21.2275  -24.3985  -14.3846 O   0  0  0  0  0  0  0  0  0  0  0  0
  2  1  1  6
  3  4  1  0
  3  2  1  0
  4  5  2  0
  5  6  1  0
  7  6  2  0
  8  7  1  0
  9  4  1  0
  9  8  2  0
 10  2  1  0
 10 11  2  0
 12 10  1  0
 13 12  1  0
 13 14  1  1
 15 14  1  0
 15 16  1  0
 17 16  1  0
 17 18  1  0
 19 13  1  0
 20 19  2  0
 21 22  1  0
 22 23  1  0
 23 24  1  6
 25 23  1  0
 25 26  1  1
 26 19  1  0
 27 28  1  0
 27 25  1  0
 29 27  2  0
M  END
$$$$
