FKI.pdb
     RDKit          3D

 29 29  0  0  1  0  0  0  0  0999 V2000
   25.5989  -21.0282   -9.8557 N   0  0  0  0  0  0  0  0  0  0  0  0
   24.6765  -21.1178  -10.9722 C   0  0  1  0  0  0  0  0  0  0  0  0
   23.4820  -20.2333  -10.6055 C   0  0  0  0  0  0  0  0  0  0  0  0
   22.6241  -21.0259   -9.6770 C   0  0  0  0  0  0  0  0  0  0  0  0
   21.6687  -21.9192  -10.1399 C   0  0  0  0  0  0  0  0  0  0  0  0
   20.8765  -22.6510   -9.2723 C   0  0  0  0  0  0  0  0  0  0  0  0
   21.0161  -22.5112   -7.9018 C   0  0  0  0  0  0  0  0  0  0  0  0
   21.9688  -21.6206   -7.4544 C   0  0  0  0  0  0  0  0  0  0  0  0
   22.7601  -20.8896   -8.3158 C   0  0  0  0  0  0  0  0  0  0  0  0
   25.3018  -20.6049  -12.2108 C   0  0  0  0  0  0  0  0  0  0  0  0
   25.9027  -19.5203  -12.2234 O   0  0  0  0  0  0  0  0  0  0  0  0
   25.2199  -21.3520  -13.4022 N   0  0  0  0  0  0  0  0  0  0  0  0
   25.8541  -20.8898  -14.6600 C   0  0  1  0  0  0  0  0  0  0  0  0
   26.5530  -22.1087  -15.1939 C   0  0  0  0  0  0  0  0  0  0  0  0
   27.3290  -21.8066  -16.4323 C   0  0  0  0  0  0  0  0  0  0  0  0
   28.0960  -23.0627  -16.8667 C   0  0  0  0  0  0  0  0  0  0  0  0
   28.9159  -22.6553  -18.0726 C   0  0  0  0  0  0  0  0  0  0  0  0
   29.6042  -23.7931  -18.6552 N   0  0  0  0  0  0  0  0  0  0  0  0
   24.7812  -20.4839  -15.6204 C   0  0  0  0  0  0  0  0  0  0  0  0
   23.6576  -21.0376  -15.5399 O   0  0  0  0  0  0  0  0  0  0  0  0
   22.7199  -15.8239  -18.8564 C   0  0  0  0  0  0  0  0  0  0  0  0
   22.4475  -17.1951  -18.2872 C   0  0  0  0  0  0  0  0  0  0  0  0
   23.5313  -17.6075  -17.3064 C   0  0  2  0  0  0  0  0  0  0  0  0
   24.6890  -16.6538  -17.5376 C   0  0  0  0  0  0  0  0  0  0  0  0
   24.0304  -19.0071  -17.5385 C   0  0  2  0  0  0  0  0  0  0  0  0
   24.9766  -19.5087  -16.6103 N   0  0  0  0  0  0  0  0  0  0  0  0
   24.4027  -19.2030  -18.9424 C   0  0  0  0  0  0  0  0  0  0  0  0
   23.5627  -19.3453  -20.0172 O   0  0  0  0  0  0  0  0  0  0  0  0
   25.6821  -19.2417  -19.1482 O   0  0  0  0  0  0  0  0  0  0  0  0
  2  1  1  1
  3  4  1  0
  3  2  1  0
  4  5  2  0
  5  6  1  0
  7  6  2  0
  8  7  1  0
  9  4  1  0
  9  8  2  0
 10  2  1  0
 10 11  2  0
 12 10  1  0
 13 12  1  0
 13 14  1  6
 15 14  1  0
 15 16  1  0
 17 16  1  0
 17 18  1  0
 19 13  1  0
 20 19  2  0
 21 22  1  0
 22 23  1  0
 23 24  1  6
 25 23  1  0
 25 26  1  1
 26 19  1  0
 27 28  1  0
 27 25  1  0
 29 27  2  0
M  END
$$$$
