FKI.pdb
     RDKit          3D

 29 29  0  0  1  0  0  0  0  0999 V2000
   28.4088  -22.3865  -11.1654 N   0  0  0  0  0  0  0  0  0  0  0  0
   27.3292  -21.5696  -10.6435 C   0  0  1  0  0  0  0  0  0  0  0  0
   27.9260  -20.1791  -10.4107 C   0  0  0  0  0  0  0  0  0  0  0  0
   28.0417  -19.9982   -8.9342 C   0  0  0  0  0  0  0  0  0  0  0  0
   27.0504  -19.3758   -8.1892 C   0  0  0  0  0  0  0  0  0  0  0  0
   27.1651  -19.2117   -6.8196 C   0  0  0  0  0  0  0  0  0  0  0  0
   28.2849  -19.6690   -6.1458 C   0  0  0  0  0  0  0  0  0  0  0  0
   29.2627  -20.2857   -6.8971 C   0  0  0  0  0  0  0  0  0  0  0  0
   29.1521  -20.4511   -8.2620 C   0  0  0  0  0  0  0  0  0  0  0  0
   26.2265  -21.4697  -11.6245 C   0  0  0  0  0  0  0  0  0  0  0  0
   26.4409  -21.5695  -12.8416 O   0  0  0  0  0  0  0  0  0  0  0  0
   24.9066  -21.2577  -11.1805 N   0  0  0  0  0  0  0  0  0  0  0  0
   23.7437  -21.4017  -12.0887 C   0  0  1  0  0  0  0  0  0  0  0  0
   22.5632  -21.5201  -11.1657 C   0  0  0  0  0  0  0  0  0  0  0  0
   21.2946  -21.7603  -11.9140 C   0  0  0  0  0  0  0  0  0  0  0  0
   20.1414  -21.9208  -10.9144 C   0  0  0  0  0  0  0  0  0  0  0  0
   18.8852  -22.0702  -11.7463 C   0  0  0  0  0  0  0  0  0  0  0  0
   17.7219  -22.3119  -10.9121 N   0  0  0  0  0  0  0  0  0  0  0  0
   23.6056  -20.1508  -12.8977 C   0  0  0  0  0  0  0  0  0  0  0  0
   24.2762  -19.1419  -12.5691 O   0  0  0  0  0  0  0  0  0  0  0  0
   25.7921  -19.6867  -17.9467 C   0  0  0  0  0  0  0  0  0  0  0  0
   24.5143  -19.2182  -17.2940 C   0  0  0  0  0  0  0  0  0  0  0  0
   24.3246  -19.8641  -15.9325 C   0  0  2  0  0  0  0  0  0  0  0  0
   24.2826  -21.3605  -16.1821 C   0  0  0  0  0  0  0  0  0  0  0  0
   23.0334  -19.4683  -15.2706 C   0  0  2  0  0  0  0  0  0  0  0  0
   22.7565  -20.0556  -14.0109 N   0  0  0  0  0  0  0  0  0  0  0  0
   21.9191  -19.5290  -16.2206 C   0  0  0  0  0  0  0  0  0  0  0  0
   21.4588  -18.5247  -17.0335 O   0  0  0  0  0  0  0  0  0  0  0  0
   21.3269  -20.6814  -16.2659 O   0  0  0  0  0  0  0  0  0  0  0  0
  2  1  1  6
  3  4  1  0
  3  2  1  0
  4  5  2  0
  5  6  1  0
  7  6  2  0
  8  7  1  0
  9  4  1  0
  9  8  2  0
 10  2  1  0
 10 11  2  0
 12 10  1  0
 13 12  1  0
 13 14  1  1
 15 14  1  0
 15 16  1  0
 17 16  1  0
 17 18  1  0
 19 13  1  0
 20 19  2  0
 21 22  1  0
 22 23  1  0
 23 24  1  6
 25 23  1  0
 25 26  1  1
 26 19  1  0
 27 28  1  0
 27 25  1  0
 29 27  2  0
M  END
$$$$
