FKI.pdb
     RDKit          3D

 29 29  0  0  1  0  0  0  0  0999 V2000
   24.3251  -13.0126  -18.4060 N   0  0  0  0  0  0  0  0  0  0  0  0
   23.6408  -12.7370  -17.1565 C   0  0  1  0  0  0  0  0  0  0  0  0
   24.7342  -12.3842  -16.1448 C   0  0  0  0  0  0  0  0  0  0  0  0
   25.4435  -13.6540  -15.8120 C   0  0  0  0  0  0  0  0  0  0  0  0
   26.6218  -14.0258  -16.4431 C   0  0  0  0  0  0  0  0  0  0  0  0
   27.2740  -15.2056  -16.1288 C   0  0  0  0  0  0  0  0  0  0  0  0
   26.7637  -16.0584  -15.1648 C   0  0  0  0  0  0  0  0  0  0  0  0
   25.5924  -15.6779  -14.5450 C   0  0  0  0  0  0  0  0  0  0  0  0
   24.9395  -14.5031  -14.8554 C   0  0  0  0  0  0  0  0  0  0  0  0
   22.7230  -11.5864  -17.3046 C   0  0  0  0  0  0  0  0  0  0  0  0
   23.0190  -10.6190  -18.0215 O   0  0  0  0  0  0  0  0  0  0  0  0
   21.4893  -11.5781  -16.6248 N   0  0  0  0  0  0  0  0  0  0  0  0
   20.5163  -10.4710  -16.7842 C   0  0  1  0  0  0  0  0  0  0  0  0
   19.1734  -11.1365  -16.6695 C   0  0  0  0  0  0  0  0  0  0  0  0
   18.0547  -10.1621  -16.8307 C   0  0  0  0  0  0  0  0  0  0  0  0
   16.7184  -10.9149  -16.7823 C   0  0  0  0  0  0  0  0  0  0  0  0
   15.6391   -9.8550  -16.8475 C   0  0  0  0  0  0  0  0  0  0  0  0
   14.3313  -10.4103  -16.5496 N   0  0  0  0  0  0  0  0  0  0  0  0
   20.6840   -9.5137  -15.6467 C   0  0  0  0  0  0  0  0  0  0  0  0
   20.8923   -9.9725  -14.4971 O   0  0  0  0  0  0  0  0  0  0  0  0
   23.2771   -4.2059  -14.2442 C   0  0  0  0  0  0  0  0  0  0  0  0
   22.1143   -5.1288  -13.9715 C   0  0  0  0  0  0  0  0  0  0  0  0
   21.9846   -6.1837  -15.0565 C   0  0  2  0  0  0  0  0  0  0  0  0
   21.7280   -5.4269  -16.3466 C   0  0  0  0  0  0  0  0  0  0  0  0
   20.8286   -7.1188  -14.8299 C   0  0  2  0  0  0  0  0  0  0  0  0
   20.6183   -8.1214  -15.8091 N   0  0  0  0  0  0  0  0  0  0  0  0
   19.6205   -6.3760  -14.4603 C   0  0  0  0  0  0  0  0  0  0  0  0
   19.3474   -5.7689  -13.2611 O   0  0  0  0  0  0  0  0  0  0  0  0
   18.7329   -6.3102  -15.4029 O   0  0  0  0  0  0  0  0  0  0  0  0
  2  1  1  6
  3  4  1  0
  3  2  1  0
  4  5  2  0
  5  6  1  0
  7  6  2  0
  8  7  1  0
  9  4  1  0
  9  8  2  0
 10  2  1  0
 10 11  2  0
 12 10  1  0
 13 12  1  0
 13 14  1  1
 15 14  1  0
 15 16  1  0
 17 16  1  0
 17 18  1  0
 19 13  1  0
 20 19  2  0
 21 22  1  0
 22 23  1  0
 23 24  1  6
 25 23  1  0
 25 26  1  6
 26 19  1  0
 27 28  1  0
 27 25  1  0
 29 27  2  0
M  END
$$$$
