DLD.pdb
     RDKit          3D

 25 24  0  0  1  0  0  0  0  0999 V2000
    9.1295  -18.2923   17.9504 N   0  0  0  0  0  0  0  0  0  0  0  0
   10.5483  -17.8606   18.1229 C   0  0  1  0  0  0  0  0  0  0  0  0
   10.9431  -17.3779   16.7704 C   0  0  0  0  0  0  0  0  0  0  0  0
   11.0944  -18.3724   15.7237 C   0  0  0  0  0  0  0  0  0  0  0  0
   12.1174  -18.3640   14.9957 O   0  0  0  0  0  0  0  0  0  0  0  0
   10.6420  -16.9035   19.2222 C   0  0  0  0  0  0  0  0  0  0  0  0
   11.7050  -16.3389   19.5586 O   0  0  0  0  0  0  0  0  0  0  0  0
   10.1673  -19.3745   15.4483 O   0  0  0  0  0  0  0  0  0  0  0  0
    8.2632  -12.7861   19.9331 C   0  0  0  0  0  0  0  0  0  0  0  0
    7.6345  -14.1282   20.1769 C   0  0  2  0  0  0  0  0  0  0  0  0
    6.1878  -13.8276   20.6419 C   0  0  0  0  0  0  0  0  0  0  0  0
    8.2384  -14.9697   21.2041 C   0  0  0  0  0  0  0  0  0  0  0  0
    9.6034  -15.5261   21.0919 C   0  0  2  0  0  0  0  0  0  0  0  0
    9.4990  -16.5579   19.9855 N   0  0  0  0  0  0  0  0  0  0  0  0
   10.1475  -16.2734   22.2188 C   0  0  0  0  0  0  0  0  0  0  0  0
    9.6507  -17.4473   22.4373 O   0  0  0  0  0  0  0  0  0  0  0  0
   11.1579  -15.8722   23.0905 N   0  0  0  0  0  0  0  0  0  0  0  0
   11.5899  -16.7239   24.1767 C   0  0  1  0  0  0  0  0  0  0  0  0
   13.0488  -16.4572   24.5332 C   0  0  0  0  0  0  0  0  0  0  0  0
   13.9624  -16.5710   23.3917 C   0  0  0  0  0  0  0  0  0  0  0  0
   13.7682  -17.4342   22.5136 O   0  0  0  0  0  0  0  0  0  0  0  0
   10.7702  -16.5462   25.3583 C   0  0  0  0  0  0  0  0  0  0  0  0
    9.7333  -15.6492   25.4443 O   0  0  0  0  0  0  0  0  0  0  0  0
   15.0423  -15.7235   23.2782 O   0  0  0  0  0  0  0  0  0  0  0  0
   11.0093  -17.2452   26.3716 O   0  0  0  0  0  0  0  0  0  0  0  0
  2  1  1  6
  2  6  1  0
  2  3  1  0
  3  4  1  0
  4  5  2  0
  4  8  1  0
  6  7  2  0
 10  9  1  1
 10 12  1  0
 11 10  1  0
 13 12  1  1
 14 13  1  0
 14  6  1  0
 15 13  1  0
 16 15  2  0
 17 15  1  0
 18 17  1  0
 18 19  1  1
 19 20  1  0
 20 21  2  0
 22 18  1  0
 23 22  1  0
 24 20  1  0
 25 22  2  0
M  END
$$$$
