DLD.pdb
     RDKit          3D

 25 24  0  0  1  0  0  0  0  0999 V2000
    8.7090  -15.4193   19.8696 N   0  0  0  0  0  0  0  0  0  0  0  0
    7.7877  -15.7399   20.9999 C   0  0  1  0  0  0  0  0  0  0  0  0
    7.5746  -17.2093   20.8829 C   0  0  0  0  0  0  0  0  0  0  0  0
    8.7404  -18.0655   21.0070 C   0  0  0  0  0  0  0  0  0  0  0  0
    9.0270  -18.5752   22.1183 O   0  0  0  0  0  0  0  0  0  0  0  0
    8.3559  -15.2498   22.2530 C   0  0  0  0  0  0  0  0  0  0  0  0
    9.5512  -14.9092   22.3836 O   0  0  0  0  0  0  0  0  0  0  0  0
    9.6001  -18.3837   19.9587 O   0  0  0  0  0  0  0  0  0  0  0  0
    7.6527  -11.6515   25.6256 C   0  0  0  0  0  0  0  0  0  0  0  0
    6.6695  -12.7335   25.2812 C   0  0  2  0  0  0  0  0  0  0  0  0
    5.4490  -12.4906   26.2036 C   0  0  0  0  0  0  0  0  0  0  0  0
    7.0927  -14.1121   25.5007 C   0  0  0  0  0  0  0  0  0  0  0  0
    8.1893  -14.7503   24.7419 C   0  0  2  0  0  0  0  0  0  0  0  0
    7.5570  -15.1335   23.4179 N   0  0  0  0  0  0  0  0  0  0  0  0
    8.7471  -16.0014   25.2400 C   0  0  0  0  0  0  0  0  0  0  0  0
    8.0406  -17.0697   25.0604 O   0  0  0  0  0  0  0  0  0  0  0  0
    9.9693  -16.1853   25.8835 N   0  0  0  0  0  0  0  0  0  0  0  0
   10.4212  -17.5047   26.2666 C   0  0  1  0  0  0  0  0  0  0  0  0
   11.8629  -17.7377   25.8262 C   0  0  0  0  0  0  0  0  0  0  0  0
   12.4051  -19.0319   26.2526 C   0  0  0  0  0  0  0  0  0  0  0  0
   11.6484  -20.0092   26.4135 O   0  0  0  0  0  0  0  0  0  0  0  0
   10.3199  -17.7139   27.6969 C   0  0  0  0  0  0  0  0  0  0  0  0
   10.4785  -18.9349   28.3062 O   0  0  0  0  0  0  0  0  0  0  0  0
   13.7561  -19.1798   26.4768 O   0  0  0  0  0  0  0  0  0  0  0  0
   10.0727  -16.7318   28.4363 O   0  0  0  0  0  0  0  0  0  0  0  0
  2  1  1  6
  2  6  1  0
  2  3  1  0
  3  4  1  0
  4  5  2  0
  4  8  1  0
  6  7  2  0
 10  9  1  1
 10 12  1  0
 11 10  1  0
 13 12  1  1
 14 13  1  0
 14  6  1  0
 15 13  1  0
 16 15  2  0
 17 15  1  0
 18 17  1  0
 18 19  1  1
 19 20  1  0
 20 21  2  0
 22 18  1  0
 23 22  1  0
 24 20  1  0
 25 22  2  0
M  END
$$$$
