DLD.pdb
     RDKit          3D

 25 24  0  0  1  0  0  0  0  0999 V2000
   13.5985  -15.0726   17.3429 N   0  0  0  0  0  0  0  0  0  0  0  0
   12.4743  -15.8451   17.9501 C   0  0  1  0  0  0  0  0  0  0  0  0
   13.0470  -17.2031   18.1644 C   0  0  0  0  0  0  0  0  0  0  0  0
   13.4564  -17.9489   16.9881 C   0  0  0  0  0  0  0  0  0  0  0  0
   12.6079  -18.2550   16.1146 O   0  0  0  0  0  0  0  0  0  0  0  0
   11.9740  -15.1427   19.1290 C   0  0  0  0  0  0  0  0  0  0  0  0
   12.6835  -14.4076   19.8487 O   0  0  0  0  0  0  0  0  0  0  0  0
   14.7599  -18.3685   16.7348 O   0  0  0  0  0  0  0  0  0  0  0  0
    8.5676  -12.0148   19.3759 C   0  0  0  0  0  0  0  0  0  0  0  0
    8.2260  -13.4774   19.3566 C   0  0  2  0  0  0  0  0  0  0  0  0
    6.6783  -13.5397   19.3712 C   0  0  0  0  0  0  0  0  0  0  0  0
    8.6884  -14.2840   20.4805 C   0  0  0  0  0  0  0  0  0  0  0  0
   10.1183  -14.5349   20.7597 C   0  0  2  0  0  0  0  0  0  0  0  0
   10.6195  -15.2640   19.5280 N   0  0  0  0  0  0  0  0  0  0  0  0
   10.4694  -15.4230   21.8607 C   0  0  0  0  0  0  0  0  0  0  0  0
   10.0727  -15.0760   23.0419 O   0  0  0  0  0  0  0  0  0  0  0  0
   11.1796  -16.6197   21.7883 N   0  0  0  0  0  0  0  0  0  0  0  0
   11.5107  -17.3658   22.9822 C   0  0  1  0  0  0  0  0  0  0  0  0
   11.4270  -18.8676   22.7289 C   0  0  0  0  0  0  0  0  0  0  0  0
   10.0529  -19.3739   22.6500 C   0  0  0  0  0  0  0  0  0  0  0  0
    9.3000  -19.3085   23.6413 O   0  0  0  0  0  0  0  0  0  0  0  0
   12.8347  -17.0380   23.4716 C   0  0  0  0  0  0  0  0  0  0  0  0
   13.3852  -17.5733   24.6108 O   0  0  0  0  0  0  0  0  0  0  0  0
    9.5808  -19.9242   21.4787 O   0  0  0  0  0  0  0  0  0  0  0  0
   13.5321  -16.2181   22.8283 O   0  0  0  0  0  0  0  0  0  0  0  0
  2  1  1  1
  2  6  1  0
  2  3  1  0
  3  4  1  0
  4  5  2  0
  4  8  1  0
  6  7  2  0
 10  9  1  1
 10 12  1  0
 11 10  1  0
 13 12  1  6
 14 13  1  0
 14  6  1  0
 15 13  1  0
 16 15  2  0
 17 15  1  0
 18 17  1  0
 18 19  1  6
 19 20  1  0
 20 21  2  0
 22 18  1  0
 23 22  1  0
 24 20  1  0
 25 22  2  0
M  END
$$$$
