DLD.pdb
     RDKit          3D

 25 24  0  0  1  0  0  0  0  0999 V2000
    7.1139  -16.3713   21.3567 N   0  0  0  0  0  0  0  0  0  0  0  0
    8.5969  -16.1988   21.3719 C   0  0  1  0  0  0  0  0  0  0  0  0
    8.8704  -15.3426   20.1844 C   0  0  0  0  0  0  0  0  0  0  0  0
    8.8511  -15.9817   18.8811 C   0  0  0  0  0  0  0  0  0  0  0  0
    7.8812  -16.7096   18.5554 O   0  0  0  0  0  0  0  0  0  0  0  0
    9.0198  -15.6845   22.6720 C   0  0  0  0  0  0  0  0  0  0  0  0
   10.2047  -15.4021   22.9515 O   0  0  0  0  0  0  0  0  0  0  0  0
    9.8538  -15.8503   17.9236 O   0  0  0  0  0  0  0  0  0  0  0  0
    8.0867  -11.8799   25.6488 C   0  0  0  0  0  0  0  0  0  0  0  0
    7.0807  -12.9366   25.2917 C   0  0  2  0  0  0  0  0  0  0  0  0
    5.7934  -12.5591   26.0661 C   0  0  0  0  0  0  0  0  0  0  0  0
    7.4014  -14.3118   25.6572 C   0  0  0  0  0  0  0  0  0  0  0  0
    8.5496  -15.0508   25.0905 C   0  0  2  0  0  0  0  0  0  0  0  0
    8.0803  -15.4749   23.7122 N   0  0  0  0  0  0  0  0  0  0  0  0
    8.9569  -16.2994   25.7225 C   0  0  0  0  0  0  0  0  0  0  0  0
    8.1670  -17.3133   25.5782 O   0  0  0  0  0  0  0  0  0  0  0  0
   10.1143  -16.5345   26.4620 N   0  0  0  0  0  0  0  0  0  0  0  0
   10.4222  -17.8534   26.9692 C   0  0  1  0  0  0  0  0  0  0  0  0
   11.5398  -18.5031   26.1595 C   0  0  0  0  0  0  0  0  0  0  0  0
   12.0090  -19.7741   26.7210 C   0  0  0  0  0  0  0  0  0  0  0  0
   11.3004  -20.7966   26.6430 O   0  0  0  0  0  0  0  0  0  0  0  0
   10.8052  -17.8167   28.3663 C   0  0  0  0  0  0  0  0  0  0  0  0
   11.3317  -16.7106   28.9880 O   0  0  0  0  0  0  0  0  0  0  0  0
   13.2384  -19.8500   27.3376 O   0  0  0  0  0  0  0  0  0  0  0  0
   10.6536  -18.8483   29.0628 O   0  0  0  0  0  0  0  0  0  0  0  0
  2  1  1  1
  2  6  1  0
  2  3  1  0
  3  4  1  0
  4  5  2  0
  4  8  1  0
  6  7  2  0
 10  9  1  1
 10 12  1  0
 11 10  1  0
 13 12  1  1
 14 13  1  0
 14  6  1  0
 15 13  1  0
 16 15  2  0
 17 15  1  0
 18 17  1  0
 18 19  1  6
 19 20  1  0
 20 21  2  0
 22 18  1  0
 23 22  1  0
 24 20  1  0
 25 22  2  0
M  END
$$$$
