DLD.pdb
     RDKit          3D

 25 24  0  0  1  0  0  0  0  0999 V2000
    7.1046  -16.3305   21.4445 N   0  0  0  0  0  0  0  0  0  0  0  0
    8.5523  -15.9674   21.4075 C   0  0  1  0  0  0  0  0  0  0  0  0
    8.6297  -14.9083   20.3633 C   0  0  0  0  0  0  0  0  0  0  0  0
    8.4870  -15.3227   18.9793 C   0  0  0  0  0  0  0  0  0  0  0  0
    8.2686  -16.5288   18.7067 O   0  0  0  0  0  0  0  0  0  0  0  0
    9.0052  -15.6101   22.7494 C   0  0  0  0  0  0  0  0  0  0  0  0
   10.2043  -15.4225   23.0473 O   0  0  0  0  0  0  0  0  0  0  0  0
    8.5731  -14.4641   17.8863 O   0  0  0  0  0  0  0  0  0  0  0  0
    8.0750  -11.9578   25.6389 C   0  0  0  0  0  0  0  0  0  0  0  0
    7.0669  -13.0516   25.4307 C   0  0  2  0  0  0  0  0  0  0  0  0
    5.8470  -12.6593   26.3011 C   0  0  0  0  0  0  0  0  0  0  0  0
    7.4534  -14.3990   25.8343 C   0  0  0  0  0  0  0  0  0  0  0  0
    8.5719  -15.1384   25.2115 C   0  0  2  0  0  0  0  0  0  0  0  0
    8.0804  -15.4548   23.8122 N   0  0  0  0  0  0  0  0  0  0  0  0
    8.9389  -16.4390   25.7573 C   0  0  0  0  0  0  0  0  0  0  0  0
    7.9729  -17.2603   26.0126 O   0  0  0  0  0  0  0  0  0  0  0  0
   10.2217  -16.9106   26.0289 N   0  0  0  0  0  0  0  0  0  0  0  0
   10.4375  -18.2608   26.5000 C   0  0  1  0  0  0  0  0  0  0  0  0
   11.3565  -19.0289   25.5554 C   0  0  0  0  0  0  0  0  0  0  0  0
   11.7499  -20.3476   26.0623 C   0  0  0  0  0  0  0  0  0  0  0  0
   11.0163  -21.3381   25.8761 O   0  0  0  0  0  0  0  0  0  0  0  0
   11.0012  -18.2813   27.8348 C   0  0  0  0  0  0  0  0  0  0  0  0
   11.5499  -17.1835   28.4521 O   0  0  0  0  0  0  0  0  0  0  0  0
   12.9350  -20.5041   26.7467 O   0  0  0  0  0  0  0  0  0  0  0  0
   10.9960  -19.3578   28.4777 O   0  0  0  0  0  0  0  0  0  0  0  0
  2  1  1  1
  2  6  1  0
  2  3  1  0
  3  4  1  0
  4  5  2  0
  4  8  1  0
  6  7  2  0
 10  9  1  1
 10 12  1  0
 11 10  1  0
 13 12  1  1
 14 13  1  0
 14  6  1  0
 15 13  1  0
 16 15  2  0
 17 15  1  0
 18 17  1  0
 18 19  1  6
 19 20  1  0
 20 21  2  0
 22 18  1  0
 23 22  1  0
 24 20  1  0
 25 22  2  0
M  END
$$$$
