DLD.pdb
     RDKit          3D

 25 24  0  0  1  0  0  0  0  0999 V2000
    8.2864  -15.9500   19.8768 N   0  0  0  0  0  0  0  0  0  0  0  0
    7.8829  -16.3984   21.2426 C   0  0  1  0  0  0  0  0  0  0  0  0
    8.3576  -17.8084   21.3118 C   0  0  0  0  0  0  0  0  0  0  0  0
    7.7978  -18.7495   20.3587 C   0  0  0  0  0  0  0  0  0  0  0  0
    6.6438  -19.2106   20.5387 O   0  0  0  0  0  0  0  0  0  0  0  0
    8.4094  -15.4716   22.2412 C   0  0  0  0  0  0  0  0  0  0  0  0
    9.5048  -14.8809   22.1266 O   0  0  0  0  0  0  0  0  0  0  0  0
    8.4554  -19.2007   19.2170 O   0  0  0  0  0  0  0  0  0  0  0  0
    5.8327  -12.4394   26.9667 C   0  0  0  0  0  0  0  0  0  0  0  0
    7.1067  -12.7153   26.2206 C   0  0  2  0  0  0  0  0  0  0  0  0
    7.5358  -11.3537   25.6195 C   0  0  0  0  0  0  0  0  0  0  0  0
    7.0375  -13.6598   25.1112 C   0  0  0  0  0  0  0  0  0  0  0  0
    8.2363  -14.2097   24.4434 C   0  0  2  0  0  0  0  0  0  0  0  0
    7.6838  -15.1883   23.4252 N   0  0  0  0  0  0  0  0  0  0  0  0
    9.1684  -15.0088   25.2289 C   0  0  0  0  0  0  0  0  0  0  0  0
    9.7935  -14.4054   26.1869 O   0  0  0  0  0  0  0  0  0  0  0  0
    9.4598  -16.3627   25.0746 N   0  0  0  0  0  0  0  0  0  0  0  0
   10.3635  -17.0404   25.9778 C   0  0  1  0  0  0  0  0  0  0  0  0
    9.7003  -18.2672   26.5957 C   0  0  0  0  0  0  0  0  0  0  0  0
   10.0511  -18.4775   28.0040 C   0  0  0  0  0  0  0  0  0  0  0  0
   10.8938  -17.7455   28.5589 O   0  0  0  0  0  0  0  0  0  0  0  0
   11.5865  -17.4435   25.3133 C   0  0  0  0  0  0  0  0  0  0  0  0
   12.7358  -17.8025   25.9747 O   0  0  0  0  0  0  0  0  0  0  0  0
    9.4507  -19.4844   28.7273 O   0  0  0  0  0  0  0  0  0  0  0  0
   11.6137  -17.4709   24.0599 O   0  0  0  0  0  0  0  0  0  0  0  0
  2  1  1  6
  2  6  1  0
  2  3  1  0
  3  4  1  0
  4  5  2  0
  4  8  1  0
  6  7  2  0
 10  9  1  6
 10 12  1  0
 11 10  1  0
 13 12  1  1
 14 13  1  0
 14  6  1  0
 15 13  1  0
 16 15  2  0
 17 15  1  0
 18 17  1  0
 18 19  1  6
 19 20  1  0
 20 21  2  0
 22 18  1  0
 23 22  1  0
 24 20  1  0
 25 22  2  0
M  END
$$$$
