CMT.pdb
     RDKit          3D

 22 21  0  0  1  0  0  0  0  0999 V2000
   19.9748  -12.9583  -20.2823 N   0  0  0  0  0  0  0  0  0  0  0  0
   20.2545  -11.5491  -20.3219 C   0  0  1  0  0  0  0  0  0  0  0  0
   19.4614  -10.9150  -21.4644 C   0  0  0  0  0  0  0  0  0  0  0  0
   20.2870  -11.2614  -23.0206 S   0  0  0  0  0  0  0  0  0  0  0  0
   19.8694  -10.8678  -19.0355 C   0  0  0  0  0  0  0  0  0  0  0  0
   18.6861  -10.9859  -18.6571 O   0  0  0  0  0  0  0  0  0  0  0  0
   22.3689   -9.0150  -11.9057 C   0  0  0  0  0  0  0  0  0  0  0  0
   22.7877   -9.6434  -13.5707 S   0  0  0  0  0  0  0  0  0  0  0  0
   21.4303   -9.1624  -14.6758 C   0  0  0  0  0  0  0  0  0  0  0  0
   21.6977   -9.7946  -16.0165 C   0  0  0  0  0  0  0  0  0  0  0  0
   20.6122   -9.4839  -17.0405 C   0  0  2  0  0  0  0  0  0  0  0  0
   20.8314  -10.1328  -18.3106 N   0  0  0  0  0  0  0  0  0  0  0  0
   20.4946   -8.0346  -17.1600 C   0  0  0  0  0  0  0  0  0  0  0  0
   21.4782   -7.4251  -17.7030 O   0  0  0  0  0  0  0  0  0  0  0  0
   17.8615   -5.9626  -18.9573 C   0  0  0  0  0  0  0  0  0  0  0  0
   18.0267   -5.4118  -17.5634 C   0  0  1  0  0  0  0  0  0  0  0  0
   17.0393   -5.8729  -16.7259 O   0  0  0  0  0  0  0  0  0  0  0  0
   19.3697   -5.8444  -17.0154 C   0  0  2  0  0  0  0  0  0  0  0  0
   19.4154   -7.2573  -16.7394 N   0  0  0  0  0  0  0  0  0  0  0  0
   19.7111   -5.1063  -15.7620 C   0  0  0  0  0  0  0  0  0  0  0  0
   19.8390   -5.7834  -14.5532 O   0  0  0  0  0  0  0  0  0  0  0  0
   19.8891   -3.8660  -15.7711 O   0  0  0  0  0  0  0  0  0  0  0  0
  2  1  1  1
  2  5  1  0
  3  2  1  0
  3  4  1  0
  5  6  2  0
  8  7  1  0
  8  9  1  0
  9 10  1  0
 11 10  1  1
 11 13  1  0
 12  5  1  0
 12 11  1  0
 13 14  2  0
 13 19  1  0
 16 15  1  6
 16 17  1  0
 18 16  1  0
 18 20  1  0
 18 19  1  1
 20 21  1  0
 22 20  2  0
M  END
$$$$
