CMT.pdb
     RDKit          3D

 22 21  0  0  1  0  0  0  0  0999 V2000
   17.2107   -8.3532  -17.9383 N   0  0  0  0  0  0  0  0  0  0  0  0
   17.4140   -7.1964  -17.1099 C   0  0  1  0  0  0  0  0  0  0  0  0
   16.2128   -6.2623  -17.2541 C   0  0  0  0  0  0  0  0  0  0  0  0
   16.2569   -5.4884  -18.8735 S   0  0  0  0  0  0  0  0  0  0  0  0
   17.5597   -7.5687  -15.6581 C   0  0  0  0  0  0  0  0  0  0  0  0
   16.7019   -8.3354  -15.1749 O   0  0  0  0  0  0  0  0  0  0  0  0
   22.6701   -9.7009  -11.9560 C   0  0  0  0  0  0  0  0  0  0  0  0
   22.7091   -8.9630  -13.6281 S   0  0  0  0  0  0  0  0  0  0  0  0
   20.9848   -8.7150  -14.1385 C   0  0  0  0  0  0  0  0  0  0  0  0
   20.4154   -7.6178  -13.2778 C   0  0  0  0  0  0  0  0  0  0  0  0
   18.9302   -7.3841  -13.5286 C   0  0  2  0  0  0  0  0  0  0  0  0
   18.6343   -7.0544  -14.9020 N   0  0  0  0  0  0  0  0  0  0  0  0
   18.4598   -6.3704  -12.5908 C   0  0  0  0  0  0  0  0  0  0  0  0
   19.0792   -5.2523  -12.6010 O   0  0  0  0  0  0  0  0  0  0  0  0
   15.3741   -4.5270  -12.5758 C   0  0  0  0  0  0  0  0  0  0  0  0
   15.5076   -5.0431  -11.1653 C   0  0  1  0  0  0  0  0  0  0  0  0
   14.7429   -6.1688  -10.9728 O   0  0  0  0  0  0  0  0  0  0  0  0
   16.9570   -5.3891  -10.8992 C   0  0  2  0  0  0  0  0  0  0  0  0
   17.4037   -6.5070  -11.6898 N   0  0  0  0  0  0  0  0  0  0  0  0
   17.1860   -5.7078   -9.4575 C   0  0  0  0  0  0  0  0  0  0  0  0
   17.6095   -6.9754   -9.0704 O   0  0  0  0  0  0  0  0  0  0  0  0
   17.0027   -4.8442   -8.5683 O   0  0  0  0  0  0  0  0  0  0  0  0
  2  1  1  6
  2  5  1  0
  3  2  1  0
  3  4  1  0
  5  6  2  0
  8  7  1  0
  8  9  1  0
  9 10  1  0
 11 10  1  6
 11 13  1  0
 12  5  1  0
 12 11  1  0
 13 14  2  0
 13 19  1  0
 16 15  1  6
 16 17  1  0
 18 16  1  0
 18 20  1  0
 18 19  1  6
 20 21  1  0
 22 20  2  0
M  END
$$$$
