CMT.pdb
     RDKit          3D

 22 21  0  0  1  0  0  0  0  0999 V2000
   20.2790  -15.0868  -17.7619 N   0  0  0  0  0  0  0  0  0  0  0  0
   20.9405  -13.9315  -18.3035 C   0  0  1  0  0  0  0  0  0  0  0  0
   20.0149  -13.2546  -19.3141 C   0  0  0  0  0  0  0  0  0  0  0  0
   19.8353  -14.3134  -20.7529 S   0  0  0  0  0  0  0  0  0  0  0  0
   21.2892  -12.9343  -17.2305 C   0  0  0  0  0  0  0  0  0  0  0  0
   20.5188  -12.8532  -16.2522 O   0  0  0  0  0  0  0  0  0  0  0  0
   27.2697  -10.1773  -16.9090 C   0  0  0  0  0  0  0  0  0  0  0  0
   26.7484  -10.3514  -15.1654 S   0  0  0  0  0  0  0  0  0  0  0  0
   24.9342  -10.2922  -15.1462 C   0  0  0  0  0  0  0  0  0  0  0  0
   24.4456  -11.1284  -16.2998 C   0  0  0  0  0  0  0  0  0  0  0  0
   22.9247  -11.1877  -16.3809 C   0  0  2  0  0  0  0  0  0  0  0  0
   22.4477  -12.1386  -17.3560 N   0  0  0  0  0  0  0  0  0  0  0  0
   22.4242   -9.8378  -16.6170 C   0  0  0  0  0  0  0  0  0  0  0  0
   22.6981   -9.3182  -17.7522 O   0  0  0  0  0  0  0  0  0  0  0  0
   19.2432   -8.7267  -17.3580 C   0  0  0  0  0  0  0  0  0  0  0  0
   19.6411   -7.8024  -16.2350 C   0  0  1  0  0  0  0  0  0  0  0  0
   19.1100   -8.2174  -15.0372 O   0  0  0  0  0  0  0  0  0  0  0  0
   21.1501   -7.7860  -16.1176 C   0  0  2  0  0  0  0  0  0  0  0  0
   21.6794   -9.0666  -15.7248 N   0  0  0  0  0  0  0  0  0  0  0  0
   21.6096   -6.7616  -15.1317 C   0  0  0  0  0  0  0  0  0  0  0  0
   21.3698   -5.4088  -15.3514 O   0  0  0  0  0  0  0  0  0  0  0  0
   22.2185   -7.0964  -14.0890 O   0  0  0  0  0  0  0  0  0  0  0  0
  2  1  1  1
  2  5  1  0
  3  2  1  0
  3  4  1  0
  5  6  2  0
  8  7  1  0
  8  9  1  0
  9 10  1  0
 11 10  1  6
 11 13  1  0
 12  5  1  0
 12 11  1  0
 13 14  2  0
 13 19  1  0
 16 15  1  6
 16 17  1  0
 18 16  1  0
 18 20  1  0
 18 19  1  1
 20 21  1  0
 22 20  2  0
M  END
$$$$
