CMT.pdb
     RDKit          3D

 22 21  0  0  1  0  0  0  0  0999 V2000
   25.5883  -13.8073  -17.2762 N   0  0  0  0  0  0  0  0  0  0  0  0
   25.1666  -12.9379  -16.2123 C   0  0  1  0  0  0  0  0  0  0  0  0
   26.3088  -11.9831  -15.8658 C   0  0  0  0  0  0  0  0  0  0  0  0
   27.6338  -12.9065  -15.0815 S   0  0  0  0  0  0  0  0  0  0  0  0
   23.9624  -12.1224  -16.6026 C   0  0  0  0  0  0  0  0  0  0  0  0
   23.8579  -11.7937  -17.8018 O   0  0  0  0  0  0  0  0  0  0  0  0
   18.1938  -13.3434  -14.5560 C   0  0  0  0  0  0  0  0  0  0  0  0
   18.0049  -11.5298  -14.4233 S   0  0  0  0  0  0  0  0  0  0  0  0
   19.3322  -10.7848  -15.4125 C   0  0  0  0  0  0  0  0  0  0  0  0
   20.5928  -11.5583  -15.1271 C   0  0  0  0  0  0  0  0  0  0  0  0
   21.8035  -11.0049  -15.8696 C   0  0  2  0  0  0  0  0  0  0  0  0
   23.0086  -11.7609  -15.6276 N   0  0  0  0  0  0  0  0  0  0  0  0
   21.9450   -9.5931  -15.5298 C   0  0  0  0  0  0  0  0  0  0  0  0
   22.4850   -9.3291  -14.4017 O   0  0  0  0  0  0  0  0  0  0  0  0
   23.3935   -6.5893  -17.7023 C   0  0  0  0  0  0  0  0  0  0  0  0
   22.0668   -6.2389  -17.0772 C   0  0  1  0  0  0  0  0  0  0  0  0
   21.0388   -6.3827  -17.9781 O   0  0  0  0  0  0  0  0  0  0  0  0
   21.8145   -7.1584  -15.9016 C   0  0  2  0  0  0  0  0  0  0  0  0
   21.5482   -8.5117  -16.3165 N   0  0  0  0  0  0  0  0  0  0  0  0
   20.6654   -6.6827  -15.0735 C   0  0  0  0  0  0  0  0  0  0  0  0
   20.7657   -5.5122  -14.3279 O   0  0  0  0  0  0  0  0  0  0  0  0
   19.5899   -7.3244  -15.0321 O   0  0  0  0  0  0  0  0  0  0  0  0
  2  1  1  6
  2  5  1  0
  3  2  1  0
  3  4  1  0
  5  6  2  0
  8  7  1  0
  8  9  1  0
  9 10  1  0
 11 10  1  1
 11 13  1  0
 12  5  1  0
 12 11  1  0
 13 14  2  0
 13 19  1  0
 16 15  1  6
 16 17  1  0
 18 16  1  0
 18 20  1  0
 18 19  1  6
 20 21  1  0
 22 20  2  0
M  END
$$$$
