CMT.pdb
     RDKit          3D

 22 21  0  0  1  0  0  0  0  0999 V2000
   20.2188  -20.5588  -12.3091 N   0  0  0  0  0  0  0  0  0  0  0  0
   21.3154  -21.4337  -12.6216 C   0  0  1  0  0  0  0  0  0  0  0  0
   21.1801  -21.9058  -14.0691 C   0  0  0  0  0  0  0  0  0  0  0  0
   20.0016  -23.2582  -14.1420 S   0  0  0  0  0  0  0  0  0  0  0  0
   22.6433  -20.7410  -12.4658 C   0  0  0  0  0  0  0  0  0  0  0  0
   22.7461  -19.5885  -12.9331 O   0  0  0  0  0  0  0  0  0  0  0  0
   26.5534  -19.4293   -7.9238 C   0  0  0  0  0  0  0  0  0  0  0  0
   27.3870  -20.9419   -8.5236 S   0  0  0  0  0  0  0  0  0  0  0  0
   27.1872  -20.9774  -10.3274 C   0  0  0  0  0  0  0  0  0  0  0  0
   25.8644  -21.6360  -10.6196 C   0  0  0  0  0  0  0  0  0  0  0  0
   25.0471  -20.8785  -11.6596 C   0  0  2  0  0  0  0  0  0  0  0  0
   23.7087  -21.3961  -11.8126 N   0  0  0  0  0  0  0  0  0  0  0  0
   25.7947  -20.8674  -12.9124 C   0  0  0  0  0  0  0  0  0  0  0  0
   25.9524  -21.9953  -13.4927 O   0  0  0  0  0  0  0  0  0  0  0  0
   25.8383  -17.8168  -15.8183 C   0  0  0  0  0  0  0  0  0  0  0  0
   27.1524  -18.4641  -15.4609 C   0  0  1  0  0  0  0  0  0  0  0  0
   27.8451  -17.7106  -14.5436 O   0  0  0  0  0  0  0  0  0  0  0  0
   26.8864  -19.8302  -14.8657 C   0  0  2  0  0  0  0  0  0  0  0  0
   26.3496  -19.7475  -13.5317 N   0  0  0  0  0  0  0  0  0  0  0  0
   28.1289  -20.6591  -14.8251 C   0  0  0  0  0  0  0  0  0  0  0  0
   28.7404  -21.0778  -16.0027 O   0  0  0  0  0  0  0  0  0  0  0  0
   28.6461  -20.9944  -13.7341 O   0  0  0  0  0  0  0  0  0  0  0  0
  2  1  1  6
  2  5  1  0
  3  2  1  0
  3  4  1  0
  5  6  2  0
  8  7  1  0
  8  9  1  0
  9 10  1  0
 11 10  1  1
 11 13  1  0
 12  5  1  0
 12 11  1  0
 13 14  2  0
 13 19  1  0
 16 15  1  1
 16 17  1  0
 18 16  1  0
 18 20  1  0
 18 19  1  1
 20 21  1  0
 22 20  2  0
M  END
$$$$
