CMT.pdb
     RDKit          3D

 22 21  0  0  1  0  0  0  0  0999 V2000
   17.5288  -22.6672  -11.1582 N   0  0  0  0  0  0  0  0  0  0  0  0
   18.3432  -22.9328  -12.3123 C   0  0  1  0  0  0  0  0  0  0  0  0
   17.4644  -22.8951  -13.5624 C   0  0  0  0  0  0  0  0  0  0  0  0
   16.5865  -24.4537  -13.7149 S   0  0  0  0  0  0  0  0  0  0  0  0
   19.4405  -21.9132  -12.4673 C   0  0  0  0  0  0  0  0  0  0  0  0
   19.1423  -20.7173  -12.2721 O   0  0  0  0  0  0  0  0  0  0  0  0
   27.3054  -21.0535  -12.6843 C   0  0  0  0  0  0  0  0  0  0  0  0
   25.8798  -22.1753  -12.4571 S   0  0  0  0  0  0  0  0  0  0  0  0
   24.3825  -21.2030  -12.7860 C   0  0  0  0  0  0  0  0  0  0  0  0
   23.2072  -22.1388  -12.6784 C   0  0  0  0  0  0  0  0  0  0  0  0
   21.8815  -21.4573  -12.9970 C   0  0  2  0  0  0  0  0  0  0  0  0
   20.7428  -22.3260  -12.8198 N   0  0  0  0  0  0  0  0  0  0  0  0
   21.9628  -20.9008  -14.3432 C   0  0  0  0  0  0  0  0  0  0  0  0
   21.7618  -21.7129  -15.3095 O   0  0  0  0  0  0  0  0  0  0  0  0
   21.7324  -17.2419  -17.5736 C   0  0  0  0  0  0  0  0  0  0  0  0
   21.7168  -17.6705  -16.1280 C   0  0  1  0  0  0  0  0  0  0  0  0
   20.4579  -17.5556  -15.5885 O   0  0  0  0  0  0  0  0  0  0  0  0
   22.1550  -19.1164  -16.0349 C   0  0  2  0  0  0  0  0  0  0  0  0
   22.2377  -19.5732  -14.6715 N   0  0  0  0  0  0  0  0  0  0  0  0
   23.4833  -19.3270  -16.6858 C   0  0  0  0  0  0  0  0  0  0  0  0
   23.5666  -19.6721  -18.0312 O   0  0  0  0  0  0  0  0  0  0  0  0
   24.5478  -19.1981  -16.0375 O   0  0  0  0  0  0  0  0  0  0  0  0
  2  1  1  1
  2  5  1  0
  3  2  1  0
  3  4  1  0
  5  6  2  0
  8  7  1  0
  8  9  1  0
  9 10  1  0
 11 10  1  6
 11 13  1  0
 12  5  1  0
 12 11  1  0
 13 14  2  0
 13 19  1  0
 16 15  1  6
 16 17  1  0
 18 16  1  0
 18 20  1  0
 18 19  1  1
 20 21  1  0
 22 20  2  0
M  END
$$$$
