WAD.pdb
     RDKit          3D

 28 29  0  0  1  0  0  0  0  0999 V2000
    6.7469  -17.7921   25.5738 N   0  0  0  0  0  0  0  0  0  0  0  0
    6.1769  -16.9141   24.5693 C   0  0  1  0  0  0  0  0  0  0  0  0
    5.7726  -15.6254   25.2035 C   0  0  0  0  0  0  0  0  0  0  0  0
    6.8487  -14.9771   25.9881 C   0  0  0  0  0  0  0  0  0  0  0  0
    8.0035  -15.5319   26.4866 C   0  0  0  0  0  0  0  0  0  0  0  0
    8.7113  -14.6111   27.1714 N   0  0  0  0  0  0  0  0  0  0  0  0
    8.0339  -13.4310   27.1358 C   0  0  0  0  0  0  0  0  0  0  0  0
    8.3450  -12.2044   27.6848 C   0  0  0  0  0  0  0  0  0  0  0  0
    7.4767  -11.1545   27.5008 C   0  0  0  0  0  0  0  0  0  0  0  0
    6.3133  -11.3309   26.7768 C   0  0  0  0  0  0  0  0  0  0  0  0
    6.0482  -12.5707   26.2493 C   0  0  0  0  0  0  0  0  0  0  0  0
    6.8839  -13.6642   26.4026 C   0  0  0  0  0  0  0  0  0  0  0  0
    7.0665  -16.8517   23.4244 C   0  0  0  0  0  0  0  0  0  0  0  0
    7.9803  -17.6974   23.2489 O   0  0  0  0  0  0  0  0  0  0  0  0
    7.7448  -14.3572   20.7198 C   0  0  0  0  0  0  0  0  0  0  0  0
    7.9742  -15.7619   21.3376 C   0  0  2  0  0  0  0  0  0  0  0  0
    6.9969  -15.8456   22.3968 N   0  0  0  0  0  0  0  0  0  0  0  0
    9.3822  -15.7160   21.8063 C   0  0  0  0  0  0  0  0  0  0  0  0
    9.6315  -14.8715   22.7044 O   0  0  0  0  0  0  0  0  0  0  0  0
   10.4300  -16.5299   21.3331 N   0  0  0  0  0  0  0  0  0  0  0  0
   11.7850  -16.5530   21.7728 C   0  0  1  0  0  0  0  0  0  0  0  0
   12.1438  -17.7093   22.6954 C   0  0  0  0  0  0  0  0  0  0  0  0
   12.7064  -17.2782   23.9748 C   0  0  0  0  0  0  0  0  0  0  0  0
   12.9453  -16.0995   24.2890 O   0  0  0  0  0  0  0  0  0  0  0  0
   12.8042  -16.4711   20.7174 C   0  0  0  0  0  0  0  0  0  0  0  0
   13.9626  -15.7294   20.8293 O   0  0  0  0  0  0  0  0  0  0  0  0
   13.0095  -18.2584   24.9411 O   0  0  0  0  0  0  0  0  0  0  0  0
   12.6341  -17.0999   19.6499 O   0  0  0  0  0  0  0  0  0  0  0  0
  2  3  1  0
  2  1  1  1
  3  4  1  0
  4 12  1  0
  5  6  1  0
  5  4  2  0
  6  7  1  0
  7 12  2  0
  7  8  1  0
  8  9  2  0
  9 10  1  0
 11 10  2  0
 12 11  1  0
 13  2  1  0
 13 14  2  0
 16 15  1  1
 16 18  1  0
 16 17  1  0
 17 13  1  0
 18 19  2  0
 20 18  1  0
 20 21  1  0
 21 22  1  6
 22 23  1  0
 23 24  2  0
 25 21  1  0
 26 25  1  0
 27 23  1  0
 28 25  2  0
M  END
$$$$
