WAD.pdb
     RDKit          3D

 28 29  0  0  1  0  0  0  0  0999 V2000
    5.9065  -18.2353   23.8436 N   0  0  0  0  0  0  0  0  0  0  0  0
    6.4261  -16.8839   23.9357 C   0  0  1  0  0  0  0  0  0  0  0  0
    7.0962  -16.6953   25.2555 C   0  0  0  0  0  0  0  0  0  0  0  0
    6.5959  -15.5320   26.0238 C   0  0  0  0  0  0  0  0  0  0  0  0
    5.3080  -15.2459   26.4103 C   0  0  0  0  0  0  0  0  0  0  0  0
    5.2646  -14.0731   27.0739 N   0  0  0  0  0  0  0  0  0  0  0  0
    6.5258  -13.5649   27.1366 C   0  0  0  0  0  0  0  0  0  0  0  0
    6.9928  -12.3986   27.7060 C   0  0  0  0  0  0  0  0  0  0  0  0
    8.3353  -12.1128   27.6294 C   0  0  0  0  0  0  0  0  0  0  0  0
    9.1980  -12.9831   26.9915 C   0  0  0  0  0  0  0  0  0  0  0  0
    8.6853  -14.1320   26.4409 C   0  0  0  0  0  0  0  0  0  0  0  0
    7.3437  -14.4718   26.4860 C   0  0  0  0  0  0  0  0  0  0  0  0
    7.1928  -16.5810   22.7414 C   0  0  0  0  0  0  0  0  0  0  0  0
    7.7983  -17.4760   22.0984 O   0  0  0  0  0  0  0  0  0  0  0  0
    8.0871  -13.4826   20.8197 C   0  0  0  0  0  0  0  0  0  0  0  0
    8.0221  -15.0286   20.9335 C   0  0  2  0  0  0  0  0  0  0  0  0
    7.3347  -15.2623   22.1811 N   0  0  0  0  0  0  0  0  0  0  0  0
    9.4479  -15.4430   20.9334 C   0  0  0  0  0  0  0  0  0  0  0  0
   10.0838  -15.2114   19.8732 O   0  0  0  0  0  0  0  0  0  0  0  0
   10.1224  -16.0571   22.0067 N   0  0  0  0  0  0  0  0  0  0  0  0
   11.4215  -16.6422   22.0019 C   0  0  1  0  0  0  0  0  0  0  0  0
   11.8427  -17.2877   23.3145 C   0  0  0  0  0  0  0  0  0  0  0  0
   11.8497  -16.3574   24.4430 C   0  0  0  0  0  0  0  0  0  0  0  0
   11.9508  -15.1220   24.3496 O   0  0  0  0  0  0  0  0  0  0  0  0
   11.6951  -17.5900   20.9127 C   0  0  0  0  0  0  0  0  0  0  0  0
   10.7670  -18.4914   20.4325 O   0  0  0  0  0  0  0  0  0  0  0  0
   11.7349  -16.8802   25.7469 O   0  0  0  0  0  0  0  0  0  0  0  0
   12.8245  -17.5984   20.3759 O   0  0  0  0  0  0  0  0  0  0  0  0
  2  3  1  0
  2  1  1  6
  3  4  1  0
  4 12  1  0
  5  6  1  0
  5  4  2  0
  6  7  1  0
  7 12  2  0
  7  8  1  0
  8  9  2  0
  9 10  1  0
 11 10  2  0
 12 11  1  0
 13  2  1  0
 13 14  2  0
 16 15  1  1
 16 18  1  0
 16 17  1  0
 17 13  1  0
 18 19  2  0
 20 18  1  0
 20 21  1  0
 21 22  1  1
 22 23  1  0
 23 24  2  0
 25 21  1  0
 26 25  1  0
 27 23  1  0
 28 25  2  0
M  END
$$$$
