WAD.pdb
     RDKit          3D

 28 29  0  0  1  0  0  0  0  0999 V2000
    6.4283  -17.2422   23.9706 N   0  0  0  0  0  0  0  0  0  0  0  0
    6.9744  -15.9840   23.4978 C   0  0  1  0  0  0  0  0  0  0  0  0
    7.8899  -15.4172   24.5308 C   0  0  0  0  0  0  0  0  0  0  0  0
    7.1915  -14.7368   25.6458 C   0  0  0  0  0  0  0  0  0  0  0  0
    6.3543  -15.2764   26.5934 C   0  0  0  0  0  0  0  0  0  0  0  0
    5.8989  -14.3153   27.4220 N   0  0  0  0  0  0  0  0  0  0  0  0
    6.4295  -13.1232   27.0343 C   0  0  0  0  0  0  0  0  0  0  0  0
    6.2663  -11.8584   27.5601 C   0  0  0  0  0  0  0  0  0  0  0  0
    6.9243  -10.8043   26.9720 C   0  0  0  0  0  0  0  0  0  0  0  0
    7.7346  -11.0143   25.8729 C   0  0  0  0  0  0  0  0  0  0  0  0
    7.8659  -12.2919   25.3868 C   0  0  0  0  0  0  0  0  0  0  0  0
    7.2276  -13.3910   25.9363 C   0  0  0  0  0  0  0  0  0  0  0  0
    7.4994  -16.1613   22.1566 C   0  0  0  0  0  0  0  0  0  0  0  0
    7.8457  -17.2904   21.7249 O   0  0  0  0  0  0  0  0  0  0  0  0
    8.2178  -13.9168   19.2299 C   0  0  0  0  0  0  0  0  0  0  0  0
    8.2069  -15.3236   19.8841 C   0  0  2  0  0  0  0  0  0  0  0  0
    7.6716  -15.0946   21.2050 N   0  0  0  0  0  0  0  0  0  0  0  0
    9.6338  -15.7332   19.8646 C   0  0  0  0  0  0  0  0  0  0  0  0
   10.0917  -16.0641   18.7409 O   0  0  0  0  0  0  0  0  0  0  0  0
   10.4897  -15.7739   20.9827 N   0  0  0  0  0  0  0  0  0  0  0  0
   11.6548  -16.5741   21.1622 C   0  0  1  0  0  0  0  0  0  0  0  0
   12.9612  -15.7987   21.2560 C   0  0  0  0  0  0  0  0  0  0  0  0
   13.4693  -15.3580   19.9572 C   0  0  0  0  0  0  0  0  0  0  0  0
   14.2720  -14.4249   19.7836 O   0  0  0  0  0  0  0  0  0  0  0  0
   11.6084  -17.5363   22.2719 C   0  0  0  0  0  0  0  0  0  0  0  0
   10.6029  -17.5659   23.2167 O   0  0  0  0  0  0  0  0  0  0  0  0
   13.0272  -16.0284   18.7990 O   0  0  0  0  0  0  0  0  0  0  0  0
   12.5198  -18.3849   22.3867 O   0  0  0  0  0  0  0  0  0  0  0  0
  2  3  1  0
  2  1  1  1
  3  4  1  0
  4 12  1  0
  5  6  1  0
  5  4  2  0
  6  7  1  0
  7 12  2  0
  7  8  1  0
  8  9  2  0
  9 10  1  0
 11 10  2  0
 12 11  1  0
 13  2  1  0
 13 14  2  0
 16 15  1  6
 16 18  1  0
 16 17  1  0
 17 13  1  0
 18 19  2  0
 20 18  1  0
 20 21  1  0
 21 22  1  1
 22 23  1  0
 23 24  2  0
 25 21  1  0
 26 25  1  0
 27 23  1  0
 28 25  2  0
M  END
$$$$
