WAD.pdb
     RDKit          3D

 28 29  0  0  1  0  0  0  0  0999 V2000
    6.2298  -18.4757   24.4297 N   0  0  0  0  0  0  0  0  0  0  0  0
    6.9063  -17.2472   24.0582 C   0  0  1  0  0  0  0  0  0  0  0  0
    6.8867  -16.2983   25.2097 C   0  0  0  0  0  0  0  0  0  0  0  0
    7.2093  -14.9000   24.8429 C   0  0  0  0  0  0  0  0  0  0  0  0
    7.7509  -14.4205   23.6739 C   0  0  0  0  0  0  0  0  0  0  0  0
    7.9158  -13.0842   23.7442 N   0  0  0  0  0  0  0  0  0  0  0  0
    7.4846  -12.6590   24.9634 C   0  0  0  0  0  0  0  0  0  0  0  0
    7.4489  -11.3919   25.5074 C   0  0  0  0  0  0  0  0  0  0  0  0
    6.9583  -11.2293   26.7813 C   0  0  0  0  0  0  0  0  0  0  0  0
    6.5096  -12.3205   27.5000 C   0  0  0  0  0  0  0  0  0  0  0  0
    6.5647  -13.5616   26.9148 C   0  0  0  0  0  0  0  0  0  0  0  0
    7.0490  -13.7863   25.6371 C   0  0  0  0  0  0  0  0  0  0  0  0
    8.1939  -17.5661   23.4698 C   0  0  0  0  0  0  0  0  0  0  0  0
    8.9170  -18.4910   23.9202 O   0  0  0  0  0  0  0  0  0  0  0  0
   10.3903  -16.0958   20.8155 C   0  0  0  0  0  0  0  0  0  0  0  0
   10.0206  -17.2749   21.7538 C   0  0  2  0  0  0  0  0  0  0  0  0
    8.7618  -16.8790   22.3391 N   0  0  0  0  0  0  0  0  0  0  0  0
   11.1516  -17.3301   22.7141 C   0  0  0  0  0  0  0  0  0  0  0  0
   12.2081  -17.8596   22.2836 O   0  0  0  0  0  0  0  0  0  0  0  0
   11.1286  -16.8427   24.0354 N   0  0  0  0  0  0  0  0  0  0  0  0
   12.1485  -16.9513   25.0244 C   0  0  1  0  0  0  0  0  0  0  0  0
   13.2113  -15.8626   24.9769 C   0  0  0  0  0  0  0  0  0  0  0  0
   14.3611  -16.2097   24.1421 C   0  0  0  0  0  0  0  0  0  0  0  0
   15.3420  -15.4746   23.9362 O   0  0  0  0  0  0  0  0  0  0  0  0
   11.6855  -17.0841   26.4127 C   0  0  0  0  0  0  0  0  0  0  0  0
   10.5703  -17.8088   26.7807 O   0  0  0  0  0  0  0  0  0  0  0  0
   14.3790  -17.4703   23.5119 O   0  0  0  0  0  0  0  0  0  0  0  0
   12.3215  -16.5176   27.3285 O   0  0  0  0  0  0  0  0  0  0  0  0
  2  3  1  0
  2  1  1  1
  3  4  1  0
  4 12  1  0
  5  6  1  0
  5  4  2  0
  6  7  1  0
  7 12  2  0
  7  8  1  0
  8  9  2  0
  9 10  1  0
 11 10  2  0
 12 11  1  0
 13  2  1  0
 13 14  2  0
 16 15  1  6
 16 18  1  0
 16 17  1  0
 17 13  1  0
 18 19  2  0
 20 18  1  0
 20 21  1  0
 21 22  1  1
 22 23  1  0
 23 24  2  0
 25 21  1  0
 26 25  1  0
 27 23  1  0
 28 25  2  0
M  END
$$$$
