WAD.pdb
     RDKit          3D

 28 29  0  0  1  0  0  0  0  0999 V2000
    5.9862  -17.8054   23.7204 N   0  0  0  0  0  0  0  0  0  0  0  0
    6.5588  -16.4791   23.5869 C   0  0  1  0  0  0  0  0  0  0  0  0
    7.4090  -16.1801   24.7761 C   0  0  0  0  0  0  0  0  0  0  0  0
    6.8296  -15.1702   25.6917 C   0  0  0  0  0  0  0  0  0  0  0  0
    5.6470  -15.2208   26.3908 C   0  0  0  0  0  0  0  0  0  0  0  0
    5.4665  -14.0850   27.0944 N   0  0  0  0  0  0  0  0  0  0  0  0
    6.5294  -13.2646   26.8710 C   0  0  0  0  0  0  0  0  0  0  0  0
    6.8044  -12.0042   27.3594 C   0  0  0  0  0  0  0  0  0  0  0  0
    7.9665  -11.3803   26.9718 C   0  0  0  0  0  0  0  0  0  0  0  0
    8.8408  -12.0101   26.1072 C   0  0  0  0  0  0  0  0  0  0  0  0
    8.5232  -13.2651   25.6489 C   0  0  0  0  0  0  0  0  0  0  0  0
    7.3682  -13.9416   26.0035 C   0  0  0  0  0  0  0  0  0  0  0  0
    7.1648  -16.3466   22.2750 C   0  0  0  0  0  0  0  0  0  0  0  0
    7.7903  -17.2948   21.7356 O   0  0  0  0  0  0  0  0  0  0  0  0
    7.8470  -13.4863   19.9655 C   0  0  0  0  0  0  0  0  0  0  0  0
    7.8737  -15.0103   20.2556 C   0  0  2  0  0  0  0  0  0  0  0  0
    7.1129  -15.1512   21.4743 N   0  0  0  0  0  0  0  0  0  0  0  0
    9.3193  -15.3175   20.3976 C   0  0  0  0  0  0  0  0  0  0  0  0
   10.0028  -15.2265   19.3458 O   0  0  0  0  0  0  0  0  0  0  0  0
    9.9637  -15.6903   21.5934 N   0  0  0  0  0  0  0  0  0  0  0  0
   11.2987  -16.1606   21.7563 C   0  0  1  0  0  0  0  0  0  0  0  0
   12.1190  -15.4225   22.8048 C   0  0  0  0  0  0  0  0  0  0  0  0
   13.5140  -15.8582   22.8630 C   0  0  0  0  0  0  0  0  0  0  0  0
   13.9725  -16.6787   23.6765 O   0  0  0  0  0  0  0  0  0  0  0  0
   11.4476  -17.6044   21.9861 C   0  0  0  0  0  0  0  0  0  0  0  0
   10.8726  -18.2728   23.0477 O   0  0  0  0  0  0  0  0  0  0  0  0
   14.4269  -15.3183   21.9349 O   0  0  0  0  0  0  0  0  0  0  0  0
   12.1284  -18.2857   21.1885 O   0  0  0  0  0  0  0  0  0  0  0  0
  2  3  1  0
  2  1  1  1
  3  4  1  0
  4 12  1  0
  5  6  1  0
  5  4  2  0
  6  7  1  0
  7 12  2  0
  7  8  1  0
  8  9  2  0
  9 10  1  0
 11 10  2  0
 12 11  1  0
 13  2  1  0
 13 14  2  0
 16 15  1  1
 16 18  1  0
 16 17  1  0
 17 13  1  0
 18 19  2  0
 20 18  1  0
 20 21  1  0
 21 22  1  1
 22 23  1  0
 23 24  2  0
 25 21  1  0
 26 25  1  0
 27 23  1  0
 28 25  2  0
M  END
$$$$
