WAD.pdb
     RDKit          3D

 28 29  0  0  1  0  0  0  0  0999 V2000
    6.7340  -17.0419   23.0627 N   0  0  0  0  0  0  0  0  0  0  0  0
    7.2875  -15.7132   22.8812 C   0  0  1  0  0  0  0  0  0  0  0  0
    8.1149  -15.3503   24.0687 C   0  0  0  0  0  0  0  0  0  0  0  0
    7.3356  -14.7892   25.1965 C   0  0  0  0  0  0  0  0  0  0  0  0
    6.4724  -15.4339   26.0505 C   0  0  0  0  0  0  0  0  0  0  0  0
    5.9396  -14.5612   26.9292 N   0  0  0  0  0  0  0  0  0  0  0  0
    6.4436  -13.3238   26.6693 C   0  0  0  0  0  0  0  0  0  0  0  0
    6.2062  -12.1135   27.2871 C   0  0  0  0  0  0  0  0  0  0  0  0
    6.8528  -10.9925   26.8233 C   0  0  0  0  0  0  0  0  0  0  0  0
    7.7252  -11.0826   25.7558 C   0  0  0  0  0  0  0  0  0  0  0  0
    7.9292  -12.3100   25.1747 C   0  0  0  0  0  0  0  0  0  0  0  0
    7.3060  -13.4720   25.5975 C   0  0  0  0  0  0  0  0  0  0  0  0
    7.9111  -15.6264   21.5737 C   0  0  0  0  0  0  0  0  0  0  0  0
    8.6315  -16.5521   21.1207 O   0  0  0  0  0  0  0  0  0  0  0  0
    8.4095  -12.8594   19.1087 C   0  0  0  0  0  0  0  0  0  0  0  0
    8.6095  -14.3430   19.5166 C   0  0  2  0  0  0  0  0  0  0  0  0
    7.7724  -14.5049   20.6815 N   0  0  0  0  0  0  0  0  0  0  0  0
   10.0654  -14.4406   19.7909 C   0  0  0  0  0  0  0  0  0  0  0  0
   10.4709  -13.8286   20.8121 O   0  0  0  0  0  0  0  0  0  0  0  0
   10.9995  -15.1525   19.0131 N   0  0  0  0  0  0  0  0  0  0  0  0
   12.3984  -15.2956   19.2421 C   0  0  1  0  0  0  0  0  0  0  0  0
   12.9326  -16.7142   19.1036 C   0  0  0  0  0  0  0  0  0  0  0  0
   14.3882  -16.8001   19.2181 C   0  0  0  0  0  0  0  0  0  0  0  0
   15.0402  -16.5434   20.2447 O   0  0  0  0  0  0  0  0  0  0  0  0
   13.2704  -14.3968   18.4731 C   0  0  0  0  0  0  0  0  0  0  0  0
   14.5232  -14.0011   18.8953 O   0  0  0  0  0  0  0  0  0  0  0  0
   15.1294  -17.2024   18.0888 O   0  0  0  0  0  0  0  0  0  0  0  0
   12.8765  -13.9535   17.3721 O   0  0  0  0  0  0  0  0  0  0  0  0
  2  3  1  0
  2  1  1  1
  3  4  1  0
  4 12  1  0
  5  6  1  0
  5  4  2  0
  6  7  1  0
  7 12  2  0
  7  8  1  0
  8  9  2  0
  9 10  1  0
 11 10  2  0
 12 11  1  0
 13  2  1  0
 13 14  2  0
 16 15  1  1
 16 18  1  0
 16 17  1  0
 17 13  1  0
 18 19  2  0
 20 18  1  0
 20 21  1  0
 21 22  1  6
 22 23  1  0
 23 24  2  0
 25 21  1  0
 26 25  1  0
 27 23  1  0
 28 25  2  0
M  END
$$$$
