WAD.pdb
     RDKit          3D

 28 29  0  0  1  0  0  0  0  0999 V2000
    8.1377  -17.3927   23.7411 N   0  0  0  0  0  0  0  0  0  0  0  0
    8.5130  -16.0598   23.3083 C   0  0  1  0  0  0  0  0  0  0  0  0
    7.2883  -15.2219   23.1524 C   0  0  0  0  0  0  0  0  0  0  0  0
    6.7277  -14.7312   24.4326 C   0  0  0  0  0  0  0  0  0  0  0  0
    6.0599  -15.4363   25.4056 C   0  0  0  0  0  0  0  0  0  0  0  0
    5.6860  -14.6166   26.4087 N   0  0  0  0  0  0  0  0  0  0  0  0
    6.1020  -13.3546   26.1137 C   0  0  0  0  0  0  0  0  0  0  0  0
    5.9600  -12.1782   26.8197 C   0  0  0  0  0  0  0  0  0  0  0  0
    6.4795  -11.0197   26.2922 C   0  0  0  0  0  0  0  0  0  0  0  0
    7.1321  -11.0396   25.0747 C   0  0  0  0  0  0  0  0  0  0  0  0
    7.2488  -12.2357   24.4102 C   0  0  0  0  0  0  0  0  0  0  0  0
    6.7454  -13.4326   24.8911 C   0  0  0  0  0  0  0  0  0  0  0  0
    9.5697  -15.5556   24.1657 C   0  0  0  0  0  0  0  0  0  0  0  0
   10.5239  -14.8749   23.7104 O   0  0  0  0  0  0  0  0  0  0  0  0
   10.3441  -15.1888   27.7651 C   0  0  0  0  0  0  0  0  0  0  0  0
   10.8446  -15.5558   26.3431 C   0  0  2  0  0  0  0  0  0  0  0  0
    9.6338  -15.7727   25.5876 N   0  0  0  0  0  0  0  0  0  0  0  0
   11.6581  -16.7788   26.5597 C   0  0  0  0  0  0  0  0  0  0  0  0
   11.0339  -17.7795   26.9967 O   0  0  0  0  0  0  0  0  0  0  0  0
   13.0402  -16.8973   26.3148 N   0  0  0  0  0  0  0  0  0  0  0  0
   13.8480  -18.0666   26.4152 C   0  0  1  0  0  0  0  0  0  0  0  0
   15.2190  -17.9611   25.7623 C   0  0  0  0  0  0  0  0  0  0  0  0
   15.2226  -17.1454   24.5483 C   0  0  0  0  0  0  0  0  0  0  0  0
   15.7425  -16.0210   24.4449 O   0  0  0  0  0  0  0  0  0  0  0  0
   14.0220  -18.6129   27.7683 C   0  0  0  0  0  0  0  0  0  0  0  0
   14.5950  -19.8408   28.0291 O   0  0  0  0  0  0  0  0  0  0  0  0
   14.5928  -17.6534   23.3943 O   0  0  0  0  0  0  0  0  0  0  0  0
   13.6371  -17.9457   28.7535 O   0  0  0  0  0  0  0  0  0  0  0  0
  2  3  1  0
  2  1  1  1
  3  4  1  0
  4 12  1  0
  5  6  1  0
  5  4  2  0
  6  7  1  0
  7 12  2  0
  7  8  1  0
  8  9  2  0
  9 10  1  0
 11 10  2  0
 12 11  1  0
 13  2  1  0
 13 14  2  0
 16 15  1  1
 16 18  1  0
 16 17  1  0
 17 13  1  0
 18 19  2  0
 20 18  1  0
 20 21  1  0
 21 22  1  1
 22 23  1  0
 23 24  2  0
 25 21  1  0
 26 25  1  0
 27 23  1  0
 28 25  2  0
M  END
$$$$
