MLT.pdb
     RDKit          3D

 24 23  0  0  1  0  0  0  0  0999 V2000
   19.6217  -29.3716  -19.0427 C   0  0  0  0  0  0  0  0  0  0  0  0
   21.3153  -28.9791  -19.5465 S   0  0  0  0  0  0  0  0  0  0  0  0
   21.5792  -27.1852  -19.6317 C   0  0  0  0  0  0  0  0  0  0  0  0
   22.9587  -26.8693  -20.1992 C   0  0  0  0  0  0  0  0  0  0  0  0
   23.8574  -26.2718  -19.1421 C   0  0  2  0  0  0  0  0  0  0  0  0
   23.4965  -24.9023  -18.8419 N   0  0  0  0  0  0  0  0  0  0  0  0
   25.2899  -26.3709  -19.5130 C   0  0  0  0  0  0  0  0  0  0  0  0
   25.7854  -25.4691  -20.2513 O   0  0  0  0  0  0  0  0  0  0  0  0
   29.0334  -25.1263  -18.4723 C   0  0  0  0  0  0  0  0  0  0  0  0
   28.3063  -26.1437  -17.5456 C   0  0  2  0  0  0  0  0  0  0  0  0
   29.1139  -26.1318  -16.2715 C   0  0  0  0  0  0  0  0  0  0  0  0
   28.4051  -27.4568  -18.2498 C   0  0  0  0  0  0  0  0  0  0  0  0
   27.5704  -27.4976  -19.4840 C   0  0  2  0  0  0  0  0  0  0  0  0
   26.1420  -27.4034  -19.0991 N   0  0  0  0  0  0  0  0  0  0  0  0
   27.7361  -28.6835  -20.3435 C   0  0  0  0  0  0  0  0  0  0  0  0
   27.3375  -29.8429  -19.9280 O   0  0  0  0  0  0  0  0  0  0  0  0
   26.5404  -29.3128  -24.0072 C   0  0  0  0  0  0  0  0  0  0  0  0
   28.0112  -29.5178  -23.8759 C   0  0  1  0  0  0  0  0  0  0  0  0
   28.7172  -28.4283  -24.3224 O   0  0  0  0  0  0  0  0  0  0  0  0
   28.3991  -29.9112  -22.4474 C   0  0  2  0  0  0  0  0  0  0  0  0
   28.2996  -28.7157  -21.6337 N   0  0  0  0  0  0  0  0  0  0  0  0
   29.7125  -30.5338  -22.4054 C   0  0  0  0  0  0  0  0  0  0  0  0
   29.8978  -31.6524  -22.9373 O   0  0  0  0  0  0  0  0  0  0  0  0
   30.7894  -29.9280  -21.7883 O   0  0  0  0  0  0  0  0  0  0  0  0
  1  2  1  0
  2  3  1  0
  4  3  1  0
  5  4  1  0
  5  6  1  6
  7  5  1  0
  7  8  2  0
 10  9  1  6
 10 12  1  0
 10 11  1  0
 13 12  1  1
 13 14  1  0
 14  7  1  0
 15 13  1  0
 16 15  2  0
 18 17  1  1
 18 20  1  0
 19 18  1  0
 20 22  1  0
 20 21  1  1
 21 15  1  0
 22 24  1  0
 23 22  2  0
M  END
$$$$
