MLT.pdb
     RDKit          3D

 24 23  0  0  1  0  0  0  0  0999 V2000
   29.6709  -43.1584   -6.8216 C   0  0  0  0  0  0  0  0  0  0  0  0
   29.4559  -41.9545   -5.4871 S   0  0  0  0  0  0  0  0  0  0  0  0
   30.0627  -40.3145   -5.9742 C   0  0  0  0  0  0  0  0  0  0  0  0
   29.8753  -39.3117   -4.8410 C   0  0  0  0  0  0  0  0  0  0  0  0
   30.3707  -37.9415   -5.2405 C   0  0  2  0  0  0  0  0  0  0  0  0
   31.8095  -37.8349   -5.1220 N   0  0  0  0  0  0  0  0  0  0  0  0
   29.6968  -36.8646   -4.4754 C   0  0  0  0  0  0  0  0  0  0  0  0
   30.2676  -36.4136   -3.4388 O   0  0  0  0  0  0  0  0  0  0  0  0
   25.2657  -32.7083   -5.2663 C   0  0  0  0  0  0  0  0  0  0  0  0
   26.0266  -33.5167   -4.1756 C   0  0  2  0  0  0  0  0  0  0  0  0
   26.7938  -32.4722   -3.4036 C   0  0  0  0  0  0  0  0  0  0  0  0
   26.9392  -34.4287   -4.9276 C   0  0  0  0  0  0  0  0  0  0  0  0
   27.7674  -35.2708   -4.0186 C   0  0  2  0  0  0  0  0  0  0  0  0
   28.4599  -36.3055   -4.8232 N   0  0  0  0  0  0  0  0  0  0  0  0
   27.0497  -35.9467   -2.9229 C   0  0  0  0  0  0  0  0  0  0  0  0
   26.0162  -36.6810   -3.1841 O   0  0  0  0  0  0  0  0  0  0  0  0
   28.5772  -38.3074   -0.2915 C   0  0  0  0  0  0  0  0  0  0  0  0
   27.7815  -37.2454    0.3880 C   0  0  1  0  0  0  0  0  0  0  0  0
   28.5865  -36.2608    0.9050 O   0  0  0  0  0  0  0  0  0  0  0  0
   26.6963  -36.6795   -0.5330 C   0  0  2  0  0  0  0  0  0  0  0  0
   27.3672  -35.8963   -1.5517 N   0  0  0  0  0  0  0  0  0  0  0  0
   25.7024  -35.9274    0.2160 C   0  0  0  0  0  0  0  0  0  0  0  0
   25.5523  -34.7011    0.0103 O   0  0  0  0  0  0  0  0  0  0  0  0
   24.8984  -36.5239    1.1673 O   0  0  0  0  0  0  0  0  0  0  0  0
  1  2  1  0
  2  3  1  0
  4  3  1  0
  5  4  1  0
  5  6  1  1
  7  5  1  0
  7  8  2  0
 10  9  1  6
 10 12  1  0
 10 11  1  0
 13 12  1  6
 13 14  1  0
 14  7  1  0
 15 13  1  0
 16 15  2  0
 18 17  1  6
 18 20  1  0
 19 18  1  0
 20 22  1  0
 20 21  1  6
 21 15  1  0
 22 24  1  0
 23 22  2  0
M  END
$$$$
