MLT.pdb
     RDKit          3D

 24 23  0  0  1  0  0  0  0  0999 V2000
   19.1164  -12.4246  -14.7326 C   0  0  0  0  0  0  0  0  0  0  0  0
   17.4854  -12.3920  -15.5169 S   0  0  0  0  0  0  0  0  0  0  0  0
   16.2456  -11.6333  -14.4296 C   0  0  0  0  0  0  0  0  0  0  0  0
   16.6240  -10.1928  -14.1029 C   0  0  0  0  0  0  0  0  0  0  0  0
   15.6411   -9.5793  -13.1334 C   0  0  2  0  0  0  0  0  0  0  0  0
   14.3148   -9.4786  -13.7048 N   0  0  0  0  0  0  0  0  0  0  0  0
   16.1034   -8.2606  -12.6367 C   0  0  0  0  0  0  0  0  0  0  0  0
   15.9083   -7.2410  -13.3620 O   0  0  0  0  0  0  0  0  0  0  0  0
   14.6982   -5.4766   -9.9303 C   0  0  0  0  0  0  0  0  0  0  0  0
   15.3182   -6.7459   -9.2770 C   0  0  2  0  0  0  0  0  0  0  0  0
   14.9395   -6.6395   -7.8207 C   0  0  0  0  0  0  0  0  0  0  0  0
   16.7920   -6.6100   -9.4757 C   0  0  0  0  0  0  0  0  0  0  0  0
   17.1805   -6.7353  -10.9092 C   0  0  2  0  0  0  0  0  0  0  0  0
   16.7475   -8.0623  -11.4082 N   0  0  0  0  0  0  0  0  0  0  0  0
   18.6145   -6.5776  -11.2116 C   0  0  0  0  0  0  0  0  0  0  0  0
   19.5015   -7.0912  -10.4209 O   0  0  0  0  0  0  0  0  0  0  0  0
   20.6931   -8.0808  -13.6860 C   0  0  0  0  0  0  0  0  0  0  0  0
   20.8410   -6.6113  -13.8893 C   0  0  1  0  0  0  0  0  0  0  0  0
   20.0537   -6.1598  -14.9195 O   0  0  0  0  0  0  0  0  0  0  0  0
   20.5942   -5.8361  -12.5915 C   0  0  2  0  0  0  0  0  0  0  0  0
   19.1726   -5.9062  -12.3166 N   0  0  0  0  0  0  0  0  0  0  0  0
   21.1015   -4.4763  -12.6797 C   0  0  0  0  0  0  0  0  0  0  0  0
   20.3089   -3.5067  -12.6920 O   0  0  0  0  0  0  0  0  0  0  0  0
   22.4535   -4.2037  -12.7524 O   0  0  0  0  0  0  0  0  0  0  0  0
  1  2  1  0
  2  3  1  0
  4  3  1  0
  5  4  1  0
  5  6  1  6
  7  5  1  0
  7  8  2  0
 10  9  1  6
 10 12  1  0
 10 11  1  0
 13 12  1  1
 13 14  1  0
 14  7  1  0
 15 13  1  0
 16 15  2  0
 18 17  1  1
 18 20  1  0
 19 18  1  0
 20 22  1  0
 20 21  1  6
 21 15  1  0
 22 24  1  0
 23 22  2  0
M  END
$$$$
