MLT.pdb
     RDKit          3D

 24 23  0  0  1  0  0  0  0  0999 V2000
   28.8200  -18.2525  -15.5174 C   0  0  0  0  0  0  0  0  0  0  0  0
   28.4672  -18.0987  -17.2860 S   0  0  0  0  0  0  0  0  0  0  0  0
   26.8355  -18.7809  -17.6949 C   0  0  0  0  0  0  0  0  0  0  0  0
   26.3622  -19.7370  -16.6055 C   0  0  0  0  0  0  0  0  0  0  0  0
   25.0182  -19.3156  -16.0591 C   0  0  2  0  0  0  0  0  0  0  0  0
   25.0782  -18.0124  -15.4317 N   0  0  0  0  0  0  0  0  0  0  0  0
   24.4586  -20.3246  -15.1274 C   0  0  0  0  0  0  0  0  0  0  0  0
   24.3088  -21.5115  -15.5430 O   0  0  0  0  0  0  0  0  0  0  0  0
   25.9730  -22.1396  -11.6913 C   0  0  0  0  0  0  0  0  0  0  0  0
   25.4385  -20.6978  -11.4509 C   0  0  2  0  0  0  0  0  0  0  0  0
   25.9119  -20.3507  -10.0613 C   0  0  0  0  0  0  0  0  0  0  0  0
   23.9511  -20.8144  -11.5145 C   0  0  0  0  0  0  0  0  0  0  0  0
   23.4643  -21.0546  -12.9026 C   0  0  2  0  0  0  0  0  0  0  0  0
   24.0801  -20.0534  -13.8058 N   0  0  0  0  0  0  0  0  0  0  0  0
   22.0039  -21.0107  -13.0975 C   0  0  0  0  0  0  0  0  0  0  0  0
   21.3251  -19.9966  -12.6656 O   0  0  0  0  0  0  0  0  0  0  0  0
   19.8367  -24.1840  -14.8662 C   0  0  0  0  0  0  0  0  0  0  0  0
   19.3919  -22.7776  -15.0828 C   0  0  1  0  0  0  0  0  0  0  0  0
   18.0518  -22.7083  -15.3730 O   0  0  0  0  0  0  0  0  0  0  0  0
   19.7744  -21.8785  -13.9033 C   0  0  2  0  0  0  0  0  0  0  0  0
   21.2102  -21.9841  -13.7345 N   0  0  0  0  0  0  0  0  0  0  0  0
   19.0228  -22.2224  -12.7069 C   0  0  0  0  0  0  0  0  0  0  0  0
   19.5701  -22.8636  -11.7806 O   0  0  0  0  0  0  0  0  0  0  0  0
   17.6991  -21.8628  -12.5465 O   0  0  0  0  0  0  0  0  0  0  0  0
  1  2  1  0
  2  3  1  0
  4  3  1  0
  5  4  1  0
  5  6  1  1
  7  5  1  0
  7  8  2  0
 10  9  1  1
 10 12  1  0
 10 11  1  0
 13 12  1  1
 13 14  1  0
 14  7  1  0
 15 13  1  0
 16 15  2  0
 18 17  1  1
 18 20  1  0
 19 18  1  0
 20 22  1  0
 20 21  1  1
 21 15  1  0
 22 24  1  0
 23 22  2  0
M  END
$$$$
