MLT.pdb
     RDKit          3D

 24 23  0  0  1  0  0  0  0  0999 V2000
   17.9238  -24.4338  -13.7885 C   0  0  0  0  0  0  0  0  0  0  0  0
   19.4196  -23.4174  -13.7121 S   0  0  0  0  0  0  0  0  0  0  0  0
   19.0695  -21.6937  -14.1604 C   0  0  0  0  0  0  0  0  0  0  0  0
   20.3581  -20.8814  -14.2275 C   0  0  0  0  0  0  0  0  0  0  0  0
   21.1116  -20.9487  -12.9198 C   0  0  2  0  0  0  0  0  0  0  0  0
   20.3854  -20.3015  -11.8476 N   0  0  0  0  0  0  0  0  0  0  0  0
   22.4810  -20.3924  -13.0407 C   0  0  0  0  0  0  0  0  0  0  0  0
   22.6266  -19.1350  -13.0009 O   0  0  0  0  0  0  0  0  0  0  0  0
   25.5835  -19.5150  -10.6792 C   0  0  0  0  0  0  0  0  0  0  0  0
   25.4121  -21.0253  -11.0137 C   0  0  2  0  0  0  0  0  0  0  0  0
   26.2957  -21.7316  -10.0156 C   0  0  0  0  0  0  0  0  0  0  0  0
   25.9222  -21.1791  -12.4087 C   0  0  0  0  0  0  0  0  0  0  0  0
   24.9883  -20.6010  -13.4162 C   0  0  2  0  0  0  0  0  0  0  0  0
   23.6367  -21.1691  -13.1975 N   0  0  0  0  0  0  0  0  0  0  0  0
   25.3480  -20.8060  -14.8309 C   0  0  0  0  0  0  0  0  0  0  0  0
   25.1031  -21.9419  -15.4014 O   0  0  0  0  0  0  0  0  0  0  0  0
   24.6645  -18.3701  -17.8786 C   0  0  0  0  0  0  0  0  0  0  0  0
   26.0926  -18.7957  -17.8309 C   0  0  1  0  0  0  0  0  0  0  0  0
   26.8993  -17.8091  -17.3205 O   0  0  0  0  0  0  0  0  0  0  0  0
   26.2596  -20.1222  -17.0836 C   0  0  2  0  0  0  0  0  0  0  0  0
   25.9531  -19.8682  -15.6898 N   0  0  0  0  0  0  0  0  0  0  0  0
   27.5830  -20.6874  -17.2928 C   0  0  0  0  0  0  0  0  0  0  0  0
   28.3588  -20.8528  -16.3236 O   0  0  0  0  0  0  0  0  0  0  0  0
   28.0300  -21.0578  -18.5459 O   0  0  0  0  0  0  0  0  0  0  0  0
  1  2  1  0
  2  3  1  0
  4  3  1  0
  5  4  1  0
  5  6  1  1
  7  5  1  0
  7  8  2  0
 10  9  1  1
 10 12  1  0
 10 11  1  0
 13 12  1  1
 13 14  1  0
 14  7  1  0
 15 13  1  0
 16 15  2  0
 18 17  1  1
 18 20  1  0
 19 18  1  0
 20 22  1  0
 20 21  1  1
 21 15  1  0
 22 24  1  0
 23 22  2  0
M  END
$$$$
