MLT.pdb
     RDKit          3D

 24 23  0  0  1  0  0  0  0  0999 V2000
   25.4663  -17.3058  -16.4288 C   0  0  0  0  0  0  0  0  0  0  0  0
   27.2302  -17.5303  -16.7674 S   0  0  0  0  0  0  0  0  0  0  0  0
   27.9710  -18.7385  -15.6332 C   0  0  0  0  0  0  0  0  0  0  0  0
   26.8891  -19.5212  -14.8971 C   0  0  0  0  0  0  0  0  0  0  0  0
   27.4962  -20.5650  -13.9891 C   0  0  2  0  0  0  0  0  0  0  0  0
   28.2692  -21.5383  -14.7313 N   0  0  0  0  0  0  0  0  0  0  0  0
   26.4712  -21.2331  -13.1510 C   0  0  0  0  0  0  0  0  0  0  0  0
   26.0201  -22.3543  -13.5295 O   0  0  0  0  0  0  0  0  0  0  0  0
   27.3551  -21.6772   -9.3827 C   0  0  0  0  0  0  0  0  0  0  0  0
   26.4111  -20.4419   -9.4553 C   0  0  2  0  0  0  0  0  0  0  0  0
   26.4891  -19.8307   -8.0784 C   0  0  0  0  0  0  0  0  0  0  0  0
   25.0546  -21.0001   -9.7357 C   0  0  0  0  0  0  0  0  0  0  0  0
   24.8705  -21.3344  -11.1765 C   0  0  2  0  0  0  0  0  0  0  0  0
   25.9620  -20.7047  -11.9573 N   0  0  0  0  0  0  0  0  0  0  0  0
   23.5863  -20.9341  -11.7791 C   0  0  0  0  0  0  0  0  0  0  0  0
   22.4830  -21.1127  -11.1259 O   0  0  0  0  0  0  0  0  0  0  0  0
   22.8272  -17.7558  -14.2837 C   0  0  0  0  0  0  0  0  0  0  0  0
   22.3279  -19.0723  -14.7737 C   0  0  1  0  0  0  0  0  0  0  0  0
   23.1464  -19.5965  -15.7432 O   0  0  0  0  0  0  0  0  0  0  0  0
   22.0995  -20.0525  -13.6191 C   0  0  2  0  0  0  0  0  0  0  0  0
   23.3977  -20.3440  -13.0438 N   0  0  0  0  0  0  0  0  0  0  0  0
   21.3819  -21.2373  -14.0615 C   0  0  0  0  0  0  0  0  0  0  0  0
   21.9380  -22.3591  -14.0329 O   0  0  0  0  0  0  0  0  0  0  0  0
   20.0817  -21.1748  -14.5228 O   0  0  0  0  0  0  0  0  0  0  0  0
  1  2  1  0
  2  3  1  0
  4  3  1  0
  5  4  1  0
  5  6  1  6
  7  5  1  0
  7  8  2  0
 10  9  1  1
 10 12  1  0
 10 11  1  0
 13 12  1  1
 13 14  1  0
 14  7  1  0
 15 13  1  0
 16 15  2  0
 18 17  1  1
 18 20  1  0
 19 18  1  0
 20 22  1  0
 20 21  1  6
 21 15  1  0
 22 24  1  0
 23 22  2  0
M  END
$$$$
