MLT.pdb
     RDKit          3D

 24 23  0  0  1  0  0  0  0  0999 V2000
   17.7803  -26.6650  -11.8636 C   0  0  0  0  0  0  0  0  0  0  0  0
   18.9572  -25.3374  -11.5045 S   0  0  0  0  0  0  0  0  0  0  0  0
   18.4598  -24.3945  -10.0353 C   0  0  0  0  0  0  0  0  0  0  0  0
   18.0099  -25.3316   -8.9198 C   0  0  0  0  0  0  0  0  0  0  0  0
   17.9880  -24.6194   -7.5876 C   0  0  2  0  0  0  0  0  0  0  0  0
   19.2578  -23.9888   -7.2949 N   0  0  0  0  0  0  0  0  0  0  0  0
   17.5803  -25.5223   -6.4841 C   0  0  0  0  0  0  0  0  0  0  0  0
   16.6746  -26.3784   -6.7088 O   0  0  0  0  0  0  0  0  0  0  0  0
   19.5581  -27.0808   -0.8646 C   0  0  0  0  0  0  0  0  0  0  0  0
   18.4636  -27.3502   -1.9379 C   0  0  2  0  0  0  0  0  0  0  0  0
   18.6432  -28.8041   -2.2978 C   0  0  0  0  0  0  0  0  0  0  0  0
   18.8049  -26.4520   -3.0810 C   0  0  0  0  0  0  0  0  0  0  0  0
   17.7199  -26.4034   -4.1018 C   0  0  2  0  0  0  0  0  0  0  0  0
   18.1331  -25.4938   -5.1968 N   0  0  0  0  0  0  0  0  0  0  0  0
   16.3943  -25.9718   -3.6232 C   0  0  0  0  0  0  0  0  0  0  0  0
   16.2327  -24.7723   -3.1639 O   0  0  0  0  0  0  0  0  0  0  0  0
   12.9580  -26.0452   -5.4294 C   0  0  0  0  0  0  0  0  0  0  0  0
   12.8713  -26.7538   -4.1206 C   0  0  1  0  0  0  0  0  0  0  0  0
   12.9153  -28.1170   -4.2778 O   0  0  0  0  0  0  0  0  0  0  0  0
   13.9328  -26.2514   -3.1374 C   0  0  2  0  0  0  0  0  0  0  0  0
   15.2142  -26.7402   -3.6065 N   0  0  0  0  0  0  0  0  0  0  0  0
   13.6245  -26.6491   -1.7731 C   0  0  0  0  0  0  0  0  0  0  0  0
   12.6279  -26.1689   -1.1859 O   0  0  0  0  0  0  0  0  0  0  0  0
   14.4040  -27.5557   -1.0819 O   0  0  0  0  0  0  0  0  0  0  0  0
  1  2  1  0
  2  3  1  0
  4  3  1  0
  5  4  1  0
  5  6  1  1
  7  5  1  0
  7  8  2  0
 10  9  1  1
 10 12  1  0
 10 11  1  0
 13 12  1  1
 13 14  1  0
 14  7  1  0
 15 13  1  0
 16 15  2  0
 18 17  1  6
 18 20  1  0
 19 18  1  0
 20 22  1  0
 20 21  1  6
 21 15  1  0
 22 24  1  0
 23 22  2  0
M  END
$$$$
