QLG.pdb
     RDKit          3D

 22 21  0  0  1  0  0  0  0  0999 V2000
    7.7091  -12.6139   18.3278 N   0  0  0  0  0  0  0  0  0  0  0  0
    7.9229  -14.0171   18.3347 C   0  0  0  0  0  0  0  0  0  0  0  0
    7.2875  -14.6738   17.4792 O   0  0  0  0  0  0  0  0  0  0  0  0
    8.8145  -14.6987   19.2644 C   0  0  0  0  0  0  0  0  0  0  0  0
    8.8689  -14.2150   20.6640 C   0  0  0  0  0  0  0  0  0  0  0  0
    8.6522  -15.2770   21.6704 C   0  0  2  0  0  0  0  0  0  0  0  0
    7.4223  -15.9536   21.5022 N   0  0  0  0  0  0  0  0  0  0  0  0
    8.8752  -14.8269   23.0699 C   0  0  0  0  0  0  0  0  0  0  0  0
    9.9102  -14.1716   23.3355 O   0  0  0  0  0  0  0  0  0  0  0  0
    7.5918  -11.4501   25.6961 C   0  0  0  0  0  0  0  0  0  0  0  0
    6.6447  -12.6181   25.5871 C   0  0  2  0  0  0  0  0  0  0  0  0
    5.3837  -12.2231   26.3763 C   0  0  0  0  0  0  0  0  0  0  0  0
    7.1726  -13.8757   26.1463 C   0  0  0  0  0  0  0  0  0  0  0  0
    8.2498  -14.5905   25.4333 C   0  0  2  0  0  0  0  0  0  0  0  0
    7.9815  -15.0950   24.1343 N   0  0  0  0  0  0  0  0  0  0  0  0
    8.8127  -15.6773   26.3057 C   0  0  0  0  0  0  0  0  0  0  0  0
    9.2898  -15.3844   27.4415 O   0  0  0  0  0  0  0  0  0  0  0  0
    8.8408  -17.0420   25.9219 N   0  0  0  0  0  0  0  0  0  0  0  0
   10.0418  -17.8496   26.0587 C   0  0  0  0  0  0  0  0  0  0  0  0
   10.0920  -18.4299   27.4118 C   0  0  0  0  0  0  0  0  0  0  0  0
   10.4730  -19.7466   27.5607 O   0  0  0  0  0  0  0  0  0  0  0  0
    9.7914  -17.7322   28.4123 O   0  0  0  0  0  0  0  0  0  0  0  0
  1  2  1  0
  2  3  2  0
  4  2  1  0
  5  4  1  0
  6  7  1  1
  6  5  1  0
  8  6  1  0
  8  9  2  0
 11 10  1  1
 11 12  1  0
 11 13  1  0
 14 13  1  1
 14 15  1  0
 14 16  1  0
 15  8  1  0
 16 18  1  0
 16 17  2  0
 18 19  1  0
 20 19  1  0
 20 21  1  0
 22 20  2  0
M  END
$$$$
