QLG.pdb
     RDKit          3D

 22 21  0  0  1  0  0  0  0  0999 V2000
    4.9048  -19.8953   23.9573 N   0  0  0  0  0  0  0  0  0  0  0  0
    6.1931  -19.9296   23.3622 C   0  0  0  0  0  0  0  0  0  0  0  0
    7.0941  -20.4803   24.0343 O   0  0  0  0  0  0  0  0  0  0  0  0
    6.4985  -19.3673   22.0529 C   0  0  0  0  0  0  0  0  0  0  0  0
    7.5232  -18.3001   21.9711 C   0  0  0  0  0  0  0  0  0  0  0  0
    6.9619  -16.9516   21.7388 C   0  0  2  0  0  0  0  0  0  0  0  0
    6.9899  -16.5693   20.3780 N   0  0  0  0  0  0  0  0  0  0  0  0
    7.5200  -15.9098   22.6412 C   0  0  0  0  0  0  0  0  0  0  0  0
    8.6283  -15.3970   22.3584 O   0  0  0  0  0  0  0  0  0  0  0  0
    6.3533  -12.0133   27.3648 C   0  0  0  0  0  0  0  0  0  0  0  0
    7.3025  -12.6362   26.3728 C   0  0  2  0  0  0  0  0  0  0  0  0
    7.8905  -11.4737   25.5534 C   0  0  0  0  0  0  0  0  0  0  0  0
    6.6649  -13.5879   25.4451 C   0  0  0  0  0  0  0  0  0  0  0  0
    7.5084  -14.5106   24.6599 C   0  0  2  0  0  0  0  0  0  0  0  0
    6.8708  -15.4549   23.8139 N   0  0  0  0  0  0  0  0  0  0  0  0
    8.4924  -15.2028   25.5607 C   0  0  0  0  0  0  0  0  0  0  0  0
    8.1371  -15.5525   26.7248 O   0  0  0  0  0  0  0  0  0  0  0  0
    9.8251  -15.4935   25.1739 N   0  0  0  0  0  0  0  0  0  0  0  0
   10.7714  -16.1047   26.0928 C   0  0  0  0  0  0  0  0  0  0  0  0
   12.1039  -16.1519   25.4665 C   0  0  0  0  0  0  0  0  0  0  0  0
   13.1508  -16.7161   26.1641 O   0  0  0  0  0  0  0  0  0  0  0  0
   12.2795  -15.6840   24.3139 O   0  0  0  0  0  0  0  0  0  0  0  0
  1  2  1  0
  2  3  2  0
  4  2  1  0
  5  4  1  0
  6  7  1  6
  6  5  1  0
  8  6  1  0
  8  9  2  0
 11 10  1  1
 11 12  1  0
 11 13  1  0
 14 13  1  1
 14 15  1  0
 14 16  1  0
 15  8  1  0
 16 18  1  0
 16 17  2  0
 18 19  1  0
 20 19  1  0
 20 21  1  0
 22 20  2  0
M  END
$$$$
