QLG.pdb
     RDKit          3D

 22 21  0  0  1  0  0  0  0  0999 V2000
    8.1862  -12.5008   17.9257 N   0  0  0  0  0  0  0  0  0  0  0  0
    8.0566  -13.8996   17.7222 C   0  0  0  0  0  0  0  0  0  0  0  0
    7.5661  -14.2521   16.6259 O   0  0  0  0  0  0  0  0  0  0  0  0
    8.4521  -14.9033   18.7019 C   0  0  0  0  0  0  0  0  0  0  0  0
    8.9826  -14.4387   20.0051 C   0  0  0  0  0  0  0  0  0  0  0  0
    8.5639  -15.2745   21.1512 C   0  0  2  0  0  0  0  0  0  0  0  0
    7.2869  -15.8546   20.9735 N   0  0  0  0  0  0  0  0  0  0  0  0
    8.7112  -14.5987   22.4675 C   0  0  0  0  0  0  0  0  0  0  0  0
    9.7587  -13.9505   22.6993 O   0  0  0  0  0  0  0  0  0  0  0  0
    5.6325  -12.1582   27.2661 C   0  0  0  0  0  0  0  0  0  0  0  0
    6.9253  -12.5990   26.6278 C   0  0  2  0  0  0  0  0  0  0  0  0
    7.7355  -11.3162   26.3693 C   0  0  0  0  0  0  0  0  0  0  0  0
    6.7533  -13.3104   25.3483 C   0  0  0  0  0  0  0  0  0  0  0  0
    7.9278  -13.9211   24.6946 C   0  0  2  0  0  0  0  0  0  0  0  0
    7.7311  -14.6416   23.4879 N   0  0  0  0  0  0  0  0  0  0  0  0
    8.6887  -14.7610   25.6818 C   0  0  0  0  0  0  0  0  0  0  0  0
    8.9485  -14.2958   26.8306 O   0  0  0  0  0  0  0  0  0  0  0  0
    9.1423  -16.0733   25.3950 N   0  0  0  0  0  0  0  0  0  0  0  0
    9.7684  -16.9044   26.4103 C   0  0  0  0  0  0  0  0  0  0  0  0
   10.2861  -18.1349   25.7873 C   0  0  0  0  0  0  0  0  0  0  0  0
   10.2744  -18.2442   24.4129 O   0  0  0  0  0  0  0  0  0  0  0  0
   10.7306  -19.0681   26.5012 O   0  0  0  0  0  0  0  0  0  0  0  0
  1  2  1  0
  2  3  2  0
  4  2  1  0
  5  4  1  0
  6  7  1  6
  6  5  1  0
  8  6  1  0
  8  9  2  0
 11 10  1  6
 11 12  1  0
 11 13  1  0
 14 13  1  1
 14 15  1  0
 14 16  1  0
 15  8  1  0
 16 18  1  0
 16 17  2  0
 18 19  1  0
 20 19  1  0
 20 21  1  0
 22 20  2  0
M  END
$$$$
