QLG.pdb
     RDKit          3D

 22 21  0  0  1  0  0  0  0  0999 V2000
    9.7999  -19.9137   21.7308 N   0  0  0  0  0  0  0  0  0  0  0  0
    9.5893  -19.0675   20.6109 C   0  0  0  0  0  0  0  0  0  0  0  0
    9.9836  -19.5081   19.5076 O   0  0  0  0  0  0  0  0  0  0  0  0
    8.9611  -17.7550   20.6908 C   0  0  0  0  0  0  0  0  0  0  0  0
    8.4549  -17.3002   22.0071 C   0  0  0  0  0  0  0  0  0  0  0  0
    8.2266  -15.8410   22.0860 C   0  0  2  0  0  0  0  0  0  0  0  0
    8.7428  -15.1408   20.9715 N   0  0  0  0  0  0  0  0  0  0  0  0
    8.6382  -15.2422   23.3833 C   0  0  0  0  0  0  0  0  0  0  0  0
    9.8197  -14.8457   23.5172 O   0  0  0  0  0  0  0  0  0  0  0  0
    7.5513  -11.3949   25.6225 C   0  0  0  0  0  0  0  0  0  0  0  0
    6.6418  -12.5620   25.9116 C   0  0  2  0  0  0  0  0  0  0  0  0
    5.5812  -12.0450   26.8999 C   0  0  0  0  0  0  0  0  0  0  0  0
    7.3226  -13.7202   26.5184 C   0  0  0  0  0  0  0  0  0  0  0  0
    8.2504  -14.5262   25.7006 C   0  0  2  0  0  0  0  0  0  0  0  0
    7.7694  -15.0899   24.4903 N   0  0  0  0  0  0  0  0  0  0  0  0
    8.8946  -15.5879   26.5471 C   0  0  0  0  0  0  0  0  0  0  0  0
    9.3560  -15.2856   27.6869 O   0  0  0  0  0  0  0  0  0  0  0  0
    9.0182  -16.9387   26.1341 N   0  0  0  0  0  0  0  0  0  0  0  0
    9.5525  -17.9621   27.0177 C   0  0  0  0  0  0  0  0  0  0  0  0
   10.9561  -18.2338   26.6626 C   0  0  0  0  0  0  0  0  0  0  0  0
   11.6063  -19.2887   27.2670 O   0  0  0  0  0  0  0  0  0  0  0  0
   11.5481  -17.5128   25.8213 O   0  0  0  0  0  0  0  0  0  0  0  0
  1  2  1  0
  2  3  2  0
  4  2  1  0
  5  4  1  0
  6  7  1  6
  6  5  1  0
  8  6  1  0
  8  9  2  0
 11 10  1  1
 11 12  1  0
 11 13  1  0
 14 13  1  1
 14 15  1  0
 14 16  1  0
 15  8  1  0
 16 18  1  0
 16 17  2  0
 18 19  1  0
 20 19  1  0
 20 21  1  0
 22 20  2  0
M  END
$$$$
