QLG.pdb
     RDKit          3D

 22 21  0  0  1  0  0  0  0  0999 V2000
    9.4846  -12.6482   18.3122 N   0  0  0  0  0  0  0  0  0  0  0  0
    8.3110  -13.4273   18.1382 C   0  0  0  0  0  0  0  0  0  0  0  0
    8.0294  -13.7407   16.9595 O   0  0  0  0  0  0  0  0  0  0  0  0
    7.4510  -13.8568   19.2334 C   0  0  0  0  0  0  0  0  0  0  0  0
    7.8541  -13.5116   20.6169 C   0  0  0  0  0  0  0  0  0  0  0  0
    8.1854  -14.6866   21.4519 C   0  0  2  0  0  0  0  0  0  0  0  0
    7.2175  -15.7137   21.3676 N   0  0  0  0  0  0  0  0  0  0  0  0
    8.5378  -14.3412   22.8545 C   0  0  0  0  0  0  0  0  0  0  0  0
    9.4846  -13.5460   23.0606 O   0  0  0  0  0  0  0  0  0  0  0  0
    7.7522  -11.4294   26.0532 C   0  0  0  0  0  0  0  0  0  0  0  0
    6.7777  -12.5677   25.8868 C   0  0  2  0  0  0  0  0  0  0  0  0
    5.6103  -12.2770   26.8467 C   0  0  0  0  0  0  0  0  0  0  0  0
    7.3363  -13.8916   26.2158 C   0  0  0  0  0  0  0  0  0  0  0  0
    8.3009  -14.5215   25.2926 C   0  0  2  0  0  0  0  0  0  0  0  0
    7.8634  -14.8600   23.9857 N   0  0  0  0  0  0  0  0  0  0  0  0
    8.9416  -15.7118   25.9496 C   0  0  0  0  0  0  0  0  0  0  0  0
    9.2469  -15.6604   27.1774 O   0  0  0  0  0  0  0  0  0  0  0  0
    9.2303  -16.9158   25.2586 N   0  0  0  0  0  0  0  0  0  0  0  0
    9.7041  -18.1012   25.9542 C   0  0  0  0  0  0  0  0  0  0  0  0
   11.1332  -18.3048   25.6606 C   0  0  0  0  0  0  0  0  0  0  0  0
   11.7583  -19.4383   26.1353 O   0  0  0  0  0  0  0  0  0  0  0  0
   11.7692  -17.4559   24.9875 O   0  0  0  0  0  0  0  0  0  0  0  0
  1  2  1  0
  2  3  2  0
  4  2  1  0
  5  4  1  0
  6  7  1  1
  6  5  1  0
  8  6  1  0
  8  9  2  0
 11 10  1  1
 11 12  1  0
 11 13  1  0
 14 13  1  1
 14 15  1  0
 14 16  1  0
 15  8  1  0
 16 18  1  0
 16 17  2  0
 18 19  1  0
 20 19  1  0
 20 21  1  0
 22 20  2  0
M  END
$$$$
