VGE.pdb
     RDKit          3D

 21 20  0  0  1  0  0  0  0  0999 V2000
   27.7900  -10.6554  -15.3139 C   0  0  0  0  0  0  0  0  0  0  0  0
   27.1366  -11.6258  -16.2597 C   0  0  2  0  0  0  0  0  0  0  0  0
   28.1623  -12.2988  -17.1628 C   0  0  0  0  0  0  0  0  0  0  0  0
   26.1355  -10.9606  -17.1743 C   0  0  2  0  0  0  0  0  0  0  0  0
   26.7885   -9.9659  -17.9862 N   0  0  0  0  0  0  0  0  0  0  0  0
   25.0416  -10.3629  -16.3815 C   0  0  0  0  0  0  0  0  0  0  0  0
   24.2143  -11.1683  -15.8591 O   0  0  0  0  0  0  0  0  0  0  0  0
   24.9025   -8.9603  -16.1993 N   0  0  0  0  0  0  0  0  0  0  0  0
   23.7495   -8.5193  -15.4847 C   0  0  0  0  0  0  0  0  0  0  0  0
   22.7003   -7.9284  -16.3533 C   0  0  0  0  0  0  0  0  0  0  0  0
   22.8298   -7.8253  -17.5971 O   0  0  0  0  0  0  0  0  0  0  0  0
   21.5069   -7.4620  -15.7624 N   0  0  0  0  0  0  0  0  0  0  0  0
   20.4225   -6.7977  -16.5397 C   0  0  1  0  0  0  0  0  0  0  0  0
   19.2713   -7.7273  -16.4677 C   0  0  0  0  0  0  0  0  0  0  0  0
   19.4336   -8.9817  -17.2381 C   0  0  0  0  0  0  0  0  0  0  0  0
   18.1787   -9.7575  -17.2726 C   0  0  0  0  0  0  0  0  0  0  0  0
   18.2099  -10.9867  -17.0226 O   0  0  0  0  0  0  0  0  0  0  0  0
   20.2483   -5.4319  -16.0932 C   0  0  0  0  0  0  0  0  0  0  0  0
   20.7712   -5.0382  -15.0118 O   0  0  0  0  0  0  0  0  0  0  0  0
   16.9581   -9.1735  -17.5736 O   0  0  0  0  0  0  0  0  0  0  0  0
   19.5137   -4.5046  -16.8143 O   0  0  0  0  0  0  0  0  0  0  0  0
  2  4  1  0
  2  1  1  1
  3  2  1  0
  4  5  1  1
  6  4  1  0
  7  6  2  0
  8  6  1  0
  9 10  1  0
  9  8  1  0
 10 12  1  0
 11 10  2  0
 12 13  1  0
 13 14  1  1
 14 15  1  0
 15 16  1  0
 16 20  1  0
 17 16  2  0
 18 13  1  0
 18 21  1  0
 19 18  2  0
M  END
$$$$
