VGE.pdb
     RDKit          3D

 21 20  0  0  1  0  0  0  0  0999 V2000
   27.4924  -20.8873   -4.5400 C   0  0  0  0  0  0  0  0  0  0  0  0
   28.6892  -20.1942   -5.1320 C   0  0  2  0  0  0  0  0  0  0  0  0
   29.3992  -19.3295   -4.0982 C   0  0  0  0  0  0  0  0  0  0  0  0
   28.3229  -19.2772   -6.2748 C   0  0  2  0  0  0  0  0  0  0  0  0
   27.4091  -18.2598   -5.8222 N   0  0  0  0  0  0  0  0  0  0  0  0
   27.7396  -20.0573   -7.3856 C   0  0  0  0  0  0  0  0  0  0  0  0
   28.4032  -21.0611   -7.7832 O   0  0  0  0  0  0  0  0  0  0  0  0
   26.5001  -19.7201   -7.9935 N   0  0  0  0  0  0  0  0  0  0  0  0
   26.0489  -20.5741   -9.0429 C   0  0  0  0  0  0  0  0  0  0  0  0
   24.7933  -20.1133   -9.6876 C   0  0  0  0  0  0  0  0  0  0  0  0
   24.0679  -19.2167   -9.1935 O   0  0  0  0  0  0  0  0  0  0  0  0
   24.3940  -20.7036  -10.9054 N   0  0  0  0  0  0  0  0  0  0  0  0
   23.2383  -20.2091  -11.7062 C   0  0  1  0  0  0  0  0  0  0  0  0
   23.5008  -20.6720  -13.0888 C   0  0  0  0  0  0  0  0  0  0  0  0
   22.4746  -20.2812  -14.0826 C   0  0  0  0  0  0  0  0  0  0  0  0
   22.7754  -20.8414  -15.4143 C   0  0  0  0  0  0  0  0  0  0  0  0
   23.8489  -20.5283  -15.9836 O   0  0  0  0  0  0  0  0  0  0  0  0
   21.9916  -20.5773  -11.0696 C   0  0  0  0  0  0  0  0  0  0  0  0
   21.9342  -21.5797  -10.3018 O   0  0  0  0  0  0  0  0  0  0  0  0
   21.9090  -21.7066  -16.0639 O   0  0  0  0  0  0  0  0  0  0  0  0
   20.8204  -19.8637  -11.2658 O   0  0  0  0  0  0  0  0  0  0  0  0
  2  4  1  0
  2  1  1  1
  3  2  1  0
  4  5  1  1
  6  4  1  0
  7  6  2  0
  8  6  1  0
  9 10  1  0
  9  8  1  0
 10 12  1  0
 11 10  2  0
 12 13  1  0
 13 14  1  6
 14 15  1  0
 15 16  1  0
 16 20  1  0
 17 16  2  0
 18 13  1  0
 18 21  1  0
 19 18  2  0
M  END
$$$$
