VGE.pdb
     RDKit          3D

 21 20  0  0  1  0  0  0  0  0999 V2000
   24.7655  -31.9359   -9.5702 C   0  0  0  0  0  0  0  0  0  0  0  0
   25.0818  -32.7619   -8.3533 C   0  0  2  0  0  0  0  0  0  0  0  0
   25.4640  -31.8838   -7.1686 C   0  0  0  0  0  0  0  0  0  0  0  0
   26.2410  -33.7041   -8.5762 C   0  0  2  0  0  0  0  0  0  0  0  0
   25.9281  -34.6368   -9.6284 N   0  0  0  0  0  0  0  0  0  0  0  0
   26.5696  -34.4114   -7.3215 C   0  0  0  0  0  0  0  0  0  0  0  0
   25.8879  -35.4469   -7.0590 O   0  0  0  0  0  0  0  0  0  0  0  0
   27.5927  -33.9731   -6.4377 N   0  0  0  0  0  0  0  0  0  0  0  0
   27.8893  -34.8225   -5.3310 C   0  0  0  0  0  0  0  0  0  0  0  0
   27.0553  -34.5525   -4.1327 C   0  0  0  0  0  0  0  0  0  0  0  0
   26.2809  -33.5684   -4.0544 O   0  0  0  0  0  0  0  0  0  0  0  0
   27.1321  -35.4343   -3.0339 N   0  0  0  0  0  0  0  0  0  0  0  0
   26.3542  -35.2356   -1.7782 C   0  0  1  0  0  0  0  0  0  0  0  0
   26.1525  -36.5971   -1.2299 C   0  0  0  0  0  0  0  0  0  0  0  0
   25.1411  -37.4123   -1.9413 C   0  0  0  0  0  0  0  0  0  0  0  0
   24.6609  -38.5262   -1.1008 C   0  0  0  0  0  0  0  0  0  0  0  0
   25.1073  -38.6520    0.0651 O   0  0  0  0  0  0  0  0  0  0  0  0
   26.9875  -34.2334   -0.9478 C   0  0  0  0  0  0  0  0  0  0  0  0
   26.3666  -33.7208    0.0264 O   0  0  0  0  0  0  0  0  0  0  0  0
   23.7282  -39.4451   -1.5557 O   0  0  0  0  0  0  0  0  0  0  0  0
   28.2816  -33.7935   -1.1744 O   0  0  0  0  0  0  0  0  0  0  0  0
  2  4  1  0
  2  1  1  6
  3  2  1  0
  4  5  1  6
  6  4  1  0
  7  6  2  0
  8  6  1  0
  9 10  1  0
  9  8  1  0
 10 12  1  0
 11 10  2  0
 12 13  1  0
 13 14  1  1
 14 15  1  0
 15 16  1  0
 16 20  1  0
 17 16  2  0
 18 13  1  0
 18 21  1  0
 19 18  2  0
M  END
$$$$
