VGE.pdb
     RDKit          3D

 21 20  0  0  1  0  0  0  0  0999 V2000
   17.3074  -16.2292  -17.0801 C   0  0  0  0  0  0  0  0  0  0  0  0
   17.5963  -14.7830  -17.3772 C   0  0  2  0  0  0  0  0  0  0  0  0
   18.6977  -14.6385  -18.4196 C   0  0  0  0  0  0  0  0  0  0  0  0
   18.0610  -14.0214  -16.1586 C   0  0  2  0  0  0  0  0  0  0  0  0
   17.0378  -14.0339  -15.1447 N   0  0  0  0  0  0  0  0  0  0  0  0
   18.4214  -12.6379  -16.5308 C   0  0  0  0  0  0  0  0  0  0  0  0
   17.4987  -11.9259  -17.0285 O   0  0  0  0  0  0  0  0  0  0  0  0
   19.7282  -12.1092  -16.3502 N   0  0  0  0  0  0  0  0  0  0  0  0
   19.9536  -10.7838  -16.8265 C   0  0  0  0  0  0  0  0  0  0  0  0
   19.5693   -9.7285  -15.8554 C   0  0  0  0  0  0  0  0  0  0  0  0
   18.9881   -9.9834  -14.7730 O   0  0  0  0  0  0  0  0  0  0  0  0
   19.8669   -8.3824  -16.1559 N   0  0  0  0  0  0  0  0  0  0  0  0
   19.5191   -7.2525  -15.2483 C   0  0  1  0  0  0  0  0  0  0  0  0
   20.8115   -6.6028  -14.9285 C   0  0  0  0  0  0  0  0  0  0  0  0
   20.7258   -5.4891  -13.9560 C   0  0  0  0  0  0  0  0  0  0  0  0
   22.0454   -4.8669  -13.7337 C   0  0  0  0  0  0  0  0  0  0  0  0
   22.8730   -5.4355  -12.9812 O   0  0  0  0  0  0  0  0  0  0  0  0
   18.4577   -6.4540  -15.8236 C   0  0  0  0  0  0  0  0  0  0  0  0
   18.2973   -6.4060  -17.0765 O   0  0  0  0  0  0  0  0  0  0  0  0
   22.4063   -3.6688  -14.3300 O   0  0  0  0  0  0  0  0  0  0  0  0
   17.5807   -5.7160  -15.0455 O   0  0  0  0  0  0  0  0  0  0  0  0
  2  4  1  0
  2  1  1  1
  3  2  1  0
  4  5  1  1
  6  4  1  0
  7  6  2  0
  8  6  1  0
  9 10  1  0
  9  8  1  0
 10 12  1  0
 11 10  2  0
 12 13  1  0
 13 14  1  6
 14 15  1  0
 15 16  1  0
 16 20  1  0
 17 16  2  0
 18 13  1  0
 18 21  1  0
 19 18  2  0
M  END
$$$$
