VGE.pdb
     RDKit          3D

 21 20  0  0  1  0  0  0  0  0999 V2000
   23.7658  -22.0735  -14.6629 C   0  0  0  0  0  0  0  0  0  0  0  0
   24.7315  -21.0043  -14.2297 C   0  0  2  0  0  0  0  0  0  0  0  0
   26.1081  -21.2147  -14.8472 C   0  0  0  0  0  0  0  0  0  0  0  0
   24.9356  -20.9777  -12.7335 C   0  0  2  0  0  0  0  0  0  0  0  0
   25.4622  -22.2399  -12.2812 N   0  0  0  0  0  0  0  0  0  0  0  0
   23.6636  -20.6595  -12.0527 C   0  0  0  0  0  0  0  0  0  0  0  0
   23.1803  -19.5072  -12.2637 O   0  0  0  0  0  0  0  0  0  0  0  0
   22.9970  -21.5807  -11.2002 N   0  0  0  0  0  0  0  0  0  0  0  0
   21.7863  -21.1314  -10.5948 C   0  0  0  0  0  0  0  0  0  0  0  0
   20.6978  -22.1410  -10.6190 C   0  0  0  0  0  0  0  0  0  0  0  0
   20.5321  -22.9352  -11.5761 O   0  0  0  0  0  0  0  0  0  0  0  0
   19.8104  -22.2153   -9.5246 N   0  0  0  0  0  0  0  0  0  0  0  0
   18.7885  -23.2907   -9.3803 C   0  0  1  0  0  0  0  0  0  0  0  0
   18.8146  -23.6574   -7.9451 C   0  0  0  0  0  0  0  0  0  0  0  0
   17.9408  -24.7949   -7.5763 C   0  0  0  0  0  0  0  0  0  0  0  0
   18.0924  -25.1491   -6.1517 C   0  0  0  0  0  0  0  0  0  0  0  0
   18.9236  -24.5247   -5.4491 O   0  0  0  0  0  0  0  0  0  0  0  0
   17.5353  -22.8760   -9.9741 C   0  0  0  0  0  0  0  0  0  0  0  0
   17.1319  -21.6840   -9.8556 O   0  0  0  0  0  0  0  0  0  0  0  0
   17.3449  -26.1537   -5.5574 O   0  0  0  0  0  0  0  0  0  0  0  0
   16.7297  -23.7477  -10.6886 O   0  0  0  0  0  0  0  0  0  0  0  0
  2  4  1  0
  2  1  1  1
  3  2  1  0
  4  5  1  1
  6  4  1  0
  7  6  2  0
  8  6  1  0
  9 10  1  0
  9  8  1  0
 10 12  1  0
 11 10  2  0
 12 13  1  0
 13 14  1  1
 14 15  1  0
 15 16  1  0
 16 20  1  0
 17 16  2  0
 18 13  1  0
 18 21  1  0
 19 18  2  0
M  END
$$$$
