VGE.pdb
     RDKit          3D

 21 20  0  0  1  0  0  0  0  0999 V2000
   21.1190  -11.2966  -18.5536 C   0  0  0  0  0  0  0  0  0  0  0  0
   19.6688  -11.5006  -18.2098 C   0  0  2  0  0  0  0  0  0  0  0  0
   18.8525  -10.2413  -18.4712 C   0  0  0  0  0  0  0  0  0  0  0  0
   19.4602  -11.8488  -16.7549 C   0  0  2  0  0  0  0  0  0  0  0  0
   18.0893  -12.2272  -16.5261 N   0  0  0  0  0  0  0  0  0  0  0  0
   19.8449  -10.7076  -15.8991 C   0  0  0  0  0  0  0  0  0  0  0  0
   18.9545   -9.8306  -15.6895 O   0  0  0  0  0  0  0  0  0  0  0  0
   21.1400  -10.5773  -15.3287 N   0  0  0  0  0  0  0  0  0  0  0  0
   21.3494   -9.4617  -14.4651 C   0  0  0  0  0  0  0  0  0  0  0  0
   21.7726   -8.2290  -15.1763 C   0  0  0  0  0  0  0  0  0  0  0  0
   22.0917   -8.2230  -16.3897 O   0  0  0  0  0  0  0  0  0  0  0  0
   21.8200   -7.0116  -14.4645 N   0  0  0  0  0  0  0  0  0  0  0  0
   22.1459   -5.7075  -15.1084 C   0  0  1  0  0  0  0  0  0  0  0  0
   21.2028   -5.5923  -16.2451 C   0  0  0  0  0  0  0  0  0  0  0  0
   21.2402   -4.2943  -16.9573 C   0  0  0  0  0  0  0  0  0  0  0  0
   20.2570   -4.2563  -18.0571 C   0  0  0  0  0  0  0  0  0  0  0  0
   19.5517   -5.2687  -18.2851 O   0  0  0  0  0  0  0  0  0  0  0  0
   22.1803   -4.6526  -14.1178 C   0  0  0  0  0  0  0  0  0  0  0  0
   22.8179   -3.5841  -14.3396 O   0  0  0  0  0  0  0  0  0  0  0  0
   20.0832   -3.1350  -18.8533 O   0  0  0  0  0  0  0  0  0  0  0  0
   21.5286   -4.7585  -12.8998 O   0  0  0  0  0  0  0  0  0  0  0  0
  2  4  1  0
  2  1  1  1
  3  2  1  0
  4  5  1  6
  6  4  1  0
  7  6  2  0
  8  6  1  0
  9 10  1  0
  9  8  1  0
 10 12  1  0
 11 10  2  0
 12 13  1  0
 13 14  1  6
 14 15  1  0
 15 16  1  0
 16 20  1  0
 17 16  2  0
 18 13  1  0
 18 21  1  0
 19 18  2  0
M  END
$$$$
