VGE.pdb
     RDKit          3D

 21 20  0  0  1  0  0  0  0  0999 V2000
   14.7432  -10.9236  -15.6323 C   0  0  0  0  0  0  0  0  0  0  0  0
   15.0151  -12.0863  -16.5473 C   0  0  2  0  0  0  0  0  0  0  0  0
   13.8252  -13.0353  -16.6099 C   0  0  0  0  0  0  0  0  0  0  0  0
   16.1965  -12.9139  -16.0994 C   0  0  2  0  0  0  0  0  0  0  0  0
   15.8535  -13.6752  -14.9257 N   0  0  0  0  0  0  0  0  0  0  0  0
   17.3607  -12.0410  -15.8435 C   0  0  0  0  0  0  0  0  0  0  0  0
   17.6323  -11.7994  -14.6295 O   0  0  0  0  0  0  0  0  0  0  0  0
   18.1509  -11.4886  -16.8876 N   0  0  0  0  0  0  0  0  0  0  0  0
   19.2530  -10.6736  -16.4929 C   0  0  0  0  0  0  0  0  0  0  0  0
   18.8719   -9.2787  -16.1563 C   0  0  0  0  0  0  0  0  0  0  0  0
   17.6905   -8.8627  -16.2313 O   0  0  0  0  0  0  0  0  0  0  0  0
   19.8740   -8.3794  -15.7345 N   0  0  0  0  0  0  0  0  0  0  0  0
   19.5933   -6.9584  -15.3833 C   0  0  1  0  0  0  0  0  0  0  0  0
   20.8192   -6.4799  -14.7028 C   0  0  0  0  0  0  0  0  0  0  0  0
   20.7811   -5.0632  -14.2729 C   0  0  0  0  0  0  0  0  0  0  0  0
   22.0430   -4.6659  -13.6190 C   0  0  0  0  0  0  0  0  0  0  0  0
   22.9117   -5.5392  -13.3799 O   0  0  0  0  0  0  0  0  0  0  0  0
   19.1110   -6.2398  -16.5435 C   0  0  0  0  0  0  0  0  0  0  0  0
   19.5306   -6.5313  -17.6996 O   0  0  0  0  0  0  0  0  0  0  0  0
   22.3053   -3.3540  -13.2566 O   0  0  0  0  0  0  0  0  0  0  0  0
   18.1829   -5.2156  -16.4477 O   0  0  0  0  0  0  0  0  0  0  0  0
  2  4  1  0
  2  1  1  1
  3  2  1  0
  4  5  1  1
  6  4  1  0
  7  6  2  0
  8  6  1  0
  9 10  1  0
  9  8  1  0
 10 12  1  0
 11 10  2  0
 12 13  1  0
 13 14  1  6
 14 15  1  0
 15 16  1  0
 16 20  1  0
 17 16  2  0
 18 13  1  0
 18 21  1  0
 19 18  2  0
M  END
$$$$
