VGE.pdb
     RDKit          3D

 21 20  0  0  1  0  0  0  0  0999 V2000
   14.9018  -11.8774  -16.5244 C   0  0  0  0  0  0  0  0  0  0  0  0
   15.2315  -12.9814  -17.4918 C   0  0  2  0  0  0  0  0  0  0  0  0
   14.5425  -14.2839  -17.1054 C   0  0  0  0  0  0  0  0  0  0  0  0
   16.7105  -13.2823  -17.5474 C   0  0  2  0  0  0  0  0  0  0  0  0
   17.1413  -13.8871  -16.3131 N   0  0  0  0  0  0  0  0  0  0  0  0
   17.4705  -12.0463  -17.8256 C   0  0  0  0  0  0  0  0  0  0  0  0
   17.2827  -11.5078  -18.9573 O   0  0  0  0  0  0  0  0  0  0  0  0
   18.3716  -11.4713  -16.8891 N   0  0  0  0  0  0  0  0  0  0  0  0
   19.0982  -10.3230  -17.3225 C   0  0  0  0  0  0  0  0  0  0  0  0
   18.7564   -9.0854  -16.5769 C   0  0  0  0  0  0  0  0  0  0  0  0
   17.6958   -8.9631  -15.9176 O   0  0  0  0  0  0  0  0  0  0  0  0
   19.6563   -7.9991  -16.6069 N   0  0  0  0  0  0  0  0  0  0  0  0
   19.4783   -6.7748  -15.7755 C   0  0  1  0  0  0  0  0  0  0  0  0
   20.7639   -6.6047  -15.0593 C   0  0  0  0  0  0  0  0  0  0  0  0
   20.7954   -5.4829  -14.0928 C   0  0  0  0  0  0  0  0  0  0  0  0
   22.1301   -5.3394  -13.4795 C   0  0  0  0  0  0  0  0  0  0  0  0
   22.5988   -6.2853  -12.8013 O   0  0  0  0  0  0  0  0  0  0  0  0
   18.9793   -5.6848  -16.5866 C   0  0  0  0  0  0  0  0  0  0  0  0
   19.1185   -5.7031  -17.8428 O   0  0  0  0  0  0  0  0  0  0  0  0
   22.8898   -4.1894  -13.6262 O   0  0  0  0  0  0  0  0  0  0  0  0
   18.3362   -4.5871  -16.0380 O   0  0  0  0  0  0  0  0  0  0  0  0
  2  4  1  0
  2  1  1  1
  3  2  1  0
  4  5  1  1
  6  4  1  0
  7  6  2  0
  8  6  1  0
  9 10  1  0
  9  8  1  0
 10 12  1  0
 11 10  2  0
 12 13  1  0
 13 14  1  6
 14 15  1  0
 15 16  1  0
 16 20  1  0
 17 16  2  0
 18 13  1  0
 18 21  1  0
 19 18  2  0
M  END
$$$$
