VGE.pdb
     RDKit          3D

 21 20  0  0  1  0  0  0  0  0999 V2000
   15.1073  -26.9394   -2.3499 C   0  0  0  0  0  0  0  0  0  0  0  0
   16.3224  -26.5415   -3.1428 C   0  0  2  0  0  0  0  0  0  0  0  0
   17.5088  -26.2487   -2.2332 C   0  0  0  0  0  0  0  0  0  0  0  0
   16.0973  -25.2940   -3.9637 C   0  0  2  0  0  0  0  0  0  0  0  0
   17.2272  -25.0549   -4.8245 N   0  0  0  0  0  0  0  0  0  0  0  0
   15.8535  -24.1385   -3.0760 C   0  0  0  0  0  0  0  0  0  0  0  0
   16.8503  -23.3985   -2.8218 O   0  0  0  0  0  0  0  0  0  0  0  0
   14.5764  -23.8505   -2.5230 N   0  0  0  0  0  0  0  0  0  0  0  0
   14.4646  -22.6486   -1.7631 C   0  0  0  0  0  0  0  0  0  0  0  0
   14.7854  -22.8218   -0.3239 C   0  0  0  0  0  0  0  0  0  0  0  0
   15.3688  -23.8391    0.1222 O   0  0  0  0  0  0  0  0  0  0  0  0
   14.4222  -21.8048    0.5843 N   0  0  0  0  0  0  0  0  0  0  0  0
   14.7530  -21.8580    2.0366 C   0  0  1  0  0  0  0  0  0  0  0  0
   15.2416  -20.5000    2.3709 C   0  0  0  0  0  0  0  0  0  0  0  0
   15.6080  -20.3014    3.7921 C   0  0  0  0  0  0  0  0  0  0  0  0
   15.9993  -18.9031    4.0558 C   0  0  0  0  0  0  0  0  0  0  0  0
   16.0149  -18.0810    3.1080 O   0  0  0  0  0  0  0  0  0  0  0  0
   13.6422  -22.4062    2.7853 C   0  0  0  0  0  0  0  0  0  0  0  0
   12.4560  -22.2602    2.3738 O   0  0  0  0  0  0  0  0  0  0  0  0
   16.3530  -18.4619    5.3213 O   0  0  0  0  0  0  0  0  0  0  0  0
   13.8190  -23.1052    3.9683 O   0  0  0  0  0  0  0  0  0  0  0  0
  2  4  1  0
  2  1  1  1
  3  2  1  0
  4  5  1  1
  6  4  1  0
  7  6  2  0
  8  6  1  0
  9 10  1  0
  9  8  1  0
 10 12  1  0
 11 10  2  0
 12 13  1  0
 13 14  1  1
 14 15  1  0
 15 16  1  0
 16 20  1  0
 17 16  2  0
 18 13  1  0
 18 21  1  0
 19 18  2  0
M  END
$$$$
