VGE.pdb
     RDKit          3D

 21 20  0  0  1  0  0  0  0  0999 V2000
   19.1426  -11.1494  -20.1461 C   0  0  0  0  0  0  0  0  0  0  0  0
   20.6408  -11.1400  -20.2826 C   0  0  2  0  0  0  0  0  0  0  0  0
   21.1138  -12.1752  -21.2951 C   0  0  0  0  0  0  0  0  0  0  0  0
   21.3442  -11.4611  -18.9852 C   0  0  2  0  0  0  0  0  0  0  0  0
   21.1010  -12.8316  -18.6141 N   0  0  0  0  0  0  0  0  0  0  0  0
   20.8975  -10.5370  -17.9226 C   0  0  0  0  0  0  0  0  0  0  0  0
   20.1537  -11.0268  -17.0210 O   0  0  0  0  0  0  0  0  0  0  0  0
   21.2688   -9.1656  -17.8909 N   0  0  0  0  0  0  0  0  0  0  0  0
   20.8114   -8.4045  -16.7747 C   0  0  0  0  0  0  0  0  0  0  0  0
   21.4326   -7.0596  -16.6761 C   0  0  0  0  0  0  0  0  0  0  0  0
   22.3106   -6.6588  -17.4778 O   0  0  0  0  0  0  0  0  0  0  0  0
   21.0234   -6.1922  -15.6411 N   0  0  0  0  0  0  0  0  0  0  0  0
   21.4032   -4.7518  -15.5921 C   0  0  1  0  0  0  0  0  0  0  0  0
   20.3208   -4.0935  -14.8241 C   0  0  0  0  0  0  0  0  0  0  0  0
   20.5172   -2.6449  -14.5862 C   0  0  0  0  0  0  0  0  0  0  0  0
   19.4165   -2.0781  -13.7831 C   0  0  0  0  0  0  0  0  0  0  0  0
   18.4926   -2.8309  -13.3904 O   0  0  0  0  0  0  0  0  0  0  0  0
   22.7703   -4.6077  -15.1390 C   0  0  0  0  0  0  0  0  0  0  0  0
   23.4596   -3.6066  -15.4857 O   0  0  0  0  0  0  0  0  0  0  0  0
   19.3655   -0.7349  -13.4448 O   0  0  0  0  0  0  0  0  0  0  0  0
   23.3811   -5.5418  -14.3181 O   0  0  0  0  0  0  0  0  0  0  0  0
  2  4  1  0
  2  1  1  1
  3  2  1  0
  4  5  1  1
  6  4  1  0
  7  6  2  0
  8  6  1  0
  9 10  1  0
  9  8  1  0
 10 12  1  0
 11 10  2  0
 12 13  1  0
 13 14  1  1
 14 15  1  0
 15 16  1  0
 16 20  1  0
 17 16  2  0
 18 13  1  0
 18 21  1  0
 19 18  2  0
M  END
$$$$
