FTC.pdb
     RDKit          3D

 25 25  0  0  1  0  0  0  0  0999 V2000
    7.6739  -15.6809   25.7160 N   0  0  0  0  0  0  0  0  0  0  0  0
    6.6016  -15.7959   24.7452 C   0  0  1  0  0  0  0  0  0  0  0  0
    6.0092  -14.4090   24.5562 C   0  0  0  0  0  0  0  0  0  0  0  0
    6.4228  -13.4807   25.6181 C   0  0  0  0  0  0  0  0  0  0  0  0
    5.5938  -13.2167   26.6841 C   0  0  0  0  0  0  0  0  0  0  0  0
    5.9808  -12.3487   27.6767 C   0  0  0  0  0  0  0  0  0  0  0  0
    7.2190  -11.7251   27.6152 C   0  0  0  0  0  0  0  0  0  0  0  0
    8.0256  -12.0084   26.5384 C   0  0  0  0  0  0  0  0  0  0  0  0
    7.6572  -12.8745   25.5335 C   0  0  0  0  0  0  0  0  0  0  0  0
    7.1560  -16.2334   23.4291 C   0  0  0  0  0  0  0  0  0  0  0  0
    6.4085  -16.5326   22.4494 O   0  0  0  0  0  0  0  0  0  0  0  0
    7.2205  -15.6175   21.0188 C   0  0  0  0  0  0  0  0  0  0  0  0
    8.7189  -15.7136   20.9581 C   0  0  1  0  0  0  0  0  0  0  0  0
    9.2390  -14.4464   21.2652 O   0  0  0  0  0  0  0  0  0  0  0  0
    9.1973  -16.6763   22.0061 C   0  0  2  0  0  0  0  0  0  0  0  0
    8.5625  -16.3206   23.2588 N   0  0  0  0  0  0  0  0  0  0  0  0
   10.6734  -16.6129   22.1690 C   0  0  0  0  0  0  0  0  0  0  0  0
   11.2161  -15.7340   22.8772 O   0  0  0  0  0  0  0  0  0  0  0  0
   11.5170  -17.5528   21.5225 N   0  0  0  0  0  0  0  0  0  0  0  0
   12.6933  -18.1194   22.1005 C   0  0  1  0  0  0  0  0  0  0  0  0
   12.3918  -19.1494   23.1668 C   0  0  0  0  0  0  0  0  0  0  0  0
   12.0278  -18.2686   24.7241 S   0  0  0  0  0  0  0  0  0  0  0  0
   13.4671  -18.7904   21.0236 C   0  0  0  0  0  0  0  0  0  0  0  0
   12.8717  -19.2896   19.8723 O   0  0  0  0  0  0  0  0  0  0  0  0
   14.7123  -18.9218   21.1396 O   0  0  0  0  0  0  0  0  0  0  0  0
  2  1  1  1
  2  3  1  0
  2 10  1  0
  4  3  1  0
  4  9  2  0
  5  4  1  0
  6  5  2  0
  6  7  1  0
  7  8  2  0
  8  9  1  0
 10 16  1  0
 11 10  2  0
 13 12  1  1
 13 14  1  0
 15 13  1  0
 15 16  1  1
 17 15  1  0
 17 19  1  0
 18 17  2  0
 20 19  1  0
 20 23  1  0
 20 21  1  1
 21 22  1  0
 23 25  2  0
 23 24  1  0
M  END
$$$$
