FTC.pdb
     RDKit          3D

 25 25  0  0  1  0  0  0  0  0999 V2000
    5.8427  -15.9555   25.2644 N   0  0  0  0  0  0  0  0  0  0  0  0
    6.4271  -15.8771   23.9385 C   0  0  1  0  0  0  0  0  0  0  0  0
    6.9436  -14.4598   23.7528 C   0  0  0  0  0  0  0  0  0  0  0  0
    6.9503  -13.7033   25.0130 C   0  0  0  0  0  0  0  0  0  0  0  0
    5.7753  -13.4239   25.6722 C   0  0  0  0  0  0  0  0  0  0  0  0
    5.7819  -12.7166   26.8504 C   0  0  0  0  0  0  0  0  0  0  0  0
    6.9804  -12.2734   27.3919 C   0  0  0  0  0  0  0  0  0  0  0  0
    8.1380  -12.5675   26.7110 C   0  0  0  0  0  0  0  0  0  0  0  0
    8.1535  -13.2745   25.5297 C   0  0  0  0  0  0  0  0  0  0  0  0
    7.5977  -16.8001   23.8467 C   0  0  0  0  0  0  0  0  0  0  0  0
    7.7047  -17.8274   24.5825 O   0  0  0  0  0  0  0  0  0  0  0  0
    8.6593  -17.6491   20.3920 C   0  0  0  0  0  0  0  0  0  0  0  0
    9.9476  -17.3985   21.1238 C   0  0  1  0  0  0  0  0  0  0  0  0
   10.3702  -16.0977   20.8075 O   0  0  0  0  0  0  0  0  0  0  0  0
    9.6977  -17.4568   22.6030 C   0  0  2  0  0  0  0  0  0  0  0  0
    8.6287  -16.5284   22.9096 N   0  0  0  0  0  0  0  0  0  0  0  0
   10.9110  -17.0796   23.3745 C   0  0  0  0  0  0  0  0  0  0  0  0
   11.1834  -15.8823   23.6210 O   0  0  0  0  0  0  0  0  0  0  0  0
   11.8025  -18.0719   23.8577 N   0  0  0  0  0  0  0  0  0  0  0  0
   12.6526  -17.9147   24.9942 C   0  0  1  0  0  0  0  0  0  0  0  0
   11.8890  -17.6434   26.2717 C   0  0  0  0  0  0  0  0  0  0  0  0
   10.7920  -19.0669   26.5937 S   0  0  0  0  0  0  0  0  0  0  0  0
   13.4216  -19.1728   25.1806 C   0  0  0  0  0  0  0  0  0  0  0  0
   13.1813  -20.3165   24.4301 O   0  0  0  0  0  0  0  0  0  0  0  0
   14.3309  -19.2251   26.0476 O   0  0  0  0  0  0  0  0  0  0  0  0
  2  1  1  1
  2  3  1  0
  2 10  1  0
  4  3  1  0
  4  9  2  0
  5  4  1  0
  6  5  2  0
  6  7  1  0
  7  8  2  0
  8  9  1  0
 10 16  1  0
 11 10  2  0
 13 12  1  6
 13 14  1  0
 15 13  1  0
 15 16  1  6
 17 15  1  0
 17 19  1  0
 18 17  2  0
 20 19  1  0
 20 23  1  0
 20 21  1  1
 21 22  1  0
 23 25  2  0
 23 24  1  0
M  END
$$$$
