FTC.pdb
     RDKit          3D

 25 25  0  0  1  0  0  0  0  0999 V2000
    5.5146  -17.5611   23.9320 N   0  0  0  0  0  0  0  0  0  0  0  0
    6.4108  -16.4807   24.2995 C   0  0  1  0  0  0  0  0  0  0  0  0
    5.9772  -15.9757   25.6659 C   0  0  0  0  0  0  0  0  0  0  0  0
    6.6373  -14.7123   26.0243 C   0  0  0  0  0  0  0  0  0  0  0  0
    7.7538  -14.7052   26.8286 C   0  0  0  0  0  0  0  0  0  0  0  0
    8.3706  -13.5238   27.1635 C   0  0  0  0  0  0  0  0  0  0  0  0
    7.8720  -12.3176   26.6919 C   0  0  0  0  0  0  0  0  0  0  0  0
    6.7556  -12.3560   25.8905 C   0  0  0  0  0  0  0  0  0  0  0  0
    6.1225  -13.5283   25.5431 C   0  0  0  0  0  0  0  0  0  0  0  0
    7.8040  -17.0026   24.4320 C   0  0  0  0  0  0  0  0  0  0  0  0
    8.0736  -18.0371   25.1142 O   0  0  0  0  0  0  0  0  0  0  0  0
   10.0819  -17.1464   21.4778 C   0  0  0  0  0  0  0  0  0  0  0  0
   10.9056  -16.4938   22.5518 C   0  0  1  0  0  0  0  0  0  0  0  0
   10.9069  -15.1117   22.3057 O   0  0  0  0  0  0  0  0  0  0  0  0
   10.2559  -16.7255   23.8852 C   0  0  2  0  0  0  0  0  0  0  0  0
    8.8673  -16.3270   23.7780 N   0  0  0  0  0  0  0  0  0  0  0  0
   10.9130  -15.9302   24.9555 C   0  0  0  0  0  0  0  0  0  0  0  0
   10.9196  -14.6781   24.9293 O   0  0  0  0  0  0  0  0  0  0  0  0
   11.5565  -16.5707   26.0457 N   0  0  0  0  0  0  0  0  0  0  0  0
   12.1730  -15.8886   27.1383 C   0  0  1  0  0  0  0  0  0  0  0  0
   11.2082  -15.0178   27.9127 C   0  0  0  0  0  0  0  0  0  0  0  0
    9.8176  -16.0622   28.4688 S   0  0  0  0  0  0  0  0  0  0  0  0
   12.7224  -16.9045   28.0737 C   0  0  0  0  0  0  0  0  0  0  0  0
   12.5764  -18.2703   27.8673 O   0  0  0  0  0  0  0  0  0  0  0  0
   13.3481  -16.5338   29.0995 O   0  0  0  0  0  0  0  0  0  0  0  0
  2  1  1  1
  2  3  1  0
  2 10  1  0
  4  3  1  0
  4  9  2  0
  5  4  1  0
  6  5  2  0
  6  7  1  0
  7  8  2  0
  8  9  1  0
 10 16  1  0
 11 10  2  0
 13 12  1  6
 13 14  1  0
 15 13  1  0
 15 16  1  6
 17 15  1  0
 17 19  1  0
 18 17  2  0
 20 19  1  0
 20 23  1  0
 20 21  1  1
 21 22  1  0
 23 25  2  0
 23 24  1  0
M  END
$$$$
