FTC.pdb
     RDKit          3D

 25 25  0  0  1  0  0  0  0  0999 V2000
    5.5532  -17.3319   25.2945 N   0  0  0  0  0  0  0  0  0  0  0  0
    6.4286  -16.2329   24.9320 C   0  0  1  0  0  0  0  0  0  0  0  0
    7.0849  -15.7346   26.2091 C   0  0  0  0  0  0  0  0  0  0  0  0
    7.0342  -14.2701   26.3227 C   0  0  0  0  0  0  0  0  0  0  0  0
    5.8917  -13.6371   26.7557 C   0  0  0  0  0  0  0  0  0  0  0  0
    5.8446  -12.2678   26.8618 C   0  0  0  0  0  0  0  0  0  0  0  0
    6.9549  -11.5033   26.5317 C   0  0  0  0  0  0  0  0  0  0  0  0
    8.0818  -12.1635   26.1022 C   0  0  0  0  0  0  0  0  0  0  0  0
    8.1500  -13.5339   25.9888 C   0  0  0  0  0  0  0  0  0  0  0  0
    7.5121  -16.7260   24.0300 C   0  0  0  0  0  0  0  0  0  0  0  0
    8.0499  -17.8643   24.1831 O   0  0  0  0  0  0  0  0  0  0  0  0
    7.4191  -15.6044   20.3687 C   0  0  0  0  0  0  0  0  0  0  0  0
    8.8587  -15.5137   20.7898 C   0  0  1  0  0  0  0  0  0  0  0  0
    9.1466  -14.1611   21.0315 O   0  0  0  0  0  0  0  0  0  0  0  0
    9.0477  -16.2638   22.0764 C   0  0  2  0  0  0  0  0  0  0  0  0
    7.9616  -15.9028   22.9646 N   0  0  0  0  0  0  0  0  0  0  0  0
   10.3426  -15.9206   22.7205 C   0  0  0  0  0  0  0  0  0  0  0  0
   10.5343  -14.8009   23.2479 O   0  0  0  0  0  0  0  0  0  0  0  0
   11.4071  -16.8578   22.7571 N   0  0  0  0  0  0  0  0  0  0  0  0
   12.7025  -16.5938   23.2968 C   0  0  1  0  0  0  0  0  0  0  0  0
   13.1058  -17.5754   24.3750 C   0  0  0  0  0  0  0  0  0  0  0  0
   11.9477  -17.3929   25.7746 S   0  0  0  0  0  0  0  0  0  0  0  0
   13.6964  -16.6909   22.1962 C   0  0  0  0  0  0  0  0  0  0  0  0
   13.3542  -17.0879   20.9099 O   0  0  0  0  0  0  0  0  0  0  0  0
   14.9013  -16.4067   22.4172 O   0  0  0  0  0  0  0  0  0  0  0  0
  2  1  1  1
  2  3  1  0
  2 10  1  0
  4  3  1  0
  4  9  2  0
  5  4  1  0
  6  5  2  0
  6  7  1  0
  7  8  2  0
  8  9  1  0
 10 16  1  0
 11 10  2  0
 13 12  1  1
 13 14  1  0
 15 13  1  0
 15 16  1  1
 17 15  1  0
 17 19  1  0
 18 17  2  0
 20 19  1  0
 20 23  1  0
 20 21  1  1
 21 22  1  0
 23 25  2  0
 23 24  1  0
M  END
$$$$
