FTC.pdb
     RDKit          3D

 25 25  0  0  1  0  0  0  0  0999 V2000
    5.8399  -17.4404   25.5854 N   0  0  0  0  0  0  0  0  0  0  0  0
    6.5727  -16.2877   25.0958 C   0  0  1  0  0  0  0  0  0  0  0  0
    7.2817  -15.6614   26.2853 C   0  0  0  0  0  0  0  0  0  0  0  0
    7.0086  -14.2215   26.3974 C   0  0  0  0  0  0  0  0  0  0  0  0
    8.0136  -13.2988   26.2189 C   0  0  0  0  0  0  0  0  0  0  0  0
    7.7580  -11.9526   26.3238 C   0  0  0  0  0  0  0  0  0  0  0  0
    6.4762  -11.5058   26.6126 C   0  0  0  0  0  0  0  0  0  0  0  0
    5.4928  -12.4509   26.7857 C   0  0  0  0  0  0  0  0  0  0  0  0
    5.7276  -13.8038   26.6850 C   0  0  0  0  0  0  0  0  0  0  0  0
    7.6200  -16.7289   24.1266 C   0  0  0  0  0  0  0  0  0  0  0  0
    8.2539  -17.8179   24.2694 O   0  0  0  0  0  0  0  0  0  0  0  0
    7.0543  -15.6473   20.4987 C   0  0  0  0  0  0  0  0  0  0  0  0
    8.5345  -15.5365   20.7326 C   0  0  1  0  0  0  0  0  0  0  0  0
    8.8346  -14.1781   20.9213 O   0  0  0  0  0  0  0  0  0  0  0  0
    8.8940  -16.2689   21.9928 C   0  0  2  0  0  0  0  0  0  0  0  0
    7.9233  -15.9110   23.0068 N   0  0  0  0  0  0  0  0  0  0  0  0
   10.2548  -15.9020   22.4653 C   0  0  0  0  0  0  0  0  0  0  0  0
   10.4863  -14.7897   22.9923 O   0  0  0  0  0  0  0  0  0  0  0  0
   11.3390  -16.8074   22.3323 N   0  0  0  0  0  0  0  0  0  0  0  0
   12.6527  -16.5808   22.8441 C   0  0  1  0  0  0  0  0  0  0  0  0
   12.7190  -16.6454   24.3541 C   0  0  0  0  0  0  0  0  0  0  0  0
   11.8516  -18.1568   24.8990 S   0  0  0  0  0  0  0  0  0  0  0  0
   13.5533  -17.6316   22.3024 C   0  0  0  0  0  0  0  0  0  0  0  0
   14.9308  -17.6019   22.4782 O   0  0  0  0  0  0  0  0  0  0  0  0
   13.0691  -18.5952   21.6557 O   0  0  0  0  0  0  0  0  0  0  0  0
  2  1  1  1
  2  3  1  0
  2 10  1  0
  4  3  1  0
  4  9  2  0
  5  4  1  0
  6  5  2  0
  6  7  1  0
  7  8  2  0
  8  9  1  0
 10 16  1  0
 11 10  2  0
 13 12  1  1
 13 14  1  0
 15 13  1  0
 15 16  1  1
 17 15  1  0
 17 19  1  0
 18 17  2  0
 20 19  1  0
 20 23  1  0
 20 21  1  1
 21 22  1  0
 23 25  2  0
 23 24  1  0
M  END
$$$$
