FTC.pdb
     RDKit          3D

 25 25  0  0  1  0  0  0  0  0999 V2000
    5.7086  -17.7591   25.4722 N   0  0  0  0  0  0  0  0  0  0  0  0
    6.3304  -16.4882   25.1502 C   0  0  1  0  0  0  0  0  0  0  0  0
    6.8720  -15.9063   26.4456 C   0  0  0  0  0  0  0  0  0  0  0  0
    6.7998  -14.4384   26.4661 C   0  0  0  0  0  0  0  0  0  0  0  0
    5.6008  -13.7957   26.6723 C   0  0  0  0  0  0  0  0  0  0  0  0
    5.5337  -12.4233   26.6913 C   0  0  0  0  0  0  0  0  0  0  0  0
    6.6807  -11.6655   26.5018 C   0  0  0  0  0  0  0  0  0  0  0  0
    7.8640  -12.3353   26.2981 C   0  0  0  0  0  0  0  0  0  0  0  0
    7.9531  -13.7090   26.2753 C   0  0  0  0  0  0  0  0  0  0  0  0
    7.4898  -16.7102   24.2352 C   0  0  0  0  0  0  0  0  0  0  0  0
    8.2359  -17.7314   24.3288 O   0  0  0  0  0  0  0  0  0  0  0  0
    6.9105  -15.6234   20.6601 C   0  0  0  0  0  0  0  0  0  0  0  0
    8.3279  -15.2295   20.9660 C   0  0  1  0  0  0  0  0  0  0  0  0
    8.3382  -13.8513   21.2328 O   0  0  0  0  0  0  0  0  0  0  0  0
    8.7852  -15.9438   22.2048 C   0  0  2  0  0  0  0  0  0  0  0  0
    7.7747  -15.7542   23.2253 N   0  0  0  0  0  0  0  0  0  0  0  0
   10.0826  -15.4076   22.6937 C   0  0  0  0  0  0  0  0  0  0  0  0
   10.1450  -14.3398   23.3453 O   0  0  0  0  0  0  0  0  0  0  0  0
   11.2967  -16.0943   22.4348 N   0  0  0  0  0  0  0  0  0  0  0  0
   12.5602  -15.7517   23.0050 C   0  0  1  0  0  0  0  0  0  0  0  0
   12.5763  -15.8556   24.5143 C   0  0  0  0  0  0  0  0  0  0  0  0
   11.9447  -17.5045   24.9791 S   0  0  0  0  0  0  0  0  0  0  0  0
   13.5834  -16.6887   22.4722 C   0  0  0  0  0  0  0  0  0  0  0  0
   14.9396  -16.5471   22.7365 O   0  0  0  0  0  0  0  0  0  0  0  0
   13.2281  -17.6555   21.7508 O   0  0  0  0  0  0  0  0  0  0  0  0
  2  1  1  1
  2  3  1  0
  2 10  1  0
  4  3  1  0
  4  9  2  0
  5  4  1  0
  6  5  2  0
  6  7  1  0
  7  8  2  0
  8  9  1  0
 10 16  1  0
 11 10  2  0
 13 12  1  1
 13 14  1  0
 15 13  1  0
 15 16  1  1
 17 15  1  0
 17 19  1  0
 18 17  2  0
 20 19  1  0
 20 23  1  0
 20 21  1  1
 21 22  1  0
 23 25  2  0
 23 24  1  0
M  END
$$$$
