LCD.pdb
     RDKit          3D

 23 22  0  0  1  0  0  0  0  0999 V2000
    8.4344  -14.5482   18.5403 C   0  0  0  0  0  0  0  0  0  0  0  0
    7.4583  -13.6202   19.2608 C   0  0  2  0  0  0  0  0  0  0  0  0
    7.2003  -12.3981   18.4081 C   0  0  0  0  0  0  0  0  0  0  0  0
    7.9398  -13.3049   20.6491 C   0  0  0  0  0  0  0  0  0  0  0  0
    8.1229  -14.5431   21.4426 C   0  0  2  0  0  0  0  0  0  0  0  0
    6.8920  -15.2469   21.5990 N   0  0  0  0  0  0  0  0  0  0  0  0
    8.7656  -14.2797   22.7723 C   0  0  0  0  0  0  0  0  0  0  0  0
    9.8466  -13.6396   22.8029 O   0  0  0  0  0  0  0  0  0  0  0  0
    8.1923  -14.7292   23.9815 N   0  0  0  0  0  0  0  0  0  0  0  0
    8.8515  -14.4821   25.2834 C   0  0  1  0  0  0  0  0  0  0  0  0
    7.8104  -13.8846   26.2322 C   0  0  0  0  0  0  0  0  0  0  0  0
    8.5259  -13.5205   27.8258 S   0  0  0  0  0  0  0  0  0  0  0  0
    9.2698  -15.8183   25.7779 C   0  0  0  0  0  0  0  0  0  0  0  0
    8.4137  -16.7676   25.9154 O   0  0  0  0  0  0  0  0  0  0  0  0
   10.6141  -16.1330   26.1231 N   0  0  0  0  0  0  0  0  0  0  0  0
   10.9220  -17.4277   26.7403 C   0  0  1  0  0  0  0  0  0  0  0  0
   12.2599  -17.8904   26.2417 C   0  0  0  0  0  0  0  0  0  0  0  0
   12.3715  -17.7297   24.7797 C   0  0  0  0  0  0  0  0  0  0  0  0
   11.4844  -18.2273   24.0472 O   0  0  0  0  0  0  0  0  0  0  0  0
   10.8006  -17.3604   28.2043 C   0  0  0  0  0  0  0  0  0  0  0  0
   10.5243  -16.1587   28.8246 O   0  0  0  0  0  0  0  0  0  0  0  0
   13.4162  -17.0509   24.1716 O   0  0  0  0  0  0  0  0  0  0  0  0
   10.9453  -18.3842   28.8980 O   0  0  0  0  0  0  0  0  0  0  0  0
  2  1  1  6
  2  3  1  0
  4  2  1  0
  4  5  1  0
  5  7  1  0
  5  6  1  1
  7  8  2  0
  9  7  1  0
  9 10  1  0
 10 11  1  1
 12 11  1  0
 13 14  2  0
 13 10  1  0
 15 13  1  0
 16 15  1  0
 16 17  1  1
 17 18  1  0
 18 19  2  0
 18 22  1  0
 20 16  1  0
 21 20  1  0
 23 20  2  0
M  END
$$$$
