LCD.pdb
     RDKit          3D

 23 22  0  0  1  0  0  0  0  0999 V2000
    5.7040  -15.9948   19.1161 C   0  0  0  0  0  0  0  0  0  0  0  0
    7.2228  -15.9821   18.9552 C   0  0  2  0  0  0  0  0  0  0  0  0
    7.6801  -17.3006   18.3720 C   0  0  0  0  0  0  0  0  0  0  0  0
    7.8985  -15.6197   20.2477 C   0  0  0  0  0  0  0  0  0  0  0  0
    7.4770  -14.2762   20.7097 C   0  0  2  0  0  0  0  0  0  0  0  0
    7.7019  -13.2873   19.7064 N   0  0  0  0  0  0  0  0  0  0  0  0
    8.1272  -13.8874   22.0046 C   0  0  0  0  0  0  0  0  0  0  0  0
    9.0480  -13.0324   21.9838 O   0  0  0  0  0  0  0  0  0  0  0  0
    7.7349  -14.4530   23.2372 N   0  0  0  0  0  0  0  0  0  0  0  0
    8.4489  -14.1307   24.4928 C   0  0  1  0  0  0  0  0  0  0  0  0
    7.5755  -13.1648   25.2963 C   0  0  0  0  0  0  0  0  0  0  0  0
    5.9566  -13.8545   25.5913 S   0  0  0  0  0  0  0  0  0  0  0  0
    8.5722  -15.4180   25.2226 C   0  0  0  0  0  0  0  0  0  0  0  0
    7.8216  -16.4186   24.9250 O   0  0  0  0  0  0  0  0  0  0  0  0
    9.5078  -15.6283   26.2741 N   0  0  0  0  0  0  0  0  0  0  0  0
   10.2048  -16.9148   26.3804 C   0  0  1  0  0  0  0  0  0  0  0  0
   10.9351  -17.1720   25.0946 C   0  0  0  0  0  0  0  0  0  0  0  0
   11.7522  -18.3971   25.1786 C   0  0  0  0  0  0  0  0  0  0  0  0
   12.6980  -18.4381   26.0000 O   0  0  0  0  0  0  0  0  0  0  0  0
   11.0450  -16.9656   27.5862 C   0  0  0  0  0  0  0  0  0  0  0  0
   11.2426  -18.1615   28.2463 O   0  0  0  0  0  0  0  0  0  0  0  0
   11.5243  -19.5131   24.3883 O   0  0  0  0  0  0  0  0  0  0  0  0
   11.5857  -15.9326   28.0233 O   0  0  0  0  0  0  0  0  0  0  0  0
  2  1  1  1
  2  3  1  0
  4  2  1  0
  4  5  1  0
  5  7  1  0
  5  6  1  6
  7  8  2  0
  9  7  1  0
  9 10  1  0
 10 11  1  1
 12 11  1  0
 13 14  2  0
 13 10  1  0
 15 13  1  0
 16 15  1  0
 16 17  1  6
 17 18  1  0
 18 19  2  0
 18 22  1  0
 20 16  1  0
 21 20  1  0
 23 20  2  0
M  END
$$$$
