LCD.pdb
     RDKit          3D

 23 22  0  0  1  0  0  0  0  0999 V2000
    6.2232  -12.2680   25.7043 C   0  0  0  0  0  0  0  0  0  0  0  0
    6.8985  -13.0152   26.8526 C   0  0  2  0  0  0  0  0  0  0  0  0
    7.7177  -12.0451   27.6742 C   0  0  0  0  0  0  0  0  0  0  0  0
    7.6791  -14.1940   26.3430 C   0  0  0  0  0  0  0  0  0  0  0  0
    6.8393  -15.0533   25.4755 C   0  0  2  0  0  0  0  0  0  0  0  0
    6.0386  -15.9465   26.2476 N   0  0  0  0  0  0  0  0  0  0  0  0
    7.6481  -15.7994   24.4558 C   0  0  0  0  0  0  0  0  0  0  0  0
    8.1897  -16.8826   24.7912 O   0  0  0  0  0  0  0  0  0  0  0  0
    7.8159  -15.3198   23.1387 N   0  0  0  0  0  0  0  0  0  0  0  0
    8.6964  -16.0154   22.1736 C   0  0  1  0  0  0  0  0  0  0  0  0
    8.4278  -15.4307   20.7853 C   0  0  0  0  0  0  0  0  0  0  0  0
    6.8708  -16.0092   20.1335 S   0  0  0  0  0  0  0  0  0  0  0  0
   10.0830  -15.6900   22.5933 C   0  0  0  0  0  0  0  0  0  0  0  0
   10.5240  -14.4839   22.5320 O   0  0  0  0  0  0  0  0  0  0  0  0
   10.9960  -16.6662   23.0821 N   0  0  0  0  0  0  0  0  0  0  0  0
   12.3626  -16.2692   23.4386 C   0  0  1  0  0  0  0  0  0  0  0  0
   12.5608  -16.5003   24.9083 C   0  0  0  0  0  0  0  0  0  0  0  0
   12.3671  -17.9200   25.2581 C   0  0  0  0  0  0  0  0  0  0  0  0
   11.9998  -18.7185   24.3644 O   0  0  0  0  0  0  0  0  0  0  0  0
   13.3505  -16.9302   22.5729 C   0  0  0  0  0  0  0  0  0  0  0  0
   12.9414  -17.8423   21.6211 O   0  0  0  0  0  0  0  0  0  0  0  0
   12.5728  -18.4185   26.5353 O   0  0  0  0  0  0  0  0  0  0  0  0
   14.5636  -16.6746   22.6891 O   0  0  0  0  0  0  0  0  0  0  0  0
  2  1  1  6
  2  3  1  0
  4  2  1  0
  4  5  1  0
  5  7  1  0
  5  6  1  1
  7  8  2  0
  9  7  1  0
  9 10  1  0
 10 11  1  6
 12 11  1  0
 13 14  2  0
 13 10  1  0
 15 13  1  0
 16 15  1  0
 16 17  1  1
 17 18  1  0
 18 19  2  0
 18 22  1  0
 20 16  1  0
 21 20  1  0
 23 20  2  0
M  END
$$$$
