LCD.pdb
     RDKit          3D

 23 22  0  0  1  0  0  0  0  0999 V2000
    6.0498  -12.5917   25.6297 C   0  0  0  0  0  0  0  0  0  0  0  0
    6.7622  -13.2158   26.8280 C   0  0  2  0  0  0  0  0  0  0  0  0
    7.5391  -12.1484   27.5660 C   0  0  0  0  0  0  0  0  0  0  0  0
    7.5941  -14.3942   26.4064 C   0  0  0  0  0  0  0  0  0  0  0  0
    6.8042  -15.3326   25.5747 C   0  0  2  0  0  0  0  0  0  0  0  0
    6.1699  -16.3287   26.3749 N   0  0  0  0  0  0  0  0  0  0  0  0
    7.6235  -15.9583   24.4848 C   0  0  0  0  0  0  0  0  0  0  0  0
    8.2305  -17.0315   24.7276 O   0  0  0  0  0  0  0  0  0  0  0  0
    7.7302  -15.3771   23.2027 N   0  0  0  0  0  0  0  0  0  0  0  0
    8.5287  -16.0162   22.1329 C   0  0  1  0  0  0  0  0  0  0  0  0
    8.2176  -15.2958   20.8192 C   0  0  0  0  0  0  0  0  0  0  0  0
    6.5897  -15.7183   20.2233 S   0  0  0  0  0  0  0  0  0  0  0  0
    9.9479  -15.7872   22.5045 C   0  0  0  0  0  0  0  0  0  0  0  0
   10.3329  -14.6509   22.9668 O   0  0  0  0  0  0  0  0  0  0  0  0
   10.9544  -16.7856   22.3796 N   0  0  0  0  0  0  0  0  0  0  0  0
   12.3326  -16.4826   22.7809 C   0  0  1  0  0  0  0  0  0  0  0  0
   12.7606  -17.4805   23.8170 C   0  0  0  0  0  0  0  0  0  0  0  0
   14.1836  -17.3126   24.1667 C   0  0  0  0  0  0  0  0  0  0  0  0
   15.0317  -18.0605   23.6258 O   0  0  0  0  0  0  0  0  0  0  0  0
   13.2186  -16.3919   21.6107 C   0  0  0  0  0  0  0  0  0  0  0  0
   14.4326  -15.7422   21.7063 O   0  0  0  0  0  0  0  0  0  0  0  0
   14.6326  -16.3619   25.0704 O   0  0  0  0  0  0  0  0  0  0  0  0
   12.8836  -16.8990   20.5239 O   0  0  0  0  0  0  0  0  0  0  0  0
  2  1  1  6
  2  3  1  0
  4  2  1  0
  4  5  1  0
  5  7  1  0
  5  6  1  1
  7  8  2  0
  9  7  1  0
  9 10  1  0
 10 11  1  6
 12 11  1  0
 13 14  2  0
 13 10  1  0
 15 13  1  0
 16 15  1  0
 16 17  1  1
 17 18  1  0
 18 19  2  0
 18 22  1  0
 20 16  1  0
 21 20  1  0
 23 20  2  0
M  END
$$$$
