LCD.pdb
     RDKit          3D

 23 22  0  0  1  0  0  0  0  0999 V2000
    7.9968  -14.1794   17.8961 C   0  0  0  0  0  0  0  0  0  0  0  0
    7.6896  -13.3543   19.1442 C   0  0  2  0  0  0  0  0  0  0  0  0
    7.5881  -11.8922   18.7709 C   0  0  0  0  0  0  0  0  0  0  0  0
    8.6832  -13.6378   20.2355 C   0  0  0  0  0  0  0  0  0  0  0  0
    8.4498  -14.9736   20.8334 C   0  0  2  0  0  0  0  0  0  0  0  0
    7.0846  -15.3678   20.7079 N   0  0  0  0  0  0  0  0  0  0  0  0
    8.9026  -15.0470   22.2618 C   0  0  0  0  0  0  0  0  0  0  0  0
   10.1013  -14.7801   22.5286 O   0  0  0  0  0  0  0  0  0  0  0  0
    8.0239  -15.4061   23.3067 N   0  0  0  0  0  0  0  0  0  0  0  0
    8.4819  -15.4567   24.7131 C   0  0  1  0  0  0  0  0  0  0  0  0
    7.2719  -15.1938   25.6120 C   0  0  0  0  0  0  0  0  0  0  0  0
    6.8577  -13.4585   25.6424 S   0  0  0  0  0  0  0  0  0  0  0  0
    8.9689  -16.8436   24.9237 C   0  0  0  0  0  0  0  0  0  0  0  0
    8.6833  -17.7765   24.0864 O   0  0  0  0  0  0  0  0  0  0  0  0
    9.7674  -17.2257   26.0381 N   0  0  0  0  0  0  0  0  0  0  0  0
   10.8309  -18.2210   25.8631 C   0  0  1  0  0  0  0  0  0  0  0  0
   11.6958  -17.8006   24.7108 C   0  0  0  0  0  0  0  0  0  0  0  0
   12.4463  -18.9444   24.1593 C   0  0  0  0  0  0  0  0  0  0  0  0
   13.3163  -19.4973   24.8723 O   0  0  0  0  0  0  0  0  0  0  0  0
   11.5536  -18.4529   27.1227 C   0  0  0  0  0  0  0  0  0  0  0  0
   11.7771  -19.7395   27.5695 O   0  0  0  0  0  0  0  0  0  0  0  0
   12.2354  -19.4416   22.8824 O   0  0  0  0  0  0  0  0  0  0  0  0
   11.9705  -17.4932   27.7976 O   0  0  0  0  0  0  0  0  0  0  0  0
  2  1  1  6
  2  3  1  0
  4  2  1  0
  4  5  1  0
  5  7  1  0
  5  6  1  1
  7  8  2  0
  9  7  1  0
  9 10  1  0
 10 11  1  1
 12 11  1  0
 13 14  2  0
 13 10  1  0
 15 13  1  0
 16 15  1  0
 16 17  1  6
 17 18  1  0
 18 19  2  0
 18 22  1  0
 20 16  1  0
 21 20  1  0
 23 20  2  0
M  END
$$$$
