LCD.pdb
     RDKit          3D

 23 22  0  0  1  0  0  0  0  0999 V2000
    7.7258  -14.0581   18.0935 C   0  0  0  0  0  0  0  0  0  0  0  0
    8.0261  -13.6563   19.5362 C   0  0  2  0  0  0  0  0  0  0  0  0
    7.8385  -12.1640   19.6944 C   0  0  0  0  0  0  0  0  0  0  0  0
    9.3802  -14.1496   19.9621 C   0  0  0  0  0  0  0  0  0  0  0  0
    9.2653  -15.3830   20.7755 C   0  0  2  0  0  0  0  0  0  0  0  0
    8.0880  -16.1170   20.4432 N   0  0  0  0  0  0  0  0  0  0  0  0
    9.3285  -15.1041   22.2482 C   0  0  0  0  0  0  0  0  0  0  0  0
   10.3237  -14.4855   22.7023 O   0  0  0  0  0  0  0  0  0  0  0  0
    8.3069  -15.5157   23.1313 N   0  0  0  0  0  0  0  0  0  0  0  0
    8.3782  -15.2214   24.5799 C   0  0  1  0  0  0  0  0  0  0  0  0
    6.9489  -15.1952   25.1258 C   0  0  0  0  0  0  0  0  0  0  0  0
    6.6484  -16.5805   26.2095 S   0  0  0  0  0  0  0  0  0  0  0  0
    9.1219  -16.3573   25.1810 C   0  0  0  0  0  0  0  0  0  0  0  0
    9.2806  -16.4411   26.4541 O   0  0  0  0  0  0  0  0  0  0  0  0
    9.6945  -17.4066   24.4086 N   0  0  0  0  0  0  0  0  0  0  0  0
   10.4918  -18.4449   25.0707 C   0  0  1  0  0  0  0  0  0  0  0  0
    9.9322  -19.7876   24.7012 C   0  0  0  0  0  0  0  0  0  0  0  0
   10.7894  -20.8803   25.1981 C   0  0  0  0  0  0  0  0  0  0  0  0
   10.9248  -21.0277   26.4355 O   0  0  0  0  0  0  0  0  0  0  0  0
   11.9248  -18.2759   24.7865 C   0  0  0  0  0  0  0  0  0  0  0  0
   12.3785  -17.1367   24.1530 O   0  0  0  0  0  0  0  0  0  0  0  0
   11.4573  -21.7583   24.3585 O   0  0  0  0  0  0  0  0  0  0  0  0
   12.7418  -19.1568   25.1137 O   0  0  0  0  0  0  0  0  0  0  0  0
  2  1  1  6
  2  3  1  0
  4  2  1  0
  4  5  1  0
  5  7  1  0
  5  6  1  1
  7  8  2  0
  9  7  1  0
  9 10  1  0
 10 11  1  1
 12 11  1  0
 13 14  2  0
 13 10  1  0
 15 13  1  0
 16 15  1  0
 16 17  1  6
 17 18  1  0
 18 19  2  0
 18 22  1  0
 20 16  1  0
 21 20  1  0
 23 20  2  0
M  END
$$$$
