LCD.pdb
     RDKit          3D

 23 22  0  0  1  0  0  0  0  0999 V2000
    8.1606  -13.9724   17.9345 C   0  0  0  0  0  0  0  0  0  0  0  0
    7.5514  -13.4235   19.2230 C   0  0  2  0  0  0  0  0  0  0  0  0
    6.9677  -12.0529   18.9620 C   0  0  0  0  0  0  0  0  0  0  0  0
    8.5477  -13.4583   20.3475 C   0  0  0  0  0  0  0  0  0  0  0  0
    8.8136  -14.8507   20.7797 C   0  0  2  0  0  0  0  0  0  0  0  0
    7.6158  -15.6252   20.8035 N   0  0  0  0  0  0  0  0  0  0  0  0
    9.5220  -14.9134   22.1006 C   0  0  0  0  0  0  0  0  0  0  0  0
   10.4658  -14.1123   22.3170 O   0  0  0  0  0  0  0  0  0  0  0  0
    9.1593  -15.8425   23.0997 N   0  0  0  0  0  0  0  0  0  0  0  0
    9.8155  -15.8403   24.4263 C   0  0  1  0  0  0  0  0  0  0  0  0
    8.7562  -16.1827   25.4760 C   0  0  0  0  0  0  0  0  0  0  0  0
    9.4966  -16.4310   27.0804 S   0  0  0  0  0  0  0  0  0  0  0  0
   10.8312  -16.9219   24.3699 C   0  0  0  0  0  0  0  0  0  0  0  0
   10.5128  -18.1052   23.9807 O   0  0  0  0  0  0  0  0  0  0  0  0
   12.1938  -16.7276   24.7319 N   0  0  0  0  0  0  0  0  0  0  0  0
   13.1222  -17.8632   24.7045 C   0  0  1  0  0  0  0  0  0  0  0  0
   14.5051  -17.3454   24.4361 C   0  0  0  0  0  0  0  0  0  0  0  0
   14.5261  -16.4605   23.2563 C   0  0  0  0  0  0  0  0  0  0  0  0
   13.9288  -16.8249   22.2163 O   0  0  0  0  0  0  0  0  0  0  0  0
   12.9965  -18.6814   25.9200 C   0  0  0  0  0  0  0  0  0  0  0  0
   12.2555  -18.2255   26.9916 O   0  0  0  0  0  0  0  0  0  0  0  0
   15.1783  -15.2372   23.2406 O   0  0  0  0  0  0  0  0  0  0  0  0
   13.5558  -19.7913   25.9950 O   0  0  0  0  0  0  0  0  0  0  0  0
  2  1  1  6
  2  3  1  0
  4  2  1  0
  4  5  1  0
  5  7  1  0
  5  6  1  1
  7  8  2  0
  9  7  1  0
  9 10  1  0
 10 11  1  1
 12 11  1  0
 13 14  2  0
 13 10  1  0
 15 13  1  0
 16 15  1  0
 16 17  1  1
 17 18  1  0
 18 19  2  0
 18 22  1  0
 20 16  1  0
 21 20  1  0
 23 20  2  0
M  END
$$$$
