LCD.pdb
     RDKit          3D

 23 22  0  0  1  0  0  0  0  0999 V2000
    8.1179  -12.5014   27.3102 C   0  0  0  0  0  0  0  0  0  0  0  0
    7.2866  -13.3824   26.3799 C   0  0  2  0  0  0  0  0  0  0  0  0
    6.0139  -12.6581   26.0018 C   0  0  0  0  0  0  0  0  0  0  0  0
    7.0598  -14.7398   26.9835 C   0  0  0  0  0  0  0  0  0  0  0  0
    6.4134  -15.6529   26.0116 C   0  0  2  0  0  0  0  0  0  0  0  0
    5.9491  -16.8432   26.6462 N   0  0  0  0  0  0  0  0  0  0  0  0
    7.3059  -15.9749   24.8495 C   0  0  0  0  0  0  0  0  0  0  0  0
    8.0610  -16.9764   24.9289 O   0  0  0  0  0  0  0  0  0  0  0  0
    7.3202  -15.1879   23.6777 N   0  0  0  0  0  0  0  0  0  0  0  0
    8.1184  -15.5832   22.4958 C   0  0  1  0  0  0  0  0  0  0  0  0
    7.8734  -14.5490   21.3950 C   0  0  0  0  0  0  0  0  0  0  0  0
    8.8181  -14.9318   19.9305 S   0  0  0  0  0  0  0  0  0  0  0  0
    9.5359  -15.5209   22.9335 C   0  0  0  0  0  0  0  0  0  0  0  0
   10.0310  -14.4346   23.4107 O   0  0  0  0  0  0  0  0  0  0  0  0
   10.4215  -16.6325   22.8588 N   0  0  0  0  0  0  0  0  0  0  0  0
   11.8276  -16.4687   23.2441 C   0  0  1  0  0  0  0  0  0  0  0  0
   12.3339  -17.7770   23.7775 C   0  0  0  0  0  0  0  0  0  0  0  0
   11.7159  -18.1008   25.0770 C   0  0  0  0  0  0  0  0  0  0  0  0
   11.7039  -17.2270   25.9755 O   0  0  0  0  0  0  0  0  0  0  0  0
   12.6189  -15.9068   22.1392 C   0  0  0  0  0  0  0  0  0  0  0  0
   13.8857  -15.4112   22.3730 O   0  0  0  0  0  0  0  0  0  0  0  0
   11.1437  -19.3325   25.3557 O   0  0  0  0  0  0  0  0  0  0  0  0
   12.1555  -15.8724   20.9840 O   0  0  0  0  0  0  0  0  0  0  0  0
  2  1  1  1
  2  3  1  0
  4  2  1  0
  4  5  1  0
  5  7  1  0
  5  6  1  1
  7  8  2  0
  9  7  1  0
  9 10  1  0
 10 11  1  6
 12 11  1  0
 13 14  2  0
 13 10  1  0
 15 13  1  0
 16 15  1  0
 16 17  1  6
 17 18  1  0
 18 19  2  0
 18 22  1  0
 20 16  1  0
 21 20  1  0
 23 20  2  0
M  END
$$$$
