LDW.pdb
     RDKit          3D

 31 32  0  0  1  0  0  0  0  0999 V2000
   29.5936  -16.4154  -19.2521 C   0  0  0  0  0  0  0  0  0  0  0  0
   29.6079  -17.7043  -18.4987 C   0  0  1  0  0  0  0  0  0  0  0  0
   30.9895  -18.3196  -18.6698 C   0  0  0  0  0  0  0  0  0  0  0  0
   29.3515  -17.5765  -17.0351 C   0  0  0  0  0  0  0  0  0  0  0  0
   29.3552  -18.8702  -16.2838 C   0  0  2  0  0  0  0  0  0  0  0  0
   29.7211  -19.9912  -17.1433 N   0  0  0  0  0  0  0  0  0  0  0  0
   27.9300  -19.1141  -15.8587 C   0  0  0  0  0  0  0  0  0  0  0  0
   27.3152  -18.2321  -15.2057 O   0  0  0  0  0  0  0  0  0  0  0  0
   27.2443  -20.3144  -16.1699 N   0  0  0  0  0  0  0  0  0  0  0  0
   25.8526  -20.4858  -15.7390 C   0  0  1  0  0  0  0  0  0  0  0  0
   25.0436  -21.1223  -16.8358 C   0  0  0  0  0  0  0  0  0  0  0  0
   24.9315  -20.3056  -18.0564 C   0  0  0  0  0  0  0  0  0  0  0  0
   24.4732  -19.1359  -18.0327 O   0  0  0  0  0  0  0  0  0  0  0  0
   25.8177  -21.1919  -14.4565 C   0  0  0  0  0  0  0  0  0  0  0  0
   26.5584  -22.1910  -14.2828 O   0  0  0  0  0  0  0  0  0  0  0  0
   25.3293  -20.7821  -19.3173 O   0  0  0  0  0  0  0  0  0  0  0  0
   24.9575  -20.7517  -13.4246 N   0  0  0  0  0  0  0  0  0  0  0  0
   24.9056  -21.4900  -12.1782 C   0  0  1  0  0  0  0  0  0  0  0  0
   26.2931  -21.4703  -11.6102 C   0  0  0  0  0  0  0  0  0  0  0  0
   26.4241  -20.8038  -10.3040 C   0  0  0  0  0  0  0  0  0  0  0  0
   25.3934  -20.0898   -9.6567 C   0  0  0  0  0  0  0  0  0  0  0  0
   25.8521  -19.6505   -8.4809 N   0  0  0  0  0  0  0  0  0  0  0  0
   27.1197  -20.0223   -8.2993 C   0  0  0  0  0  0  0  0  0  0  0  0
   28.0261  -19.8254   -7.2908 C   0  0  0  0  0  0  0  0  0  0  0  0
   29.3249  -20.3326   -7.3685 C   0  0  0  0  0  0  0  0  0  0  0  0
   29.7102  -21.0454   -8.4780 C   0  0  0  0  0  0  0  0  0  0  0  0
   28.7600  -21.2271   -9.4877 C   0  0  0  0  0  0  0  0  0  0  0  0
   27.4842  -20.7416   -9.4325 C   0  0  0  0  0  0  0  0  0  0  0  0
   23.8274  -21.0727  -11.2959 C   0  0  0  0  0  0  0  0  0  0  0  0
   23.2872  -21.9087  -10.3372 O   0  0  0  0  0  0  0  0  0  0  0  0
   23.3070  -19.9058  -11.3545 O   0  0  0  0  0  0  0  0  0  0  0  0
  2  1  1  6
  3  2  1  0
  4  2  1  0
  5  4  1  0
  5  6  1  6
  7  5  1  0
  7  8  2  0
  9  7  1  0
 10  9  1  0
 10 11  1  6
 12 13  2  0
 12 11  1  0
 14 17  1  0
 14 10  1  0
 15 14  2  0
 16 12  1  0
 18 17  1  0
 18 19  1  1
 20 19  1  0
 21 20  2  0
 22 23  1  0
 22 21  1  0
 23 28  2  0
 24 25  2  0
 24 23  1  0
 25 26  1  0
 26 27  2  0
 28 27  1  0
 28 20  1  0
 29 18  1  0
 30 29  1  0
 31 29  2  0
M  END
$$$$
