LDW.pdb
     RDKit          3D

 31 32  0  0  1  0  0  0  0  0999 V2000
   24.4298  -19.8543   -9.0027 C   0  0  0  0  0  0  0  0  0  0  0  0
   23.4566  -20.8996   -9.4378 C   0  0  1  0  0  0  0  0  0  0  0  0
   23.2036  -21.8138   -8.2474 C   0  0  0  0  0  0  0  0  0  0  0  0
   22.1357  -20.3753   -9.8898 C   0  0  0  0  0  0  0  0  0  0  0  0
   22.1764  -19.5900  -11.1626 C   0  0  2  0  0  0  0  0  0  0  0  0
   20.8516  -19.1105  -11.5424 N   0  0  0  0  0  0  0  0  0  0  0  0
   22.5987  -20.5559  -12.2397 C   0  0  0  0  0  0  0  0  0  0  0  0
   23.6200  -21.2703  -12.0703 O   0  0  0  0  0  0  0  0  0  0  0  0
   21.8806  -20.6943  -13.4534 N   0  0  0  0  0  0  0  0  0  0  0  0
   22.3452  -21.6500  -14.4647 C   0  0  1  0  0  0  0  0  0  0  0  0
   21.1721  -22.2493  -15.1910 C   0  0  0  0  0  0  0  0  0  0  0  0
   20.8698  -21.6098  -16.4830 C   0  0  0  0  0  0  0  0  0  0  0  0
   21.7527  -21.4345  -17.3596 O   0  0  0  0  0  0  0  0  0  0  0  0
   23.3431  -21.0106  -15.3249 C   0  0  0  0  0  0  0  0  0  0  0  0
   23.0944  -19.8865  -15.8267 O   0  0  0  0  0  0  0  0  0  0  0  0
   19.5805  -21.1589  -16.8135 O   0  0  0  0  0  0  0  0  0  0  0  0
   24.5742  -21.6540  -15.5870 N   0  0  0  0  0  0  0  0  0  0  0  0
   25.7916  -20.8685  -15.6341 C   0  0  1  0  0  0  0  0  0  0  0  0
   25.9007  -20.1673  -14.3134 C   0  0  0  0  0  0  0  0  0  0  0  0
   27.2697  -20.0312  -13.7893 C   0  0  0  0  0  0  0  0  0  0  0  0
   28.3054  -19.3086  -14.4189 C   0  0  0  0  0  0  0  0  0  0  0  0
   29.3968  -19.3702  -13.6501 N   0  0  0  0  0  0  0  0  0  0  0  0
   29.1603  -20.0855  -12.5500 C   0  0  0  0  0  0  0  0  0  0  0  0
   29.9291  -20.4449  -11.4741 C   0  0  0  0  0  0  0  0  0  0  0  0
   29.4143  -21.2296  -10.4399 C   0  0  0  0  0  0  0  0  0  0  0  0
   28.1093  -21.6552  -10.4955 C   0  0  0  0  0  0  0  0  0  0  0  0
   27.3539  -21.2700  -11.6075 C   0  0  0  0  0  0  0  0  0  0  0  0
   27.8358  -20.5021  -12.6295 C   0  0  0  0  0  0  0  0  0  0  0  0
   26.9552  -21.6195  -16.0785 C   0  0  0  0  0  0  0  0  0  0  0  0
   27.1702  -22.9364  -15.7188 O   0  0  0  0  0  0  0  0  0  0  0  0
   27.8564  -21.1069  -16.8272 O   0  0  0  0  0  0  0  0  0  0  0  0
  2  1  1  1
  3  2  1  0
  4  2  1  0
  5  4  1  0
  5  6  1  6
  7  5  1  0
  7  8  2  0
  9  7  1  0
 10  9  1  0
 10 11  1  6
 12 13  2  0
 12 11  1  0
 14 17  1  0
 14 10  1  0
 15 14  2  0
 16 12  1  0
 18 17  1  0
 18 19  1  1
 20 19  1  0
 21 20  2  0
 22 23  1  0
 22 21  1  0
 23 28  2  0
 24 25  2  0
 24 23  1  0
 25 26  1  0
 26 27  2  0
 28 27  1  0
 28 20  1  0
 29 18  1  0
 30 29  1  0
 31 29  2  0
M  END
$$$$
