LDW.pdb
     RDKit          3D

 31 32  0  0  1  0  0  0  0  0999 V2000
   15.3191  -18.3259    0.4644 C   0  0  0  0  0  0  0  0  0  0  0  0
   15.9584  -19.0863    1.5790 C   0  0  1  0  0  0  0  0  0  0  0  0
   17.0140  -19.9959    0.9666 C   0  0  0  0  0  0  0  0  0  0  0  0
   16.6343  -18.2418    2.6056 C   0  0  0  0  0  0  0  0  0  0  0  0
   17.2562  -19.0043    3.7325 C   0  0  2  0  0  0  0  0  0  0  0  0
   16.7983  -20.3895    3.7631 N   0  0  0  0  0  0  0  0  0  0  0  0
   16.7514  -18.3666    5.0014 C   0  0  0  0  0  0  0  0  0  0  0  0
   16.5298  -17.1288    5.0310 O   0  0  0  0  0  0  0  0  0  0  0  0
   16.5122  -19.1164    6.1797 N   0  0  0  0  0  0  0  0  0  0  0  0
   16.0952  -18.4261    7.4050 C   0  0  1  0  0  0  0  0  0  0  0  0
   15.4214  -19.3913    8.3416 C   0  0  0  0  0  0  0  0  0  0  0  0
   14.1322  -19.9088    7.8521 C   0  0  0  0  0  0  0  0  0  0  0  0
   13.3045  -19.1738    7.2576 O   0  0  0  0  0  0  0  0  0  0  0  0
   17.2346  -17.7049    7.9760 C   0  0  0  0  0  0  0  0  0  0  0  0
   18.3653  -18.2512    7.9900 O   0  0  0  0  0  0  0  0  0  0  0  0
   13.7506  -21.2511    8.0185 O   0  0  0  0  0  0  0  0  0  0  0  0
   17.0617  -16.4059    8.5063 N   0  0  0  0  0  0  0  0  0  0  0  0
   18.2183  -15.6699    8.9773 C   0  0  1  0  0  0  0  0  0  0  0  0
   19.1819  -15.6058    7.8304 C   0  0  0  0  0  0  0  0  0  0  0  0
   19.0302  -14.4344    6.9516 C   0  0  0  0  0  0  0  0  0  0  0  0
   19.3087  -13.1032    7.3280 C   0  0  0  0  0  0  0  0  0  0  0  0
   19.0929  -12.3084    6.2756 N   0  0  0  0  0  0  0  0  0  0  0  0
   18.6885  -13.0184    5.2220 C   0  0  0  0  0  0  0  0  0  0  0  0
   18.3381  -12.6881    3.9392 C   0  0  0  0  0  0  0  0  0  0  0  0
   17.9327  -13.6593    3.0211 C   0  0  0  0  0  0  0  0  0  0  0  0
   17.8810  -14.9773    3.4054 C   0  0  0  0  0  0  0  0  0  0  0  0
   18.2454  -15.2784    4.7214 C   0  0  0  0  0  0  0  0  0  0  0  0
   18.6461  -14.3456    5.6356 C   0  0  0  0  0  0  0  0  0  0  0  0
   17.8858  -14.4126    9.6285 C   0  0  0  0  0  0  0  0  0  0  0  0
   18.7975  -13.7084   10.3918 O   0  0  0  0  0  0  0  0  0  0  0  0
   16.7261  -13.8809    9.5397 O   0  0  0  0  0  0  0  0  0  0  0  0
  2  1  1  6
  3  2  1  0
  4  2  1  0
  5  4  1  0
  5  6  1  1
  7  5  1  0
  7  8  2  0
  9  7  1  0
 10  9  1  0
 10 11  1  1
 12 13  2  0
 12 11  1  0
 14 17  1  0
 14 10  1  0
 15 14  2  0
 16 12  1  0
 18 17  1  0
 18 19  1  6
 20 19  1  0
 21 20  2  0
 22 23  1  0
 22 21  1  0
 23 28  2  0
 24 25  2  0
 24 23  1  0
 25 26  1  0
 26 27  2  0
 28 27  1  0
 28 20  1  0
 29 18  1  0
 30 29  1  0
 31 29  2  0
M  END
$$$$
