LDW.pdb
     RDKit          3D

 31 32  0  0  1  0  0  0  0  0999 V2000
   19.4720  -10.5371    8.4126 C   0  0  0  0  0  0  0  0  0  0  0  0
   19.9810  -11.2627    7.2111 C   0  0  1  0  0  0  0  0  0  0  0  0
   21.4992  -11.1561    7.2207 C   0  0  0  0  0  0  0  0  0  0  0  0
   19.6330  -12.7121    7.1616 C   0  0  0  0  0  0  0  0  0  0  0  0
   18.6074  -13.0747    6.1345 C   0  0  2  0  0  0  0  0  0  0  0  0
   17.2927  -12.5401    6.4739 N   0  0  0  0  0  0  0  0  0  0  0  0
   18.4762  -14.5753    6.1822 C   0  0  0  0  0  0  0  0  0  0  0  0
   19.4813  -15.2961    5.9529 O   0  0  0  0  0  0  0  0  0  0  0  0
   17.2482  -15.2166    6.4799 N   0  0  0  0  0  0  0  0  0  0  0  0
   17.2136  -16.6739    6.6442 C   0  0  1  0  0  0  0  0  0  0  0  0
   16.1628  -17.0587    7.6494 C   0  0  0  0  0  0  0  0  0  0  0  0
   15.9773  -18.5117    7.8042 C   0  0  0  0  0  0  0  0  0  0  0  0
   16.8451  -19.3361    7.4219 O   0  0  0  0  0  0  0  0  0  0  0  0
   17.0789  -17.3141    5.3340 C   0  0  0  0  0  0  0  0  0  0  0  0
   16.2919  -16.8242    4.4868 O   0  0  0  0  0  0  0  0  0  0  0  0
   14.8235  -19.0629    8.3871 O   0  0  0  0  0  0  0  0  0  0  0  0
   17.8284  -18.4728    5.0274 N   0  0  0  0  0  0  0  0  0  0  0  0
   17.8299  -18.9806    3.6696 C   0  0  1  0  0  0  0  0  0  0  0  0
   18.5634  -17.9732    2.8360 C   0  0  0  0  0  0  0  0  0  0  0  0
   19.1541  -18.5004    1.5948 C   0  0  0  0  0  0  0  0  0  0  0  0
   18.5048  -19.3816    0.7043 C   0  0  0  0  0  0  0  0  0  0  0  0
   19.3198  -19.6232   -0.3268 N   0  0  0  0  0  0  0  0  0  0  0  0
   20.4699  -18.9636   -0.1850 C   0  0  0  0  0  0  0  0  0  0  0  0
   21.6100  -18.8804   -0.9404 C   0  0  0  0  0  0  0  0  0  0  0  0
   22.6960  -18.1002   -0.5379 C   0  0  0  0  0  0  0  0  0  0  0  0
   22.6277  -17.3979    0.6408 C   0  0  0  0  0  0  0  0  0  0  0  0
   21.4496  -17.5057    1.3864 C   0  0  0  0  0  0  0  0  0  0  0  0
   20.3748  -18.2612    1.0117 C   0  0  0  0  0  0  0  0  0  0  0  0
   18.2647  -20.3644    3.5634 C   0  0  0  0  0  0  0  0  0  0  0  0
   17.8671  -21.1899    2.5289 O   0  0  0  0  0  0  0  0  0  0  0  0
   19.0396  -20.9070    4.4241 O   0  0  0  0  0  0  0  0  0  0  0  0
  2  1  1  1
  3  2  1  0
  4  2  1  0
  5  4  1  0
  5  6  1  1
  7  5  1  0
  7  8  2  0
  9  7  1  0
 10  9  1  0
 10 11  1  1
 12 13  2  0
 12 11  1  0
 14 17  1  0
 14 10  1  0
 15 14  2  0
 16 12  1  0
 18 17  1  0
 18 19  1  6
 20 19  1  0
 21 20  2  0
 22 23  1  0
 22 21  1  0
 23 28  2  0
 24 25  2  0
 24 23  1  0
 25 26  1  0
 26 27  2  0
 28 27  1  0
 28 20  1  0
 29 18  1  0
 30 29  1  0
 31 29  2  0
M  END
$$$$
