LDW.pdb
     RDKit          3D

 31 32  0  0  1  0  0  0  0  0999 V2000
   26.2278  -17.0181  -17.1743 C   0  0  0  0  0  0  0  0  0  0  0  0
   26.4842  -18.3128  -17.8724 C   0  0  1  0  0  0  0  0  0  0  0  0
   27.8931  -18.7586  -17.5080 C   0  0  0  0  0  0  0  0  0  0  0  0
   25.5537  -19.4180  -17.5025 C   0  0  0  0  0  0  0  0  0  0  0  0
   25.6338  -19.8512  -16.0727 C   0  0  2  0  0  0  0  0  0  0  0  0
   26.5213  -20.9974  -15.9060 N   0  0  0  0  0  0  0  0  0  0  0  0
   24.2542  -20.3302  -15.7003 C   0  0  0  0  0  0  0  0  0  0  0  0
   23.8385  -21.4337  -16.1381 O   0  0  0  0  0  0  0  0  0  0  0  0
   23.3938  -19.5766  -14.8638 N   0  0  0  0  0  0  0  0  0  0  0  0
   22.0327  -20.0579  -14.6037 C   0  0  1  0  0  0  0  0  0  0  0  0
   21.4904  -19.4303  -13.3487 C   0  0  0  0  0  0  0  0  0  0  0  0
   21.3659  -20.3597  -12.2129 C   0  0  0  0  0  0  0  0  0  0  0  0
   21.5331  -21.5978  -12.3468 O   0  0  0  0  0  0  0  0  0  0  0  0
   21.2060  -19.8661  -15.7971 C   0  0  0  0  0  0  0  0  0  0  0  0
   21.6354  -19.1504  -16.7355 O   0  0  0  0  0  0  0  0  0  0  0  0
   21.0546  -19.9205  -10.9147 O   0  0  0  0  0  0  0  0  0  0  0  0
   19.9367  -20.4813  -15.8904 N   0  0  0  0  0  0  0  0  0  0  0  0
   19.1076  -20.2293  -17.0525 C   0  0  1  0  0  0  0  0  0  0  0  0
   19.5280  -21.2151  -18.1010 C   0  0  0  0  0  0  0  0  0  0  0  0
   18.7815  -21.1367  -19.3675 C   0  0  0  0  0  0  0  0  0  0  0  0
   19.0174  -20.1874  -20.3846 C   0  0  0  0  0  0  0  0  0  0  0  0
   18.1823  -20.4323  -21.3986 N   0  0  0  0  0  0  0  0  0  0  0  0
   17.4040  -21.4805  -21.1275 C   0  0  0  0  0  0  0  0  0  0  0  0
   16.4041  -22.1169  -21.8150 C   0  0  0  0  0  0  0  0  0  0  0  0
   15.7320  -23.2151  -21.2740 C   0  0  0  0  0  0  0  0  0  0  0  0
   16.0748  -23.6730  -20.0250 C   0  0  0  0  0  0  0  0  0  0  0  0
   17.0993  -23.0000  -19.3520 C   0  0  0  0  0  0  0  0  0  0  0  0
   17.7710  -21.9253  -19.8619 C   0  0  0  0  0  0  0  0  0  0  0  0
   17.6866  -20.1545  -16.7517 C   0  0  0  0  0  0  0  0  0  0  0  0
   17.1458  -20.6711  -15.5897 O   0  0  0  0  0  0  0  0  0  0  0  0
   16.8460  -19.6092  -17.5466 O   0  0  0  0  0  0  0  0  0  0  0  0
  2  1  1  1
  3  2  1  0
  4  2  1  0
  5  4  1  0
  5  6  1  6
  7  5  1  0
  7  8  2  0
  9  7  1  0
 10  9  1  0
 10 11  1  1
 12 13  2  0
 12 11  1  0
 14 17  1  0
 14 10  1  0
 15 14  2  0
 16 12  1  0
 18 17  1  0
 18 19  1  6
 20 19  1  0
 21 20  2  0
 22 23  1  0
 22 21  1  0
 23 28  2  0
 24 25  2  0
 24 23  1  0
 25 26  1  0
 26 27  2  0
 28 27  1  0
 28 20  1  0
 29 18  1  0
 30 29  1  0
 31 29  2  0
M  END
$$$$
