LDW.pdb
     RDKit          3D

 31 32  0  0  1  0  0  0  0  0999 V2000
   27.8784  -19.8982  -18.5657 C   0  0  0  0  0  0  0  0  0  0  0  0
   27.9394  -20.7186  -17.3198 C   0  0  1  0  0  0  0  0  0  0  0  0
   29.0665  -21.7272  -17.4902 C   0  0  0  0  0  0  0  0  0  0  0  0
   28.2134  -19.9454  -16.0743 C   0  0  0  0  0  0  0  0  0  0  0  0
   28.2896  -20.7712  -14.8291 C   0  0  2  0  0  0  0  0  0  0  0  0
   28.0170  -22.1791  -15.0988 N   0  0  0  0  0  0  0  0  0  0  0  0
   27.1745  -20.2905  -13.9364 C   0  0  0  0  0  0  0  0  0  0  0  0
   27.0662  -19.0637  -13.6806 O   0  0  0  0  0  0  0  0  0  0  0  0
   26.2288  -21.1780  -13.3655 N   0  0  0  0  0  0  0  0  0  0  0  0
   25.1343  -20.6423  -12.5488 C   0  0  1  0  0  0  0  0  0  0  0  0
   23.8076  -20.9752  -13.1748 C   0  0  0  0  0  0  0  0  0  0  0  0
   22.6415  -20.5184  -12.3996 C   0  0  0  0  0  0  0  0  0  0  0  0
   22.6478  -19.4313  -11.7697 O   0  0  0  0  0  0  0  0  0  0  0  0
   25.2917  -21.0863  -11.1622 C   0  0  0  0  0  0  0  0  0  0  0  0
   25.6079  -22.2792  -10.9293 O   0  0  0  0  0  0  0  0  0  0  0  0
   21.4550  -21.2670  -12.3177 O   0  0  0  0  0  0  0  0  0  0  0  0
   25.0893  -20.1794  -10.0969 N   0  0  0  0  0  0  0  0  0  0  0  0
   25.1770  -20.6557   -8.7306 C   0  0  1  0  0  0  0  0  0  0  0  0
   25.9474  -19.6220   -7.9650 C   0  0  0  0  0  0  0  0  0  0  0  0
   27.3510  -19.9682   -7.6865 C   0  0  0  0  0  0  0  0  0  0  0  0
   28.2359  -20.5550   -8.6158 C   0  0  0  0  0  0  0  0  0  0  0  0
   29.4312  -20.6972   -8.0355 N   0  0  0  0  0  0  0  0  0  0  0  0
   29.4045  -20.2457   -6.7812 C   0  0  0  0  0  0  0  0  0  0  0  0
   30.3412  -20.1730   -5.7838 C   0  0  0  0  0  0  0  0  0  0  0  0
   30.0296  -19.6475   -4.5279 C   0  0  0  0  0  0  0  0  0  0  0  0
   28.7577  -19.1917   -4.2792 C   0  0  0  0  0  0  0  0  0  0  0  0
   27.8275  -19.2810   -5.3194 C   0  0  0  0  0  0  0  0  0  0  0  0
   28.1101  -19.7897   -6.5554 C   0  0  0  0  0  0  0  0  0  0  0  0
   23.8996  -21.0711   -8.1730 C   0  0  0  0  0  0  0  0  0  0  0  0
   23.7979  -21.7361   -6.9659 O   0  0  0  0  0  0  0  0  0  0  0  0
   22.7888  -20.8513   -8.7673 O   0  0  0  0  0  0  0  0  0  0  0  0
  2  1  1  6
  3  2  1  0
  4  2  1  0
  5  4  1  0
  5  6  1  6
  7  5  1  0
  7  8  2  0
  9  7  1  0
 10  9  1  0
 10 11  1  6
 12 13  2  0
 12 11  1  0
 14 17  1  0
 14 10  1  0
 15 14  2  0
 16 12  1  0
 18 17  1  0
 18 19  1  1
 20 19  1  0
 21 20  2  0
 22 23  1  0
 22 21  1  0
 23 28  2  0
 24 25  2  0
 24 23  1  0
 25 26  1  0
 26 27  2  0
 28 27  1  0
 28 20  1  0
 29 18  1  0
 30 29  1  0
 31 29  2  0
M  END
$$$$
