NPI.pdb
     RDKit          3D

 24 24  0  0  1  0  0  0  0  0999 V2000
   10.8937  -19.7816   18.6599 N   0  0  0  0  0  0  0  0  0  0  0  0
   10.1415  -19.9230   19.8547 C   0  0  0  0  0  0  0  0  0  0  0  0
    9.7239  -21.0795   20.1334 O   0  0  0  0  0  0  0  0  0  0  0  0
    9.8281  -18.8094   20.7731 C   0  0  0  0  0  0  0  0  0  0  0  0
   10.3366  -17.4826   20.1797 C   0  0  2  0  0  0  0  0  0  0  0  0
   11.7310  -17.6542   19.9866 N   0  0  0  0  0  0  0  0  0  0  0  0
    9.8769  -16.3862   21.0038 C   0  0  0  0  0  0  0  0  0  0  0  0
   10.7719  -15.7562   21.6820 O   0  0  0  0  0  0  0  0  0  0  0  0
    8.5597  -15.8852   21.1877 N   0  0  0  0  0  0  0  0  0  0  0  0
    7.3646  -16.4285   20.6145 C   0  0  0  0  0  0  0  0  0  0  0  0
    6.5805  -15.1637   20.2736 C   0  0  0  0  0  0  0  0  0  0  0  0
    7.0312  -14.1357   21.2709 C   0  0  0  0  0  0  0  0  0  0  0  0
    8.1266  -14.7761   21.9954 C   0  0  1  0  0  0  0  0  0  0  0  0
    7.8345  -15.1516   23.3967 C   0  0  0  0  0  0  0  0  0  0  0  0
    7.8743  -16.3761   23.6724 O   0  0  0  0  0  0  0  0  0  0  0  0
    5.8413  -11.5919   27.5412 C   0  0  0  0  0  0  0  0  0  0  0  0
    6.1552  -12.7094   26.6085 C   0  0  0  0  0  0  0  0  0  0  0  0
    7.5702  -13.2338   26.6815 C   0  0  2  0  0  0  0  0  0  0  0  0
    8.4829  -12.0631   26.3124 C   0  0  0  0  0  0  0  0  0  0  0  0
    7.8156  -14.4294   25.8187 C   0  0  2  0  0  0  0  0  0  0  0  0
    7.5158  -14.2224   24.4266 N   0  0  0  0  0  0  0  0  0  0  0  0
    7.1199  -15.6511   26.3521 C   0  0  0  0  0  0  0  0  0  0  0  0
    7.5408  -16.3737   27.4415 O   0  0  0  0  0  0  0  0  0  0  0  0
    6.0594  -16.0791   25.7774 O   0  0  0  0  0  0  0  0  0  0  0  0
  1  2  1  0
  2  3  2  0
  4  2  1  0
  5  4  1  0
  5  6  1  1
  7  5  1  0
  7  8  2  0
  9  7  1  0
 10  9  1  0
 11 10  1  0
 12 11  1  0
 12 13  1  0
 13  9  1  0
 14 21  1  0
 13 14  1  1
 15 14  2  0
 17 16  1  0
 18 17  1  0
 18 19  1  6
 20 21  1  6
 20 18  1  0
 22 20  1  0
 23 22  1  0
 24 22  2  0
M  END
$$$$
