NPI.pdb
     RDKit          3D

 24 24  0  0  1  0  0  0  0  0999 V2000
    4.2680  -20.0422   21.9097 N   0  0  0  0  0  0  0  0  0  0  0  0
    4.5843  -18.7570   21.3984 C   0  0  0  0  0  0  0  0  0  0  0  0
    3.7580  -18.2414   20.5979 O   0  0  0  0  0  0  0  0  0  0  0  0
    5.8062  -18.0041   21.7477 C   0  0  0  0  0  0  0  0  0  0  0  0
    6.6045  -17.6805   20.4714 C   0  0  2  0  0  0  0  0  0  0  0  0
    6.9294  -18.9325   19.8902 N   0  0  0  0  0  0  0  0  0  0  0  0
    7.6757  -16.7656   20.8000 C   0  0  0  0  0  0  0  0  0  0  0  0
    8.8327  -17.2844   21.0233 O   0  0  0  0  0  0  0  0  0  0  0  0
    7.6492  -15.3497   20.9195 N   0  0  0  0  0  0  0  0  0  0  0  0
    6.4834  -14.5204   20.8486 C   0  0  0  0  0  0  0  0  0  0  0  0
    7.0076  -13.3126   20.0756 C   0  0  0  0  0  0  0  0  0  0  0  0
    8.4719  -13.2386   20.3992 C   0  0  0  0  0  0  0  0  0  0  0  0
    8.7439  -14.4501   21.1694 C   0  0  1  0  0  0  0  0  0  0  0  0
    9.0162  -14.2457   22.6096 C   0  0  0  0  0  0  0  0  0  0  0  0
   10.1210  -13.7280   22.9068 O   0  0  0  0  0  0  0  0  0  0  0  0
    6.5195  -11.8874   27.5246 C   0  0  0  0  0  0  0  0  0  0  0  0
    7.4832  -12.8948   27.0014 C   0  0  0  0  0  0  0  0  0  0  0  0
    7.2189  -13.3706   25.5920 C   0  0  2  0  0  0  0  0  0  0  0  0
    5.8704  -14.0918   25.6267 C   0  0  0  0  0  0  0  0  0  0  0  0
    8.3029  -14.2356   25.0343 C   0  0  2  0  0  0  0  0  0  0  0  0
    8.1158  -14.5976   23.6542 N   0  0  0  0  0  0  0  0  0  0  0  0
    8.5409  -15.4487   25.8904 C   0  0  0  0  0  0  0  0  0  0  0  0
    9.2064  -15.4358   27.0917 O   0  0  0  0  0  0  0  0  0  0  0  0
    8.1094  -16.5908   25.5064 O   0  0  0  0  0  0  0  0  0  0  0  0
  1  2  1  0
  2  3  2  0
  4  2  1  0
  5  4  1  0
  5  6  1  1
  7  5  1  0
  7  8  2  0
  9  7  1  0
 10  9  1  0
 11 10  1  0
 12 11  1  0
 12 13  1  0
 13  9  1  0
 14 21  1  0
 13 14  1  1
 15 14  2  0
 17 16  1  0
 18 17  1  0
 18 19  1  1
 20 21  1  6
 20 18  1  0
 22 20  1  0
 23 22  1  0
 24 22  2  0
M  END
$$$$
