NPI.pdb
     RDKit          3D

 24 24  0  0  1  0  0  0  0  0999 V2000
    2.8462  -17.6610   20.7628 N   0  0  0  0  0  0  0  0  0  0  0  0
    3.6320  -17.9395   21.9109 C   0  0  0  0  0  0  0  0  0  0  0  0
    3.2357  -18.8711   22.6623 O   0  0  0  0  0  0  0  0  0  0  0  0
    4.8670  -17.2112   22.2661 C   0  0  0  0  0  0  0  0  0  0  0  0
    5.8760  -17.2945   21.1060 C   0  0  2  0  0  0  0  0  0  0  0  0
    5.9655  -18.6691   20.7689 N   0  0  0  0  0  0  0  0  0  0  0  0
    7.0830  -16.5872   21.4740 C   0  0  0  0  0  0  0  0  0  0  0  0
    8.0425  -17.2935   21.9621 O   0  0  0  0  0  0  0  0  0  0  0  0
    7.3814  -15.2008   21.3805 N   0  0  0  0  0  0  0  0  0  0  0  0
    6.4468  -14.1566   21.0835 C   0  0  0  0  0  0  0  0  0  0  0  0
    7.2791  -13.2391   20.1911 C   0  0  0  0  0  0  0  0  0  0  0  0
    8.7008  -13.4399   20.6307 C   0  0  0  0  0  0  0  0  0  0  0  0
    8.6407  -14.5382   21.5924 C   0  0  1  0  0  0  0  0  0  0  0  0
    8.8754  -14.1657   23.0053 C   0  0  0  0  0  0  0  0  0  0  0  0
    9.3151  -13.0087   23.2179 O   0  0  0  0  0  0  0  0  0  0  0  0
    5.9907  -12.6042   26.9324 C   0  0  0  0  0  0  0  0  0  0  0  0
    6.6670  -13.5763   26.0296 C   0  0  0  0  0  0  0  0  0  0  0  0
    8.1649  -13.4163   25.9138 C   0  0  2  0  0  0  0  0  0  0  0  0
    8.4006  -12.2578   24.9432 C   0  0  0  0  0  0  0  0  0  0  0  0
    8.8728  -14.6606   25.4838 C   0  0  2  0  0  0  0  0  0  0  0  0
    8.6376  -15.0278   24.1125 N   0  0  0  0  0  0  0  0  0  0  0  0
    8.5916  -15.8086   26.4133 C   0  0  0  0  0  0  0  0  0  0  0  0
    7.9776  -16.9795   26.0415 O   0  0  0  0  0  0  0  0  0  0  0  0
    8.9321  -15.7263   27.6444 O   0  0  0  0  0  0  0  0  0  0  0  0
  1  2  1  0
  2  3  2  0
  4  2  1  0
  5  4  1  0
  5  6  1  1
  7  5  1  0
  7  8  2  0
  9  7  1  0
 10  9  1  0
 11 10  1  0
 12 11  1  0
 12 13  1  0
 13  9  1  0
 14 21  1  0
 13 14  1  1
 15 14  2  0
 17 16  1  0
 18 17  1  0
 18 19  1  6
 20 21  1  6
 20 18  1  0
 22 20  1  0
 23 22  1  0
 24 22  2  0
M  END
$$$$
