NPI.pdb
     RDKit          3D

 24 24  0  0  1  0  0  0  0  0999 V2000
    6.4612  -16.5576   13.6249 N   0  0  0  0  0  0  0  0  0  0  0  0
    7.0782  -17.2922   14.6703 C   0  0  0  0  0  0  0  0  0  0  0  0
    6.7597  -18.5071   14.7801 O   0  0  0  0  0  0  0  0  0  0  0  0
    8.0563  -16.7213   15.6186 C   0  0  0  0  0  0  0  0  0  0  0  0
    8.2504  -15.2211   15.3307 C   0  0  2  0  0  0  0  0  0  0  0  0
    8.7075  -15.1401   13.9908 N   0  0  0  0  0  0  0  0  0  0  0  0
    9.0576  -14.6365   16.3791 C   0  0  0  0  0  0  0  0  0  0  0  0
   10.2833  -14.3716   16.0871 O   0  0  0  0  0  0  0  0  0  0  0  0
    8.7009  -14.3026   17.7137 N   0  0  0  0  0  0  0  0  0  0  0  0
    7.4115  -14.4838   18.3109 C   0  0  0  0  0  0  0  0  0  0  0  0
    7.2840  -13.2237   19.1634 C   0  0  0  0  0  0  0  0  0  0  0  0
    8.6913  -12.8428   19.5228 C   0  0  0  0  0  0  0  0  0  0  0  0
    9.5317  -13.7587   18.7548 C   0  0  1  0  0  0  0  0  0  0  0  0
   10.2361  -14.7946   19.5426 C   0  0  0  0  0  0  0  0  0  0  0  0
    9.6536  -15.8999   19.6692 O   0  0  0  0  0  0  0  0  0  0  0  0
   15.6053  -14.3825   18.7925 C   0  0  0  0  0  0  0  0  0  0  0  0
   14.1942  -14.8268   18.9624 C   0  0  0  0  0  0  0  0  0  0  0  0
   13.8465  -15.3643   20.3308 C   0  0  2  0  0  0  0  0  0  0  0  0
   14.7373  -16.5880   20.5520 C   0  0  0  0  0  0  0  0  0  0  0  0
   12.3972  -15.6881   20.5013 C   0  0  2  0  0  0  0  0  0  0  0  0
   11.5085  -14.6112   20.1533 N   0  0  0  0  0  0  0  0  0  0  0  0
   12.1045  -16.2154   21.8787 C   0  0  0  0  0  0  0  0  0  0  0  0
   12.3013  -17.5162   22.2729 O   0  0  0  0  0  0  0  0  0  0  0  0
   11.6373  -15.4283   22.7734 O   0  0  0  0  0  0  0  0  0  0  0  0
  1  2  1  0
  2  3  2  0
  4  2  1  0
  5  4  1  0
  5  6  1  6
  7  5  1  0
  7  8  2  0
  9  7  1  0
 10  9  1  0
 11 10  1  0
 12 11  1  0
 12 13  1  0
 13  9  1  0
 14 21  1  0
 13 14  1  1
 15 14  2  0
 17 16  1  0
 18 17  1  0
 18 19  1  6
 20 21  1  1
 20 18  1  0
 22 20  1  0
 23 22  1  0
 24 22  2  0
M  END
$$$$
