NPI.pdb
     RDKit          3D

 24 24  0  0  1  0  0  0  0  0999 V2000
   10.7225  -13.6527   17.0157 N   0  0  0  0  0  0  0  0  0  0  0  0
   10.2624  -14.6392   17.9258 C   0  0  0  0  0  0  0  0  0  0  0  0
   10.3578  -15.8422   17.5607 O   0  0  0  0  0  0  0  0  0  0  0  0
    9.6894  -14.3387   19.2536 C   0  0  0  0  0  0  0  0  0  0  0  0
    8.1551  -14.4581   19.2009 C   0  0  2  0  0  0  0  0  0  0  0  0
    7.7026  -13.3201   18.4859 N   0  0  0  0  0  0  0  0  0  0  0  0
    7.6501  -14.6881   20.5368 C   0  0  0  0  0  0  0  0  0  0  0  0
    7.2221  -13.6580   21.1797 O   0  0  0  0  0  0  0  0  0  0  0  0
    7.5521  -15.9025   21.2685 N   0  0  0  0  0  0  0  0  0  0  0  0
    8.1429  -17.1554   20.9036 C   0  0  0  0  0  0  0  0  0  0  0  0
    7.0521  -18.1435   21.3096 C   0  0  0  0  0  0  0  0  0  0  0  0
    6.3233  -17.4862   22.4460 C   0  0  0  0  0  0  0  0  0  0  0  0
    6.8916  -16.1423   22.5240 C   0  0  1  0  0  0  0  0  0  0  0  0
    7.7529  -15.8785   23.6981 C   0  0  0  0  0  0  0  0  0  0  0  0
    8.9799  -16.1074   23.5602 O   0  0  0  0  0  0  0  0  0  0  0  0
    5.7011  -12.3420   27.7612 C   0  0  0  0  0  0  0  0  0  0  0  0
    6.2375  -13.5943   27.1602 C   0  0  0  0  0  0  0  0  0  0  0  0
    7.5567  -13.4509   26.4380 C   0  0  2  0  0  0  0  0  0  0  0  0
    7.3238  -12.4423   25.3118 C   0  0  0  0  0  0  0  0  0  0  0  0
    8.1087  -14.7429   25.9279 C   0  0  2  0  0  0  0  0  0  0  0  0
    7.2780  -15.3922   24.9486 N   0  0  0  0  0  0  0  0  0  0  0  0
    8.4622  -15.6777   27.0514 C   0  0  0  0  0  0  0  0  0  0  0  0
    9.4281  -15.4302   27.9958 O   0  0  0  0  0  0  0  0  0  0  0  0
    7.8429  -16.7917   27.1686 O   0  0  0  0  0  0  0  0  0  0  0  0
  1  2  1  0
  2  3  2  0
  4  2  1  0
  5  4  1  0
  5  6  1  1
  7  5  1  0
  7  8  2  0
  9  7  1  0
 10  9  1  0
 11 10  1  0
 12 11  1  0
 12 13  1  0
 13  9  1  0
 14 21  1  0
 13 14  1  1
 15 14  2  0
 17 16  1  0
 18 17  1  0
 18 19  1  6
 20 21  1  6
 20 18  1  0
 22 20  1  0
 23 22  1  0
 24 22  2  0
M  END
$$$$
