NPI.pdb
     RDKit          3D

 24 24  0  0  1  0  0  0  0  0999 V2000
   12.7043  -20.3176   20.7063 N   0  0  0  0  0  0  0  0  0  0  0  0
   11.4192  -19.7273   20.5912 C   0  0  0  0  0  0  0  0  0  0  0  0
   10.6167  -20.2596   19.7775 O   0  0  0  0  0  0  0  0  0  0  0  0
   10.9786  -18.5453   21.3598 C   0  0  0  0  0  0  0  0  0  0  0  0
   10.7500  -17.3571   20.4076 C   0  0  2  0  0  0  0  0  0  0  0  0
   12.0115  -17.0834   19.8204 N   0  0  0  0  0  0  0  0  0  0  0  0
   10.0697  -16.2993   21.1222 C   0  0  0  0  0  0  0  0  0  0  0  0
   10.8100  -15.3898   21.6537 O   0  0  0  0  0  0  0  0  0  0  0  0
    8.6783  -16.1036   21.3360 N   0  0  0  0  0  0  0  0  0  0  0  0
    7.6278  -16.9681   20.8876 C   0  0  0  0  0  0  0  0  0  0  0  0
    6.5531  -15.9643   20.4771 C   0  0  0  0  0  0  0  0  0  0  0  0
    6.7806  -14.7610   21.3460 C   0  0  0  0  0  0  0  0  0  0  0  0
    8.0220  -15.0483   22.0610 C   0  0  1  0  0  0  0  0  0  0  0  0
    7.8775  -15.3331   23.5060 C   0  0  0  0  0  0  0  0  0  0  0  0
    8.0515  -16.5234   23.8664 O   0  0  0  0  0  0  0  0  0  0  0  0
    5.6328  -11.8627   27.6440 C   0  0  0  0  0  0  0  0  0  0  0  0
    6.0274  -12.9776   26.7392 C   0  0  0  0  0  0  0  0  0  0  0  0
    7.5042  -13.2949   26.7111 C   0  0  2  0  0  0  0  0  0  0  0  0
    8.2060  -12.0342   26.2032 C   0  0  0  0  0  0  0  0  0  0  0  0
    7.8474  -14.4964   25.8908 C   0  0  2  0  0  0  0  0  0  0  0  0
    7.5571  -14.3545   24.4886 N   0  0  0  0  0  0  0  0  0  0  0  0
    7.2304  -15.7471   26.4531 C   0  0  0  0  0  0  0  0  0  0  0  0
    6.1891  -16.4302   25.8741 O   0  0  0  0  0  0  0  0  0  0  0  0
    7.6785  -16.2395   27.5462 O   0  0  0  0  0  0  0  0  0  0  0  0
  1  2  1  0
  2  3  2  0
  4  2  1  0
  5  4  1  0
  5  6  1  1
  7  5  1  0
  7  8  2  0
  9  7  1  0
 10  9  1  0
 11 10  1  0
 12 11  1  0
 12 13  1  0
 13  9  1  0
 14 21  1  0
 13 14  1  1
 15 14  2  0
 17 16  1  0
 18 17  1  0
 18 19  1  6
 20 21  1  6
 20 18  1  0
 22 20  1  0
 23 22  1  0
 24 22  2  0
M  END
$$$$
