NPI.pdb
     RDKit          3D

 24 24  0  0  1  0  0  0  0  0999 V2000
    3.0007  -18.0487   20.7342 N   0  0  0  0  0  0  0  0  0  0  0  0
    4.3084  -18.5792   20.5871 C   0  0  0  0  0  0  0  0  0  0  0  0
    4.4533  -19.5214   19.7619 O   0  0  0  0  0  0  0  0  0  0  0  0
    5.4875  -18.0955   21.3337 C   0  0  0  0  0  0  0  0  0  0  0  0
    6.5329  -17.5322   20.3536 C   0  0  2  0  0  0  0  0  0  0  0  0
    7.0989  -18.6577   19.7024 N   0  0  0  0  0  0  0  0  0  0  0  0
    7.4080  -16.6240   21.0621 C   0  0  0  0  0  0  0  0  0  0  0  0
    8.3271  -17.1550   21.7907 O   0  0  0  0  0  0  0  0  0  0  0  0
    7.4103  -15.2029   21.0813 N   0  0  0  0  0  0  0  0  0  0  0  0
    6.5031  -14.3498   20.3734 C   0  0  0  0  0  0  0  0  0  0  0  0
    7.4246  -13.2166   19.9289 C   0  0  0  0  0  0  0  0  0  0  0  0
    8.5110  -13.1587   20.9638 C   0  0  0  0  0  0  0  0  0  0  0  0
    8.2700  -14.3173   21.8208 C   0  0  1  0  0  0  0  0  0  0  0  0
    7.7688  -14.0153   23.1801 C   0  0  0  0  0  0  0  0  0  0  0  0
    7.0722  -12.9781   23.3067 O   0  0  0  0  0  0  0  0  0  0  0  0
    5.6124  -12.3251   26.8062 C   0  0  0  0  0  0  0  0  0  0  0  0
    6.4174  -13.2247   25.9344 C   0  0  0  0  0  0  0  0  0  0  0  0
    7.9079  -13.1984   26.1801 C   0  0  2  0  0  0  0  0  0  0  0  0
    8.4003  -11.8337   25.6954 C   0  0  0  0  0  0  0  0  0  0  0  0
    8.6462  -14.3239   25.5302 C   0  0  2  0  0  0  0  0  0  0  0  0
    8.0286  -14.8164   24.3274 N   0  0  0  0  0  0  0  0  0  0  0  0
    8.9224  -15.4397   26.4995 C   0  0  0  0  0  0  0  0  0  0  0  0
    9.6506  -15.3043   27.6561 O   0  0  0  0  0  0  0  0  0  0  0  0
    8.4651  -16.6119   26.2649 O   0  0  0  0  0  0  0  0  0  0  0  0
  1  2  1  0
  2  3  2  0
  4  2  1  0
  5  4  1  0
  5  6  1  1
  7  5  1  0
  7  8  2  0
  9  7  1  0
 10  9  1  0
 11 10  1  0
 12 11  1  0
 12 13  1  0
 13  9  1  0
 14 21  1  0
 13 14  1  1
 15 14  2  0
 17 16  1  0
 18 17  1  0
 18 19  1  6
 20 21  1  6
 20 18  1  0
 22 20  1  0
 23 22  1  0
 24 22  2  0
M  END
$$$$
