NPI.pdb
     RDKit          3D

 24 24  0  0  1  0  0  0  0  0999 V2000
   11.5219  -20.8856   20.2348 N   0  0  0  0  0  0  0  0  0  0  0  0
   10.4683  -19.9472   20.0851 C   0  0  0  0  0  0  0  0  0  0  0  0
    9.7016  -20.1019   19.0962 O   0  0  0  0  0  0  0  0  0  0  0  0
   10.2249  -18.8205   21.0086 C   0  0  0  0  0  0  0  0  0  0  0  0
   10.5655  -17.4900   20.3124 C   0  0  2  0  0  0  0  0  0  0  0  0
   11.9616  -17.5280   20.0666 N   0  0  0  0  0  0  0  0  0  0  0  0
   10.0239  -16.3954   21.0878 C   0  0  0  0  0  0  0  0  0  0  0  0
   10.8558  -15.7309   21.8118 O   0  0  0  0  0  0  0  0  0  0  0  0
    8.6845  -15.9292   21.1789 N   0  0  0  0  0  0  0  0  0  0  0  0
    7.5448  -16.5112   20.5351 C   0  0  0  0  0  0  0  0  0  0  0  0
    6.7510  -15.2720   20.1284 C   0  0  0  0  0  0  0  0  0  0  0  0
    7.1072  -14.2219   21.1408 C   0  0  0  0  0  0  0  0  0  0  0  0
    8.1694  -14.8244   21.9431 C   0  0  1  0  0  0  0  0  0  0  0  0
    7.7957  -15.1937   23.3267 C   0  0  0  0  0  0  0  0  0  0  0  0
    7.7647  -16.4202   23.5941 O   0  0  0  0  0  0  0  0  0  0  0  0
    5.6488  -11.6486   27.3679 C   0  0  0  0  0  0  0  0  0  0  0  0
    6.0241  -12.7518   26.4408 C   0  0  0  0  0  0  0  0  0  0  0  0
    7.4236  -13.2938   26.6146 C   0  0  2  0  0  0  0  0  0  0  0  0
    8.3742  -12.1263   26.3443 C   0  0  0  0  0  0  0  0  0  0  0  0
    7.7252  -14.4741   25.7485 C   0  0  2  0  0  0  0  0  0  0  0  0
    7.4746  -14.2563   24.3483 N   0  0  0  0  0  0  0  0  0  0  0  0
    7.0339  -15.7152   26.2412 C   0  0  0  0  0  0  0  0  0  0  0  0
    7.4401  -16.4550   27.3246 O   0  0  0  0  0  0  0  0  0  0  0  0
    5.9919  -16.1444   25.6344 O   0  0  0  0  0  0  0  0  0  0  0  0
  1  2  1  0
  2  3  2  0
  4  2  1  0
  5  4  1  0
  5  6  1  1
  7  5  1  0
  7  8  2  0
  9  7  1  0
 10  9  1  0
 11 10  1  0
 12 11  1  0
 12 13  1  0
 13  9  1  0
 14 21  1  0
 13 14  1  1
 15 14  2  0
 17 16  1  0
 18 17  1  0
 18 19  1  6
 20 21  1  6
 20 18  1  0
 22 20  1  0
 23 22  1  0
 24 22  2  0
M  END
$$$$
