AID.pdb
     RDKit          3D

 22 21  0  0  1  0  0  0  0  0999 V2000
    6.7550  -16.3094   20.9463 C   0  0  0  0  0  0  0  0  0  0  0  0
    6.7924  -14.8021   21.1247 C   0  0  2  0  0  0  0  0  0  0  0  0
    7.4886  -14.2285   19.9971 N   0  0  0  0  0  0  0  0  0  0  0  0
    7.6369  -14.5464   22.3465 C   0  0  0  0  0  0  0  0  0  0  0  0
    8.8567  -14.4656   22.1824 O   0  0  0  0  0  0  0  0  0  0  0  0
    5.6167  -11.4137   26.2616 C   0  0  0  0  0  0  0  0  0  0  0  0
    6.5859  -12.1145   25.3390 C   0  0  0  0  0  0  0  0  0  0  0  0
    7.0548  -13.4572   25.8804 C   0  0  2  0  0  0  0  0  0  0  0  0
    8.0349  -13.0619   26.9806 C   0  0  0  0  0  0  0  0  0  0  0  0
    7.8631  -14.1066   24.7953 C   0  0  2  0  0  0  0  0  0  0  0  0
    7.1032  -14.4030   23.6117 N   0  0  0  0  0  0  0  0  0  0  0  0
    8.4855  -15.3648   25.2030 C   0  0  0  0  0  0  0  0  0  0  0  0
    7.7169  -16.3932   25.3926 O   0  0  0  0  0  0  0  0  0  0  0  0
    9.8365  -15.6384   25.4241 N   0  0  0  0  0  0  0  0  0  0  0  0
   10.3339  -16.9671   25.8065 C   0  0  1  0  0  0  0  0  0  0  0  0
   11.7661  -17.0073   25.3775 C   0  0  0  0  0  0  0  0  0  0  0  0
   12.0071  -16.8919   23.9429 C   0  0  0  0  0  0  0  0  0  0  0  0
   11.2916  -17.5989   23.1779 O   0  0  0  0  0  0  0  0  0  0  0  0
   10.1477  -17.0622   27.2716 C   0  0  0  0  0  0  0  0  0  0  0  0
   10.0476  -16.0328   27.9791 O   0  0  0  0  0  0  0  0  0  0  0  0
   12.9433  -16.0853   23.3258 O   0  0  0  0  0  0  0  0  0  0  0  0
   10.0756  -18.2791   27.9277 O   0  0  0  0  0  0  0  0  0  0  0  0
  2  1  1  6
  2  3  1  0
  4  5  2  0
  4  2  1  0
  7  6  1  0
  7  8  1  0
  8 10  1  0
  8  9  1  1
 10 12  1  0
 10 11  1  6
 11  4  1  0
 12 13  2  0
 14 15  1  0
 14 12  1  0
 15 16  1  1
 16 17  1  0
 17 21  1  0
 18 17  2  0
 19 15  1  0
 20 19  2  0
 22 19  1  0
M  END
$$$$
