AID.pdb
     RDKit          3D

 22 21  0  0  1  0  0  0  0  0999 V2000
    7.0248  -16.7858   21.5294 C   0  0  0  0  0  0  0  0  0  0  0  0
    6.9069  -15.2733   21.5891 C   0  0  2  0  0  0  0  0  0  0  0  0
    7.5186  -14.7230   20.4024 N   0  0  0  0  0  0  0  0  0  0  0  0
    7.7417  -14.8348   22.7647 C   0  0  0  0  0  0  0  0  0  0  0  0
    8.9397  -14.6250   22.5590 O   0  0  0  0  0  0  0  0  0  0  0  0
    5.3486  -11.6766   26.4223 C   0  0  0  0  0  0  0  0  0  0  0  0
    6.4047  -12.3086   25.5466 C   0  0  0  0  0  0  0  0  0  0  0  0
    7.0742  -13.5099   26.1980 C   0  0  2  0  0  0  0  0  0  0  0  0
    8.0037  -12.8715   27.2254 C   0  0  0  0  0  0  0  0  0  0  0  0
    7.9510  -14.1391   25.1550 C   0  0  2  0  0  0  0  0  0  0  0  0
    7.2226  -14.6643   24.0325 N   0  0  0  0  0  0  0  0  0  0  0  0
    8.7640  -15.2426   25.6627 C   0  0  0  0  0  0  0  0  0  0  0  0
    8.1668  -16.3568   25.9566 O   0  0  0  0  0  0  0  0  0  0  0  0
   10.1419  -15.2811   25.8841 N   0  0  0  0  0  0  0  0  0  0  0  0
   10.8391  -16.4682   26.3979 C   0  0  1  0  0  0  0  0  0  0  0  0
   12.2599  -16.3345   25.9499 C   0  0  0  0  0  0  0  0  0  0  0  0
   12.5024  -16.5371   24.5252 C   0  0  0  0  0  0  0  0  0  0  0  0
   11.6320  -17.1844   23.8770 O   0  0  0  0  0  0  0  0  0  0  0  0
   10.6718  -16.4305   27.8679 C   0  0  0  0  0  0  0  0  0  0  0  0
   10.4521  -15.3518   28.4665 O   0  0  0  0  0  0  0  0  0  0  0  0
   13.5928  -16.0933   23.8026 O   0  0  0  0  0  0  0  0  0  0  0  0
   10.7486  -17.5718   28.6476 O   0  0  0  0  0  0  0  0  0  0  0  0
  2  1  1  6
  2  3  1  0
  4  5  2  0
  4  2  1  0
  7  6  1  0
  7  8  1  0
  8 10  1  0
  8  9  1  1
 10 12  1  0
 10 11  1  6
 11  4  1  0
 12 13  2  0
 14 15  1  0
 14 12  1  0
 15 16  1  1
 16 17  1  0
 17 21  1  0
 18 17  2  0
 19 15  1  0
 20 19  2  0
 22 19  1  0
M  END
$$$$
