AID.pdb
     RDKit          3D

 22 21  0  0  1  0  0  0  0  0999 V2000
    6.7367  -16.3703   21.1930 C   0  0  0  0  0  0  0  0  0  0  0  0
    6.9045  -14.8626   21.2549 C   0  0  2  0  0  0  0  0  0  0  0  0
    7.6805  -14.4447   20.1111 N   0  0  0  0  0  0  0  0  0  0  0  0
    7.7342  -14.5841   22.4818 C   0  0  0  0  0  0  0  0  0  0  0  0
    8.9600  -14.5767   22.3441 O   0  0  0  0  0  0  0  0  0  0  0  0
    5.9252  -11.2144   26.3478 C   0  0  0  0  0  0  0  0  0  0  0  0
    6.8942  -11.9849   25.4823 C   0  0  0  0  0  0  0  0  0  0  0  0
    7.1523  -13.3954   25.9919 C   0  0  2  0  0  0  0  0  0  0  0  0
    8.1083  -13.1705   27.1593 C   0  0  0  0  0  0  0  0  0  0  0  0
    7.9327  -14.1080   24.9262 C   0  0  2  0  0  0  0  0  0  0  0  0
    7.1812  -14.3429   23.7235 N   0  0  0  0  0  0  0  0  0  0  0  0
    8.4417  -15.4119   25.3472 C   0  0  0  0  0  0  0  0  0  0  0  0
    7.5836  -16.3598   25.5700 O   0  0  0  0  0  0  0  0  0  0  0  0
    9.7650  -15.8078   25.5500 N   0  0  0  0  0  0  0  0  0  0  0  0
   10.1428  -17.1715   25.9459 C   0  0  1  0  0  0  0  0  0  0  0  0
   11.4173  -17.4698   25.2221 C   0  0  0  0  0  0  0  0  0  0  0  0
   12.1080  -18.6917   25.6214 C   0  0  0  0  0  0  0  0  0  0  0  0
   11.4638  -19.7752   25.5328 O   0  0  0  0  0  0  0  0  0  0  0  0
   10.2871  -17.1396   27.4184 C   0  0  0  0  0  0  0  0  0  0  0  0
   10.5187  -16.0664   28.0225 O   0  0  0  0  0  0  0  0  0  0  0  0
   13.4032  -18.7913   26.0913 O   0  0  0  0  0  0  0  0  0  0  0  0
   10.1750  -18.2804   28.1946 O   0  0  0  0  0  0  0  0  0  0  0  0
  2  1  1  6
  2  3  1  0
  4  5  2  0
  4  2  1  0
  7  6  1  0
  7  8  1  0
  8 10  1  0
  8  9  1  1
 10 12  1  0
 10 11  1  6
 11  4  1  0
 12 13  2  0
 14 15  1  0
 14 12  1  0
 15 16  1  6
 16 17  1  0
 17 21  1  0
 18 17  2  0
 19 15  1  0
 20 19  2  0
 22 19  1  0
M  END
$$$$
