AID.pdb
     RDKit          3D

 22 21  0  0  1  0  0  0  0  0999 V2000
    6.7245  -16.2009   20.8665 C   0  0  0  0  0  0  0  0  0  0  0  0
    6.7813  -14.6943   21.0457 C   0  0  2  0  0  0  0  0  0  0  0  0
    7.4940  -14.1301   19.9236 N   0  0  0  0  0  0  0  0  0  0  0  0
    7.6197  -14.4504   22.2740 C   0  0  0  0  0  0  0  0  0  0  0  0
    8.8343  -14.3121   22.1097 O   0  0  0  0  0  0  0  0  0  0  0  0
    5.7380  -11.5179   26.4578 C   0  0  0  0  0  0  0  0  0  0  0  0
    6.6542  -12.1895   25.4622 C   0  0  0  0  0  0  0  0  0  0  0  0
    7.0490  -13.5995   25.8768 C   0  0  2  0  0  0  0  0  0  0  0  0
    8.0226  -13.3608   27.0267 C   0  0  0  0  0  0  0  0  0  0  0  0
    7.8494  -14.1782   24.7468 C   0  0  2  0  0  0  0  0  0  0  0  0
    7.0861  -14.3784   23.5453 N   0  0  0  0  0  0  0  0  0  0  0  0
    8.4562  -15.4702   25.0614 C   0  0  0  0  0  0  0  0  0  0  0  0
    7.6714  -16.4921   25.2164 O   0  0  0  0  0  0  0  0  0  0  0  0
    9.8071  -15.7834   25.2230 N   0  0  0  0  0  0  0  0  0  0  0  0
   10.2821  -17.1279   25.5779 C   0  0  1  0  0  0  0  0  0  0  0  0
   11.6708  -17.2289   25.0319 C   0  0  0  0  0  0  0  0  0  0  0  0
   11.8072  -17.0340   23.5922 C   0  0  0  0  0  0  0  0  0  0  0  0
   11.0393  -17.7019   22.8431 O   0  0  0  0  0  0  0  0  0  0  0  0
   10.2153  -17.2034   27.0544 C   0  0  0  0  0  0  0  0  0  0  0  0
   10.3766  -18.2917   27.6544 O   0  0  0  0  0  0  0  0  0  0  0  0
   12.6952  -16.1897   22.9544 O   0  0  0  0  0  0  0  0  0  0  0  0
    9.9738  -16.0887   27.8390 O   0  0  0  0  0  0  0  0  0  0  0  0
  2  1  1  6
  2  3  1  0
  4  5  2  0
  4  2  1  0
  7  6  1  0
  7  8  1  0
  8 10  1  0
  8  9  1  1
 10 12  1  0
 10 11  1  6
 11  4  1  0
 12 13  2  0
 14 15  1  0
 14 12  1  0
 15 16  1  1
 16 17  1  0
 17 21  1  0
 18 17  2  0
 19 15  1  0
 20 19  2  0
 22 19  1  0
M  END
$$$$
