AID.pdb
     RDKit          3D

 22 21  0  0  1  0  0  0  0  0999 V2000
    6.0773  -16.8131   21.4173 C   0  0  0  0  0  0  0  0  0  0  0  0
    6.2693  -15.3070   21.4120 C   0  0  2  0  0  0  0  0  0  0  0  0
    6.8910  -14.9330   20.1635 N   0  0  0  0  0  0  0  0  0  0  0  0
    7.2580  -15.0076   22.5092 C   0  0  0  0  0  0  0  0  0  0  0  0
    8.4560  -15.0823   22.2250 O   0  0  0  0  0  0  0  0  0  0  0  0
    5.7429  -11.4484   26.3285 C   0  0  0  0  0  0  0  0  0  0  0  0
    6.6637  -12.2010   25.3970 C   0  0  0  0  0  0  0  0  0  0  0  0
    7.1171  -13.5384   25.9639 C   0  0  2  0  0  0  0  0  0  0  0  0
    8.2207  -13.1427   26.9400 C   0  0  0  0  0  0  0  0  0  0  0  0
    7.7797  -14.2849   24.8431 C   0  0  2  0  0  0  0  0  0  0  0  0
    6.8765  -14.6608   23.7899 N   0  0  0  0  0  0  0  0  0  0  0  0
    8.4391  -15.5173   25.2706 C   0  0  0  0  0  0  0  0  0  0  0  0
    7.6932  -16.5102   25.6477 O   0  0  0  0  0  0  0  0  0  0  0  0
    9.8050  -15.7995   25.3331 N   0  0  0  0  0  0  0  0  0  0  0  0
   10.3352  -17.1268   25.6745 C   0  0  1  0  0  0  0  0  0  0  0  0
   11.6117  -17.2673   24.9078 C   0  0  0  0  0  0  0  0  0  0  0  0
   12.3760  -18.4852   25.1570 C   0  0  0  0  0  0  0  0  0  0  0  0
   11.7701  -19.4441   25.7139 O   0  0  0  0  0  0  0  0  0  0  0  0
   10.5194  -17.1230   27.1429 C   0  0  0  0  0  0  0  0  0  0  0  0
   10.7813  -16.0638   27.7593 O   0  0  0  0  0  0  0  0  0  0  0  0
   13.7042  -18.7038   24.8468 O   0  0  0  0  0  0  0  0  0  0  0  0
   10.4129  -18.2759   27.9018 O   0  0  0  0  0  0  0  0  0  0  0  0
  2  1  1  6
  2  3  1  0
  4  5  2  0
  4  2  1  0
  7  6  1  0
  7  8  1  0
  8 10  1  0
  8  9  1  1
 10 12  1  0
 10 11  1  6
 11  4  1  0
 12 13  2  0
 14 15  1  0
 14 12  1  0
 15 16  1  6
 16 17  1  0
 17 21  1  0
 18 17  2  0
 19 15  1  0
 20 19  2  0
 22 19  1  0
M  END
$$$$
