AID.pdb
     RDKit          3D

 22 21  0  0  1  0  0  0  0  0999 V2000
    8.4356  -19.4783   18.5773 C   0  0  0  0  0  0  0  0  0  0  0  0
    8.4834  -18.1134   17.9139 C   0  0  2  0  0  0  0  0  0  0  0  0
    9.4340  -18.1693   16.8284 N   0  0  0  0  0  0  0  0  0  0  0  0
    9.0403  -17.1664   18.9454 C   0  0  0  0  0  0  0  0  0  0  0  0
   10.2680  -17.0767   19.0246 O   0  0  0  0  0  0  0  0  0  0  0  0
    6.8797  -12.2132   20.0417 C   0  0  0  0  0  0  0  0  0  0  0  0
    7.8453  -13.3662   19.8997 C   0  0  0  0  0  0  0  0  0  0  0  0
    7.7520  -14.3625   21.0461 C   0  0  2  0  0  0  0  0  0  0  0  0
    8.3208  -13.5828   22.2275 C   0  0  0  0  0  0  0  0  0  0  0  0
    8.7264  -15.4640   20.7468 C   0  0  2  0  0  0  0  0  0  0  0  0
    8.2414  -16.4144   19.7835 N   0  0  0  0  0  0  0  0  0  0  0  0
    9.1110  -16.2405   21.9239 C   0  0  0  0  0  0  0  0  0  0  0  0
    8.2445  -17.0708   22.4180 O   0  0  0  0  0  0  0  0  0  0  0  0
   10.3199  -16.2255   22.6222 N   0  0  0  0  0  0  0  0  0  0  0  0
   10.5792  -17.0712   23.7955 C   0  0  1  0  0  0  0  0  0  0  0  0
   12.0544  -17.3178   23.8045 C   0  0  0  0  0  0  0  0  0  0  0  0
   12.6130  -17.8966   22.5869 C   0  0  0  0  0  0  0  0  0  0  0  0
   12.0486  -18.9292   22.1261 O   0  0  0  0  0  0  0  0  0  0  0  0
   10.0967  -16.3010   24.9635 C   0  0  0  0  0  0  0  0  0  0  0  0
    9.9530  -16.8456   26.0829 O   0  0  0  0  0  0  0  0  0  0  0  0
   13.7037  -17.4325   21.8778 O   0  0  0  0  0  0  0  0  0  0  0  0
    9.7831  -14.9552   24.8800 O   0  0  0  0  0  0  0  0  0  0  0  0
  2  1  1  1
  2  3  1  0
  4  5  2  0
  4  2  1  0
  7  6  1  0
  7  8  1  0
  8 10  1  0
  8  9  1  1
 10 12  1  0
 10 11  1  6
 11  4  1  0
 12 13  2  0
 14 15  1  0
 14 12  1  0
 15 16  1  1
 16 17  1  0
 17 21  1  0
 18 17  2  0
 19 15  1  0
 20 19  2  0
 22 19  1  0
M  END
$$$$
