AID.pdb
     RDKit          3D

 22 21  0  0  1  0  0  0  0  0999 V2000
    6.8149  -16.2769   21.0491 C   0  0  0  0  0  0  0  0  0  0  0  0
    6.8137  -14.7729   21.2572 C   0  0  2  0  0  0  0  0  0  0  0  0
    7.4818  -14.1586   20.1340 N   0  0  0  0  0  0  0  0  0  0  0  0
    7.6642  -14.5185   22.4749 C   0  0  0  0  0  0  0  0  0  0  0  0
    8.8776  -14.3850   22.2977 O   0  0  0  0  0  0  0  0  0  0  0  0
    5.8166  -11.5878   26.7009 C   0  0  0  0  0  0  0  0  0  0  0  0
    6.7622  -12.2316   25.7143 C   0  0  0  0  0  0  0  0  0  0  0  0
    7.1224  -13.6628   26.0854 C   0  0  2  0  0  0  0  0  0  0  0  0
    8.0923  -13.4836   27.2491 C   0  0  0  0  0  0  0  0  0  0  0  0
    7.9182  -14.2223   24.9426 C   0  0  2  0  0  0  0  0  0  0  0  0
    7.1429  -14.4318   23.7504 N   0  0  0  0  0  0  0  0  0  0  0  0
    8.5525  -15.5043   25.2439 C   0  0  0  0  0  0  0  0  0  0  0  0
    7.7871  -16.5354   25.4319 O   0  0  0  0  0  0  0  0  0  0  0  0
    9.9122  -15.7988   25.3607 N   0  0  0  0  0  0  0  0  0  0  0  0
   10.4173  -17.1375   25.6951 C   0  0  1  0  0  0  0  0  0  0  0  0
   11.8374  -17.1681   25.2269 C   0  0  0  0  0  0  0  0  0  0  0  0
   12.0336  -17.1708   23.7808 C   0  0  0  0  0  0  0  0  0  0  0  0
   11.1205  -17.6849   23.0746 O   0  0  0  0  0  0  0  0  0  0  0  0
   10.2704  -17.2702   27.1618 C   0  0  0  0  0  0  0  0  0  0  0  0
   10.0042  -18.3759   27.6878 O   0  0  0  0  0  0  0  0  0  0  0  0
   13.1217  -16.6672   23.0949 O   0  0  0  0  0  0  0  0  0  0  0  0
   10.4180  -16.1920   28.0175 O   0  0  0  0  0  0  0  0  0  0  0  0
  2  1  1  6
  2  3  1  0
  4  5  2  0
  4  2  1  0
  7  6  1  0
  7  8  1  0
  8 10  1  0
  8  9  1  1
 10 12  1  0
 10 11  1  6
 11  4  1  0
 12 13  2  0
 14 15  1  0
 14 12  1  0
 15 16  1  1
 16 17  1  0
 17 21  1  0
 18 17  2  0
 19 15  1  0
 20 19  2  0
 22 19  1  0
M  END
$$$$
