AID.pdb
     RDKit          3D

 22 21  0  0  1  0  0  0  0  0999 V2000
    6.5059  -16.3165   20.8978 C   0  0  0  0  0  0  0  0  0  0  0  0
    6.6990  -14.8195   21.0619 C   0  0  2  0  0  0  0  0  0  0  0  0
    7.4638  -14.3343   19.9373 N   0  0  0  0  0  0  0  0  0  0  0  0
    7.5520  -14.6402   22.2913 C   0  0  0  0  0  0  0  0  0  0  0  0
    8.7738  -14.5938   22.1284 O   0  0  0  0  0  0  0  0  0  0  0  0
    5.4804  -11.5835   26.2605 C   0  0  0  0  0  0  0  0  0  0  0  0
    6.4404  -12.2598   25.3103 C   0  0  0  0  0  0  0  0  0  0  0  0
    6.9532  -13.5932   25.8345 C   0  0  2  0  0  0  0  0  0  0  0  0
    7.9219  -13.1802   26.9382 C   0  0  0  0  0  0  0  0  0  0  0  0
    7.7801  -14.2029   24.7404 C   0  0  2  0  0  0  0  0  0  0  0  0
    7.0240  -14.5287   23.5620 N   0  0  0  0  0  0  0  0  0  0  0  0
    8.4607  -15.4337   25.1384 C   0  0  0  0  0  0  0  0  0  0  0  0
    7.7353  -16.4830   25.3775 O   0  0  0  0  0  0  0  0  0  0  0  0
    9.8284  -15.6603   25.3028 N   0  0  0  0  0  0  0  0  0  0  0  0
   10.3846  -16.9633   25.6927 C   0  0  1  0  0  0  0  0  0  0  0  0
   11.7803  -16.9901   25.1556 C   0  0  0  0  0  0  0  0  0  0  0  0
   11.9109  -16.8536   23.7086 C   0  0  0  0  0  0  0  0  0  0  0  0
   11.1554  -17.5676   22.9901 O   0  0  0  0  0  0  0  0  0  0  0  0
   10.3138  -17.0072   27.1703 C   0  0  0  0  0  0  0  0  0  0  0  0
   10.2463  -15.9542   27.8463 O   0  0  0  0  0  0  0  0  0  0  0  0
   12.7811  -16.0196   23.0337 O   0  0  0  0  0  0  0  0  0  0  0  0
   10.3186  -18.2000   27.8730 O   0  0  0  0  0  0  0  0  0  0  0  0
  2  1  1  6
  2  3  1  0
  4  5  2  0
  4  2  1  0
  7  6  1  0
  7  8  1  0
  8 10  1  0
  8  9  1  1
 10 12  1  0
 10 11  1  6
 11  4  1  0
 12 13  2  0
 14 15  1  0
 14 12  1  0
 15 16  1  1
 16 17  1  0
 17 21  1  0
 18 17  2  0
 19 15  1  0
 20 19  2  0
 22 19  1  0
M  END
$$$$
