AID.pdb
     RDKit          3D

 22 21  0  0  1  0  0  0  0  0999 V2000
    6.3885  -16.3387   21.0312 C   0  0  0  0  0  0  0  0  0  0  0  0
    6.6577  -14.8509   21.1703 C   0  0  2  0  0  0  0  0  0  0  0  0
    7.4448  -14.4240   20.0375 N   0  0  0  0  0  0  0  0  0  0  0  0
    7.5202  -14.6948   22.3962 C   0  0  0  0  0  0  0  0  0  0  0  0
    8.7362  -14.8443   22.2533 O   0  0  0  0  0  0  0  0  0  0  0  0
    5.6648  -11.3568   26.3081 C   0  0  0  0  0  0  0  0  0  0  0  0
    6.6602  -12.0591   25.4150 C   0  0  0  0  0  0  0  0  0  0  0  0
    7.0240  -13.4508   25.9117 C   0  0  2  0  0  0  0  0  0  0  0  0
    8.0168  -13.1674   27.0347 C   0  0  0  0  0  0  0  0  0  0  0  0
    7.7960  -14.1184   24.8114 C   0  0  2  0  0  0  0  0  0  0  0  0
    7.0068  -14.3971   23.6428 N   0  0  0  0  0  0  0  0  0  0  0  0
    8.3971  -15.3906   25.2074 C   0  0  0  0  0  0  0  0  0  0  0  0
    7.6049  -16.3811   25.4828 O   0  0  0  0  0  0  0  0  0  0  0  0
    9.7490  -15.7145   25.3352 N   0  0  0  0  0  0  0  0  0  0  0  0
   10.2214  -17.0569   25.7014 C   0  0  1  0  0  0  0  0  0  0  0  0
   11.4860  -17.2700   24.9318 C   0  0  0  0  0  0  0  0  0  0  0  0
   12.2045  -18.5086   25.2135 C   0  0  0  0  0  0  0  0  0  0  0  0
   11.6292  -19.3546   25.9553 O   0  0  0  0  0  0  0  0  0  0  0  0
   10.4137  -17.0314   27.1686 C   0  0  0  0  0  0  0  0  0  0  0  0
   10.7697  -15.9835   27.7562 O   0  0  0  0  0  0  0  0  0  0  0  0
   13.4587  -18.8580   24.7522 O   0  0  0  0  0  0  0  0  0  0  0  0
   10.2125  -18.1511   27.9575 O   0  0  0  0  0  0  0  0  0  0  0  0
  2  1  1  6
  2  3  1  0
  4  5  2  0
  4  2  1  0
  7  6  1  0
  7  8  1  0
  8 10  1  0
  8  9  1  1
 10 12  1  0
 10 11  1  6
 11  4  1  0
 12 13  2  0
 14 15  1  0
 14 12  1  0
 15 16  1  6
 16 17  1  0
 17 21  1  0
 18 17  2  0
 19 15  1  0
 20 19  2  0
 22 19  1  0
M  END
$$$$
