AID.pdb
     RDKit          3D

 22 21  0  0  1  0  0  0  0  0999 V2000
    6.7197  -16.6163   21.5046 C   0  0  0  0  0  0  0  0  0  0  0  0
    6.8088  -15.1015   21.5566 C   0  0  2  0  0  0  0  0  0  0  0  0
    7.5048  -14.6469   20.3758 N   0  0  0  0  0  0  0  0  0  0  0  0
    7.6809  -14.7742   22.7413 C   0  0  0  0  0  0  0  0  0  0  0  0
    8.8984  -14.7259   22.5494 O   0  0  0  0  0  0  0  0  0  0  0  0
    5.8968  -11.2998   26.5128 C   0  0  0  0  0  0  0  0  0  0  0  0
    6.8307  -12.0901   25.6267 C   0  0  0  0  0  0  0  0  0  0  0  0
    7.1931  -13.4485   26.2092 C   0  0  2  0  0  0  0  0  0  0  0  0
    8.1867  -13.0967   27.3119 C   0  0  0  0  0  0  0  0  0  0  0  0
    7.9639  -14.1844   25.1524 C   0  0  2  0  0  0  0  0  0  0  0  0
    7.1744  -14.5324   24.0026 N   0  0  0  0  0  0  0  0  0  0  0  0
    8.5616  -15.4313   25.6261 C   0  0  0  0  0  0  0  0  0  0  0  0
    7.7688  -16.4161   25.9191 O   0  0  0  0  0  0  0  0  0  0  0  0
    9.9111  -15.7355   25.8145 N   0  0  0  0  0  0  0  0  0  0  0  0
   10.3778  -17.0334   26.3213 C   0  0  1  0  0  0  0  0  0  0  0  0
   11.7401  -17.2350   25.7378 C   0  0  0  0  0  0  0  0  0  0  0  0
   11.8013  -17.3569   24.2849 C   0  0  0  0  0  0  0  0  0  0  0  0
   10.8681  -17.9933   23.7184 O   0  0  0  0  0  0  0  0  0  0  0  0
   10.3728  -16.9166   27.7966 C   0  0  0  0  0  0  0  0  0  0  0  0
   10.2607  -17.9299   28.5253 O   0  0  0  0  0  0  0  0  0  0  0  0
   12.7803  -16.8467   23.4546 O   0  0  0  0  0  0  0  0  0  0  0  0
   10.4903  -15.6962   28.4395 O   0  0  0  0  0  0  0  0  0  0  0  0
  2  1  1  6
  2  3  1  0
  4  5  2  0
  4  2  1  0
  7  6  1  0
  7  8  1  0
  8 10  1  0
  8  9  1  1
 10 12  1  0
 10 11  1  6
 11  4  1  0
 12 13  2  0
 14 15  1  0
 14 12  1  0
 15 16  1  6
 16 17  1  0
 17 21  1  0
 18 17  2  0
 19 15  1  0
 20 19  2  0
 22 19  1  0
M  END
$$$$
