NKI.pdb
     RDKit          3D

 26 25  0  0  1  0  0  0  0  0999 V2000
    7.8643  -12.4059   17.1702 N   0  0  0  0  0  0  0  0  0  0  0  0
    8.6539  -13.0635   18.1424 C   0  0  0  0  0  0  0  0  0  0  0  0
    9.8340  -13.3643   17.8503 O   0  0  0  0  0  0  0  0  0  0  0  0
    8.0722  -13.3754   19.4636 C   0  0  0  0  0  0  0  0  0  0  0  0
    7.9446  -14.8520   19.6092 C   0  0  2  0  0  0  0  0  0  0  0  0
    7.0743  -15.4245   18.6093 N   0  0  0  0  0  0  0  0  0  0  0  0
    7.5678  -15.3224   20.9324 C   0  0  0  0  0  0  0  0  0  0  0  0
    6.4854  -14.9159   21.4269 O   0  0  0  0  0  0  0  0  0  0  0  0
    8.3765  -16.2341   21.7063 N   0  0  0  0  0  0  0  0  0  0  0  0
    7.9399  -16.7619   22.9788 C   0  0  1  0  0  0  0  0  0  0  0  0
    8.4511  -18.1751   23.2028 C   0  0  0  0  0  0  0  0  0  0  0  0
    7.7704  -19.1440   22.2323 C   0  0  0  0  0  0  0  0  0  0  0  0
    8.3855  -20.5345   22.3815 C   0  0  0  0  0  0  0  0  0  0  0  0
    7.6836  -21.5305   21.4867 C   0  0  0  0  0  0  0  0  0  0  0  0
    8.2603  -22.8225   21.7095 N   0  0  0  0  0  0  0  0  0  0  0  0
    8.5085  -15.9342   24.0826 C   0  0  0  0  0  0  0  0  0  0  0  0
    9.7036  -15.5446   23.9467 O   0  0  0  0  0  0  0  0  0  0  0  0
    5.9835  -11.8506   26.0989 C   0  0  0  0  0  0  0  0  0  0  0  0
    7.0032  -12.8564   25.6911 C   0  0  0  0  0  0  0  0  0  0  0  0
    7.5541  -13.7232   26.7435 C   0  0  2  0  0  0  0  0  0  0  0  0
    8.0680  -13.0071   27.9752 C   0  0  0  0  0  0  0  0  0  0  0  0
    8.4593  -14.7969   26.2871 C   0  0  2  0  0  0  0  0  0  0  0  0
    7.7836  -15.5869   25.2269 N   0  0  0  0  0  0  0  0  0  0  0  0
    8.9351  -15.7741   27.2561 C   0  0  0  0  0  0  0  0  0  0  0  0
    8.4075  -16.8971   27.3714 O   0  0  0  0  0  0  0  0  0  0  0  0
   10.0043  -15.5149   28.1094 O   0  0  0  0  0  0  0  0  0  0  0  0
  2  1  1  0
  2  3  2  0
  4  2  1  0
  5  4  1  0
  5  6  1  6
  7  5  1  0
  7  8  2  0
  9  7  1  0
 10  9  1  0
 10 11  1  1
 11 12  1  0
 13 12  1  0
 13 14  1  0
 15 14  1  0
 16 10  1  0
 17 16  2  0
 18 19  1  0
 19 20  1  0
 20 21  1  1
 22 20  1  0
 22 23  1  6
 23 16  1  0
 24 22  1  0
 25 24  2  0
 26 24  1  0
M  END
$$$$
