NKI.pdb
     RDKit          3D

 26 25  0  0  1  0  0  0  0  0999 V2000
   10.4985  -21.9373   20.4835 N   0  0  0  0  0  0  0  0  0  0  0  0
    9.6630  -20.8042   20.3459 C   0  0  0  0  0  0  0  0  0  0  0  0
    8.4529  -20.9827   20.0767 O   0  0  0  0  0  0  0  0  0  0  0  0
   10.2333  -19.4532   20.5215 C   0  0  0  0  0  0  0  0  0  0  0  0
    9.4619  -18.7252   21.5668 C   0  0  2  0  0  0  0  0  0  0  0  0
    8.0373  -18.7988   21.3425 N   0  0  0  0  0  0  0  0  0  0  0  0
    9.8637  -17.3472   21.7985 C   0  0  0  0  0  0  0  0  0  0  0  0
   11.0764  -17.1076   22.0296 O   0  0  0  0  0  0  0  0  0  0  0  0
    8.9375  -16.2401   21.7760 N   0  0  0  0  0  0  0  0  0  0  0  0
    9.3665  -14.8722   21.9588 C   0  0  1  0  0  0  0  0  0  0  0  0
    8.4949  -13.9039   21.1769 C   0  0  0  0  0  0  0  0  0  0  0  0
    8.6171  -14.1763   19.6753 C   0  0  0  0  0  0  0  0  0  0  0  0
    7.7350  -13.1961   18.9039 C   0  0  0  0  0  0  0  0  0  0  0  0
    7.7807  -13.4860   17.4208 C   0  0  0  0  0  0  0  0  0  0  0  0
    6.9262  -12.5514   16.7515 N   0  0  0  0  0  0  0  0  0  0  0  0
    9.2236  -14.4934   23.3951 C   0  0  0  0  0  0  0  0  0  0  0  0
    9.6081  -13.3339   23.7208 O   0  0  0  0  0  0  0  0  0  0  0  0
    5.7884  -12.2365   25.7085 C   0  0  0  0  0  0  0  0  0  0  0  0
    7.1273  -12.8684   25.5482 C   0  0  0  0  0  0  0  0  0  0  0  0
    7.2687  -14.2674   25.9784 C   0  0  2  0  0  0  0  0  0  0  0  0
    6.6856  -14.5936   27.3377 C   0  0  0  0  0  0  0  0  0  0  0  0
    8.5965  -14.8773   25.7647 C   0  0  2  0  0  0  0  0  0  0  0  0
    8.6943  -15.3540   24.3619 N   0  0  0  0  0  0  0  0  0  0  0  0
    8.9897  -16.0116   26.5888 C   0  0  0  0  0  0  0  0  0  0  0  0
    9.0347  -15.9376   27.8319 O   0  0  0  0  0  0  0  0  0  0  0  0
    9.3378  -17.2432   26.0408 O   0  0  0  0  0  0  0  0  0  0  0  0
  2  1  1  0
  2  3  2  0
  4  2  1  0
  5  4  1  0
  5  6  1  6
  7  5  1  0
  7  8  2  0
  9  7  1  0
 10  9  1  0
 10 11  1  6
 11 12  1  0
 13 12  1  0
 13 14  1  0
 15 14  1  0
 16 10  1  0
 17 16  2  0
 18 19  1  0
 19 20  1  0
 20 21  1  1
 22 20  1  0
 22 23  1  6
 23 16  1  0
 24 22  1  0
 25 24  2  0
 26 24  1  0
M  END
$$$$
