NKI.pdb
     RDKit          3D

 26 25  0  0  1  0  0  0  0  0999 V2000
    8.2105  -12.3341   17.7366 N   0  0  0  0  0  0  0  0  0  0  0  0
    7.6668  -13.6372   17.8223 C   0  0  0  0  0  0  0  0  0  0  0  0
    7.7583  -14.3899   16.8254 O   0  0  0  0  0  0  0  0  0  0  0  0
    7.0119  -14.0724   19.0724 C   0  0  0  0  0  0  0  0  0  0  0  0
    8.0315  -14.6644   19.9822 C   0  0  2  0  0  0  0  0  0  0  0  0
    8.7826  -15.7201   19.3446 N   0  0  0  0  0  0  0  0  0  0  0  0
    7.5371  -15.1095   21.2750 C   0  0  0  0  0  0  0  0  0  0  0  0
    6.8893  -14.2952   21.9812 O   0  0  0  0  0  0  0  0  0  0  0  0
    7.7537  -16.4416   21.7875 N   0  0  0  0  0  0  0  0  0  0  0  0
    7.3104  -16.8431   23.1031 C   0  0  1  0  0  0  0  0  0  0  0  0
    7.5608  -18.3212   23.3503 C   0  0  0  0  0  0  0  0  0  0  0  0
    7.0964  -18.7084   24.7569 C   0  0  0  0  0  0  0  0  0  0  0  0
    7.3168  -20.2043   24.9750 C   0  0  0  0  0  0  0  0  0  0  0  0
    6.8192  -20.6268   26.3386 C   0  0  0  0  0  0  0  0  0  0  0  0
    6.9256  -22.0517   26.4367 N   0  0  0  0  0  0  0  0  0  0  0  0
    8.0957  -16.1094   24.1384 C   0  0  0  0  0  0  0  0  0  0  0  0
    9.3555  -16.1726   24.0507 O   0  0  0  0  0  0  0  0  0  0  0  0
    6.3249  -11.3652   25.6944 C   0  0  0  0  0  0  0  0  0  0  0  0
    7.1743  -12.5391   25.3508 C   0  0  0  0  0  0  0  0  0  0  0  0
    7.6886  -13.3488   26.4654 C   0  0  2  0  0  0  0  0  0  0  0  0
    8.4234  -12.5809   27.5445 C   0  0  0  0  0  0  0  0  0  0  0  0
    8.3719  -14.6031   26.0904 C   0  0  2  0  0  0  0  0  0  0  0  0
    7.5006  -15.3770   25.1703 N   0  0  0  0  0  0  0  0  0  0  0  0
    8.7538  -15.5364   27.1408 C   0  0  0  0  0  0  0  0  0  0  0  0
    7.9580  -16.3839   27.5893 O   0  0  0  0  0  0  0  0  0  0  0  0
   10.0262  -15.5393   27.7059 O   0  0  0  0  0  0  0  0  0  0  0  0
  2  1  1  0
  2  3  2  0
  4  2  1  0
  5  4  1  0
  5  6  1  6
  7  5  1  0
  7  8  2  0
  9  7  1  0
 10  9  1  0
 10 11  1  1
 11 12  1  0
 13 12  1  0
 13 14  1  0
 15 14  1  0
 16 10  1  0
 17 16  2  0
 18 19  1  0
 19 20  1  0
 20 21  1  6
 22 20  1  0
 22 23  1  6
 23 16  1  0
 24 22  1  0
 25 24  2  0
 26 24  1  0
M  END
$$$$
