NKI.pdb
     RDKit          3D

 26 25  0  0  1  0  0  0  0  0999 V2000
    9.2487  -14.2123   17.5265 N   0  0  0  0  0  0  0  0  0  0  0  0
    7.9932  -13.6266   17.8123 C   0  0  0  0  0  0  0  0  0  0  0  0
    7.4814  -12.8643   16.9606 O   0  0  0  0  0  0  0  0  0  0  0  0
    7.3249  -13.9260   19.0948 C   0  0  0  0  0  0  0  0  0  0  0  0
    8.2109  -14.7919   19.9214 C   0  0  2  0  0  0  0  0  0  0  0  0
    8.6655  -15.9551   19.1964 N   0  0  0  0  0  0  0  0  0  0  0  0
    7.6766  -15.1833   21.2157 C   0  0  0  0  0  0  0  0  0  0  0  0
    7.0049  -14.3420   21.8657 O   0  0  0  0  0  0  0  0  0  0  0  0
    7.8800  -16.4916   21.7912 N   0  0  0  0  0  0  0  0  0  0  0  0
    7.3655  -16.8495   23.0933 C   0  0  1  0  0  0  0  0  0  0  0  0
    7.5779  -18.3240   23.3922 C   0  0  0  0  0  0  0  0  0  0  0  0
    6.9979  -18.6744   24.7651 C   0  0  0  0  0  0  0  0  0  0  0  0
    7.1380  -20.1756   25.0120 C   0  0  0  0  0  0  0  0  0  0  0  0
    6.5301  -20.5597   26.3418 C   0  0  0  0  0  0  0  0  0  0  0  0
    6.7939  -21.9481   26.5748 N   0  0  0  0  0  0  0  0  0  0  0  0
    8.1114  -16.1002   24.1464 C   0  0  0  0  0  0  0  0  0  0  0  0
    9.3690  -16.0470   24.0271 O   0  0  0  0  0  0  0  0  0  0  0  0
    5.7401  -11.7782   26.2985 C   0  0  0  0  0  0  0  0  0  0  0  0
    6.7269  -12.7518   25.7547 C   0  0  0  0  0  0  0  0  0  0  0  0
    7.4612  -13.5799   26.7229 C   0  0  2  0  0  0  0  0  0  0  0  0
    8.1539  -12.8217   27.8362 C   0  0  0  0  0  0  0  0  0  0  0  0
    8.3029  -14.6495   26.1501 C   0  0  2  0  0  0  0  0  0  0  0  0
    7.4826  -15.4744   25.2274 N   0  0  0  0  0  0  0  0  0  0  0  0
    8.9454  -15.5964   27.0506 C   0  0  0  0  0  0  0  0  0  0  0  0
    8.4014  -16.6697   27.3742 O   0  0  0  0  0  0  0  0  0  0  0  0
   10.2018  -15.3616   27.6027 O   0  0  0  0  0  0  0  0  0  0  0  0
  2  1  1  0
  2  3  2  0
  4  2  1  0
  5  4  1  0
  5  6  1  6
  7  5  1  0
  7  8  2  0
  9  7  1  0
 10  9  1  0
 10 11  1  1
 11 12  1  0
 13 12  1  0
 13 14  1  0
 15 14  1  0
 16 10  1  0
 17 16  2  0
 18 19  1  0
 19 20  1  0
 20 21  1  6
 22 20  1  0
 22 23  1  6
 23 16  1  0
 24 22  1  0
 25 24  2  0
 26 24  1  0
M  END
$$$$
