NKI.pdb
     RDKit          3D

 26 25  0  0  1  0  0  0  0  0999 V2000
   14.6604  -13.3328   19.0131 N   0  0  0  0  0  0  0  0  0  0  0  0
   13.9331  -14.5370   18.8657 C   0  0  0  0  0  0  0  0  0  0  0  0
   14.5689  -15.6015   18.6886 O   0  0  0  0  0  0  0  0  0  0  0  0
   12.4577  -14.5086   18.9237 C   0  0  0  0  0  0  0  0  0  0  0  0
   11.9928  -15.3616   20.0525 C   0  0  2  0  0  0  0  0  0  0  0  0
   12.2216  -16.7655   19.8041 N   0  0  0  0  0  0  0  0  0  0  0  0
   10.6204  -15.1440   20.4805 C   0  0  0  0  0  0  0  0  0  0  0  0
   10.2723  -13.9807   20.8078 O   0  0  0  0  0  0  0  0  0  0  0  0
    9.6375  -16.1991   20.5479 N   0  0  0  0  0  0  0  0  0  0  0  0
    8.2637  -15.9503   20.9213 C   0  0  1  0  0  0  0  0  0  0  0  0
    7.3442  -17.0607   20.4416 C   0  0  0  0  0  0  0  0  0  0  0  0
    5.9201  -16.8260   20.9523 C   0  0  0  0  0  0  0  0  0  0  0  0
    4.9979  -17.9205   20.4181 C   0  0  0  0  0  0  0  0  0  0  0  0
    3.5886  -17.7329   20.9321 C   0  0  0  0  0  0  0  0  0  0  0  0
    2.7791  -18.8034   20.4318 N   0  0  0  0  0  0  0  0  0  0  0  0
    8.1484  -15.9286   22.4090 C   0  0  0  0  0  0  0  0  0  0  0  0
    7.0786  -15.4587   22.8920 O   0  0  0  0  0  0  0  0  0  0  0  0
    5.9934  -18.4050   25.3549 C   0  0  0  0  0  0  0  0  0  0  0  0
    6.8390  -17.3103   24.8035 C   0  0  0  0  0  0  0  0  0  0  0  0
    8.2038  -17.1793   25.3350 C   0  0  2  0  0  0  0  0  0  0  0  0
    8.3209  -17.2062   26.8449 C   0  0  0  0  0  0  0  0  0  0  0  0
    9.0400  -16.1317   24.7154 C   0  0  2  0  0  0  0  0  0  0  0  0
    9.1551  -16.3971   23.2590 N   0  0  0  0  0  0  0  0  0  0  0  0
   10.4061  -15.9526   25.1868 C   0  0  0  0  0  0  0  0  0  0  0  0
   10.6571  -15.5463   26.3377 O   0  0  0  0  0  0  0  0  0  0  0  0
   11.5108  -16.2234   24.3839 O   0  0  0  0  0  0  0  0  0  0  0  0
  2  1  1  0
  2  3  2  0
  4  2  1  0
  5  4  1  0
  5  6  1  6
  7  5  1  0
  7  8  2  0
  9  7  1  0
 10  9  1  0
 10 11  1  1
 11 12  1  0
 13 12  1  0
 13 14  1  0
 15 14  1  0
 16 10  1  0
 17 16  2  0
 18 19  1  0
 19 20  1  0
 20 21  1  1
 22 20  1  0
 22 23  1  6
 23 16  1  0
 24 22  1  0
 25 24  2  0
 26 24  1  0
M  END
$$$$
