NKI.pdb
     RDKit          3D

 26 25  0  0  1  0  0  0  0  0999 V2000
    8.1359  -12.3387   17.6842 N   0  0  0  0  0  0  0  0  0  0  0  0
    7.7868  -13.7040   17.8067 C   0  0  0  0  0  0  0  0  0  0  0  0
    8.0294  -14.4715   16.8472 O   0  0  0  0  0  0  0  0  0  0  0  0
    7.1517  -14.1847   19.0504 C   0  0  0  0  0  0  0  0  0  0  0  0
    8.1932  -14.7650   19.9427 C   0  0  2  0  0  0  0  0  0  0  0  0
    8.9713  -15.7849   19.2798 N   0  0  0  0  0  0  0  0  0  0  0  0
    7.7191  -15.2508   21.2285 C   0  0  0  0  0  0  0  0  0  0  0  0
    6.9575  -14.5124   21.9040 O   0  0  0  0  0  0  0  0  0  0  0  0
    8.0804  -16.5403   21.7677 N   0  0  0  0  0  0  0  0  0  0  0  0
    7.6141  -16.9947   23.0578 C   0  0  1  0  0  0  0  0  0  0  0  0
    7.9596  -18.4552   23.2944 C   0  0  0  0  0  0  0  0  0  0  0  0
    7.6840  -18.8347   24.7518 C   0  0  0  0  0  0  0  0  0  0  0  0
    6.3276  -19.5306   24.8518 C   0  0  0  0  0  0  0  0  0  0  0  0
    6.0434  -19.9500   26.2762 C   0  0  0  0  0  0  0  0  0  0  0  0
    6.7940  -21.1375   26.5556 N   0  0  0  0  0  0  0  0  0  0  0  0
    8.3021  -16.2248   24.1352 C   0  0  0  0  0  0  0  0  0  0  0  0
    9.5290  -15.9727   23.9624 O   0  0  0  0  0  0  0  0  0  0  0  0
    6.0181  -11.9508   26.0368 C   0  0  0  0  0  0  0  0  0  0  0  0
    7.0037  -12.9941   25.6398 C   0  0  0  0  0  0  0  0  0  0  0  0
    7.5646  -13.8337   26.7088 C   0  0  2  0  0  0  0  0  0  0  0  0
    8.1544  -13.0838   27.8852 C   0  0  0  0  0  0  0  0  0  0  0  0
    8.4103  -14.9610   26.2675 C   0  0  2  0  0  0  0  0  0  0  0  0
    7.6527  -15.7872   25.2938 N   0  0  0  0  0  0  0  0  0  0  0  0
    8.9104  -15.8968   27.2648 C   0  0  0  0  0  0  0  0  0  0  0  0
    8.2456  -16.8847   27.6320 O   0  0  0  0  0  0  0  0  0  0  0  0
   10.1568  -15.7459   27.8665 O   0  0  0  0  0  0  0  0  0  0  0  0
  2  1  1  0
  2  3  2  0
  4  2  1  0
  5  4  1  0
  5  6  1  6
  7  5  1  0
  7  8  2  0
  9  7  1  0
 10  9  1  0
 10 11  1  1
 11 12  1  0
 13 12  1  0
 13 14  1  0
 15 14  1  0
 16 10  1  0
 17 16  2  0
 18 19  1  0
 19 20  1  0
 20 21  1  1
 22 20  1  0
 22 23  1  6
 23 16  1  0
 24 22  1  0
 25 24  2  0
 26 24  1  0
M  END
$$$$
