SAA.pdb
     RDKit          3D

 17 16  0  0  1  0  0  0  0  0999 V2000
   15.9186   -8.7002  -13.6912 O   0  0  0  0  0  0  0  0  0  0  0  0
   15.5690   -9.0372  -12.4054 C   0  0  0  0  0  0  0  0  0  0  0  0
   16.7428   -9.3449  -11.5216 C   0  0  2  0  0  0  0  0  0  0  0  0
   16.3250   -9.6737  -10.1753 N   0  0  0  0  0  0  0  0  0  0  0  0
   17.7897   -8.3165  -11.5423 C   0  0  0  0  0  0  0  0  0  0  0  0
   17.7105   -7.2161  -10.9402 O   0  0  0  0  0  0  0  0  0  0  0  0
   21.2483   -8.3046  -12.9517 C   0  0  0  0  0  0  0  0  0  0  0  0
   19.9805   -7.5889  -12.5520 C   0  0  2  0  0  0  0  0  0  0  0  0
   18.9722   -8.5629  -12.2831 N   0  0  0  0  0  0  0  0  0  0  0  0
   19.5597   -6.5771  -13.5513 C   0  0  0  0  0  0  0  0  0  0  0  0
   18.9210   -6.9355  -14.5738 O   0  0  0  0  0  0  0  0  0  0  0  0
   18.6563   -3.0653  -13.8361 C   0  0  0  0  0  0  0  0  0  0  0  0
   19.4186   -4.2119  -14.4056 C   0  0  2  0  0  0  0  0  0  0  0  0
   19.8357   -5.1868  -13.4319 N   0  0  0  0  0  0  0  0  0  0  0  0
   20.5531   -3.7172  -15.2257 C   0  0  0  0  0  0  0  0  0  0  0  0
   21.7188   -3.7249  -14.7568 O   0  0  0  0  0  0  0  0  0  0  0  0
   20.3660   -3.2424  -16.5046 O   0  0  0  0  0  0  0  0  0  0  0  0
  1  2  1  0
  3  2  1  0
  3  4  1  1
  5  3  1  0
  6  5  2  0
  8  7  1  6
  8  9  1  0
  9  5  1  0
 10  8  1  0
 10 14  1  0
 11 10  2  0
 13 12  1  1
 13 14  1  0
 13 15  1  0
 15 17  1  0
 16 15  2  0
M  END
$$$$
