SAA.pdb
     RDKit          3D

 17 16  0  0  1  0  0  0  0  0999 V2000
   15.7767  -10.7662  -13.5133 O   0  0  0  0  0  0  0  0  0  0  0  0
   15.6554   -9.6896  -14.3592 C   0  0  0  0  0  0  0  0  0  0  0  0
   16.3510   -9.8756  -15.6765 C   0  0  2  0  0  0  0  0  0  0  0  0
   16.6424  -11.2699  -15.9335 N   0  0  0  0  0  0  0  0  0  0  0  0
   17.5306   -9.0203  -15.8531 C   0  0  0  0  0  0  0  0  0  0  0  0
   18.7142   -9.4431  -15.8623 O   0  0  0  0  0  0  0  0  0  0  0  0
   17.7650   -5.3806  -16.7117 C   0  0  0  0  0  0  0  0  0  0  0  0
   18.3866   -6.6928  -16.2985 C   0  0  2  0  0  0  0  0  0  0  0  0
   17.3420   -7.6266  -16.0257 N   0  0  0  0  0  0  0  0  0  0  0  0
   19.3394   -6.5408  -15.1722 C   0  0  0  0  0  0  0  0  0  0  0  0
   18.9153   -6.5511  -13.9882 O   0  0  0  0  0  0  0  0  0  0  0  0
   22.9775   -6.9369  -14.4757 C   0  0  0  0  0  0  0  0  0  0  0  0
   21.6640   -6.2740  -14.2400 C   0  0  2  0  0  0  0  0  0  0  0  0
   20.7425   -6.3791  -15.3410 N   0  0  0  0  0  0  0  0  0  0  0  0
   21.8687   -4.8672  -13.8121 C   0  0  0  0  0  0  0  0  0  0  0  0
   22.5312   -4.6151  -12.7745 O   0  0  0  0  0  0  0  0  0  0  0  0
   21.3474   -3.8122  -14.5271 O   0  0  0  0  0  0  0  0  0  0  0  0
  1  2  1  0
  3  2  1  0
  3  4  1  1
  5  3  1  0
  6  5  2  0
  8  7  1  1
  8  9  1  0
  9  5  1  0
 10  8  1  0
 10 14  1  0
 11 10  2  0
 13 12  1  6
 13 14  1  0
 13 15  1  0
 15 17  1  0
 16 15  2  0
M  END
$$$$
