SAA.pdb
     RDKit          3D

 17 16  0  0  1  0  0  0  0  0999 V2000
   22.3538   -9.4357  -18.7405 O   0  0  0  0  0  0  0  0  0  0  0  0
   21.5522   -8.4639  -18.1908 C   0  0  0  0  0  0  0  0  0  0  0  0
   21.2072   -8.7096  -16.7506 C   0  0  2  0  0  0  0  0  0  0  0  0
   20.3435   -9.8612  -16.5981 N   0  0  0  0  0  0  0  0  0  0  0  0
   20.6854   -7.5284  -16.0532 C   0  0  0  0  0  0  0  0  0  0  0  0
   19.5088   -7.1021  -16.1696 O   0  0  0  0  0  0  0  0  0  0  0  0
   22.1804   -5.4842  -13.3087 C   0  0  0  0  0  0  0  0  0  0  0  0
   21.1600   -5.6842  -14.4032 C   0  0  2  0  0  0  0  0  0  0  0  0
   21.5492   -6.8103  -15.1894 N   0  0  0  0  0  0  0  0  0  0  0  0
   20.9441   -4.4586  -15.2099 C   0  0  0  0  0  0  0  0  0  0  0  0
   21.7518   -4.1631  -16.1274 O   0  0  0  0  0  0  0  0  0  0  0  0
   18.2725   -1.8335  -15.7567 C   0  0  0  0  0  0  0  0  0  0  0  0
   19.6621   -2.3702  -15.7921 C   0  0  2  0  0  0  0  0  0  0  0  0
   19.8543   -3.5657  -15.0135 N   0  0  0  0  0  0  0  0  0  0  0  0
   20.6328   -1.3054  -15.4341 C   0  0  0  0  0  0  0  0  0  0  0  0
   20.9169   -0.4074  -16.2658 O   0  0  0  0  0  0  0  0  0  0  0  0
   21.2420   -1.2695  -14.1998 O   0  0  0  0  0  0  0  0  0  0  0  0
  1  2  1  0
  3  2  1  0
  3  4  1  6
  5  3  1  0
  6  5  2  0
  8  7  1  1
  8  9  1  0
  9  5  1  0
 10  8  1  0
 10 14  1  0
 11 10  2  0
 13 12  1  1
 13 14  1  0
 13 15  1  0
 15 17  1  0
 16 15  2  0
M  END
$$$$
