SAA.pdb
     RDKit          3D

 17 16  0  0  1  0  0  0  0  0999 V2000
   17.6417  -11.6225  -16.7694 O   0  0  0  0  0  0  0  0  0  0  0  0
   18.0984  -11.7871  -15.4836 C   0  0  0  0  0  0  0  0  0  0  0  0
   17.8916  -10.5832  -14.6109 C   0  0  2  0  0  0  0  0  0  0  0  0
   16.4865  -10.2721  -14.4556 N   0  0  0  0  0  0  0  0  0  0  0  0
   18.6780   -9.4119  -15.0156 C   0  0  0  0  0  0  0  0  0  0  0  0
   19.9316   -9.3999  -15.1055 O   0  0  0  0  0  0  0  0  0  0  0  0
   17.5832   -6.1365  -16.4361 C   0  0  0  0  0  0  0  0  0  0  0  0
   18.6278   -7.0152  -15.7913 C   0  0  2  0  0  0  0  0  0  0  0  0
   17.9971   -8.2093  -15.3288 N   0  0  0  0  0  0  0  0  0  0  0  0
   19.3872   -6.3102  -14.7301 C   0  0  0  0  0  0  0  0  0  0  0  0
   18.8939   -6.1954  -13.5789 O   0  0  0  0  0  0  0  0  0  0  0  0
   22.8836   -5.4525  -13.8834 C   0  0  0  0  0  0  0  0  0  0  0  0
   21.4324   -5.1150  -13.8742 C   0  0  2  0  0  0  0  0  0  0  0  0
   20.6738   -5.7369  -14.9279 N   0  0  0  0  0  0  0  0  0  0  0  0
   21.2482   -3.6421  -13.8446 C   0  0  0  0  0  0  0  0  0  0  0  0
   20.7166   -3.0547  -14.8200 O   0  0  0  0  0  0  0  0  0  0  0  0
   21.6476   -2.8863  -12.7651 O   0  0  0  0  0  0  0  0  0  0  0  0
  1  2  1  0
  3  2  1  0
  3  4  1  6
  5  3  1  0
  6  5  2  0
  8  7  1  1
  8  9  1  0
  9  5  1  0
 10  8  1  0
 10 14  1  0
 11 10  2  0
 13 12  1  6
 13 14  1  0
 13 15  1  0
 15 17  1  0
 16 15  2  0
M  END
$$$$
