SAA.pdb
     RDKit          3D

 17 16  0  0  1  0  0  0  0  0999 V2000
   13.8153  -12.5091   -9.1885 O   0  0  0  0  0  0  0  0  0  0  0  0
   14.1040  -11.3911   -9.9340 C   0  0  0  0  0  0  0  0  0  0  0  0
   13.7580  -10.1018   -9.2474 C   0  0  2  0  0  0  0  0  0  0  0  0
   12.3498  -10.0335   -8.9193 N   0  0  0  0  0  0  0  0  0  0  0  0
   14.2205   -8.9048   -9.9595 C   0  0  0  0  0  0  0  0  0  0  0  0
   13.6382   -8.4068  -10.9558 O   0  0  0  0  0  0  0  0  0  0  0  0
   16.6920   -6.3076   -9.0393 C   0  0  0  0  0  0  0  0  0  0  0  0
   15.9591   -7.0868  -10.1046 C   0  0  2  0  0  0  0  0  0  0  0  0
   15.3970   -8.2560   -9.5091 N   0  0  0  0  0  0  0  0  0  0  0  0
   16.8138   -7.3861  -11.2792 C   0  0  0  0  0  0  0  0  0  0  0  0
   17.7371   -8.2344  -11.1812 O   0  0  0  0  0  0  0  0  0  0  0  0
   16.8617   -6.6827  -14.9992 C   0  0  0  0  0  0  0  0  0  0  0  0
   17.4548   -7.1024  -13.6984 C   0  0  2  0  0  0  0  0  0  0  0  0
   16.6585   -6.7626  -12.5482 N   0  0  0  0  0  0  0  0  0  0  0  0
   18.8478   -6.6016  -13.5841 C   0  0  0  0  0  0  0  0  0  0  0  0
   19.0977   -5.5922  -12.8787 O   0  0  0  0  0  0  0  0  0  0  0  0
   19.8920   -7.2177  -14.2368 O   0  0  0  0  0  0  0  0  0  0  0  0
  1  2  1  0
  3  2  1  0
  3  4  1  6
  5  3  1  0
  6  5  2  0
  8  7  1  1
  8  9  1  0
  9  5  1  0
 10  8  1  0
 10 14  1  0
 11 10  2  0
 13 12  1  6
 13 14  1  0
 13 15  1  0
 15 17  1  0
 16 15  2  0
M  END
$$$$
