SAA.pdb
     RDKit          3D

 17 16  0  0  1  0  0  0  0  0999 V2000
   35.9331  -12.0845  -18.2632 O   0  0  0  0  0  0  0  0  0  0  0  0
   34.9398  -11.2604  -18.7356 C   0  0  0  0  0  0  0  0  0  0  0  0
   33.6229  -11.9538  -18.9325 C   0  0  2  0  0  0  0  0  0  0  0  0
   33.7403  -13.0728  -19.8431 N   0  0  0  0  0  0  0  0  0  0  0  0
   32.5242  -11.0526  -19.2994 C   0  0  0  0  0  0  0  0  0  0  0  0
   32.2025  -10.7767  -20.4827 O   0  0  0  0  0  0  0  0  0  0  0  0
   29.8388   -9.5211  -17.2078 C   0  0  0  0  0  0  0  0  0  0  0  0
   30.6526   -9.5791  -18.4781 C   0  0  2  0  0  0  0  0  0  0  0  0
   31.7669  -10.4458  -18.2668 N   0  0  0  0  0  0  0  0  0  0  0  0
   31.0460   -8.2339  -18.9631 C   0  0  0  0  0  0  0  0  0  0  0  0
   32.0656   -7.6712  -18.4883 O   0  0  0  0  0  0  0  0  0  0  0  0
   30.1222   -5.8174  -21.7296 C   0  0  0  0  0  0  0  0  0  0  0  0
   30.7196   -6.2063  -20.4212 C   0  0  2  0  0  0  0  0  0  0  0  0
   30.3298   -7.5124  -19.9580 N   0  0  0  0  0  0  0  0  0  0  0  0
   30.4647   -5.1523  -19.4071 C   0  0  0  0  0  0  0  0  0  0  0  0
   29.4895   -5.2575  -18.6216 O   0  0  0  0  0  0  0  0  0  0  0  0
   31.2757   -4.0449  -19.2976 O   0  0  0  0  0  0  0  0  0  0  0  0
  1  2  1  0
  3  2  1  0
  3  4  1  6
  5  3  1  0
  6  5  2  0
  8  7  1  1
  8  9  1  0
  9  5  1  0
 10  8  1  0
 10 14  1  0
 11 10  2  0
 13 12  1  6
 13 14  1  0
 13 15  1  0
 15 17  1  0
 16 15  2  0
M  END
$$$$
