SAA.pdb
     RDKit          3D

 17 16  0  0  1  0  0  0  0  0999 V2000
   20.1615  -17.4969  -17.1173 O   0  0  0  0  0  0  0  0  0  0  0  0
   20.4803  -16.2165  -17.5020 C   0  0  0  0  0  0  0  0  0  0  0  0
   19.8332  -15.1547  -16.6609 C   0  0  2  0  0  0  0  0  0  0  0  0
   18.3994  -15.1198  -16.8564 N   0  0  0  0  0  0  0  0  0  0  0  0
   20.4449  -13.8281  -16.8018 C   0  0  0  0  0  0  0  0  0  0  0  0
   21.6682  -13.5933  -16.6337 O   0  0  0  0  0  0  0  0  0  0  0  0
   18.9844  -10.5844  -17.9772 C   0  0  0  0  0  0  0  0  0  0  0  0
   20.0782  -11.3894  -17.3179 C   0  0  2  0  0  0  0  0  0  0  0  0
   19.6190  -12.7303  -17.1489 N   0  0  0  0  0  0  0  0  0  0  0  0
   20.5542  -10.7743  -16.0551 C   0  0  0  0  0  0  0  0  0  0  0  0
   19.8519  -10.8575  -15.0151 O   0  0  0  0  0  0  0  0  0  0  0  0
   23.7476   -9.7033  -14.4931 C   0  0  0  0  0  0  0  0  0  0  0  0
   22.2778   -9.5513  -14.6849 C   0  0  2  0  0  0  0  0  0  0  0  0
   21.7869  -10.0752  -15.9328 N   0  0  0  0  0  0  0  0  0  0  0  0
   21.8761   -8.1378  -14.4732 C   0  0  0  0  0  0  0  0  0  0  0  0
   22.0202   -7.6050  -13.3444 O   0  0  0  0  0  0  0  0  0  0  0  0
   21.3417   -7.3792  -15.4906 O   0  0  0  0  0  0  0  0  0  0  0  0
  1  2  1  0
  3  2  1  0
  3  4  1  6
  5  3  1  0
  6  5  2  0
  8  7  1  1
  8  9  1  0
  9  5  1  0
 10  8  1  0
 10 14  1  0
 11 10  2  0
 13 12  1  6
 13 14  1  0
 13 15  1  0
 15 17  1  0
 16 15  2  0
M  END
$$$$
