SAA.pdb
     RDKit          3D

 17 16  0  0  1  0  0  0  0  0999 V2000
   17.8585  -10.6383  -19.4576 O   0  0  0  0  0  0  0  0  0  0  0  0
   18.3223   -9.9366  -18.3706 C   0  0  0  0  0  0  0  0  0  0  0  0
   19.0035  -10.7946  -17.3442 C   0  0  2  0  0  0  0  0  0  0  0  0
   18.1026  -11.7852  -16.7944 N   0  0  0  0  0  0  0  0  0  0  0  0
   19.6977  -10.0343  -16.2982 C   0  0  0  0  0  0  0  0  0  0  0  0
   19.1191   -9.4551  -15.3445 O   0  0  0  0  0  0  0  0  0  0  0  0
   23.3493   -9.6515  -15.5764 C   0  0  0  0  0  0  0  0  0  0  0  0
   21.9112   -9.2238  -15.4083 C   0  0  2  0  0  0  0  0  0  0  0  0
   21.1103   -9.9364  -16.3508 N   0  0  0  0  0  0  0  0  0  0  0  0
   21.7417   -7.7530  -15.4956 C   0  0  0  0  0  0  0  0  0  0  0  0
   21.5819   -7.2071  -16.6172 O   0  0  0  0  0  0  0  0  0  0  0  0
   20.9892   -4.8730  -13.1756 C   0  0  0  0  0  0  0  0  0  0  0  0
   21.4729   -5.4782  -14.4483 C   0  0  2  0  0  0  0  0  0  0  0  0
   21.7471   -6.8890  -14.3656 N   0  0  0  0  0  0  0  0  0  0  0  0
   22.6308   -4.7116  -14.9736 C   0  0  0  0  0  0  0  0  0  0  0  0
   23.7880   -5.1971  -14.9097 O   0  0  0  0  0  0  0  0  0  0  0  0
   22.4751   -3.4653  -15.5379 O   0  0  0  0  0  0  0  0  0  0  0  0
  1  2  1  0
  3  2  1  0
  3  4  1  1
  5  3  1  0
  6  5  2  0
  8  7  1  6
  8  9  1  0
  9  5  1  0
 10  8  1  0
 10 14  1  0
 11 10  2  0
 13 12  1  1
 13 14  1  0
 13 15  1  0
 15 17  1  0
 16 15  2  0
M  END
$$$$
