MWR.pdb
     RDKit          3D

 34 35  0  0  1  0  0  0  0  0999 V2000
   30.2348  -16.7757  -15.0188 C   0  0  0  0  0  0  0  0  0  0  0  0
   29.1445  -17.4238  -16.3085 S   0  0  0  0  0  0  0  0  0  0  0  0
   29.4105  -19.2229  -16.3981 C   0  0  0  0  0  0  0  0  0  0  0  0
   29.0501  -19.7875  -15.0525 C   0  0  0  0  0  0  0  0  0  0  0  0
   27.5673  -19.7805  -14.7897 C   0  0  2  0  0  0  0  0  0  0  0  0
   27.2035  -18.4255  -14.3037 N   0  0  0  0  0  0  0  0  0  0  0  0
   27.1476  -20.6927  -13.6974 C   0  0  0  0  0  0  0  0  0  0  0  0
   27.4454  -21.9224  -13.7069 O   0  0  0  0  0  0  0  0  0  0  0  0
   26.3970  -20.2747  -12.5743 N   0  0  0  0  0  0  0  0  0  0  0  0
   25.6602  -21.0499  -11.6714 C   0  0  1  0  0  0  0  0  0  0  0  0
   25.8374  -20.8677  -10.1986 C   0  0  0  0  0  0  0  0  0  0  0  0
   27.2575  -20.9478   -9.7497 C   0  0  0  0  0  0  0  0  0  0  0  0
   28.3691  -21.4637  -10.3685 C   0  0  0  0  0  0  0  0  0  0  0  0
   29.4766  -21.3177   -9.5947 N   0  0  0  0  0  0  0  0  0  0  0  0
   29.1030  -20.7040   -8.4617 C   0  0  0  0  0  0  0  0  0  0  0  0
   29.8136  -20.3042   -7.3319 C   0  0  0  0  0  0  0  0  0  0  0  0
   29.1578  -19.6749   -6.2965 C   0  0  0  0  0  0  0  0  0  0  0  0
   27.8018  -19.4225   -6.3395 C   0  0  0  0  0  0  0  0  0  0  0  0
   27.1043  -19.8315   -7.4825 C   0  0  0  0  0  0  0  0  0  0  0  0
   27.7507  -20.4612   -8.5208 C   0  0  0  0  0  0  0  0  0  0  0  0
   24.2352  -21.1280  -12.0078 C   0  0  0  0  0  0  0  0  0  0  0  0
   23.5364  -20.0918  -11.7242 O   0  0  0  0  0  0  0  0  0  0  0  0
   17.5264  -21.0646  -12.1570 N   0  0  0  0  0  0  0  0  0  0  0  0
   17.7695  -19.9040  -11.3807 C   0  0  0  0  0  0  0  0  0  0  0  0
   16.8352  -19.4257  -10.6480 N   0  0  0  0  0  0  0  0  0  0  0  0
   19.0274  -19.2470  -11.3875 N   0  0  0  0  0  0  0  0  0  0  0  0
   19.7654  -19.1587  -12.6142 C   0  0  0  0  0  0  0  0  0  0  0  0
   20.2615  -20.5612  -12.9573 C   0  0  0  0  0  0  0  0  0  0  0  0
   21.6965  -20.7430  -12.5652 C   0  0  0  0  0  0  0  0  0  0  0  0
   22.2073  -22.0627  -13.0266 C   0  0  2  0  0  0  0  0  0  0  0  0
   23.6068  -22.2489  -12.6097 N   0  0  0  0  0  0  0  0  0  0  0  0
   22.2408  -22.1115  -14.5079 C   0  0  0  0  0  0  0  0  0  0  0  0
   22.9205  -21.3317  -15.2292 O   0  0  0  0  0  0  0  0  0  0  0  0
   21.4831  -23.0715  -15.2005 O   0  0  0  0  0  0  0  0  0  0  0  0
  2  3  1  0
  2  1  1  0
  3  4  1  0
  4  5  1  0
  5  7  1  0
  5  6  1  1
  7  8  2  0
  9 10  1  0
  9  7  1  0
 10 21  1  0
 10 11  1  1
 12 11  1  0
 12 13  2  0
 14 13  1  0
 15 14  1  0
 16 15  2  0
 17 16  1  0
 18 17  2  0
 18 19  1  0
 19 20  2  0
 20 15  1  0
 20 12  1  0
 21 31  1  0
 22 21  2  0
 23 24  1  0
 24 25  2  0
 24 26  1  0
 26 27  1  0
 27 28  1  0
 29 28  1  0
 30 29  1  6
 31 30  1  0
 32 30  1  0
 33 32  2  0
 34 32  1  0
M  END
$$$$
