MWR.pdb
     RDKit          3D

 34 35  0  0  1  0  0  0  0  0999 V2000
   27.2982  -13.1717  -16.3466 C   0  0  0  0  0  0  0  0  0  0  0  0
   27.8217  -14.8400  -15.8832 S   0  0  0  0  0  0  0  0  0  0  0  0
   26.8797  -15.3180  -14.4000 C   0  0  0  0  0  0  0  0  0  0  0  0
   27.2982  -16.7177  -14.0464 C   0  0  0  0  0  0  0  0  0  0  0  0
   26.1697  -17.7104  -14.1398 C   0  0  2  0  0  0  0  0  0  0  0  0
   25.0924  -17.2532  -13.2260 N   0  0  0  0  0  0  0  0  0  0  0  0
   26.5217  -19.0663  -13.6510 C   0  0  0  0  0  0  0  0  0  0  0  0
   27.5465  -19.6787  -14.0700 O   0  0  0  0  0  0  0  0  0  0  0  0
   25.7599  -19.7746  -12.6932 N   0  0  0  0  0  0  0  0  0  0  0  0
   25.7076  -21.1532  -12.4565 C   0  0  1  0  0  0  0  0  0  0  0  0
   25.6782  -21.6793  -11.0579 C   0  0  0  0  0  0  0  0  0  0  0  0
   26.4884  -20.8766  -10.0966 C   0  0  0  0  0  0  0  0  0  0  0  0
   26.1292  -19.8607   -9.2460 C   0  0  0  0  0  0  0  0  0  0  0  0
   27.1966  -19.4131   -8.5340 N   0  0  0  0  0  0  0  0  0  0  0  0
   28.2658  -20.1311   -8.9096 C   0  0  0  0  0  0  0  0  0  0  0  0
   29.6009  -20.1058   -8.5118 C   0  0  0  0  0  0  0  0  0  0  0  0
   30.5012  -20.9830   -9.0758 C   0  0  0  0  0  0  0  0  0  0  0  0
   30.1218  -21.8999  -10.0348 C   0  0  0  0  0  0  0  0  0  0  0  0
   28.7764  -21.9107  -10.4221 C   0  0  0  0  0  0  0  0  0  0  0  0
   27.8706  -21.0379   -9.8649 C   0  0  0  0  0  0  0  0  0  0  0  0
   24.7107  -21.8423  -13.2816 C   0  0  0  0  0  0  0  0  0  0  0  0
   23.4977  -21.4563  -13.1317 O   0  0  0  0  0  0  0  0  0  0  0  0
   19.9074  -23.4199  -15.2317 N   0  0  0  0  0  0  0  0  0  0  0  0
   19.5439  -23.6413  -16.5835 C   0  0  0  0  0  0  0  0  0  0  0  0
   18.4570  -24.2614  -16.8530 N   0  0  0  0  0  0  0  0  0  0  0  0
   20.3523  -23.1937  -17.6606 N   0  0  0  0  0  0  0  0  0  0  0  0
   21.5543  -22.4635  -17.3786 C   0  0  0  0  0  0  0  0  0  0  0  0
   22.6543  -23.4802  -17.0834 C   0  0  0  0  0  0  0  0  0  0  0  0
   23.7762  -22.8597  -16.3072 C   0  0  0  0  0  0  0  0  0  0  0  0
   23.8551  -23.4385  -14.9382 C   0  0  2  0  0  0  0  0  0  0  0  0
   25.0030  -22.8782  -14.2063 N   0  0  0  0  0  0  0  0  0  0  0  0
   24.1229  -24.8948  -15.0105 C   0  0  0  0  0  0  0  0  0  0  0  0
   25.1917  -25.4407  -14.6235 O   0  0  0  0  0  0  0  0  0  0  0  0
   23.1535  -25.7661  -15.5366 O   0  0  0  0  0  0  0  0  0  0  0  0
  2  3  1  0
  2  1  1  0
  3  4  1  0
  4  5  1  0
  5  7  1  0
  5  6  1  1
  7  8  2  0
  9 10  1  0
  9  7  1  0
 10 21  1  0
 10 11  1  1
 12 11  1  0
 12 13  2  0
 14 13  1  0
 15 14  1  0
 16 15  2  0
 17 16  1  0
 18 17  2  0
 18 19  1  0
 19 20  2  0
 20 15  1  0
 20 12  1  0
 21 31  1  0
 22 21  2  0
 23 24  1  0
 24 25  2  0
 24 26  1  0
 26 27  1  0
 27 28  1  0
 29 28  1  0
 30 29  1  6
 31 30  1  0
 32 30  1  0
 33 32  2  0
 34 32  1  0
M  END
$$$$
