MWR.pdb
     RDKit          3D

 34 35  0  0  1  0  0  0  0  0999 V2000
   29.8292  -21.1808  -18.5909 C   0  0  0  0  0  0  0  0  0  0  0  0
   29.2241  -21.6584  -16.9545 S   0  0  0  0  0  0  0  0  0  0  0  0
   27.4050  -21.5926  -17.0020 C   0  0  0  0  0  0  0  0  0  0  0  0
   26.9181  -21.9076  -15.6152 C   0  0  0  0  0  0  0  0  0  0  0  0
   27.3072  -20.8621  -14.6036 C   0  0  2  0  0  0  0  0  0  0  0  0
   28.7724  -20.9684  -14.3884 N   0  0  0  0  0  0  0  0  0  0  0  0
   26.7170  -21.0790  -13.2597 C   0  0  0  0  0  0  0  0  0  0  0  0
   25.5393  -21.5180  -13.1137 O   0  0  0  0  0  0  0  0  0  0  0  0
   27.4062  -20.8220  -12.0521 N   0  0  0  0  0  0  0  0  0  0  0  0
   26.9154  -20.8282  -10.7413 C   0  0  1  0  0  0  0  0  0  0  0  0
   27.7755  -20.3659   -9.6099 C   0  0  0  0  0  0  0  0  0  0  0  0
   27.1172  -20.4644   -8.2751 C   0  0  0  0  0  0  0  0  0  0  0  0
   25.9041  -20.9911   -7.9068 C   0  0  0  0  0  0  0  0  0  0  0  0
   25.7035  -20.8779   -6.5676 N   0  0  0  0  0  0  0  0  0  0  0  0
   26.7827  -20.2771   -6.0442 C   0  0  0  0  0  0  0  0  0  0  0  0
   27.1174  -19.9170   -4.7405 C   0  0  0  0  0  0  0  0  0  0  0  0
   28.3242  -19.3026   -4.4871 C   0  0  0  0  0  0  0  0  0  0  0  0
   29.2270  -19.0273   -5.4938 C   0  0  0  0  0  0  0  0  0  0  0  0
   28.8736  -19.3961   -6.7974 C   0  0  0  0  0  0  0  0  0  0  0  0
   27.6704  -20.0093   -7.0598 C   0  0  0  0  0  0  0  0  0  0  0  0
   25.5707  -20.2553  -10.6266 C   0  0  0  0  0  0  0  0  0  0  0  0
   25.5094  -19.0606  -10.1668 O   0  0  0  0  0  0  0  0  0  0  0  0
   20.7513  -20.4407  -16.7680 N   0  0  0  0  0  0  0  0  0  0  0  0
   21.0043  -21.3216  -15.6871 C   0  0  0  0  0  0  0  0  0  0  0  0
   20.5689  -22.5244  -15.7358 N   0  0  0  0  0  0  0  0  0  0  0  0
   21.7324  -20.9117  -14.5399 N   0  0  0  0  0  0  0  0  0  0  0  0
   22.2608  -19.5794  -14.4843 C   0  0  0  0  0  0  0  0  0  0  0  0
   23.0004  -19.4305  -13.1570 C   0  0  0  0  0  0  0  0  0  0  0  0
   22.3184  -20.1960  -12.0639 C   0  0  0  0  0  0  0  0  0  0  0  0
   23.1251  -20.1640  -10.8135 C   0  0  2  0  0  0  0  0  0  0  0  0
   24.3727  -20.9265  -10.9843 N   0  0  0  0  0  0  0  0  0  0  0  0
   22.4030  -20.8543   -9.7182 C   0  0  0  0  0  0  0  0  0  0  0  0
   21.3628  -20.4088   -9.1615 O   0  0  0  0  0  0  0  0  0  0  0  0
   22.8682  -22.0888   -9.2334 O   0  0  0  0  0  0  0  0  0  0  0  0
  2  3  1  0
  2  1  1  0
  3  4  1  0
  4  5  1  0
  5  7  1  0
  5  6  1  1
  7  8  2  0
  9 10  1  0
  9  7  1  0
 10 21  1  0
 10 11  1  1
 12 11  1  0
 12 13  2  0
 14 13  1  0
 15 14  1  0
 16 15  2  0
 17 16  1  0
 18 17  2  0
 18 19  1  0
 19 20  2  0
 20 15  1  0
 20 12  1  0
 21 31  1  0
 22 21  2  0
 23 24  1  0
 24 25  2  0
 24 26  1  0
 26 27  1  0
 27 28  1  0
 29 28  1  0
 30 29  1  6
 31 30  1  0
 32 30  1  0
 33 32  2  0
 34 32  1  0
M  END
$$$$
