MWR.pdb
     RDKit          3D

 34 35  0  0  1  0  0  0  0  0999 V2000
   28.1893  -16.6925  -16.3798 C   0  0  0  0  0  0  0  0  0  0  0  0
   29.5742  -17.7236  -15.8405 S   0  0  0  0  0  0  0  0  0  0  0  0
   29.0594  -19.4625  -16.0045 C   0  0  0  0  0  0  0  0  0  0  0  0
   28.6993  -19.9454  -14.6273 C   0  0  0  0  0  0  0  0  0  0  0  0
   27.3097  -20.5207  -14.5505 C   0  0  2  0  0  0  0  0  0  0  0  0
   26.3651  -19.4788  -15.0265 N   0  0  0  0  0  0  0  0  0  0  0  0
   26.8624  -20.8253  -13.1690 C   0  0  0  0  0  0  0  0  0  0  0  0
   27.3231  -21.8109  -12.5231 O   0  0  0  0  0  0  0  0  0  0  0  0
   25.9050  -20.0550  -12.4692 N   0  0  0  0  0  0  0  0  0  0  0  0
   25.1337  -20.4107  -11.3566 C   0  0  1  0  0  0  0  0  0  0  0  0
   25.5008  -19.9187   -9.9940 C   0  0  0  0  0  0  0  0  0  0  0  0
   26.8390  -20.3837   -9.5274 C   0  0  0  0  0  0  0  0  0  0  0  0
   27.8189  -21.0969  -10.1721 C   0  0  0  0  0  0  0  0  0  0  0  0
   28.8946  -21.2966   -9.3662 N   0  0  0  0  0  0  0  0  0  0  0  0
   28.6317  -20.7160   -8.1857 C   0  0  0  0  0  0  0  0  0  0  0  0
   29.3684  -20.6062   -7.0083 C   0  0  0  0  0  0  0  0  0  0  0  0
   28.8398  -19.9328   -5.9289 C   0  0  0  0  0  0  0  0  0  0  0  0
   27.5879  -19.3540   -5.9733 C   0  0  0  0  0  0  0  0  0  0  0  0
   26.8621  -19.4747   -7.1645 C   0  0  0  0  0  0  0  0  0  0  0  0
   27.3817  -20.1460   -8.2470 C   0  0  0  0  0  0  0  0  0  0  0  0
   23.6929  -20.2600  -11.5822 C   0  0  0  0  0  0  0  0  0  0  0  0
   23.2805  -19.0629  -11.7811 O   0  0  0  0  0  0  0  0  0  0  0  0
   23.1039  -24.2307  -16.3381 N   0  0  0  0  0  0  0  0  0  0  0  0
   22.0381  -24.6404  -15.4986 C   0  0  0  0  0  0  0  0  0  0  0  0
   21.9719  -25.8578  -15.1084 N   0  0  0  0  0  0  0  0  0  0  0  0
   21.0307  -23.7371  -15.0704 N   0  0  0  0  0  0  0  0  0  0  0  0
   21.0832  -22.3713  -15.5051 C   0  0  0  0  0  0  0  0  0  0  0  0
   21.6181  -21.5367  -14.3440 C   0  0  0  0  0  0  0  0  0  0  0  0
   20.8977  -21.8524  -13.0683 C   0  0  0  0  0  0  0  0  0  0  0  0
   21.3776  -20.9814  -11.9609 C   0  0  2  0  0  0  0  0  0  0  0  0
   22.7599  -21.3291  -11.5926 N   0  0  0  0  0  0  0  0  0  0  0  0
   20.5829  -21.2258  -10.7336 C   0  0  0  0  0  0  0  0  0  0  0  0
   21.0271  -21.7994   -9.7020 O   0  0  0  0  0  0  0  0  0  0  0  0
   19.2421  -20.8098  -10.6655 O   0  0  0  0  0  0  0  0  0  0  0  0
  2  3  1  0
  2  1  1  0
  3  4  1  0
  4  5  1  0
  5  7  1  0
  5  6  1  1
  7  8  2  0
  9 10  1  0
  9  7  1  0
 10 21  1  0
 10 11  1  1
 12 11  1  0
 12 13  2  0
 14 13  1  0
 15 14  1  0
 16 15  2  0
 17 16  1  0
 18 17  2  0
 18 19  1  0
 19 20  2  0
 20 15  1  0
 20 12  1  0
 21 31  1  0
 22 21  2  0
 23 24  1  0
 24 25  2  0
 24 26  1  0
 26 27  1  0
 27 28  1  0
 29 28  1  0
 30 29  1  6
 31 30  1  0
 32 30  1  0
 33 32  2  0
 34 32  1  0
M  END
$$$$
