MWR.pdb
     RDKit          3D

 34 35  0  0  1  0  0  0  0  0999 V2000
   25.7229  -24.2498  -20.0333 C   0  0  0  0  0  0  0  0  0  0  0  0
   27.3842  -24.9624  -20.0974 S   0  0  0  0  0  0  0  0  0  0  0  0
   28.3884  -24.1271  -18.8288 C   0  0  0  0  0  0  0  0  0  0  0  0
   27.5603  -24.0786  -17.5753 C   0  0  0  0  0  0  0  0  0  0  0  0
   27.0839  -22.6903  -17.2384 C   0  0  2  0  0  0  0  0  0  0  0  0
   28.2741  -21.8034  -17.2017 N   0  0  0  0  0  0  0  0  0  0  0  0
   26.4900  -22.5723  -15.8838 C   0  0  0  0  0  0  0  0  0  0  0  0
   25.6209  -23.3911  -15.4653 O   0  0  0  0  0  0  0  0  0  0  0  0
   26.8389  -21.5578  -14.9625 N   0  0  0  0  0  0  0  0  0  0  0  0
   26.3112  -21.3060  -13.6908 C   0  0  1  0  0  0  0  0  0  0  0  0
   26.9909  -20.3480  -12.7667 C   0  0  0  0  0  0  0  0  0  0  0  0
   26.4416  -20.3583  -11.3800 C   0  0  0  0  0  0  0  0  0  0  0  0
   25.1753  -20.1092  -10.9119 C   0  0  0  0  0  0  0  0  0  0  0  0
   25.1146  -20.2400   -9.5607 N   0  0  0  0  0  0  0  0  0  0  0  0
   26.3394  -20.5768   -9.1293 C   0  0  0  0  0  0  0  0  0  0  0  0
   26.8487  -20.8386   -7.8591 C   0  0  0  0  0  0  0  0  0  0  0  0
   28.1763  -21.1747   -7.7085 C   0  0  0  0  0  0  0  0  0  0  0  0
   29.0323  -21.2629   -8.7872 C   0  0  0  0  0  0  0  0  0  0  0  0
   28.5029  -20.9963  -10.0557 C   0  0  0  0  0  0  0  0  0  0  0  0
   27.1788  -20.6592  -10.2154 C   0  0  0  0  0  0  0  0  0  0  0  0
   24.8654  -21.0625  -13.7045 C   0  0  0  0  0  0  0  0  0  0  0  0
   24.4568  -20.1688  -14.5273 O   0  0  0  0  0  0  0  0  0  0  0  0
   17.9359  -24.6362   -9.7925 N   0  0  0  0  0  0  0  0  0  0  0  0
   18.0764  -24.3676  -11.1770 C   0  0  0  0  0  0  0  0  0  0  0  0
   17.3649  -25.0140  -12.0223 N   0  0  0  0  0  0  0  0  0  0  0  0
   18.9886  -23.3955  -11.6637 N   0  0  0  0  0  0  0  0  0  0  0  0
   19.8450  -22.7123  -10.7379 C   0  0  0  0  0  0  0  0  0  0  0  0
   20.7050  -21.7366  -11.5373 C   0  0  0  0  0  0  0  0  0  0  0  0
   21.6410  -22.4613  -12.4564 C   0  0  0  0  0  0  0  0  0  0  0  0
   22.5046  -21.5009  -13.1960 C   0  0  2  0  0  0  0  0  0  0  0  0
   23.9240  -21.7382  -12.8856 N   0  0  0  0  0  0  0  0  0  0  0  0
   22.2408  -20.1155  -12.7394 C   0  0  0  0  0  0  0  0  0  0  0  0
   22.9520  -19.4956  -11.9027 O   0  0  0  0  0  0  0  0  0  0  0  0
   21.1383  -19.4036  -13.2427 O   0  0  0  0  0  0  0  0  0  0  0  0
  2  3  1  0
  2  1  1  0
  3  4  1  0
  4  5  1  0
  5  7  1  0
  5  6  1  1
  7  8  2  0
  9 10  1  0
  9  7  1  0
 10 21  1  0
 10 11  1  6
 12 11  1  0
 12 13  2  0
 14 13  1  0
 15 14  1  0
 16 15  2  0
 17 16  1  0
 18 17  2  0
 18 19  1  0
 19 20  2  0
 20 15  1  0
 20 12  1  0
 21 31  1  0
 22 21  2  0
 23 24  1  0
 24 25  2  0
 24 26  1  0
 26 27  1  0
 27 28  1  0
 29 28  1  0
 30 29  1  1
 31 30  1  0
 32 30  1  0
 33 32  2  0
 34 32  1  0
M  END
$$$$
