WPC.pdb
     RDKit          3D

 28 30  0  0  1  0  0  0  0  0999 V2000
    6.2973  -18.2797   24.9169 N   0  0  0  0  0  0  0  0  0  0  0  0
    6.6517  -16.9850   24.3290 C   0  0  1  0  0  0  0  0  0  0  0  0
    7.3917  -16.2370   25.4057 C   0  0  0  0  0  0  0  0  0  0  0  0
    6.7078  -15.0623   25.9512 C   0  0  0  0  0  0  0  0  0  0  0  0
    5.4028  -14.9942   26.3492 C   0  0  0  0  0  0  0  0  0  0  0  0
    5.1152  -13.7496   26.7601 N   0  0  0  0  0  0  0  0  0  0  0  0
    6.2382  -13.0019   26.6304 C   0  0  0  0  0  0  0  0  0  0  0  0
    6.5382  -11.6938   26.9010 C   0  0  0  0  0  0  0  0  0  0  0  0
    7.7752  -11.1280   26.7057 C   0  0  0  0  0  0  0  0  0  0  0  0
    8.7687  -11.9487   26.2025 C   0  0  0  0  0  0  0  0  0  0  0  0
    8.5160  -13.2566   25.9178 C   0  0  0  0  0  0  0  0  0  0  0  0
    7.2490  -13.8102   26.1240 C   0  0  0  0  0  0  0  0  0  0  0  0
    7.4634  -17.1150   23.1094 C   0  0  0  0  0  0  0  0  0  0  0  0
    7.7269  -18.3326   22.7964 O   0  0  0  0  0  0  0  0  0  0  0  0
    7.9438  -16.0578   22.3066 N   0  0  0  0  0  0  0  0  0  0  0  0
    7.6380  -14.6714   22.4818 C   0  0  0  0  0  0  0  0  0  0  0  0
    7.8506  -14.0564   21.1437 C   0  0  0  0  0  0  0  0  0  0  0  0
    8.2214  -15.1970   20.2130 C   0  0  0  0  0  0  0  0  0  0  0  0
    8.8251  -16.2058   21.1830 C   0  0  1  0  0  0  0  0  0  0  0  0
   10.2318  -15.8998   21.4821 C   0  0  0  0  0  0  0  0  0  0  0  0
   10.6340  -14.7110   21.4532 O   0  0  0  0  0  0  0  0  0  0  0  0
   11.2070  -16.8760   21.8127 N   0  0  0  0  0  0  0  0  0  0  0  0
   12.3983  -16.5958   22.5865 C   0  0  1  0  0  0  0  0  0  0  0  0
   12.3228  -17.1940   23.9765 C   0  0  0  0  0  0  0  0  0  0  0  0
   10.9049  -16.5628   24.8866 S   0  0  0  0  0  0  0  0  0  0  0  0
   13.5600  -17.2030   21.8976 C   0  0  0  0  0  0  0  0  0  0  0  0
   14.8765  -17.0139   22.3040 O   0  0  0  0  0  0  0  0  0  0  0  0
   13.3830  -17.9303   20.8926 O   0  0  0  0  0  0  0  0  0  0  0  0
  2  1  1  1
  3  4  1  0
  3  2  1  0
  4 12  1  0
  5  4  2  0
  5  6  1  0
  6  7  1  0
  7  8  1  0
  8  9  2  0
 10  9  1  0
 11 10  2  0
 12  7  2  0
 12 11  1  0
 13 15  1  0
 13  2  1  0
 14 13  2  0
 15 16  1  0
 17 16  1  0
 18 17  1  0
 19 18  1  0
 19 20  1  1
 19 15  1  0
 20 21  2  0
 22 23  1  0
 22 20  1  0
 23 26  1  0
 23 24  1  1
 25 24  1  0
 26 28  2  0
 26 27  1  0
M  END
$$$$
