WPC.pdb
     RDKit          3D

 28 30  0  0  1  0  0  0  0  0999 V2000
    6.3694  -17.0501   24.4122 N   0  0  0  0  0  0  0  0  0  0  0  0
    6.7708  -15.8408   23.6884 C   0  0  1  0  0  0  0  0  0  0  0  0
    7.8259  -15.1869   24.5403 C   0  0  0  0  0  0  0  0  0  0  0  0
    7.3447  -14.5242   25.7544 C   0  0  0  0  0  0  0  0  0  0  0  0
    6.9823  -15.1325   26.9227 C   0  0  0  0  0  0  0  0  0  0  0  0
    6.5580  -14.2134   27.8034 N   0  0  0  0  0  0  0  0  0  0  0  0
    6.6446  -12.9992   27.2075 C   0  0  0  0  0  0  0  0  0  0  0  0
    6.3675  -11.7233   27.6193 C   0  0  0  0  0  0  0  0  0  0  0  0
    6.5464  -10.6040   26.8421 C   0  0  0  0  0  0  0  0  0  0  0  0
    7.0391  -10.7992   25.5642 C   0  0  0  0  0  0  0  0  0  0  0  0
    7.3282  -12.0508   25.1113 C   0  0  0  0  0  0  0  0  0  0  0  0
    7.1372  -13.1750   25.9199 C   0  0  0  0  0  0  0  0  0  0  0  0
    7.2721  -16.1255   22.3354 C   0  0  0  0  0  0  0  0  0  0  0  0
    7.0869  -17.3415   21.9654 O   0  0  0  0  0  0  0  0  0  0  0  0
    7.9044  -15.2096   21.4667 N   0  0  0  0  0  0  0  0  0  0  0  0
    8.1321  -13.8236   21.7375 C   0  0  0  0  0  0  0  0  0  0  0  0
    8.2566  -13.1836   20.4000 C   0  0  0  0  0  0  0  0  0  0  0  0
    8.0140  -14.2857   19.3845 C   0  0  0  0  0  0  0  0  0  0  0  0
    8.4271  -15.5263   20.1677 C   0  0  1  0  0  0  0  0  0  0  0  0
    9.8835  -15.7271   20.1419 C   0  0  0  0  0  0  0  0  0  0  0  0
   10.6511  -14.7367   20.0664 O   0  0  0  0  0  0  0  0  0  0  0  0
   10.5141  -16.9969   20.1976 N   0  0  0  0  0  0  0  0  0  0  0  0
   11.8286  -17.2203   20.7621 C   0  0  1  0  0  0  0  0  0  0  0  0
   11.7531  -17.8539   22.1363 C   0  0  0  0  0  0  0  0  0  0  0  0
   11.3161  -16.6436   23.3940 S   0  0  0  0  0  0  0  0  0  0  0  0
   12.5682  -18.1498   19.8779 C   0  0  0  0  0  0  0  0  0  0  0  0
   11.9751  -18.8453   18.8296 O   0  0  0  0  0  0  0  0  0  0  0  0
   13.7934  -18.3430   20.0558 O   0  0  0  0  0  0  0  0  0  0  0  0
  2  1  1  1
  3  4  1  0
  3  2  1  0
  4 12  1  0
  5  4  2  0
  5  6  1  0
  6  7  1  0
  7  8  1  0
  8  9  2  0
 10  9  1  0
 11 10  2  0
 12  7  2  0
 12 11  1  0
 13 15  1  0
 13  2  1  0
 14 13  2  0
 15 16  1  0
 17 16  1  0
 18 17  1  0
 19 18  1  0
 19 20  1  1
 19 15  1  0
 20 21  2  0
 22 23  1  0
 22 20  1  0
 23 26  1  0
 23 24  1  1
 25 24  1  0
 26 28  2  0
 26 27  1  0
M  END
$$$$
