WPC.pdb
     RDKit          3D

 28 30  0  0  1  0  0  0  0  0999 V2000
    6.7881  -18.4492   25.0425 N   0  0  0  0  0  0  0  0  0  0  0  0
    6.9606  -17.1311   24.4259 C   0  0  1  0  0  0  0  0  0  0  0  0
    7.6801  -16.2932   25.4489 C   0  0  0  0  0  0  0  0  0  0  0  0
    6.9300  -15.1535   25.9813 C   0  0  0  0  0  0  0  0  0  0  0  0
    5.6094  -15.1420   26.3305 C   0  0  0  0  0  0  0  0  0  0  0  0
    5.2573  -13.9151   26.7442 N   0  0  0  0  0  0  0  0  0  0  0  0
    6.3536  -13.1221   26.6654 C   0  0  0  0  0  0  0  0  0  0  0  0
    6.5908  -11.8067   26.9618 C   0  0  0  0  0  0  0  0  0  0  0  0
    7.8107  -11.1900   26.8197 C   0  0  0  0  0  0  0  0  0  0  0  0
    8.8542  -11.9644   26.3452 C   0  0  0  0  0  0  0  0  0  0  0  0
    8.6647  -13.2775   26.0365 C   0  0  0  0  0  0  0  0  0  0  0  0
    7.4140  -13.8833   26.1885 C   0  0  0  0  0  0  0  0  0  0  0  0
    7.7034  -17.1871   23.1577 C   0  0  0  0  0  0  0  0  0  0  0  0
    8.1632  -18.3549   22.8840 O   0  0  0  0  0  0  0  0  0  0  0  0
    7.9321  -16.1111   22.2729 N   0  0  0  0  0  0  0  0  0  0  0  0
    7.3909  -14.7934   22.4041 C   0  0  0  0  0  0  0  0  0  0  0  0
    7.4034  -14.2313   21.0265 C   0  0  0  0  0  0  0  0  0  0  0  0
    7.9159  -15.3411   20.1262 C   0  0  0  0  0  0  0  0  0  0  0  0
    8.7529  -16.1665   21.0965 C   0  0  1  0  0  0  0  0  0  0  0  0
   10.0966  -15.5976   21.2775 C   0  0  0  0  0  0  0  0  0  0  0  0
   10.2321  -14.4676   21.8072 O   0  0  0  0  0  0  0  0  0  0  0  0
   11.2963  -16.2470   20.8873 N   0  0  0  0  0  0  0  0  0  0  0  0
   12.3549  -16.6058   21.8077 C   0  0  1  0  0  0  0  0  0  0  0  0
   11.8733  -17.5658   22.8762 C   0  0  0  0  0  0  0  0  0  0  0  0
   13.2135  -18.0526   23.9736 S   0  0  0  0  0  0  0  0  0  0  0  0
   13.4303  -17.2820   21.0466 C   0  0  0  0  0  0  0  0  0  0  0  0
   14.7729  -16.9316   21.1416 O   0  0  0  0  0  0  0  0  0  0  0  0
   13.1507  -18.2226   20.2674 O   0  0  0  0  0  0  0  0  0  0  0  0
  2  1  1  1
  3  4  1  0
  3  2  1  0
  4 12  1  0
  5  4  2  0
  5  6  1  0
  6  7  1  0
  7  8  1  0
  8  9  2  0
 10  9  1  0
 11 10  2  0
 12  7  2  0
 12 11  1  0
 13 15  1  0
 13  2  1  0
 14 13  2  0
 15 16  1  0
 17 16  1  0
 18 17  1  0
 19 18  1  0
 19 20  1  1
 19 15  1  0
 20 21  2  0
 22 23  1  0
 22 20  1  0
 23 26  1  0
 23 24  1  1
 25 24  1  0
 26 28  2  0
 26 27  1  0
M  END
$$$$
