WPC.pdb
     RDKit          3D

 28 30  0  0  1  0  0  0  0  0999 V2000
    6.3342  -18.5969   24.7184 N   0  0  0  0  0  0  0  0  0  0  0  0
    6.6335  -17.2384   24.2577 C   0  0  1  0  0  0  0  0  0  0  0  0
    7.4060  -16.5896   25.3752 C   0  0  0  0  0  0  0  0  0  0  0  0
    6.7878  -15.4043   25.9734 C   0  0  0  0  0  0  0  0  0  0  0  0
    5.5026  -15.2985   26.4244 C   0  0  0  0  0  0  0  0  0  0  0  0
    5.2775  -14.0544   26.8739 N   0  0  0  0  0  0  0  0  0  0  0  0
    6.4215  -13.3449   26.7162 C   0  0  0  0  0  0  0  0  0  0  0  0
    6.7799  -12.0552   27.0035 C   0  0  0  0  0  0  0  0  0  0  0  0
    8.0285  -11.5299   26.7717 C   0  0  0  0  0  0  0  0  0  0  0  0
    8.9706  -12.3738   26.2113 C   0  0  0  0  0  0  0  0  0  0  0  0
    8.6588  -13.6646   25.9080 C   0  0  0  0  0  0  0  0  0  0  0  0
    7.3812  -14.1769   26.1522 C   0  0  0  0  0  0  0  0  0  0  0  0
    7.3909  -17.2171   22.9972 C   0  0  0  0  0  0  0  0  0  0  0  0
    7.7072  -18.3862   22.5694 O   0  0  0  0  0  0  0  0  0  0  0  0
    7.7712  -16.0696   22.2680 N   0  0  0  0  0  0  0  0  0  0  0  0
    7.4278  -14.7204   22.5965 C   0  0  0  0  0  0  0  0  0  0  0  0
    7.5182  -13.9747   21.3122 C   0  0  0  0  0  0  0  0  0  0  0  0
    7.8615  -15.0061   20.2525 C   0  0  0  0  0  0  0  0  0  0  0  0
    8.5721  -16.0734   21.0766 C   0  0  1  0  0  0  0  0  0  0  0  0
    9.9847  -15.7350   21.3046 C   0  0  0  0  0  0  0  0  0  0  0  0
   10.4215  -14.6082   20.9650 O   0  0  0  0  0  0  0  0  0  0  0  0
   10.9284  -16.6119   21.8994 N   0  0  0  0  0  0  0  0  0  0  0  0
   11.9976  -16.1739   22.7721 C   0  0  1  0  0  0  0  0  0  0  0  0
   11.4710  -15.4220   23.9774 C   0  0  0  0  0  0  0  0  0  0  0  0
   10.8805  -16.5504   25.2484 S   0  0  0  0  0  0  0  0  0  0  0  0
   12.7197  -17.3683   23.2668 C   0  0  0  0  0  0  0  0  0  0  0  0
   13.9639  -17.3098   23.8854 O   0  0  0  0  0  0  0  0  0  0  0  0
   12.2118  -18.5064   23.1371 O   0  0  0  0  0  0  0  0  0  0  0  0
  2  1  1  1
  3  4  1  0
  3  2  1  0
  4 12  1  0
  5  4  2  0
  5  6  1  0
  6  7  1  0
  7  8  1  0
  8  9  2  0
 10  9  1  0
 11 10  2  0
 12  7  2  0
 12 11  1  0
 13 15  1  0
 13  2  1  0
 14 13  2  0
 15 16  1  0
 17 16  1  0
 18 17  1  0
 19 18  1  0
 19 20  1  1
 19 15  1  0
 20 21  2  0
 22 23  1  0
 22 20  1  0
 23 26  1  0
 23 24  1  1
 25 24  1  0
 26 28  2  0
 26 27  1  0
M  END
$$$$
