WPC.pdb
     RDKit          3D

 28 30  0  0  1  0  0  0  0  0999 V2000
    6.3027  -18.2485   24.6478 N   0  0  0  0  0  0  0  0  0  0  0  0
    6.6473  -16.9509   24.0605 C   0  0  1  0  0  0  0  0  0  0  0  0
    7.4458  -16.2267   25.1113 C   0  0  0  0  0  0  0  0  0  0  0  0
    6.7873  -15.0745   25.7310 C   0  0  0  0  0  0  0  0  0  0  0  0
    5.4846  -15.0045   26.1362 C   0  0  0  0  0  0  0  0  0  0  0  0
    5.2236  -13.7822   26.6248 N   0  0  0  0  0  0  0  0  0  0  0  0
    6.3617  -13.0513   26.5388 C   0  0  0  0  0  0  0  0  0  0  0  0
    6.6892  -11.7691   26.8895 C   0  0  0  0  0  0  0  0  0  0  0  0
    7.9374  -11.2178   26.7263 C   0  0  0  0  0  0  0  0  0  0  0  0
    8.9129  -12.0258   26.1700 C   0  0  0  0  0  0  0  0  0  0  0  0
    8.6326  -13.3079   25.8051 C   0  0  0  0  0  0  0  0  0  0  0  0
    7.3547  -13.8470   25.9800 C   0  0  0  0  0  0  0  0  0  0  0  0
    7.4006  -17.0755   22.8034 C   0  0  0  0  0  0  0  0  0  0  0  0
    7.6695  -18.2906   22.4851 O   0  0  0  0  0  0  0  0  0  0  0  0
    7.8230  -16.0158   21.9717 N   0  0  0  0  0  0  0  0  0  0  0  0
    7.5226  -14.6309   22.1672 C   0  0  0  0  0  0  0  0  0  0  0  0
    7.6451  -14.0145   20.8186 C   0  0  0  0  0  0  0  0  0  0  0  0
    7.9601  -15.1531   19.8650 C   0  0  0  0  0  0  0  0  0  0  0  0
    8.6302  -16.1593   20.7933 C   0  0  1  0  0  0  0  0  0  0  0  0
   10.0519  -15.8468   21.0006 C   0  0  0  0  0  0  0  0  0  0  0  0
   10.4385  -14.6525   20.9910 O   0  0  0  0  0  0  0  0  0  0  0  0
   11.0588  -16.8224   21.2185 N   0  0  0  0  0  0  0  0  0  0  0  0
   12.2720  -16.5751   21.9693 C   0  0  1  0  0  0  0  0  0  0  0  0
   11.9784  -16.1562   23.3954 C   0  0  0  0  0  0  0  0  0  0  0  0
   11.0603  -17.4278   24.2772 S   0  0  0  0  0  0  0  0  0  0  0  0
   13.0568  -17.8298   22.0211 C   0  0  0  0  0  0  0  0  0  0  0  0
   14.3489  -17.9049   22.5300 O   0  0  0  0  0  0  0  0  0  0  0  0
   12.5609  -18.8976   21.5922 O   0  0  0  0  0  0  0  0  0  0  0  0
  2  1  1  1
  3  4  1  0
  3  2  1  0
  4 12  1  0
  5  4  2  0
  5  6  1  0
  6  7  1  0
  7  8  1  0
  8  9  2  0
 10  9  1  0
 11 10  2  0
 12  7  2  0
 12 11  1  0
 13 15  1  0
 13  2  1  0
 14 13  2  0
 15 16  1  0
 17 16  1  0
 18 17  1  0
 19 18  1  0
 19 20  1  1
 19 15  1  0
 20 21  2  0
 22 23  1  0
 22 20  1  0
 23 26  1  0
 23 24  1  1
 25 24  1  0
 26 28  2  0
 26 27  1  0
M  END
$$$$
