WPC.pdb
     RDKit          3D

 28 30  0  0  1  0  0  0  0  0999 V2000
    7.0101  -18.5155   24.8072 N   0  0  0  0  0  0  0  0  0  0  0  0
    7.0724  -17.1821   24.2026 C   0  0  1  0  0  0  0  0  0  0  0  0
    7.7583  -16.3060   25.2166 C   0  0  0  0  0  0  0  0  0  0  0  0
    6.9641  -15.1908   25.7368 C   0  0  0  0  0  0  0  0  0  0  0  0
    5.6429  -15.2260   26.0821 C   0  0  0  0  0  0  0  0  0  0  0  0
    5.2435  -14.0096   26.4839 N   0  0  0  0  0  0  0  0  0  0  0  0
    6.3094  -13.1766   26.4013 C   0  0  0  0  0  0  0  0  0  0  0  0
    6.4960  -11.8507   26.6867 C   0  0  0  0  0  0  0  0  0  0  0  0
    7.6923  -11.1897   26.5427 C   0  0  0  0  0  0  0  0  0  0  0  0
    8.7657  -11.9284   26.0780 C   0  0  0  0  0  0  0  0  0  0  0  0
    8.6267  -13.2503   25.7804 C   0  0  0  0  0  0  0  0  0  0  0  0
    7.3993  -13.9014   25.9341 C   0  0  0  0  0  0  0  0  0  0  0  0
    7.7829  -17.1721   22.9148 C   0  0  0  0  0  0  0  0  0  0  0  0
    8.1139  -18.3428   22.5028 O   0  0  0  0  0  0  0  0  0  0  0  0
    8.1065  -16.0333   22.1457 N   0  0  0  0  0  0  0  0  0  0  0  0
    7.8930  -14.6740   22.5369 C   0  0  0  0  0  0  0  0  0  0  0  0
    7.8218  -13.9112   21.2615 C   0  0  0  0  0  0  0  0  0  0  0  0
    7.9380  -14.9401   20.1513 C   0  0  0  0  0  0  0  0  0  0  0  0
    8.7095  -16.0578   20.8432 C   0  0  1  0  0  0  0  0  0  0  0  0
   10.1567  -15.7982   20.8493 C   0  0  0  0  0  0  0  0  0  0  0  0
   10.6098  -14.7639   20.3009 O   0  0  0  0  0  0  0  0  0  0  0  0
   11.1175  -16.6542   21.4472 N   0  0  0  0  0  0  0  0  0  0  0  0
   11.9414  -16.2771   22.5766 C   0  0  1  0  0  0  0  0  0  0  0  0
   11.1069  -15.8692   23.7735 C   0  0  0  0  0  0  0  0  0  0  0  0
   12.1259  -15.6500   25.2401 S   0  0  0  0  0  0  0  0  0  0  0  0
   12.7576  -17.4469   22.9744 C   0  0  0  0  0  0  0  0  0  0  0  0
   12.5059  -18.7420   22.5344 O   0  0  0  0  0  0  0  0  0  0  0  0
   13.7329  -17.2974   23.7468 O   0  0  0  0  0  0  0  0  0  0  0  0
  2  1  1  1
  3  4  1  0
  3  2  1  0
  4 12  1  0
  5  4  2  0
  5  6  1  0
  6  7  1  0
  7  8  1  0
  8  9  2  0
 10  9  1  0
 11 10  2  0
 12  7  2  0
 12 11  1  0
 13 15  1  0
 13  2  1  0
 14 13  2  0
 15 16  1  0
 17 16  1  0
 18 17  1  0
 19 18  1  0
 19 20  1  1
 19 15  1  0
 20 21  2  0
 22 23  1  0
 22 20  1  0
 23 26  1  0
 23 24  1  1
 25 24  1  0
 26 28  2  0
 26 27  1  0
M  END
$$$$
