WPC.pdb
     RDKit          3D

 28 30  0  0  1  0  0  0  0  0999 V2000
    7.0355  -18.0993   25.7078 N   0  0  0  0  0  0  0  0  0  0  0  0
    6.5831  -17.3625   24.5246 C   0  0  1  0  0  0  0  0  0  0  0  0
    6.1107  -16.0263   25.0322 C   0  0  0  0  0  0  0  0  0  0  0  0
    7.0603  -15.2904   25.8698 C   0  0  0  0  0  0  0  0  0  0  0  0
    8.2125  -15.7815   26.4152 C   0  0  0  0  0  0  0  0  0  0  0  0
    8.8090  -14.8325   27.1530 N   0  0  0  0  0  0  0  0  0  0  0  0
    8.0428  -13.7164   27.0882 C   0  0  0  0  0  0  0  0  0  0  0  0
    8.1575  -12.4602   27.6202 C   0  0  0  0  0  0  0  0  0  0  0  0
    7.2532  -11.4466   27.4112 C   0  0  0  0  0  0  0  0  0  0  0  0
    6.1633  -11.7331   26.6089 C   0  0  0  0  0  0  0  0  0  0  0  0
    6.0073  -12.9694   26.0588 C   0  0  0  0  0  0  0  0  0  0  0  0
    6.9402  -13.9854   26.2862 C   0  0  0  0  0  0  0  0  0  0  0  0
    7.6366  -17.2105   23.5096 C   0  0  0  0  0  0  0  0  0  0  0  0
    8.3874  -18.2459   23.3910 O   0  0  0  0  0  0  0  0  0  0  0  0
    7.8659  -16.0738   22.7044 N   0  0  0  0  0  0  0  0  0  0  0  0
    7.1545  -14.8355   22.7869 C   0  0  0  0  0  0  0  0  0  0  0  0
    7.3103  -14.2100   21.4459 C   0  0  0  0  0  0  0  0  0  0  0  0
    8.0867  -15.2082   20.6060 C   0  0  0  0  0  0  0  0  0  0  0  0
    8.8586  -15.9771   21.6719 C   0  0  1  0  0  0  0  0  0  0  0  0
   10.0789  -15.2659   22.0805 C   0  0  0  0  0  0  0  0  0  0  0  0
    9.9934  -14.1434   22.6360 O   0  0  0  0  0  0  0  0  0  0  0  0
   11.3936  -15.7645   21.8903 N   0  0  0  0  0  0  0  0  0  0  0  0
   12.3493  -15.9478   22.9624 C   0  0  1  0  0  0  0  0  0  0  0  0
   11.8155  -16.8635   24.0449 C   0  0  0  0  0  0  0  0  0  0  0  0
   13.0394  -17.1381   25.3349 S   0  0  0  0  0  0  0  0  0  0  0  0
   13.5686  -16.5750   22.4031 C   0  0  0  0  0  0  0  0  0  0  0  0
   14.8511  -16.0812   22.6167 O   0  0  0  0  0  0  0  0  0  0  0  0
   13.4757  -17.6053   21.6960 O   0  0  0  0  0  0  0  0  0  0  0  0
  2  1  1  1
  3  4  1  0
  3  2  1  0
  4 12  1  0
  5  4  2  0
  5  6  1  0
  6  7  1  0
  7  8  1  0
  8  9  2  0
 10  9  1  0
 11 10  2  0
 12  7  2  0
 12 11  1  0
 13 15  1  0
 13  2  1  0
 14 13  2  0
 15 16  1  0
 17 16  1  0
 18 17  1  0
 19 18  1  0
 19 20  1  1
 19 15  1  0
 20 21  2  0
 22 23  1  0
 22 20  1  0
 23 26  1  0
 23 24  1  1
 25 24  1  0
 26 28  2  0
 26 27  1  0
M  END
$$$$
