WPC.pdb
     RDKit          3D

 28 30  0  0  1  0  0  0  0  0999 V2000
    6.9056  -18.0155   25.6173 N   0  0  0  0  0  0  0  0  0  0  0  0
    6.4951  -17.2737   24.4221 C   0  0  1  0  0  0  0  0  0  0  0  0
    6.0995  -15.9047   24.9076 C   0  0  0  0  0  0  0  0  0  0  0  0
    7.0690  -15.2306   25.7740 C   0  0  0  0  0  0  0  0  0  0  0  0
    8.2455  -15.7501   26.2348 C   0  0  0  0  0  0  0  0  0  0  0  0
    8.8561  -14.8603   27.0323 N   0  0  0  0  0  0  0  0  0  0  0  0
    8.0748  -13.7544   27.0917 C   0  0  0  0  0  0  0  0  0  0  0  0
    8.1931  -12.5479   27.7277 C   0  0  0  0  0  0  0  0  0  0  0  0
    7.2700  -11.5336   27.6393 C   0  0  0  0  0  0  0  0  0  0  0  0
    6.1561  -11.7652   26.8524 C   0  0  0  0  0  0  0  0  0  0  0  0
    5.9957  -12.9510   26.2014 C   0  0  0  0  0  0  0  0  0  0  0  0
    6.9480  -13.9689   26.3070 C   0  0  0  0  0  0  0  0  0  0  0  0
    7.5550  -17.1982   23.4052 C   0  0  0  0  0  0  0  0  0  0  0  0
    8.2814  -18.2557   23.3425 O   0  0  0  0  0  0  0  0  0  0  0  0
    7.8135  -16.1096   22.5443 N   0  0  0  0  0  0  0  0  0  0  0  0
    7.1537  -14.8410   22.5819 C   0  0  0  0  0  0  0  0  0  0  0  0
    7.3081  -14.2840   21.2108 C   0  0  0  0  0  0  0  0  0  0  0  0
    8.0277  -15.3502   20.4045 C   0  0  0  0  0  0  0  0  0  0  0  0
    8.7890  -16.1004   21.4911 C   0  0  1  0  0  0  0  0  0  0  0  0
   10.0444  -15.4215   21.8448 C   0  0  0  0  0  0  0  0  0  0  0  0
   10.0131  -14.2899   22.3874 O   0  0  0  0  0  0  0  0  0  0  0  0
   11.3356  -15.9623   21.6135 N   0  0  0  0  0  0  0  0  0  0  0  0
   12.3153  -16.1844   22.6562 C   0  0  1  0  0  0  0  0  0  0  0  0
   11.7850  -17.0948   23.7451 C   0  0  0  0  0  0  0  0  0  0  0  0
   12.1100  -16.4197   25.3810 S   0  0  0  0  0  0  0  0  0  0  0  0
   13.4991  -16.8418   22.0567 C   0  0  0  0  0  0  0  0  0  0  0  0
   14.7947  -16.3532   22.1866 O   0  0  0  0  0  0  0  0  0  0  0  0
   13.3617  -17.8947   21.3913 O   0  0  0  0  0  0  0  0  0  0  0  0
  2  1  1  1
  3  4  1  0
  3  2  1  0
  4 12  1  0
  5  4  2  0
  5  6  1  0
  6  7  1  0
  7  8  1  0
  8  9  2  0
 10  9  1  0
 11 10  2  0
 12  7  2  0
 12 11  1  0
 13 15  1  0
 13  2  1  0
 14 13  2  0
 15 16  1  0
 17 16  1  0
 18 17  1  0
 19 18  1  0
 19 20  1  1
 19 15  1  0
 20 21  2  0
 22 23  1  0
 22 20  1  0
 23 26  1  0
 23 24  1  1
 25 24  1  0
 26 28  2  0
 26 27  1  0
M  END
$$$$
