TQT.pdb
     RDKit          3D

 24 23  0  0  1  0  0  0  0  0999 V2000
    8.6299  -18.7029   19.4655 C   0  0  0  0  0  0  0  0  0  0  0  0
    9.1918  -19.0938   18.1273 C   0  0  1  0  0  0  0  0  0  0  0  0
    8.1048  -19.3312   17.2687 O   0  0  0  0  0  0  0  0  0  0  0  0
    9.9237  -17.8803   17.5712 C   0  0  2  0  0  0  0  0  0  0  0  0
   10.2104  -18.1102   16.2122 N   0  0  0  0  0  0  0  0  0  0  0  0
   11.0609  -17.4879   18.4058 C   0  0  0  0  0  0  0  0  0  0  0  0
   12.0502  -18.2615   18.4742 O   0  0  0  0  0  0  0  0  0  0  0  0
   15.1316  -14.4857   19.8537 N   0  0  0  0  0  0  0  0  0  0  0  0
   14.4346  -14.3679   18.6329 C   0  0  0  0  0  0  0  0  0  0  0  0
   15.0001  -14.6256   17.5625 O   0  0  0  0  0  0  0  0  0  0  0  0
   13.0081  -13.9273   18.6680 C   0  0  0  0  0  0  0  0  0  0  0  0
   12.4098  -14.4118   19.9548 C   0  0  0  0  0  0  0  0  0  0  0  0
   12.1634  -15.8912   20.0390 C   0  0  2  0  0  0  0  0  0  0  0  0
   11.0733  -16.2666   19.1326 N   0  0  0  0  0  0  0  0  0  0  0  0
   11.8390  -16.2903   21.4264 C   0  0  0  0  0  0  0  0  0  0  0  0
   10.9677  -15.6404   22.0480 O   0  0  0  0  0  0  0  0  0  0  0  0
   10.0200  -18.9575   22.9166 C   0  0  0  0  0  0  0  0  0  0  0  0
   11.3968  -19.0458   23.5187 C   0  0  1  0  0  0  0  0  0  0  0  0
   12.1508  -20.0273   22.8772 O   0  0  0  0  0  0  0  0  0  0  0  0
   12.1048  -17.7004   23.4457 C   0  0  2  0  0  0  0  0  0  0  0  0
   12.4633  -17.3706   22.0893 N   0  0  0  0  0  0  0  0  0  0  0  0
   13.3358  -17.7256   24.2752 C   0  0  0  0  0  0  0  0  0  0  0  0
   14.4567  -17.5717   23.7565 O   0  0  0  0  0  0  0  0  0  0  0  0
   13.1844  -17.9261   25.6394 O   0  0  0  0  0  0  0  0  0  0  0  0
  2  1  1  1
  2  3  1  0
  4  5  1  6
  4  2  1  0
  6  4  1  0
  7  6  2  0
  8  9  1  0
  9 11  1  0
  9 10  2  0
 11 12  1  0
 13 12  1  1
 13 14  1  0
 14  6  1  0
 15 21  1  0
 15 13  1  0
 16 15  2  0
 18 17  1  6
 18 20  1  0
 18 19  1  0
 20 21  1  6
 20 22  1  0
 22 24  1  0
 23 22  2  0
M  END
$$$$
