TQT.pdb
     RDKit          3D

 24 23  0  0  1  0  0  0  0  0999 V2000
    8.9389  -12.5628   20.2422 C   0  0  0  0  0  0  0  0  0  0  0  0
    7.8875  -13.2811   19.4433 C   0  0  1  0  0  0  0  0  0  0  0  0
    8.1547  -13.0398   18.0848 O   0  0  0  0  0  0  0  0  0  0  0  0
    8.0911  -14.7734   19.6645 C   0  0  2  0  0  0  0  0  0  0  0  0
    7.3090  -15.4786   18.7303 N   0  0  0  0  0  0  0  0  0  0  0  0
    7.9105  -15.1561   21.0662 C   0  0  0  0  0  0  0  0  0  0  0  0
    6.7415  -15.3409   21.4919 O   0  0  0  0  0  0  0  0  0  0  0  0
   11.8853  -18.6610   23.8145 N   0  0  0  0  0  0  0  0  0  0  0  0
   11.0751  -18.5026   24.9585 C   0  0  0  0  0  0  0  0  0  0  0  0
   11.3311  -19.1252   25.9972 O   0  0  0  0  0  0  0  0  0  0  0  0
    9.9105  -17.5711   24.8816 C   0  0  0  0  0  0  0  0  0  0  0  0
    9.9452  -16.9028   23.5397 C   0  0  0  0  0  0  0  0  0  0  0  0
    8.8751  -15.8765   23.2984 C   0  0  2  0  0  0  0  0  0  0  0  0
    9.0129  -15.3220   21.9477 N   0  0  0  0  0  0  0  0  0  0  0  0
    8.9476  -14.7967   24.3074 C   0  0  0  0  0  0  0  0  0  0  0  0
    9.8953  -13.9808   24.2440 O   0  0  0  0  0  0  0  0  0  0  0  0
    6.7122  -11.8371   25.2934 C   0  0  0  0  0  0  0  0  0  0  0  0
    6.8791  -12.7718   26.4615 C   0  0  1  0  0  0  0  0  0  0  0  0
    5.7733  -13.6128   26.5787 O   0  0  0  0  0  0  0  0  0  0  0  0
    8.1551  -13.5894   26.3202 C   0  0  2  0  0  0  0  0  0  0  0  0
    7.9997  -14.6373   25.3429 N   0  0  0  0  0  0  0  0  0  0  0  0
    8.5179  -14.1990   27.6243 C   0  0  0  0  0  0  0  0  0  0  0  0
    8.5608  -15.4355   27.7596 O   0  0  0  0  0  0  0  0  0  0  0  0
    8.8041  -13.3396   28.6749 O   0  0  0  0  0  0  0  0  0  0  0  0
  2  1  1  1
  2  3  1  0
  4  5  1  6
  4  2  1  0
  6  4  1  0
  7  6  2  0
  8  9  1  0
  9 11  1  0
  9 10  2  0
 11 12  1  0
 13 12  1  1
 13 14  1  0
 14  6  1  0
 15 21  1  0
 15 13  1  0
 16 15  2  0
 18 17  1  6
 18 20  1  0
 18 19  1  0
 20 21  1  6
 20 22  1  0
 22 24  1  0
 23 22  2  0
M  END
$$$$
