TQT.pdb
     RDKit          3D

 24 23  0  0  1  0  0  0  0  0999 V2000
    8.5153  -12.0968   19.0509 C   0  0  0  0  0  0  0  0  0  0  0  0
    7.6300  -13.0980   18.3630 C   0  0  1  0  0  0  0  0  0  0  0  0
    6.7983  -12.3870   17.4811 O   0  0  0  0  0  0  0  0  0  0  0  0
    8.5248  -13.9756   17.4989 C   0  0  2  0  0  0  0  0  0  0  0  0
    7.7128  -14.7376   16.6375 N   0  0  0  0  0  0  0  0  0  0  0  0
    9.4961  -14.7300   18.2936 C   0  0  0  0  0  0  0  0  0  0  0  0
    9.1263  -15.8061   18.8294 O   0  0  0  0  0  0  0  0  0  0  0  0
   15.5503  -13.5525   18.1600 N   0  0  0  0  0  0  0  0  0  0  0  0
   15.6082  -14.4992   19.2043 C   0  0  0  0  0  0  0  0  0  0  0  0
   16.6860  -14.7574   19.7554 O   0  0  0  0  0  0  0  0  0  0  0  0
   14.3439  -15.1751   19.6223 C   0  0  0  0  0  0  0  0  0  0  0  0
   13.2158  -14.5541   18.8540 C   0  0  0  0  0  0  0  0  0  0  0  0
   11.8425  -15.0550   19.1996 C   0  0  2  0  0  0  0  0  0  0  0  0
   10.8323  -14.2799   18.4717 N   0  0  0  0  0  0  0  0  0  0  0  0
   11.6048  -14.9687   20.6574 C   0  0  0  0  0  0  0  0  0  0  0  0
   11.7701  -13.8657   21.2267 O   0  0  0  0  0  0  0  0  0  0  0  0
    8.6210  -15.1204   22.7438 C   0  0  0  0  0  0  0  0  0  0  0  0
    9.5340  -16.2135   23.2311 C   0  0  1  0  0  0  0  0  0  0  0  0
    9.1438  -17.4468   22.7110 O   0  0  0  0  0  0  0  0  0  0  0  0
   10.9795  -15.9145   22.8600 C   0  0  2  0  0  0  0  0  0  0  0  0
   11.1993  -16.0700   21.4442 N   0  0  0  0  0  0  0  0  0  0  0  0
   11.8936  -16.8276   23.5911 C   0  0  0  0  0  0  0  0  0  0  0  0
   12.5996  -17.6483   22.9769 O   0  0  0  0  0  0  0  0  0  0  0  0
   11.9267  -16.7277   24.9743 O   0  0  0  0  0  0  0  0  0  0  0  0
  2  1  1  6
  2  3  1  0
  4  5  1  1
  4  2  1  0
  6  4  1  0
  7  6  2  0
  8  9  1  0
  9 11  1  0
  9 10  2  0
 11 12  1  0
 13 12  1  1
 13 14  1  0
 14  6  1  0
 15 21  1  0
 15 13  1  0
 16 15  2  0
 18 17  1  6
 18 20  1  0
 18 19  1  0
 20 21  1  6
 20 22  1  0
 22 24  1  0
 23 22  2  0
M  END
$$$$
