TQT.pdb
     RDKit          3D

 24 23  0  0  1  0  0  0  0  0999 V2000
    6.5950  -15.6664   19.8848 C   0  0  0  0  0  0  0  0  0  0  0  0
    7.7008  -14.8932   19.2225 C   0  0  1  0  0  0  0  0  0  0  0  0
    7.2762  -14.5872   17.9182 O   0  0  0  0  0  0  0  0  0  0  0  0
    7.8285  -13.5659   19.9570 C   0  0  2  0  0  0  0  0  0  0  0  0
    8.4851  -12.6468   19.1167 N   0  0  0  0  0  0  0  0  0  0  0  0
    8.3981  -13.7257   21.2964 C   0  0  0  0  0  0  0  0  0  0  0  0
    9.6488  -13.7868   21.4131 O   0  0  0  0  0  0  0  0  0  0  0  0
    5.2605  -12.2923   26.4028 N   0  0  0  0  0  0  0  0  0  0  0  0
    6.5411  -12.4347   26.9772 C   0  0  0  0  0  0  0  0  0  0  0  0
    6.7795  -11.9662   28.0978 O   0  0  0  0  0  0  0  0  0  0  0  0
    7.5914  -13.1601   26.2022 C   0  0  0  0  0  0  0  0  0  0  0  0
    7.1923  -13.1387   24.7570 C   0  0  0  0  0  0  0  0  0  0  0  0
    8.1274  -13.8425   23.8154 C   0  0  2  0  0  0  0  0  0  0  0  0
    7.5798  -13.8125   22.4552 N   0  0  0  0  0  0  0  0  0  0  0  0
    8.3535  -15.2393   24.2480 C   0  0  0  0  0  0  0  0  0  0  0  0
    7.3837  -16.0313   24.2450 O   0  0  0  0  0  0  0  0  0  0  0  0
   10.2321  -18.0042   22.8351 C   0  0  0  0  0  0  0  0  0  0  0  0
   10.7528  -17.8501   24.2390 C   0  0  1  0  0  0  0  0  0  0  0  0
   11.9856  -17.1990   24.2362 O   0  0  0  0  0  0  0  0  0  0  0  0
    9.7551  -17.0937   25.1045 C   0  0  2  0  0  0  0  0  0  0  0  0
    9.6115  -15.7283   24.6660 N   0  0  0  0  0  0  0  0  0  0  0  0
   10.2008  -17.0989   26.5206 C   0  0  0  0  0  0  0  0  0  0  0  0
   10.5185  -16.0400   27.0923 O   0  0  0  0  0  0  0  0  0  0  0  0
   10.2473  -18.3225   27.1724 O   0  0  0  0  0  0  0  0  0  0  0  0
  2  1  1  1
  2  3  1  0
  4  5  1  6
  4  2  1  0
  6  4  1  0
  7  6  2  0
  8  9  1  0
  9 11  1  0
  9 10  2  0
 11 12  1  0
 13 12  1  1
 13 14  1  0
 14  6  1  0
 15 21  1  0
 15 13  1  0
 16 15  2  0
 18 17  1  6
 18 20  1  0
 18 19  1  0
 20 21  1  6
 20 22  1  0
 22 24  1  0
 23 22  2  0
M  END
$$$$
