TQT.pdb
     RDKit          3D

 24 23  0  0  1  0  0  0  0  0999 V2000
    9.0624  -12.7648   20.1520 C   0  0  0  0  0  0  0  0  0  0  0  0
    8.0583  -13.5233   19.3299 C   0  0  1  0  0  0  0  0  0  0  0  0
    8.3772  -13.3120   17.9776 O   0  0  0  0  0  0  0  0  0  0  0  0
    8.2795  -15.0053   19.5987 C   0  0  2  0  0  0  0  0  0  0  0  0
    7.5465  -15.7492   18.6547 N   0  0  0  0  0  0  0  0  0  0  0  0
    8.0519  -15.3546   21.0023 C   0  0  0  0  0  0  0  0  0  0  0  0
    6.8669  -15.4381   21.4152 O   0  0  0  0  0  0  0  0  0  0  0  0
   11.9739  -18.6876   24.1821 N   0  0  0  0  0  0  0  0  0  0  0  0
   11.0724  -18.5002   25.2507 C   0  0  0  0  0  0  0  0  0  0  0  0
   11.2446  -19.0903   26.3250 O   0  0  0  0  0  0  0  0  0  0  0  0
    9.9148  -17.5781   25.0513 C   0  0  0  0  0  0  0  0  0  0  0  0
   10.0024  -17.0259   23.6599 C   0  0  0  0  0  0  0  0  0  0  0  0
    8.9239  -16.0520   23.2795 C   0  0  2  0  0  0  0  0  0  0  0  0
    9.1268  -15.5988   21.8995 N   0  0  0  0  0  0  0  0  0  0  0  0
    8.9115  -14.8966   24.2036 C   0  0  0  0  0  0  0  0  0  0  0  0
    9.8480  -14.0679   24.1386 O   0  0  0  0  0  0  0  0  0  0  0  0
    6.3641  -11.6880   26.8677 C   0  0  0  0  0  0  0  0  0  0  0  0
    6.4081  -13.0363   26.2000 C   0  0  1  0  0  0  0  0  0  0  0  0
    5.6532  -13.0282   25.0279 O   0  0  0  0  0  0  0  0  0  0  0  0
    7.8440  -13.4450   25.9036 C   0  0  2  0  0  0  0  0  0  0  0  0
    7.8942  -14.6782   25.1595 N   0  0  0  0  0  0  0  0  0  0  0  0
    8.5975  -13.6178   27.1710 C   0  0  0  0  0  0  0  0  0  0  0  0
    9.0609  -14.7280   27.4903 O   0  0  0  0  0  0  0  0  0  0  0  0
    8.7612  -12.5000   27.9758 O   0  0  0  0  0  0  0  0  0  0  0  0
  2  1  1  1
  2  3  1  0
  4  5  1  6
  4  2  1  0
  6  4  1  0
  7  6  2  0
  8  9  1  0
  9 11  1  0
  9 10  2  0
 11 12  1  0
 13 12  1  1
 13 14  1  0
 14  6  1  0
 15 21  1  0
 15 13  1  0
 16 15  2  0
 18 17  1  6
 18 20  1  0
 18 19  1  0
 20 21  1  1
 20 22  1  0
 22 24  1  0
 23 22  2  0
M  END
$$$$
