TQT.pdb
     RDKit          3D

 24 23  0  0  1  0  0  0  0  0999 V2000
    9.1544  -12.4051   18.2901 C   0  0  0  0  0  0  0  0  0  0  0  0
    8.8558  -12.9352   19.6646 C   0  0  1  0  0  0  0  0  0  0  0  0
    7.7350  -12.2391   20.1487 O   0  0  0  0  0  0  0  0  0  0  0  0
    8.4266  -14.3872   19.5068 C   0  0  2  0  0  0  0  0  0  0  0  0
    7.3313  -14.4403   18.6239 N   0  0  0  0  0  0  0  0  0  0  0  0
    8.2392  -15.0537   20.7970 C   0  0  0  0  0  0  0  0  0  0  0  0
    7.0668  -15.2277   21.2176 O   0  0  0  0  0  0  0  0  0  0  0  0
   12.2034  -18.9942   23.1409 N   0  0  0  0  0  0  0  0  0  0  0  0
   11.3976  -18.9346   24.2972 C   0  0  0  0  0  0  0  0  0  0  0  0
   11.6439  -19.6603   25.2692 O   0  0  0  0  0  0  0  0  0  0  0  0
   10.2496  -17.9798   24.3156 C   0  0  0  0  0  0  0  0  0  0  0  0
   10.2363  -17.2527   23.0043 C   0  0  0  0  0  0  0  0  0  0  0  0
    9.1742  -16.2008   22.8566 C   0  0  2  0  0  0  0  0  0  0  0  0
    9.3388  -15.5036   21.5769 N   0  0  0  0  0  0  0  0  0  0  0  0
    9.2312  -15.2374   23.9781 C   0  0  0  0  0  0  0  0  0  0  0  0
   10.1384  -14.3744   23.9803 O   0  0  0  0  0  0  0  0  0  0  0  0
    7.0510  -12.4144   25.1648 C   0  0  0  0  0  0  0  0  0  0  0  0
    7.1425  -13.4553   26.2483 C   0  0  1  0  0  0  0  0  0  0  0  0
    6.0287  -14.2934   26.2187 O   0  0  0  0  0  0  0  0  0  0  0  0
    8.4219  -14.2679   26.1093 C   0  0  2  0  0  0  0  0  0  0  0  0
    8.3120  -15.2402   25.0511 N   0  0  0  0  0  0  0  0  0  0  0  0
    8.7192  -14.9737   27.3810 C   0  0  0  0  0  0  0  0  0  0  0  0
    8.7761  -16.2164   27.4216 O   0  0  0  0  0  0  0  0  0  0  0  0
    8.9287  -14.1964   28.5106 O   0  0  0  0  0  0  0  0  0  0  0  0
  2  1  1  6
  2  3  1  0
  4  5  1  1
  4  2  1  0
  6  4  1  0
  7  6  2  0
  8  9  1  0
  9 11  1  0
  9 10  2  0
 11 12  1  0
 13 12  1  1
 13 14  1  0
 14  6  1  0
 15 21  1  0
 15 13  1  0
 16 15  2  0
 18 17  1  6
 18 20  1  0
 18 19  1  0
 20 21  1  6
 20 22  1  0
 22 24  1  0
 23 22  2  0
M  END
$$$$
