CTW.pdb
     RDKit          3D

 28 29  0  0  1  0  0  0  0  0999 V2000
    7.9386  -14.4567   17.8415 N   0  0  0  0  0  0  0  0  0  0  0  0
    8.4714  -14.0842   19.1356 C   0  0  1  0  0  0  0  0  0  0  0  0
    7.8176  -12.7889   19.6265 C   0  0  0  0  0  0  0  0  0  0  0  0
    8.5233  -12.3928   21.2422 S   0  0  0  0  0  0  0  0  0  0  0  0
    8.3010  -15.1826   20.1239 C   0  0  0  0  0  0  0  0  0  0  0  0
    7.1684  -15.7254   20.2016 O   0  0  0  0  0  0  0  0  0  0  0  0
    9.4384  -18.3891   19.9964 C   0  0  0  0  0  0  0  0  0  0  0  0
    9.9721  -17.8765   21.2902 C   0  0  1  0  0  0  0  0  0  0  0  0
   11.3401  -17.5265   21.1190 O   0  0  0  0  0  0  0  0  0  0  0  0
    9.2298  -16.6849   21.8584 C   0  0  2  0  0  0  0  0  0  0  0  0
    9.3955  -15.5649   20.9194 N   0  0  0  0  0  0  0  0  0  0  0  0
    9.7217  -16.2338   23.1712 C   0  0  0  0  0  0  0  0  0  0  0  0
   10.5707  -15.2687   23.2364 O   0  0  0  0  0  0  0  0  0  0  0  0
    9.3416  -16.7708   24.4289 N   0  0  0  0  0  0  0  0  0  0  0  0
    9.9105  -16.2904   25.6798 C   0  0  1  0  0  0  0  0  0  0  0  0
    8.8443  -16.3159   26.7518 C   0  0  0  0  0  0  0  0  0  0  0  0
    7.6669  -15.5216   26.3654 C   0  0  0  0  0  0  0  0  0  0  0  0
    6.4804  -15.9418   25.7854 C   0  0  0  0  0  0  0  0  0  0  0  0
    5.6977  -14.8624   25.6153 N   0  0  0  0  0  0  0  0  0  0  0  0
    6.3507  -13.7555   26.0717 C   0  0  0  0  0  0  0  0  0  0  0  0
    5.9406  -12.4389   26.1004 C   0  0  0  0  0  0  0  0  0  0  0  0
    6.7759  -11.4711   26.6142 C   0  0  0  0  0  0  0  0  0  0  0  0
    8.0178  -11.8298   27.0961 C   0  0  0  0  0  0  0  0  0  0  0  0
    8.4012  -13.1631   27.0533 C   0  0  0  0  0  0  0  0  0  0  0  0
    7.5907  -14.1490   26.5474 C   0  0  0  0  0  0  0  0  0  0  0  0
   10.9710  -17.2203   26.1005 C   0  0  0  0  0  0  0  0  0  0  0  0
   11.7991  -16.8977   27.1512 O   0  0  0  0  0  0  0  0  0  0  0  0
   11.1369  -18.3151   25.5124 O   0  0  0  0  0  0  0  0  0  0  0  0
  2  1  1  6
  3  2  1  0
  4  3  1  0
  5  2  1  0
  5  6  2  0
  8  7  1  6
  8 10  1  0
  9  8  1  0
 10 11  1  6
 10 12  1  0
 11  5  1  0
 12 14  1  0
 12 13  2  0
 14 15  1  0
 15 26  1  0
 15 16  1  1
 17 18  2  0
 17 16  1  0
 19 18  1  0
 20 25  2  0
 20 19  1  0
 21 20  1  0
 22 23  1  0
 22 21  2  0
 23 24  2  0
 24 25  1  0
 25 17  1  0
 26 27  1  0
 28 26  2  0
M  END
$$$$
