CTW.pdb
     RDKit          3D

 28 29  0  0  1  0  0  0  0  0999 V2000
    7.9882  -14.5111   17.4351 N   0  0  0  0  0  0  0  0  0  0  0  0
    8.4858  -13.9998   18.6954 C   0  0  1  0  0  0  0  0  0  0  0  0
    8.0298  -12.5517   18.8984 C   0  0  0  0  0  0  0  0  0  0  0  0
    8.7212  -11.9699   20.4633 S   0  0  0  0  0  0  0  0  0  0  0  0
    8.0626  -14.8627   19.8305 C   0  0  0  0  0  0  0  0  0  0  0  0
    6.8277  -15.0212   20.0126 O   0  0  0  0  0  0  0  0  0  0  0  0
    7.7310  -18.0480   20.1235 C   0  0  0  0  0  0  0  0  0  0  0  0
    8.6477  -17.7541   21.2614 C   0  0  1  0  0  0  0  0  0  0  0  0
    9.9785  -18.0777   20.8774 O   0  0  0  0  0  0  0  0  0  0  0  0
    8.6150  -16.3218   21.7526 C   0  0  2  0  0  0  0  0  0  0  0  0
    9.0443  -15.4578   20.6423 N   0  0  0  0  0  0  0  0  0  0  0  0
    9.5088  -16.0507   22.8911 C   0  0  0  0  0  0  0  0  0  0  0  0
   10.6743  -15.5469   22.6806 O   0  0  0  0  0  0  0  0  0  0  0  0
    9.2093  -16.2934   24.2572 N   0  0  0  0  0  0  0  0  0  0  0  0
   10.2201  -16.1975   25.3004 C   0  0  1  0  0  0  0  0  0  0  0  0
    9.6227  -15.5116   26.5084 C   0  0  0  0  0  0  0  0  0  0  0  0
    8.1989  -15.1983   26.3059 C   0  0  0  0  0  0  0  0  0  0  0  0
    7.1479  -16.0536   26.0146 C   0  0  0  0  0  0  0  0  0  0  0  0
    6.0281  -15.3163   25.9200 N   0  0  0  0  0  0  0  0  0  0  0  0
    6.3311  -14.0055   26.1434 C   0  0  0  0  0  0  0  0  0  0  0  0
    5.5082  -12.8986   26.1480 C   0  0  0  0  0  0  0  0  0  0  0  0
    6.0367  -11.6517   26.4016 C   0  0  0  0  0  0  0  0  0  0  0  0
    7.3878  -11.5226   26.6490 C   0  0  0  0  0  0  0  0  0  0  0  0
    8.1893  -12.6557   26.6373 C   0  0  0  0  0  0  0  0  0  0  0  0
    7.6913  -13.9105   26.3879 C   0  0  0  0  0  0  0  0  0  0  0  0
   10.5960  -17.5585   25.7159 C   0  0  0  0  0  0  0  0  0  0  0  0
   11.6475  -17.7532   26.5820 O   0  0  0  0  0  0  0  0  0  0  0  0
    9.9686  -18.5571   25.2904 O   0  0  0  0  0  0  0  0  0  0  0  0
  2  1  1  6
  3  2  1  0
  4  3  1  0
  5  2  1  0
  5  6  2  0
  8  7  1  6
  8 10  1  0
  9  8  1  0
 10 11  1  6
 10 12  1  0
 11  5  1  0
 12 14  1  0
 12 13  2  0
 14 15  1  0
 15 26  1  0
 15 16  1  1
 17 18  2  0
 17 16  1  0
 19 18  1  0
 20 25  2  0
 20 19  1  0
 21 20  1  0
 22 23  1  0
 22 21  2  0
 23 24  2  0
 24 25  1  0
 25 17  1  0
 26 27  1  0
 28 26  2  0
M  END
$$$$
