CTW.pdb
     RDKit          3D

 28 29  0  0  1  0  0  0  0  0999 V2000
    8.2804  -14.3468   17.0560 N   0  0  0  0  0  0  0  0  0  0  0  0
    8.7515  -14.0378   18.3901 C   0  0  1  0  0  0  0  0  0  0  0  0
    8.1787  -12.6967   18.8585 C   0  0  0  0  0  0  0  0  0  0  0  0
    8.8610  -12.3467   20.4948 S   0  0  0  0  0  0  0  0  0  0  0  0
    8.4186  -15.1293   19.3442 C   0  0  0  0  0  0  0  0  0  0  0  0
    7.4909  -15.9177   19.0263 O   0  0  0  0  0  0  0  0  0  0  0  0
    8.7598  -17.8949   19.3372 C   0  0  0  0  0  0  0  0  0  0  0  0
    9.4574  -17.6240   20.6262 C   0  0  1  0  0  0  0  0  0  0  0  0
   10.8452  -17.4453   20.3712 O   0  0  0  0  0  0  0  0  0  0  0  0
    8.9415  -16.4220   21.3896 C   0  0  2  0  0  0  0  0  0  0  0  0
    9.1429  -15.2349   20.5447 N   0  0  0  0  0  0  0  0  0  0  0  0
    9.6306  -16.1737   22.6672 C   0  0  0  0  0  0  0  0  0  0  0  0
   10.7057  -15.4665   22.6846 O   0  0  0  0  0  0  0  0  0  0  0  0
    9.2170  -16.6494   23.9390 N   0  0  0  0  0  0  0  0  0  0  0  0
    9.8753  -16.2388   25.1708 C   0  0  1  0  0  0  0  0  0  0  0  0
    8.8886  -16.3258   26.3134 C   0  0  0  0  0  0  0  0  0  0  0  0
    7.6692  -15.5489   26.0378 C   0  0  0  0  0  0  0  0  0  0  0  0
    6.4316  -15.9906   25.5973 C   0  0  0  0  0  0  0  0  0  0  0  0
    5.6249  -14.9210   25.4884 N   0  0  0  0  0  0  0  0  0  0  0  0
    6.3123  -13.7994   25.8482 C   0  0  0  0  0  0  0  0  0  0  0  0
    5.8951  -12.4855   25.8920 C   0  0  0  0  0  0  0  0  0  0  0  0
    6.7712  -11.5003   26.2923 C   0  0  0  0  0  0  0  0  0  0  0  0
    8.0608  -11.8391   26.6464 C   0  0  0  0  0  0  0  0  0  0  0  0
    8.4501  -13.1703   26.5918 C   0  0  0  0  0  0  0  0  0  0  0  0
    7.5997  -14.1732   26.1971 C   0  0  0  0  0  0  0  0  0  0  0  0
   10.9609  -17.1891   25.4618 C   0  0  0  0  0  0  0  0  0  0  0  0
   11.8848  -16.9072   26.4418 O   0  0  0  0  0  0  0  0  0  0  0  0
   11.0616  -18.2649   24.8256 O   0  0  0  0  0  0  0  0  0  0  0  0
  2  1  1  6
  3  2  1  0
  4  3  1  0
  5  2  1  0
  5  6  2  0
  8  7  1  6
  8 10  1  0
  9  8  1  0
 10 11  1  6
 10 12  1  0
 11  5  1  0
 12 14  1  0
 12 13  2  0
 14 15  1  0
 15 26  1  0
 15 16  1  1
 17 18  2  0
 17 16  1  0
 19 18  1  0
 20 25  2  0
 20 19  1  0
 21 20  1  0
 22 23  1  0
 22 21  2  0
 23 24  2  0
 24 25  1  0
 25 17  1  0
 26 27  1  0
 28 26  2  0
M  END
$$$$
