CTW.pdb
     RDKit          3D

 28 29  0  0  1  0  0  0  0  0999 V2000
    7.9605  -14.5973   17.0033 N   0  0  0  0  0  0  0  0  0  0  0  0
    8.4223  -14.2784   18.3384 C   0  0  1  0  0  0  0  0  0  0  0  0
    7.7706  -12.9825   18.8305 C   0  0  0  0  0  0  0  0  0  0  0  0
    8.9279  -12.1778   19.9611 S   0  0  0  0  0  0  0  0  0  0  0  0
    8.1661  -15.4019   19.2788 C   0  0  0  0  0  0  0  0  0  0  0  0
    7.2807  -16.2374   18.9603 O   0  0  0  0  0  0  0  0  0  0  0  0
    8.2704  -18.0838   19.3394 C   0  0  0  0  0  0  0  0  0  0  0  0
    9.0282  -17.8885   20.6079 C   0  0  1  0  0  0  0  0  0  0  0  0
   10.4206  -17.8847   20.3178 O   0  0  0  0  0  0  0  0  0  0  0  0
    8.6835  -16.6248   21.3681 C   0  0  2  0  0  0  0  0  0  0  0  0
    8.9121  -15.4843   20.4677 N   0  0  0  0  0  0  0  0  0  0  0  0
    9.4977  -16.4018   22.5748 C   0  0  0  0  0  0  0  0  0  0  0  0
   10.5687  -15.6922   22.4989 O   0  0  0  0  0  0  0  0  0  0  0  0
    9.2147  -16.9055   23.8713 N   0  0  0  0  0  0  0  0  0  0  0  0
   10.0151  -16.5465   25.0331 C   0  0  1  0  0  0  0  0  0  0  0  0
    9.7042  -15.1204   25.4282 C   0  0  0  0  0  0  0  0  0  0  0  0
    8.2595  -14.9125   25.6185 C   0  0  0  0  0  0  0  0  0  0  0  0
    7.2215  -15.8230   25.4982 C   0  0  0  0  0  0  0  0  0  0  0  0
    6.0727  -15.1789   25.7664 N   0  0  0  0  0  0  0  0  0  0  0  0
    6.3443  -13.8744   26.0569 C   0  0  0  0  0  0  0  0  0  0  0  0
    5.4854  -12.8478   26.3900 C   0  0  0  0  0  0  0  0  0  0  0  0
    5.9863  -11.5903   26.6469 C   0  0  0  0  0  0  0  0  0  0  0  0
    7.3459  -11.3699   26.5682 C   0  0  0  0  0  0  0  0  0  0  0  0
    8.1839  -12.4237   26.2307 C   0  0  0  0  0  0  0  0  0  0  0  0
    7.7140  -13.6869   25.9693 C   0  0  0  0  0  0  0  0  0  0  0  0
    9.6174  -17.4055   26.1602 C   0  0  0  0  0  0  0  0  0  0  0  0
   10.2596  -17.2996   27.3726 O   0  0  0  0  0  0  0  0  0  0  0  0
    8.6927  -18.2430   26.0355 O   0  0  0  0  0  0  0  0  0  0  0  0
  2  1  1  6
  3  2  1  0
  4  3  1  0
  5  2  1  0
  5  6  2  0
  8  7  1  6
  8 10  1  0
  9  8  1  0
 10 11  1  6
 10 12  1  0
 11  5  1  0
 12 14  1  0
 12 13  2  0
 14 15  1  0
 15 26  1  0
 15 16  1  1
 17 18  2  0
 17 16  1  0
 19 18  1  0
 20 25  2  0
 20 19  1  0
 21 20  1  0
 22 23  1  0
 22 21  2  0
 23 24  2  0
 24 25  1  0
 25 17  1  0
 26 27  1  0
 28 26  2  0
M  END
$$$$
