CTW.pdb
     RDKit          3D

 28 29  0  0  1  0  0  0  0  0999 V2000
    8.3366  -14.4010   16.9971 N   0  0  0  0  0  0  0  0  0  0  0  0
    8.7023  -14.0533   18.3545 C   0  0  1  0  0  0  0  0  0  0  0  0
    8.0231  -12.7445   18.7690 C   0  0  0  0  0  0  0  0  0  0  0  0
    8.5669  -12.3478   20.4460 S   0  0  0  0  0  0  0  0  0  0  0  0
    8.3734  -15.1543   19.2989 C   0  0  0  0  0  0  0  0  0  0  0  0
    7.5132  -15.9970   18.9339 O   0  0  0  0  0  0  0  0  0  0  0  0
    8.4743  -17.7685   19.3117 C   0  0  0  0  0  0  0  0  0  0  0  0
    9.1911  -17.6133   20.6093 C   0  0  1  0  0  0  0  0  0  0  0  0
   10.5916  -17.5867   20.3626 O   0  0  0  0  0  0  0  0  0  0  0  0
    8.8109  -16.3814   21.4040 C   0  0  2  0  0  0  0  0  0  0  0  0
    9.0269  -15.2087   20.5427 N   0  0  0  0  0  0  0  0  0  0  0  0
    9.6054  -16.1800   22.6274 C   0  0  0  0  0  0  0  0  0  0  0  0
   10.6796  -15.4727   22.5806 O   0  0  0  0  0  0  0  0  0  0  0  0
    9.2992  -16.7030   23.9110 N   0  0  0  0  0  0  0  0  0  0  0  0
   10.1149  -16.4108   25.0809 C   0  0  1  0  0  0  0  0  0  0  0  0
    9.7683  -15.0318   25.5954 C   0  0  0  0  0  0  0  0  0  0  0  0
    8.3149  -14.8604   25.7523 C   0  0  0  0  0  0  0  0  0  0  0  0
    7.2987  -15.7806   25.5487 C   0  0  0  0  0  0  0  0  0  0  0  0
    6.1301  -15.1731   25.8171 N   0  0  0  0  0  0  0  0  0  0  0  0
    6.3678  -13.8827   26.1891 C   0  0  0  0  0  0  0  0  0  0  0  0
    5.4798  -12.8920   26.5528 C   0  0  0  0  0  0  0  0  0  0  0  0
    5.9484  -11.6425   26.8957 C   0  0  0  0  0  0  0  0  0  0  0  0
    7.3053  -11.3943   26.8718 C   0  0  0  0  0  0  0  0  0  0  0  0
    8.1731  -12.4122   26.5014 C   0  0  0  0  0  0  0  0  0  0  0  0
    7.7356  -13.6665   26.1547 C   0  0  0  0  0  0  0  0  0  0  0  0
    9.7712  -17.3694   26.1436 C   0  0  0  0  0  0  0  0  0  0  0  0
   10.4424  -17.3428   27.3446 O   0  0  0  0  0  0  0  0  0  0  0  0
    8.8668  -18.2210   25.9736 O   0  0  0  0  0  0  0  0  0  0  0  0
  2  1  1  6
  3  2  1  0
  4  3  1  0
  5  2  1  0
  5  6  2  0
  8  7  1  6
  8 10  1  0
  9  8  1  0
 10 11  1  6
 10 12  1  0
 11  5  1  0
 12 14  1  0
 12 13  2  0
 14 15  1  0
 15 26  1  0
 15 16  1  1
 17 18  2  0
 17 16  1  0
 19 18  1  0
 20 25  2  0
 20 19  1  0
 21 20  1  0
 22 23  1  0
 22 21  2  0
 23 24  2  0
 24 25  1  0
 25 17  1  0
 26 27  1  0
 28 26  2  0
M  END
$$$$
