CTW.pdb
     RDKit          3D

 28 29  0  0  1  0  0  0  0  0999 V2000
    8.0647  -14.5163   17.3512 N   0  0  0  0  0  0  0  0  0  0  0  0
    8.3686  -14.0700   18.6950 C   0  0  1  0  0  0  0  0  0  0  0  0
    7.5547  -12.8180   19.0358 C   0  0  0  0  0  0  0  0  0  0  0  0
    8.0346  -12.2824   20.6935 S   0  0  0  0  0  0  0  0  0  0  0  0
    8.1335  -15.1528   19.6873 C   0  0  0  0  0  0  0  0  0  0  0  0
    7.1274  -15.8893   19.5180 O   0  0  0  0  0  0  0  0  0  0  0  0
    8.3956  -18.0529   19.8419 C   0  0  0  0  0  0  0  0  0  0  0  0
    9.2049  -17.6958   21.0416 C   0  0  1  0  0  0  0  0  0  0  0  0
   10.5747  -17.6157   20.6670 O   0  0  0  0  0  0  0  0  0  0  0  0
    8.8059  -16.4004   21.7170 C   0  0  2  0  0  0  0  0  0  0  0  0
    9.0312  -15.3078   20.7583 N   0  0  0  0  0  0  0  0  0  0  0  0
    9.5787  -16.0862   22.9305 C   0  0  0  0  0  0  0  0  0  0  0  0
   10.7159  -15.4926   22.8261 O   0  0  0  0  0  0  0  0  0  0  0  0
    9.1860  -16.3780   24.2629 N   0  0  0  0  0  0  0  0  0  0  0  0
   10.0709  -16.1556   25.3973 C   0  0  1  0  0  0  0  0  0  0  0  0
    9.2382  -15.9024   26.6339 C   0  0  0  0  0  0  0  0  0  0  0  0
    7.9442  -15.2855   26.3000 C   0  0  0  0  0  0  0  0  0  0  0  0
    6.8003  -15.8759   25.7864 C   0  0  0  0  0  0  0  0  0  0  0  0
    5.8678  -14.9183   25.6452 N   0  0  0  0  0  0  0  0  0  0  0  0
    6.3825  -13.7237   26.0553 C   0  0  0  0  0  0  0  0  0  0  0  0
    5.7954  -12.4761   26.0908 C   0  0  0  0  0  0  0  0  0  0  0  0
    6.5125  -11.3932   26.5503 C   0  0  0  0  0  0  0  0  0  0  0  0
    7.8146  -11.5681   26.9715 C   0  0  0  0  0  0  0  0  0  0  0  0
    8.3769  -12.8362   26.9234 C   0  0  0  0  0  0  0  0  0  0  0  0
    7.6872  -13.9336   26.4708 C   0  0  0  0  0  0  0  0  0  0  0  0
   10.8428  -17.3854   25.6383 C   0  0  0  0  0  0  0  0  0  0  0  0
   10.5893  -18.5187   24.9002 O   0  0  0  0  0  0  0  0  0  0  0  0
   11.7387  -17.4209   26.5148 O   0  0  0  0  0  0  0  0  0  0  0  0
  2  1  1  6
  3  2  1  0
  4  3  1  0
  5  2  1  0
  5  6  2  0
  8  7  1  6
  8 10  1  0
  9  8  1  0
 10 11  1  6
 10 12  1  0
 11  5  1  0
 12 14  1  0
 12 13  2  0
 14 15  1  0
 15 26  1  0
 15 16  1  1
 17 18  2  0
 17 16  1  0
 19 18  1  0
 20 25  2  0
 20 19  1  0
 21 20  1  0
 22 23  1  0
 22 21  2  0
 23 24  2  0
 24 25  1  0
 25 17  1  0
 26 27  1  0
 28 26  2  0
M  END
$$$$
