RIH.pdb
     RDKit          3D

 30 30  0  0  1  0  0  0  0  0999 V2000
    8.6165  -19.0951   18.2893 N   0  0  0  0  0  0  0  0  0  0  0  0
    7.3139  -19.6285   18.0184 C   0  0  0  0  0  0  0  0  0  0  0  0
    7.0031  -19.9356   16.8240 N   0  0  0  0  0  0  0  0  0  0  0  0
    6.4025  -19.7999   19.1027 N   0  0  0  0  0  0  0  0  0  0  0  0
    6.7023  -19.1726   20.3502 C   0  0  0  0  0  0  0  0  0  0  0  0
    7.1470  -17.7805   20.3873 C   0  0  0  0  0  0  0  0  0  0  0  0
    7.2964  -16.9933   21.6042 C   0  0  0  0  0  0  0  0  0  0  0  0
    7.6593  -15.5619   21.4654 C   0  0  2  0  0  0  0  0  0  0  0  0
    8.7730  -15.3960   20.5871 N   0  0  0  0  0  0  0  0  0  0  0  0
    8.0862  -15.0146   22.8316 C   0  0  0  0  0  0  0  0  0  0  0  0
    9.2401  -15.2692   23.1810 O   0  0  0  0  0  0  0  0  0  0  0  0
    6.1256  -20.3740   16.5217 C   0  0  0  0  0  0  0  0  0  0  0  0
    6.7423  -10.4491   26.6554 C   0  0  0  0  0  0  0  0  0  0  0  0
    7.3938  -11.8437   26.5953 C   0  0  2  0  0  0  0  0  0  0  0  0
    7.0328  -12.4249   25.2877 C   0  0  0  0  0  0  0  0  0  0  0  0
    5.4967  -12.4821   25.2358 C   0  0  2  0  0  0  0  0  0  0  0  0
    7.5080  -13.7786   24.9466 N   0  0  0  0  0  0  0  0  0  0  0  0
    7.1921  -14.2634   23.6283 C   0  0  0  0  0  0  0  0  0  0  0  0
    7.3879  -14.8046   26.0164 O   0  0  0  0  0  0  0  0  0  0  0  0
    6.2783  -15.0703   26.5634 N   0  0  0  0  0  0  0  0  0  0  0  0
    8.5009  -15.5272   26.4753 C   0  0  1  0  0  0  0  0  0  0  0  0
    8.4795  -16.9299   26.8390 C   0  0  0  0  0  0  0  0  0  0  0  0
    8.0215  -17.8200   25.7544 C   0  0  0  0  0  0  0  0  0  0  0  0
    8.0211  -19.2241   26.1943 C   0  0  0  0  0  0  0  0  0  0  0  0
    8.2999  -19.6436   27.4927 N   0  0  0  0  0  0  0  0  0  0  0  0
    8.2163  -20.9857   27.5624 C   0  0  0  0  0  0  0  0  0  0  0  0
    7.8907  -21.4223   26.3361 N   0  0  0  0  0  0  0  0  0  0  0  0
    7.7763  -20.3592   25.5250 C   0  0  0  0  0  0  0  0  0  0  0  0
    9.8073  -17.3482   27.3343 O   0  0  0  0  0  0  0  0  0  0  0  0
    9.8633  -18.2853   28.3891 O   0  0  0  0  0  0  0  0  0  0  0  0
  1  2  1  0
  2  4  1  0
  2  3  2  0
  4  5  1  0
  5  6  1  0
  7  8  1  0
  7  6  1  0
  8 10  1  0
  8  9  1  6
 10 11  2  0
 12 13  1  0
 14 13  1  0
 14 16  1  0
 14 15  1  6
 16 18  1  0
 16 17  1  1
 17 10  1  0
 18 20  1  0
 19 18  2  0
 20 21  1  0
 21 22  1  1
 22 23  1  0
 23 24  2  0
 24 25  1  0
 26 25  1  0
 27 23  1  0
 27 26  2  0
 28 29  1  0
 28 21  1  0
 30 28  2  0
M  END
$$$$
