RIH.pdb
     RDKit          3D

 30 30  0  0  1  0  0  0  0  0999 V2000
    8.6549  -15.5616   16.5870 N   0  0  0  0  0  0  0  0  0  0  0  0
    7.7154  -14.4982   16.3839 C   0  0  0  0  0  0  0  0  0  0  0  0
    7.5492  -14.0295   15.2134 N   0  0  0  0  0  0  0  0  0  0  0  0
    6.9918  -13.9969   17.5068 N   0  0  0  0  0  0  0  0  0  0  0  0
    6.4236  -14.9328   18.4239 C   0  0  0  0  0  0  0  0  0  0  0  0
    7.2879  -15.7486   19.2749 C   0  0  0  0  0  0  0  0  0  0  0  0
    7.5503  -15.4816   20.6830 C   0  0  0  0  0  0  0  0  0  0  0  0
    8.6030  -14.4921   21.0181 C   0  0  2  0  0  0  0  0  0  0  0  0
    9.8015  -14.7473   20.2847 N   0  0  0  0  0  0  0  0  0  0  0  0
    8.9573  -14.6152   22.5039 C   0  0  0  0  0  0  0  0  0  0  0  0
   10.0858  -15.0393   22.7587 O   0  0  0  0  0  0  0  0  0  0  0  0
    6.9027  -13.2771   14.9499 C   0  0  0  0  0  0  0  0  0  0  0  0
    5.4333  -11.9516   25.9086 C   0  0  0  0  0  0  0  0  0  0  0  0
    6.7553  -12.1319   25.1388 C   0  0  2  0  0  0  0  0  0  0  0  0
    7.4285  -13.3090   25.7211 C   0  0  0  0  0  0  0  0  0  0  0  0
    8.2275  -12.8080   26.9361 C   0  0  1  0  0  0  0  0  0  0  0  0
    8.3755  -14.0787   24.8932 N   0  0  0  0  0  0  0  0  0  0  0  0
    8.0283  -14.2572   23.5074 C   0  0  0  0  0  0  0  0  0  0  0  0
    8.9749  -15.2819   25.5295 O   0  0  0  0  0  0  0  0  0  0  0  0
    8.2777  -16.2941   25.8298 N   0  0  0  0  0  0  0  0  0  0  0  0
   10.3442  -15.3529   25.8319 C   0  0  2  0  0  0  0  0  0  0  0  0
   10.9973  -16.5002   26.4297 C   0  0  0  0  0  0  0  0  0  0  0  0
   10.2313  -17.1155   27.5310 C   0  0  0  0  0  0  0  0  0  0  0  0
   10.3234  -16.3001   28.7524 C   0  0  0  0  0  0  0  0  0  0  0  0
   10.9937  -15.0824   28.8387 N   0  0  0  0  0  0  0  0  0  0  0  0
   10.8891  -14.5960   30.0899 C   0  0  0  0  0  0  0  0  0  0  0  0
   10.1673  -15.4803   30.7951 N   0  0  0  0  0  0  0  0  0  0  0  0
    9.8338  -16.4965   29.9845 C   0  0  0  0  0  0  0  0  0  0  0  0
   11.3186  -17.5017   25.3918 O   0  0  0  0  0  0  0  0  0  0  0  0
   10.2640  -18.2745   24.8583 O   0  0  0  0  0  0  0  0  0  0  0  0
  1  2  1  0
  2  4  1  0
  2  3  2  0
  4  5  1  0
  5  6  1  0
  7  8  1  0
  7  6  1  0
  8 10  1  0
  8  9  1  6
 10 11  2  0
 12 13  1  0
 14 13  1  0
 14 16  1  0
 14 15  1  6
 16 18  1  0
 16 17  1  6
 17 10  1  0
 18 20  1  0
 19 18  2  0
 20 21  1  0
 21 22  1  1
 22 23  1  0
 23 24  2  0
 24 25  1  0
 26 25  1  0
 27 23  1  0
 27 26  2  0
 28 29  1  0
 28 21  1  0
 30 28  2  0
M  END
$$$$
