RIH.pdb
     RDKit          3D

 30 30  0  0  1  0  0  0  0  0999 V2000
    9.0667  -22.2300   18.3274 N   0  0  0  0  0  0  0  0  0  0  0  0
    7.7025  -22.2430   17.8877 C   0  0  0  0  0  0  0  0  0  0  0  0
    6.9034  -23.1104   18.3634 N   0  0  0  0  0  0  0  0  0  0  0  0
    7.2814  -21.2767   16.9260 N   0  0  0  0  0  0  0  0  0  0  0  0
    8.2276  -20.3060   16.4764 C   0  0  0  0  0  0  0  0  0  0  0  0
    8.9449  -19.4738   17.4408 C   0  0  0  0  0  0  0  0  0  0  0  0
    9.9292  -18.4599   17.0858 C   0  0  0  0  0  0  0  0  0  0  0  0
    9.4640  -17.0585   16.9473 C   0  0  2  0  0  0  0  0  0  0  0  0
   10.2430  -16.3505   15.9823 N   0  0  0  0  0  0  0  0  0  0  0  0
    9.6459  -16.3316   18.2841 C   0  0  0  0  0  0  0  0  0  0  0  0
   10.8073  -16.0819   18.6115 O   0  0  0  0  0  0  0  0  0  0  0  0
    5.8921  -23.1576   18.1939 C   0  0  0  0  0  0  0  0  0  0  0  0
    8.1232  -12.4057   19.7435 C   0  0  0  0  0  0  0  0  0  0  0  0
    7.0010  -13.4531   19.8714 C   0  0  1  0  0  0  0  0  0  0  0  0
    7.4992  -14.4998   20.7848 C   0  0  0  0  0  0  0  0  0  0  0  0
    7.9407  -13.7894   22.0756 C   0  0  2  0  0  0  0  0  0  0  0  0
    8.6373  -15.3383   20.3652 N   0  0  0  0  0  0  0  0  0  0  0  0
    8.5322  -15.9773   19.0793 C   0  0  0  0  0  0  0  0  0  0  0  0
    9.2470  -16.1914   21.4198 O   0  0  0  0  0  0  0  0  0  0  0  0
    8.5972  -17.1177   21.9861 N   0  0  0  0  0  0  0  0  0  0  0  0
   10.5736  -16.0090   21.8421 C   0  0  1  0  0  0  0  0  0  0  0  0
   11.1919  -16.7174   22.9449 C   0  0  0  0  0  0  0  0  0  0  0  0
   12.6666  -16.7357   22.8897 C   0  0  0  0  0  0  0  0  0  0  0  0
   13.1391  -17.6007   21.7971 C   0  0  0  0  0  0  0  0  0  0  0  0
   12.3261  -18.4652   21.0682 N   0  0  0  0  0  0  0  0  0  0  0  0
   13.0644  -19.1102   20.1452 C   0  0  0  0  0  0  0  0  0  0  0  0
   14.3257  -18.6715   20.2758 N   0  0  0  0  0  0  0  0  0  0  0  0
   14.3589  -17.7680   21.2676 C   0  0  0  0  0  0  0  0  0  0  0  0
   10.7228  -16.1648   24.2325 O   0  0  0  0  0  0  0  0  0  0  0  0
   11.1604  -16.7819   25.4248 O   0  0  0  0  0  0  0  0  0  0  0  0
  1  2  1  0
  2  4  1  0
  2  3  2  0
  4  5  1  0
  5  6  1  0
  7  8  1  0
  7  6  1  0
  8 10  1  0
  8  9  1  6
 10 11  2  0
 12 13  1  0
 14 13  1  0
 14 16  1  0
 14 15  1  1
 16 18  1  0
 16 17  1  6
 17 10  1  0
 18 20  1  0
 19 18  2  0
 20 21  1  0
 21 22  1  1
 22 23  1  0
 23 24  2  0
 24 25  1  0
 26 25  1  0
 27 23  1  0
 27 26  2  0
 28 29  1  0
 28 21  1  0
 30 28  2  0
M  END
$$$$
