RIH.pdb
     RDKit          3D

 30 30  0  0  1  0  0  0  0  0999 V2000
    9.4312  -18.3685   18.8760 N   0  0  0  0  0  0  0  0  0  0  0  0
    8.2016  -18.4812   18.1479 C   0  0  0  0  0  0  0  0  0  0  0  0
    7.8173  -19.6258   17.7487 N   0  0  0  0  0  0  0  0  0  0  0  0
    7.4429  -17.2998   17.8935 N   0  0  0  0  0  0  0  0  0  0  0  0
    8.0397  -16.0333   18.1754 C   0  0  0  0  0  0  0  0  0  0  0  0
    7.6060  -15.2558   19.3350 C   0  0  0  0  0  0  0  0  0  0  0  0
    8.3303  -15.1810   20.5970 C   0  0  0  0  0  0  0  0  0  0  0  0
    7.7557  -15.8831   21.7703 C   0  0  2  0  0  0  0  0  0  0  0  0
    6.3440  -15.6828   21.8495 N   0  0  0  0  0  0  0  0  0  0  0  0
    8.3591  -15.3003   23.0528 C   0  0  0  0  0  0  0  0  0  0  0  0
    9.5872  -15.2025   23.0781 O   0  0  0  0  0  0  0  0  0  0  0  0
    6.9786  -19.8207   17.1899 C   0  0  0  0  0  0  0  0  0  0  0  0
    5.6441  -11.6448   26.1711 C   0  0  0  0  0  0  0  0  0  0  0  0
    6.8613  -12.2173   25.4202 C   0  0  2  0  0  0  0  0  0  0  0  0
    7.2520  -13.4535   26.1252 C   0  0  0  0  0  0  0  0  0  0  0  0
    8.0984  -13.0258   27.3361 C   0  0  2  0  0  0  0  0  0  0  0  0
    8.0424  -14.4712   25.4080 N   0  0  0  0  0  0  0  0  0  0  0  0
    7.5362  -14.9042   24.1317 C   0  0  0  0  0  0  0  0  0  0  0  0
    8.6110  -15.5655   26.2394 O   0  0  0  0  0  0  0  0  0  0  0  0
    7.8726  -16.4063   26.8298 N   0  0  0  0  0  0  0  0  0  0  0  0
    9.9959  -15.7177   26.4132 C   0  0  1  0  0  0  0  0  0  0  0  0
   10.6252  -16.8518   27.0599 C   0  0  0  0  0  0  0  0  0  0  0  0
   11.9561  -17.1852   26.5160 C   0  0  0  0  0  0  0  0  0  0  0  0
   12.5849  -18.2638   27.2947 C   0  0  0  0  0  0  0  0  0  0  0  0
   13.3282  -18.0676   28.4559 N   0  0  0  0  0  0  0  0  0  0  0  0
   13.7628  -19.2543   28.9209 C   0  0  0  0  0  0  0  0  0  0  0  0
   13.3098  -20.1951   28.0782 N   0  0  0  0  0  0  0  0  0  0  0  0
   12.6058  -19.5909   27.1085 C   0  0  0  0  0  0  0  0  0  0  0  0
   10.6959  -16.6315   28.5192 O   0  0  0  0  0  0  0  0  0  0  0  0
   10.6603  -17.7589   29.3687 O   0  0  0  0  0  0  0  0  0  0  0  0
  1  2  1  0
  2  4  1  0
  2  3  2  0
  4  5  1  0
  5  6  1  0
  7  8  1  0
  7  6  1  0
  8 10  1  0
  8  9  1  1
 10 11  2  0
 12 13  1  0
 14 13  1  0
 14 16  1  0
 14 15  1  6
 16 18  1  0
 16 17  1  6
 17 10  1  0
 18 20  1  0
 19 18  2  0
 20 21  1  0
 21 22  1  1
 22 23  1  0
 23 24  2  0
 24 25  1  0
 26 25  1  0
 27 23  1  0
 27 26  2  0
 28 29  1  0
 28 21  1  0
 30 28  2  0
M  END
$$$$
