RIH.pdb
     RDKit          3D

 30 30  0  0  1  0  0  0  0  0999 V2000
    9.2591  -16.0439   15.8068 N   0  0  0  0  0  0  0  0  0  0  0  0
    7.8579  -16.3276   15.7034 C   0  0  0  0  0  0  0  0  0  0  0  0
    7.4745  -17.3311   15.0227 N   0  0  0  0  0  0  0  0  0  0  0  0
    6.9324  -15.4716   16.3716 N   0  0  0  0  0  0  0  0  0  0  0  0
    7.4446  -14.3801   17.1372 C   0  0  0  0  0  0  0  0  0  0  0  0
    8.3527  -14.6264   18.2561 C   0  0  0  0  0  0  0  0  0  0  0  0
    7.9416  -14.7044   19.6517 C   0  0  0  0  0  0  0  0  0  0  0  0
    7.9547  -13.4549   20.4506 C   0  0  2  0  0  0  0  0  0  0  0  0
    8.8718  -12.5053   19.9060 N   0  0  0  0  0  0  0  0  0  0  0  0
    8.4335  -13.7693   21.8720 C   0  0  0  0  0  0  0  0  0  0  0  0
    9.5144  -14.3538   21.9629 O   0  0  0  0  0  0  0  0  0  0  0  0
    6.5020  -17.6215   14.8697 C   0  0  0  0  0  0  0  0  0  0  0  0
    5.7996  -11.5506   26.4905 C   0  0  0  0  0  0  0  0  0  0  0  0
    6.7830  -11.8329   25.3389 C   0  0  2  0  0  0  0  0  0  0  0  0
    7.1308  -13.2648   25.4191 C   0  0  0  0  0  0  0  0  0  0  0  0
    7.9511  -13.4513   26.7067 C   0  0  1  0  0  0  0  0  0  0  0  0
    7.9215  -13.8747   24.3340 N   0  0  0  0  0  0  0  0  0  0  0  0
    7.6640  -13.4009   22.9991 C   0  0  0  0  0  0  0  0  0  0  0  0
    8.1385  -15.3431   24.4265 O   0  0  0  0  0  0  0  0  0  0  0  0
    7.8452  -16.1215   23.4731 N   0  0  0  0  0  0  0  0  0  0  0  0
    8.6766  -15.9393   25.5783 C   0  0  1  0  0  0  0  0  0  0  0  0
    9.7194  -16.9457   25.5745 C   0  0  0  0  0  0  0  0  0  0  0  0
   10.9227  -16.5543   24.8149 C   0  0  0  0  0  0  0  0  0  0  0  0
   10.8695  -17.0807   23.4418 C   0  0  0  0  0  0  0  0  0  0  0  0
    9.7992  -17.7982   22.9135 N   0  0  0  0  0  0  0  0  0  0  0  0
   10.0653  -18.1334   21.6368 C   0  0  0  0  0  0  0  0  0  0  0  0
   11.2804  -17.6430   21.3480 N   0  0  0  0  0  0  0  0  0  0  0  0
   11.7525  -17.0146   22.4357 C   0  0  0  0  0  0  0  0  0  0  0  0
   10.0728  -17.3184   26.9599 O   0  0  0  0  0  0  0  0  0  0  0  0
   10.5338  -18.6308   27.2029 O   0  0  0  0  0  0  0  0  0  0  0  0
  1  2  1  0
  2  4  1  0
  2  3  2  0
  4  5  1  0
  5  6  1  0
  7  8  1  0
  7  6  1  0
  8 10  1  0
  8  9  1  6
 10 11  2  0
 12 13  1  0
 14 13  1  0
 14 16  1  0
 14 15  1  6
 16 18  1  0
 16 17  1  6
 17 10  1  0
 18 20  1  0
 19 18  2  0
 20 21  1  0
 21 22  1  1
 22 23  1  0
 23 24  2  0
 24 25  1  0
 26 25  1  0
 27 23  1  0
 27 26  2  0
 28 29  1  0
 28 21  1  0
 30 28  2  0
M  END
$$$$
