RIH.pdb
     RDKit          3D

 30 30  0  0  1  0  0  0  0  0999 V2000
    8.5088  -17.6249   16.6319 N   0  0  0  0  0  0  0  0  0  0  0  0
    7.5638  -16.7380   16.0194 C   0  0  0  0  0  0  0  0  0  0  0  0
    7.2213  -16.9322   14.8101 N   0  0  0  0  0  0  0  0  0  0  0  0
    7.0336  -15.6603   16.7896 N   0  0  0  0  0  0  0  0  0  0  0  0
    6.9296  -15.8213   18.2049 C   0  0  0  0  0  0  0  0  0  0  0  0
    8.0929  -16.2358   18.9872 C   0  0  0  0  0  0  0  0  0  0  0  0
    8.7588  -15.4042   19.9812 C   0  0  0  0  0  0  0  0  0  0  0  0
    7.9669  -14.3337   20.6344 C   0  0  2  0  0  0  0  0  0  0  0  0
    8.1124  -13.0919   19.9445 N   0  0  0  0  0  0  0  0  0  0  0  0
    8.4912  -14.1148   22.0576 C   0  0  0  0  0  0  0  0  0  0  0  0
    9.5683  -13.5240   22.1535 O   0  0  0  0  0  0  0  0  0  0  0  0
    6.5095  -16.4048   14.2916 C   0  0  0  0  0  0  0  0  0  0  0  0
    5.4253  -11.9881   25.9788 C   0  0  0  0  0  0  0  0  0  0  0  0
    6.5150  -12.3483   24.9512 C   0  0  2  0  0  0  0  0  0  0  0  0
    7.0928  -13.6370   25.3793 C   0  0  0  0  0  0  0  0  0  0  0  0
    7.7390  -13.3991   26.7546 C   0  0  2  0  0  0  0  0  0  0  0  0
    8.1259  -14.2753   24.5427 N   0  0  0  0  0  0  0  0  0  0  0  0
    7.7650  -14.5720   23.1809 C   0  0  0  0  0  0  0  0  0  0  0  0
    8.9409  -15.3318   25.1995 O   0  0  0  0  0  0  0  0  0  0  0  0
    9.3916  -15.1923   26.3736 N   0  0  0  0  0  0  0  0  0  0  0  0
    9.2538  -16.5355   24.5478 C   0  0  2  0  0  0  0  0  0  0  0  0
   10.0072  -17.6219   25.1414 C   0  0  0  0  0  0  0  0  0  0  0  0
   11.0401  -18.1870   24.2514 C   0  0  0  0  0  0  0  0  0  0  0  0
   10.5024  -18.4088   22.8997 C   0  0  0  0  0  0  0  0  0  0  0  0
    9.8802  -19.5825   22.4816 N   0  0  0  0  0  0  0  0  0  0  0  0
    9.5054  -19.4620   21.1939 C   0  0  0  0  0  0  0  0  0  0  0  0
    9.8776  -18.2376   20.7904 N   0  0  0  0  0  0  0  0  0  0  0  0
   10.4734  -17.6158   21.8196 C   0  0  0  0  0  0  0  0  0  0  0  0
   10.6004  -17.1896   26.4238 O   0  0  0  0  0  0  0  0  0  0  0  0
   11.3661  -18.1235   27.1556 O   0  0  0  0  0  0  0  0  0  0  0  0
  1  2  1  0
  2  4  1  0
  2  3  2  0
  4  5  1  0
  5  6  1  0
  7  8  1  0
  7  6  1  0
  8 10  1  0
  8  9  1  6
 10 11  2  0
 12 13  1  0
 14 13  1  0
 14 16  1  0
 14 15  1  6
 16 18  1  0
 16 17  1  6
 17 10  1  0
 18 20  1  0
 19 18  2  0
 20 21  1  0
 21 22  1  6
 22 23  1  0
 23 24  2  0
 24 25  1  0
 26 25  1  0
 27 23  1  0
 27 26  2  0
 28 29  1  0
 28 21  1  0
 30 28  2  0
M  END
$$$$
