RIH.pdb
     RDKit          3D

 30 30  0  0  1  0  0  0  0  0999 V2000
    8.1333  -13.2862   17.2193 N   0  0  0  0  0  0  0  0  0  0  0  0
    8.3634  -14.1330   16.0858 C   0  0  0  0  0  0  0  0  0  0  0  0
    8.3660  -13.6252   14.9199 N   0  0  0  0  0  0  0  0  0  0  0  0
    8.5843  -15.5259   16.3023 N   0  0  0  0  0  0  0  0  0  0  0  0
    8.5087  -16.0281   17.6372 C   0  0  0  0  0  0  0  0  0  0  0  0
    8.5288  -15.1082   18.7732 C   0  0  0  0  0  0  0  0  0  0  0  0
    8.4149  -15.5152   20.1676 C   0  0  0  0  0  0  0  0  0  0  0  0
    7.4998  -14.7441   21.0438 C   0  0  2  0  0  0  0  0  0  0  0  0
    7.2788  -13.4307   20.5284 N   0  0  0  0  0  0  0  0  0  0  0  0
    8.1441  -14.5765   22.4240 C   0  0  0  0  0  0  0  0  0  0  0  0
    9.3684  -14.4373   22.4373 O   0  0  0  0  0  0  0  0  0  0  0  0
    8.5397  -14.1282   14.0421 C   0  0  0  0  0  0  0  0  0  0  0  0
    7.1589  -11.4788   27.3573 C   0  0  0  0  0  0  0  0  0  0  0  0
    7.7979  -12.8291   26.9814 C   0  0  2  0  0  0  0  0  0  0  0  0
    7.2611  -13.1989   25.6574 C   0  0  0  0  0  0  0  0  0  0  0  0
    5.7901  -13.5949   25.8693 C   0  0  2  0  0  0  0  0  0  0  0  0
    7.8843  -14.3090   24.9132 N   0  0  0  0  0  0  0  0  0  0  0  0
    7.3606  -14.5841   23.6006 C   0  0  0  0  0  0  0  0  0  0  0  0
    8.2132  -15.5251   25.7035 O   0  0  0  0  0  0  0  0  0  0  0  0
    7.3158  -16.3209   26.1065 N   0  0  0  0  0  0  0  0  0  0  0  0
    9.5361  -15.8489   26.0448 C   0  0  1  0  0  0  0  0  0  0  0  0
    9.9312  -17.0362   26.7760 C   0  0  0  0  0  0  0  0  0  0  0  0
   11.1912  -17.6385   26.2986 C   0  0  0  0  0  0  0  0  0  0  0  0
   11.0386  -18.1559   24.9296 C   0  0  0  0  0  0  0  0  0  0  0  0
   10.0751  -19.0830   24.5400 N   0  0  0  0  0  0  0  0  0  0  0  0
   10.2054  -19.3458   23.2258 C   0  0  0  0  0  0  0  0  0  0  0  0
   11.2302  -18.6046   22.7776 N   0  0  0  0  0  0  0  0  0  0  0  0
   11.7215  -17.8961   23.8060 C   0  0  0  0  0  0  0  0  0  0  0  0
   10.0059  -16.7426   28.2222 O   0  0  0  0  0  0  0  0  0  0  0  0
   10.3211  -17.7993   29.1042 O   0  0  0  0  0  0  0  0  0  0  0  0
  1  2  1  0
  2  4  1  0
  2  3  2  0
  4  5  1  0
  5  6  1  0
  7  8  1  0
  7  6  1  0
  8 10  1  0
  8  9  1  6
 10 11  2  0
 12 13  1  0
 14 13  1  0
 14 16  1  0
 14 15  1  6
 16 18  1  0
 16 17  1  1
 17 10  1  0
 18 20  1  0
 19 18  2  0
 20 21  1  0
 21 22  1  1
 22 23  1  0
 23 24  2  0
 24 25  1  0
 26 25  1  0
 27 23  1  0
 27 26  2  0
 28 29  1  0
 28 21  1  0
 30 28  2  0
M  END
$$$$
