HEV.pdb
     RDKit          3D

 27 27  0  0  1  0  0  0  0  0999 V2000
   21.0292   -3.9142  -18.8808 N   0  0  0  0  0  0  0  0  0  0  0  0
   21.3964   -3.5168  -17.5368 C   0  0  1  0  0  0  0  0  0  0  0  0
   20.6662   -2.2279  -17.2414 C   0  0  0  0  0  0  0  0  0  0  0  0
   21.2116   -1.1927  -18.1608 C   0  0  0  0  0  0  0  0  0  0  0  0
   20.4448   -0.4218  -19.0022 C   0  0  0  0  0  0  0  0  0  0  0  0
   21.2437    0.4238  -19.7060 N   0  0  0  0  0  0  0  0  0  0  0  0
   22.5006    0.1656  -19.2907 C   0  0  0  0  0  0  0  0  0  0  0  0
   22.4811   -0.8068  -18.3612 N   0  0  0  0  0  0  0  0  0  0  0  0
   21.0776   -4.5816  -16.5605 C   0  0  0  0  0  0  0  0  0  0  0  0
   21.2987   -4.3282  -15.3557 O   0  0  0  0  0  0  0  0  0  0  0  0
   20.5542   -5.8317  -16.8912 N   0  0  0  0  0  0  0  0  0  0  0  0
   20.2108   -6.8948  -15.9915 C   0  0  1  0  0  0  0  0  0  0  0  0
   18.7647   -7.2009  -15.8736 C   0  0  0  0  0  0  0  0  0  0  0  0
   18.3874   -8.3148  -14.9635 C   0  0  0  0  0  0  0  0  0  0  0  0
   16.9916   -8.6809  -14.9005 C   0  0  0  0  0  0  0  0  0  0  0  0
   16.1389   -7.7909  -15.1713 O   0  0  0  0  0  0  0  0  0  0  0  0
   20.9059   -8.1143  -16.5047 C   0  0  0  0  0  0  0  0  0  0  0  0
   20.9424   -8.4427  -17.7023 O   0  0  0  0  0  0  0  0  0  0  0  0
   16.4432   -9.9047  -14.5758 O   0  0  0  0  0  0  0  0  0  0  0  0
   23.2994  -10.2781  -13.6877 C   0  0  0  0  0  0  0  0  0  0  0  0
   23.5533  -10.2031  -15.1770 C   0  0  1  0  0  0  0  0  0  0  0  0
   24.3677  -11.4143  -15.5647 C   0  0  0  0  0  0  0  0  0  0  0  0
   22.2403  -10.1465  -15.9416 C   0  0  2  0  0  0  0  0  0  0  0  0
   21.5614   -8.9395  -15.5519 N   0  0  0  0  0  0  0  0  0  0  0  0
   21.4197  -11.3576  -15.6923 C   0  0  0  0  0  0  0  0  0  0  0  0
   21.5489  -12.4722  -16.5080 O   0  0  0  0  0  0  0  0  0  0  0  0
   20.6008  -11.4021  -14.7509 O   0  0  0  0  0  0  0  0  0  0  0  0
  2  3  1  0
  2  1  1  6
  4  3  1  0
  4  8  1  0
  5  6  1  0
  5  4  2  0
  6  7  1  0
  7  8  2  0
  9 11  1  0
  9  2  1  0
 10  9  2  0
 12 11  1  0
 12 13  1  6
 13 14  1  0
 14 15  1  0
 15 19  1  0
 16 15  2  0
 17 12  1  0
 18 17  2  0
 21 22  1  6
 21 20  1  0
 23 24  1  1
 23 21  1  0
 24 17  1  0
 25 23  1  0
 26 25  1  0
 27 25  2  0
M  END
$$$$
