HEV.pdb
     RDKit          3D

 27 27  0  0  1  0  0  0  0  0999 V2000
   23.6833  -16.2419  -18.8087 N   0  0  0  0  0  0  0  0  0  0  0  0
   24.3290  -17.4863  -18.4432 C   0  0  1  0  0  0  0  0  0  0  0  0
   25.8116  -17.2962  -18.6610 C   0  0  0  0  0  0  0  0  0  0  0  0
   26.0244  -17.1388  -20.1254 C   0  0  0  0  0  0  0  0  0  0  0  0
   25.8454  -18.1433  -21.0470 C   0  0  0  0  0  0  0  0  0  0  0  0
   26.1210  -17.6769  -22.2940 N   0  0  0  0  0  0  0  0  0  0  0  0
   26.4687  -16.3842  -22.1294 C   0  0  0  0  0  0  0  0  0  0  0  0
   26.4106  -16.0607  -20.8249 N   0  0  0  0  0  0  0  0  0  0  0  0
   24.0080  -17.8637  -17.0492 C   0  0  0  0  0  0  0  0  0  0  0  0
   24.4565  -17.1236  -16.1459 O   0  0  0  0  0  0  0  0  0  0  0  0
   23.2489  -18.9749  -16.6819 N   0  0  0  0  0  0  0  0  0  0  0  0
   22.8790  -19.3734  -15.3545 C   0  0  1  0  0  0  0  0  0  0  0  0
   21.5932  -20.1018  -15.2323 C   0  0  0  0  0  0  0  0  0  0  0  0
   21.1990  -20.5414  -13.8675 C   0  0  0  0  0  0  0  0  0  0  0  0
   20.0661  -19.8858  -13.2568 C   0  0  0  0  0  0  0  0  0  0  0  0
   19.0596  -19.6565  -13.9828 O   0  0  0  0  0  0  0  0  0  0  0  0
   23.9718  -20.2706  -14.8702 C   0  0  0  0  0  0  0  0  0  0  0  0
   24.2621  -21.3592  -15.3938 O   0  0  0  0  0  0  0  0  0  0  0  0
   19.9258  -19.4623  -11.9512 O   0  0  0  0  0  0  0  0  0  0  0  0
   27.7776  -20.5874  -11.7344 C   0  0  0  0  0  0  0  0  0  0  0  0
   26.7257  -19.7698  -12.4507 C   0  0  1  0  0  0  0  0  0  0  0  0
   27.4336  -18.8874  -13.4511 C   0  0  0  0  0  0  0  0  0  0  0  0
   25.7115  -20.6778  -13.1281 C   0  0  2  0  0  0  0  0  0  0  0  0
   24.7163  -19.8383  -13.7401 N   0  0  0  0  0  0  0  0  0  0  0  0
   25.1199  -21.6378  -12.1634 C   0  0  0  0  0  0  0  0  0  0  0  0
   25.8344  -22.7564  -11.7599 O   0  0  0  0  0  0  0  0  0  0  0  0
   23.9754  -21.4635  -11.6960 O   0  0  0  0  0  0  0  0  0  0  0  0
  2  3  1  0
  2  1  1  1
  4  3  1  0
  4  8  1  0
  5  6  1  0
  5  4  2  0
  6  7  1  0
  7  8  2  0
  9 11  1  0
  9  2  1  0
 10  9  2  0
 12 11  1  0
 12 13  1  6
 13 14  1  0
 14 15  1  0
 15 19  1  0
 16 15  2  0
 17 12  1  0
 18 17  2  0
 21 22  1  6
 21 20  1  0
 23 24  1  1
 23 21  1  0
 24 17  1  0
 25 23  1  0
 26 25  1  0
 27 25  2  0
M  END
$$$$
