HEV.pdb
     RDKit          3D

 27 27  0  0  1  0  0  0  0  0999 V2000
   27.6749  -22.4113  -14.6552 N   0  0  0  0  0  0  0  0  0  0  0  0
   27.1364  -21.3948  -13.7744 C   0  0  1  0  0  0  0  0  0  0  0  0
   27.7985  -20.0896  -14.1480 C   0  0  0  0  0  0  0  0  0  0  0  0
   29.0058  -19.9473  -13.2897 C   0  0  0  0  0  0  0  0  0  0  0  0
   29.3642  -20.8350  -12.3029 C   0  0  0  0  0  0  0  0  0  0  0  0
   30.5133  -20.4195  -11.7065 N   0  0  0  0  0  0  0  0  0  0  0  0
   30.8542  -19.2750  -12.3334 C   0  0  0  0  0  0  0  0  0  0  0  0
   29.9474  -18.9912  -13.2857 N   0  0  0  0  0  0  0  0  0  0  0  0
   25.6621  -21.3283  -13.8762 C   0  0  0  0  0  0  0  0  0  0  0  0
   25.1577  -21.6298  -14.9805 O   0  0  0  0  0  0  0  0  0  0  0  0
   24.8099  -20.9565  -12.8362 N   0  0  0  0  0  0  0  0  0  0  0  0
   23.3759  -20.9289  -12.8563 C   0  0  1  0  0  0  0  0  0  0  0  0
   22.7128  -20.7912  -11.5372 C   0  0  0  0  0  0  0  0  0  0  0  0
   21.2264  -20.8342  -11.5266 C   0  0  0  0  0  0  0  0  0  0  0  0
   20.5633  -20.6607  -10.2551 C   0  0  0  0  0  0  0  0  0  0  0  0
   19.3015  -20.6379  -10.2499 O   0  0  0  0  0  0  0  0  0  0  0  0
   22.9947  -19.7526  -13.6957 C   0  0  0  0  0  0  0  0  0  0  0  0
   23.3914  -18.5932  -13.4907 O   0  0  0  0  0  0  0  0  0  0  0  0
   21.1334  -20.5119   -9.0075 O   0  0  0  0  0  0  0  0  0  0  0  0
   21.1013  -20.6478  -17.3476 C   0  0  0  0  0  0  0  0  0  0  0  0
   21.8614  -19.3670  -17.0836 C   0  0  1  0  0  0  0  0  0  0  0  0
   21.3580  -18.3265  -18.0555 C   0  0  0  0  0  0  0  0  0  0  0  0
   21.6736  -18.9203  -15.6424 C   0  0  2  0  0  0  0  0  0  0  0  0
   22.1242  -19.9904  -14.7929 N   0  0  0  0  0  0  0  0  0  0  0  0
   20.2626  -18.5469  -15.3743 C   0  0  0  0  0  0  0  0  0  0  0  0
   19.3475  -19.5083  -14.9708 O   0  0  0  0  0  0  0  0  0  0  0  0
   19.8687  -17.3694  -15.5042 O   0  0  0  0  0  0  0  0  0  0  0  0
  2  3  1  0
  2  1  1  6
  4  3  1  0
  4  8  1  0
  5  6  1  0
  5  4  2  0
  6  7  1  0
  7  8  2  0
  9 11  1  0
  9  2  1  0
 10  9  2  0
 12 11  1  0
 12 13  1  1
 13 14  1  0
 14 15  1  0
 15 19  1  0
 16 15  2  0
 17 12  1  0
 18 17  2  0
 21 22  1  6
 21 20  1  0
 23 24  1  1
 23 21  1  0
 24 17  1  0
 25 23  1  0
 26 25  1  0
 27 25  2  0
M  END
$$$$
