HEV.pdb
     RDKit          3D

 27 27  0  0  1  0  0  0  0  0999 V2000
   22.0289  -11.0708  -20.2411 N   0  0  0  0  0  0  0  0  0  0  0  0
   22.5776  -10.7192  -18.9471 C   0  0  1  0  0  0  0  0  0  0  0  0
   24.0052  -10.2820  -19.1757 C   0  0  0  0  0  0  0  0  0  0  0  0
   24.7836  -11.4961  -19.5425 C   0  0  0  0  0  0  0  0  0  0  0  0
   25.3368  -11.7171  -20.7816 C   0  0  0  0  0  0  0  0  0  0  0  0
   25.9806  -12.9146  -20.7903 N   0  0  0  0  0  0  0  0  0  0  0  0
   25.8179  -13.4230  -19.5517 C   0  0  0  0  0  0  0  0  0  0  0  0
   25.0980  -12.5697  -18.8013 N   0  0  0  0  0  0  0  0  0  0  0  0
   21.7654   -9.6711  -18.2910 C   0  0  0  0  0  0  0  0  0  0  0  0
   21.3759   -8.7249  -19.0106 O   0  0  0  0  0  0  0  0  0  0  0  0
   21.4107   -9.6692  -16.9418 N   0  0  0  0  0  0  0  0  0  0  0  0
   20.5398   -8.7454  -16.2743 C   0  0  1  0  0  0  0  0  0  0  0  0
   19.5231   -9.3469  -15.3780 C   0  0  0  0  0  0  0  0  0  0  0  0
   18.5459  -10.2778  -16.0025 C   0  0  0  0  0  0  0  0  0  0  0  0
   17.5990  -10.9338  -15.1311 C   0  0  0  0  0  0  0  0  0  0  0  0
   17.7608  -10.8053  -13.8862 O   0  0  0  0  0  0  0  0  0  0  0  0
   21.4220   -7.8617  -15.4531 C   0  0  0  0  0  0  0  0  0  0  0  0
   22.4396   -8.2536  -14.8577 O   0  0  0  0  0  0  0  0  0  0  0  0
   16.5091  -11.7047  -15.4797 O   0  0  0  0  0  0  0  0  0  0  0  0
   22.4560   -3.1030  -14.6233 C   0  0  0  0  0  0  0  0  0  0  0  0
   21.6116   -4.1674  -15.2881 C   0  0  1  0  0  0  0  0  0  0  0  0
   21.9097   -4.1309  -16.7681 C   0  0  0  0  0  0  0  0  0  0  0  0
   21.9083   -5.5349  -14.6935 C   0  0  2  0  0  0  0  0  0  0  0  0
   21.0621   -6.4908  -15.3567 N   0  0  0  0  0  0  0  0  0  0  0  0
   21.7114   -5.5364  -13.2226 C   0  0  0  0  0  0  0  0  0  0  0  0
   22.7969   -5.3986  -12.3698 O   0  0  0  0  0  0  0  0  0  0  0  0
   20.5746   -5.6605  -12.7218 O   0  0  0  0  0  0  0  0  0  0  0  0
  2  3  1  0
  2  1  1  6
  4  3  1  0
  4  8  1  0
  5  6  1  0
  5  4  2  0
  6  7  1  0
  7  8  2  0
  9 11  1  0
  9  2  1  0
 10  9  2  0
 12 11  1  0
 12 13  1  1
 13 14  1  0
 14 15  1  0
 15 19  1  0
 16 15  2  0
 17 12  1  0
 18 17  2  0
 21 22  1  6
 21 20  1  0
 23 24  1  6
 23 21  1  0
 24 17  1  0
 25 23  1  0
 26 25  1  0
 27 25  2  0
M  END
$$$$
