HEV.pdb
     RDKit          3D

 27 27  0  0  1  0  0  0  0  0999 V2000
   18.5291  -25.5163  -10.7054 N   0  0  0  0  0  0  0  0  0  0  0  0
   18.3681  -24.6108   -9.5859 C   0  0  1  0  0  0  0  0  0  0  0  0
   17.5893  -23.4186  -10.0894 C   0  0  0  0  0  0  0  0  0  0  0  0
   18.4839  -22.6657  -11.0100 C   0  0  0  0  0  0  0  0  0  0  0  0
   19.3075  -21.6360  -10.6205 C   0  0  0  0  0  0  0  0  0  0  0  0
   19.9907  -21.1623  -11.6963 N   0  0  0  0  0  0  0  0  0  0  0  0
   19.5807  -21.9070  -12.7433 C   0  0  0  0  0  0  0  0  0  0  0  0
   18.6743  -22.8112  -12.3303 N   0  0  0  0  0  0  0  0  0  0  0  0
   17.6992  -25.2819   -8.4498 C   0  0  0  0  0  0  0  0  0  0  0  0
   16.6241  -25.8721   -8.6956 O   0  0  0  0  0  0  0  0  0  0  0  0
   18.1823  -25.2991   -7.1412 N   0  0  0  0  0  0  0  0  0  0  0  0
   17.5439  -25.8634   -5.9873 C   0  0  1  0  0  0  0  0  0  0  0  0
   18.4319  -26.1625   -4.8380 C   0  0  0  0  0  0  0  0  0  0  0  0
   17.7938  -26.7639   -3.6369 C   0  0  0  0  0  0  0  0  0  0  0  0
   18.6380  -27.0280   -2.4950 C   0  0  0  0  0  0  0  0  0  0  0  0
   18.1361  -27.6676   -1.5298 O   0  0  0  0  0  0  0  0  0  0  0  0
   16.5270  -24.8621   -5.5436 C   0  0  0  0  0  0  0  0  0  0  0  0
   16.7193  -23.6348   -5.5277 O   0  0  0  0  0  0  0  0  0  0  0  0
   19.9565  -26.6681   -2.3058 O   0  0  0  0  0  0  0  0  0  0  0  0
   13.1322  -24.7109   -6.8758 C   0  0  0  0  0  0  0  0  0  0  0  0
   12.9487  -24.8478   -5.3806 C   0  0  1  0  0  0  0  0  0  0  0  0
   12.5396  -26.2736   -5.0976 C   0  0  0  0  0  0  0  0  0  0  0  0
   14.2293  -24.4797   -4.6482 C   0  0  2  0  0  0  0  0  0  0  0  0
   15.2667  -25.3596   -5.1164 N   0  0  0  0  0  0  0  0  0  0  0  0
   14.0491  -24.5571   -3.1773 C   0  0  0  0  0  0  0  0  0  0  0  0
   13.4433  -23.5158   -2.4893 O   0  0  0  0  0  0  0  0  0  0  0  0
   14.4349  -25.5521   -2.5293 O   0  0  0  0  0  0  0  0  0  0  0  0
  2  3  1  0
  2  1  1  6
  4  3  1  0
  4  8  1  0
  5  6  1  0
  5  4  2  0
  6  7  1  0
  7  8  2  0
  9 11  1  0
  9  2  1  0
 10  9  2  0
 12 11  1  0
 12 13  1  1
 13 14  1  0
 14 15  1  0
 15 19  1  0
 16 15  2  0
 17 12  1  0
 18 17  2  0
 21 22  1  6
 21 20  1  0
 23 24  1  6
 23 21  1  0
 24 17  1  0
 25 23  1  0
 26 25  1  0
 27 25  2  0
M  END
$$$$
