HEV.pdb
     RDKit          3D

 27 27  0  0  1  0  0  0  0  0999 V2000
   17.7890  -14.0601  -18.3458 N   0  0  0  0  0  0  0  0  0  0  0  0
   17.9533  -13.4574  -17.0386 C   0  0  1  0  0  0  0  0  0  0  0  0
   19.0313  -14.2375  -16.3239 C   0  0  0  0  0  0  0  0  0  0  0  0
   18.4920  -15.6009  -16.0690 C   0  0  0  0  0  0  0  0  0  0  0  0
   17.6356  -15.9159  -15.0407 C   0  0  0  0  0  0  0  0  0  0  0  0
   17.3321  -17.2405  -15.0850 N   0  0  0  0  0  0  0  0  0  0  0  0
   18.0068  -17.7321  -16.1444 C   0  0  0  0  0  0  0  0  0  0  0  0
   18.7044  -16.7457  -16.7361 N   0  0  0  0  0  0  0  0  0  0  0  0
   18.2800  -12.0190  -17.1523 C   0  0  0  0  0  0  0  0  0  0  0  0
   19.1637  -11.7040  -17.9798 O   0  0  0  0  0  0  0  0  0  0  0  0
   17.6756  -11.0059  -16.4078 N   0  0  0  0  0  0  0  0  0  0  0  0
   17.9036   -9.5939  -16.5172 C   0  0  1  0  0  0  0  0  0  0  0  0
   16.7260   -8.7273  -16.2703 C   0  0  0  0  0  0  0  0  0  0  0  0
   16.9463   -7.2588  -16.3491 C   0  0  0  0  0  0  0  0  0  0  0  0
   15.8277   -6.3990  -16.0391 C   0  0  0  0  0  0  0  0  0  0  0  0
   14.7423   -6.9473  -15.7016 O   0  0  0  0  0  0  0  0  0  0  0  0
   18.9489   -9.2618  -15.5020 C   0  0  0  0  0  0  0  0  0  0  0  0
   18.9252   -9.6557  -14.3239 O   0  0  0  0  0  0  0  0  0  0  0  0
   15.7781   -5.0204  -16.0611 O   0  0  0  0  0  0  0  0  0  0  0  0
   22.5143   -9.9442  -15.9649 C   0  0  0  0  0  0  0  0  0  0  0  0
   22.4123   -8.4519  -15.7402 C   0  0  1  0  0  0  0  0  0  0  0  0
   22.5101   -7.7776  -17.0879 C   0  0  0  0  0  0  0  0  0  0  0  0
   21.1101   -8.1042  -15.0365 C   0  0  2  0  0  0  0  0  0  0  0  0
   20.0309   -8.4442  -15.9250 N   0  0  0  0  0  0  0  0  0  0  0  0
   21.0792   -6.6753  -14.6370 C   0  0  0  0  0  0  0  0  0  0  0  0
   21.8523   -6.2271  -13.5759 O   0  0  0  0  0  0  0  0  0  0  0  0
   20.3632   -5.8497  -15.2406 O   0  0  0  0  0  0  0  0  0  0  0  0
  2  3  1  0
  2  1  1  6
  4  3  1  0
  4  8  1  0
  5  6  1  0
  5  4  2  0
  6  7  1  0
  7  8  2  0
  9 11  1  0
  9  2  1  0
 10  9  2  0
 12 11  1  0
 12 13  1  1
 13 14  1  0
 14 15  1  0
 15 19  1  0
 16 15  2  0
 17 12  1  0
 18 17  2  0
 21 22  1  6
 21 20  1  0
 23 24  1  6
 23 21  1  0
 24 17  1  0
 25 23  1  0
 26 25  1  0
 27 25  2  0
M  END
$$$$
