HEV.pdb
     RDKit          3D

 27 27  0  0  1  0  0  0  0  0999 V2000
   19.5867  -11.9309  -19.3948 N   0  0  0  0  0  0  0  0  0  0  0  0
   20.4711  -11.4414  -18.3568 C   0  0  1  0  0  0  0  0  0  0  0  0
   21.8816  -11.5645  -18.8828 C   0  0  0  0  0  0  0  0  0  0  0  0
   22.1688  -13.0166  -19.0360 C   0  0  0  0  0  0  0  0  0  0  0  0
   22.3958  -13.8767  -17.9877 C   0  0  0  0  0  0  0  0  0  0  0  0
   22.6265  -15.1295  -18.4630 N   0  0  0  0  0  0  0  0  0  0  0  0
   22.5392  -15.0301  -19.8052 C   0  0  0  0  0  0  0  0  0  0  0  0
   22.2639  -13.7592  -20.1497 N   0  0  0  0  0  0  0  0  0  0  0  0
   20.1302  -10.0527  -17.9776 C   0  0  0  0  0  0  0  0  0  0  0  0
   20.1020   -9.2063  -18.8983 O   0  0  0  0  0  0  0  0  0  0  0  0
   19.8424   -9.6316  -16.6792 N   0  0  0  0  0  0  0  0  0  0  0  0
   19.4260   -8.3237  -16.2628 C   0  0  1  0  0  0  0  0  0  0  0  0
   18.0848   -8.2407  -15.6358 C   0  0  0  0  0  0  0  0  0  0  0  0
   17.6454   -6.8991  -15.1682 C   0  0  0  0  0  0  0  0  0  0  0  0
   16.3799   -6.8153  -14.4771 C   0  0  0  0  0  0  0  0  0  0  0  0
   15.7787   -7.8949  -14.2210 O   0  0  0  0  0  0  0  0  0  0  0  0
   20.4378   -7.8639  -15.2635 C   0  0  0  0  0  0  0  0  0  0  0  0
   20.7771   -8.5195  -14.2642 O   0  0  0  0  0  0  0  0  0  0  0  0
   15.7160   -5.6857  -14.0445 O   0  0  0  0  0  0  0  0  0  0  0  0
   23.8222   -6.9575  -16.0991 C   0  0  0  0  0  0  0  0  0  0  0  0
   23.2631   -5.7229  -15.4275 C   0  0  1  0  0  0  0  0  0  0  0  0
   22.9248   -4.7257  -16.5100 C   0  0  0  0  0  0  0  0  0  0  0  0
   22.0422   -6.0742  -14.5923 C   0  0  2  0  0  0  0  0  0  0  0  0
   21.0408   -6.5965  -15.4835 N   0  0  0  0  0  0  0  0  0  0  0  0
   21.5558   -4.8982  -13.8290 C   0  0  0  0  0  0  0  0  0  0  0  0
   22.2523   -4.4469  -12.7173 O   0  0  0  0  0  0  0  0  0  0  0  0
   20.5176   -4.2921  -14.1657 O   0  0  0  0  0  0  0  0  0  0  0  0
  2  3  1  0
  2  1  1  6
  4  3  1  0
  4  8  1  0
  5  6  1  0
  5  4  2  0
  6  7  1  0
  7  8  2  0
  9 11  1  0
  9  2  1  0
 10  9  2  0
 12 11  1  0
 12 13  1  1
 13 14  1  0
 14 15  1  0
 15 19  1  0
 16 15  2  0
 17 12  1  0
 18 17  2  0
 21 22  1  6
 21 20  1  0
 23 24  1  6
 23 21  1  0
 24 17  1  0
 25 23  1  0
 26 25  1  0
 27 25  2  0
M  END
$$$$
