HEV.pdb
     RDKit          3D

 27 27  0  0  1  0  0  0  0  0999 V2000
   18.4309  -11.9265  -17.0736 N   0  0  0  0  0  0  0  0  0  0  0  0
   17.6362  -11.4080  -15.9787 C   0  0  1  0  0  0  0  0  0  0  0  0
   17.6188  -12.4687  -14.9035 C   0  0  0  0  0  0  0  0  0  0  0  0
   16.6767  -13.5311  -15.3489 C   0  0  0  0  0  0  0  0  0  0  0  0
   16.7073  -14.1240  -16.5890 C   0  0  0  0  0  0  0  0  0  0  0  0
   15.7172  -15.0515  -16.6792 N   0  0  0  0  0  0  0  0  0  0  0  0
   15.0827  -15.0219  -15.4894 C   0  0  0  0  0  0  0  0  0  0  0  0
   15.6600  -14.1073  -14.6894 N   0  0  0  0  0  0  0  0  0  0  0  0
   18.1768  -10.1202  -15.4912 C   0  0  0  0  0  0  0  0  0  0  0  0
   19.4182   -9.9739  -15.5395 O   0  0  0  0  0  0  0  0  0  0  0  0
   17.4037   -9.0735  -14.9884 N   0  0  0  0  0  0  0  0  0  0  0  0
   17.8622   -7.7842  -14.5582 C   0  0  1  0  0  0  0  0  0  0  0  0
   16.9846   -6.6385  -14.8989 C   0  0  0  0  0  0  0  0  0  0  0  0
   17.4726   -5.2853  -14.5223 C   0  0  0  0  0  0  0  0  0  0  0  0
   16.6212   -4.1598  -14.8299 C   0  0  0  0  0  0  0  0  0  0  0  0
   15.4899   -4.4007  -15.3346 O   0  0  0  0  0  0  0  0  0  0  0  0
   17.9760   -7.8589  -13.0699 C   0  0  0  0  0  0  0  0  0  0  0  0
   17.1928   -8.4925  -12.3428 O   0  0  0  0  0  0  0  0  0  0  0  0
   16.8793   -2.8172  -14.6436 O   0  0  0  0  0  0  0  0  0  0  0  0
   21.4571   -8.3282  -11.5180 C   0  0  0  0  0  0  0  0  0  0  0  0
   20.7825   -7.1699  -10.8171 C   0  0  1  0  0  0  0  0  0  0  0  0
   21.3895   -5.8945  -11.3513 C   0  0  0  0  0  0  0  0  0  0  0  0
   19.2795   -7.2091  -11.0435 C   0  0  2  0  0  0  0  0  0  0  0  0
   19.0517   -7.1569  -12.4631 N   0  0  0  0  0  0  0  0  0  0  0  0
   18.5980   -6.1041  -10.3247 C   0  0  0  0  0  0  0  0  0  0  0  0
   18.3750   -6.1892   -8.9581 O   0  0  0  0  0  0  0  0  0  0  0  0
   18.2125   -5.0807  -10.9268 O   0  0  0  0  0  0  0  0  0  0  0  0
  2  3  1  0
  2  1  1  6
  4  3  1  0
  4  8  1  0
  5  6  1  0
  5  4  2  0
  6  7  1  0
  7  8  2  0
  9 11  1  0
  9  2  1  0
 10  9  2  0
 12 11  1  0
 12 13  1  1
 13 14  1  0
 14 15  1  0
 15 19  1  0
 16 15  2  0
 17 12  1  0
 18 17  2  0
 21 22  1  6
 21 20  1  0
 23 24  1  6
 23 21  1  0
 24 17  1  0
 25 23  1  0
 26 25  1  0
 27 25  2  0
M  END
$$$$
