GYP.pdb
     RDKit          3D

 24 25  0  0  1  0  0  0  0  0999 V2000
    4.8042  -20.3167   22.0010 N   0  0  0  0  0  0  0  0  0  0  0  0
    5.5764  -20.0711   23.1836 C   0  0  0  0  0  0  0  0  0  0  0  0
    5.8754  -18.6192   23.3615 C   0  0  0  0  0  0  0  0  0  0  0  0
    5.4117  -17.8283   22.5318 O   0  0  0  0  0  0  0  0  0  0  0  0
    6.9851  -10.7246   26.6414 O   0  0  0  0  0  0  0  0  0  0  0  0
    7.0338  -12.1021   26.4764 C   0  0  0  0  0  0  0  0  0  0  0  0
    8.2484  -12.7227   26.3748 C   0  0  0  0  0  0  0  0  0  0  0  0
    8.3286  -14.1069   26.2083 C   0  0  0  0  0  0  0  0  0  0  0  0
    7.1905  -14.8758   26.1430 C   0  0  0  0  0  0  0  0  0  0  0  0
    7.2200  -16.3264   25.9733 C   0  0  0  0  0  0  0  0  0  0  0  0
    6.9857  -16.7600   24.5085 C   0  0  2  0  0  0  0  0  0  0  0  0
    6.6632  -18.1310   24.4377 N   0  0  0  0  0  0  0  0  0  0  0  0
    8.1189  -16.2492   23.7538 C   0  0  0  0  0  0  0  0  0  0  0  0
    9.2604  -16.6634   24.3028 O   0  0  0  0  0  0  0  0  0  0  0  0
    5.9819  -14.2111   26.2497 C   0  0  0  0  0  0  0  0  0  0  0  0
    5.8917  -12.8443   26.4143 C   0  0  0  0  0  0  0  0  0  0  0  0
    8.2903  -15.4750   22.6460 N   0  0  0  0  0  0  0  0  0  0  0  0
    7.0928  -15.0344   21.8108 C   0  0  0  0  0  0  0  0  0  0  0  0
    7.3925  -13.5254   21.7161 C   0  0  0  0  0  0  0  0  0  0  0  0
    8.8926  -13.3825   22.0709 C   0  0  0  0  0  0  0  0  0  0  0  0
    9.3121  -14.8397   21.8785 C   0  0  1  0  0  0  0  0  0  0  0  0
   10.6892  -15.1588   21.9915 C   0  0  0  0  0  0  0  0  0  0  0  0
   11.2541  -15.2941   23.1348 O   0  0  0  0  0  0  0  0  0  0  0  0
   11.5350  -15.3405   20.9133 O   0  0  0  0  0  0  0  0  0  0  0  0
  2  1  1  0
  3  2  1  0
  3 12  1  0
  4  3  2  0
  6  7  2  0
  6  5  1  0
  8  7  1  0
  9  8  2  0
 10  9  1  0
 11 10  1  1
 11 12  1  0
 13 17  1  0
 13 11  1  0
 14 13  2  0
 15  9  1  0
 15 16  2  0
 16  6  1  0
 17 18  1  0
 19 18  1  0
 20 19  1  0
 20 21  1  0
 21 17  1  0
 21 22  1  1
 22 24  1  0
 23 22  2  0
M  END
$$$$
