GYP.pdb
     RDKit          3D

 24 25  0  0  1  0  0  0  0  0999 V2000
    4.8531  -20.5354   22.3376 N   0  0  0  0  0  0  0  0  0  0  0  0
    5.9751  -20.1770   23.1549 C   0  0  0  0  0  0  0  0  0  0  0  0
    6.0421  -18.7047   23.3937 C   0  0  0  0  0  0  0  0  0  0  0  0
    5.5077  -17.9603   22.5634 O   0  0  0  0  0  0  0  0  0  0  0  0
    6.8041  -10.7194   26.6620 O   0  0  0  0  0  0  0  0  0  0  0  0
    6.9329  -12.0922   26.5008 C   0  0  0  0  0  0  0  0  0  0  0  0
    5.8081  -12.8648   26.4079 C   0  0  0  0  0  0  0  0  0  0  0  0
    5.9064  -14.2483   26.2454 C   0  0  0  0  0  0  0  0  0  0  0  0
    7.1339  -14.8639   26.1752 C   0  0  0  0  0  0  0  0  0  0  0  0
    7.2911  -16.3059   26.0023 C   0  0  0  0  0  0  0  0  0  0  0  0
    6.9916  -16.7693   24.5587 C   0  0  2  0  0  0  0  0  0  0  0  0
    6.6907  -18.1467   24.5272 N   0  0  0  0  0  0  0  0  0  0  0  0
    8.0763  -16.2525   23.7394 C   0  0  0  0  0  0  0  0  0  0  0  0
    9.2508  -16.6439   24.2327 O   0  0  0  0  0  0  0  0  0  0  0  0
    8.2471  -14.0484   26.2733 C   0  0  0  0  0  0  0  0  0  0  0  0
    8.1609  -12.6809   26.4340 C   0  0  0  0  0  0  0  0  0  0  0  0
    8.1782  -15.4902   22.6150 N   0  0  0  0  0  0  0  0  0  0  0  0
    6.9389  -15.1325   21.8015 C   0  0  0  0  0  0  0  0  0  0  0  0
    7.1510  -13.6111   21.6742 C   0  0  0  0  0  0  0  0  0  0  0  0
    8.6484  -13.3782   21.9904 C   0  0  0  0  0  0  0  0  0  0  0  0
    9.1446  -14.8129   21.8125 C   0  0  1  0  0  0  0  0  0  0  0  0
   10.5398  -15.0525   21.8977 C   0  0  0  0  0  0  0  0  0  0  0  0
   11.0669  -15.5787   22.9417 O   0  0  0  0  0  0  0  0  0  0  0  0
   11.4431  -14.7431   20.8981 O   0  0  0  0  0  0  0  0  0  0  0  0
  2  1  1  0
  3  2  1  0
  3 12  1  0
  4  3  2  0
  6  7  2  0
  6  5  1  0
  8  7  1  0
  9  8  2  0
 10  9  1  0
 11 10  1  1
 11 12  1  0
 13 17  1  0
 13 11  1  0
 14 13  2  0
 15  9  1  0
 15 16  2  0
 16  6  1  0
 17 18  1  0
 19 18  1  0
 20 19  1  0
 20 21  1  0
 21 17  1  0
 21 22  1  1
 22 24  1  0
 23 22  2  0
M  END
$$$$
