GYP.pdb
     RDKit          3D

 24 25  0  0  1  0  0  0  0  0999 V2000
    6.0459  -20.8575   24.4901 N   0  0  0  0  0  0  0  0  0  0  0  0
    6.8653  -19.8882   25.1568 C   0  0  0  0  0  0  0  0  0  0  0  0
    6.5333  -18.4948   24.7359 C   0  0  0  0  0  0  0  0  0  0  0  0
    5.6882  -18.3465   23.8455 O   0  0  0  0  0  0  0  0  0  0  0  0
   11.3514  -14.9063   29.3196 O   0  0  0  0  0  0  0  0  0  0  0  0
   10.2980  -14.9085   28.4154 C   0  0  0  0  0  0  0  0  0  0  0  0
    9.4793  -16.0018   28.3424 C   0  0  0  0  0  0  0  0  0  0  0  0
    8.4118  -16.0326   27.4427 C   0  0  0  0  0  0  0  0  0  0  0  0
    8.1600  -14.9667   26.6114 C   0  0  0  0  0  0  0  0  0  0  0  0
    7.0552  -14.9476   25.6559 C   0  0  0  0  0  0  0  0  0  0  0  0
    7.1191  -16.1170   24.6474 C   0  0  2  0  0  0  0  0  0  0  0  0
    7.1504  -17.3564   25.3194 N   0  0  0  0  0  0  0  0  0  0  0  0
    8.1800  -15.7807   23.7114 C   0  0  0  0  0  0  0  0  0  0  0  0
    9.3705  -15.9727   24.2787 O   0  0  0  0  0  0  0  0  0  0  0  0
    9.0102  -13.8803   26.7154 C   0  0  0  0  0  0  0  0  0  0  0  0
   10.0675  -13.8398   27.6007 C   0  0  0  0  0  0  0  0  0  0  0  0
    8.2485  -15.3348   22.4260 N   0  0  0  0  0  0  0  0  0  0  0  0
    6.9787  -15.0940   21.6164 C   0  0  0  0  0  0  0  0  0  0  0  0
    7.2775  -13.6749   21.0943 C   0  0  0  0  0  0  0  0  0  0  0  0
    8.8057  -13.4908   21.2593 C   0  0  0  0  0  0  0  0  0  0  0  0
    9.1953  -14.9593   21.4264 C   0  0  1  0  0  0  0  0  0  0  0  0
   10.5749  -15.2808   21.4944 C   0  0  0  0  0  0  0  0  0  0  0  0
   11.1884  -15.3670   22.6172 O   0  0  0  0  0  0  0  0  0  0  0  0
   11.3725  -15.5161   20.3902 O   0  0  0  0  0  0  0  0  0  0  0  0
  2  1  1  0
  3  2  1  0
  3 12  1  0
  4  3  2  0
  6  7  2  0
  6  5  1  0
  8  7  1  0
  9  8  2  0
 10  9  1  0
 11 10  1  1
 11 12  1  0
 13 17  1  0
 13 11  1  0
 14 13  2  0
 15  9  1  0
 15 16  2  0
 16  6  1  0
 17 18  1  0
 19 18  1  0
 20 19  1  0
 20 21  1  0
 21 17  1  0
 21 22  1  1
 22 24  1  0
 23 22  2  0
M  END
$$$$
