GYP.pdb
     RDKit          3D

 24 25  0  0  1  0  0  0  0  0999 V2000
    4.6824  -20.5006   22.5515 N   0  0  0  0  0  0  0  0  0  0  0  0
    5.7992  -20.1785   23.3908 C   0  0  0  0  0  0  0  0  0  0  0  0
    5.9414  -18.7052   23.5869 C   0  0  0  0  0  0  0  0  0  0  0  0
    5.3316  -17.9583   22.8128 O   0  0  0  0  0  0  0  0  0  0  0  0
    7.0818  -10.6739   26.6110 O   0  0  0  0  0  0  0  0  0  0  0  0
    7.1597  -12.0533   26.4751 C   0  0  0  0  0  0  0  0  0  0  0  0
    6.0131  -12.7975   26.5226 C   0  0  0  0  0  0  0  0  0  0  0  0
    6.0603  -14.1867   26.3890 C   0  0  0  0  0  0  0  0  0  0  0  0
    7.2583  -14.8367   26.2069 C   0  0  0  0  0  0  0  0  0  0  0  0
    7.3615  -16.2863   26.0585 C   0  0  0  0  0  0  0  0  0  0  0  0
    7.0148  -16.7654   24.6306 C   0  0  2  0  0  0  0  0  0  0  0  0
    6.7429  -18.1490   24.6190 N   0  0  0  0  0  0  0  0  0  0  0  0
    8.0543  -16.2306   23.7656 C   0  0  0  0  0  0  0  0  0  0  0  0
    9.2532  -16.6330   24.1860 O   0  0  0  0  0  0  0  0  0  0  0  0
    8.3949  -14.0492   26.1646 C   0  0  0  0  0  0  0  0  0  0  0  0
    8.3592  -12.6763   26.2956 C   0  0  0  0  0  0  0  0  0  0  0  0
    8.0964  -15.4436   22.6545 N   0  0  0  0  0  0  0  0  0  0  0  0
    6.8132  -15.0454   21.9330 C   0  0  0  0  0  0  0  0  0  0  0  0
    7.0449  -13.5252   21.8264 C   0  0  0  0  0  0  0  0  0  0  0  0
    8.5639  -13.3257   22.0482 C   0  0  0  0  0  0  0  0  0  0  0  0
    9.0205  -14.7640   21.8054 C   0  0  1  0  0  0  0  0  0  0  0  0
   10.4136  -15.0295   21.7929 C   0  0  0  0  0  0  0  0  0  0  0  0
   11.0829  -15.1489   22.8802 O   0  0  0  0  0  0  0  0  0  0  0  0
   11.1664  -15.1718   20.6423 O   0  0  0  0  0  0  0  0  0  0  0  0
  2  1  1  0
  3  2  1  0
  3 12  1  0
  4  3  2  0
  6  7  2  0
  6  5  1  0
  8  7  1  0
  9  8  2  0
 10  9  1  0
 11 10  1  1
 11 12  1  0
 13 17  1  0
 13 11  1  0
 14 13  2  0
 15  9  1  0
 15 16  2  0
 16  6  1  0
 17 18  1  0
 19 18  1  0
 20 19  1  0
 20 21  1  0
 21 17  1  0
 21 22  1  1
 22 24  1  0
 23 22  2  0
M  END
$$$$
