GYP.pdb
     RDKit          3D

 24 25  0  0  1  0  0  0  0  0999 V2000
    3.9580  -18.9511   22.4005 N   0  0  0  0  0  0  0  0  0  0  0  0
    5.2088  -18.7896   23.0824 C   0  0  0  0  0  0  0  0  0  0  0  0
    5.7678  -17.4170   22.9020 C   0  0  0  0  0  0  0  0  0  0  0  0
    5.1239  -16.6173   22.2129 O   0  0  0  0  0  0  0  0  0  0  0  0
    5.5597  -11.4159   27.4487 O   0  0  0  0  0  0  0  0  0  0  0  0
    6.2471  -12.3553   26.6923 C   0  0  0  0  0  0  0  0  0  0  0  0
    7.3018  -11.9526   25.9202 C   0  0  0  0  0  0  0  0  0  0  0  0
    8.0121  -12.8749   25.1488 C   0  0  0  0  0  0  0  0  0  0  0  0
    7.6680  -14.2062   25.1482 C   0  0  0  0  0  0  0  0  0  0  0  0
    8.3802  -15.2108   24.3625 C   0  0  0  0  0  0  0  0  0  0  0  0
    7.5410  -15.7490   23.1816 C   0  0  2  0  0  0  0  0  0  0  0  0
    6.9960  -17.0126   23.4895 N   0  0  0  0  0  0  0  0  0  0  0  0
    8.3709  -15.5942   21.9975 C   0  0  0  0  0  0  0  0  0  0  0  0
    9.4379  -16.3886   22.0778 O   0  0  0  0  0  0  0  0  0  0  0  0
    6.5959  -14.5735   25.9418 C   0  0  0  0  0  0  0  0  0  0  0  0
    5.8877  -13.6705   26.7073 C   0  0  0  0  0  0  0  0  0  0  0  0
    8.3186  -14.8572   20.8530 N   0  0  0  0  0  0  0  0  0  0  0  0
    7.0603  -14.0780   20.4852 C   0  0  0  0  0  0  0  0  0  0  0  0
    7.6927  -12.7052   20.1832 C   0  0  0  0  0  0  0  0  0  0  0  0
    9.1973  -12.9886   19.9540 C   0  0  0  0  0  0  0  0  0  0  0  0
    9.1123  -14.4972   19.7230 C   0  0  1  0  0  0  0  0  0  0  0  0
   10.2952  -15.1829   19.3463 C   0  0  0  0  0  0  0  0  0  0  0  0
   10.4274  -15.7005   18.1806 O   0  0  0  0  0  0  0  0  0  0  0  0
   11.3854  -15.3637   20.1767 O   0  0  0  0  0  0  0  0  0  0  0  0
  2  1  1  0
  3  2  1  0
  3 12  1  0
  4  3  2  0
  6  7  2  0
  6  5  1  0
  8  7  1  0
  9  8  2  0
 10  9  1  0
 11 10  1  1
 11 12  1  0
 13 17  1  0
 13 11  1  0
 14 13  2  0
 15  9  1  0
 15 16  2  0
 16  6  1  0
 17 18  1  0
 19 18  1  0
 20 19  1  0
 20 21  1  0
 21 17  1  0
 21 22  1  1
 22 24  1  0
 23 22  2  0
M  END
$$$$
