GYP.pdb
     RDKit          3D

 24 25  0  0  1  0  0  0  0  0999 V2000
   13.1738  -16.9534   21.2521 N   0  0  0  0  0  0  0  0  0  0  0  0
   11.8789  -17.3963   21.6792 C   0  0  0  0  0  0  0  0  0  0  0  0
   11.2259  -16.4101   22.5903 C   0  0  0  0  0  0  0  0  0  0  0  0
   11.9047  -15.4579   22.9922 O   0  0  0  0  0  0  0  0  0  0  0  0
    5.7463  -11.3495   27.0584 O   0  0  0  0  0  0  0  0  0  0  0  0
    6.2598  -12.3427   26.2357 C   0  0  0  0  0  0  0  0  0  0  0  0
    6.9768  -11.9897   25.1257 C   0  0  0  0  0  0  0  0  0  0  0  0
    7.5056  -12.9667   24.2795 C   0  0  0  0  0  0  0  0  0  0  0  0
    7.3179  -14.3032   24.5427 C   0  0  0  0  0  0  0  0  0  0  0  0
    7.8527  -15.3635   23.6920 C   0  0  0  0  0  0  0  0  0  0  0  0
    9.3458  -15.6524   23.9672 C   0  0  2  0  0  0  0  0  0  0  0  0
    9.8717  -16.5338   23.0001 N   0  0  0  0  0  0  0  0  0  0  0  0
    9.4333  -15.9983   25.3769 C   0  0  0  0  0  0  0  0  0  0  0  0
    8.6979  -17.0804   25.6306 O   0  0  0  0  0  0  0  0  0  0  0  0
    6.5876  -14.6194   25.6744 C   0  0  0  0  0  0  0  0  0  0  0  0
    6.0609  -13.6620   26.5166 C   0  0  0  0  0  0  0  0  0  0  0  0
   10.0741  -15.4998   26.4708 N   0  0  0  0  0  0  0  0  0  0  0  0
   10.9429  -14.2510   26.3628 C   0  0  0  0  0  0  0  0  0  0  0  0
   10.3679  -13.4407   27.5412 C   0  0  0  0  0  0  0  0  0  0  0  0
    9.6243  -14.4725   28.4238 C   0  0  0  0  0  0  0  0  0  0  0  0
   10.2552  -15.7474   27.8646 C   0  0  1  0  0  0  0  0  0  0  0  0
    9.9358  -16.9801   28.4889 C   0  0  0  0  0  0  0  0  0  0  0  0
   10.7626  -17.5682   29.2731 O   0  0  0  0  0  0  0  0  0  0  0  0
    8.7417  -17.6536   28.3116 O   0  0  0  0  0  0  0  0  0  0  0  0
  2  1  1  0
  3  2  1  0
  3 12  1  0
  4  3  2  0
  6  7  2  0
  6  5  1  0
  8  7  1  0
  9  8  2  0
 10  9  1  0
 11 10  1  6
 11 12  1  0
 13 17  1  0
 13 11  1  0
 14 13  2  0
 15  9  1  0
 15 16  2  0
 16  6  1  0
 17 18  1  0
 19 18  1  0
 20 19  1  0
 20 21  1  0
 21 17  1  0
 21 22  1  1
 22 24  1  0
 23 22  2  0
M  END
$$$$
