GYP.pdb
     RDKit          3D

 24 25  0  0  1  0  0  0  0  0999 V2000
    5.1824  -20.7139   22.7997 N   0  0  0  0  0  0  0  0  0  0  0  0
    6.0691  -20.2816   23.8400 C   0  0  0  0  0  0  0  0  0  0  0  0
    6.1599  -18.7930   23.9111 C   0  0  0  0  0  0  0  0  0  0  0  0
    5.5651  -18.1365   23.0484 O   0  0  0  0  0  0  0  0  0  0  0  0
    6.9888  -10.5029   26.3319 O   0  0  0  0  0  0  0  0  0  0  0  0
    7.0736  -11.8884   26.3106 C   0  0  0  0  0  0  0  0  0  0  0  0
    8.3016  -12.4836   26.2178 C   0  0  0  0  0  0  0  0  0  0  0  0
    8.4181  -13.8750   26.1942 C   0  0  0  0  0  0  0  0  0  0  0  0
    7.3031  -14.6766   26.2637 C   0  0  0  0  0  0  0  0  0  0  0  0
    7.3709  -16.1357   26.2463 C   0  0  0  0  0  0  0  0  0  0  0  0
    7.0916  -16.7288   24.8467 C   0  0  2  0  0  0  0  0  0  0  0  0
    6.8971  -18.1233   24.9236 N   0  0  0  0  0  0  0  0  0  0  0  0
    8.1239  -16.1949   23.9726 C   0  0  0  0  0  0  0  0  0  0  0  0
    9.3309  -16.4815   24.4595 O   0  0  0  0  0  0  0  0  0  0  0  0
    6.0799  -14.0369   26.3566 C   0  0  0  0  0  0  0  0  0  0  0  0
    5.9539  -12.6633   26.3806 C   0  0  0  0  0  0  0  0  0  0  0  0
    8.1538  -15.4966   22.8033 N   0  0  0  0  0  0  0  0  0  0  0  0
    6.8689  -15.2125   22.0327 C   0  0  0  0  0  0  0  0  0  0  0  0
    7.0382  -13.6968   21.8095 C   0  0  0  0  0  0  0  0  0  0  0  0
    8.5431  -13.4145   22.0383 C   0  0  0  0  0  0  0  0  0  0  0  0
    9.0644  -14.8463   21.9175 C   0  0  1  0  0  0  0  0  0  0  0  0
   10.4674  -15.0510   21.9476 C   0  0  0  0  0  0  0  0  0  0  0  0
   11.0458  -15.5794   22.9629 O   0  0  0  0  0  0  0  0  0  0  0  0
   11.3249  -14.7031   20.9208 O   0  0  0  0  0  0  0  0  0  0  0  0
  2  1  1  0
  3  2  1  0
  3 12  1  0
  4  3  2  0
  6  7  2  0
  6  5  1  0
  8  7  1  0
  9  8  2  0
 10  9  1  0
 11 10  1  1
 11 12  1  0
 13 17  1  0
 13 11  1  0
 14 13  2  0
 15  9  1  0
 15 16  2  0
 16  6  1  0
 17 18  1  0
 19 18  1  0
 20 19  1  0
 20 21  1  0
 21 17  1  0
 21 22  1  1
 22 24  1  0
 23 22  2  0
M  END
$$$$
