GYP.pdb
     RDKit          3D

 24 25  0  0  1  0  0  0  0  0999 V2000
   12.5896  -16.8995   20.8392 N   0  0  0  0  0  0  0  0  0  0  0  0
   11.2992  -17.2979   21.3206 C   0  0  0  0  0  0  0  0  0  0  0  0
   10.8448  -16.4495   22.4620 C   0  0  0  0  0  0  0  0  0  0  0  0
   11.6702  -15.6887   22.9804 O   0  0  0  0  0  0  0  0  0  0  0  0
    6.0325  -11.1674   27.4162 O   0  0  0  0  0  0  0  0  0  0  0  0
    6.4182  -12.1815   26.5502 C   0  0  0  0  0  0  0  0  0  0  0  0
    7.1290  -11.8677   25.4245 C   0  0  0  0  0  0  0  0  0  0  0  0
    7.5306  -12.8664   24.5350 C   0  0  0  0  0  0  0  0  0  0  0  0
    7.2214  -14.1854   24.7703 C   0  0  0  0  0  0  0  0  0  0  0  0
    7.6207  -15.2675   23.8738 C   0  0  0  0  0  0  0  0  0  0  0  0
    9.1216  -15.6163   23.9921 C   0  0  2  0  0  0  0  0  0  0  0  0
    9.5150  -16.4920   22.9591 N   0  0  0  0  0  0  0  0  0  0  0  0
    9.3353  -15.9996   25.3785 C   0  0  0  0  0  0  0  0  0  0  0  0
    8.7037  -17.1433   25.6412 O   0  0  0  0  0  0  0  0  0  0  0  0
    6.5016  -14.4619   25.9190 C   0  0  0  0  0  0  0  0  0  0  0  0
    6.1000  -13.4828   26.8040 C   0  0  0  0  0  0  0  0  0  0  0  0
   10.0131  -15.4881   26.4438 N   0  0  0  0  0  0  0  0  0  0  0  0
   10.7915  -14.1828   26.3179 C   0  0  0  0  0  0  0  0  0  0  0  0
   10.2442  -13.4422   27.5539 C   0  0  0  0  0  0  0  0  0  0  0  0
    9.6272  -14.5427   28.4510 C   0  0  0  0  0  0  0  0  0  0  0  0
   10.3003  -15.7589   27.8153 C   0  0  1  0  0  0  0  0  0  0  0  0
   10.1016  -17.0253   28.4218 C   0  0  0  0  0  0  0  0  0  0  0  0
    9.0199  -17.6910   28.2445 O   0  0  0  0  0  0  0  0  0  0  0  0
   11.0223  -17.6440   29.2467 O   0  0  0  0  0  0  0  0  0  0  0  0
  2  1  1  0
  3  2  1  0
  3 12  1  0
  4  3  2  0
  6  7  2  0
  6  5  1  0
  8  7  1  0
  9  8  2  0
 10  9  1  0
 11 10  1  1
 11 12  1  0
 13 17  1  0
 13 11  1  0
 14 13  2  0
 15  9  1  0
 15 16  2  0
 16  6  1  0
 17 18  1  0
 19 18  1  0
 20 19  1  0
 20 21  1  0
 21 17  1  0
 21 22  1  1
 22 24  1  0
 23 22  2  0
M  END
$$$$
