GYP.pdb
     RDKit          3D

 24 25  0  0  1  0  0  0  0  0999 V2000
    4.6395  -20.4054   22.4318 N   0  0  0  0  0  0  0  0  0  0  0  0
    5.7122  -20.1189   23.3387 C   0  0  0  0  0  0  0  0  0  0  0  0
    5.8954  -18.6506   23.5380 C   0  0  0  0  0  0  0  0  0  0  0  0
    5.3757  -17.8871   22.7159 O   0  0  0  0  0  0  0  0  0  0  0  0
    7.1627  -10.6549   26.6581 O   0  0  0  0  0  0  0  0  0  0  0  0
    7.1744  -12.0369   26.5273 C   0  0  0  0  0  0  0  0  0  0  0  0
    5.9909  -12.7223   26.5481 C   0  0  0  0  0  0  0  0  0  0  0  0
    5.9714  -14.1126   26.4187 C   0  0  0  0  0  0  0  0  0  0  0  0
    7.1392  -14.8226   26.2676 C   0  0  0  0  0  0  0  0  0  0  0  0
    7.1729  -16.2760   26.1248 C   0  0  0  0  0  0  0  0  0  0  0  0
    6.9267  -16.7380   24.6707 C   0  0  2  0  0  0  0  0  0  0  0  0
    6.6366  -18.1172   24.6259 N   0  0  0  0  0  0  0  0  0  0  0  0
    8.0354  -16.2118   23.8905 C   0  0  0  0  0  0  0  0  0  0  0  0
    9.1949  -16.5616   24.4466 O   0  0  0  0  0  0  0  0  0  0  0  0
    8.3148  -14.0934   26.2515 C   0  0  0  0  0  0  0  0  0  0  0  0
    8.3450  -12.7200   26.3786 C   0  0  0  0  0  0  0  0  0  0  0  0
    8.1710  -15.4725   22.7543 N   0  0  0  0  0  0  0  0  0  0  0  0
    6.9490  -15.0762   21.9325 C   0  0  0  0  0  0  0  0  0  0  0  0
    7.2249  -13.5672   21.7815 C   0  0  0  0  0  0  0  0  0  0  0  0
    8.7303  -13.3923   22.0973 C   0  0  0  0  0  0  0  0  0  0  0  0
    9.1662  -14.8491   21.9434 C   0  0  1  0  0  0  0  0  0  0  0  0
   10.5500  -15.1456   22.0356 C   0  0  0  0  0  0  0  0  0  0  0  0
   11.2206  -15.5384   21.0155 O   0  0  0  0  0  0  0  0  0  0  0  0
   11.2879  -15.0524   23.2007 O   0  0  0  0  0  0  0  0  0  0  0  0
  2  1  1  0
  3  2  1  0
  3 12  1  0
  4  3  2  0
  6  7  2  0
  6  5  1  0
  8  7  1  0
  9  8  2  0
 10  9  1  0
 11 10  1  1
 11 12  1  0
 13 17  1  0
 13 11  1  0
 14 13  2  0
 15  9  1  0
 15 16  2  0
 16  6  1  0
 17 18  1  0
 19 18  1  0
 20 19  1  0
 20 21  1  0
 21 17  1  0
 21 22  1  1
 22 24  1  0
 23 22  2  0
M  END
$$$$
