QHI.pdb
     RDKit          3D

 28 28  0  0  1  0  0  0  0  0999 V2000
   18.8735  -14.4257  -22.6907 N   0  0  0  0  0  0  0  0  0  0  0  0
   18.6796  -15.6102  -21.9319 C   0  0  0  0  0  0  0  0  0  0  0  0
   17.8652  -16.4626  -22.3577 O   0  0  0  0  0  0  0  0  0  0  0  0
   19.4004  -15.8589  -20.6778 C   0  0  0  0  0  0  0  0  0  0  0  0
   20.4636  -14.8716  -20.3421 C   0  0  0  0  0  0  0  0  0  0  0  0
   20.5567  -14.5317  -18.8799 C   0  0  2  0  0  0  0  0  0  0  0  0
   20.2815  -15.7429  -18.0957 N   0  0  0  0  0  0  0  0  0  0  0  0
   19.5223  -13.5373  -18.5245 C   0  0  0  0  0  0  0  0  0  0  0  0
   18.5153  -13.3908  -19.2234 O   0  0  0  0  0  0  0  0  0  0  0  0
   19.6283  -12.7038  -17.3698 N   0  0  0  0  0  0  0  0  0  0  0  0
   18.5940  -11.7752  -16.9608 C   0  0  1  0  0  0  0  0  0  0  0  0
   17.8610  -12.2391  -15.7395 C   0  0  0  0  0  0  0  0  0  0  0  0
   17.0257  -13.4168  -15.8793 C   0  0  0  0  0  0  0  0  0  0  0  0
   15.8440  -13.5482  -16.5900 C   0  0  0  0  0  0  0  0  0  0  0  0
   15.3911  -14.8098  -16.4585 N   0  0  0  0  0  0  0  0  0  0  0  0
   16.2580  -15.4689  -15.6852 C   0  0  0  0  0  0  0  0  0  0  0  0
   17.2282  -14.6337  -15.3440 N   0  0  0  0  0  0  0  0  0  0  0  0
   19.0216  -10.3849  -16.9832 C   0  0  0  0  0  0  0  0  0  0  0  0
   20.1192  -10.0773  -16.4401 O   0  0  0  0  0  0  0  0  0  0  0  0
   19.3253   -7.2019  -21.1976 C   0  0  0  0  0  0  0  0  0  0  0  0
   19.5279   -7.9595  -19.9001 C   0  0  0  0  0  0  0  0  0  0  0  0
   18.7532   -7.2261  -18.8352 C   0  0  2  0  0  0  0  0  0  0  0  0
   19.2254   -5.7915  -18.7404 C   0  0  0  0  0  0  0  0  0  0  0  0
   18.7984   -7.9251  -17.4977 C   0  0  2  0  0  0  0  0  0  0  0  0
   18.3327   -9.2861  -17.5621 N   0  0  0  0  0  0  0  0  0  0  0  0
   17.9827   -7.1635  -16.5285 C   0  0  0  0  0  0  0  0  0  0  0  0
   16.7747   -7.4549  -16.4072 O   0  0  0  0  0  0  0  0  0  0  0  0
   18.5094   -6.1495  -15.7599 O   0  0  0  0  0  0  0  0  0  0  0  0
  2  1  1  0
  2  3  2  0
  4  5  1  0
  4  2  1  0
  5  6  1  0
  6  8  1  0
  6  7  1  1
  8  9  2  0
 10  8  1  0
 10 11  1  0
 11 12  1  1
 13 12  1  0
 14 13  2  0
 15 14  1  0
 16 15  1  0
 16 17  2  0
 17 13  1  0
 18 19  2  0
 18 11  1  0
 21 20  1  0
 21 22  1  0
 22 24  1  0
 22 23  1  1
 24 25  1  6
 25 18  1  0
 26 24  1  0
 26 28  1  0
 27 26  2  0
M  END
$$$$
