QHI.pdb
     RDKit          3D

 28 28  0  0  1  0  0  0  0  0999 V2000
   29.1564  -21.1944  -15.0610 N   0  0  0  0  0  0  0  0  0  0  0  0
   29.2063  -20.0802  -15.9400 C   0  0  0  0  0  0  0  0  0  0  0  0
   29.7840  -20.2187  -17.0437 O   0  0  0  0  0  0  0  0  0  0  0  0
   28.6052  -18.7868  -15.5933 C   0  0  0  0  0  0  0  0  0  0  0  0
   27.9607  -18.7175  -14.2526 C   0  0  0  0  0  0  0  0  0  0  0  0
   26.9792  -19.8234  -13.9770 C   0  0  2  0  0  0  0  0  0  0  0  0
   25.8642  -19.7120  -14.9268 N   0  0  0  0  0  0  0  0  0  0  0  0
   26.4133  -19.6713  -12.6199 C   0  0  0  0  0  0  0  0  0  0  0  0
   26.6444  -18.6641  -11.9444 O   0  0  0  0  0  0  0  0  0  0  0  0
   25.5796  -20.6658  -12.0237 N   0  0  0  0  0  0  0  0  0  0  0  0
   24.9921  -20.5266  -10.7066 C   0  0  1  0  0  0  0  0  0  0  0  0
   23.6193  -21.1210  -10.6285 C   0  0  0  0  0  0  0  0  0  0  0  0
   22.6077  -20.5617  -11.5049 C   0  0  0  0  0  0  0  0  0  0  0  0
   22.7438  -19.5314  -12.4206 C   0  0  0  0  0  0  0  0  0  0  0  0
   21.5595  -19.3254  -13.0282 N   0  0  0  0  0  0  0  0  0  0  0  0
   20.6885  -20.1991  -12.5165 C   0  0  0  0  0  0  0  0  0  0  0  0
   21.3191  -20.9316  -11.6104 N   0  0  0  0  0  0  0  0  0  0  0  0
   25.9108  -20.8480   -9.6254 C   0  0  0  0  0  0  0  0  0  0  0  0
   26.6583  -21.8589   -9.7426 O   0  0  0  0  0  0  0  0  0  0  0  0
   29.3842  -18.9552   -5.0050 C   0  0  0  0  0  0  0  0  0  0  0  0
   28.5919  -20.1216   -5.5622 C   0  0  0  0  0  0  0  0  0  0  0  0
   27.7176  -19.5758   -6.6622 C   0  0  2  0  0  0  0  0  0  0  0  0
   26.9066  -18.4044   -6.1521 C   0  0  0  0  0  0  0  0  0  0  0  0
   26.8452  -20.6353   -7.2916 C   0  0  2  0  0  0  0  0  0  0  0  0
   26.0798  -20.1397   -8.4060 N   0  0  0  0  0  0  0  0  0  0  0  0
   25.9344  -21.1820   -6.2639 C   0  0  0  0  0  0  0  0  0  0  0  0
   24.7118  -20.9511   -6.3673 O   0  0  0  0  0  0  0  0  0  0  0  0
   26.3885  -21.9333   -5.2030 O   0  0  0  0  0  0  0  0  0  0  0  0
  2  1  1  0
  2  3  2  0
  4  5  1  0
  4  2  1  0
  5  6  1  0
  6  8  1  0
  6  7  1  6
  8  9  2  0
 10  8  1  0
 10 11  1  0
 11 12  1  6
 13 12  1  0
 14 13  2  0
 15 14  1  0
 16 15  1  0
 16 17  2  0
 17 13  1  0
 18 19  2  0
 18 11  1  0
 21 20  1  0
 21 22  1  0
 22 24  1  0
 22 23  1  1
 24 25  1  6
 25 18  1  0
 26 24  1  0
 26 28  1  0
 27 26  2  0
M  END
$$$$
