QHI.pdb
     RDKit          3D

 28 28  0  0  1  0  0  0  0  0999 V2000
   23.0243  -26.5668  -17.6223 N   0  0  0  0  0  0  0  0  0  0  0  0
   23.6806  -27.8242  -17.5525 C   0  0  0  0  0  0  0  0  0  0  0  0
   23.1875  -28.7882  -18.1840 O   0  0  0  0  0  0  0  0  0  0  0  0
   24.9068  -28.0208  -16.7701 C   0  0  0  0  0  0  0  0  0  0  0  0
   25.3975  -26.8226  -16.0344 C   0  0  0  0  0  0  0  0  0  0  0  0
   26.1171  -25.8183  -16.8923 C   0  0  2  0  0  0  0  0  0  0  0  0
   27.5406  -26.1768  -16.9449 N   0  0  0  0  0  0  0  0  0  0  0  0
   26.0277  -24.4749  -16.2820 C   0  0  0  0  0  0  0  0  0  0  0  0
   26.8415  -24.1095  -15.4286 O   0  0  0  0  0  0  0  0  0  0  0  0
   25.0107  -23.5387  -16.6406 N   0  0  0  0  0  0  0  0  0  0  0  0
   24.9609  -22.1834  -16.1308 C   0  0  1  0  0  0  0  0  0  0  0  0
   24.4826  -21.2043  -17.1587 C   0  0  0  0  0  0  0  0  0  0  0  0
   24.3053  -19.8303  -16.7285 C   0  0  0  0  0  0  0  0  0  0  0  0
   23.1239  -19.1760  -16.4203 C   0  0  0  0  0  0  0  0  0  0  0  0
   23.4051  -17.9078  -16.0643 N   0  0  0  0  0  0  0  0  0  0  0  0
   24.7294  -17.7532  -16.1420 C   0  0  0  0  0  0  0  0  0  0  0  0
   25.2587  -18.9014  -16.5381 N   0  0  0  0  0  0  0  0  0  0  0  0
   24.3725  -22.0846  -14.8040 C   0  0  0  0  0  0  0  0  0  0  0  0
   23.3868  -22.8207  -14.5194 O   0  0  0  0  0  0  0  0  0  0  0  0
   27.2046  -20.7551  -10.2234 C   0  0  0  0  0  0  0  0  0  0  0  0
   26.2996  -21.5058  -11.1805 C   0  0  0  0  0  0  0  0  0  0  0  0
   25.0635  -20.6642  -11.3709 C   0  0  2  0  0  0  0  0  0  0  0  0
   24.3384  -20.4957  -10.0534 C   0  0  0  0  0  0  0  0  0  0  0  0
   24.1552  -21.2010  -12.4509 C   0  0  2  0  0  0  0  0  0  0  0  0
   24.7836  -21.2308  -13.7462 N   0  0  0  0  0  0  0  0  0  0  0  0
   22.9328  -20.3721  -12.5079 C   0  0  0  0  0  0  0  0  0  0  0  0
   22.9175  -19.3841  -13.2710 O   0  0  0  0  0  0  0  0  0  0  0  0
   21.8172  -20.6533  -11.7511 O   0  0  0  0  0  0  0  0  0  0  0  0
  2  1  1  0
  2  3  2  0
  4  5  1  0
  4  2  1  0
  5  6  1  0
  6  8  1  0
  6  7  1  1
  8  9  2  0
 10  8  1  0
 10 11  1  0
 11 12  1  6
 13 12  1  0
 14 13  2  0
 15 14  1  0
 16 15  1  0
 16 17  2  0
 17 13  1  0
 18 19  2  0
 18 11  1  0
 21 20  1  0
 21 22  1  0
 22 24  1  0
 22 23  1  1
 24 25  1  6
 25 18  1  0
 26 24  1  0
 26 28  1  0
 27 26  2  0
M  END
$$$$
