QHI.pdb
     RDKit          3D

 28 28  0  0  1  0  0  0  0  0999 V2000
   28.3183  -17.0377  -17.6183 N   0  0  0  0  0  0  0  0  0  0  0  0
   28.6115  -17.9542  -18.6627 C   0  0  0  0  0  0  0  0  0  0  0  0
   29.3442  -17.5688  -19.6039 O   0  0  0  0  0  0  0  0  0  0  0  0
   28.0855  -19.3244  -18.6674 C   0  0  0  0  0  0  0  0  0  0  0  0
   27.3067  -19.7170  -17.4603 C   0  0  0  0  0  0  0  0  0  0  0  0
   27.8982  -20.8615  -16.6842 C   0  0  2  0  0  0  0  0  0  0  0  0
   27.9732  -22.0374  -17.5615 N   0  0  0  0  0  0  0  0  0  0  0  0
   27.0148  -21.2165  -15.5534 C   0  0  0  0  0  0  0  0  0  0  0  0
   25.9651  -21.8393  -15.7386 O   0  0  0  0  0  0  0  0  0  0  0  0
   27.3221  -20.8645  -14.2040 N   0  0  0  0  0  0  0  0  0  0  0  0
   26.3587  -20.9348  -13.1240 C   0  0  1  0  0  0  0  0  0  0  0  0
   26.9775  -20.6574  -11.7883 C   0  0  0  0  0  0  0  0  0  0  0  0
   26.1159  -20.7679  -10.6265 C   0  0  0  0  0  0  0  0  0  0  0  0
   24.7622  -21.0593  -10.5899 C   0  0  0  0  0  0  0  0  0  0  0  0
   24.3495  -21.0653   -9.3078 N   0  0  0  0  0  0  0  0  0  0  0  0
   25.4087  -20.7857   -8.5438 C   0  0  0  0  0  0  0  0  0  0  0  0
   26.4565  -20.6098   -9.3353 N   0  0  0  0  0  0  0  0  0  0  0  0
   25.1047  -20.2597  -13.4212 C   0  0  0  0  0  0  0  0  0  0  0  0
   25.1298  -19.0322  -13.7161 O   0  0  0  0  0  0  0  0  0  0  0  0
   22.4252  -20.6149  -17.4870 C   0  0  0  0  0  0  0  0  0  0  0  0
   23.0355  -20.1016  -16.1975 C   0  0  0  0  0  0  0  0  0  0  0  0
   22.0541  -20.4035  -15.0939 C   0  0  2  0  0  0  0  0  0  0  0  0
   20.7432  -19.6929  -15.3520 C   0  0  0  0  0  0  0  0  0  0  0  0
   22.6057  -20.0911  -13.7236 C   0  0  2  0  0  0  0  0  0  0  0  0
   23.8041  -20.8301  -13.4215 N   0  0  0  0  0  0  0  0  0  0  0  0
   21.5704  -20.3827  -12.7098 C   0  0  0  0  0  0  0  0  0  0  0  0
   21.4765  -21.5481  -12.2717 O   0  0  0  0  0  0  0  0  0  0  0  0
   20.7117  -19.4160  -12.2361 O   0  0  0  0  0  0  0  0  0  0  0  0
  2  1  1  0
  2  3  2  0
  4  5  1  0
  4  2  1  0
  5  6  1  0
  6  8  1  0
  6  7  1  6
  8  9  2  0
 10  8  1  0
 10 11  1  0
 11 12  1  1
 13 12  1  0
 14 13  2  0
 15 14  1  0
 16 15  1  0
 16 17  2  0
 17 13  1  0
 18 19  2  0
 18 11  1  0
 21 20  1  0
 21 22  1  0
 22 24  1  0
 22 23  1  6
 24 25  1  1
 25 18  1  0
 26 24  1  0
 26 28  1  0
 27 26  2  0
M  END
$$$$
