QHI.pdb
     RDKit          3D

 28 28  0  0  1  0  0  0  0  0999 V2000
   25.0408  -24.0789  -18.8530 N   0  0  0  0  0  0  0  0  0  0  0  0
   26.0657  -24.9448  -18.3880 C   0  0  0  0  0  0  0  0  0  0  0  0
   26.6687  -25.6562  -19.2256 O   0  0  0  0  0  0  0  0  0  0  0  0
   26.4328  -25.0263  -16.9692 C   0  0  0  0  0  0  0  0  0  0  0  0
   25.6357  -24.1678  -16.0499 C   0  0  0  0  0  0  0  0  0  0  0  0
   25.7231  -22.6951  -16.3427 C   0  0  2  0  0  0  0  0  0  0  0  0
   26.9899  -22.1816  -15.8049 N   0  0  0  0  0  0  0  0  0  0  0  0
   24.6322  -21.9759  -15.6515 C   0  0  0  0  0  0  0  0  0  0  0  0
   24.0916  -22.4533  -14.6495 O   0  0  0  0  0  0  0  0  0  0  0  0
   24.1505  -20.7076  -16.0972 N   0  0  0  0  0  0  0  0  0  0  0  0
   23.0784  -19.9877  -15.4400 C   0  0  1  0  0  0  0  0  0  0  0  0
   23.0421  -18.5408  -15.8261 C   0  0  0  0  0  0  0  0  0  0  0  0
   21.9972  -17.7265  -15.2349 C   0  0  0  0  0  0  0  0  0  0  0  0
   21.0295  -18.1082  -14.3202 C   0  0  0  0  0  0  0  0  0  0  0  0
   20.2560  -17.0442  -14.0306 N   0  0  0  0  0  0  0  0  0  0  0  0
   20.7148  -16.0095  -14.7395 C   0  0  0  0  0  0  0  0  0  0  0  0
   21.7511  -16.4228  -15.4541 N   0  0  0  0  0  0  0  0  0  0  0  0
   21.8113  -20.7025  -15.4464 C   0  0  0  0  0  0  0  0  0  0  0  0
   21.4835  -21.3499  -16.4798 O   0  0  0  0  0  0  0  0  0  0  0  0
   18.4861  -24.9059  -13.3493 C   0  0  0  0  0  0  0  0  0  0  0  0
   18.3035  -23.5426  -13.9871 C   0  0  0  0  0  0  0  0  0  0  0  0
   19.6002  -22.7948  -13.8090 C   0  0  2  0  0  0  0  0  0  0  0  0
   19.9362  -22.6750  -12.3383 C   0  0  0  0  0  0  0  0  0  0  0  0
   19.5965  -21.4517  -14.4987 C   0  0  2  0  0  0  0  0  0  0  0  0
   20.8587  -20.7665  -14.3951 N   0  0  0  0  0  0  0  0  0  0  0  0
   18.5251  -20.6152  -13.9183 C   0  0  0  0  0  0  0  0  0  0  0  0
   18.8473  -19.6633  -13.1774 O   0  0  0  0  0  0  0  0  0  0  0  0
   17.1913  -20.8508  -14.1672 O   0  0  0  0  0  0  0  0  0  0  0  0
  2  1  1  0
  2  3  2  0
  4  5  1  0
  4  2  1  0
  5  6  1  0
  6  8  1  0
  6  7  1  1
  8  9  2  0
 10  8  1  0
 10 11  1  0
 11 12  1  6
 13 12  1  0
 14 13  2  0
 15 14  1  0
 16 15  1  0
 16 17  2  0
 17 13  1  0
 18 19  2  0
 18 11  1  0
 21 20  1  0
 21 22  1  0
 22 24  1  0
 22 23  1  1
 24 25  1  1
 25 18  1  0
 26 24  1  0
 26 28  1  0
 27 26  2  0
M  END
$$$$
