QHI.pdb
     RDKit          3D

 28 28  0  0  1  0  0  0  0  0999 V2000
   23.4228  -16.8939  -22.3903 N   0  0  0  0  0  0  0  0  0  0  0  0
   23.9882  -15.8488  -21.6126 C   0  0  0  0  0  0  0  0  0  0  0  0
   24.4335  -14.8391  -22.2072 O   0  0  0  0  0  0  0  0  0  0  0  0
   24.0625  -15.9197  -20.1485 C   0  0  0  0  0  0  0  0  0  0  0  0
   23.4257  -17.1159  -19.5308 C   0  0  0  0  0  0  0  0  0  0  0  0
   24.2675  -17.7994  -18.4885 C   0  0  2  0  0  0  0  0  0  0  0  0
   25.4117  -18.4390  -19.1514 N   0  0  0  0  0  0  0  0  0  0  0  0
   23.4888  -18.8708  -17.8319 C   0  0  0  0  0  0  0  0  0  0  0  0
   22.7305  -19.5952  -18.4832 O   0  0  0  0  0  0  0  0  0  0  0  0
   23.5698  -19.1241  -16.4289 N   0  0  0  0  0  0  0  0  0  0  0  0
   22.8647  -20.2071  -15.7737 C   0  0  1  0  0  0  0  0  0  0  0  0
   23.7891  -21.1240  -15.0327 C   0  0  0  0  0  0  0  0  0  0  0  0
   24.6811  -21.9455  -15.8288 C   0  0  0  0  0  0  0  0  0  0  0  0
   24.8395  -21.9508  -17.2049 C   0  0  0  0  0  0  0  0  0  0  0  0
   25.7715  -22.8652  -17.5355 N   0  0  0  0  0  0  0  0  0  0  0  0
   26.1988  -23.4303  -16.4033 C   0  0  0  0  0  0  0  0  0  0  0  0
   25.5454  -22.8782  -15.3915 N   0  0  0  0  0  0  0  0  0  0  0  0
   21.6638  -19.7774  -15.0740 C   0  0  0  0  0  0  0  0  0  0  0  0
   21.7546  -18.8474  -14.2248 O   0  0  0  0  0  0  0  0  0  0  0  0
   17.8094  -17.6733  -17.3545 C   0  0  0  0  0  0  0  0  0  0  0  0
   18.7540  -17.9612  -16.2041 C   0  0  0  0  0  0  0  0  0  0  0  0
   18.1898  -19.1409  -15.4544 C   0  0  2  0  0  0  0  0  0  0  0  0
   16.9288  -18.7389  -14.7207 C   0  0  0  0  0  0  0  0  0  0  0  0
   19.1997  -19.7813  -14.5327 C   0  0  2  0  0  0  0  0  0  0  0  0
   20.3498  -20.2925  -15.2323 N   0  0  0  0  0  0  0  0  0  0  0  0
   18.5438  -20.8743  -13.7845 C   0  0  0  0  0  0  0  0  0  0  0  0
   18.4243  -21.9873  -14.3376 O   0  0  0  0  0  0  0  0  0  0  0  0
   18.0635  -20.7052  -12.5051 O   0  0  0  0  0  0  0  0  0  0  0  0
  2  1  1  0
  2  3  2  0
  4  5  1  0
  4  2  1  0
  5  6  1  0
  6  8  1  0
  6  7  1  6
  8  9  2  0
 10  8  1  0
 10 11  1  0
 11 12  1  1
 13 12  1  0
 14 13  2  0
 15 14  1  0
 16 15  1  0
 16 17  2  0
 17 13  1  0
 18 19  2  0
 18 11  1  0
 21 20  1  0
 21 22  1  0
 22 24  1  0
 22 23  1  1
 24 25  1  6
 25 18  1  0
 26 24  1  0
 26 28  1  0
 27 26  2  0
M  END
$$$$
