QHI.pdb
     RDKit          3D

 28 28  0  0  1  0  0  0  0  0999 V2000
   22.9052  -14.0442  -16.8763 N   0  0  0  0  0  0  0  0  0  0  0  0
   22.1671  -13.7938  -18.0633 C   0  0  0  0  0  0  0  0  0  0  0  0
   22.1762  -12.6327  -18.5355 O   0  0  0  0  0  0  0  0  0  0  0  0
   21.4041  -14.8473  -18.7433 C   0  0  0  0  0  0  0  0  0  0  0  0
   21.4514  -16.1900  -18.1010 C   0  0  0  0  0  0  0  0  0  0  0  0
   22.8215  -16.8086  -18.0542 C   0  0  2  0  0  0  0  0  0  0  0  0
   23.1310  -17.3699  -19.3759 N   0  0  0  0  0  0  0  0  0  0  0  0
   22.8385  -17.9287  -17.0896 C   0  0  0  0  0  0  0  0  0  0  0  0
   22.1342  -18.9276  -17.2636 O   0  0  0  0  0  0  0  0  0  0  0  0
   23.6588  -17.9181  -15.9207 N   0  0  0  0  0  0  0  0  0  0  0  0
   23.7354  -19.0277  -14.9921 C   0  0  1  0  0  0  0  0  0  0  0  0
   25.1057  -19.1905  -14.4093 C   0  0  0  0  0  0  0  0  0  0  0  0
   26.1437  -19.6861  -15.2932 C   0  0  0  0  0  0  0  0  0  0  0  0
   26.0354  -20.0331  -16.6299 C   0  0  0  0  0  0  0  0  0  0  0  0
   27.2381  -20.4449  -17.0748 N   0  0  0  0  0  0  0  0  0  0  0  0
   28.0936  -20.3641  -16.0523 C   0  0  0  0  0  0  0  0  0  0  0  0
   27.4353  -19.9119  -14.9952 N   0  0  0  0  0  0  0  0  0  0  0  0
   22.6151  -19.0865  -14.0658 C   0  0  0  0  0  0  0  0  0  0  0  0
   22.1923  -18.0125  -13.5537 O   0  0  0  0  0  0  0  0  0  0  0  0
   17.0916  -19.4414  -13.7661 C   0  0  0  0  0  0  0  0  0  0  0  0
   18.2184  -19.8671  -12.8454 C   0  0  0  0  0  0  0  0  0  0  0  0
   19.4720  -19.9265  -13.6804 C   0  0  2  0  0  0  0  0  0  0  0  0
   19.3023  -20.9225  -14.8070 C   0  0  0  0  0  0  0  0  0  0  0  0
   20.7060  -20.2093  -12.8577 C   0  0  2  0  0  0  0  0  0  0  0  0
   21.9089  -20.2458  -13.6484 N   0  0  0  0  0  0  0  0  0  0  0  0
   20.5312  -21.4976  -12.1546 C   0  0  0  0  0  0  0  0  0  0  0  0
   21.0745  -22.5155  -12.6317 O   0  0  0  0  0  0  0  0  0  0  0  0
   19.7932  -21.6101  -10.9975 O   0  0  0  0  0  0  0  0  0  0  0  0
  2  1  1  0
  2  3  2  0
  4  5  1  0
  4  2  1  0
  5  6  1  0
  6  8  1  0
  6  7  1  6
  8  9  2  0
 10  8  1  0
 10 11  1  0
 11 12  1  1
 13 12  1  0
 14 13  2  0
 15 14  1  0
 16 15  1  0
 16 17  2  0
 17 13  1  0
 18 19  2  0
 18 11  1  0
 21 20  1  0
 21 22  1  0
 22 24  1  0
 22 23  1  6
 24 25  1  6
 25 18  1  0
 26 24  1  0
 26 28  1  0
 27 26  2  0
M  END
$$$$
