AYV.pdb
     RDKit          3D

 25 25  0  0  1  0  0  0  0  0999 V2000
    9.1274  -19.0313   19.9060 C   0  0  0  0  0  0  0  0  0  0  0  0
    9.1204  -17.5797   19.5122 C   0  0  2  0  0  0  0  0  0  0  0  0
   10.0874  -17.2727   18.4930 N   0  0  0  0  0  0  0  0  0  0  0  0
    9.3335  -16.7116   20.7229 C   0  0  0  0  0  0  0  0  0  0  0  0
   10.5183  -16.3718   21.0078 O   0  0  0  0  0  0  0  0  0  0  0  0
    7.1311  -11.9427   27.8395 O   0  0  0  0  0  0  0  0  0  0  0  0
    7.1403  -12.6282   26.6254 C   0  0  0  0  0  0  0  0  0  0  0  0
    6.4527  -13.8074   26.4781 C   0  0  0  0  0  0  0  0  0  0  0  0
    6.4909  -14.4461   25.2651 C   0  0  0  0  0  0  0  0  0  0  0  0
    7.1956  -13.9491   24.1825 C   0  0  0  0  0  0  0  0  0  0  0  0
    7.1720  -14.7248   22.9185 C   0  0  0  0  0  0  0  0  0  0  0  0
    8.4564  -15.4824   22.6539 C   0  0  2  0  0  0  0  0  0  0  0  0
    8.2091  -16.3126   21.4890 N   0  0  0  0  0  0  0  0  0  0  0  0
    8.8101  -16.4018   23.7592 C   0  0  0  0  0  0  0  0  0  0  0  0
    8.0666  -17.3868   24.0631 O   0  0  0  0  0  0  0  0  0  0  0  0
    7.8718  -12.7757   24.3518 C   0  0  0  0  0  0  0  0  0  0  0  0
    7.8530  -12.1081   25.5612 C   0  0  0  0  0  0  0  0  0  0  0  0
   11.9979  -18.3580   24.1058 C   0  0  0  0  0  0  0  0  0  0  0  0
   11.7683  -17.6832   25.4405 C   0  0  1  0  0  0  0  0  0  0  0  0
   12.7492  -16.5523   25.5615 C   0  0  0  0  0  0  0  0  0  0  0  0
   10.3343  -17.2169   25.5602 C   0  0  2  0  0  0  0  0  0  0  0  0
    9.9831  -16.2591   24.5505 N   0  0  0  0  0  0  0  0  0  0  0  0
   10.1479  -16.6793   26.9302 C   0  0  0  0  0  0  0  0  0  0  0  0
    9.8976  -15.3419   27.1180 O   0  0  0  0  0  0  0  0  0  0  0  0
   10.2102  -17.4107   27.9529 O   0  0  0  0  0  0  0  0  0  0  0  0
  2  1  1  1
  2  3  1  0
  4  5  2  0
  4  2  1  0
  6  7  1  0
  7 17  2  0
  8  9  2  0
  8  7  1  0
  9 10  1  0
 10 11  1  0
 10 16  2  0
 12 11  1  1
 12 13  1  0
 13  4  1  0
 14 12  1  0
 15 14  2  0
 17 16  1  0
 19 18  1  6
 19 21  1  0
 19 20  1  0
 21 23  1  0
 21 22  1  6
 22 14  1  0
 23 24  1  0
 25 23  2  0
M  END
$$$$
