AYV.pdb
     RDKit          3D

 25 25  0  0  1  0  0  0  0  0999 V2000
    6.4748  -19.5179   21.7796 C   0  0  0  0  0  0  0  0  0  0  0  0
    6.4559  -18.5636   22.9421 C   0  0  2  0  0  0  0  0  0  0  0  0
    5.1767  -17.9329   23.1262 N   0  0  0  0  0  0  0  0  0  0  0  0
    7.5380  -17.5298   22.7837 C   0  0  0  0  0  0  0  0  0  0  0  0
    8.7277  -17.9343   22.6373 O   0  0  0  0  0  0  0  0  0  0  0  0
    8.2143  -14.3458   16.2250 O   0  0  0  0  0  0  0  0  0  0  0  0
    8.0774  -14.2707   17.6105 C   0  0  0  0  0  0  0  0  0  0  0  0
    7.4052  -13.2261   18.1953 C   0  0  0  0  0  0  0  0  0  0  0  0
    7.2959  -13.1947   19.5620 C   0  0  0  0  0  0  0  0  0  0  0  0
    7.8366  -14.1748   20.3761 C   0  0  0  0  0  0  0  0  0  0  0  0
    7.6627  -14.0385   21.8427 C   0  0  0  0  0  0  0  0  0  0  0  0
    8.2540  -15.1905   22.6280 C   0  0  2  0  0  0  0  0  0  0  0  0
    7.1850  -16.1567   22.8044 N   0  0  0  0  0  0  0  0  0  0  0  0
    8.6868  -14.7882   23.9856 C   0  0  0  0  0  0  0  0  0  0  0  0
    9.8923  -14.4659   24.2265 O   0  0  0  0  0  0  0  0  0  0  0  0
    8.5006  -15.2035   19.7731 C   0  0  0  0  0  0  0  0  0  0  0  0
    8.6279  -15.2639   18.3988 C   0  0  0  0  0  0  0  0  0  0  0  0
    7.4491  -12.2219   27.8814 C   0  0  0  0  0  0  0  0  0  0  0  0
    6.9797  -13.2026   26.8292 C   0  0  1  0  0  0  0  0  0  0  0  0
    6.2769  -12.4252   25.7534 C   0  0  0  0  0  0  0  0  0  0  0  0
    8.1449  -14.0042   26.2927 C   0  0  2  0  0  0  0  0  0  0  0  0
    7.8079  -14.7318   25.1022 N   0  0  0  0  0  0  0  0  0  0  0  0
    8.6163  -14.8971   27.3795 C   0  0  0  0  0  0  0  0  0  0  0  0
    8.6357  -16.2580   27.1942 O   0  0  0  0  0  0  0  0  0  0  0  0
    9.0088  -14.4537   28.4904 O   0  0  0  0  0  0  0  0  0  0  0  0
  2  1  1  6
  2  3  1  0
  4  5  2  0
  4  2  1  0
  6  7  1  0
  7 17  2  0
  8  9  2  0
  8  7  1  0
  9 10  1  0
 10 11  1  0
 10 16  2  0
 12 11  1  6
 12 13  1  0
 13  4  1  0
 14 12  1  0
 15 14  2  0
 17 16  1  0
 19 18  1  1
 19 21  1  0
 19 20  1  0
 21 23  1  0
 21 22  1  6
 22 14  1  0
 23 24  1  0
 25 23  2  0
M  END
$$$$
