AYV.pdb
     RDKit          3D

 25 25  0  0  1  0  0  0  0  0999 V2000
    5.1377  -19.5244   22.4650 C   0  0  0  0  0  0  0  0  0  0  0  0
    5.1578  -18.1973   23.1725 C   0  0  2  0  0  0  0  0  0  0  0  0
    4.5742  -17.1395   22.3924 N   0  0  0  0  0  0  0  0  0  0  0  0
    6.5642  -17.8441   23.5751 C   0  0  0  0  0  0  0  0  0  0  0  0
    7.1935  -18.6599   24.3091 O   0  0  0  0  0  0  0  0  0  0  0  0
    7.2971  -12.0917   18.7729 O   0  0  0  0  0  0  0  0  0  0  0  0
    7.7666  -13.1318   19.5740 C   0  0  0  0  0  0  0  0  0  0  0  0
    8.9903  -13.0474   20.1907 C   0  0  0  0  0  0  0  0  0  0  0  0
    9.4102  -14.0954   20.9692 C   0  0  0  0  0  0  0  0  0  0  0  0
    8.6490  -15.2358   21.1583 C   0  0  0  0  0  0  0  0  0  0  0  0
    9.2030  -16.3105   22.0174 C   0  0  0  0  0  0  0  0  0  0  0  0
    8.5351  -16.4004   23.3736 C   0  0  2  0  0  0  0  0  0  0  0  0
    7.1231  -16.6229   23.1204 N   0  0  0  0  0  0  0  0  0  0  0  0
    8.6320  -15.1362   24.1382 C   0  0  0  0  0  0  0  0  0  0  0  0
    9.3666  -14.1782   23.7407 O   0  0  0  0  0  0  0  0  0  0  0  0
    7.4361  -15.2980   20.5356 C   0  0  0  0  0  0  0  0  0  0  0  0
    6.9847  -14.2589   19.7448 C   0  0  0  0  0  0  0  0  0  0  0  0
    7.1301  -12.0665   25.3354 C   0  0  0  0  0  0  0  0  0  0  0  0
    7.4031  -12.8551   26.5974 C   0  0  1  0  0  0  0  0  0  0  0  0
    6.0916  -13.3800   27.1074 C   0  0  0  0  0  0  0  0  0  0  0  0
    8.4000  -13.9604   26.3279 C   0  0  2  0  0  0  0  0  0  0  0  0
    7.9271  -14.8989   25.3502 N   0  0  0  0  0  0  0  0  0  0  0  0
    8.7122  -14.6119   27.6235 C   0  0  0  0  0  0  0  0  0  0  0  0
    9.3232  -13.8975   28.6251 O   0  0  0  0  0  0  0  0  0  0  0  0
    8.4359  -15.8186   27.8523 O   0  0  0  0  0  0  0  0  0  0  0  0
  2  1  1  6
  2  3  1  0
  4  5  2  0
  4  2  1  0
  6  7  1  0
  7 17  2  0
  8  9  2  0
  8  7  1  0
  9 10  1  0
 10 11  1  0
 10 16  2  0
 12 11  1  6
 12 13  1  0
 13  4  1  0
 14 12  1  0
 15 14  2  0
 17 16  1  0
 19 18  1  6
 19 21  1  0
 19 20  1  0
 21 23  1  0
 21 22  1  6
 22 14  1  0
 23 24  1  0
 25 23  2  0
M  END
$$$$
