AYV.pdb
     RDKit          3D

 25 25  0  0  1  0  0  0  0  0999 V2000
    7.0691  -20.2185   24.4999 C   0  0  0  0  0  0  0  0  0  0  0  0
    7.6918  -19.3598   25.5662 C   0  0  2  0  0  0  0  0  0  0  0  0
    7.0726  -19.5303   26.8530 N   0  0  0  0  0  0  0  0  0  0  0  0
    7.6621  -17.9133   25.1520 C   0  0  0  0  0  0  0  0  0  0  0  0
    6.5789  -17.2765   25.2989 O   0  0  0  0  0  0  0  0  0  0  0  0
   10.0771  -14.6289   30.4099 O   0  0  0  0  0  0  0  0  0  0  0  0
   10.0672  -14.7917   29.0252 C   0  0  0  0  0  0  0  0  0  0  0  0
   10.7870  -15.7980   28.4301 C   0  0  0  0  0  0  0  0  0  0  0  0
   10.7467  -15.9192   27.0647 C   0  0  0  0  0  0  0  0  0  0  0  0
   10.0086  -15.0670   26.2618 C   0  0  0  0  0  0  0  0  0  0  0  0
   10.0406  -15.2868   24.7954 C   0  0  0  0  0  0  0  0  0  0  0  0
    8.7769  -15.9228   24.2550 C   0  0  2  0  0  0  0  0  0  0  0  0
    8.8378  -17.3269   24.6187 N   0  0  0  0  0  0  0  0  0  0  0  0
    8.7045  -15.8731   22.7770 C   0  0  0  0  0  0  0  0  0  0  0  0
    9.0950  -16.8494   22.0630 O   0  0  0  0  0  0  0  0  0  0  0  0
    9.3009  -14.0739   26.8749 C   0  0  0  0  0  0  0  0  0  0  0  0
    9.3209  -13.9255   28.2483 C   0  0  0  0  0  0  0  0  0  0  0  0
    6.1051  -13.2881   20.6398 C   0  0  0  0  0  0  0  0  0  0  0  0
    7.4960  -13.4891   20.0794 C   0  0  1  0  0  0  0  0  0  0  0  0
    8.3101  -12.2725   20.4156 C   0  0  0  0  0  0  0  0  0  0  0  0
    8.1092  -14.7605   20.6232 C   0  0  2  0  0  0  0  0  0  0  0  0
    8.2038  -14.7546   22.0554 N   0  0  0  0  0  0  0  0  0  0  0  0
    9.4324  -14.9356   19.9759 C   0  0  0  0  0  0  0  0  0  0  0  0
    9.5123  -15.2001   18.6304 O   0  0  0  0  0  0  0  0  0  0  0  0
   10.5113  -14.8508   20.6191 O   0  0  0  0  0  0  0  0  0  0  0  0
  2  1  1  6
  2  3  1  0
  4  5  2  0
  4  2  1  0
  6  7  1  0
  7 17  2  0
  8  9  2  0
  8  7  1  0
  9 10  1  0
 10 11  1  0
 10 16  2  0
 12 11  1  6
 12 13  1  0
 13  4  1  0
 14 12  1  0
 15 14  2  0
 17 16  1  0
 19 18  1  1
 19 21  1  0
 19 20  1  0
 21 23  1  0
 21 22  1  1
 22 14  1  0
 23 24  1  0
 25 23  2  0
M  END
$$$$
