AYV.pdb
     RDKit          3D

 25 25  0  0  1  0  0  0  0  0999 V2000
    8.7654  -18.7647   19.6852 C   0  0  0  0  0  0  0  0  0  0  0  0
    8.9370  -17.2939   19.4218 C   0  0  2  0  0  0  0  0  0  0  0  0
    9.9941  -17.0132   18.4880 N   0  0  0  0  0  0  0  0  0  0  0  0
    9.1631  -16.5571   20.7144 C   0  0  0  0  0  0  0  0  0  0  0  0
   10.3492  -16.4645   21.1446 O   0  0  0  0  0  0  0  0  0  0  0  0
    7.0822  -12.0510   28.0280 O   0  0  0  0  0  0  0  0  0  0  0  0
    7.0707  -12.6554   26.7716 C   0  0  0  0  0  0  0  0  0  0  0  0
    6.4185  -13.8466   26.5701 C   0  0  0  0  0  0  0  0  0  0  0  0
    6.4344  -14.4034   25.3169 C   0  0  0  0  0  0  0  0  0  0  0  0
    7.0821  -13.8121   24.2462 C   0  0  0  0  0  0  0  0  0  0  0  0
    7.0391  -14.5044   22.9352 C   0  0  0  0  0  0  0  0  0  0  0  0
    8.3130  -15.2559   22.6101 C   0  0  2  0  0  0  0  0  0  0  0  0
    8.0489  -16.0012   21.3926 N   0  0  0  0  0  0  0  0  0  0  0  0
    8.6633  -16.2531   23.6470 C   0  0  0  0  0  0  0  0  0  0  0  0
    7.9517  -17.2895   23.8343 O   0  0  0  0  0  0  0  0  0  0  0  0
    7.7239  -12.6284   24.4697 C   0  0  0  0  0  0  0  0  0  0  0  0
    7.7263  -12.0419   25.7206 C   0  0  0  0  0  0  0  0  0  0  0  0
   12.5868  -16.5453   25.1982 C   0  0  0  0  0  0  0  0  0  0  0  0
   11.5948  -17.6841   25.1062 C   0  0  1  0  0  0  0  0  0  0  0  0
   12.0261  -18.7518   26.0704 C   0  0  0  0  0  0  0  0  0  0  0  0
   10.1921  -17.1904   25.3834 C   0  0  2  0  0  0  0  0  0  0  0  0
    9.7976  -16.1333   24.4962 N   0  0  0  0  0  0  0  0  0  0  0  0
   10.1326  -16.7773   26.8070 C   0  0  0  0  0  0  0  0  0  0  0  0
    9.9993  -15.4501   27.1349 O   0  0  0  0  0  0  0  0  0  0  0  0
   10.2002  -17.6077   27.7507 O   0  0  0  0  0  0  0  0  0  0  0  0
  2  1  1  1
  2  3  1  0
  4  5  2  0
  4  2  1  0
  6  7  1  0
  7 17  2  0
  8  9  2  0
  8  7  1  0
  9 10  1  0
 10 11  1  0
 10 16  2  0
 12 11  1  1
 12 13  1  0
 13  4  1  0
 14 12  1  0
 15 14  2  0
 17 16  1  0
 19 18  1  1
 19 21  1  0
 19 20  1  0
 21 23  1  0
 21 22  1  6
 22 14  1  0
 23 24  1  0
 25 23  2  0
M  END
$$$$
