AYV.pdb
     RDKit          3D

 25 25  0  0  1  0  0  0  0  0999 V2000
    8.4677  -18.5133   19.4977 C   0  0  0  0  0  0  0  0  0  0  0  0
    8.7906  -17.0610   19.2775 C   0  0  2  0  0  0  0  0  0  0  0  0
    9.8989  -16.8647   18.3823 N   0  0  0  0  0  0  0  0  0  0  0  0
    9.0470  -16.3799   20.5947 C   0  0  0  0  0  0  0  0  0  0  0  0
   10.2429  -16.3040   21.0002 O   0  0  0  0  0  0  0  0  0  0  0  0
    7.1998  -11.9457   28.0157 O   0  0  0  0  0  0  0  0  0  0  0  0
    7.1476  -12.5451   26.7580 C   0  0  0  0  0  0  0  0  0  0  0  0
    6.4480  -13.7101   26.5625 C   0  0  0  0  0  0  0  0  0  0  0  0
    6.4250  -14.2630   25.3077 C   0  0  0  0  0  0  0  0  0  0  0  0
    7.0794  -13.6931   24.2295 C   0  0  0  0  0  0  0  0  0  0  0  0
    6.9916  -14.3789   22.9173 C   0  0  0  0  0  0  0  0  0  0  0  0
    8.2422  -15.1543   22.5593 C   0  0  2  0  0  0  0  0  0  0  0  0
    7.9489  -15.8552   21.3223 N   0  0  0  0  0  0  0  0  0  0  0  0
    8.5731  -16.1913   23.5629 C   0  0  0  0  0  0  0  0  0  0  0  0
    7.8261  -17.2047   23.7370 O   0  0  0  0  0  0  0  0  0  0  0  0
    7.7686  -12.5353   24.4470 C   0  0  0  0  0  0  0  0  0  0  0  0
    7.8110  -11.9534   25.6993 C   0  0  0  0  0  0  0  0  0  0  0  0
   11.4507  -18.4774   23.7459 C   0  0  0  0  0  0  0  0  0  0  0  0
   11.4016  -17.7847   25.0901 C   0  0  1  0  0  0  0  0  0  0  0  0
   12.4939  -16.7543   25.1193 C   0  0  0  0  0  0  0  0  0  0  0  0
   10.0348  -17.1819   25.3274 C   0  0  2  0  0  0  0  0  0  0  0  0
    9.7266  -16.1369   24.3929 N   0  0  0  0  0  0  0  0  0  0  0  0
    9.9889  -16.7074   26.7322 C   0  0  0  0  0  0  0  0  0  0  0  0
   10.0626  -17.6077   27.7669 O   0  0  0  0  0  0  0  0  0  0  0  0
    9.8832  -15.4879   27.0261 O   0  0  0  0  0  0  0  0  0  0  0  0
  2  1  1  1
  2  3  1  0
  4  5  2  0
  4  2  1  0
  6  7  1  0
  7 17  2  0
  8  9  2  0
  8  7  1  0
  9 10  1  0
 10 11  1  0
 10 16  2  0
 12 11  1  1
 12 13  1  0
 13  4  1  0
 14 12  1  0
 15 14  2  0
 17 16  1  0
 19 18  1  6
 19 21  1  0
 19 20  1  0
 21 23  1  0
 21 22  1  6
 22 14  1  0
 23 24  1  0
 25 23  2  0
M  END
$$$$
