AYV.pdb
     RDKit          3D

 25 25  0  0  1  0  0  0  0  0999 V2000
   11.5143  -16.4004   19.5145 C   0  0  0  0  0  0  0  0  0  0  0  0
   11.4053  -17.1766   20.7982 C   0  0  2  0  0  0  0  0  0  0  0  0
   10.5354  -18.3165   20.6896 N   0  0  0  0  0  0  0  0  0  0  0  0
   10.9572  -16.2733   21.9154 C   0  0  0  0  0  0  0  0  0  0  0  0
   11.7002  -15.2965   22.2225 O   0  0  0  0  0  0  0  0  0  0  0  0
    5.5644  -11.6480   26.9395 O   0  0  0  0  0  0  0  0  0  0  0  0
    6.1144  -12.6045   26.0870 C   0  0  0  0  0  0  0  0  0  0  0  0
    6.8696  -12.2298   25.0034 C   0  0  0  0  0  0  0  0  0  0  0  0
    7.3901  -13.2060   24.1930 C   0  0  0  0  0  0  0  0  0  0  0  0
    7.1845  -14.5551   24.4240 C   0  0  0  0  0  0  0  0  0  0  0  0
    7.7908  -15.5255   23.4803 C   0  0  0  0  0  0  0  0  0  0  0  0
    9.2982  -15.6149   23.5957 C   0  0  2  0  0  0  0  0  0  0  0  0
    9.7320  -16.5497   22.5733 N   0  0  0  0  0  0  0  0  0  0  0  0
    9.7350  -16.1774   24.8938 C   0  0  0  0  0  0  0  0  0  0  0  0
    9.9952  -17.4146   25.0239 O   0  0  0  0  0  0  0  0  0  0  0  0
    6.4306  -14.9044   25.5069 C   0  0  0  0  0  0  0  0  0  0  0  0
    5.8924  -13.9448   26.3424 C   0  0  0  0  0  0  0  0  0  0  0  0
   11.4885  -13.7348   27.8059 C   0  0  0  0  0  0  0  0  0  0  0  0
   10.6745  -14.8931   28.3396 C   0  0  1  0  0  0  0  0  0  0  0  0
    9.3743  -14.3458   28.8550 C   0  0  0  0  0  0  0  0  0  0  0  0
   10.4735  -15.9401   27.2664 C   0  0  2  0  0  0  0  0  0  0  0  0
    9.8944  -15.3958   26.0711 N   0  0  0  0  0  0  0  0  0  0  0  0
    9.6447  -17.0258   27.8453 C   0  0  0  0  0  0  0  0  0  0  0  0
   10.1615  -17.8421   28.8216 O   0  0  0  0  0  0  0  0  0  0  0  0
    8.4608  -17.2380   27.4735 O   0  0  0  0  0  0  0  0  0  0  0  0
  2  1  1  6
  2  3  1  0
  4  5  2  0
  4  2  1  0
  6  7  1  0
  7 17  2  0
  8  9  2  0
  8  7  1  0
  9 10  1  0
 10 11  1  0
 10 16  2  0
 12 11  1  1
 12 13  1  0
 13  4  1  0
 14 12  1  0
 15 14  2  0
 17 16  1  0
 19 18  1  6
 19 21  1  0
 19 20  1  0
 21 23  1  0
 21 22  1  6
 22 14  1  0
 23 24  1  0
 25 23  2  0
M  END
$$$$
