LLS.pdb
     RDKit          3D

 23 22  0  0  1  0  0  0  0  0999 V2000
    6.1232  -17.6295   19.4848 C   0  0  0  0  0  0  0  0  0  0  0  0
    7.3723  -18.2241   20.0541 C   0  0  2  0  0  0  0  0  0  0  0  0
    7.0874  -19.6751   20.3794 C   0  0  0  0  0  0  0  0  0  0  0  0
    7.8767  -17.5426   21.2796 C   0  0  0  0  0  0  0  0  0  0  0  0
    8.0710  -16.0552   21.0943 C   0  0  2  0  0  0  0  0  0  0  0  0
    9.1967  -15.8479   20.2142 N   0  0  0  0  0  0  0  0  0  0  0  0
    8.3642  -15.3875   22.3857 C   0  0  0  0  0  0  0  0  0  0  0  0
    9.5416  -15.2313   22.8139 O   0  0  0  0  0  0  0  0  0  0  0  0
    5.3931  -12.0188   26.7620 C   0  0  0  0  0  0  0  0  0  0  0  0
    6.6696  -12.6046   26.2168 C   0  0  2  0  0  0  0  0  0  0  0  0
    7.6276  -11.4174   26.0032 C   0  0  0  0  0  0  0  0  0  0  0  0
    6.5228  -13.2962   24.9231 C   0  0  0  0  0  0  0  0  0  0  0  0
    7.6133  -14.1861   24.4503 C   0  0  2  0  0  0  0  0  0  0  0  0
    7.3278  -14.8755   23.2325 N   0  0  0  0  0  0  0  0  0  0  0  0
    8.1168  -15.1004   25.5179 C   0  0  0  0  0  0  0  0  0  0  0  0
    8.5363  -14.6656   26.6219 O   0  0  0  0  0  0  0  0  0  0  0  0
    8.3948  -19.3453   24.9587 O   0  0  0  0  0  0  0  0  0  0  0  0
    8.0459  -18.7862   26.1860 C   0  0  0  0  0  0  0  0  0  0  0  0
    8.6712  -17.4200   26.3600 C   0  0  2  0  0  0  0  0  0  0  0  0
    8.1451  -16.5063   25.3351 N   0  0  0  0  0  0  0  0  0  0  0  0
   10.1315  -17.4558   26.3577 C   0  0  0  0  0  0  0  0  0  0  0  0
   10.8558  -16.7877   25.3926 O   0  0  0  0  0  0  0  0  0  0  0  0
   10.7581  -18.0956   27.2343 O   0  0  0  0  0  0  0  0  0  0  0  0
  2  1  1  1
  2  3  1  0
  4  5  1  0
  4  2  1  0
  5  7  1  0
  5  6  1  6
  7  8  2  0
 10  9  1  6
 11 10  1  0
 12 10  1  0
 13 12  1  1
 14 13  1  0
 14  7  1  0
 15 13  1  0
 15 16  2  0
 17 18  1  0
 19 18  1  6
 19 20  1  0
 19 21  1  0
 20 15  1  0
 21 22  1  0
 23 21  2  0
M  END
$$$$
