LLS.pdb
     RDKit          3D

 23 22  0  0  1  0  0  0  0  0999 V2000
    6.4834  -20.7422   27.4103 C   0  0  0  0  0  0  0  0  0  0  0  0
    7.2469  -20.9908   26.1481 C   0  0  2  0  0  0  0  0  0  0  0  0
    8.5416  -21.6824   26.5191 C   0  0  0  0  0  0  0  0  0  0  0  0
    7.5607  -19.7624   25.3650 C   0  0  0  0  0  0  0  0  0  0  0  0
    6.3311  -18.9678   24.9892 C   0  0  2  0  0  0  0  0  0  0  0  0
    5.7392  -19.5693   23.8176 N   0  0  0  0  0  0  0  0  0  0  0  0
    6.6790  -17.5635   24.6628 C   0  0  0  0  0  0  0  0  0  0  0  0
    7.0153  -17.2032   23.5004 O   0  0  0  0  0  0  0  0  0  0  0  0
    6.9153  -11.9443   27.4352 C   0  0  0  0  0  0  0  0  0  0  0  0
    7.0847  -12.7807   26.1936 C   0  0  2  0  0  0  0  0  0  0  0  0
    6.2482  -12.0934   25.0979 C   0  0  0  0  0  0  0  0  0  0  0  0
    6.6008  -14.1677   26.3185 C   0  0  0  0  0  0  0  0  0  0  0  0
    7.0806  -15.1911   25.3556 C   0  0  2  0  0  0  0  0  0  0  0  0
    6.6556  -16.5230   25.6477 N   0  0  0  0  0  0  0  0  0  0  0  0
    8.5498  -15.1043   25.1043 C   0  0  0  0  0  0  0  0  0  0  0  0
    9.1100  -14.0171   24.8071 O   0  0  0  0  0  0  0  0  0  0  0  0
   11.4080  -17.5216   26.7919 O   0  0  0  0  0  0  0  0  0  0  0  0
   11.6138  -16.2934   26.1678 C   0  0  0  0  0  0  0  0  0  0  0  0
   10.8210  -16.1950   24.8834 C   0  0  2  0  0  0  0  0  0  0  0  0
    9.3838  -16.2478   25.1896 N   0  0  0  0  0  0  0  0  0  0  0  0
   11.2036  -17.2026   23.8974 C   0  0  0  0  0  0  0  0  0  0  0  0
   12.4898  -17.2583   23.4028 O   0  0  0  0  0  0  0  0  0  0  0  0
   10.3694  -18.0392   23.4795 O   0  0  0  0  0  0  0  0  0  0  0  0
  2  1  1  1
  2  3  1  0
  4  5  1  0
  4  2  1  0
  5  7  1  0
  5  6  1  6
  7  8  2  0
 10  9  1  1
 11 10  1  0
 12 10  1  0
 13 12  1  1
 14 13  1  0
 14  7  1  0
 15 13  1  0
 15 16  2  0
 17 18  1  0
 19 18  1  1
 19 20  1  0
 19 21  1  0
 20 15  1  0
 21 22  1  0
 23 21  2  0
M  END
$$$$
