LLS.pdb
     RDKit          3D

 23 22  0  0  1  0  0  0  0  0999 V2000
    8.1135  -12.4316   18.9689 C   0  0  0  0  0  0  0  0  0  0  0  0
    7.9376  -13.5482   19.9488 C   0  0  2  0  0  0  0  0  0  0  0  0
    6.8130  -13.1668   20.8880 C   0  0  0  0  0  0  0  0  0  0  0  0
    9.1536  -13.8620   20.7511 C   0  0  0  0  0  0  0  0  0  0  0  0
    9.0028  -15.1067   21.5952 C   0  0  2  0  0  0  0  0  0  0  0  0
    7.6527  -15.5972   21.4484 N   0  0  0  0  0  0  0  0  0  0  0  0
    9.2350  -14.8130   23.0303 C   0  0  0  0  0  0  0  0  0  0  0  0
   10.3426  -14.3887   23.4628 O   0  0  0  0  0  0  0  0  0  0  0  0
    8.0928  -11.8839   26.4332 C   0  0  0  0  0  0  0  0  0  0  0  0
    7.0139  -12.8485   26.0144 C   0  0  2  0  0  0  0  0  0  0  0  0
    5.7978  -12.5446   26.9098 C   0  0  0  0  0  0  0  0  0  0  0  0
    7.3579  -14.2702   26.1987 C   0  0  0  0  0  0  0  0  0  0  0  0
    8.4787  -14.8509   25.4170 C   0  0  2  0  0  0  0  0  0  0  0  0
    8.2148  -14.9921   24.0205 N   0  0  0  0  0  0  0  0  0  0  0  0
    9.0189  -16.1034   26.0241 C   0  0  0  0  0  0  0  0  0  0  0  0
    9.2426  -16.2005   27.2589 O   0  0  0  0  0  0  0  0  0  0  0  0
   10.5065  -19.2904   23.6633 O   0  0  0  0  0  0  0  0  0  0  0  0
    9.7405  -19.5990   24.7851 C   0  0  0  0  0  0  0  0  0  0  0  0
    9.8147  -18.4951   25.8164 C   0  0  2  0  0  0  0  0  0  0  0  0
    9.3052  -17.2450   25.2334 N   0  0  0  0  0  0  0  0  0  0  0  0
   11.1528  -18.3269   26.3776 C   0  0  0  0  0  0  0  0  0  0  0  0
   11.7798  -19.3620   27.0391 O   0  0  0  0  0  0  0  0  0  0  0  0
   11.7604  -17.2361   26.2695 O   0  0  0  0  0  0  0  0  0  0  0  0
  2  1  1  6
  2  3  1  0
  4  5  1  0
  4  2  1  0
  5  7  1  0
  5  6  1  1
  7  8  2  0
 10  9  1  1
 11 10  1  0
 12 10  1  0
 13 12  1  1
 14 13  1  0
 14  7  1  0
 15 13  1  0
 15 16  2  0
 17 18  1  0
 19 18  1  6
 19 20  1  0
 19 21  1  0
 20 15  1  0
 21 22  1  0
 23 21  2  0
M  END
$$$$
