LLS.pdb
     RDKit          3D

 23 22  0  0  1  0  0  0  0  0999 V2000
    8.9548  -14.2263   18.7076 C   0  0  0  0  0  0  0  0  0  0  0  0
    7.9004  -13.5003   19.4817 C   0  0  2  0  0  0  0  0  0  0  0  0
    7.7694  -12.1110   18.8944 C   0  0  0  0  0  0  0  0  0  0  0  0
    8.1764  -13.3853   20.9416 C   0  0  0  0  0  0  0  0  0  0  0  0
    8.3881  -14.7229   21.6128 C   0  0  2  0  0  0  0  0  0  0  0  0
    7.1354  -15.4408   21.6056 N   0  0  0  0  0  0  0  0  0  0  0  0
    8.8164  -14.5537   23.0227 C   0  0  0  0  0  0  0  0  0  0  0  0
    9.9835  -14.1878   23.3353 O   0  0  0  0  0  0  0  0  0  0  0  0
    7.9944  -11.5992   26.3161 C   0  0  0  0  0  0  0  0  0  0  0  0
    6.9364  -12.6486   26.0941 C   0  0  2  0  0  0  0  0  0  0  0  0
    5.7895  -12.3113   27.0656 C   0  0  0  0  0  0  0  0  0  0  0  0
    7.3715  -14.0277   26.3811 C   0  0  0  0  0  0  0  0  0  0  0  0
    8.3576  -14.6775   25.4811 C   0  0  2  0  0  0  0  0  0  0  0  0
    7.9310  -14.7953   24.1232 N   0  0  0  0  0  0  0  0  0  0  0  0
    8.8784  -15.9654   26.0282 C   0  0  0  0  0  0  0  0  0  0  0  0
    9.1715  -16.1006   27.2447 O   0  0  0  0  0  0  0  0  0  0  0  0
    9.1431  -19.4263   23.6171 O   0  0  0  0  0  0  0  0  0  0  0  0
    8.9850  -19.5254   24.9976 C   0  0  0  0  0  0  0  0  0  0  0  0
    9.6346  -18.3573   25.7057 C   0  0  2  0  0  0  0  0  0  0  0  0
    9.0668  -17.0995   25.1981 N   0  0  0  0  0  0  0  0  0  0  0  0
   11.0923  -18.3718   25.6125 C   0  0  0  0  0  0  0  0  0  0  0  0
   11.8226  -19.4421   26.0852 O   0  0  0  0  0  0  0  0  0  0  0  0
   11.7111  -17.4101   25.0999 O   0  0  0  0  0  0  0  0  0  0  0  0
  2  1  1  6
  2  3  1  0
  4  5  1  0
  4  2  1  0
  5  7  1  0
  5  6  1  1
  7  8  2  0
 10  9  1  1
 11 10  1  0
 12 10  1  0
 13 12  1  1
 14 13  1  0
 14  7  1  0
 15 13  1  0
 15 16  2  0
 17 18  1  0
 19 18  1  6
 19 20  1  0
 19 21  1  0
 20 15  1  0
 21 22  1  0
 23 21  2  0
M  END
$$$$
