LLS.pdb
     RDKit          3D

 23 22  0  0  1  0  0  0  0  0999 V2000
    8.6357  -14.9186   18.3834 C   0  0  0  0  0  0  0  0  0  0  0  0
    7.7857  -14.0545   19.2602 C   0  0  2  0  0  0  0  0  0  0  0  0
    7.5124  -12.7656   18.5144 C   0  0  0  0  0  0  0  0  0  0  0  0
    8.3933  -13.7302   20.5818 C   0  0  0  0  0  0  0  0  0  0  0  0
    8.5653  -14.9415   21.4692 C   0  0  2  0  0  0  0  0  0  0  0  0
    7.3704  -15.7471   21.3789 N   0  0  0  0  0  0  0  0  0  0  0  0
    8.7508  -14.5461   22.8866 C   0  0  0  0  0  0  0  0  0  0  0  0
    9.8278  -14.0437   23.3128 O   0  0  0  0  0  0  0  0  0  0  0  0
    5.8113  -12.1127   27.6306 C   0  0  0  0  0  0  0  0  0  0  0  0
    7.0362  -12.7970   27.0819 C   0  0  2  0  0  0  0  0  0  0  0  0
    8.1097  -11.7016   26.9389 C   0  0  0  0  0  0  0  0  0  0  0  0
    6.8510  -13.4142   25.7558 C   0  0  0  0  0  0  0  0  0  0  0  0
    7.8968  -14.3277   25.2303 C   0  0  2  0  0  0  0  0  0  0  0  0
    7.7173  -14.7092   23.8657 N   0  0  0  0  0  0  0  0  0  0  0  0
    8.1414  -15.5000   26.1219 C   0  0  0  0  0  0  0  0  0  0  0  0
    8.4971  -15.3601   27.3211 O   0  0  0  0  0  0  0  0  0  0  0  0
    7.2629  -19.3943   24.7945 O   0  0  0  0  0  0  0  0  0  0  0  0
    7.1091  -19.0519   26.1360 C   0  0  0  0  0  0  0  0  0  0  0  0
    8.1085  -17.9932   26.5463 C   0  0  2  0  0  0  0  0  0  0  0  0
    7.9830  -16.8298   25.6558 N   0  0  0  0  0  0  0  0  0  0  0  0
    9.4803  -18.4922   26.5980 C   0  0  0  0  0  0  0  0  0  0  0  0
    9.8257  -19.5321   27.4355 O   0  0  0  0  0  0  0  0  0  0  0  0
   10.3741  -17.9847   25.8808 O   0  0  0  0  0  0  0  0  0  0  0  0
  2  1  1  6
  2  3  1  0
  4  5  1  0
  4  2  1  0
  5  7  1  0
  5  6  1  1
  7  8  2  0
 10  9  1  6
 11 10  1  0
 12 10  1  0
 13 12  1  1
 14 13  1  0
 14  7  1  0
 15 13  1  0
 15 16  2  0
 17 18  1  0
 19 18  1  6
 19 20  1  0
 19 21  1  0
 20 15  1  0
 21 22  1  0
 23 21  2  0
M  END
$$$$
