LLS.pdb
     RDKit          3D

 23 22  0  0  1  0  0  0  0  0999 V2000
    8.0996  -14.2089   18.5284 C   0  0  0  0  0  0  0  0  0  0  0  0
    7.8430  -13.5702   19.8565 C   0  0  2  0  0  0  0  0  0  0  0  0
    7.6537  -12.0857   19.6272 C   0  0  0  0  0  0  0  0  0  0  0  0
    8.9285  -13.7714   20.8576 C   0  0  0  0  0  0  0  0  0  0  0  0
    8.7763  -15.0500   21.6492 C   0  0  2  0  0  0  0  0  0  0  0  0
    7.4273  -15.5354   21.4777 N   0  0  0  0  0  0  0  0  0  0  0  0
    9.0033  -14.8154   23.0960 C   0  0  0  0  0  0  0  0  0  0  0  0
   10.1207  -14.4470   23.5538 O   0  0  0  0  0  0  0  0  0  0  0  0
    7.8901  -11.7925   26.3667 C   0  0  0  0  0  0  0  0  0  0  0  0
    6.8066  -12.7473   25.9372 C   0  0  2  0  0  0  0  0  0  0  0  0
    5.5553  -12.3679   26.7515 C   0  0  0  0  0  0  0  0  0  0  0  0
    7.0990  -14.1671   26.2064 C   0  0  0  0  0  0  0  0  0  0  0  0
    8.2032  -14.8311   25.4686 C   0  0  2  0  0  0  0  0  0  0  0  0
    7.9666  -14.9920   24.0693 N   0  0  0  0  0  0  0  0  0  0  0  0
    8.6539  -16.0970   26.1194 C   0  0  0  0  0  0  0  0  0  0  0  0
    8.8037  -16.1868   27.3658 O   0  0  0  0  0  0  0  0  0  0  0  0
   10.0903  -19.3278   23.7974 O   0  0  0  0  0  0  0  0  0  0  0  0
    9.4167  -19.6178   24.9816 C   0  0  0  0  0  0  0  0  0  0  0  0
    9.5164  -18.4693   25.9609 C   0  0  2  0  0  0  0  0  0  0  0  0
    8.9344  -17.2605   25.3590 N   0  0  0  0  0  0  0  0  0  0  0  0
   10.8792  -18.2385   26.4335 C   0  0  0  0  0  0  0  0  0  0  0  0
   11.5419  -17.0648   26.1414 O   0  0  0  0  0  0  0  0  0  0  0  0
   11.4759  -19.1041   27.1157 O   0  0  0  0  0  0  0  0  0  0  0  0
  2  1  1  6
  2  3  1  0
  4  5  1  0
  4  2  1  0
  5  7  1  0
  5  6  1  1
  7  8  2  0
 10  9  1  1
 11 10  1  0
 12 10  1  0
 13 12  1  1
 14 13  1  0
 14  7  1  0
 15 13  1  0
 15 16  2  0
 17 18  1  0
 19 18  1  6
 19 20  1  0
 19 21  1  0
 20 15  1  0
 21 22  1  0
 23 21  2  0
M  END
$$$$
