NGP.pdb
     RDKit          3D

 20 20  0  0  1  0  0  0  0  0999 V2000
    8.7195  -12.5668   17.7119 N   0  0  0  0  0  0  0  0  0  0  0  0
    8.0548  -13.7891   18.0823 C   0  0  0  0  0  0  0  0  0  0  0  0
    8.0900  -14.7274   17.2686 O   0  0  0  0  0  0  0  0  0  0  0  0
    7.3934  -13.8202   19.3893 C   0  0  0  0  0  0  0  0  0  0  0  0
    8.2878  -14.3494   20.4846 C   0  0  2  0  0  0  0  0  0  0  0  0
    8.4254  -15.8087   20.3036 N   0  0  0  0  0  0  0  0  0  0  0  0
    7.6073  -14.1864   21.7883 C   0  0  0  0  0  0  0  0  0  0  0  0
    7.3361  -13.0312   22.2241 O   0  0  0  0  0  0  0  0  0  0  0  0
    7.2598  -15.3326   22.5473 N   0  0  0  0  0  0  0  0  0  0  0  0
    6.6481  -15.1608   23.8502 C   0  0  0  0  0  0  0  0  0  0  0  0
    7.6546  -14.6637   24.8278 C   0  0  0  0  0  0  0  0  0  0  0  0
    8.8482  -15.0766   24.7780 O   0  0  0  0  0  0  0  0  0  0  0  0
    7.2803  -13.7216   25.8240 N   0  0  0  0  0  0  0  0  0  0  0  0
    5.9574  -13.0742   25.8627 C   0  0  0  0  0  0  0  0  0  0  0  0
    6.2380  -11.8088   26.6959 C   0  0  0  0  0  0  0  0  0  0  0  0
    7.1587  -12.4084   27.7322 C   0  0  0  0  0  0  0  0  0  0  0  0
    8.0993  -13.2437   26.9134 C   0  0  1  0  0  0  0  0  0  0  0  0
    8.6924  -14.3474   27.6957 C   0  0  0  0  0  0  0  0  0  0  0  0
    9.7261  -14.1275   28.3630 O   0  0  0  0  0  0  0  0  0  0  0  0
    8.1485  -15.6184   27.7200 O   0  0  0  0  0  0  0  0  0  0  0  0
  2  1  1  0
  3  2  2  0
  4  5  1  0
  4  2  1  0
  5  6  1  6
  7  5  1  0
  7  8  2  0
  9  7  1  0
 10  9  1  0
 11 10  1  0
 12 11  2  0
 13 17  1  0
 13 11  1  0
 14 13  1  0
 15 14  1  0
 15 16  1  0
 16 17  1  0
 17 18  1  1
 18 19  2  0
 18 20  1  0
M  END
$$$$
