NGP.pdb
     RDKit          3D

 20 20  0  0  1  0  0  0  0  0999 V2000
    7.8302  -13.8266   16.2476 N   0  0  0  0  0  0  0  0  0  0  0  0
    8.4643  -13.8234   17.5402 C   0  0  0  0  0  0  0  0  0  0  0  0
    9.6994  -13.6911   17.5700 O   0  0  0  0  0  0  0  0  0  0  0  0
    7.5963  -13.9769   18.7105 C   0  0  0  0  0  0  0  0  0  0  0  0
    8.2761  -14.6934   19.8526 C   0  0  2  0  0  0  0  0  0  0  0  0
    8.3691  -16.1265   19.5083 N   0  0  0  0  0  0  0  0  0  0  0  0
    7.4038  -14.6408   21.0466 C   0  0  0  0  0  0  0  0  0  0  0  0
    6.1533  -14.7817   20.9273 O   0  0  0  0  0  0  0  0  0  0  0  0
    7.9771  -14.4322   22.3265 N   0  0  0  0  0  0  0  0  0  0  0  0
    7.1080  -14.3010   23.4793 C   0  0  0  0  0  0  0  0  0  0  0  0
    7.9067  -13.9553   24.6869 C   0  0  0  0  0  0  0  0  0  0  0  0
    9.1243  -14.2863   24.7610 O   0  0  0  0  0  0  0  0  0  0  0  0
    7.3055  -13.2507   25.7650 N   0  0  0  0  0  0  0  0  0  0  0  0
    5.9614  -12.6528   25.6855 C   0  0  0  0  0  0  0  0  0  0  0  0
    6.0135  -11.5848   26.7949 C   0  0  0  0  0  0  0  0  0  0  0  0
    6.7676  -12.3695   27.8421 C   0  0  0  0  0  0  0  0  0  0  0  0
    7.8868  -12.9954   27.0622 C   0  0  1  0  0  0  0  0  0  0  0  0
    8.3942  -14.2263   27.7020 C   0  0  0  0  0  0  0  0  0  0  0  0
    9.3280  -14.1371   28.5280 O   0  0  0  0  0  0  0  0  0  0  0  0
    7.8762  -15.4776   27.4233 O   0  0  0  0  0  0  0  0  0  0  0  0
  2  1  1  0
  3  2  2  0
  4  5  1  0
  4  2  1  0
  5  6  1  6
  7  5  1  0
  7  8  2  0
  9  7  1  0
 10  9  1  0
 11 10  1  0
 12 11  2  0
 13 17  1  0
 13 11  1  0
 14 13  1  0
 15 14  1  0
 15 16  1  0
 16 17  1  0
 17 18  1  1
 18 19  2  0
 18 20  1  0
M  END
$$$$
