NGP.pdb
     RDKit          3D

 20 20  0  0  1  0  0  0  0  0999 V2000
    7.8470  -14.0757   17.7767 N   0  0  0  0  0  0  0  0  0  0  0  0
    8.6601  -13.3115   18.6864 C   0  0  0  0  0  0  0  0  0  0  0  0
    9.1282  -12.2384   18.2702 O   0  0  0  0  0  0  0  0  0  0  0  0
    8.8654  -13.8667   20.0267 C   0  0  0  0  0  0  0  0  0  0  0  0
    8.2175  -15.2189   20.2047 C   0  0  2  0  0  0  0  0  0  0  0  0
    7.1395  -15.3497   19.2037 N   0  0  0  0  0  0  0  0  0  0  0  0
    7.5319  -15.2600   21.5153 C   0  0  0  0  0  0  0  0  0  0  0  0
    7.4061  -16.3555   22.1331 O   0  0  0  0  0  0  0  0  0  0  0  0
    7.0167  -14.0639   22.0760 N   0  0  0  0  0  0  0  0  0  0  0  0
    6.3596  -14.1125   23.3673 C   0  0  0  0  0  0  0  0  0  0  0  0
    7.3611  -13.9621   24.4583 C   0  0  0  0  0  0  0  0  0  0  0  0
    8.4624  -14.5796   24.4010 O   0  0  0  0  0  0  0  0  0  0  0  0
    7.0855  -13.1231   25.5720 N   0  0  0  0  0  0  0  0  0  0  0  0
    5.8905  -12.2658   25.6575 C   0  0  0  0  0  0  0  0  0  0  0  0
    6.3240  -11.2037   26.6860 C   0  0  0  0  0  0  0  0  0  0  0  0
    7.0610  -12.0994   27.6533 C   0  0  0  0  0  0  0  0  0  0  0  0
    7.8998  -12.9596   26.7537 C   0  0  1  0  0  0  0  0  0  0  0  0
    8.2465  -14.2518   27.3796 C   0  0  0  0  0  0  0  0  0  0  0  0
    7.4784  -15.2251   27.2216 O   0  0  0  0  0  0  0  0  0  0  0  0
    9.3904  -14.4292   28.1358 O   0  0  0  0  0  0  0  0  0  0  0  0
  2  1  1  0
  3  2  2  0
  4  5  1  0
  4  2  1  0
  5  6  1  6
  7  5  1  0
  7  8  2  0
  9  7  1  0
 10  9  1  0
 11 10  1  0
 12 11  2  0
 13 17  1  0
 13 11  1  0
 14 13  1  0
 15 14  1  0
 15 16  1  0
 16 17  1  0
 17 18  1  1
 18 19  2  0
 18 20  1  0
M  END
$$$$
