NGP.pdb
     RDKit          3D

 20 20  0  0  1  0  0  0  0  0999 V2000
    8.7538  -12.5449   17.5579 N   0  0  0  0  0  0  0  0  0  0  0  0
    8.1343  -13.7983   17.9013 C   0  0  0  0  0  0  0  0  0  0  0  0
    8.2668  -14.7391   17.1006 O   0  0  0  0  0  0  0  0  0  0  0  0
    7.3998  -13.8556   19.1678 C   0  0  0  0  0  0  0  0  0  0  0  0
    8.2713  -14.2645   20.3310 C   0  0  2  0  0  0  0  0  0  0  0  0
    8.5042  -15.7203   20.2439 N   0  0  0  0  0  0  0  0  0  0  0  0
    7.5213  -14.0701   21.5915 C   0  0  0  0  0  0  0  0  0  0  0  0
    7.1788  -12.9089   21.9550 O   0  0  0  0  0  0  0  0  0  0  0  0
    7.1876  -15.1929   22.3905 N   0  0  0  0  0  0  0  0  0  0  0  0
    6.5891  -14.9822   23.6939 C   0  0  0  0  0  0  0  0  0  0  0  0
    7.6029  -14.4464   24.6431 C   0  0  0  0  0  0  0  0  0  0  0  0
    8.8136  -14.7960   24.5456 O   0  0  0  0  0  0  0  0  0  0  0  0
    7.2162  -13.5381   25.6656 N   0  0  0  0  0  0  0  0  0  0  0  0
    5.9095  -12.8579   25.6858 C   0  0  0  0  0  0  0  0  0  0  0  0
    6.1911  -11.6373   26.5829 C   0  0  0  0  0  0  0  0  0  0  0  0
    7.0582  -12.3049   27.6238 C   0  0  0  0  0  0  0  0  0  0  0  0
    8.0067  -13.1292   26.8031 C   0  0  1  0  0  0  0  0  0  0  0  0
    8.5430  -14.2807   27.5569 C   0  0  0  0  0  0  0  0  0  0  0  0
    7.9395  -15.3738   27.5005 O   0  0  0  0  0  0  0  0  0  0  0  0
    9.6897  -14.1983   28.3251 O   0  0  0  0  0  0  0  0  0  0  0  0
  2  1  1  0
  3  2  2  0
  4  5  1  0
  4  2  1  0
  5  6  1  6
  7  5  1  0
  7  8  2  0
  9  7  1  0
 10  9  1  0
 11 10  1  0
 12 11  2  0
 13 17  1  0
 13 11  1  0
 14 13  1  0
 15 14  1  0
 15 16  1  0
 16 17  1  0
 17 18  1  1
 18 19  2  0
 18 20  1  0
M  END
$$$$
