NGP.pdb
     RDKit          3D

 20 20  0  0  1  0  0  0  0  0999 V2000
    9.2200  -12.7598   17.4824 N   0  0  0  0  0  0  0  0  0  0  0  0
    8.1970  -13.7321   17.7670 C   0  0  0  0  0  0  0  0  0  0  0  0
    7.9492  -14.5744   16.8877 O   0  0  0  0  0  0  0  0  0  0  0  0
    7.5355  -13.6436   19.0713 C   0  0  0  0  0  0  0  0  0  0  0  0
    8.3679  -14.2240   20.1894 C   0  0  2  0  0  0  0  0  0  0  0  0
    8.3942  -15.6921   20.0310 N   0  0  0  0  0  0  0  0  0  0  0  0
    7.6809  -13.9888   21.4785 C   0  0  0  0  0  0  0  0  0  0  0  0
    7.5635  -12.8147   21.9317 O   0  0  0  0  0  0  0  0  0  0  0  0
    7.1537  -15.0872   22.2039 N   0  0  0  0  0  0  0  0  0  0  0  0
    6.5281  -14.8519   23.4903 C   0  0  0  0  0  0  0  0  0  0  0  0
    7.5384  -14.3697   24.4714 C   0  0  0  0  0  0  0  0  0  0  0  0
    8.7337  -14.7754   24.4057 O   0  0  0  0  0  0  0  0  0  0  0  0
    7.1658  -13.4499   25.4888 N   0  0  0  0  0  0  0  0  0  0  0  0
    5.8897  -12.7135   25.4799 C   0  0  0  0  0  0  0  0  0  0  0  0
    6.2013  -11.5102   26.3904 C   0  0  0  0  0  0  0  0  0  0  0  0
    7.0119  -12.2195   27.4492 C   0  0  0  0  0  0  0  0  0  0  0  0
    7.9442  -13.0808   26.6481 C   0  0  1  0  0  0  0  0  0  0  0  0
    8.4107  -14.2578   27.4088 C   0  0  0  0  0  0  0  0  0  0  0  0
    9.4810  -14.1779   28.0493 O   0  0  0  0  0  0  0  0  0  0  0  0
    7.7089  -15.4488   27.4413 O   0  0  0  0  0  0  0  0  0  0  0  0
  2  1  1  0
  3  2  2  0
  4  5  1  0
  4  2  1  0
  5  6  1  6
  7  5  1  0
  7  8  2  0
  9  7  1  0
 10  9  1  0
 11 10  1  0
 12 11  2  0
 13 17  1  0
 13 11  1  0
 14 13  1  0
 15 14  1  0
 15 16  1  0
 16 17  1  0
 17 18  1  1
 18 19  2  0
 18 20  1  0
M  END
$$$$
