NGP.pdb
     RDKit          3D

 20 20  0  0  1  0  0  0  0  0999 V2000
    7.8072  -13.3833   17.2740 N   0  0  0  0  0  0  0  0  0  0  0  0
    8.6040  -13.3400   18.4723 C   0  0  0  0  0  0  0  0  0  0  0  0
    9.8035  -13.0396   18.3500 O   0  0  0  0  0  0  0  0  0  0  0  0
    7.9299  -13.6545   19.7346 C   0  0  0  0  0  0  0  0  0  0  0  0
    8.2218  -15.0541   20.2202 C   0  0  2  0  0  0  0  0  0  0  0  0
    7.5279  -16.0060   19.3295 N   0  0  0  0  0  0  0  0  0  0  0  0
    7.5991  -15.2468   21.5485 C   0  0  0  0  0  0  0  0  0  0  0  0
    7.6747  -16.3667   22.1299 O   0  0  0  0  0  0  0  0  0  0  0  0
    6.9169  -14.1688   22.1674 N   0  0  0  0  0  0  0  0  0  0  0  0
    6.3795  -14.3434   23.5024 C   0  0  0  0  0  0  0  0  0  0  0  0
    7.4065  -13.9869   24.5192 C   0  0  0  0  0  0  0  0  0  0  0  0
    8.5898  -14.4166   24.4066 O   0  0  0  0  0  0  0  0  0  0  0  0
    7.0633  -13.1609   25.6238 N   0  0  0  0  0  0  0  0  0  0  0  0
    5.7375  -12.5383   25.7818 C   0  0  0  0  0  0  0  0  0  0  0  0
    6.0395  -11.3653   26.7341 C   0  0  0  0  0  0  0  0  0  0  0  0
    7.0053  -12.0599   27.6646 C   0  0  0  0  0  0  0  0  0  0  0  0
    7.9202  -12.7913   26.7261 C   0  0  1  0  0  0  0  0  0  0  0  0
    8.5531  -13.9642   27.3629 C   0  0  0  0  0  0  0  0  0  0  0  0
    9.6451  -13.8158   27.9525 O   0  0  0  0  0  0  0  0  0  0  0  0
    7.9844  -15.2242   27.3332 O   0  0  0  0  0  0  0  0  0  0  0  0
  2  1  1  0
  3  2  2  0
  4  5  1  0
  4  2  1  0
  5  6  1  6
  7  5  1  0
  7  8  2  0
  9  7  1  0
 10  9  1  0
 11 10  1  0
 12 11  2  0
 13 17  1  0
 13 11  1  0
 14 13  1  0
 15 14  1  0
 15 16  1  0
 16 17  1  0
 17 18  1  1
 18 19  2  0
 18 20  1  0
M  END
$$$$
