NGP.pdb
     RDKit          3D

 20 20  0  0  1  0  0  0  0  0999 V2000
    7.0163  -13.0170   18.3121 N   0  0  0  0  0  0  0  0  0  0  0  0
    8.0866  -13.6128   19.0686 C   0  0  0  0  0  0  0  0  0  0  0  0
    9.0069  -14.1504   18.4299 O   0  0  0  0  0  0  0  0  0  0  0  0
    7.9973  -13.5334   20.5289 C   0  0  0  0  0  0  0  0  0  0  0  0
    8.5692  -14.7498   21.2166 C   0  0  2  0  0  0  0  0  0  0  0  0
    7.6420  -15.8794   21.0030 N   0  0  0  0  0  0  0  0  0  0  0  0
    8.5706  -14.5251   22.6790 C   0  0  0  0  0  0  0  0  0  0  0  0
    9.1981  -13.5443   23.1711 O   0  0  0  0  0  0  0  0  0  0  0  0
    7.8639  -15.4150   23.5270 N   0  0  0  0  0  0  0  0  0  0  0  0
    7.7863  -15.1299   24.9462 C   0  0  0  0  0  0  0  0  0  0  0  0
    9.0627  -15.5036   25.6148 C   0  0  0  0  0  0  0  0  0  0  0  0
    9.8220  -16.3716   25.0975 O   0  0  0  0  0  0  0  0  0  0  0  0
    9.4363  -14.8869   26.8397 N   0  0  0  0  0  0  0  0  0  0  0  0
    8.7263  -13.7268   27.4059 C   0  0  0  0  0  0  0  0  0  0  0  0
    9.7894  -13.1182   28.3404 C   0  0  0  0  0  0  0  0  0  0  0  0
   10.3622  -14.3949   28.9087 C   0  0  0  0  0  0  0  0  0  0  0  0
   10.5368  -15.2623   27.6964 C   0  0  1  0  0  0  0  0  0  0  0  0
   10.5220  -16.7008   28.0312 C   0  0  0  0  0  0  0  0  0  0  0  0
    9.4500  -17.3349   27.9252 O   0  0  0  0  0  0  0  0  0  0  0  0
   11.6498  -17.3771   28.4585 O   0  0  0  0  0  0  0  0  0  0  0  0
  2  1  1  0
  3  2  2  0
  4  5  1  0
  4  2  1  0
  5  6  1  1
  7  5  1  0
  7  8  2  0
  9  7  1  0
 10  9  1  0
 11 10  1  0
 12 11  2  0
 13 17  1  0
 13 11  1  0
 14 13  1  0
 15 14  1  0
 15 16  1  0
 16 17  1  0
 17 18  1  1
 18 19  2  0
 18 20  1  0
M  END
$$$$
