IFT.pdb
     RDKit          3D

 27 27  0  0  1  0  0  0  0  0999 V2000
   25.1035  -19.8640  -18.3332 C   0  0  0  0  0  0  0  0  0  0  0  0
   25.6738  -20.9996  -17.5053 C   0  0  0  0  0  0  0  0  0  0  0  0
   27.0874  -20.6757  -17.0285 C   0  0  2  0  0  0  0  0  0  0  0  0
   27.9302  -20.4878  -18.2592 C   0  0  0  0  0  0  0  0  0  0  0  0
   27.5351  -21.8268  -16.1783 C   0  0  2  0  0  0  0  0  0  0  0  0
   27.4904  -23.0278  -16.9883 N   0  0  0  0  0  0  0  0  0  0  0  0
   26.7151  -21.9669  -14.9414 C   0  0  0  0  0  0  0  0  0  0  0  0
   25.7141  -22.6820  -14.8639 O   0  0  0  0  0  0  0  0  0  0  0  0
   27.1333  -21.2244  -13.8060 N   0  0  0  0  0  0  0  0  0  0  0  0
   26.4161  -21.1231  -12.5707 C   0  0  1  0  0  0  0  0  0  0  0  0
   27.2824  -20.7188  -11.4189 C   0  0  0  0  0  0  0  0  0  0  0  0
   26.5409  -20.5926  -10.1533 C   0  0  0  0  0  0  0  0  0  0  0  0
   25.9940  -21.6997   -9.5480 C   0  0  0  0  0  0  0  0  0  0  0  0
   25.2900  -21.6052   -8.3532 C   0  0  0  0  0  0  0  0  0  0  0  0
   25.1159  -20.3867   -7.7311 C   0  0  0  0  0  0  0  0  0  0  0  0
   25.6611  -19.2770   -8.3328 C   0  0  0  0  0  0  0  0  0  0  0  0
   26.3565  -19.3860   -9.5173 C   0  0  0  0  0  0  0  0  0  0  0  0
   25.1952  -20.3003  -12.6120 C   0  0  0  0  0  0  0  0  0  0  0  0
   25.2045  -19.0678  -12.7998 O   0  0  0  0  0  0  0  0  0  0  0  0
   21.8770  -22.0279  -14.0946 C   0  0  0  0  0  0  0  0  0  0  0  0
   22.0999  -20.5312  -13.9929 C   0  0  1  0  0  0  0  0  0  0  0  0
   20.9007  -19.8706  -14.2050 O   0  0  0  0  0  0  0  0  0  0  0  0
   22.6820  -20.2114  -12.6099 C   0  0  2  0  0  0  0  0  0  0  0  0
   23.9414  -20.9361  -12.4312 N   0  0  0  0  0  0  0  0  0  0  0  0
   21.6901  -20.6764  -11.6168 C   0  0  0  0  0  0  0  0  0  0  0  0
   20.4829  -20.0140  -11.4884 O   0  0  0  0  0  0  0  0  0  0  0  0
   21.9463  -21.6579  -10.9048 O   0  0  0  0  0  0  0  0  0  0  0  0
  2  1  1  0
  3  2  1  0
  3  4  1  6
  5  3  1  0
  5  6  1  6
  7  8  2  0
  7  5  1  0
  9  7  1  0
 10  9  1  0
 11 12  1  0
 10 11  1  1
 12 13  2  0
 12 17  1  0
 13 14  1  0
 14 15  2  0
 16 15  1  0
 17 16  2  0
 18 24  1  0
 18 10  1  0
 19 18  2  0
 21 20  1  1
 22 21  1  0
 23 24  1  1
 23 21  1  0
 25 23  1  0
 26 25  1  0
 27 25  2  0
M  END
$$$$
