IFT.pdb
     RDKit          3D

 27 27  0  0  1  0  0  0  0  0999 V2000
   20.1990  -12.3579  -21.4155 C   0  0  0  0  0  0  0  0  0  0  0  0
   21.1623  -11.8905  -20.3413 C   0  0  0  0  0  0  0  0  0  0  0  0
   20.4730  -10.9483  -19.3576 C   0  0  2  0  0  0  0  0  0  0  0  0
   20.0175   -9.7520  -20.1462 C   0  0  0  0  0  0  0  0  0  0  0  0
   21.4809  -10.6081  -18.3009 C   0  0  2  0  0  0  0  0  0  0  0  0
   22.0049  -11.8480  -17.7638 N   0  0  0  0  0  0  0  0  0  0  0  0
   20.9061   -9.7445  -17.2304 C   0  0  0  0  0  0  0  0  0  0  0  0
   20.0504  -10.1282  -16.4305 O   0  0  0  0  0  0  0  0  0  0  0  0
   21.3894   -8.4121  -17.1514 N   0  0  0  0  0  0  0  0  0  0  0  0
   20.9359   -7.4186  -16.2251 C   0  0  1  0  0  0  0  0  0  0  0  0
   21.9476   -7.0908  -15.1719 C   0  0  0  0  0  0  0  0  0  0  0  0
   22.0705   -8.1357  -14.1421 C   0  0  0  0  0  0  0  0  0  0  0  0
   23.0032   -9.1384  -14.2687 C   0  0  0  0  0  0  0  0  0  0  0  0
   23.1376  -10.1355  -13.3096 C   0  0  0  0  0  0  0  0  0  0  0  0
   22.3323  -10.1511  -12.1902 C   0  0  0  0  0  0  0  0  0  0  0  0
   21.3982   -9.1505  -12.0595 C   0  0  0  0  0  0  0  0  0  0  0  0
   21.2764   -8.1685  -13.0184 C   0  0  0  0  0  0  0  0  0  0  0  0
   20.4014   -6.1860  -16.8288 C   0  0  0  0  0  0  0  0  0  0  0  0
   21.0806   -5.4200  -17.5404 O   0  0  0  0  0  0  0  0  0  0  0  0
   17.0756   -6.0546  -18.8860 C   0  0  0  0  0  0  0  0  0  0  0  0
   16.9873   -5.1144  -17.6992 C   0  0  1  0  0  0  0  0  0  0  0  0
   16.3032   -5.7366  -16.6676 O   0  0  0  0  0  0  0  0  0  0  0  0
   18.4079   -4.7194  -17.2753 C   0  0  2  0  0  0  0  0  0  0  0  0
   19.0451   -5.8477  -16.5940 N   0  0  0  0  0  0  0  0  0  0  0  0
   18.2683   -3.5824  -16.3403 C   0  0  0  0  0  0  0  0  0  0  0  0
   17.9143   -2.3354  -16.8220 O   0  0  0  0  0  0  0  0  0  0  0  0
   18.4697   -3.7536  -15.1295 O   0  0  0  0  0  0  0  0  0  0  0  0
  2  1  1  0
  3  2  1  0
  3  4  1  6
  5  3  1  0
  5  6  1  1
  7  8  2  0
  7  5  1  0
  9  7  1  0
 10  9  1  0
 11 12  1  0
 10 11  1  1
 12 13  2  0
 12 17  1  0
 13 14  1  0
 14 15  2  0
 16 15  1  0
 17 16  2  0
 18 24  1  0
 18 10  1  0
 19 18  2  0
 21 20  1  6
 22 21  1  0
 23 24  1  1
 23 21  1  0
 25 23  1  0
 26 25  1  0
 27 25  2  0
M  END
$$$$
