IFT.pdb
     RDKit          3D

 27 27  0  0  1  0  0  0  0  0999 V2000
   20.2666  -16.0662  -17.7141 C   0  0  0  0  0  0  0  0  0  0  0  0
   19.9716  -14.6581  -18.1943 C   0  0  0  0  0  0  0  0  0  0  0  0
   19.9910  -13.6666  -17.0337 C   0  0  2  0  0  0  0  0  0  0  0  0
   19.0075  -14.1698  -16.0140 C   0  0  0  0  0  0  0  0  0  0  0  0
   19.6209  -12.3277  -17.5981 C   0  0  2  0  0  0  0  0  0  0  0  0
   20.5437  -12.0226  -18.6733 N   0  0  0  0  0  0  0  0  0  0  0  0
   19.6153  -11.2593  -16.5585 C   0  0  0  0  0  0  0  0  0  0  0  0
   19.0158  -11.3546  -15.4858 O   0  0  0  0  0  0  0  0  0  0  0  0
   20.3490  -10.0787  -16.8468 N   0  0  0  0  0  0  0  0  0  0  0  0
   20.4910   -8.9553  -15.9702 C   0  0  1  0  0  0  0  0  0  0  0  0
   21.9151   -8.6645  -15.6127 C   0  0  0  0  0  0  0  0  0  0  0  0
   22.5892   -9.7958  -14.9545 C   0  0  0  0  0  0  0  0  0  0  0  0
   23.4525  -10.6028  -15.6579 C   0  0  0  0  0  0  0  0  0  0  0  0
   24.1003  -11.6764  -15.0581 C   0  0  0  0  0  0  0  0  0  0  0  0
   23.8960  -11.9691  -13.7260 C   0  0  0  0  0  0  0  0  0  0  0  0
   23.0335  -11.1649  -13.0187 C   0  0  0  0  0  0  0  0  0  0  0  0
   22.3984  -10.1039  -13.6267 C   0  0  0  0  0  0  0  0  0  0  0  0
   19.8052   -7.7249  -16.4004 C   0  0  0  0  0  0  0  0  0  0  0  0
   20.0910   -7.1100  -17.4467 O   0  0  0  0  0  0  0  0  0  0  0  0
   16.1533   -7.2921  -17.1191 C   0  0  0  0  0  0  0  0  0  0  0  0
   16.4858   -6.3882  -15.9474 C   0  0  1  0  0  0  0  0  0  0  0  0
   16.1518   -7.0256  -14.7636 O   0  0  0  0  0  0  0  0  0  0  0  0
   17.9797   -6.0425  -15.9988 C   0  0  2  0  0  0  0  0  0  0  0  0
   18.7646   -7.2082  -15.5885 N   0  0  0  0  0  0  0  0  0  0  0  0
   18.1895   -4.9344  -15.0425 C   0  0  0  0  0  0  0  0  0  0  0  0
   17.7411   -3.6636  -15.3533 O   0  0  0  0  0  0  0  0  0  0  0  0
   18.7663   -5.1509  -13.9672 O   0  0  0  0  0  0  0  0  0  0  0  0
  2  1  1  0
  3  2  1  0
  3  4  1  1
  5  3  1  0
  5  6  1  6
  7  8  2  0
  7  5  1  0
  9  7  1  0
 10  9  1  0
 11 12  1  0
 10 11  1  6
 12 13  2  0
 12 17  1  0
 13 14  1  0
 14 15  2  0
 16 15  1  0
 17 16  2  0
 18 24  1  0
 18 10  1  0
 19 18  2  0
 21 20  1  6
 22 21  1  0
 23 24  1  1
 23 21  1  0
 25 23  1  0
 26 25  1  0
 27 25  2  0
M  END
$$$$
