IFT.pdb
     RDKit          3D

 27 27  0  0  1  0  0  0  0  0999 V2000
   28.2590  -17.3904  -16.8638 C   0  0  0  0  0  0  0  0  0  0  0  0
   28.6671  -18.2547  -15.6862 C   0  0  0  0  0  0  0  0  0  0  0  0
   27.4874  -19.0763  -15.1728 C   0  0  2  0  0  0  0  0  0  0  0  0
   26.3846  -18.1048  -14.8559 C   0  0  0  0  0  0  0  0  0  0  0  0
   27.9716  -19.8302  -13.9706 C   0  0  2  0  0  0  0  0  0  0  0  0
   29.1080  -20.6349  -14.3725 N   0  0  0  0  0  0  0  0  0  0  0  0
   26.8980  -20.6623  -13.3565 C   0  0  0  0  0  0  0  0  0  0  0  0
   26.5535  -21.7622  -13.7935 O   0  0  0  0  0  0  0  0  0  0  0  0
   26.2545  -20.1342  -12.2067 N   0  0  0  0  0  0  0  0  0  0  0  0
   25.1448  -20.7333  -11.5283 C   0  0  1  0  0  0  0  0  0  0  0  0
   25.0764  -20.3704  -10.0777 C   0  0  0  0  0  0  0  0  0  0  0  0
   26.3548  -20.5606   -9.3727 C   0  0  0  0  0  0  0  0  0  0  0  0
   26.6767  -19.7848   -8.2837 C   0  0  0  0  0  0  0  0  0  0  0  0
   27.8775  -19.9461   -7.6022 C   0  0  0  0  0  0  0  0  0  0  0  0
   28.7926  -20.8980   -8.0002 C   0  0  0  0  0  0  0  0  0  0  0  0
   28.4748  -21.6759   -9.0887 C   0  0  0  0  0  0  0  0  0  0  0  0
   27.2806  -21.5047   -9.7545 C   0  0  0  0  0  0  0  0  0  0  0  0
   23.8325  -20.5445  -12.1699 C   0  0  0  0  0  0  0  0  0  0  0  0
   23.3267  -19.4246  -12.3809 O   0  0  0  0  0  0  0  0  0  0  0  0
   20.3702  -22.8180  -14.9131 C   0  0  0  0  0  0  0  0  0  0  0  0
   21.6865  -22.8976  -14.1639 C   0  0  1  0  0  0  0  0  0  0  0  0
   22.7137  -23.1427  -15.0606 O   0  0  0  0  0  0  0  0  0  0  0  0
   21.9033  -21.5817  -13.4053 C   0  0  2  0  0  0  0  0  0  0  0  0
   23.1021  -21.6906  -12.5723 N   0  0  0  0  0  0  0  0  0  0  0  0
   20.7133  -21.3872  -12.5494 C   0  0  0  0  0  0  0  0  0  0  0  0
   19.5214  -20.9702  -13.1132 O   0  0  0  0  0  0  0  0  0  0  0  0
   20.7910  -21.5991  -11.3308 O   0  0  0  0  0  0  0  0  0  0  0  0
  2  1  1  0
  3  2  1  0
  3  4  1  1
  5  3  1  0
  5  6  1  6
  7  8  2  0
  7  5  1  0
  9  7  1  0
 10  9  1  0
 11 12  1  0
 10 11  1  1
 12 13  2  0
 12 17  1  0
 13 14  1  0
 14 15  2  0
 16 15  1  0
 17 16  2  0
 18 24  1  0
 18 10  1  0
 19 18  2  0
 21 20  1  6
 22 21  1  0
 23 24  1  1
 23 21  1  0
 25 23  1  0
 26 25  1  0
 27 25  2  0
M  END
$$$$
