IFT.pdb
     RDKit          3D

 27 27  0  0  1  0  0  0  0  0999 V2000
   16.8436  -14.9483  -18.8879 C   0  0  0  0  0  0  0  0  0  0  0  0
   17.8172  -13.8185  -19.1635 C   0  0  0  0  0  0  0  0  0  0  0  0
   17.6837  -12.7116  -18.1207 C   0  0  2  0  0  0  0  0  0  0  0  0
   16.2674  -12.2124  -18.1938 C   0  0  0  0  0  0  0  0  0  0  0  0
   18.6967  -11.6618  -18.4672 C   0  0  2  0  0  0  0  0  0  0  0  0
   19.9925  -12.3033  -18.5666 N   0  0  0  0  0  0  0  0  0  0  0  0
   18.7106  -10.5441  -17.4810 C   0  0  0  0  0  0  0  0  0  0  0  0
   17.6904  -10.0335  -17.0144 O   0  0  0  0  0  0  0  0  0  0  0  0
   19.9824  -10.0614  -17.0751 N   0  0  0  0  0  0  0  0  0  0  0  0
   20.2072   -8.9748  -16.1699 C   0  0  1  0  0  0  0  0  0  0  0  0
   21.5461   -9.0319  -15.5033 C   0  0  0  0  0  0  0  0  0  0  0  0
   21.7455   -7.9614  -14.5125 C   0  0  0  0  0  0  0  0  0  0  0  0
   21.4389   -8.1667  -13.1876 C   0  0  0  0  0  0  0  0  0  0  0  0
   21.6186   -7.1713  -12.2342 C   0  0  0  0  0  0  0  0  0  0  0  0
   22.1146   -5.9346  -12.5899 C   0  0  0  0  0  0  0  0  0  0  0  0
   22.4225   -5.7249  -13.9136 C   0  0  0  0  0  0  0  0  0  0  0  0
   22.2392   -6.7211  -14.8477 C   0  0  0  0  0  0  0  0  0  0  0  0
   19.9610   -7.6306  -16.7194 C   0  0  0  0  0  0  0  0  0  0  0  0
   20.5009   -7.2051  -17.7595 O   0  0  0  0  0  0  0  0  0  0  0  0
   16.8975   -6.0817  -17.9826 C   0  0  0  0  0  0  0  0  0  0  0  0
   17.2784   -5.2629  -16.7641 C   0  0  1  0  0  0  0  0  0  0  0  0
   16.5378   -5.6873  -15.6729 O   0  0  0  0  0  0  0  0  0  0  0  0
   18.7847   -5.4172  -16.5166 C   0  0  2  0  0  0  0  0  0  0  0  0
   19.0640   -6.7716  -16.0364 N   0  0  0  0  0  0  0  0  0  0  0  0
   19.1443   -4.4313  -15.4750 C   0  0  0  0  0  0  0  0  0  0  0  0
   19.2490   -3.0918  -15.8027 O   0  0  0  0  0  0  0  0  0  0  0  0
   19.3500   -4.8112  -14.3134 O   0  0  0  0  0  0  0  0  0  0  0  0
  2  1  1  0
  3  2  1  0
  3  4  1  6
  5  3  1  0
  5  6  1  1
  7  8  2  0
  7  5  1  0
  9  7  1  0
 10  9  1  0
 11 12  1  0
 10 11  1  6
 12 13  2  0
 12 17  1  0
 13 14  1  0
 14 15  2  0
 16 15  1  0
 17 16  2  0
 18 24  1  0
 18 10  1  0
 19 18  2  0
 21 20  1  6
 22 21  1  0
 23 24  1  1
 23 21  1  0
 25 23  1  0
 26 25  1  0
 27 25  2  0
M  END
$$$$
