IFT.pdb
     RDKit          3D

 27 27  0  0  1  0  0  0  0  0999 V2000
   28.6493  -17.7074  -16.4115 C   0  0  0  0  0  0  0  0  0  0  0  0
   28.9493  -18.4920  -15.1486 C   0  0  0  0  0  0  0  0  0  0  0  0
   27.7281  -19.2861  -14.6921 C   0  0  2  0  0  0  0  0  0  0  0  0
   26.6159  -18.2955  -14.4866 C   0  0  0  0  0  0  0  0  0  0  0  0
   28.1190  -20.0019  -13.4340 C   0  0  2  0  0  0  0  0  0  0  0  0
   29.2740  -20.8270  -13.7268 N   0  0  0  0  0  0  0  0  0  0  0  0
   26.9972  -20.8061  -12.8708 C   0  0  0  0  0  0  0  0  0  0  0  0
   26.6769  -21.9191  -13.2926 O   0  0  0  0  0  0  0  0  0  0  0  0
   26.2760  -20.2339  -11.7903 N   0  0  0  0  0  0  0  0  0  0  0  0
   25.1063  -20.7949  -11.1839 C   0  0  1  0  0  0  0  0  0  0  0  0
   24.9490  -20.4134   -9.7451 C   0  0  0  0  0  0  0  0  0  0  0  0
   26.2132  -20.4608   -8.9922 C   0  0  0  0  0  0  0  0  0  0  0  0
   26.5148  -19.4889   -8.0671 C   0  0  0  0  0  0  0  0  0  0  0  0
   27.7020  -19.5126   -7.3444 C   0  0  0  0  0  0  0  0  0  0  0  0
   28.6236  -20.5209   -7.5339 C   0  0  0  0  0  0  0  0  0  0  0  0
   28.3261  -21.4948   -8.4579 C   0  0  0  0  0  0  0  0  0  0  0  0
   27.1452  -21.4583   -9.1670 C   0  0  0  0  0  0  0  0  0  0  0  0
   23.8468  -20.5782  -11.9161 C   0  0  0  0  0  0  0  0  0  0  0  0
   23.3219  -19.4566  -12.0616 O   0  0  0  0  0  0  0  0  0  0  0  0
   23.3155  -22.3876  -15.3599 C   0  0  0  0  0  0  0  0  0  0  0  0
   22.1078  -22.6306  -14.4752 C   0  0  1  0  0  0  0  0  0  0  0  0
   22.1935  -23.8946  -13.9144 O   0  0  0  0  0  0  0  0  0  0  0  0
   22.0568  -21.5391  -13.3982 C   0  0  2  0  0  0  0  0  0  0  0  0
   23.1928  -21.6978  -12.4886 N   0  0  0  0  0  0  0  0  0  0  0  0
   20.7911  -21.7343  -12.6593 C   0  0  0  0  0  0  0  0  0  0  0  0
   19.5843  -21.4683  -13.2801 O   0  0  0  0  0  0  0  0  0  0  0  0
   20.8189  -22.1354  -11.4870 O   0  0  0  0  0  0  0  0  0  0  0  0
  2  1  1  0
  3  2  1  0
  3  4  1  1
  5  3  1  0
  5  6  1  6
  7  8  2  0
  7  5  1  0
  9  7  1  0
 10  9  1  0
 11 12  1  0
 10 11  1  1
 12 13  2  0
 12 17  1  0
 13 14  1  0
 14 15  2  0
 16 15  1  0
 17 16  2  0
 18 24  1  0
 18 10  1  0
 19 18  2  0
 21 20  1  6
 22 21  1  0
 23 24  1  1
 23 21  1  0
 25 23  1  0
 26 25  1  0
 27 25  2  0
M  END
$$$$
