IFT.pdb
     RDKit          3D

 27 27  0  0  1  0  0  0  0  0999 V2000
   27.5862  -19.1860  -19.6228 C   0  0  0  0  0  0  0  0  0  0  0  0
   28.1469  -20.1336  -18.5798 C   0  0  0  0  0  0  0  0  0  0  0  0
   27.1221  -20.4123  -17.4832 C   0  0  2  0  0  0  0  0  0  0  0  0
   26.7357  -19.0817  -16.8995 C   0  0  0  0  0  0  0  0  0  0  0  0
   27.7824  -21.3214  -16.4904 C   0  0  2  0  0  0  0  0  0  0  0  0
   28.1594  -22.5400  -17.1784 N   0  0  0  0  0  0  0  0  0  0  0  0
   26.9100  -21.6012  -15.3145 C   0  0  0  0  0  0  0  0  0  0  0  0
   25.9001  -22.3059  -15.3667 O   0  0  0  0  0  0  0  0  0  0  0  0
   27.2871  -21.0105  -14.0800 N   0  0  0  0  0  0  0  0  0  0  0  0
   26.5149  -21.0431  -12.8744 C   0  0  1  0  0  0  0  0  0  0  0  0
   27.3214  -20.7384  -11.6508 C   0  0  0  0  0  0  0  0  0  0  0  0
   26.5049  -20.6368  -10.4299 C   0  0  0  0  0  0  0  0  0  0  0  0
   25.9260  -21.7559   -9.8788 C   0  0  0  0  0  0  0  0  0  0  0  0
   25.1512  -21.6846   -8.7269 C   0  0  0  0  0  0  0  0  0  0  0  0
   24.9364  -20.4781   -8.0943 C   0  0  0  0  0  0  0  0  0  0  0  0
   25.5134  -19.3565   -8.6420 C   0  0  0  0  0  0  0  0  0  0  0  0
   26.2791  -19.4424   -9.7844 C   0  0  0  0  0  0  0  0  0  0  0  0
   25.2794  -20.2415  -12.8911 C   0  0  0  0  0  0  0  0  0  0  0  0
   25.2701  -18.9948  -12.8779 O   0  0  0  0  0  0  0  0  0  0  0  0
   23.0812  -19.4586  -15.3198 C   0  0  0  0  0  0  0  0  0  0  0  0
   22.1849  -20.2497  -14.3865 C   0  0  1  0  0  0  0  0  0  0  0  0
   22.0900  -21.5569  -14.8357 O   0  0  0  0  0  0  0  0  0  0  0  0
   22.7665  -20.1825  -12.9684 C   0  0  2  0  0  0  0  0  0  0  0  0
   24.0330  -20.9155  -12.9253 N   0  0  0  0  0  0  0  0  0  0  0  0
   21.7809  -20.8307  -12.0770 C   0  0  0  0  0  0  0  0  0  0  0  0
   20.5602  -20.2238  -11.8446 O   0  0  0  0  0  0  0  0  0  0  0  0
   22.0545  -21.9150  -11.5428 O   0  0  0  0  0  0  0  0  0  0  0  0
  2  1  1  0
  3  2  1  0
  3  4  1  1
  5  3  1  0
  5  6  1  6
  7  8  2  0
  7  5  1  0
  9  7  1  0
 10  9  1  0
 11 12  1  0
 10 11  1  1
 12 13  2  0
 12 17  1  0
 13 14  1  0
 14 15  2  0
 16 15  1  0
 17 16  2  0
 18 24  1  0
 18 10  1  0
 19 18  2  0
 21 20  1  6
 22 21  1  0
 23 24  1  6
 23 21  1  0
 25 23  1  0
 26 25  1  0
 27 25  2  0
M  END
$$$$
