IFT.pdb
     RDKit          3D

 27 27  0  0  1  0  0  0  0  0999 V2000
   25.5551  -20.6594  -16.0428 C   0  0  0  0  0  0  0  0  0  0  0  0
   24.7271  -20.4416  -14.7909 C   0  0  0  0  0  0  0  0  0  0  0  0
   25.4516  -20.9682  -13.5546 C   0  0  2  0  0  0  0  0  0  0  0  0
   25.3337  -22.4667  -13.5857 C   0  0  0  0  0  0  0  0  0  0  0  0
   24.7852  -20.3496  -12.3624 C   0  0  2  0  0  0  0  0  0  0  0  0
   24.8794  -18.9092  -12.4920 N   0  0  0  0  0  0  0  0  0  0  0  0
   25.3726  -20.8258  -11.0777 C   0  0  0  0  0  0  0  0  0  0  0  0
   25.3613  -22.0047  -10.7180 O   0  0  0  0  0  0  0  0  0  0  0  0
   25.9711  -19.8459  -10.2429 N   0  0  0  0  0  0  0  0  0  0  0  0
   26.4117  -20.0596   -8.8972 C   0  0  1  0  0  0  0  0  0  0  0  0
   27.5655  -19.1879   -8.5106 C   0  0  0  0  0  0  0  0  0  0  0  0
   27.9965  -19.3829   -7.1164 C   0  0  0  0  0  0  0  0  0  0  0  0
   28.4838  -20.5986   -6.6969 C   0  0  0  0  0  0  0  0  0  0  0  0
   28.8966  -20.8063   -5.3860 C   0  0  0  0  0  0  0  0  0  0  0  0
   28.8299  -19.7904   -4.4556 C   0  0  0  0  0  0  0  0  0  0  0  0
   28.3433  -18.5731   -4.8707 C   0  0  0  0  0  0  0  0  0  0  0  0
   27.9377  -18.3818   -6.1736 C   0  0  0  0  0  0  0  0  0  0  0  0
   25.3581  -20.0072   -7.8693 C   0  0  0  0  0  0  0  0  0  0  0  0
   24.5846  -19.0396   -7.7283 O   0  0  0  0  0  0  0  0  0  0  0  0
   22.3048  -21.6676   -7.5370 C   0  0  0  0  0  0  0  0  0  0  0  0
   23.1051  -22.1910   -6.3598 C   0  0  1  0  0  0  0  0  0  0  0  0
   23.6906  -23.3995   -6.7006 O   0  0  0  0  0  0  0  0  0  0  0  0
   24.1582  -21.1440   -5.9741 C   0  0  2  0  0  0  0  0  0  0  0  0
   25.2092  -21.1109   -6.9927 N   0  0  0  0  0  0  0  0  0  0  0  0
   24.7275  -21.5754   -4.6794 C   0  0  0  0  0  0  0  0  0  0  0  0
   24.0222  -21.3551   -3.5104 O   0  0  0  0  0  0  0  0  0  0  0  0
   25.8342  -22.1323   -4.6492 O   0  0  0  0  0  0  0  0  0  0  0  0
  2  1  1  0
  3  2  1  0
  3  4  1  1
  5  3  1  0
  5  6  1  6
  7  8  2  0
  7  5  1  0
  9  7  1  0
 10  9  1  0
 11 12  1  0
 10 11  1  1
 12 13  2  0
 12 17  1  0
 13 14  1  0
 14 15  2  0
 16 15  1  0
 17 16  2  0
 18 24  1  0
 18 10  1  0
 19 18  2  0
 21 20  1  6
 22 21  1  0
 23 24  1  6
 23 21  1  0
 25 23  1  0
 26 25  1  0
 27 25  2  0
M  END
$$$$
