IFT.pdb
     RDKit          3D

 27 27  0  0  1  0  0  0  0  0999 V2000
   23.1355  -21.1323  -14.9466 C   0  0  0  0  0  0  0  0  0  0  0  0
   24.4788  -20.7705  -14.3426 C   0  0  0  0  0  0  0  0  0  0  0  0
   24.5586  -21.2038  -12.8809 C   0  0  2  0  0  0  0  0  0  0  0  0
   23.3723  -20.5999  -12.1819 C   0  0  0  0  0  0  0  0  0  0  0  0
   25.8702  -20.7078  -12.3502 C   0  0  2  0  0  0  0  0  0  0  0  0
   26.9248  -21.2398  -13.1900 N   0  0  0  0  0  0  0  0  0  0  0  0
   26.0723  -21.0694  -10.9182 C   0  0  0  0  0  0  0  0  0  0  0  0
   25.8562  -22.1936  -10.4615 O   0  0  0  0  0  0  0  0  0  0  0  0
   26.5399  -20.0428  -10.0564 N   0  0  0  0  0  0  0  0  0  0  0  0
   26.6958  -20.1577   -8.6375 C   0  0  1  0  0  0  0  0  0  0  0  0
   27.7239  -19.2229   -8.0811 C   0  0  0  0  0  0  0  0  0  0  0  0
   27.9780  -19.4299   -6.6459 C   0  0  0  0  0  0  0  0  0  0  0  0
   29.0952  -20.1114   -6.2231 C   0  0  0  0  0  0  0  0  0  0  0  0
   29.3562  -20.3192   -4.8736 C   0  0  0  0  0  0  0  0  0  0  0  0
   28.4949  -19.8441   -3.9069 C   0  0  0  0  0  0  0  0  0  0  0  0
   27.3766  -19.1621   -4.3252 C   0  0  0  0  0  0  0  0  0  0  0  0
   27.1309  -18.9637   -5.6664 C   0  0  0  0  0  0  0  0  0  0  0  0
   25.4506  -20.0807   -7.8546 C   0  0  0  0  0  0  0  0  0  0  0  0
   24.6213  -19.1573   -7.9736 O   0  0  0  0  0  0  0  0  0  0  0  0
   24.1125  -23.6406   -6.1283 C   0  0  0  0  0  0  0  0  0  0  0  0
   23.1977  -22.4992   -6.5292 C   0  0  1  0  0  0  0  0  0  0  0  0
   21.9918  -22.6166   -5.8574 O   0  0  0  0  0  0  0  0  0  0  0  0
   23.8949  -21.1711   -6.2069 C   0  0  2  0  0  0  0  0  0  0  0  0
   25.1737  -21.1066   -6.9167 N   0  0  0  0  0  0  0  0  0  0  0  0
   24.1300  -21.1613   -4.7472 C   0  0  0  0  0  0  0  0  0  0  0  0
   23.0603  -21.0409   -3.8790 O   0  0  0  0  0  0  0  0  0  0  0  0
   25.2852  -21.2612   -4.3096 O   0  0  0  0  0  0  0  0  0  0  0  0
  2  1  1  0
  3  2  1  0
  3  4  1  1
  5  3  1  0
  5  6  1  6
  7  8  2  0
  7  5  1  0
  9  7  1  0
 10  9  1  0
 11 12  1  0
 10 11  1  1
 12 13  2  0
 12 17  1  0
 13 14  1  0
 14 15  2  0
 16 15  1  0
 17 16  2  0
 18 24  1  0
 18 10  1  0
 19 18  2  0
 21 20  1  1
 22 21  1  0
 23 24  1  6
 23 21  1  0
 25 23  1  0
 26 25  1  0
 27 25  2  0
M  END
$$$$
