TCE.pdb
     RDKit          3D

 23 22  0  0  1  0  0  0  0  0999 V2000
    6.2919  -13.8228   18.9995 C   0  0  0  0  0  0  0  0  0  0  0  0
    6.8914  -14.1743   20.3356 C   0  0  1  0  0  0  0  0  0  0  0  0
    7.9741  -15.0448   20.0877 O   0  0  0  0  0  0  0  0  0  0  0  0
    7.4342  -12.9467   21.0790 C   0  0  2  0  0  0  0  0  0  0  0  0
    8.5605  -12.4842   20.2528 N   0  0  0  0  0  0  0  0  0  0  0  0
    8.0005  -13.3171   22.4079 C   0  0  0  0  0  0  0  0  0  0  0  0
    9.2335  -13.6199   22.4948 O   0  0  0  0  0  0  0  0  0  0  0  0
    7.1790  -13.3310   23.5618 N   0  0  0  0  0  0  0  0  0  0  0  0
    7.7078  -13.7008   24.8681 C   0  0  1  0  0  0  0  0  0  0  0  0
    6.6844  -13.3997   25.9399 C   0  0  0  0  0  0  0  0  0  0  0  0
    6.8791  -11.7857   26.7006 S   0  0  0  0  0  0  0  0  0  0  0  0
    8.0241  -15.1477   24.9137 C   0  0  0  0  0  0  0  0  0  0  0  0
    7.2809  -15.9890   24.2882 O   0  0  0  0  0  0  0  0  0  0  0  0
    9.1073  -15.7434   25.5982 N   0  0  0  0  0  0  0  0  0  0  0  0
    9.3098  -17.1766   25.6773 C   0  0  1  0  0  0  0  0  0  0  0  0
    9.9637  -17.7154   24.4183 C   0  0  0  0  0  0  0  0  0  0  0  0
   11.2030  -16.9289   24.0779 C   0  0  0  0  0  0  0  0  0  0  0  0
   11.8629  -17.4118   22.8600 C   0  0  0  0  0  0  0  0  0  0  0  0
   12.4803  -18.5074   22.8733 O   0  0  0  0  0  0  0  0  0  0  0  0
   10.1081  -17.4708   26.8814 C   0  0  0  0  0  0  0  0  0  0  0  0
   10.4247  -18.7761   27.2004 O   0  0  0  0  0  0  0  0  0  0  0  0
   11.8285  -16.6919   21.6800 O   0  0  0  0  0  0  0  0  0  0  0  0
   10.5227  -16.5645   27.6478 O   0  0  0  0  0  0  0  0  0  0  0  0
  2  1  1  6
  3  2  1  0
  4  2  1  0
  4  5  1  6
  6  8  1  0
  6  4  1  0
  7  6  2  0
  9 12  1  0
  9  8  1  0
  9 10  1  1
 11 10  1  0
 12 14  1  0
 13 12  2  0
 14 15  1  0
 15 20  1  0
 15 16  1  6
 16 17  1  0
 18 22  1  0
 18 17  1  0
 19 18  2  0
 20 21  1  0
 23 20  2  0
M  END
$$$$
