TCE.pdb
     RDKit          3D

 23 22  0  0  1  0  0  0  0  0999 V2000
    6.6194  -15.8696   20.5353 C   0  0  0  0  0  0  0  0  0  0  0  0
    7.5367  -14.8783   19.8689 C   0  0  1  0  0  0  0  0  0  0  0  0
    7.1382  -14.7882   18.5182 O   0  0  0  0  0  0  0  0  0  0  0  0
    7.4361  -13.4764   20.4846 C   0  0  2  0  0  0  0  0  0  0  0  0
    8.3046  -12.6405   19.6407 N   0  0  0  0  0  0  0  0  0  0  0  0
    8.0106  -13.4399   21.8603 C   0  0  0  0  0  0  0  0  0  0  0  0
    9.2709  -13.5353   22.0096 O   0  0  0  0  0  0  0  0  0  0  0  0
    7.1666  -13.2990   22.9892 N   0  0  0  0  0  0  0  0  0  0  0  0
    7.6940  -13.3598   24.3461 C   0  0  1  0  0  0  0  0  0  0  0  0
    6.6515  -12.8671   25.3243 C   0  0  0  0  0  0  0  0  0  0  0  0
    7.1554  -12.9769   27.0434 S   0  0  0  0  0  0  0  0  0  0  0  0
    8.0549  -14.7513   24.7050 C   0  0  0  0  0  0  0  0  0  0  0  0
    7.4560  -15.7378   24.1397 O   0  0  0  0  0  0  0  0  0  0  0  0
    9.0355  -15.1428   25.6442 N   0  0  0  0  0  0  0  0  0  0  0  0
    9.6534  -16.4540   25.6527 C   0  0  1  0  0  0  0  0  0  0  0  0
   10.7526  -16.5567   24.6114 C   0  0  0  0  0  0  0  0  0  0  0  0
   11.4399  -17.8954   24.6862 C   0  0  0  0  0  0  0  0  0  0  0  0
   12.5112  -18.0378   23.6942 C   0  0  0  0  0  0  0  0  0  0  0  0
   12.3863  -17.5159   22.5568 O   0  0  0  0  0  0  0  0  0  0  0  0
   10.1556  -16.7260   27.0121 C   0  0  0  0  0  0  0  0  0  0  0  0
   10.6546  -15.6966   27.7847 O   0  0  0  0  0  0  0  0  0  0  0  0
   13.6712  -18.7370   23.9719 O   0  0  0  0  0  0  0  0  0  0  0  0
   10.1492  -17.8806   27.5095 O   0  0  0  0  0  0  0  0  0  0  0  0
  2  1  1  1
  3  2  1  0
  4  2  1  0
  4  5  1  6
  6  8  1  0
  6  4  1  0
  7  6  2  0
  9 12  1  0
  9  8  1  0
  9 10  1  1
 11 10  1  0
 12 14  1  0
 13 12  2  0
 14 15  1  0
 15 20  1  0
 15 16  1  6
 16 17  1  0
 18 22  1  0
 18 17  1  0
 19 18  2  0
 20 21  1  0
 23 20  2  0
M  END
$$$$
