TCE.pdb
     RDKit          3D

 23 22  0  0  1  0  0  0  0  0999 V2000
    6.9184  -15.8559   19.5882 C   0  0  0  0  0  0  0  0  0  0  0  0
    7.7828  -14.7019   19.1531 C   0  0  1  0  0  0  0  0  0  0  0  0
    7.4373  -14.4063   17.8172 O   0  0  0  0  0  0  0  0  0  0  0  0
    7.5456  -13.4391   19.9919 C   0  0  2  0  0  0  0  0  0  0  0  0
    8.3819  -12.4106   19.3533 N   0  0  0  0  0  0  0  0  0  0  0  0
    8.0547  -13.6027   21.3840 C   0  0  0  0  0  0  0  0  0  0  0  0
    9.3092  -13.6883   21.5804 O   0  0  0  0  0  0  0  0  0  0  0  0
    7.1555  -13.6606   22.4770 N   0  0  0  0  0  0  0  0  0  0  0  0
    7.6271  -13.8630   23.8407 C   0  0  1  0  0  0  0  0  0  0  0  0
    6.5127  -13.5656   24.8184 C   0  0  0  0  0  0  0  0  0  0  0  0
    6.9240  -13.9332   26.5264 S   0  0  0  0  0  0  0  0  0  0  0  0
    8.0655  -15.2642   24.0398 C   0  0  0  0  0  0  0  0  0  0  0  0
    7.4692  -16.2194   23.4204 O   0  0  0  0  0  0  0  0  0  0  0  0
    9.1214  -15.6974   24.8731 N   0  0  0  0  0  0  0  0  0  0  0  0
    9.4994  -17.0887   25.0237 C   0  0  1  0  0  0  0  0  0  0  0  0
   10.0799  -17.6487   23.7382 C   0  0  0  0  0  0  0  0  0  0  0  0
   11.3390  -16.9159   23.3535 C   0  0  0  0  0  0  0  0  0  0  0  0
   11.9590  -17.4556   22.1385 C   0  0  0  0  0  0  0  0  0  0  0  0
   12.0597  -18.6998   21.9851 O   0  0  0  0  0  0  0  0  0  0  0  0
   10.4463  -17.1973   26.1486 C   0  0  0  0  0  0  0  0  0  0  0  0
   10.9015  -18.4361   26.5533 O   0  0  0  0  0  0  0  0  0  0  0  0
   12.4438  -16.6298   21.1411 O   0  0  0  0  0  0  0  0  0  0  0  0
   10.8668  -16.1883   26.7695 O   0  0  0  0  0  0  0  0  0  0  0  0
  2  1  1  1
  3  2  1  0
  4  2  1  0
  4  5  1  6
  6  8  1  0
  6  4  1  0
  7  6  2  0
  9 12  1  0
  9  8  1  0
  9 10  1  1
 11 10  1  0
 12 14  1  0
 13 12  2  0
 14 15  1  0
 15 20  1  0
 15 16  1  6
 16 17  1  0
 18 22  1  0
 18 17  1  0
 19 18  2  0
 20 21  1  0
 23 20  2  0
M  END
$$$$
