TCE.pdb
     RDKit          3D

 23 22  0  0  1  0  0  0  0  0999 V2000
    6.2971  -15.7228   20.4019 C   0  0  0  0  0  0  0  0  0  0  0  0
    7.3940  -14.8690   19.8222 C   0  0  1  0  0  0  0  0  0  0  0  0
    7.1154  -14.7137   18.4476 O   0  0  0  0  0  0  0  0  0  0  0  0
    7.4482  -13.4713   20.4532 C   0  0  2  0  0  0  0  0  0  0  0  0
    8.3900  -12.7217   19.6069 N   0  0  0  0  0  0  0  0  0  0  0  0
    8.0390  -13.5107   21.8218 C   0  0  0  0  0  0  0  0  0  0  0  0
    9.2846  -13.7359   21.9543 O   0  0  0  0  0  0  0  0  0  0  0  0
    7.2267  -13.2989   22.9628 N   0  0  0  0  0  0  0  0  0  0  0  0
    7.7580  -13.4395   24.3122 C   0  0  1  0  0  0  0  0  0  0  0  0
    6.7509  -12.9259   25.3163 C   0  0  0  0  0  0  0  0  0  0  0  0
    7.3515  -12.9086   27.0076 S   0  0  0  0  0  0  0  0  0  0  0  0
    8.0421  -14.8615   24.6167 C   0  0  0  0  0  0  0  0  0  0  0  0
    7.6831  -15.7803   23.7930 O   0  0  0  0  0  0  0  0  0  0  0  0
    8.6996  -15.3529   25.7670 N   0  0  0  0  0  0  0  0  0  0  0  0
    9.6540  -16.4434   25.7355 C   0  0  1  0  0  0  0  0  0  0  0  0
   10.7888  -16.1606   24.7684 C   0  0  0  0  0  0  0  0  0  0  0  0
   11.1090  -17.3807   23.9444 C   0  0  0  0  0  0  0  0  0  0  0  0
   12.5004  -17.4010   23.4803 C   0  0  0  0  0  0  0  0  0  0  0  0
   13.3812  -16.7612   24.1100 O   0  0  0  0  0  0  0  0  0  0  0  0
   10.1441  -16.6763   27.1065 C   0  0  0  0  0  0  0  0  0  0  0  0
   10.1747  -15.6387   28.0164 O   0  0  0  0  0  0  0  0  0  0  0  0
   12.8820  -18.1107   22.3567 O   0  0  0  0  0  0  0  0  0  0  0  0
   10.5444  -17.8041   27.4917 O   0  0  0  0  0  0  0  0  0  0  0  0
  2  1  1  1
  3  2  1  0
  4  2  1  0
  4  5  1  6
  6  8  1  0
  6  4  1  0
  7  6  2  0
  9 12  1  0
  9  8  1  0
  9 10  1  1
 11 10  1  0
 12 14  1  0
 13 12  2  0
 14 15  1  0
 15 20  1  0
 15 16  1  6
 16 17  1  0
 18 22  1  0
 18 17  1  0
 19 18  2  0
 20 21  1  0
 23 20  2  0
M  END
$$$$
