TCE.pdb
     RDKit          3D

 23 22  0  0  1  0  0  0  0  0999 V2000
    6.7833  -15.0715   17.9842 C   0  0  0  0  0  0  0  0  0  0  0  0
    7.3842  -15.0261   19.3644 C   0  0  1  0  0  0  0  0  0  0  0  0
    8.7308  -15.4302   19.2434 O   0  0  0  0  0  0  0  0  0  0  0  0
    7.3677  -13.6155   19.9680 C   0  0  2  0  0  0  0  0  0  0  0  0
    8.2454  -12.8281   19.0878 N   0  0  0  0  0  0  0  0  0  0  0  0
    7.9875  -13.5927   21.3241 C   0  0  0  0  0  0  0  0  0  0  0  0
    9.2489  -13.4586   21.4281 O   0  0  0  0  0  0  0  0  0  0  0  0
    7.1848  -13.7166   22.4846 N   0  0  0  0  0  0  0  0  0  0  0  0
    7.7679  -13.6909   23.8197 C   0  0  1  0  0  0  0  0  0  0  0  0
    6.6843  -13.4578   24.8483 C   0  0  0  0  0  0  0  0  0  0  0  0
    7.2681  -13.5025   26.5450 S   0  0  0  0  0  0  0  0  0  0  0  0
    8.4354  -14.9783   24.1237 C   0  0  0  0  0  0  0  0  0  0  0  0
    7.8071  -16.0858   23.9504 O   0  0  0  0  0  0  0  0  0  0  0  0
    9.7542  -15.1408   24.6046 N   0  0  0  0  0  0  0  0  0  0  0  0
   10.3468  -16.4332   24.8867 C   0  0  1  0  0  0  0  0  0  0  0  0
   11.8598  -16.3859   24.7783 C   0  0  0  0  0  0  0  0  0  0  0  0
   12.3168  -16.8692   23.4264 C   0  0  0  0  0  0  0  0  0  0  0  0
   13.7554  -16.6765   23.2131 C   0  0  0  0  0  0  0  0  0  0  0  0
   14.1716  -16.2216   22.1170 O   0  0  0  0  0  0  0  0  0  0  0  0
    9.9040  -16.8695   26.2236 C   0  0  0  0  0  0  0  0  0  0  0  0
   10.0582  -18.1862   26.6086 O   0  0  0  0  0  0  0  0  0  0  0  0
   14.6830  -16.9828   24.1916 O   0  0  0  0  0  0  0  0  0  0  0  0
    9.3802  -16.0770   27.0471 O   0  0  0  0  0  0  0  0  0  0  0  0
  2  1  1  6
  3  2  1  0
  4  2  1  0
  4  5  1  6
  6  8  1  0
  6  4  1  0
  7  6  2  0
  9 12  1  0
  9  8  1  0
  9 10  1  1
 11 10  1  0
 12 14  1  0
 13 12  2  0
 14 15  1  0
 15 20  1  0
 15 16  1  1
 16 17  1  0
 18 22  1  0
 18 17  1  0
 19 18  2  0
 20 21  1  0
 23 20  2  0
M  END
$$$$
