TCE.pdb
     RDKit          3D

 23 22  0  0  1  0  0  0  0  0999 V2000
    6.2742  -14.3321   19.0321 C   0  0  0  0  0  0  0  0  0  0  0  0
    6.8394  -14.4346   20.4243 C   0  0  1  0  0  0  0  0  0  0  0  0
    7.8851  -15.3810   20.3782 O   0  0  0  0  0  0  0  0  0  0  0  0
    7.4267  -13.1069   20.9209 C   0  0  2  0  0  0  0  0  0  0  0  0
    8.5478  -12.8357   20.0074 N   0  0  0  0  0  0  0  0  0  0  0  0
    8.0093  -13.2424   22.2869 C   0  0  0  0  0  0  0  0  0  0  0  0
    9.2078  -13.6517   22.4130 O   0  0  0  0  0  0  0  0  0  0  0  0
    7.2413  -12.9187   23.4324 N   0  0  0  0  0  0  0  0  0  0  0  0
    7.7650  -13.1092   24.7786 C   0  0  1  0  0  0  0  0  0  0  0  0
    6.8521  -12.4431   25.7833 C   0  0  0  0  0  0  0  0  0  0  0  0
    7.2702  -12.7943   27.4931 S   0  0  0  0  0  0  0  0  0  0  0  0
    7.8519  -14.5516   25.1065 C   0  0  0  0  0  0  0  0  0  0  0  0
    6.8242  -15.3087   24.9573 O   0  0  0  0  0  0  0  0  0  0  0  0
    8.9944  -15.2303   25.5870 N   0  0  0  0  0  0  0  0  0  0  0  0
    9.0109  -16.6471   25.8927 C   0  0  1  0  0  0  0  0  0  0  0  0
    9.5560  -17.4594   24.7325 C   0  0  0  0  0  0  0  0  0  0  0  0
   10.9640  -17.0400   24.3979 C   0  0  0  0  0  0  0  0  0  0  0  0
   11.5379  -17.8154   23.2928 C   0  0  0  0  0  0  0  0  0  0  0  0
   12.0753  -18.9293   23.5206 O   0  0  0  0  0  0  0  0  0  0  0  0
    9.7954  -16.8512   27.1243 C   0  0  0  0  0  0  0  0  0  0  0  0
   10.3736  -15.7730   27.7636 O   0  0  0  0  0  0  0  0  0  0  0  0
   11.5074  -17.3556   21.9891 O   0  0  0  0  0  0  0  0  0  0  0  0
    9.9645  -17.9900   27.6292 O   0  0  0  0  0  0  0  0  0  0  0  0
  2  1  1  6
  3  2  1  0
  4  2  1  0
  4  5  1  6
  6  8  1  0
  6  4  1  0
  7  6  2  0
  9 12  1  0
  9  8  1  0
  9 10  1  1
 11 10  1  0
 12 14  1  0
 13 12  2  0
 14 15  1  0
 15 20  1  0
 15 16  1  6
 16 17  1  0
 18 22  1  0
 18 17  1  0
 19 18  2  0
 20 21  1  0
 23 20  2  0
M  END
$$$$
