TCE.pdb
     RDKit          3D

 23 22  0  0  1  0  0  0  0  0999 V2000
    7.1459  -14.6375   17.7813 C   0  0  0  0  0  0  0  0  0  0  0  0
    7.8222  -14.7494   19.1223 C   0  0  1  0  0  0  0  0  0  0  0  0
    9.1955  -14.9624   18.8771 O   0  0  0  0  0  0  0  0  0  0  0  0
    7.6855  -13.4708   19.9595 C   0  0  2  0  0  0  0  0  0  0  0  0
    8.3359  -12.4289   19.1493 N   0  0  0  0  0  0  0  0  0  0  0  0
    8.4541  -13.5657   21.2338 C   0  0  0  0  0  0  0  0  0  0  0  0
    9.6977  -13.2951   21.2305 O   0  0  0  0  0  0  0  0  0  0  0  0
    7.8106  -13.9503   22.4357 N   0  0  0  0  0  0  0  0  0  0  0  0
    8.5605  -14.1607   23.6671 C   0  0  1  0  0  0  0  0  0  0  0  0
    7.6244  -14.1071   24.8534 C   0  0  0  0  0  0  0  0  0  0  0  0
    6.4172  -15.4349   24.8899 S   0  0  0  0  0  0  0  0  0  0  0  0
    9.2271  -15.4839   23.6538 C   0  0  0  0  0  0  0  0  0  0  0  0
    8.6649  -16.4821   23.0715 O   0  0  0  0  0  0  0  0  0  0  0  0
   10.4775  -15.7937   24.2347 N   0  0  0  0  0  0  0  0  0  0  0  0
   11.0218  -17.1361   24.2877 C   0  0  1  0  0  0  0  0  0  0  0  0
   12.2869  -17.2556   23.4582 C   0  0  0  0  0  0  0  0  0  0  0  0
   13.1204  -16.0051   23.5666 C   0  0  0  0  0  0  0  0  0  0  0  0
   14.4141  -16.1265   22.8856 C   0  0  0  0  0  0  0  0  0  0  0  0
   15.4148  -16.5593   23.5123 O   0  0  0  0  0  0  0  0  0  0  0  0
   11.2536  -17.4919   25.6996 C   0  0  0  0  0  0  0  0  0  0  0  0
   10.9136  -16.6055   26.7018 O   0  0  0  0  0  0  0  0  0  0  0  0
   14.5725  -15.7757   21.5576 O   0  0  0  0  0  0  0  0  0  0  0  0
   11.7587  -18.5921   26.0385 O   0  0  0  0  0  0  0  0  0  0  0  0
  2  1  1  6
  3  2  1  0
  4  2  1  0
  4  5  1  6
  6  8  1  0
  6  4  1  0
  7  6  2  0
  9 12  1  0
  9  8  1  0
  9 10  1  1
 11 10  1  0
 12 14  1  0
 13 12  2  0
 14 15  1  0
 15 20  1  0
 15 16  1  6
 16 17  1  0
 18 22  1  0
 18 17  1  0
 19 18  2  0
 20 21  1  0
 23 20  2  0
M  END
$$$$
