TCE.pdb
     RDKit          3D

 23 22  0  0  1  0  0  0  0  0999 V2000
   12.8884  -20.3984   18.6575 C   0  0  0  0  0  0  0  0  0  0  0  0
   12.4796  -19.4508   17.5607 C   0  0  1  0  0  0  0  0  0  0  0  0
   12.0676  -20.2386   16.4648 O   0  0  0  0  0  0  0  0  0  0  0  0
   11.3023  -18.5538   17.9656 C   0  0  2  0  0  0  0  0  0  0  0  0
   11.0192  -17.7532   16.7640 N   0  0  0  0  0  0  0  0  0  0  0  0
   11.6890  -17.5941   19.0394 C   0  0  0  0  0  0  0  0  0  0  0  0
   12.4215  -16.5956   18.7456 O   0  0  0  0  0  0  0  0  0  0  0  0
   11.2466  -17.7875   20.3712 N   0  0  0  0  0  0  0  0  0  0  0  0
   11.6522  -16.8910   21.4457 C   0  0  1  0  0  0  0  0  0  0  0  0
   10.5686  -16.8288   22.4986 C   0  0  0  0  0  0  0  0  0  0  0  0
   11.0461  -15.9425   23.9845 S   0  0  0  0  0  0  0  0  0  0  0  0
   12.9005  -17.3707   22.0838 C   0  0  0  0  0  0  0  0  0  0  0  0
   12.9899  -18.5870   22.4891 O   0  0  0  0  0  0  0  0  0  0  0  0
   14.0688  -16.6082   22.3084 N   0  0  0  0  0  0  0  0  0  0  0  0
   15.2403  -17.1249   22.9878 C   0  0  1  0  0  0  0  0  0  0  0  0
   16.5177  -16.5363   22.4177 C   0  0  0  0  0  0  0  0  0  0  0  0
   16.7257  -16.9823   20.9936 C   0  0  0  0  0  0  0  0  0  0  0  0
   17.9238  -16.3933   20.3855 C   0  0  0  0  0  0  0  0  0  0  0  0
   17.8385  -15.3087   19.7546 O   0  0  0  0  0  0  0  0  0  0  0  0
   15.1039  -16.8512   24.4301 C   0  0  0  0  0  0  0  0  0  0  0  0
   14.0497  -16.0900   24.8937 O   0  0  0  0  0  0  0  0  0  0  0  0
   19.1624  -16.9998   20.4841 O   0  0  0  0  0  0  0  0  0  0  0  0
   15.9241  -17.2907   25.2754 O   0  0  0  0  0  0  0  0  0  0  0  0
  2  1  1  1
  3  2  1  0
  4  2  1  0
  4  5  1  6
  6  8  1  0
  6  4  1  0
  7  6  2  0
  9 12  1  0
  9  8  1  0
  9 10  1  1
 11 10  1  0
 12 14  1  0
 13 12  2  0
 14 15  1  0
 15 20  1  0
 15 16  1  6
 16 17  1  0
 18 22  1  0
 18 17  1  0
 19 18  2  0
 20 21  1  0
 23 20  2  0
M  END
$$$$
