TCE.pdb
     RDKit          3D

 23 22  0  0  1  0  0  0  0  0999 V2000
    6.9749  -16.1691   20.9204 C   0  0  0  0  0  0  0  0  0  0  0  0
    7.7205  -15.0594   20.2269 C   0  0  1  0  0  0  0  0  0  0  0  0
    7.3456  -15.0952   18.8669 O   0  0  0  0  0  0  0  0  0  0  0  0
    7.3610  -13.6735   20.7787 C   0  0  2  0  0  0  0  0  0  0  0  0
    8.0885  -12.7324   19.9127 N   0  0  0  0  0  0  0  0  0  0  0  0
    7.8880  -13.4805   22.1603 C   0  0  0  0  0  0  0  0  0  0  0  0
    9.1452  -13.3939   22.3389 O   0  0  0  0  0  0  0  0  0  0  0  0
    7.0027  -13.3924   23.2626 N   0  0  0  0  0  0  0  0  0  0  0  0
    7.4969  -13.2942   24.6298 C   0  0  1  0  0  0  0  0  0  0  0  0
    6.3600  -12.9414   25.5621 C   0  0  0  0  0  0  0  0  0  0  0  0
    6.8442  -12.8115   27.2856 S   0  0  0  0  0  0  0  0  0  0  0  0
    8.0816  -14.5830   25.0683 C   0  0  0  0  0  0  0  0  0  0  0  0
    7.6151  -15.6900   24.6118 O   0  0  0  0  0  0  0  0  0  0  0  0
    9.1520  -14.7473   25.9761 N   0  0  0  0  0  0  0  0  0  0  0  0
    9.8515  -16.0027   26.1660 C   0  0  1  0  0  0  0  0  0  0  0  0
   11.1281  -16.0565   25.3473 C   0  0  0  0  0  0  0  0  0  0  0  0
   11.0666  -17.1650   24.3286 C   0  0  0  0  0  0  0  0  0  0  0  0
   12.3806  -17.7584   24.0580 C   0  0  0  0  0  0  0  0  0  0  0  0
   13.3985  -17.3293   24.6591 O   0  0  0  0  0  0  0  0  0  0  0  0
   10.1132  -16.1796   27.6062 C   0  0  0  0  0  0  0  0  0  0  0  0
   10.0973  -15.0887   28.4519 O   0  0  0  0  0  0  0  0  0  0  0  0
   12.5400  -18.7892   23.1504 O   0  0  0  0  0  0  0  0  0  0  0  0
   10.3556  -17.3060   28.1091 O   0  0  0  0  0  0  0  0  0  0  0  0
  2  1  1  1
  3  2  1  0
  4  2  1  0
  4  5  1  6
  6  8  1  0
  6  4  1  0
  7  6  2  0
  9 12  1  0
  9  8  1  0
  9 10  1  1
 11 10  1  0
 12 14  1  0
 13 12  2  0
 14 15  1  0
 15 20  1  0
 15 16  1  6
 16 17  1  0
 18 22  1  0
 18 17  1  0
 19 18  2  0
 20 21  1  0
 23 20  2  0
M  END
$$$$
