TCE.pdb
     RDKit          3D

 23 22  0  0  1  0  0  0  0  0999 V2000
    7.6680  -16.3375   20.3212 C   0  0  0  0  0  0  0  0  0  0  0  0
    8.0366  -15.0510   19.6302 C   0  0  1  0  0  0  0  0  0  0  0  0
    7.5721  -15.1470   18.3011 O   0  0  0  0  0  0  0  0  0  0  0  0
    7.3741  -13.8258   20.2739 C   0  0  2  0  0  0  0  0  0  0  0  0
    7.7351  -12.7056   19.3909 N   0  0  0  0  0  0  0  0  0  0  0  0
    7.9615  -13.5248   21.6111 C   0  0  0  0  0  0  0  0  0  0  0  0
    9.0105  -12.8076   21.6813 O   0  0  0  0  0  0  0  0  0  0  0  0
    7.3606  -14.0280   22.7911 N   0  0  0  0  0  0  0  0  0  0  0  0
    7.9577  -13.8096   24.1021 C   0  0  1  0  0  0  0  0  0  0  0  0
    6.8846  -13.4315   25.0980 C   0  0  0  0  0  0  0  0  0  0  0  0
    7.4783  -13.2738   26.7845 S   0  0  0  0  0  0  0  0  0  0  0  0
    8.6313  -15.0393   24.5812 C   0  0  0  0  0  0  0  0  0  0  0  0
    7.9749  -16.1407   24.6680 O   0  0  0  0  0  0  0  0  0  0  0  0
    9.9847  -15.1504   24.9722 N   0  0  0  0  0  0  0  0  0  0  0  0
   10.6008  -16.4018   25.3668 C   0  0  1  0  0  0  0  0  0  0  0  0
   12.1145  -16.3240   25.2903 C   0  0  0  0  0  0  0  0  0  0  0  0
   12.6556  -17.3364   24.3144 C   0  0  0  0  0  0  0  0  0  0  0  0
   13.9178  -16.9112   23.6995 C   0  0  0  0  0  0  0  0  0  0  0  0
   14.4273  -17.5954   22.7754 O   0  0  0  0  0  0  0  0  0  0  0  0
   10.1351  -16.7457   26.7228 C   0  0  0  0  0  0  0  0  0  0  0  0
    9.4092  -15.8306   27.4585 O   0  0  0  0  0  0  0  0  0  0  0  0
   14.5762  -15.7661   24.1080 O   0  0  0  0  0  0  0  0  0  0  0  0
   10.3757  -17.8612   27.2504 O   0  0  0  0  0  0  0  0  0  0  0  0
  2  1  1  1
  3  2  1  0
  4  2  1  0
  4  5  1  6
  6  8  1  0
  6  4  1  0
  7  6  2  0
  9 12  1  0
  9  8  1  0
  9 10  1  1
 11 10  1  0
 12 14  1  0
 13 12  2  0
 14 15  1  0
 15 20  1  0
 15 16  1  1
 16 17  1  0
 18 22  1  0
 18 17  1  0
 19 18  2  0
 20 21  1  0
 23 20  2  0
M  END
$$$$
