TCE.pdb
     RDKit          3D

 23 22  0  0  1  0  0  0  0  0999 V2000
    6.8272  -16.0688   20.5527 C   0  0  0  0  0  0  0  0  0  0  0  0
    7.6388  -14.9835   19.8957 C   0  0  1  0  0  0  0  0  0  0  0  0
    7.2639  -14.9516   18.5357 O   0  0  0  0  0  0  0  0  0  0  0  0
    7.3626  -13.5976   20.4937 C   0  0  2  0  0  0  0  0  0  0  0  0
    8.0933  -12.6670   19.6190 N   0  0  0  0  0  0  0  0  0  0  0  0
    7.9545  -13.4608   21.8556 C   0  0  0  0  0  0  0  0  0  0  0  0
    9.2077  -13.2719   21.9719 O   0  0  0  0  0  0  0  0  0  0  0  0
    7.1343  -13.5379   23.0079 N   0  0  0  0  0  0  0  0  0  0  0  0
    7.7026  -13.5186   24.3494 C   0  0  1  0  0  0  0  0  0  0  0  0
    6.6618  -13.0494   25.3409 C   0  0  0  0  0  0  0  0  0  0  0  0
    7.1899  -13.1477   27.0534 S   0  0  0  0  0  0  0  0  0  0  0  0
    8.1527  -14.8734   24.7461 C   0  0  0  0  0  0  0  0  0  0  0  0
    7.3364  -15.8645   24.6917 O   0  0  0  0  0  0  0  0  0  0  0  0
    9.4446  -15.2238   25.1988 N   0  0  0  0  0  0  0  0  0  0  0  0
    9.8152  -16.5696   25.5896 C   0  0  1  0  0  0  0  0  0  0  0  0
   11.2308  -16.9037   25.1566 C   0  0  0  0  0  0  0  0  0  0  0  0
   11.2632  -17.3356   23.7134 C   0  0  0  0  0  0  0  0  0  0  0  0
   12.6232  -17.6051   23.2339 C   0  0  0  0  0  0  0  0  0  0  0  0
   13.4892  -16.6935   23.2581 O   0  0  0  0  0  0  0  0  0  0  0  0
    9.6407  -16.6983   27.0480 C   0  0  0  0  0  0  0  0  0  0  0  0
    9.8418  -17.9170   27.6645 O   0  0  0  0  0  0  0  0  0  0  0  0
   12.9904  -18.8467   22.7487 O   0  0  0  0  0  0  0  0  0  0  0  0
    9.3093  -15.7248   27.7711 O   0  0  0  0  0  0  0  0  0  0  0  0
  2  1  1  1
  3  2  1  0
  4  2  1  0
  4  5  1  6
  6  8  1  0
  6  4  1  0
  7  6  2  0
  9 12  1  0
  9  8  1  0
  9 10  1  1
 11 10  1  0
 12 14  1  0
 13 12  2  0
 14 15  1  0
 15 20  1  0
 15 16  1  1
 16 17  1  0
 18 22  1  0
 18 17  1  0
 19 18  2  0
 20 21  1  0
 23 20  2  0
M  END
$$$$
