RIL.pdb
     RDKit          3D

 28 27  0  0  1  0  0  0  0  0999 V2000
   18.8722  -17.7029  -14.5761 N   0  0  0  0  0  0  0  0  0  0  0  0
   18.7491  -17.5479  -15.9744 C   0  0  0  0  0  0  0  0  0  0  0  0
   17.6659  -17.0232  -16.4257 N   0  0  0  0  0  0  0  0  0  0  0  0
   19.7707  -17.9478  -16.8847 N   0  0  0  0  0  0  0  0  0  0  0  0
   20.9300  -18.6304  -16.4403 C   0  0  0  0  0  0  0  0  0  0  0  0
   20.6673  -19.8580  -15.6476 C   0  0  0  0  0  0  0  0  0  0  0  0
   21.8415  -20.6289  -15.1903 C   0  0  0  0  0  0  0  0  0  0  0  0
   23.0991  -20.5139  -15.9553 C   0  0  2  0  0  0  0  0  0  0  0  0
   22.9883  -21.2884  -17.1809 N   0  0  0  0  0  0  0  0  0  0  0  0
   24.2936  -20.9569  -15.1715 C   0  0  0  0  0  0  0  0  0  0  0  0
   24.5982  -22.1765  -15.1376 O   0  0  0  0  0  0  0  0  0  0  0  0
   17.4888  -16.8755  -17.4348 C   0  0  0  0  0  0  0  0  0  0  0  0
   28.6964  -18.3341  -15.7546 C   0  0  0  0  0  0  0  0  0  0  0  0
   27.7693  -19.4928  -15.4726 C   0  0  2  0  0  0  0  0  0  0  0  0
   27.3663  -19.5650  -14.0510 C   0  0  0  0  0  0  0  0  0  0  0  0
   28.5701  -19.8609  -13.1757 C   0  0  2  0  0  0  0  0  0  0  0  0
   26.2899  -20.5218  -13.6781 N   0  0  0  0  0  0  0  0  0  0  0  0
   25.1137  -20.0608  -14.4533 C   0  0  0  0  0  0  0  0  0  0  0  0
   25.9143  -20.4525  -12.2481 O   0  0  0  0  0  0  0  0  0  0  0  0
   25.4108  -19.3735  -11.7563 C   0  0  0  0  0  0  0  0  0  0  0  0
   27.4732  -19.0319   -7.4832 C   0  0  1  0  0  0  0  0  0  0  0  0
   26.4816  -20.1496   -7.8409 C   0  0  0  0  0  0  0  0  0  0  0  0
   26.7770  -21.2829   -6.8852 C   0  0  0  0  0  0  0  0  0  0  0  0
   26.7415  -20.5005   -9.2618 C   0  0  2  0  0  0  0  0  0  0  0  0
   25.7016  -21.3730   -9.9079 N   0  0  0  0  0  0  0  0  0  0  0  0
   26.0633  -21.5118  -11.3337 C   0  0  0  0  0  0  0  0  0  0  0  0
   24.3414  -20.8781   -9.7896 O   0  0  0  0  0  0  0  0  0  0  0  0
   23.7628  -20.3752  -10.7763 O   0  0  0  0  0  0  0  0  0  0  0  0
  1  2  1  0
  2  3  2  0
  4  2  1  0
  4  5  1  0
  6  5  1  0
  7  6  1  0
  8 10  1  0
  8  7  1  0
  8  9  1  6
 10 11  2  0
 13 12  1  0
 14 13  1  0
 14 16  1  0
 14 15  1  1
 16 18  1  0
 16 17  1  6
 17 10  1  0
 18 25  1  0
 18 19  2  0
 21 20  1  1
 21 22  1  0
 23 21  1  0
 24 23  1  1
 24 26  1  0
 25 24  1  0
 26 27  2  0
 26 28  1  0
M  END
$$$$
