RIL.pdb
     RDKit          3D

 28 27  0  0  1  0  0  0  0  0999 V2000
   22.2087  -21.0893  -14.8595 N   0  0  0  0  0  0  0  0  0  0  0  0
   21.6221  -20.7547  -13.6192 C   0  0  0  0  0  0  0  0  0  0  0  0
   20.4700  -21.2556  -13.3470 N   0  0  0  0  0  0  0  0  0  0  0  0
   22.2567  -19.8941  -12.6763 N   0  0  0  0  0  0  0  0  0  0  0  0
   23.5559  -19.3776  -12.9056 C   0  0  0  0  0  0  0  0  0  0  0  0
   24.6529  -20.3714  -12.7917 C   0  0  0  0  0  0  0  0  0  0  0  0
   25.8326  -19.9842  -11.9914 C   0  0  0  0  0  0  0  0  0  0  0  0
   27.1684  -20.4018  -12.4613 C   0  0  2  0  0  0  0  0  0  0  0  0
   27.0528  -20.9692  -13.7950 N   0  0  0  0  0  0  0  0  0  0  0  0
   27.8244  -21.3804  -11.5396 C   0  0  0  0  0  0  0  0  0  0  0  0
   27.3795  -22.5538  -11.4591 O   0  0  0  0  0  0  0  0  0  0  0  0
   19.9441  -21.0251  -12.4858 C   0  0  0  0  0  0  0  0  0  0  0  0
   33.2283  -21.5544  -10.7875 C   0  0  0  0  0  0  0  0  0  0  0  0
   31.7890  -21.9876  -10.9362 C   0  0  2  0  0  0  0  0  0  0  0  0
   30.9709  -21.6584   -9.7483 C   0  0  0  0  0  0  0  0  0  0  0  0
   31.5743  -22.2814   -8.5030 C   0  0  2  0  0  0  0  0  0  0  0  0
   29.5260  -22.0116   -9.7758 N   0  0  0  0  0  0  0  0  0  0  0  0
   28.9386  -21.0502  -10.7390 C   0  0  0  0  0  0  0  0  0  0  0  0
   28.8444  -21.7908   -8.4807 O   0  0  0  0  0  0  0  0  0  0  0  0
   28.9601  -22.6487   -7.5267 C   0  0  0  0  0  0  0  0  0  0  0  0
   28.6247  -20.3043   -4.2251 C   0  0  2  0  0  0  0  0  0  0  0  0
   29.0473  -19.3842   -5.3807 C   0  0  0  0  0  0  0  0  0  0  0  0
   29.4683  -18.0828   -4.7373 C   0  0  0  0  0  0  0  0  0  0  0  0
   27.8570  -19.2433   -6.2599 C   0  0  2  0  0  0  0  0  0  0  0  0
   27.3629  -20.5203   -6.8807 N   0  0  0  0  0  0  0  0  0  0  0  0
   28.0439  -20.6723   -8.1830 C   0  0  0  0  0  0  0  0  0  0  0  0
   25.9239  -20.5833   -7.0657 O   0  0  0  0  0  0  0  0  0  0  0  0
   25.4003  -20.1425   -8.1110 O   0  0  0  0  0  0  0  0  0  0  0  0
  1  2  1  0
  2  3  2  0
  4  2  1  0
  4  5  1  0
  6  5  1  0
  7  6  1  0
  8 10  1  0
  8  7  1  0
  8  9  1  6
 10 11  2  0
 13 12  1  0
 14 13  1  0
 14 16  1  0
 14 15  1  1
 16 18  1  0
 16 17  1  6
 17 10  1  0
 18 25  1  0
 18 19  2  0
 21 20  1  1
 21 22  1  0
 23 21  1  0
 24 23  1  1
 24 26  1  0
 25 24  1  0
 26 27  2  0
 26 28  1  0
M  END
$$$$
