RIL.pdb
     RDKit          3D

 28 27  0  0  1  0  0  0  0  0999 V2000
   21.8778  -16.2040  -14.6085 N   0  0  0  0  0  0  0  0  0  0  0  0
   21.0965  -16.5386  -15.7363 C   0  0  0  0  0  0  0  0  0  0  0  0
   19.8198  -16.4297  -15.6341 N   0  0  0  0  0  0  0  0  0  0  0  0
   21.6695  -16.9852  -16.9629 N   0  0  0  0  0  0  0  0  0  0  0  0
   22.6425  -18.0147  -16.9918 C   0  0  0  0  0  0  0  0  0  0  0  0
   22.1363  -19.3634  -16.6327 C   0  0  0  0  0  0  0  0  0  0  0  0
   22.9101  -20.1299  -15.6347 C   0  0  0  0  0  0  0  0  0  0  0  0
   24.1837  -20.7467  -16.0557 C   0  0  2  0  0  0  0  0  0  0  0  0
   23.9191  -21.7431  -17.0810 N   0  0  0  0  0  0  0  0  0  0  0  0
   24.9297  -21.3651  -14.9160 C   0  0  0  0  0  0  0  0  0  0  0  0
   24.5588  -22.4765  -14.4596 O   0  0  0  0  0  0  0  0  0  0  0  0
   19.1723  -16.6320  -16.4159 C   0  0  0  0  0  0  0  0  0  0  0  0
   30.3536  -20.4626  -12.1829 C   0  0  0  0  0  0  0  0  0  0  0  0
   29.0301  -21.1854  -12.0955 C   0  0  2  0  0  0  0  0  0  0  0  0
   28.0699  -20.7395  -13.1289 C   0  0  0  0  0  0  0  0  0  0  0  0
   27.9261  -19.2291  -13.0988 C   0  0  2  0  0  0  0  0  0  0  0  0
   26.7022  -21.3244  -13.1101 N   0  0  0  0  0  0  0  0  0  0  0  0
   26.0504  -20.7549  -14.3134 C   0  0  0  0  0  0  0  0  0  0  0  0
   25.8979  -20.8957  -11.9440 O   0  0  0  0  0  0  0  0  0  0  0  0
   25.3478  -19.7310  -11.9222 C   0  0  0  0  0  0  0  0  0  0  0  0
   26.0674  -21.5000   -7.1925 C   0  0  1  0  0  0  0  0  0  0  0  0
   26.5881  -20.4038   -8.1345 C   0  0  0  0  0  0  0  0  0  0  0  0
   27.0007  -19.2561   -7.2415 C   0  0  0  0  0  0  0  0  0  0  0  0
   25.4615  -20.0623   -9.0421 C   0  0  2  0  0  0  0  0  0  0  0  0
   24.7907  -21.2350   -9.7016 N   0  0  0  0  0  0  0  0  0  0  0  0
   25.6674  -21.6855  -10.8023 C   0  0  0  0  0  0  0  0  0  0  0  0
   23.4594  -20.9591  -10.2123 O   0  0  0  0  0  0  0  0  0  0  0  0
   22.4494  -21.3590   -9.5951 O   0  0  0  0  0  0  0  0  0  0  0  0
  1  2  1  0
  2  3  2  0
  4  2  1  0
  4  5  1  0
  6  5  1  0
  7  6  1  0
  8 10  1  0
  8  7  1  0
  8  9  1  6
 10 11  2  0
 13 12  1  0
 14 13  1  0
 14 16  1  0
 14 15  1  6
 16 18  1  0
 16 17  1  1
 17 10  1  0
 18 25  1  0
 18 19  2  0
 21 20  1  1
 21 22  1  0
 23 21  1  0
 24 23  1  1
 24 26  1  0
 25 24  1  0
 26 27  2  0
 26 28  1  0
M  END
$$$$
