RIL.pdb
     RDKit          3D

 28 27  0  0  1  0  0  0  0  0999 V2000
    9.5313  -13.3564   -9.4020 N   0  0  0  0  0  0  0  0  0  0  0  0
    9.7068  -14.1777  -10.5374 C   0  0  0  0  0  0  0  0  0  0  0  0
    8.8769  -15.1438  -10.7118 N   0  0  0  0  0  0  0  0  0  0  0  0
   10.7568  -13.9722  -11.4794 N   0  0  0  0  0  0  0  0  0  0  0  0
   11.6300  -12.8607  -11.3812 C   0  0  0  0  0  0  0  0  0  0  0  0
   12.7757  -12.8806  -12.3252 C   0  0  0  0  0  0  0  0  0  0  0  0
   13.7672  -11.7922  -12.2045 C   0  0  0  0  0  0  0  0  0  0  0  0
   14.9064  -11.7720  -13.1435 C   0  0  2  0  0  0  0  0  0  0  0  0
   15.5883  -13.0554  -13.0991 N   0  0  0  0  0  0  0  0  0  0  0  0
   15.8710  -10.6653  -12.8565 C   0  0  0  0  0  0  0  0  0  0  0  0
   16.7702  -10.8319  -11.9935 O   0  0  0  0  0  0  0  0  0  0  0  0
    8.9028  -15.7671  -11.5378 C   0  0  0  0  0  0  0  0  0  0  0  0
   19.3347   -9.4252  -14.6267 C   0  0  0  0  0  0  0  0  0  0  0  0
   18.0922   -8.9779  -15.3600 C   0  0  1  0  0  0  0  0  0  0  0  0
   17.3145   -7.9744  -14.6005 C   0  0  0  0  0  0  0  0  0  0  0  0
   18.1087   -6.6892  -14.4577 C   0  0  2  0  0  0  0  0  0  0  0  0
   16.8184   -8.3518  -13.2496 N   0  0  0  0  0  0  0  0  0  0  0  0
   15.8246   -9.4187  -13.5161 C   0  0  0  0  0  0  0  0  0  0  0  0
   16.0973   -7.2564  -12.5635 O   0  0  0  0  0  0  0  0  0  0  0  0
   15.1451   -6.6265  -13.1602 C   0  0  0  0  0  0  0  0  0  0  0  0
   13.3137   -6.4503   -9.1507 C   0  0  2  0  0  0  0  0  0  0  0  0
   14.7179   -6.8993   -8.7182 C   0  0  0  0  0  0  0  0  0  0  0  0
   14.6624   -7.0303   -7.2133 C   0  0  0  0  0  0  0  0  0  0  0  0
   15.6555   -5.8418   -9.1787 C   0  0  2  0  0  0  0  0  0  0  0  0
   15.7108   -5.6368  -10.6670 N   0  0  0  0  0  0  0  0  0  0  0  0
   16.3707   -6.8217  -11.2533 C   0  0  0  0  0  0  0  0  0  0  0  0
   16.4023   -4.4298  -11.0841 O   0  0  0  0  0  0  0  0  0  0  0  0
   17.6209   -4.4611  -11.3582 O   0  0  0  0  0  0  0  0  0  0  0  0
  1  2  1  0
  2  3  2  0
  4  2  1  0
  4  5  1  0
  6  5  1  0
  7  6  1  0
  8 10  1  0
  8  7  1  0
  8  9  1  1
 10 11  2  0
 13 12  1  0
 14 13  1  0
 14 16  1  0
 14 15  1  6
 16 18  1  0
 16 17  1  1
 17 10  1  0
 18 25  1  0
 18 19  2  0
 21 20  1  6
 21 22  1  0
 23 21  1  0
 24 23  1  6
 24 26  1  0
 25 24  1  0
 26 27  2  0
 26 28  1  0
M  END
$$$$
