RIL.pdb
     RDKit          3D

 28 27  0  0  1  0  0  0  0  0999 V2000
   32.0553  -24.1779  -15.7724 N   0  0  0  0  0  0  0  0  0  0  0  0
   31.6664  -23.6520  -17.0240 C   0  0  0  0  0  0  0  0  0  0  0  0
   31.9016  -24.3604  -18.0706 N   0  0  0  0  0  0  0  0  0  0  0  0
   31.0321  -22.3826  -17.1605 N   0  0  0  0  0  0  0  0  0  0  0  0
   30.6427  -21.6260  -16.0276 C   0  0  0  0  0  0  0  0  0  0  0  0
   29.3519  -22.0333  -15.4176 C   0  0  0  0  0  0  0  0  0  0  0  0
   28.8514  -21.2177  -14.2922 C   0  0  0  0  0  0  0  0  0  0  0  0
   29.3241  -21.5347  -12.9299 C   0  0  2  0  0  0  0  0  0  0  0  0
   30.1660  -22.7192  -12.9770 N   0  0  0  0  0  0  0  0  0  0  0  0
   28.2015  -21.7381  -11.9624 C   0  0  0  0  0  0  0  0  0  0  0  0
   27.4717  -22.7573  -12.0615 O   0  0  0  0  0  0  0  0  0  0  0  0
   31.6586  -24.0501  -19.0277 C   0  0  0  0  0  0  0  0  0  0  0  0
   28.5871  -19.6880   -6.8948 C   0  0  0  0  0  0  0  0  0  0  0  0
   28.2705  -20.6425   -8.0219 C   0  0  2  0  0  0  0  0  0  0  0  0
   27.0973  -20.2154   -8.8155 C   0  0  0  0  0  0  0  0  0  0  0  0
   25.8626  -20.1453   -7.9360 C   0  0  2  0  0  0  0  0  0  0  0  0
   26.7465  -21.0076  -10.0249 N   0  0  0  0  0  0  0  0  0  0  0  0
   27.9117  -20.8284  -10.9233 C   0  0  0  0  0  0  0  0  0  0  0  0
   25.5651  -20.4832  -10.7461 O   0  0  0  0  0  0  0  0  0  0  0  0
   25.5696  -19.2872  -11.2250 C   0  0  0  0  0  0  0  0  0  0  0  0
   20.9507  -21.8178  -13.4205 C   0  0  1  0  0  0  0  0  0  0  0  0
   22.2691  -21.3980  -14.0883 C   0  0  0  0  0  0  0  0  0  0  0  0
   22.3956  -22.2576  -15.3252 C   0  0  0  0  0  0  0  0  0  0  0  0
   23.3418  -21.6486  -13.0902 C   0  0  2  0  0  0  0  0  0  0  0  0
   23.3326  -20.7362  -11.8954 N   0  0  0  0  0  0  0  0  0  0  0  0
   24.3807  -21.2099  -10.9680 C   0  0  0  0  0  0  0  0  0  0  0  0
   22.0580  -20.6619  -11.2035 O   0  0  0  0  0  0  0  0  0  0  0  0
   21.1820  -19.8524  -11.5756 O   0  0  0  0  0  0  0  0  0  0  0  0
  1  2  1  0
  2  3  2  0
  4  2  1  0
  4  5  1  0
  6  5  1  0
  7  6  1  0
  8 10  1  0
  8  7  1  0
  8  9  1  6
 10 11  2  0
 13 12  1  0
 14 13  1  0
 14 16  1  0
 14 15  1  6
 16 18  1  0
 16 17  1  1
 17 10  1  0
 18 25  1  0
 18 19  2  0
 21 20  1  6
 21 22  1  0
 23 21  1  0
 24 23  1  6
 24 26  1  0
 25 24  1  0
 26 27  2  0
 26 28  1  0
M  END
$$$$
