RIL.pdb
     RDKit          3D

 28 27  0  0  1  0  0  0  0  0999 V2000
   23.1375  -16.4624  -19.9063 N   0  0  0  0  0  0  0  0  0  0  0  0
   22.8906  -16.2544  -18.5314 C   0  0  0  0  0  0  0  0  0  0  0  0
   21.9628  -15.4256  -18.2082 N   0  0  0  0  0  0  0  0  0  0  0  0
   23.6253  -16.9234  -17.5092 N   0  0  0  0  0  0  0  0  0  0  0  0
   24.4859  -18.0085  -17.8078 C   0  0  0  0  0  0  0  0  0  0  0  0
   23.9455  -19.3479  -17.4639 C   0  0  0  0  0  0  0  0  0  0  0  0
   24.5953  -20.0715  -16.3520 C   0  0  0  0  0  0  0  0  0  0  0  0
   25.9865  -20.5322  -16.5312 C   0  0  2  0  0  0  0  0  0  0  0  0
   26.0525  -21.4275  -17.6750 N   0  0  0  0  0  0  0  0  0  0  0  0
   26.5312  -21.2098  -15.3139 C   0  0  0  0  0  0  0  0  0  0  0  0
   26.1725  -22.3840  -15.0425 O   0  0  0  0  0  0  0  0  0  0  0  0
   21.6826  -15.2472  -17.2278 C   0  0  0  0  0  0  0  0  0  0  0  0
   30.9968  -22.1786  -11.8305 C   0  0  0  0  0  0  0  0  0  0  0  0
   29.8786  -21.1776  -11.6592 C   0  0  2  0  0  0  0  0  0  0  0  0
   29.2321  -20.8229  -12.9418 C   0  0  0  0  0  0  0  0  0  0  0  0
   29.3740  -19.3362  -13.2108 C   0  0  2  0  0  0  0  0  0  0  0  0
   27.7997  -21.1808  -13.1242 N   0  0  0  0  0  0  0  0  0  0  0  0
   27.4447  -20.5886  -14.4358 C   0  0  0  0  0  0  0  0  0  0  0  0
   26.9084  -20.5600  -12.1188 O   0  0  0  0  0  0  0  0  0  0  0  0
   26.3587  -19.4179  -12.3492 C   0  0  0  0  0  0  0  0  0  0  0  0
   22.6811  -19.5499   -9.8276 C   0  0  2  0  0  0  0  0  0  0  0  0
   23.1844  -20.2740  -11.0856 C   0  0  0  0  0  0  0  0  0  0  0  0
   21.9669  -20.9269  -11.6992 C   0  0  0  0  0  0  0  0  0  0  0  0
   24.2033  -21.2535  -10.6251 C   0  0  2  0  0  0  0  0  0  0  0  0
   25.4585  -20.6538  -10.0553 N   0  0  0  0  0  0  0  0  0  0  0  0
   26.5906  -21.1344  -10.8741 C   0  0  0  0  0  0  0  0  0  0  0  0
   25.6941  -20.9647   -8.6564 O   0  0  0  0  0  0  0  0  0  0  0  0
   26.2649  -22.0277   -8.3316 O   0  0  0  0  0  0  0  0  0  0  0  0
  1  2  1  0
  2  3  2  0
  4  2  1  0
  4  5  1  0
  6  5  1  0
  7  6  1  0
  8 10  1  0
  8  7  1  0
  8  9  1  6
 10 11  2  0
 13 12  1  0
 14 13  1  0
 14 16  1  0
 14 15  1  6
 16 18  1  0
 16 17  1  1
 17 10  1  0
 18 25  1  0
 18 19  2  0
 21 20  1  6
 21 22  1  0
 23 21  1  0
 24 23  1  6
 24 26  1  0
 25 24  1  0
 26 27  2  0
 26 28  1  0
M  END
$$$$
