TTY.pdb
     RDKit          3D

 27 27  0  0  1  0  0  0  0  0999 V2000
   16.9478  -15.5613   17.0960 C   0  0  0  0  0  0  0  0  0  0  0  0
   16.3493  -14.6579   16.0566 C   0  0  1  0  0  0  0  0  0  0  0  0
   17.2165  -14.4759   14.9935 O   0  0  0  0  0  0  0  0  0  0  0  0
   14.9806  -15.0771   15.6115 C   0  0  2  0  0  0  0  0  0  0  0  0
   14.5450  -14.2753   14.5071 N   0  0  0  0  0  0  0  0  0  0  0  0
   13.9924  -15.1514   16.7014 C   0  0  0  0  0  0  0  0  0  0  0  0
   13.5781  -14.0845   17.2227 O   0  0  0  0  0  0  0  0  0  0  0  0
   12.1010  -18.8440   18.0671 C   0  0  0  0  0  0  0  0  0  0  0  0
   11.4708  -17.4687   18.1256 C   0  0  1  0  0  0  0  0  0  0  0  0
   10.5879  -17.4756   19.2156 O   0  0  0  0  0  0  0  0  0  0  0  0
   12.5423  -16.4277   18.3230 C   0  0  2  0  0  0  0  0  0  0  0  0
   13.4653  -16.3770   17.2134 N   0  0  0  0  0  0  0  0  0  0  0  0
   13.2969  -16.6118   19.5760 C   0  0  0  0  0  0  0  0  0  0  0  0
   14.3621  -17.2646   19.5035 O   0  0  0  0  0  0  0  0  0  0  0  0
   18.6664  -13.5671   19.5781 O   0  0  0  0  0  0  0  0  0  0  0  0
   17.5604  -13.9378   20.3408 C   0  0  0  0  0  0  0  0  0  0  0  0
   16.2967  -13.4748   20.0404 C   0  0  0  0  0  0  0  0  0  0  0  0
   15.1901  -13.8215   20.7717 C   0  0  0  0  0  0  0  0  0  0  0  0
   15.2995  -14.6620   21.8556 C   0  0  0  0  0  0  0  0  0  0  0  0
   14.1417  -15.0749   22.6849 C   0  0  0  0  0  0  0  0  0  0  0  0
   13.5574  -16.3163   22.0669 C   0  0  2  0  0  0  0  0  0  0  0  0
   12.8840  -16.0964   20.8340 N   0  0  0  0  0  0  0  0  0  0  0  0
   12.7006  -17.0853   22.9988 C   0  0  0  0  0  0  0  0  0  0  0  0
   11.3628  -17.3575   22.7780 O   0  0  0  0  0  0  0  0  0  0  0  0
   16.5468  -15.1330   22.1705 C   0  0  0  0  0  0  0  0  0  0  0  0
   17.6743  -14.7768   21.4216 C   0  0  0  0  0  0  0  0  0  0  0  0
   13.1970  -17.5331   24.0720 O   0  0  0  0  0  0  0  0  0  0  0  0
  2  1  1  1
  2  4  1  0
  3  2  1  0
  4  5  1  6
  4  6  1  0
  6 12  1  0
  7  6  2  0
  9  8  1  1
  9 10  1  0
 11  9  1  0
 11 12  1  6
 13 11  1  0
 13 14  2  0
 16 15  1  0
 16 17  2  0
 18 17  1  0
 19 18  2  0
 20 19  1  0
 21 20  1  1
 21 22  1  0
 22 13  1  0
 23 24  1  0
 23 21  1  0
 25 26  2  0
 25 19  1  0
 26 16  1  0
 27 23  2  0
M  END
$$$$
