TTY.pdb
     RDKit          3D

 27 27  0  0  1  0  0  0  0  0999 V2000
   12.4468  -17.9710   19.7795 C   0  0  0  0  0  0  0  0  0  0  0  0
   11.0907  -18.3628   19.2673 C   0  0  1  0  0  0  0  0  0  0  0  0
   10.3762  -19.0589   20.2266 O   0  0  0  0  0  0  0  0  0  0  0  0
   10.3109  -17.2185   18.6932 C   0  0  2  0  0  0  0  0  0  0  0  0
   10.9950  -16.6617   17.5644 N   0  0  0  0  0  0  0  0  0  0  0  0
    9.9105  -16.2076   19.6870 C   0  0  0  0  0  0  0  0  0  0  0  0
   10.6995  -15.2638   19.9487 O   0  0  0  0  0  0  0  0  0  0  0  0
    6.2835  -14.5504   20.0346 C   0  0  0  0  0  0  0  0  0  0  0  0
    6.7858  -15.0151   21.3850 C   0  0  1  0  0  0  0  0  0  0  0  0
    6.1434  -16.2320   21.6574 O   0  0  0  0  0  0  0  0  0  0  0  0
    8.2792  -15.2092   21.3313 C   0  0  2  0  0  0  0  0  0  0  0  0
    8.6635  -16.2299   20.3846 N   0  0  0  0  0  0  0  0  0  0  0  0
    8.8648  -15.5209   22.6478 C   0  0  0  0  0  0  0  0  0  0  0  0
    9.5513  -16.5641   22.7282 O   0  0  0  0  0  0  0  0  0  0  0  0
   11.0301  -15.8213   31.0925 O   0  0  0  0  0  0  0  0  0  0  0  0
   10.5005  -15.3753   29.8829 C   0  0  0  0  0  0  0  0  0  0  0  0
    9.3037  -15.8636   29.4028 C   0  0  0  0  0  0  0  0  0  0  0  0
    8.7576  -15.4446   28.2171 C   0  0  0  0  0  0  0  0  0  0  0  0
    9.3955  -14.5015   27.4446 C   0  0  0  0  0  0  0  0  0  0  0  0
    8.8566  -14.0069   26.1547 C   0  0  0  0  0  0  0  0  0  0  0  0
    9.1479  -15.0489   25.1089 C   0  0  2  0  0  0  0  0  0  0  0  0
    8.6923  -14.7138   23.8043 N   0  0  0  0  0  0  0  0  0  0  0  0
    8.6868  -16.4041   25.4898 C   0  0  0  0  0  0  0  0  0  0  0  0
    9.5156  -17.3966   25.9803 O   0  0  0  0  0  0  0  0  0  0  0  0
   10.5861  -14.0037   27.9043 C   0  0  0  0  0  0  0  0  0  0  0  0
   11.1405  -14.4340   29.1153 C   0  0  0  0  0  0  0  0  0  0  0  0
    7.4635  -16.7001   25.3691 O   0  0  0  0  0  0  0  0  0  0  0  0
  2  1  1  1
  2  4  1  0
  3  2  1  0
  4  5  1  6
  4  6  1  0
  6 12  1  0
  7  6  2  0
  9  8  1  6
  9 10  1  0
 11  9  1  0
 11 12  1  6
 13 11  1  0
 13 14  2  0
 16 15  1  0
 16 17  2  0
 18 17  1  0
 19 18  2  0
 20 19  1  0
 21 20  1  1
 21 22  1  0
 22 13  1  0
 23 24  1  0
 23 21  1  0
 25 26  2  0
 25 19  1  0
 26 16  1  0
 27 23  2  0
M  END
$$$$
