TTY.pdb
     RDKit          3D

 27 27  0  0  1  0  0  0  0  0999 V2000
   11.4943  -14.3919   19.7126 C   0  0  0  0  0  0  0  0  0  0  0  0
   10.6123  -13.4545   18.9393 C   0  0  1  0  0  0  0  0  0  0  0  0
   11.3075  -12.8535   17.9044 O   0  0  0  0  0  0  0  0  0  0  0  0
    9.3293  -14.0782   18.4787 C   0  0  2  0  0  0  0  0  0  0  0  0
    8.5755  -13.1501   17.6896 N   0  0  0  0  0  0  0  0  0  0  0  0
    8.5417  -14.6965   19.5591 C   0  0  0  0  0  0  0  0  0  0  0  0
    7.8707  -13.9577   20.3243 O   0  0  0  0  0  0  0  0  0  0  0  0
    6.9301  -18.4665   19.6622 C   0  0  0  0  0  0  0  0  0  0  0  0
    7.7412  -18.1590   20.9030 C   0  0  1  0  0  0  0  0  0  0  0  0
    8.9696  -18.8200   20.7561 O   0  0  0  0  0  0  0  0  0  0  0  0
    7.9542  -16.6714   21.0140 C   0  0  2  0  0  0  0  0  0  0  0  0
    8.4897  -16.1045   19.7984 N   0  0  0  0  0  0  0  0  0  0  0  0
    8.8200  -16.2989   22.1475 C   0  0  0  0  0  0  0  0  0  0  0  0
    9.8418  -15.6273   21.8813 O   0  0  0  0  0  0  0  0  0  0  0  0
    6.6817  -11.1463   28.6043 O   0  0  0  0  0  0  0  0  0  0  0  0
    6.8178  -12.0143   27.5224 C   0  0  0  0  0  0  0  0  0  0  0  0
    8.0576  -12.3192   27.0015 C   0  0  0  0  0  0  0  0  0  0  0  0
    8.2233  -13.1689   25.9384 C   0  0  0  0  0  0  0  0  0  0  0  0
    7.1369  -13.7625   25.3378 C   0  0  0  0  0  0  0  0  0  0  0  0
    7.2501  -14.6904   24.1868 C   0  0  0  0  0  0  0  0  0  0  0  0
    8.2696  -15.7381   24.5438 C   0  0  2  0  0  0  0  0  0  0  0  0
    8.5578  -16.6565   23.4973 N   0  0  0  0  0  0  0  0  0  0  0  0
    7.9515  -16.4597   25.7977 C   0  0  0  0  0  0  0  0  0  0  0  0
    8.5784  -16.2263   27.0081 O   0  0  0  0  0  0  0  0  0  0  0  0
    5.8961  -13.4725   25.8408 C   0  0  0  0  0  0  0  0  0  0  0  0
    5.7309  -12.6044   26.9263 C   0  0  0  0  0  0  0  0  0  0  0  0
    7.0547  -17.3510   25.7903 O   0  0  0  0  0  0  0  0  0  0  0  0
  2  1  1  6
  2  4  1  0
  3  2  1  0
  4  5  1  1
  4  6  1  0
  6 12  1  0
  7  6  2  0
  9  8  1  6
  9 10  1  0
 11  9  1  0
 11 12  1  6
 13 11  1  0
 13 14  2  0
 16 15  1  0
 16 17  2  0
 18 17  1  0
 19 18  2  0
 20 19  1  0
 21 20  1  6
 21 22  1  0
 22 13  1  0
 23 24  1  0
 23 21  1  0
 25 26  2  0
 25 19  1  0
 26 16  1  0
 27 23  2  0
M  END
$$$$
