TTY.pdb
     RDKit          3D

 27 27  0  0  1  0  0  0  0  0999 V2000
   10.6264  -23.2761   11.3133 C   0  0  0  0  0  0  0  0  0  0  0  0
   10.7516  -21.8415   10.8882 C   0  0  1  0  0  0  0  0  0  0  0  0
   10.8318  -21.7336    9.5107 O   0  0  0  0  0  0  0  0  0  0  0  0
    9.6986  -20.9474   11.4705 C   0  0  2  0  0  0  0  0  0  0  0  0
    9.7670  -19.6430   10.8823 N   0  0  0  0  0  0  0  0  0  0  0  0
    9.6823  -20.9210   12.9432 C   0  0  0  0  0  0  0  0  0  0  0  0
   10.4623  -20.1415   13.5479 O   0  0  0  0  0  0  0  0  0  0  0  0
    7.2657  -23.5847   15.4627 C   0  0  0  0  0  0  0  0  0  0  0  0
    7.4902  -22.1179   15.7624 C   0  0  1  0  0  0  0  0  0  0  0  0
    7.4982  -21.9881   17.1591 O   0  0  0  0  0  0  0  0  0  0  0  0
    8.8115  -21.6788   15.1858 C   0  0  2  0  0  0  0  0  0  0  0  0
    8.8236  -21.7369   13.7428 N   0  0  0  0  0  0  0  0  0  0  0  0
    9.9520  -22.4493   15.7137 C   0  0  0  0  0  0  0  0  0  0  0  0
   10.2456  -23.5073   15.1134 O   0  0  0  0  0  0  0  0  0  0  0  0
   14.8012  -22.1474   11.8541 O   0  0  0  0  0  0  0  0  0  0  0  0
   14.3923  -22.1297   13.1863 C   0  0  0  0  0  0  0  0  0  0  0  0
   14.5126  -23.2463   13.9863 C   0  0  0  0  0  0  0  0  0  0  0  0
   14.1194  -23.2597   15.2996 C   0  0  0  0  0  0  0  0  0  0  0  0
   13.5786  -22.1366   15.8822 C   0  0  0  0  0  0  0  0  0  0  0  0
   13.1357  -22.0870   17.2965 C   0  0  0  0  0  0  0  0  0  0  0  0
   11.8096  -22.7929   17.3844 C   0  0  2  0  0  0  0  0  0  0  0  0
   10.7177  -22.0589   16.8451 N   0  0  0  0  0  0  0  0  0  0  0  0
   11.4919  -23.2720   18.7495 C   0  0  0  0  0  0  0  0  0  0  0  0
   12.3285  -24.0728   19.5054 O   0  0  0  0  0  0  0  0  0  0  0  0
   13.4507  -21.0164   15.1040 C   0  0  0  0  0  0  0  0  0  0  0  0
   13.8532  -21.0067   13.7635 C   0  0  0  0  0  0  0  0  0  0  0  0
   10.3932  -22.9439   19.2823 O   0  0  0  0  0  0  0  0  0  0  0  0
  2  1  1  6
  2  4  1  0
  3  2  1  0
  4  5  1  6
  4  6  1  0
  6 12  1  0
  7  6  2  0
  9  8  1  1
  9 10  1  0
 11  9  1  0
 11 12  1  6
 13 11  1  0
 13 14  2  0
 16 15  1  0
 16 17  2  0
 18 17  1  0
 19 18  2  0
 20 19  1  0
 21 20  1  1
 21 22  1  0
 22 13  1  0
 23 24  1  0
 23 21  1  0
 25 26  2  0
 25 19  1  0
 26 16  1  0
 27 23  2  0
M  END
$$$$
