TTY.pdb
     RDKit          3D

 27 27  0  0  1  0  0  0  0  0999 V2000
    4.1364  -19.7597   21.6535 C   0  0  0  0  0  0  0  0  0  0  0  0
    5.3388  -18.8652   21.7468 C   0  0  1  0  0  0  0  0  0  0  0  0
    6.3975  -19.5133   22.3589 O   0  0  0  0  0  0  0  0  0  0  0  0
    5.7288  -18.2434   20.4398 C   0  0  2  0  0  0  0  0  0  0  0  0
    5.9970  -19.2562   19.4628 N   0  0  0  0  0  0  0  0  0  0  0  0
    6.8038  -17.2422   20.5494 C   0  0  0  0  0  0  0  0  0  0  0  0
    7.9653  -17.5515   20.1792 O   0  0  0  0  0  0  0  0  0  0  0  0
    8.4794  -12.6576   20.8756 C   0  0  0  0  0  0  0  0  0  0  0  0
    7.3791  -13.6485   20.5606 C   0  0  1  0  0  0  0  0  0  0  0  0
    7.3426  -13.7805   19.1646 O   0  0  0  0  0  0  0  0  0  0  0  0
    7.6902  -14.9741   21.2064 C   0  0  2  0  0  0  0  0  0  0  0  0
    6.6097  -15.9207   21.0576 N   0  0  0  0  0  0  0  0  0  0  0  0
    8.0353  -14.8496   22.6342 C   0  0  0  0  0  0  0  0  0  0  0  0
    7.2302  -14.2214   23.3575 O   0  0  0  0  0  0  0  0  0  0  0  0
    5.7032  -11.0902   27.2074 O   0  0  0  0  0  0  0  0  0  0  0  0
    6.3729  -12.2403   26.7937 C   0  0  0  0  0  0  0  0  0  0  0  0
    5.6828  -13.3632   26.3884 C   0  0  0  0  0  0  0  0  0  0  0  0
    6.3132  -14.5087   25.9764 C   0  0  0  0  0  0  0  0  0  0  0  0
    7.6868  -14.5840   25.9507 C   0  0  0  0  0  0  0  0  0  0  0  0
    8.4272  -15.7926   25.5148 C   0  0  0  0  0  0  0  0  0  0  0  0
    9.5350  -15.3440   24.6005 C   0  0  2  0  0  0  0  0  0  0  0  0
    9.2105  -15.3953   23.2170 N   0  0  0  0  0  0  0  0  0  0  0  0
   10.8213  -16.0312   24.8599 C   0  0  0  0  0  0  0  0  0  0  0  0
   11.4745  -16.0215   26.0788 O   0  0  0  0  0  0  0  0  0  0  0  0
    8.3910  -13.4787   26.3496 C   0  0  0  0  0  0  0  0  0  0  0  0
    7.7438  -12.3109   26.7696 C   0  0  0  0  0  0  0  0  0  0  0  0
   11.3804  -16.6748   23.9262 O   0  0  0  0  0  0  0  0  0  0  0  0
  2  1  1  6
  2  4  1  0
  3  2  1  0
  4  5  1  6
  4  6  1  0
  6 12  1  0
  7  6  2  0
  9  8  1  6
  9 10  1  0
 11  9  1  0
 11 12  1  1
 13 11  1  0
 13 14  2  0
 16 15  1  0
 16 17  2  0
 18 17  1  0
 19 18  2  0
 20 19  1  0
 21 20  1  1
 21 22  1  0
 22 13  1  0
 23 24  1  0
 23 21  1  0
 25 26  2  0
 25 19  1  0
 26 16  1  0
 27 23  2  0
M  END
$$$$
