TTY.pdb
     RDKit          3D

 27 27  0  0  1  0  0  0  0  0999 V2000
    7.9702  -12.2606   18.0918 C   0  0  0  0  0  0  0  0  0  0  0  0
    7.6179  -13.4808   18.8930 C   0  0  1  0  0  0  0  0  0  0  0  0
    7.7652  -14.6327   18.1400 O   0  0  0  0  0  0  0  0  0  0  0  0
    8.3320  -13.5634   20.2084 C   0  0  2  0  0  0  0  0  0  0  0  0
    9.7506  -13.5736   20.0091 N   0  0  0  0  0  0  0  0  0  0  0  0
    7.8596  -14.6534   21.0794 C   0  0  0  0  0  0  0  0  0  0  0  0
    6.6373  -14.7164   21.3690 O   0  0  0  0  0  0  0  0  0  0  0  0
    7.6336  -18.3203   20.8245 C   0  0  0  0  0  0  0  0  0  0  0  0
    8.4890  -18.0634   22.0469 C   0  0  1  0  0  0  0  0  0  0  0  0
    9.8242  -18.2123   21.6436 O   0  0  0  0  0  0  0  0  0  0  0  0
    8.2449  -16.6647   22.5519 C   0  0  2  0  0  0  0  0  0  0  0  0
    8.7137  -15.6604   21.6259 N   0  0  0  0  0  0  0  0  0  0  0  0
    8.8418  -16.4211   23.8776 C   0  0  0  0  0  0  0  0  0  0  0  0
    9.9191  -15.7851   23.9041 O   0  0  0  0  0  0  0  0  0  0  0  0
    6.3463  -10.7567   25.7016 O   0  0  0  0  0  0  0  0  0  0  0  0
    6.6798  -12.0485   26.1046 C   0  0  0  0  0  0  0  0  0  0  0  0
    5.7297  -13.0458   26.1678 C   0  0  0  0  0  0  0  0  0  0  0  0
    6.0271  -14.3252   26.5604 C   0  0  0  0  0  0  0  0  0  0  0  0
    7.3112  -14.6709   26.9136 C   0  0  0  0  0  0  0  0  0  0  0  0
    7.6966  -16.0362   27.3452 C   0  0  0  0  0  0  0  0  0  0  0  0
    8.7523  -16.5340   26.3954 C   0  0  2  0  0  0  0  0  0  0  0  0
    8.2674  -16.8629   25.0997 N   0  0  0  0  0  0  0  0  0  0  0  0
    9.5580  -17.6472   26.9484 C   0  0  0  0  0  0  0  0  0  0  0  0
   10.4288  -17.5199   28.0152 O   0  0  0  0  0  0  0  0  0  0  0  0
    8.2701  -13.6941   26.8574 C   0  0  0  0  0  0  0  0  0  0  0  0
    7.9626  -12.3889   26.4562 C   0  0  0  0  0  0  0  0  0  0  0  0
    9.4640  -18.7975   26.4320 O   0  0  0  0  0  0  0  0  0  0  0  0
  2  1  1  6
  2  4  1  0
  3  2  1  0
  4  5  1  6
  4  6  1  0
  6 12  1  0
  7  6  2  0
  9  8  1  6
  9 10  1  0
 11  9  1  0
 11 12  1  6
 13 11  1  0
 13 14  2  0
 16 15  1  0
 16 17  2  0
 18 17  1  0
 19 18  2  0
 20 19  1  0
 21 20  1  1
 21 22  1  0
 22 13  1  0
 23 24  1  0
 23 21  1  0
 25 26  2  0
 25 19  1  0
 26 16  1  0
 27 23  2  0
M  END
$$$$
