TTY.pdb
     RDKit          3D

 27 27  0  0  1  0  0  0  0  0999 V2000
    9.3940  -19.7063   17.7878 C   0  0  0  0  0  0  0  0  0  0  0  0
    9.5144  -18.6751   18.8726 C   0  0  1  0  0  0  0  0  0  0  0  0
   10.3540  -19.1089   19.8836 O   0  0  0  0  0  0  0  0  0  0  0  0
    9.8841  -17.3124   18.3688 C   0  0  2  0  0  0  0  0  0  0  0  0
   11.0719  -17.3781   17.5708 N   0  0  0  0  0  0  0  0  0  0  0  0
    9.9456  -16.2815   19.4192 C   0  0  0  0  0  0  0  0  0  0  0  0
   11.0699  -15.8951   19.8293 O   0  0  0  0  0  0  0  0  0  0  0  0
    7.9629  -12.8528   19.8118 C   0  0  0  0  0  0  0  0  0  0  0  0
    7.7872  -13.7039   21.0515 C   0  0  1  0  0  0  0  0  0  0  0  0
    6.5285  -14.3141   20.9468 O   0  0  0  0  0  0  0  0  0  0  0  0
    8.8740  -14.7462   21.1092 C   0  0  2  0  0  0  0  0  0  0  0  0
    8.7918  -15.6819   20.0122 N   0  0  0  0  0  0  0  0  0  0  0  0
    8.8893  -15.4889   22.3826 C   0  0  0  0  0  0  0  0  0  0  0  0
    8.4694  -16.6674   22.3545 O   0  0  0  0  0  0  0  0  0  0  0  0
    6.0923  -10.5669   27.2342 O   0  0  0  0  0  0  0  0  0  0  0  0
    6.4889  -11.8156   26.7587 C   0  0  0  0  0  0  0  0  0  0  0  0
    5.5624  -12.7755   26.4102 C   0  0  0  0  0  0  0  0  0  0  0  0
    5.9217  -14.0121   25.9399 C   0  0  0  0  0  0  0  0  0  0  0  0
    7.2474  -14.3503   25.7943 C   0  0  0  0  0  0  0  0  0  0  0  0
    7.6999  -15.6694   25.2903 C   0  0  0  0  0  0  0  0  0  0  0  0
    9.1444  -15.5343   24.8911 C   0  0  2  0  0  0  0  0  0  0  0  0
    9.3469  -14.9452   23.6129 N   0  0  0  0  0  0  0  0  0  0  0  0
    9.9038  -16.8007   25.0075 C   0  0  0  0  0  0  0  0  0  0  0  0
   10.7387  -17.2985   24.0237 O   0  0  0  0  0  0  0  0  0  0  0  0
    8.1837  -13.4100   26.1352 C   0  0  0  0  0  0  0  0  0  0  0  0
    7.8131  -12.1486   26.6151 C   0  0  0  0  0  0  0  0  0  0  0  0
    9.8012  -17.4912   26.0617 O   0  0  0  0  0  0  0  0  0  0  0  0
  2  1  1  6
  2  4  1  0
  3  2  1  0
  4  5  1  1
  4  6  1  0
  6 12  1  0
  7  6  2  0
  9  8  1  6
  9 10  1  0
 11  9  1  0
 11 12  1  6
 13 11  1  0
 13 14  2  0
 16 15  1  0
 16 17  2  0
 18 17  1  0
 19 18  2  0
 20 19  1  0
 21 20  1  6
 21 22  1  0
 22 13  1  0
 23 24  1  0
 23 21  1  0
 25 26  2  0
 25 19  1  0
 26 16  1  0
 27 23  2  0
M  END
$$$$
