TTY.pdb
     RDKit          3D

 27 27  0  0  1  0  0  0  0  0999 V2000
    8.4946  -11.9301   19.4558 C   0  0  0  0  0  0  0  0  0  0  0  0
    8.3951  -13.0681   20.4303 C   0  0  1  0  0  0  0  0  0  0  0  0
    7.4683  -12.7974   21.4218 O   0  0  0  0  0  0  0  0  0  0  0  0
    8.1629  -14.3986   19.7797 C   0  0  2  0  0  0  0  0  0  0  0  0
    7.0228  -14.3414   18.9142 N   0  0  0  0  0  0  0  0  0  0  0  0
    8.1199  -15.5282   20.7241 C   0  0  0  0  0  0  0  0  0  0  0  0
    7.0669  -16.2104   20.8113 O   0  0  0  0  0  0  0  0  0  0  0  0
   10.0367  -19.3820   22.7593 C   0  0  0  0  0  0  0  0  0  0  0  0
   10.1334  -18.1544   21.8787 C   0  0  1  0  0  0  0  0  0  0  0  0
    9.7651  -18.5552   20.5860 O   0  0  0  0  0  0  0  0  0  0  0  0
    9.1949  -17.0905   22.3870 C   0  0  2  0  0  0  0  0  0  0  0  0
    9.2146  -15.9055   21.5616 N   0  0  0  0  0  0  0  0  0  0  0  0
    9.4602  -16.7130   23.7871 C   0  0  0  0  0  0  0  0  0  0  0  0
   10.4287  -15.9476   23.9923 O   0  0  0  0  0  0  0  0  0  0  0  0
    6.5867  -10.9453   25.8409 O   0  0  0  0  0  0  0  0  0  0  0  0
    6.8547  -12.2830   26.1261 C   0  0  0  0  0  0  0  0  0  0  0  0
    8.1265  -12.7037   26.4529 C   0  0  0  0  0  0  0  0  0  0  0  0
    8.4210  -14.0119   26.7382 C   0  0  0  0  0  0  0  0  0  0  0  0
    7.4391  -14.9753   26.7089 C   0  0  0  0  0  0  0  0  0  0  0  0
    7.6932  -16.4052   27.0085 C   0  0  0  0  0  0  0  0  0  0  0  0
    8.9250  -16.8185   26.2493 C   0  0  2  0  0  0  0  0  0  0  0  0
    8.6879  -17.1649   24.8908 N   0  0  0  0  0  0  0  0  0  0  0  0
    9.7023  -17.8800   26.9299 C   0  0  0  0  0  0  0  0  0  0  0  0
    9.9702  -19.1200   26.3792 O   0  0  0  0  0  0  0  0  0  0  0  0
    6.1684  -14.5775   26.3864 C   0  0  0  0  0  0  0  0  0  0  0  0
    5.8717  -13.2409   26.0957 C   0  0  0  0  0  0  0  0  0  0  0  0
   10.1617  -17.6668   28.0884 O   0  0  0  0  0  0  0  0  0  0  0  0
  2  1  1  6
  2  4  1  0
  3  2  1  0
  4  5  1  1
  4  6  1  0
  6 12  1  0
  7  6  2  0
  9  8  1  1
  9 10  1  0
 11  9  1  0
 11 12  1  6
 13 11  1  0
 13 14  2  0
 16 15  1  0
 16 17  2  0
 18 17  1  0
 19 18  2  0
 20 19  1  0
 21 20  1  1
 21 22  1  0
 22 13  1  0
 23 24  1  0
 23 21  1  0
 25 26  2  0
 25 19  1  0
 26 16  1  0
 27 23  2  0
M  END
$$$$
