VVG.pdb
     RDKit          3D

 19 18  0  0  1  0  0  0  0  0999 V2000
   21.5328  -13.9282  -18.1852 C   0  0  0  0  0  0  0  0  0  0  0  0
   21.2520  -12.4754  -18.0183 C   0  0  1  0  0  0  0  0  0  0  0  0
   21.2897  -11.7589  -19.3195 C   0  0  0  0  0  0  0  0  0  0  0  0
   20.0209  -12.1576  -17.2224 C   0  0  2  0  0  0  0  0  0  0  0  0
   18.8454  -12.6626  -17.9646 N   0  0  0  0  0  0  0  0  0  0  0  0
   19.7796  -10.7138  -17.0062 C   0  0  0  0  0  0  0  0  0  0  0  0
   19.3372  -10.0012  -17.9620 O   0  0  0  0  0  0  0  0  0  0  0  0
   17.3022   -9.0096  -15.5626 C   0  0  0  0  0  0  0  0  0  0  0  0
   18.4785   -8.3642  -14.8337 C   0  0  1  0  0  0  0  0  0  0  0  0
   18.5057   -8.8977  -13.4398 C   0  0  0  0  0  0  0  0  0  0  0  0
   19.7707   -8.6214  -15.5933 C   0  0  2  0  0  0  0  0  0  0  0  0
   20.0014  -10.0254  -15.7928 N   0  0  0  0  0  0  0  0  0  0  0  0
   20.8674   -7.9878  -14.7996 C   0  0  0  0  0  0  0  0  0  0  0  0
   21.4223   -8.5834  -13.8400 O   0  0  0  0  0  0  0  0  0  0  0  0
   21.3106   -6.6762  -15.1218 N   0  0  0  0  0  0  0  0  0  0  0  0
   22.3456   -5.9878  -14.4204 C   0  0  0  0  0  0  0  0  0  0  0  0
   21.7994   -5.2784  -13.2418 C   0  0  0  0  0  0  0  0  0  0  0  0
   20.5828   -5.4155  -12.9718 O   0  0  0  0  0  0  0  0  0  0  0  0
   22.5598   -4.4674  -12.4159 O   0  0  0  0  0  0  0  0  0  0  0  0
  2  1  1  6
  3  2  1  0
  4  2  1  0
  4  5  1  6
  6  4  1  0
  7  6  2  0
  9  8  1  6
  9 11  1  0
 10  9  1  0
 11 13  1  0
 11 12  1  1
 12  6  1  0
 13 15  1  0
 14 13  2  0
 15 16  1  0
 17 16  1  0
 18 17  2  0
 19 17  1  0
M  END
$$$$
