VVG.pdb
     RDKit          3D

 19 18  0  0  1  0  0  0  0  0999 V2000
   26.6971  -17.6965  -15.6358 C   0  0  0  0  0  0  0  0  0  0  0  0
   27.5243  -18.7369  -16.3071 C   0  0  1  0  0  0  0  0  0  0  0  0
   28.6432  -18.1329  -17.0760 C   0  0  0  0  0  0  0  0  0  0  0  0
   27.9767  -19.8556  -15.4163 C   0  0  2  0  0  0  0  0  0  0  0  0
   28.5628  -20.9160  -16.2646 N   0  0  0  0  0  0  0  0  0  0  0  0
   26.8967  -20.5030  -14.6391 C   0  0  0  0  0  0  0  0  0  0  0  0
   26.0659  -21.2623  -15.2308 O   0  0  0  0  0  0  0  0  0  0  0  0
   26.1308  -19.5299  -10.5128 C   0  0  0  0  0  0  0  0  0  0  0  0
   25.8773  -20.9483  -11.0180 C   0  0  1  0  0  0  0  0  0  0  0  0
   24.7515  -21.5254  -10.2255 C   0  0  0  0  0  0  0  0  0  0  0  0
   25.6027  -20.9307  -12.5137 C   0  0  2  0  0  0  0  0  0  0  0  0
   26.6932  -20.3529  -13.2492 N   0  0  0  0  0  0  0  0  0  0  0  0
   24.3357  -20.1618  -12.7075 C   0  0  0  0  0  0  0  0  0  0  0  0
   24.2658  -18.9271  -12.4747 O   0  0  0  0  0  0  0  0  0  0  0  0
   23.1656  -20.8253  -13.1670 N   0  0  0  0  0  0  0  0  0  0  0  0
   21.8976  -20.1899  -13.3267 C   0  0  0  0  0  0  0  0  0  0  0  0
   20.9152  -20.7269  -12.3585 C   0  0  0  0  0  0  0  0  0  0  0  0
   21.2401  -21.7196  -11.6651 O   0  0  0  0  0  0  0  0  0  0  0  0
   19.6511  -20.1923  -12.1740 O   0  0  0  0  0  0  0  0  0  0  0  0
  2  1  1  1
  3  2  1  0
  4  2  1  0
  4  5  1  6
  6  4  1  0
  7  6  2  0
  9  8  1  1
  9 11  1  0
 10  9  1  0
 11 13  1  0
 11 12  1  6
 12  6  1  0
 13 15  1  0
 14 13  2  0
 15 16  1  0
 17 16  1  0
 18 17  2  0
 19 17  1  0
M  END
$$$$
