VVG.pdb
     RDKit          3D

 19 18  0  0  1  0  0  0  0  0999 V2000
   14.6491   -9.8686  -17.1337 C   0  0  0  0  0  0  0  0  0  0  0  0
   15.8330   -9.5482  -16.2893 C   0  0  1  0  0  0  0  0  0  0  0  0
   15.4434   -8.8097  -15.0602 C   0  0  0  0  0  0  0  0  0  0  0  0
   16.7352  -10.7110  -15.9998 C   0  0  2  0  0  0  0  0  0  0  0  0
   15.9745  -11.7028  -15.2091 N   0  0  0  0  0  0  0  0  0  0  0  0
   17.9334  -10.3795  -15.1973 C   0  0  0  0  0  0  0  0  0  0  0  0
   17.8938  -10.4974  -13.9318 O   0  0  0  0  0  0  0  0  0  0  0  0
   21.8281   -9.6776  -16.8990 C   0  0  0  0  0  0  0  0  0  0  0  0
   21.5917  -10.1179  -15.4562 C   0  0  1  0  0  0  0  0  0  0  0  0
   22.7831   -9.7172  -14.6510 C   0  0  0  0  0  0  0  0  0  0  0  0
   20.2938   -9.5229  -14.9326 C   0  0  2  0  0  0  0  0  0  0  0  0
   19.1644   -9.9280  -15.7230 N   0  0  0  0  0  0  0  0  0  0  0  0
   20.4697   -8.0387  -14.9391 C   0  0  0  0  0  0  0  0  0  0  0  0
   20.2339   -7.3463  -15.9631 O   0  0  0  0  0  0  0  0  0  0  0  0
   20.9151   -7.3712  -13.7658 N   0  0  0  0  0  0  0  0  0  0  0  0
   21.0841   -5.9576  -13.6663 C   0  0  0  0  0  0  0  0  0  0  0  0
   22.2338   -5.5071  -14.4824 C   0  0  0  0  0  0  0  0  0  0  0  0
   22.9338   -6.3728  -15.0589 O   0  0  0  0  0  0  0  0  0  0  0  0
   22.5821   -4.1768  -14.6464 O   0  0  0  0  0  0  0  0  0  0  0  0
  2  1  1  1
  3  2  1  0
  4  2  1  0
  4  5  1  1
  6  4  1  0
  7  6  2  0
  9  8  1  6
  9 11  1  0
 10  9  1  0
 11 13  1  0
 11 12  1  6
 12  6  1  0
 13 15  1  0
 14 13  2  0
 15 16  1  0
 17 16  1  0
 18 17  2  0
 19 17  1  0
M  END
$$$$
