VVG.pdb
     RDKit          3D

 19 18  0  0  1  0  0  0  0  0999 V2000
   23.7204  -23.9940  -16.2090 C   0  0  0  0  0  0  0  0  0  0  0  0
   22.7919  -22.8955  -15.8239 C   0  0  1  0  0  0  0  0  0  0  0  0
   21.5145  -23.4253  -15.2802 C   0  0  0  0  0  0  0  0  0  0  0  0
   23.3946  -21.8373  -14.9480 C   0  0  2  0  0  0  0  0  0  0  0  0
   22.3908  -20.7684  -14.7542 N   0  0  0  0  0  0  0  0  0  0  0  0
   24.5929  -21.1767  -15.5113 C   0  0  0  0  0  0  0  0  0  0  0  0
   24.4787  -20.4441  -16.5443 O   0  0  0  0  0  0  0  0  0  0  0  0
   26.6879  -18.4563  -14.4130 C   0  0  0  0  0  0  0  0  0  0  0  0
   27.6561  -19.6221  -14.6000 C   0  0  1  0  0  0  0  0  0  0  0  0
   27.9654  -20.1848  -13.2523 C   0  0  0  0  0  0  0  0  0  0  0  0
   27.0618  -20.6498  -15.5504 C   0  0  2  0  0  0  0  0  0  0  0  0
   25.9015  -21.2856  -14.9905 N   0  0  0  0  0  0  0  0  0  0  0  0
   28.1449  -21.6365  -15.8461 C   0  0  0  0  0  0  0  0  0  0  0  0
   28.5340  -22.4722  -14.9895 O   0  0  0  0  0  0  0  0  0  0  0  0
   28.7657  -21.6477  -17.1247 N   0  0  0  0  0  0  0  0  0  0  0  0
   29.8368  -22.5193  -17.4852 C   0  0  0  0  0  0  0  0  0  0  0  0
   30.1743  -22.3719  -18.9188 C   0  0  0  0  0  0  0  0  0  0  0  0
   31.1018  -23.0717  -19.3899 O   0  0  0  0  0  0  0  0  0  0  0  0
   29.5205  -21.5005  -19.7738 O   0  0  0  0  0  0  0  0  0  0  0  0
  2  1  1  1
  3  2  1  0
  4  2  1  0
  4  5  1  6
  6  4  1  0
  7  6  2  0
  9  8  1  1
  9 11  1  0
 10  9  1  0
 11 13  1  0
 11 12  1  1
 12  6  1  0
 13 15  1  0
 14 13  2  0
 15 16  1  0
 17 16  1  0
 18 17  2  0
 19 17  1  0
M  END
$$$$
