VVG.pdb
     RDKit          3D

 19 18  0  0  1  0  0  0  0  0999 V2000
   17.4253   -7.5470  -16.5190 C   0  0  0  0  0  0  0  0  0  0  0  0
   16.8090   -8.9024  -16.5038 C   0  0  1  0  0  0  0  0  0  0  0  0
   15.7682   -9.0409  -17.5552 C   0  0  0  0  0  0  0  0  0  0  0  0
   17.7861  -10.0404  -16.5085 C   0  0  2  0  0  0  0  0  0  0  0  0
   17.0268  -11.3042  -16.3902 N   0  0  0  0  0  0  0  0  0  0  0  0
   18.7485  -10.0341  -15.3845 C   0  0  0  0  0  0  0  0  0  0  0  0
   18.3712  -10.4187  -14.2327 O   0  0  0  0  0  0  0  0  0  0  0  0
   22.9542   -9.6222  -15.9804 C   0  0  0  0  0  0  0  0  0  0  0  0
   22.3392  -10.3237  -14.7716 C   0  0  1  0  0  0  0  0  0  0  0  0
   23.3492  -10.3177  -13.6723 C   0  0  0  0  0  0  0  0  0  0  0  0
   21.0335   -9.6485  -14.3819 C   0  0  2  0  0  0  0  0  0  0  0  0
   20.0983   -9.6268  -15.4724 N   0  0  0  0  0  0  0  0  0  0  0  0
   21.3841   -8.2688  -13.9262 C   0  0  0  0  0  0  0  0  0  0  0  0
   22.0823   -8.0658  -12.8992 O   0  0  0  0  0  0  0  0  0  0  0  0
   20.9257   -7.1408  -14.6598 N   0  0  0  0  0  0  0  0  0  0  0  0
   21.2769   -5.7919  -14.3530 C   0  0  0  0  0  0  0  0  0  0  0  0
   20.6771   -4.8573  -15.3315 C   0  0  0  0  0  0  0  0  0  0  0  0
   20.8508   -3.6266  -15.1674 O   0  0  0  0  0  0  0  0  0  0  0  0
   19.9309   -5.2672  -16.4239 O   0  0  0  0  0  0  0  0  0  0  0  0
  2  1  1  6
  3  2  1  0
  4  2  1  0
  4  5  1  1
  6  4  1  0
  7  6  2  0
  9  8  1  6
  9 11  1  0
 10  9  1  0
 11 13  1  0
 11 12  1  6
 12  6  1  0
 13 15  1  0
 14 13  2  0
 15 16  1  0
 17 16  1  0
 18 17  2  0
 19 17  1  0
M  END
$$$$
