VVG.pdb
     RDKit          3D

 19 18  0  0  1  0  0  0  0  0999 V2000
   27.0628  -21.6575  -19.8272 C   0  0  0  0  0  0  0  0  0  0  0  0
   25.8018  -22.0224  -19.1243 C   0  0  1  0  0  0  0  0  0  0  0  0
   24.6386  -22.0122  -20.0488 C   0  0  0  0  0  0  0  0  0  0  0  0
   25.8753  -23.2777  -18.3065 C   0  0  2  0  0  0  0  0  0  0  0  0
   26.0731  -24.4194  -19.2259 N   0  0  0  0  0  0  0  0  0  0  0  0
   24.6528  -23.5833  -17.5310 C   0  0  0  0  0  0  0  0  0  0  0  0
   23.7060  -24.2303  -18.0806 O   0  0  0  0  0  0  0  0  0  0  0  0
   24.2338  -25.5630  -14.4587 C   0  0  0  0  0  0  0  0  0  0  0  0
   23.5313  -24.2420  -14.1541 C   0  0  1  0  0  0  0  0  0  0  0  0
   24.3982  -23.4636  -13.2209 C   0  0  0  0  0  0  0  0  0  0  0  0
   23.2314  -23.4978  -15.4460 C   0  0  2  0  0  0  0  0  0  0  0  0
   24.4287  -23.2115  -16.1867 N   0  0  0  0  0  0  0  0  0  0  0  0
   22.5063  -22.2484  -15.0622 C   0  0  0  0  0  0  0  0  0  0  0  0
   23.1185  -21.2016  -14.7262 O   0  0  0  0  0  0  0  0  0  0  0  0
   21.0851  -22.2212  -15.0703 N   0  0  0  0  0  0  0  0  0  0  0  0
   20.3052  -21.0994  -14.6577 C   0  0  0  0  0  0  0  0  0  0  0  0
   18.9230  -21.5134  -14.3275 C   0  0  0  0  0  0  0  0  0  0  0  0
   18.6049  -22.7158  -14.4854 O   0  0  0  0  0  0  0  0  0  0  0  0
   17.9561  -20.6436  -13.8515 O   0  0  0  0  0  0  0  0  0  0  0  0
  2  1  1  6
  3  2  1  0
  4  2  1  0
  4  5  1  6
  6  4  1  0
  7  6  2  0
  9  8  1  6
  9 11  1  0
 10  9  1  0
 11 13  1  0
 11 12  1  1
 12  6  1  0
 13 15  1  0
 14 13  2  0
 15 16  1  0
 17 16  1  0
 18 17  2  0
 19 17  1  0
M  END
$$$$
