VVG.pdb
     RDKit          3D

 19 18  0  0  1  0  0  0  0  0999 V2000
   16.0622  -11.3885  -18.3947 C   0  0  0  0  0  0  0  0  0  0  0  0
   16.8797  -10.9029  -17.2489 C   0  0  1  0  0  0  0  0  0  0  0  0
   16.0365  -10.6134  -16.0602 C   0  0  0  0  0  0  0  0  0  0  0  0
   18.0693  -11.7540  -16.9164 C   0  0  2  0  0  0  0  0  0  0  0  0
   17.5817  -13.0529  -16.4038 N   0  0  0  0  0  0  0  0  0  0  0  0
   18.9497  -11.2023  -15.8628 C   0  0  0  0  0  0  0  0  0  0  0  0
   18.6602  -11.3929  -14.6394 O   0  0  0  0  0  0  0  0  0  0  0  0
   22.8907   -9.6157  -16.6184 C   0  0  0  0  0  0  0  0  0  0  0  0
   22.4228  -10.1941  -15.2850 C   0  0  1  0  0  0  0  0  0  0  0  0
   23.3002   -9.6429  -14.2104 C   0  0  0  0  0  0  0  0  0  0  0  0
   20.9502   -9.8836  -15.0667 C   0  0  2  0  0  0  0  0  0  0  0  0
   20.1264  -10.4561  -16.0953 N   0  0  0  0  0  0  0  0  0  0  0  0
   20.8281   -8.3945  -15.0251 C   0  0  0  0  0  0  0  0  0  0  0  0
   20.7262   -7.7068  -16.0741 O   0  0  0  0  0  0  0  0  0  0  0  0
   20.8251   -7.7169  -13.7756 N   0  0  0  0  0  0  0  0  0  0  0  0
   20.7008   -6.3021  -13.6343 C   0  0  0  0  0  0  0  0  0  0  0  0
   21.9613   -5.6238  -14.0110 C   0  0  0  0  0  0  0  0  0  0  0  0
   23.0025   -6.3136  -14.1196 O   0  0  0  0  0  0  0  0  0  0  0  0
   22.0564   -4.2633  -14.2517 O   0  0  0  0  0  0  0  0  0  0  0  0
  2  1  1  6
  3  2  1  0
  4  2  1  0
  4  5  1  1
  6  4  1  0
  7  6  2  0
  9  8  1  6
  9 11  1  0
 10  9  1  0
 11 13  1  0
 11 12  1  6
 12  6  1  0
 13 15  1  0
 14 13  2  0
 15 16  1  0
 17 16  1  0
 18 17  2  0
 19 17  1  0
M  END
$$$$
