VVG.pdb
     RDKit          3D

 19 18  0  0  1  0  0  0  0  0999 V2000
   17.5024  -10.2519  -18.0361 C   0  0  0  0  0  0  0  0  0  0  0  0
   17.4359  -11.7229  -17.8146 C   0  0  1  0  0  0  0  0  0  0  0  0
   16.7467  -12.4133  -18.9354 C   0  0  0  0  0  0  0  0  0  0  0  0
   18.7427  -12.3675  -17.4587 C   0  0  2  0  0  0  0  0  0  0  0  0
   18.4774  -13.7696  -17.0695 N   0  0  0  0  0  0  0  0  0  0  0  0
   19.4452  -11.7500  -16.3121 C   0  0  0  0  0  0  0  0  0  0  0  0
   19.0406  -11.9820  -15.1291 O   0  0  0  0  0  0  0  0  0  0  0  0
   23.4151  -10.2773  -16.4314 C   0  0  0  0  0  0  0  0  0  0  0  0
   22.6507  -10.6197  -15.1547 C   0  0  1  0  0  0  0  0  0  0  0  0
   23.3271   -9.9335  -14.0146 C   0  0  0  0  0  0  0  0  0  0  0  0
   21.1879  -10.2296  -15.2991 C   0  0  2  0  0  0  0  0  0  0  0  0
   20.5657  -10.8954  -16.4099 N   0  0  0  0  0  0  0  0  0  0  0  0
   21.1543   -8.7435  -15.4555 C   0  0  0  0  0  0  0  0  0  0  0  0
   21.5184   -8.1792  -16.5197 O   0  0  0  0  0  0  0  0  0  0  0  0
   20.7018   -7.9268  -14.3837 N   0  0  0  0  0  0  0  0  0  0  0  0
   20.5820   -6.5065  -14.4571 C   0  0  0  0  0  0  0  0  0  0  0  0
   21.8237   -5.8497  -13.9906 C   0  0  0  0  0  0  0  0  0  0  0  0
   22.7628   -6.5704  -13.5777 O   0  0  0  0  0  0  0  0  0  0  0  0
   22.0081   -4.4771  -13.9842 O   0  0  0  0  0  0  0  0  0  0  0  0
  2  1  1  6
  3  2  1  0
  4  2  1  0
  4  5  1  1
  6  4  1  0
  7  6  2  0
  9  8  1  6
  9 11  1  0
 10  9  1  0
 11 13  1  0
 11 12  1  6
 12  6  1  0
 13 15  1  0
 14 13  2  0
 15 16  1  0
 17 16  1  0
 18 17  2  0
 19 17  1  0
M  END
$$$$
