VVG.pdb
     RDKit          3D

 19 18  0  0  1  0  0  0  0  0999 V2000
   19.6041  -32.5417   -8.4512 C   0  0  0  0  0  0  0  0  0  0  0  0
   20.8130  -33.2286   -7.9186 C   0  0  1  0  0  0  0  0  0  0  0  0
   20.4551  -34.4583   -7.1652 C   0  0  0  0  0  0  0  0  0  0  0  0
   21.8989  -33.4669   -8.9256 C   0  0  2  0  0  0  0  0  0  0  0  0
   21.4186  -34.4745   -9.8961 N   0  0  0  0  0  0  0  0  0  0  0  0
   23.1566  -34.0069   -8.3632 C   0  0  0  0  0  0  0  0  0  0  0  0
   23.2646  -35.2563   -8.1526 O   0  0  0  0  0  0  0  0  0  0  0  0
   26.6409  -34.1545   -9.6126 C   0  0  0  0  0  0  0  0  0  0  0  0
   26.7212  -33.4445   -8.2631 C   0  0  1  0  0  0  0  0  0  0  0  0
   26.8900  -31.9838   -8.5204 C   0  0  0  0  0  0  0  0  0  0  0  0
   25.4896  -33.7622   -7.4295 C   0  0  2  0  0  0  0  0  0  0  0  0
   24.2923  -33.2377   -8.0259 N   0  0  0  0  0  0  0  0  0  0  0  0
   25.7305  -33.1846   -6.0722 C   0  0  0  0  0  0  0  0  0  0  0  0
   25.2915  -32.0516   -5.7449 O   0  0  0  0  0  0  0  0  0  0  0  0
   26.4740  -33.9198   -5.1093 N   0  0  0  0  0  0  0  0  0  0  0  0
   26.7937  -33.4341   -3.8059 C   0  0  0  0  0  0  0  0  0  0  0  0
   27.4830  -34.4756   -3.0116 C   0  0  0  0  0  0  0  0  0  0  0  0
   27.4742  -35.6553   -3.4361 O   0  0  0  0  0  0  0  0  0  0  0  0
   28.1405  -34.2199   -1.8198 O   0  0  0  0  0  0  0  0  0  0  0  0
  2  1  1  6
  3  2  1  0
  4  2  1  0
  4  5  1  6
  6  4  1  0
  7  6  2  0
  9  8  1  6
  9 11  1  0
 10  9  1  0
 11 13  1  0
 11 12  1  6
 12  6  1  0
 13 15  1  0
 14 13  2  0
 15 16  1  0
 17 16  1  0
 18 17  2  0
 19 17  1  0
M  END
$$$$
