VVG.pdb
     RDKit          3D

 19 18  0  0  1  0  0  0  0  0999 V2000
   26.9325  -10.3555  -15.3807 C   0  0  0  0  0  0  0  0  0  0  0  0
   26.5042  -11.4377  -16.3094 C   0  0  1  0  0  0  0  0  0  0  0  0
   27.3493  -12.6509  -16.1612 C   0  0  0  0  0  0  0  0  0  0  0  0
   25.0377  -11.7514  -16.2797 C   0  0  2  0  0  0  0  0  0  0  0  0
   24.7611  -12.7744  -17.3116 N   0  0  0  0  0  0  0  0  0  0  0  0
   24.1536  -10.6064  -16.5908 C   0  0  0  0  0  0  0  0  0  0  0  0
   24.1369  -10.1281  -17.7689 O   0  0  0  0  0  0  0  0  0  0  0  0
   20.7397  -10.3049  -17.0142 C   0  0  0  0  0  0  0  0  0  0  0  0
   20.9914   -9.1978  -15.9932 C   0  0  1  0  0  0  0  0  0  0  0  0
   20.4852   -9.6677  -14.6699 C   0  0  0  0  0  0  0  0  0  0  0  0
   22.4675   -8.8329  -15.9689 C   0  0  2  0  0  0  0  0  0  0  0  0
   23.2930   -9.9700  -15.6689 N   0  0  0  0  0  0  0  0  0  0  0  0
   22.6246   -7.7510  -14.9496 C   0  0  0  0  0  0  0  0  0  0  0  0
   22.6805   -8.0020  -13.7177 O   0  0  0  0  0  0  0  0  0  0  0  0
   22.7150   -6.3939  -15.3626 N   0  0  0  0  0  0  0  0  0  0  0  0
   22.8820   -5.2956  -14.4667 C   0  0  0  0  0  0  0  0  0  0  0  0
   21.5701   -4.7995  -13.9936 C   0  0  0  0  0  0  0  0  0  0  0  0
   20.5322   -5.3773  -14.3943 O   0  0  0  0  0  0  0  0  0  0  0  0
   21.4233   -3.7277  -13.1289 O   0  0  0  0  0  0  0  0  0  0  0  0
  2  1  1  1
  3  2  1  0
  4  2  1  0
  4  5  1  6
  6  4  1  0
  7  6  2  0
  9  8  1  6
  9 11  1  0
 10  9  1  0
 11 13  1  0
 11 12  1  1
 12  6  1  0
 13 15  1  0
 14 13  2  0
 15 16  1  0
 17 16  1  0
 18 17  2  0
 19 17  1  0
M  END
$$$$
