VVG.pdb
     RDKit          3D

 19 18  0  0  1  0  0  0  0  0999 V2000
   22.2231  -13.1996  -20.8649 C   0  0  0  0  0  0  0  0  0  0  0  0
   21.6288  -12.3052  -19.8333 C   0  0  1  0  0  0  0  0  0  0  0  0
   20.2314  -11.9319  -20.1737 C   0  0  0  0  0  0  0  0  0  0  0  0
   21.7663  -12.7916  -18.4211 C   0  0  2  0  0  0  0  0  0  0  0  0
   21.0012  -14.0503  -18.2874 N   0  0  0  0  0  0  0  0  0  0  0  0
   21.2258  -11.8727  -17.3949 C   0  0  0  0  0  0  0  0  0  0  0  0
   19.9918  -11.9256  -17.0922 O   0  0  0  0  0  0  0  0  0  0  0  0
   23.6674  -10.0805  -14.5459 C   0  0  0  0  0  0  0  0  0  0  0  0
   22.1562  -10.1899  -14.3565 C   0  0  1  0  0  0  0  0  0  0  0  0
   21.7436   -9.1720  -13.3456 C   0  0  0  0  0  0  0  0  0  0  0  0
   21.4471  -10.0223  -15.6914 C   0  0  2  0  0  0  0  0  0  0  0  0
   21.9785  -10.9059  -16.6920 N   0  0  0  0  0  0  0  0  0  0  0  0
   21.6020   -8.5878  -16.0815 C   0  0  0  0  0  0  0  0  0  0  0  0
   22.7057   -8.1183  -16.4621 O   0  0  0  0  0  0  0  0  0  0  0  0
   20.4831   -7.7126  -16.0280 N   0  0  0  0  0  0  0  0  0  0  0  0
   20.4918   -6.3737  -16.5222 C   0  0  0  0  0  0  0  0  0  0  0  0
   20.3023   -5.4053  -15.4190 C   0  0  0  0  0  0  0  0  0  0  0  0
   19.9154   -5.8343  -14.3064 O   0  0  0  0  0  0  0  0  0  0  0  0
   20.5293   -4.0451  -15.5467 O   0  0  0  0  0  0  0  0  0  0  0  0
  2  1  1  6
  3  2  1  0
  4  2  1  0
  4  5  1  6
  6  4  1  0
  7  6  2  0
  9  8  1  6
  9 11  1  0
 10  9  1  0
 11 13  1  0
 11 12  1  6
 12  6  1  0
 13 15  1  0
 14 13  2  0
 15 16  1  0
 17 16  1  0
 18 17  2  0
 19 17  1  0
M  END
$$$$
