QFK.pdb
     RDKit          3D

 30 30  0  0  1  0  0  0  0  0999 V2000
   13.1740  -17.9302   18.2916 N   0  0  0  0  0  0  0  0  0  0  0  0
   11.9126  -17.8967   17.6190 C   0  0  0  0  0  0  0  0  0  0  0  0
   11.8703  -18.3163   16.4396 O   0  0  0  0  0  0  0  0  0  0  0  0
   10.6888  -17.3922   18.2671 C   0  0  0  0  0  0  0  0  0  0  0  0
   10.8939  -16.9202   19.6772 C   0  0  0  0  0  0  0  0  0  0  0  0
    9.9231  -17.5016   20.6724 C   0  0  2  0  0  0  0  0  0  0  0  0
    8.6466  -17.6241   19.9871 N   0  0  0  0  0  0  0  0  0  0  0  0
    9.8234  -16.4938   21.7812 C   0  0  0  0  0  0  0  0  0  0  0  0
   10.8978  -16.0078   22.2172 O   0  0  0  0  0  0  0  0  0  0  0  0
    8.5446  -16.1030   22.3200 N   0  0  0  0  0  0  0  0  0  0  0  0
    8.5499  -15.2496   23.4619 C   0  0  1  0  0  0  0  0  0  0  0  0
    7.2354  -14.5962   23.7470 C   0  0  0  0  0  0  0  0  0  0  0  0
    7.1903  -13.7686   24.9395 C   0  0  0  0  0  0  0  0  0  0  0  0
    6.5950  -14.1317   26.1230 C   0  0  0  0  0  0  0  0  0  0  0  0
    6.6052  -13.2826   27.1895 C   0  0  0  0  0  0  0  0  0  0  0  0
    7.1994  -12.0338   27.1506 C   0  0  0  0  0  0  0  0  0  0  0  0
    7.8016  -11.6560   25.9669 C   0  0  0  0  0  0  0  0  0  0  0  0
    7.7975  -12.5117   24.8750 C   0  0  0  0  0  0  0  0  0  0  0  0
    8.8472  -16.1280   24.6537 C   0  0  0  0  0  0  0  0  0  0  0  0
    8.1479  -17.1525   24.8825 O   0  0  0  0  0  0  0  0  0  0  0  0
    9.9046  -15.8427   25.5478 N   0  0  0  0  0  0  0  0  0  0  0  0
   10.4555  -16.8428   26.4587 C   0  0  1  0  0  0  0  0  0  0  0  0
   11.9008  -17.0849   26.1817 C   0  0  0  0  0  0  0  0  0  0  0  0
   12.4424  -18.1352   27.1031 C   0  0  0  0  0  0  0  0  0  0  0  0
   13.8851  -18.5067   26.8110 C   0  0  0  0  0  0  0  0  0  0  0  0
   14.3587  -19.5367   27.8033 C   0  0  0  0  0  0  0  0  0  0  0  0
   14.5873  -20.7609   27.0084 N   0  0  0  0  0  0  0  0  0  0  0  0
   10.1473  -16.3944   27.8295 C   0  0  0  0  0  0  0  0  0  0  0  0
   10.1740  -17.2503   28.7895 O   0  0  0  0  0  0  0  0  0  0  0  0
    9.8228  -15.1056   28.2140 O   0  0  0  0  0  0  0  0  0  0  0  0
  1  2  1  0
  2  4  1  0
  3  2  2  0
  4  5  1  0
  6  5  1  0
  6  7  1  6
  8  6  1  0
  8  9  2  0
 10  8  1  0
 11 10  1  0
 11 12  1  1
 13 12  1  0
 13 18  2  0
 14 13  1  0
 15 14  2  0
 15 16  1  0
 16 17  2  0
 17 18  1  0
 19 11  1  0
 20 19  2  0
 21 19  1  0
 22 28  1  0
 22 21  1  0
 22 23  1  1
 24 25  1  0
 24 23  1  0
 26 25  1  0
 26 27  1  0
 28 30  1  0
 29 28  2  0
M  END
$$$$
