QFK.pdb
     RDKit          3D

 30 30  0  0  1  0  0  0  0  0999 V2000
    8.3384  -12.7382   16.3526 N   0  0  0  0  0  0  0  0  0  0  0  0
    7.7389  -14.0245   16.1774 C   0  0  0  0  0  0  0  0  0  0  0  0
    7.4168  -14.3636   15.0155 O   0  0  0  0  0  0  0  0  0  0  0  0
    7.4976  -14.9402   17.3069 C   0  0  0  0  0  0  0  0  0  0  0  0
    7.9859  -14.4225   18.6286 C   0  0  0  0  0  0  0  0  0  0  0  0
    8.7886  -15.4184   19.4255 C   0  0  2  0  0  0  0  0  0  0  0  0
    8.0230  -16.6544   19.4408 N   0  0  0  0  0  0  0  0  0  0  0  0
    8.8842  -14.8488   20.8117 C   0  0  0  0  0  0  0  0  0  0  0  0
    9.8435  -14.0723   21.0513 O   0  0  0  0  0  0  0  0  0  0  0  0
    7.9124  -15.1826   21.8229 N   0  0  0  0  0  0  0  0  0  0  0  0
    8.1045  -14.6280   23.1221 C   0  0  1  0  0  0  0  0  0  0  0  0
    6.8602  -14.0847   23.7486 C   0  0  0  0  0  0  0  0  0  0  0  0
    6.9979  -13.6164   25.1164 C   0  0  0  0  0  0  0  0  0  0  0  0
    6.6209  -14.3274   26.2296 C   0  0  0  0  0  0  0  0  0  0  0  0
    6.7911  -13.8002   27.4752 C   0  0  0  0  0  0  0  0  0  0  0  0
    7.3397  -12.5491   27.6937 C   0  0  0  0  0  0  0  0  0  0  0  0
    7.7232  -11.8235   26.5833 C   0  0  0  0  0  0  0  0  0  0  0  0
    7.5548  -12.3496   25.3107 C   0  0  0  0  0  0  0  0  0  0  0  0
    8.5592  -15.7614   24.0104 C   0  0  0  0  0  0  0  0  0  0  0  0
    7.9132  -16.8443   24.0454 O   0  0  0  0  0  0  0  0  0  0  0  0
    9.7092  -15.6571   24.8262 N   0  0  0  0  0  0  0  0  0  0  0  0
   10.3500  -16.8203   25.4342 C   0  0  1  0  0  0  0  0  0  0  0  0
   11.7941  -16.8917   25.0684 C   0  0  0  0  0  0  0  0  0  0  0  0
   12.4439  -18.0708   25.7263 C   0  0  0  0  0  0  0  0  0  0  0  0
   12.7587  -19.2006   24.7624 C   0  0  0  0  0  0  0  0  0  0  0  0
   13.3962  -20.3449   25.5067 C   0  0  0  0  0  0  0  0  0  0  0  0
   13.5741  -21.4093   24.4976 N   0  0  0  0  0  0  0  0  0  0  0  0
   10.0731  -16.7583   26.8815 C   0  0  0  0  0  0  0  0  0  0  0  0
    9.9139  -17.8541   27.5364 O   0  0  0  0  0  0  0  0  0  0  0  0
    9.9640  -15.6091   27.6440 O   0  0  0  0  0  0  0  0  0  0  0  0
  1  2  1  0
  2  4  1  0
  3  2  2  0
  4  5  1  0
  6  5  1  0
  6  7  1  1
  8  6  1  0
  8  9  2  0
 10  8  1  0
 11 10  1  0
 11 12  1  1
 13 12  1  0
 13 18  2  0
 14 13  1  0
 15 14  2  0
 15 16  1  0
 16 17  2  0
 17 18  1  0
 19 11  1  0
 20 19  2  0
 21 19  1  0
 22 28  1  0
 22 21  1  0
 22 23  1  1
 24 25  1  0
 24 23  1  0
 26 25  1  0
 26 27  1  0
 28 30  1  0
 29 28  2  0
M  END
$$$$
