QFK.pdb
     RDKit          3D

 30 30  0  0  1  0  0  0  0  0999 V2000
    6.4419  -19.0749   20.8857 N   0  0  0  0  0  0  0  0  0  0  0  0
    7.0386  -19.4993   19.6576 C   0  0  0  0  0  0  0  0  0  0  0  0
    6.3439  -20.1967   18.8830 O   0  0  0  0  0  0  0  0  0  0  0  0
    8.4205  -19.1422   19.2898 C   0  0  0  0  0  0  0  0  0  0  0  0
    9.0826  -18.1950   20.2477 C   0  0  0  0  0  0  0  0  0  0  0  0
    8.8894  -16.7387   19.9117 C   0  0  2  0  0  0  0  0  0  0  0  0
    9.9541  -16.3786   18.9894 N   0  0  0  0  0  0  0  0  0  0  0  0
    9.0507  -15.9966   21.2073 C   0  0  0  0  0  0  0  0  0  0  0  0
   10.2231  -15.7888   21.6109 O   0  0  0  0  0  0  0  0  0  0  0  0
    7.9038  -15.5431   21.9537 N   0  0  0  0  0  0  0  0  0  0  0  0
    8.1516  -14.8002   23.1450 C   0  0  1  0  0  0  0  0  0  0  0  0
    6.9930  -13.9759   23.6076 C   0  0  0  0  0  0  0  0  0  0  0  0
    7.1688  -13.3040   24.8831 C   0  0  0  0  0  0  0  0  0  0  0  0
    8.1204  -12.3473   25.1399 C   0  0  0  0  0  0  0  0  0  0  0  0
    8.2063  -11.7733   26.3734 C   0  0  0  0  0  0  0  0  0  0  0  0
    7.3638  -12.1077   27.4186 C   0  0  0  0  0  0  0  0  0  0  0  0
    6.4024  -13.0682   27.1742 C   0  0  0  0  0  0  0  0  0  0  0  0
    6.3056  -13.6593   25.9229 C   0  0  0  0  0  0  0  0  0  0  0  0
    8.4073  -15.8116   24.2369 C   0  0  0  0  0  0  0  0  0  0  0  0
    7.6461  -16.8077   24.3761 O   0  0  0  0  0  0  0  0  0  0  0  0
    9.4930  -15.6856   25.1338 N   0  0  0  0  0  0  0  0  0  0  0  0
   10.0471  -16.8237   25.8624 C   0  0  1  0  0  0  0  0  0  0  0  0
   11.4078  -17.1727   25.3615 C   0  0  0  0  0  0  0  0  0  0  0  0
   11.9428  -18.3693   26.0876 C   0  0  0  0  0  0  0  0  0  0  0  0
   13.3095  -18.8109   25.5957 C   0  0  0  0  0  0  0  0  0  0  0  0
   13.7572  -20.0312   26.3574 C   0  0  0  0  0  0  0  0  0  0  0  0
   14.9996  -20.4686   25.6882 N   0  0  0  0  0  0  0  0  0  0  0  0
    9.9740  -16.4940   27.2981 C   0  0  0  0  0  0  0  0  0  0  0  0
    9.5590  -17.3872   28.1257 O   0  0  0  0  0  0  0  0  0  0  0  0
   10.3178  -15.2856   27.8774 O   0  0  0  0  0  0  0  0  0  0  0  0
  1  2  1  0
  2  4  1  0
  3  2  2  0
  4  5  1  0
  6  5  1  0
  6  7  1  6
  8  6  1  0
  8  9  2  0
 10  8  1  0
 11 10  1  0
 11 12  1  1
 13 12  1  0
 13 18  2  0
 14 13  1  0
 15 14  2  0
 15 16  1  0
 16 17  2  0
 17 18  1  0
 19 11  1  0
 20 19  2  0
 21 19  1  0
 22 28  1  0
 22 21  1  0
 22 23  1  6
 24 25  1  0
 24 23  1  0
 26 25  1  0
 26 27  1  0
 28 30  1  0
 29 28  2  0
M  END
$$$$
