QFK.pdb
     RDKit          3D

 30 30  0  0  1  0  0  0  0  0999 V2000
   12.8006  -18.1954   20.2601 N   0  0  0  0  0  0  0  0  0  0  0  0
   11.9832  -19.2964   19.8547 C   0  0  0  0  0  0  0  0  0  0  0  0
   12.4625  -20.1033   19.0252 O   0  0  0  0  0  0  0  0  0  0  0  0
   10.6210  -19.4997   20.3795 C   0  0  0  0  0  0  0  0  0  0  0  0
   10.2369  -18.5425   21.4701 C   0  0  0  0  0  0  0  0  0  0  0  0
    9.2393  -17.4937   21.0507 C   0  0  2  0  0  0  0  0  0  0  0  0
    9.7323  -16.9226   19.8078 N   0  0  0  0  0  0  0  0  0  0  0  0
    9.2529  -16.4596   22.1396 C   0  0  0  0  0  0  0  0  0  0  0  0
   10.3488  -15.8940   22.3842 O   0  0  0  0  0  0  0  0  0  0  0  0
    8.0548  -16.1327   22.8716 N   0  0  0  0  0  0  0  0  0  0  0  0
    8.1634  -15.1475   23.8962 C   0  0  1  0  0  0  0  0  0  0  0  0
    6.8690  -14.4921   24.2585 C   0  0  0  0  0  0  0  0  0  0  0  0
    6.9210  -13.5785   25.3862 C   0  0  0  0  0  0  0  0  0  0  0  0
    6.3202  -13.7992   26.6015 C   0  0  0  0  0  0  0  0  0  0  0  0
    6.4265  -12.8784   27.6011 C   0  0  0  0  0  0  0  0  0  0  0  0
    7.1272  -11.6937   27.4607 C   0  0  0  0  0  0  0  0  0  0  0  0
    7.7362  -11.4591   26.2438 C   0  0  0  0  0  0  0  0  0  0  0  0
    7.6349  -12.3889   25.2193 C   0  0  0  0  0  0  0  0  0  0  0  0
    8.6286  -15.8690   25.1387 C   0  0  0  0  0  0  0  0  0  0  0  0
    8.0881  -16.9538   25.4877 O   0  0  0  0  0  0  0  0  0  0  0  0
    9.6725  -15.3660   25.9488 N   0  0  0  0  0  0  0  0  0  0  0  0
   10.3036  -16.1594   27.0003 C   0  0  1  0  0  0  0  0  0  0  0  0
   11.6946  -16.5433   26.6233 C   0  0  0  0  0  0  0  0  0  0  0  0
   11.7748  -18.0129   26.3417 C   0  0  0  0  0  0  0  0  0  0  0  0
   13.1605  -18.4713   25.9239 C   0  0  0  0  0  0  0  0  0  0  0  0
   13.1370  -19.9433   25.6037 C   0  0  0  0  0  0  0  0  0  0  0  0
   14.5288  -20.2806   25.2402 N   0  0  0  0  0  0  0  0  0  0  0  0
   10.1843  -15.3894   28.2525 C   0  0  0  0  0  0  0  0  0  0  0  0
   10.3581  -14.1151   28.2234 O   0  0  0  0  0  0  0  0  0  0  0  0
    9.8922  -15.9038   29.5031 O   0  0  0  0  0  0  0  0  0  0  0  0
  1  2  1  0
  2  4  1  0
  3  2  2  0
  4  5  1  0
  6  5  1  0
  6  7  1  6
  8  6  1  0
  8  9  2  0
 10  8  1  0
 11 10  1  0
 11 12  1  1
 13 12  1  0
 13 18  2  0
 14 13  1  0
 15 14  2  0
 15 16  1  0
 16 17  2  0
 17 18  1  0
 19 11  1  0
 20 19  2  0
 21 19  1  0
 22 28  1  0
 22 21  1  0
 22 23  1  6
 24 25  1  0
 24 23  1  0
 26 25  1  0
 26 27  1  0
 28 30  1  0
 29 28  2  0
M  END
$$$$
