QFK.pdb
     RDKit          3D

 30 30  0  0  1  0  0  0  0  0999 V2000
    8.6436  -21.2070   22.3443 N   0  0  0  0  0  0  0  0  0  0  0  0
    9.9574  -20.6578   22.4743 C   0  0  0  0  0  0  0  0  0  0  0  0
   10.9292  -21.4403   22.3643 O   0  0  0  0  0  0  0  0  0  0  0  0
   10.1891  -19.2245   22.7278 C   0  0  0  0  0  0  0  0  0  0  0  0
   10.6723  -18.4618   21.5285 C   0  0  0  0  0  0  0  0  0  0  0  0
    9.7341  -17.3774   21.0650 C   0  0  2  0  0  0  0  0  0  0  0  0
   10.3554  -16.7554   19.9069 N   0  0  0  0  0  0  0  0  0  0  0  0
    9.6515  -16.3974   22.1999 C   0  0  0  0  0  0  0  0  0  0  0  0
   10.7091  -15.7997   22.5239 O   0  0  0  0  0  0  0  0  0  0  0  0
    8.4071  -16.1557   22.8864 N   0  0  0  0  0  0  0  0  0  0  0  0
    8.3969  -15.1335   23.8800 C   0  0  1  0  0  0  0  0  0  0  0  0
    7.0507  -14.5320   24.1292 C   0  0  0  0  0  0  0  0  0  0  0  0
    6.9924  -13.5377   25.1861 C   0  0  0  0  0  0  0  0  0  0  0  0
    7.7582  -12.3983   25.2329 C   0  0  0  0  0  0  0  0  0  0  0  0
    7.6303  -11.5232   26.2703 C   0  0  0  0  0  0  0  0  0  0  0  0
    6.7451  -11.7200   27.3152 C   0  0  0  0  0  0  0  0  0  0  0  0
    5.9690  -12.8615   27.2808 C   0  0  0  0  0  0  0  0  0  0  0  0
    6.0905  -13.7592   26.2302 C   0  0  0  0  0  0  0  0  0  0  0  0
    8.8077  -15.7901   25.1765 C   0  0  0  0  0  0  0  0  0  0  0  0
    8.2157  -16.8269   25.5831 O   0  0  0  0  0  0  0  0  0  0  0  0
    9.8561  -15.2777   25.9749 N   0  0  0  0  0  0  0  0  0  0  0  0
   10.3172  -15.9447   27.1896 C   0  0  1  0  0  0  0  0  0  0  0  0
   11.7559  -16.3231   27.0828 C   0  0  0  0  0  0  0  0  0  0  0  0
   11.9356  -17.4241   26.0824 C   0  0  0  0  0  0  0  0  0  0  0  0
   13.3886  -17.8018   25.8569 C   0  0  0  0  0  0  0  0  0  0  0  0
   13.4767  -18.9115   24.8417 C   0  0  0  0  0  0  0  0  0  0  0  0
   14.9227  -19.1574   24.6644 N   0  0  0  0  0  0  0  0  0  0  0  0
    9.9852  -15.0589   28.3210 C   0  0  0  0  0  0  0  0  0  0  0  0
   10.2178  -15.4608   29.5207 O   0  0  0  0  0  0  0  0  0  0  0  0
    9.4327  -13.7936   28.2332 O   0  0  0  0  0  0  0  0  0  0  0  0
  1  2  1  0
  2  4  1  0
  3  2  2  0
  4  5  1  0
  6  5  1  0
  6  7  1  6
  8  6  1  0
  8  9  2  0
 10  8  1  0
 11 10  1  0
 11 12  1  1
 13 12  1  0
 13 18  2  0
 14 13  1  0
 15 14  2  0
 15 16  1  0
 16 17  2  0
 17 18  1  0
 19 11  1  0
 20 19  2  0
 21 19  1  0
 22 28  1  0
 22 21  1  0
 22 23  1  6
 24 25  1  0
 24 23  1  0
 26 25  1  0
 26 27  1  0
 28 30  1  0
 29 28  2  0
M  END
$$$$
