QFK.pdb
     RDKit          3D

 30 30  0  0  1  0  0  0  0  0999 V2000
   12.8005  -20.8537   17.7978 N   0  0  0  0  0  0  0  0  0  0  0  0
   12.0509  -20.2040   16.7681 C   0  0  0  0  0  0  0  0  0  0  0  0
   12.1526  -20.6519   15.6028 O   0  0  0  0  0  0  0  0  0  0  0  0
   11.1801  -19.0464   17.0402 C   0  0  0  0  0  0  0  0  0  0  0  0
   11.1406  -18.6372   18.4839 C   0  0  0  0  0  0  0  0  0  0  0  0
    9.7978  -18.1355   18.9489 C   0  0  2  0  0  0  0  0  0  0  0  0
    9.3192  -17.2176   17.9280 N   0  0  0  0  0  0  0  0  0  0  0  0
   10.0599  -17.3974   20.2302 C   0  0  0  0  0  0  0  0  0  0  0  0
   11.1114  -16.7113   20.2959 O   0  0  0  0  0  0  0  0  0  0  0  0
    9.1393  -17.4759   21.3369 N   0  0  0  0  0  0  0  0  0  0  0  0
    9.4074  -16.6526   22.4694 C   0  0  1  0  0  0  0  0  0  0  0  0
    8.3007  -15.7100   22.8199 C   0  0  0  0  0  0  0  0  0  0  0  0
    8.0388  -14.6600   21.8514 C   0  0  0  0  0  0  0  0  0  0  0  0
    8.8733  -13.5977   21.6028 C   0  0  0  0  0  0  0  0  0  0  0  0
    8.5384  -12.6604   20.6712 C   0  0  0  0  0  0  0  0  0  0  0  0
    7.3681  -12.7164   19.9354 C   0  0  0  0  0  0  0  0  0  0  0  0
    6.5199  -13.7793   20.1752 C   0  0  0  0  0  0  0  0  0  0  0  0
    6.8503  -14.7391   21.1208 C   0  0  0  0  0  0  0  0  0  0  0  0
    9.5550  -17.5816   23.6509 C   0  0  0  0  0  0  0  0  0  0  0  0
    8.6297  -18.3840   23.9521 O   0  0  0  0  0  0  0  0  0  0  0  0
   10.7179  -17.5898   24.4550 N   0  0  0  0  0  0  0  0  0  0  0  0
   10.9021  -18.5254   25.5613 C   0  0  1  0  0  0  0  0  0  0  0  0
   12.2821  -19.0914   25.5634 C   0  0  0  0  0  0  0  0  0  0  0  0
   12.5704  -19.7747   24.2613 C   0  0  0  0  0  0  0  0  0  0  0  0
   13.9927  -20.2951   24.1563 C   0  0  0  0  0  0  0  0  0  0  0  0
   14.1831  -21.0000   22.8385 C   0  0  0  0  0  0  0  0  0  0  0  0
   15.5637  -21.5247   22.8783 N   0  0  0  0  0  0  0  0  0  0  0  0
   10.5143  -17.8167   26.7951 C   0  0  0  0  0  0  0  0  0  0  0  0
   10.4111  -16.5346   26.7751 O   0  0  0  0  0  0  0  0  0  0  0  0
   10.2356  -18.3992   28.0187 O   0  0  0  0  0  0  0  0  0  0  0  0
  1  2  1  0
  2  4  1  0
  3  2  2  0
  4  5  1  0
  6  5  1  0
  6  7  1  6
  8  6  1  0
  8  9  2  0
 10  8  1  0
 11 10  1  0
 11 12  1  1
 13 12  1  0
 13 18  2  0
 14 13  1  0
 15 14  2  0
 15 16  1  0
 16 17  2  0
 17 18  1  0
 19 11  1  0
 20 19  2  0
 21 19  1  0
 22 28  1  0
 22 21  1  0
 22 23  1  1
 24 25  1  0
 24 23  1  0
 26 25  1  0
 26 27  1  0
 28 30  1  0
 29 28  2  0
M  END
$$$$
