QFK.pdb
     RDKit          3D

 30 30  0  0  1  0  0  0  0  0999 V2000
   11.4538  -15.5634   16.3217 N   0  0  0  0  0  0  0  0  0  0  0  0
   10.9628  -16.8150   16.8087 C   0  0  0  0  0  0  0  0  0  0  0  0
   11.5298  -17.8581   16.4096 O   0  0  0  0  0  0  0  0  0  0  0  0
    9.8314  -16.9038   17.7491 C   0  0  0  0  0  0  0  0  0  0  0  0
   10.1328  -16.3718   19.1200 C   0  0  0  0  0  0  0  0  0  0  0  0
    9.5638  -17.1987   20.2441 C   0  0  2  0  0  0  0  0  0  0  0  0
    8.2087  -17.5546   19.8555 N   0  0  0  0  0  0  0  0  0  0  0  0
    9.5405  -16.2951   21.4434 C   0  0  0  0  0  0  0  0  0  0  0  0
   10.6485  -15.9357   21.9164 O   0  0  0  0  0  0  0  0  0  0  0  0
    8.2948  -15.8606   22.0246 N   0  0  0  0  0  0  0  0  0  0  0  0
    8.3656  -15.0998   23.2281 C   0  0  1  0  0  0  0  0  0  0  0  0
    7.1137  -14.3508   23.5564 C   0  0  0  0  0  0  0  0  0  0  0  0
    7.1172  -13.6462   24.8262 C   0  0  0  0  0  0  0  0  0  0  0  0
    6.4578  -14.0647   25.9562 C   0  0  0  0  0  0  0  0  0  0  0  0
    6.5219  -13.3316   27.1038 C   0  0  0  0  0  0  0  0  0  0  0  0
    7.2357  -12.1506   27.2027 C   0  0  0  0  0  0  0  0  0  0  0  0
    7.9034  -11.7182   26.0740 C   0  0  0  0  0  0  0  0  0  0  0  0
    7.8455  -12.4559   24.9006 C   0  0  0  0  0  0  0  0  0  0  0  0
    8.5672  -16.0893   24.3510 C   0  0  0  0  0  0  0  0  0  0  0  0
    7.7882  -17.0723   24.4838 O   0  0  0  0  0  0  0  0  0  0  0  0
    9.6206  -15.9565   25.2846 N   0  0  0  0  0  0  0  0  0  0  0  0
   10.0642  -17.0605   26.1318 C   0  0  1  0  0  0  0  0  0  0  0  0
   11.2378  -17.7599   25.5337 C   0  0  0  0  0  0  0  0  0  0  0  0
   11.7030  -18.8654   26.4320 C   0  0  0  0  0  0  0  0  0  0  0  0
   12.9313  -19.5890   25.9101 C   0  0  0  0  0  0  0  0  0  0  0  0
   13.3054  -20.7049   26.8506 C   0  0  0  0  0  0  0  0  0  0  0  0
   14.5734  -21.2468   26.3202 N   0  0  0  0  0  0  0  0  0  0  0  0
   10.2858  -16.5072   27.4809 C   0  0  0  0  0  0  0  0  0  0  0  0
   10.6119  -15.2690   27.6044 O   0  0  0  0  0  0  0  0  0  0  0  0
   10.1753  -17.1970   28.6751 O   0  0  0  0  0  0  0  0  0  0  0  0
  1  2  1  0
  2  4  1  0
  3  2  2  0
  4  5  1  0
  6  5  1  0
  6  7  1  6
  8  6  1  0
  8  9  2  0
 10  8  1  0
 11 10  1  0
 11 12  1  1
 13 12  1  0
 13 18  2  0
 14 13  1  0
 15 14  2  0
 15 16  1  0
 16 17  2  0
 17 18  1  0
 19 11  1  0
 20 19  2  0
 21 19  1  0
 22 28  1  0
 22 21  1  0
 22 23  1  6
 24 25  1  0
 24 23  1  0
 26 25  1  0
 26 27  1  0
 28 30  1  0
 29 28  2  0
M  END
$$$$
