NKH.pdb
     RDKit          3D

 28 28  0  0  1  0  0  0  0  0999 V2000
   17.7936  -14.3771  -18.4125 N   0  0  0  0  0  0  0  0  0  0  0  0
   17.4379  -13.0709  -17.9500 C   0  0  0  0  0  0  0  0  0  0  0  0
   16.3087  -12.6500  -18.2595 O   0  0  0  0  0  0  0  0  0  0  0  0
   18.3899  -12.3058  -17.1553 C   0  0  0  0  0  0  0  0  0  0  0  0
   19.7006  -13.0267  -16.9972 C   0  0  2  0  0  0  0  0  0  0  0  0
   19.4892  -14.0325  -15.9211 N   0  0  0  0  0  0  0  0  0  0  0  0
   20.8019  -12.1783  -16.5232 C   0  0  0  0  0  0  0  0  0  0  0  0
   20.7383  -11.6053  -15.3779 O   0  0  0  0  0  0  0  0  0  0  0  0
   22.0045  -11.9287  -17.2685 N   0  0  0  0  0  0  0  0  0  0  0  0
   23.0050  -11.0300  -16.7543 C   0  0  1  0  0  0  0  0  0  0  0  0
   24.3269  -11.2480  -17.4496 C   0  0  0  0  0  0  0  0  0  0  0  0
   25.4293  -10.3976  -16.8691 C   0  0  0  0  0  0  0  0  0  0  0  0
   26.6758  -10.7052  -17.6778 C   0  0  0  0  0  0  0  0  0  0  0  0
   27.8677   -9.9234  -17.1719 C   0  0  0  0  0  0  0  0  0  0  0  0
   29.0457  -10.4456  -17.8314 N   0  0  0  0  0  0  0  0  0  0  0  0
   22.6022   -9.6338  -17.0012 C   0  0  0  0  0  0  0  0  0  0  0  0
   22.1488   -9.2200  -18.1076 O   0  0  0  0  0  0  0  0  0  0  0  0
   22.7362   -8.6936  -15.9160 N   0  0  0  0  0  0  0  0  0  0  0  0
   22.4079   -7.3244  -16.1265 C   0  0  1  0  0  0  0  0  0  0  0  0
   21.5050   -6.8922  -14.9909 C   0  0  0  0  0  0  0  0  0  0  0  0
   21.1247   -5.4781  -15.0341 C   0  0  0  0  0  0  0  0  0  0  0  0
   20.9026   -4.7634  -16.1990 C   0  0  0  0  0  0  0  0  0  0  0  0
   20.5722   -3.5039  -15.8590 N   0  0  0  0  0  0  0  0  0  0  0  0
   20.5830   -3.4150  -14.5154 C   0  0  0  0  0  0  0  0  0  0  0  0
   20.9181   -4.6131  -14.0254 N   0  0  0  0  0  0  0  0  0  0  0  0
   23.6318   -6.4980  -16.2012 C   0  0  0  0  0  0  0  0  0  0  0  0
   23.8330   -5.8216  -17.2361 O   0  0  0  0  0  0  0  0  0  0  0  0
   24.5706   -6.4295  -15.1879 O   0  0  0  0  0  0  0  0  0  0  0  0
  1  2  1  0
  2  3  2  0
  4  2  1  0
  4  5  1  0
  5  6  1  1
  7  8  2  0
  7  5  1  0
  9  7  1  0
 10  9  1  0
 10 11  1  6
 11 12  1  0
 13 12  1  0
 14 15  1  0
 14 13  1  0
 16 17  2  0
 16 10  1  0
 18 16  1  0
 19 18  1  0
 19 20  1  1
 20 21  1  0
 21 22  2  0
 21 25  1  0
 22 23  1  0
 24 23  1  0
 25 24  2  0
 26 19  1  0
 27 26  2  0
 28 26  1  0
M  END
$$$$
