NKH.pdb
     RDKit          3D

 28 28  0  0  1  0  0  0  0  0999 V2000
   15.8396  -17.0694  -15.9179 N   0  0  0  0  0  0  0  0  0  0  0  0
   16.8538  -16.3546  -16.6300 C   0  0  0  0  0  0  0  0  0  0  0  0
   16.8937  -16.5095  -17.8638 O   0  0  0  0  0  0  0  0  0  0  0  0
   17.7760  -15.4959  -15.8984 C   0  0  0  0  0  0  0  0  0  0  0  0
   18.8094  -14.8795  -16.8011 C   0  0  2  0  0  0  0  0  0  0  0  0
   19.7408  -15.9796  -17.1708 N   0  0  0  0  0  0  0  0  0  0  0  0
   19.6483  -13.8638  -16.1517 C   0  0  0  0  0  0  0  0  0  0  0  0
   19.3823  -13.4590  -14.9645 O   0  0  0  0  0  0  0  0  0  0  0  0
   20.8004  -13.2604  -16.7622 N   0  0  0  0  0  0  0  0  0  0  0  0
   21.5546  -12.2566  -16.0575 C   0  0  1  0  0  0  0  0  0  0  0  0
   23.0336  -12.4265  -16.3070 C   0  0  0  0  0  0  0  0  0  0  0  0
   23.6215  -13.5720  -15.5212 C   0  0  0  0  0  0  0  0  0  0  0  0
   25.1134  -13.5576  -15.7980 C   0  0  0  0  0  0  0  0  0  0  0  0
   25.8254  -14.6546  -15.0382 C   0  0  0  0  0  0  0  0  0  0  0  0
   27.2430  -14.5176  -15.2973 N   0  0  0  0  0  0  0  0  0  0  0  0
   21.1780  -10.9147  -16.5373 C   0  0  0  0  0  0  0  0  0  0  0  0
   21.0641  -10.6140  -17.7609 O   0  0  0  0  0  0  0  0  0  0  0  0
   20.9279   -9.8937  -15.5501 N   0  0  0  0  0  0  0  0  0  0  0  0
   20.6088   -8.5715  -15.9705 C   0  0  1  0  0  0  0  0  0  0  0  0
   19.8452   -7.9069  -14.8449 C   0  0  0  0  0  0  0  0  0  0  0  0
   19.4855   -6.5115  -15.1083 C   0  0  0  0  0  0  0  0  0  0  0  0
   20.3776   -5.5404  -15.5307 C   0  0  0  0  0  0  0  0  0  0  0  0
   19.7012   -4.3854  -15.6712 N   0  0  0  0  0  0  0  0  0  0  0  0
   18.4137   -4.6107  -15.3476 C   0  0  0  0  0  0  0  0  0  0  0  0
   18.2927   -5.8985  -15.0086 N   0  0  0  0  0  0  0  0  0  0  0  0
   21.8350   -7.8229  -16.3205 C   0  0  0  0  0  0  0  0  0  0  0  0
   22.8938   -8.0920  -15.7077 O   0  0  0  0  0  0  0  0  0  0  0  0
   21.8786   -6.8385  -17.2909 O   0  0  0  0  0  0  0  0  0  0  0  0
  1  2  1  0
  2  3  2  0
  4  2  1  0
  4  5  1  0
  5  6  1  1
  7  8  2  0
  7  5  1  0
  9  7  1  0
 10  9  1  0
 10 11  1  6
 11 12  1  0
 13 12  1  0
 14 15  1  0
 14 13  1  0
 16 17  2  0
 16 10  1  0
 18 16  1  0
 19 18  1  0
 19 20  1  1
 20 21  1  0
 21 22  2  0
 21 25  1  0
 22 23  1  0
 24 23  1  0
 25 24  2  0
 26 19  1  0
 27 26  2  0
 28 26  1  0
M  END
$$$$
