NKH.pdb
     RDKit          3D

 28 28  0  0  1  0  0  0  0  0999 V2000
   16.7859  -14.9717  -16.8823 N   0  0  0  0  0  0  0  0  0  0  0  0
   16.8370  -14.3217  -15.6089 C   0  0  0  0  0  0  0  0  0  0  0  0
   15.9226  -14.5799  -14.8057 O   0  0  0  0  0  0  0  0  0  0  0  0
   17.9311  -13.4060  -15.3128 C   0  0  0  0  0  0  0  0  0  0  0  0
   18.8694  -13.2526  -16.4783 C   0  0  2  0  0  0  0  0  0  0  0  0
   19.6807  -14.4994  -16.5196 N   0  0  0  0  0  0  0  0  0  0  0  0
   19.8424  -12.1625  -16.3296 C   0  0  0  0  0  0  0  0  0  0  0  0
   19.9169  -11.4986  -15.2351 O   0  0  0  0  0  0  0  0  0  0  0  0
   20.7656  -11.7615  -17.3547 N   0  0  0  0  0  0  0  0  0  0  0  0
   21.6104  -10.6114  -17.1629 C   0  0  1  0  0  0  0  0  0  0  0  0
   22.5906  -10.4726  -18.3023 C   0  0  0  0  0  0  0  0  0  0  0  0
   23.5615   -9.3377  -18.0907 C   0  0  0  0  0  0  0  0  0  0  0  0
   24.9342   -9.8795  -18.4440 C   0  0  0  0  0  0  0  0  0  0  0  0
   26.0193   -8.8698  -18.1428 C   0  0  0  0  0  0  0  0  0  0  0  0
   27.2714   -9.4170  -18.6208 N   0  0  0  0  0  0  0  0  0  0  0  0
   20.7926   -9.3854  -17.1332 C   0  0  0  0  0  0  0  0  0  0  0  0
   19.8332   -9.1631  -17.9274 O   0  0  0  0  0  0  0  0  0  0  0  0
   21.1112   -8.3889  -16.1407 N   0  0  0  0  0  0  0  0  0  0  0  0
   20.2943   -7.2291  -16.0205 C   0  0  1  0  0  0  0  0  0  0  0  0
   18.8864   -7.6928  -15.7131 C   0  0  0  0  0  0  0  0  0  0  0  0
   17.9636   -6.6108  -15.3616 C   0  0  0  0  0  0  0  0  0  0  0  0
   18.3117   -5.2716  -15.3115 C   0  0  0  0  0  0  0  0  0  0  0  0
   17.2194   -4.5696  -14.9575 N   0  0  0  0  0  0  0  0  0  0  0  0
   16.2018   -5.4346  -14.7856 C   0  0  0  0  0  0  0  0  0  0  0  0
   16.6610   -6.6661  -15.0318 N   0  0  0  0  0  0  0  0  0  0  0  0
   20.8173   -6.3266  -14.9724 C   0  0  0  0  0  0  0  0  0  0  0  0
   20.1851   -5.2750  -14.7204 O   0  0  0  0  0  0  0  0  0  0  0  0
   21.9700   -6.5799  -14.2514 O   0  0  0  0  0  0  0  0  0  0  0  0
  1  2  1  0
  2  3  2  0
  4  2  1  0
  4  5  1  0
  5  6  1  1
  7  8  2  0
  7  5  1  0
  9  7  1  0
 10  9  1  0
 10 11  1  6
 11 12  1  0
 13 12  1  0
 14 15  1  0
 14 13  1  0
 16 17  2  0
 16 10  1  0
 18 16  1  0
 19 18  1  0
 19 20  1  1
 20 21  1  0
 21 22  2  0
 21 25  1  0
 22 23  1  0
 24 23  1  0
 25 24  2  0
 26 19  1  0
 27 26  2  0
 28 26  1  0
M  END
$$$$
