NKH.pdb
     RDKit          3D

 28 28  0  0  1  0  0  0  0  0999 V2000
   13.7453  -14.1060  -14.2998 N   0  0  0  0  0  0  0  0  0  0  0  0
   14.7137  -13.9142  -15.3351 C   0  0  0  0  0  0  0  0  0  0  0  0
   14.5485  -14.5543  -16.3890 O   0  0  0  0  0  0  0  0  0  0  0  0
   15.8270  -12.9996  -15.1173 C   0  0  0  0  0  0  0  0  0  0  0  0
   17.0240  -13.3586  -15.9545 C   0  0  2  0  0  0  0  0  0  0  0  0
   17.5688  -14.6162  -15.3746 N   0  0  0  0  0  0  0  0  0  0  0  0
   18.1248  -12.3891  -15.8795 C   0  0  0  0  0  0  0  0  0  0  0  0
   18.3215  -11.7059  -14.8125 O   0  0  0  0  0  0  0  0  0  0  0  0
   19.0471  -12.1335  -16.9509 N   0  0  0  0  0  0  0  0  0  0  0  0
   20.1647  -11.2477  -16.7522 C   0  0  1  0  0  0  0  0  0  0  0  0
   21.1957  -11.4364  -17.8385 C   0  0  0  0  0  0  0  0  0  0  0  0
   21.8727  -12.7822  -17.7613 C   0  0  0  0  0  0  0  0  0  0  0  0
   22.8661  -12.8260  -18.9075 C   0  0  0  0  0  0  0  0  0  0  0  0
   23.4719  -14.2035  -19.0593 C   0  0  0  0  0  0  0  0  0  0  0  0
   24.4034  -14.1526  -20.1662 N   0  0  0  0  0  0  0  0  0  0  0  0
   19.7130   -9.8459  -16.8120 C   0  0  0  0  0  0  0  0  0  0  0  0
   18.8068   -9.4340  -17.5930 O   0  0  0  0  0  0  0  0  0  0  0  0
   20.3448   -8.8978  -15.9280 N   0  0  0  0  0  0  0  0  0  0  0  0
   19.9730   -7.5248  -15.9868 C   0  0  1  0  0  0  0  0  0  0  0  0
   18.4828   -7.4447  -15.7324 C   0  0  0  0  0  0  0  0  0  0  0  0
   17.9713   -6.0784  -15.5995 C   0  0  0  0  0  0  0  0  0  0  0  0
   18.2290   -5.0563  -16.4973 C   0  0  0  0  0  0  0  0  0  0  0  0
   17.6011   -3.9491  -16.0604 N   0  0  0  0  0  0  0  0  0  0  0  0
   16.9604   -4.2537  -14.9158 C   0  0  0  0  0  0  0  0  0  0  0  0
   17.1900   -5.5429  -14.6450 N   0  0  0  0  0  0  0  0  0  0  0  0
   20.7422   -6.7316  -15.0042 C   0  0  0  0  0  0  0  0  0  0  0  0
   20.5207   -5.5011  -14.9260 O   0  0  0  0  0  0  0  0  0  0  0  0
   21.6962   -7.2744  -14.1628 O   0  0  0  0  0  0  0  0  0  0  0  0
  1  2  1  0
  2  3  2  0
  4  2  1  0
  4  5  1  0
  5  6  1  1
  7  8  2  0
  7  5  1  0
  9  7  1  0
 10  9  1  0
 10 11  1  6
 11 12  1  0
 13 12  1  0
 14 15  1  0
 14 13  1  0
 16 17  2  0
 16 10  1  0
 18 16  1  0
 19 18  1  0
 19 20  1  1
 20 21  1  0
 21 22  2  0
 21 25  1  0
 22 23  1  0
 24 23  1  0
 25 24  2  0
 26 19  1  0
 27 26  2  0
 28 26  1  0
M  END
$$$$
