NKH.pdb
     RDKit          3D

 28 28  0  0  1  0  0  0  0  0999 V2000
   22.9311  -13.8360  -17.2183 N   0  0  0  0  0  0  0  0  0  0  0  0
   23.5997  -12.6267  -16.8478 C   0  0  0  0  0  0  0  0  0  0  0  0
   24.7648  -12.7322  -16.4245 O   0  0  0  0  0  0  0  0  0  0  0  0
   22.9049  -11.3525  -16.9780 C   0  0  0  0  0  0  0  0  0  0  0  0
   21.5037  -11.5245  -17.4970 C   0  0  2  0  0  0  0  0  0  0  0  0
   21.6314  -11.7275  -18.9656 N   0  0  0  0  0  0  0  0  0  0  0  0
   20.6536  -10.3367  -17.3429 C   0  0  0  0  0  0  0  0  0  0  0  0
   20.8007   -9.3239  -18.1153 O   0  0  0  0  0  0  0  0  0  0  0  0
   19.6179  -10.2101  -16.3553 N   0  0  0  0  0  0  0  0  0  0  0  0
   18.8107   -9.0193  -16.2969 C   0  0  1  0  0  0  0  0  0  0  0  0
   17.5510   -9.2662  -15.5028 C   0  0  0  0  0  0  0  0  0  0  0  0
   16.5756  -10.1552  -16.2333 C   0  0  0  0  0  0  0  0  0  0  0  0
   15.3571  -10.2779  -15.3373 C   0  0  0  0  0  0  0  0  0  0  0  0
   14.2325  -11.0111  -16.0340 C   0  0  0  0  0  0  0  0  0  0  0  0
   13.1408  -11.1353  -15.0914 N   0  0  0  0  0  0  0  0  0  0  0  0
   19.5534   -7.9403  -15.6211 C   0  0  0  0  0  0  0  0  0  0  0  0
   20.4236   -8.1425  -14.7252 O   0  0  0  0  0  0  0  0  0  0  0  0
   19.2654   -6.5814  -16.0083 N   0  0  0  0  0  0  0  0  0  0  0  0
   19.9660   -5.5090  -15.3868 C   0  0  1  0  0  0  0  0  0  0  0  0
   21.2889   -5.3512  -16.1058 C   0  0  0  0  0  0  0  0  0  0  0  0
   22.0418   -4.1562  -15.7175 C   0  0  0  0  0  0  0  0  0  0  0  0
   23.2193   -4.1762  -14.9892 C   0  0  0  0  0  0  0  0  0  0  0  0
   23.6272   -2.9049  -14.8207 N   0  0  0  0  0  0  0  0  0  0  0  0
   22.7363   -2.0946  -15.4233 C   0  0  0  0  0  0  0  0  0  0  0  0
   21.7815   -2.8598  -15.9625 N   0  0  0  0  0  0  0  0  0  0  0  0
   19.1655   -4.2665  -15.4289 C   0  0  0  0  0  0  0  0  0  0  0  0
   18.1315   -4.2463  -16.1357 O   0  0  0  0  0  0  0  0  0  0  0  0
   19.4956   -3.1207  -14.7282 O   0  0  0  0  0  0  0  0  0  0  0  0
  1  2  1  0
  2  3  2  0
  4  2  1  0
  4  5  1  0
  5  6  1  6
  7  8  2  0
  7  5  1  0
  9  7  1  0
 10  9  1  0
 10 11  1  1
 11 12  1  0
 13 12  1  0
 14 15  1  0
 14 13  1  0
 16 17  2  0
 16 10  1  0
 18 16  1  0
 19 18  1  0
 19 20  1  6
 20 21  1  0
 21 22  2  0
 21 25  1  0
 22 23  1  0
 24 23  1  0
 25 24  2  0
 26 19  1  0
 27 26  2  0
 28 26  1  0
M  END
$$$$
