NKH.pdb
     RDKit          3D

 28 28  0  0  1  0  0  0  0  0999 V2000
   20.2403  -16.1478  -15.3961 N   0  0  0  0  0  0  0  0  0  0  0  0
   20.5299  -16.0806  -16.7954 C   0  0  0  0  0  0  0  0  0  0  0  0
   20.9204  -17.1276  -17.3425 O   0  0  0  0  0  0  0  0  0  0  0  0
   20.3602  -14.8192  -17.5047 C   0  0  0  0  0  0  0  0  0  0  0  0
   19.8317  -13.7340  -16.6072 C   0  0  2  0  0  0  0  0  0  0  0  0
   18.3786  -14.0090  -16.4416 N   0  0  0  0  0  0  0  0  0  0  0  0
   19.9072  -12.3851  -17.1833 C   0  0  0  0  0  0  0  0  0  0  0  0
   21.0271  -11.9099  -17.5883 O   0  0  0  0  0  0  0  0  0  0  0  0
   18.7765  -11.5133  -17.3436 N   0  0  0  0  0  0  0  0  0  0  0  0
   18.9369  -10.2200  -17.9557 C   0  0  1  0  0  0  0  0  0  0  0  0
   17.6687   -9.8011  -18.6592 C   0  0  0  0  0  0  0  0  0  0  0  0
   17.3392  -10.6928  -19.8304 C   0  0  0  0  0  0  0  0  0  0  0  0
   16.0217  -10.1906  -20.3912 C   0  0  0  0  0  0  0  0  0  0  0  0
   15.5656  -11.0311  -21.5630 C   0  0  0  0  0  0  0  0  0  0  0  0
   14.2944  -10.5035  -22.0116 N   0  0  0  0  0  0  0  0  0  0  0  0
   19.2240   -9.2069  -16.9243 C   0  0  0  0  0  0  0  0  0  0  0  0
   18.8398   -9.3014  -15.7225 O   0  0  0  0  0  0  0  0  0  0  0  0
   19.9853   -8.0464  -17.3156 N   0  0  0  0  0  0  0  0  0  0  0  0
   20.2479   -7.0226  -16.3617 C   0  0  1  0  0  0  0  0  0  0  0  0
   21.6448   -6.5018  -16.6247 C   0  0  0  0  0  0  0  0  0  0  0  0
   22.0022   -5.3221  -15.8332 C   0  0  0  0  0  0  0  0  0  0  0  0
   22.2371   -4.0654  -16.3650 C   0  0  0  0  0  0  0  0  0  0  0  0
   22.5360   -3.2326  -15.3511 N   0  0  0  0  0  0  0  0  0  0  0  0
   22.4941   -3.9360  -14.2036 C   0  0  0  0  0  0  0  0  0  0  0  0
   22.1707   -5.1980  -14.5048 N   0  0  0  0  0  0  0  0  0  0  0  0
   19.2346   -5.9497  -16.4529 C   0  0  0  0  0  0  0  0  0  0  0  0
   18.6419   -5.7795  -17.5433 O   0  0  0  0  0  0  0  0  0  0  0  0
   18.9028   -5.1202  -15.3972 O   0  0  0  0  0  0  0  0  0  0  0  0
  1  2  1  0
  2  3  2  0
  4  2  1  0
  4  5  1  0
  5  6  1  6
  7  8  2  0
  7  5  1  0
  9  7  1  0
 10  9  1  0
 10 11  1  1
 11 12  1  0
 13 12  1  0
 14 15  1  0
 14 13  1  0
 16 17  2  0
 16 10  1  0
 18 16  1  0
 19 18  1  0
 19 20  1  6
 20 21  1  0
 21 22  2  0
 21 25  1  0
 22 23  1  0
 24 23  1  0
 25 24  2  0
 26 19  1  0
 27 26  2  0
 28 26  1  0
M  END
$$$$
