NKH.pdb
     RDKit          3D

 28 28  0  0  1  0  0  0  0  0999 V2000
   11.6337  -11.1934  -13.7288 N   0  0  0  0  0  0  0  0  0  0  0  0
   12.4632  -12.3468  -13.5610 C   0  0  0  0  0  0  0  0  0  0  0  0
   11.9335  -13.3560  -13.0623 O   0  0  0  0  0  0  0  0  0  0  0  0
   13.8606  -12.2928  -13.9705 C   0  0  0  0  0  0  0  0  0  0  0  0
   14.2511  -10.9270  -14.4649 C   0  0  2  0  0  0  0  0  0  0  0  0
   13.6200  -10.7788  -15.8044 N   0  0  0  0  0  0  0  0  0  0  0  0
   15.6919  -10.7583  -14.6951 C   0  0  0  0  0  0  0  0  0  0  0  0
   16.5299  -10.9274  -13.7395 O   0  0  0  0  0  0  0  0  0  0  0  0
   16.2694  -10.4081  -15.9631 N   0  0  0  0  0  0  0  0  0  0  0  0
   17.6995  -10.3498  -16.1193 C   0  0  1  0  0  0  0  0  0  0  0  0
   18.1194  -10.9692  -17.4302 C   0  0  0  0  0  0  0  0  0  0  0  0
   18.2015  -12.4735  -17.3553 C   0  0  0  0  0  0  0  0  0  0  0  0
   18.5488  -12.9516  -18.7530 C   0  0  0  0  0  0  0  0  0  0  0  0
   18.6567  -14.4592  -18.8086 C   0  0  0  0  0  0  0  0  0  0  0  0
   18.9511  -14.8268  -20.1775 N   0  0  0  0  0  0  0  0  0  0  0  0
   18.1478   -8.9456  -16.1316 C   0  0  0  0  0  0  0  0  0  0  0  0
   17.4498   -7.9907  -16.5806 O   0  0  0  0  0  0  0  0  0  0  0  0
   19.4564   -8.6532  -15.6011 N   0  0  0  0  0  0  0  0  0  0  0  0
   19.9853   -7.3366  -15.7186 C   0  0  1  0  0  0  0  0  0  0  0  0
   20.8547   -7.0845  -14.5052 C   0  0  0  0  0  0  0  0  0  0  0  0
   21.5859   -5.8158  -14.5465 C   0  0  0  0  0  0  0  0  0  0  0  0
   20.9865   -4.5701  -14.6266 C   0  0  0  0  0  0  0  0  0  0  0  0
   21.9587   -3.6397  -14.6422 N   0  0  0  0  0  0  0  0  0  0  0  0
   23.1459   -4.2716  -14.5746 C   0  0  0  0  0  0  0  0  0  0  0  0
   22.9107   -5.5866  -14.5172 N   0  0  0  0  0  0  0  0  0  0  0  0
   20.7437   -7.1876  -16.9792 C   0  0  0  0  0  0  0  0  0  0  0  0
   21.3046   -8.1985  -17.4613 O   0  0  0  0  0  0  0  0  0  0  0  0
   20.8686   -5.9895  -17.6588 O   0  0  0  0  0  0  0  0  0  0  0  0
  1  2  1  0
  2  3  2  0
  4  2  1  0
  4  5  1  0
  5  6  1  6
  7  8  2  0
  7  5  1  0
  9  7  1  0
 10  9  1  0
 10 11  1  6
 11 12  1  0
 13 12  1  0
 14 15  1  0
 14 13  1  0
 16 17  2  0
 16 10  1  0
 18 16  1  0
 19 18  1  0
 19 20  1  1
 20 21  1  0
 21 22  2  0
 21 25  1  0
 22 23  1  0
 24 23  1  0
 25 24  2  0
 26 19  1  0
 27 26  2  0
 28 26  1  0
M  END
$$$$
