NKH.pdb
     RDKit          3D

 28 28  0  0  1  0  0  0  0  0999 V2000
   27.3057  -22.9488  -16.8164 N   0  0  0  0  0  0  0  0  0  0  0  0
   27.7362  -21.8196  -16.0510 C   0  0  0  0  0  0  0  0  0  0  0  0
   28.8769  -21.8734  -15.5572 O   0  0  0  0  0  0  0  0  0  0  0  0
   26.8424  -20.6808  -15.8850 C   0  0  0  0  0  0  0  0  0  0  0  0
   25.4466  -20.9861  -16.3551 C   0  0  2  0  0  0  0  0  0  0  0  0
   25.5234  -21.0774  -17.8384 N   0  0  0  0  0  0  0  0  0  0  0  0
   24.4723  -19.9213  -16.0828 C   0  0  0  0  0  0  0  0  0  0  0  0
   24.1341  -19.6382  -14.8788 O   0  0  0  0  0  0  0  0  0  0  0  0
   23.8399  -19.1287  -17.1005 N   0  0  0  0  0  0  0  0  0  0  0  0
   22.9188  -18.0826  -16.7396 C   0  0  1  0  0  0  0  0  0  0  0  0
   22.9588  -16.9631  -17.7512 C   0  0  0  0  0  0  0  0  0  0  0  0
   24.2579  -16.1975  -17.7108 C   0  0  0  0  0  0  0  0  0  0  0  0
   24.1855  -15.1754  -18.8300 C   0  0  0  0  0  0  0  0  0  0  0  0
   25.4284  -14.3145  -18.8712 C   0  0  0  0  0  0  0  0  0  0  0  0
   25.2694  -13.3677  -19.9547 N   0  0  0  0  0  0  0  0  0  0  0  0
   21.5421  -18.6090  -16.7190 C   0  0  0  0  0  0  0  0  0  0  0  0
   21.0668  -19.3644  -17.6158 O   0  0  0  0  0  0  0  0  0  0  0  0
   20.6967  -18.2368  -15.6116 N   0  0  0  0  0  0  0  0  0  0  0  0
   19.3268  -18.6242  -15.6108 C   0  0  1  0  0  0  0  0  0  0  0  0
   19.1108  -19.5336  -14.4200 C   0  0  0  0  0  0  0  0  0  0  0  0
   17.7191  -19.9498  -14.2299 C   0  0  0  0  0  0  0  0  0  0  0  0
   16.6550  -19.4897  -14.9870 C   0  0  0  0  0  0  0  0  0  0  0  0
   15.5347  -20.0836  -14.5362 N   0  0  0  0  0  0  0  0  0  0  0  0
   15.8720  -20.8997  -13.5195 C   0  0  0  0  0  0  0  0  0  0  0  0
   17.1943  -20.8122  -13.3415 N   0  0  0  0  0  0  0  0  0  0  0  0
   18.4469  -17.4368  -15.5629 C   0  0  0  0  0  0  0  0  0  0  0  0
   17.2101  -17.6058  -15.6676 O   0  0  0  0  0  0  0  0  0  0  0  0
   18.9149  -16.1446  -15.4081 O   0  0  0  0  0  0  0  0  0  0  0  0
  1  2  1  0
  2  3  2  0
  4  2  1  0
  4  5  1  0
  5  6  1  6
  7  8  2  0
  7  5  1  0
  9  7  1  0
 10  9  1  0
 10 11  1  6
 11 12  1  0
 13 12  1  0
 14 15  1  0
 14 13  1  0
 16 17  2  0
 16 10  1  0
 18 16  1  0
 19 18  1  0
 19 20  1  1
 20 21  1  0
 21 22  2  0
 21 25  1  0
 22 23  1  0
 24 23  1  0
 25 24  2  0
 26 19  1  0
 27 26  2  0
 28 26  1  0
M  END
$$$$
