NRE.pdb
     RDKit          3D

 29 28  0  0  1  0  0  0  0  0999 V2000
   15.7007  -18.7001   15.1982 N   0  0  0  0  0  0  0  0  0  0  0  0
   14.3047  -18.4533   15.2717 C   0  0  0  0  0  0  0  0  0  0  0  0
   13.5358  -18.8919   14.4072 O   0  0  0  0  0  0  0  0  0  0  0  0
   13.7736  -17.6587   16.4032 C   0  0  0  0  0  0  0  0  0  0  0  0
   12.9835  -18.5403   17.3210 C   0  0  2  0  0  0  0  0  0  0  0  0
   11.7565  -18.9074   16.6365 N   0  0  0  0  0  0  0  0  0  0  0  0
   12.6377  -17.7772   18.5705 C   0  0  0  0  0  0  0  0  0  0  0  0
   13.5353  -17.3552   19.3442 O   0  0  0  0  0  0  0  0  0  0  0  0
    7.3942  -12.7501   16.3943 N   0  0  0  0  0  0  0  0  0  0  0  0
    7.6127  -13.4019   17.6382 C   0  0  0  0  0  0  0  0  0  0  0  0
    8.2569  -12.7749   18.5697 N   0  0  0  0  0  0  0  0  0  0  0  0
    7.1612  -14.7106   17.9179 N   0  0  0  0  0  0  0  0  0  0  0  0
    7.6637  -15.4545   19.0354 C   0  0  0  0  0  0  0  0  0  0  0  0
    9.1838  -15.4771   19.0709 C   0  0  0  0  0  0  0  0  0  0  0  0
    9.5383  -16.5002   20.1179 C   0  0  0  0  0  0  0  0  0  0  0  0
   11.0069  -16.8271   20.2043 C   0  0  2  0  0  0  0  0  0  0  0  0
   11.2999  -17.5020   18.9290 N   0  0  0  0  0  0  0  0  0  0  0  0
   11.2533  -17.7292   21.3404 C   0  0  0  0  0  0  0  0  0  0  0  0
   11.4176  -18.9543   21.2273 O   0  0  0  0  0  0  0  0  0  0  0  0
    8.4751  -13.2312   19.4779 N   0  0  0  0  0  0  0  0  0  0  0  0
   11.3140  -17.2054   22.6642 C   0  0  2  0  0  0  0  0  0  0  0  0
   11.9254  -17.9736   23.7678 C   0  0  0  0  0  0  0  0  0  0  0  0
   13.3322  -18.2423   23.3178 C   0  0  0  0  0  0  0  0  0  0  0  0
   14.2044  -18.9380   24.2930 C   0  0  0  0  0  0  0  0  0  0  0  0
   15.5658  -19.1863   23.7900 O   0  0  0  0  0  0  0  0  0  0  0  0
   15.8707  -19.1508   22.5789 C   0  0  0  0  0  0  0  0  0  0  0  0
   11.8627  -17.1336   24.9746 O   0  0  0  0  0  0  0  0  0  0  0  0
   11.3637  -15.8445   24.9443 O   0  0  0  0  0  0  0  0  0  0  0  0
   16.6013  -19.4807   24.6784 O   0  0  0  0  0  0  0  0  0  0  0  0
  2  1  1  0
  2  3  2  0
  4  5  1  0
  4  2  1  0
  5  7  1  0
  5  6  1  6
  7  8  2  0
 10  9  1  0
 11 10  2  0
 12 10  1  0
 13 14  1  0
 13 12  1  0
 16 15  1  6
 15 14  1  0
 16 17  1  0
 17  7  1  0
 18 19  2  0
 18 16  1  0
 20 18  1  0
 21 22  1  6
 21 20  1  0
 22 23  1  0
 23 24  1  0
 24 25  2  0
 26 21  1  0
 27 26  1  0
 28 24  1  0
 29 26  2  0
M  END
$$$$
