NRE.pdb
     RDKit          3D

 29 28  0  0  1  0  0  0  0  0999 V2000
   15.9185  -14.6756   13.4158 N   0  0  0  0  0  0  0  0  0  0  0  0
   14.9254  -15.2686   14.2388 C   0  0  0  0  0  0  0  0  0  0  0  0
   14.4044  -16.3471   13.9285 O   0  0  0  0  0  0  0  0  0  0  0  0
   14.5162  -14.5772   15.4831 C   0  0  0  0  0  0  0  0  0  0  0  0
   14.7679  -15.4613   16.6658 C   0  0  2  0  0  0  0  0  0  0  0  0
   13.9604  -16.6577   16.5056 N   0  0  0  0  0  0  0  0  0  0  0  0
   14.3433  -14.7484   17.9208 C   0  0  0  0  0  0  0  0  0  0  0  0
   14.8253  -13.6275   18.2267 O   0  0  0  0  0  0  0  0  0  0  0  0
    7.1517  -12.5239   19.8083 N   0  0  0  0  0  0  0  0  0  0  0  0
    7.5233  -12.9611   18.5080 C   0  0  0  0  0  0  0  0  0  0  0  0
    6.9406  -12.4341   17.4791 N   0  0  0  0  0  0  0  0  0  0  0  0
    8.5040  -13.9500   18.2731 N   0  0  0  0  0  0  0  0  0  0  0  0
    9.3664  -14.4145   19.3197 C   0  0  0  0  0  0  0  0  0  0  0  0
   10.8334  -14.1699   19.0031 C   0  0  0  0  0  0  0  0  0  0  0  0
   11.5879  -14.7091   20.1900 C   0  0  0  0  0  0  0  0  0  0  0  0
   13.0877  -14.6187   20.0744 C   0  0  2  0  0  0  0  0  0  0  0  0
   13.3915  -15.3009   18.8056 N   0  0  0  0  0  0  0  0  0  0  0  0
   13.7202  -15.3154   21.2056 C   0  0  0  0  0  0  0  0  0  0  0  0
   13.9504  -16.5349   21.2249 O   0  0  0  0  0  0  0  0  0  0  0  0
    7.1410  -12.7661   16.5148 N   0  0  0  0  0  0  0  0  0  0  0  0
   14.1059  -14.5834   22.3658 C   0  0  1  0  0  0  0  0  0  0  0  0
   14.4318  -15.2678   23.6335 C   0  0  0  0  0  0  0  0  0  0  0  0
   13.2570  -16.1631   23.9020 C   0  0  0  0  0  0  0  0  0  0  0  0
   13.3806  -17.0638   25.0721 C   0  0  0  0  0  0  0  0  0  0  0  0
   12.2306  -17.9677   25.2410 O   0  0  0  0  0  0  0  0  0  0  0  0
   11.3303  -18.1056   24.3858 C   0  0  0  0  0  0  0  0  0  0  0  0
   15.6818  -16.0149   23.4201 O   0  0  0  0  0  0  0  0  0  0  0  0
   15.9971  -16.5808   22.1987 O   0  0  0  0  0  0  0  0  0  0  0  0
   12.0995  -18.7299   26.4029 O   0  0  0  0  0  0  0  0  0  0  0  0
  2  1  1  0
  2  3  2  0
  4  5  1  0
  4  2  1  0
  5  7  1  0
  5  6  1  6
  7  8  2  0
 10  9  1  0
 11 10  2  0
 12 10  1  0
 13 14  1  0
 13 12  1  0
 16 15  1  1
 15 14  1  0
 16 17  1  0
 17  7  1  0
 18 19  2  0
 18 16  1  0
 20 18  1  0
 21 22  1  1
 21 20  1  0
 22 23  1  0
 23 24  1  0
 24 25  2  0
 26 21  1  0
 27 26  1  0
 28 24  1  0
 29 26  2  0
M  END
$$$$
