NRE.pdb
     RDKit          3D

 29 28  0  0  1  0  0  0  0  0999 V2000
   16.1477  -15.4311   19.1483 N   0  0  0  0  0  0  0  0  0  0  0  0
   15.4254  -14.2572   18.8083 C   0  0  0  0  0  0  0  0  0  0  0  0
   16.0105  -13.2501   18.3907 O   0  0  0  0  0  0  0  0  0  0  0  0
   13.9521  -14.2504   18.9598 C   0  0  0  0  0  0  0  0  0  0  0  0
   13.4845  -15.5780   19.4725 C   0  0  2  0  0  0  0  0  0  0  0  0
   12.6589  -16.1853   18.4438 N   0  0  0  0  0  0  0  0  0  0  0  0
   12.6528  -15.3704   20.7088 C   0  0  0  0  0  0  0  0  0  0  0  0
   13.1758  -14.9920   21.7885 O   0  0  0  0  0  0  0  0  0  0  0  0
    8.4182  -14.5002   17.2927 N   0  0  0  0  0  0  0  0  0  0  0  0
    7.8108  -13.2810   17.6984 C   0  0  0  0  0  0  0  0  0  0  0  0
    7.7551  -12.2982   16.8576 N   0  0  0  0  0  0  0  0  0  0  0  0
    7.2584  -13.0794   18.9826 N   0  0  0  0  0  0  0  0  0  0  0  0
    7.5051  -13.9954   20.0573 C   0  0  0  0  0  0  0  0  0  0  0  0
    8.9630  -13.9910   20.4896 C   0  0  0  0  0  0  0  0  0  0  0  0
    9.0849  -15.1228   21.4759 C   0  0  0  0  0  0  0  0  0  0  0  0
   10.4889  -15.3910   21.9533 C   0  0  2  0  0  0  0  0  0  0  0  0
   11.2578  -15.5892   20.7134 N   0  0  0  0  0  0  0  0  0  0  0  0
   10.5127  -16.6069   22.7817 C   0  0  0  0  0  0  0  0  0  0  0  0
   10.4147  -17.7567   22.3246 O   0  0  0  0  0  0  0  0  0  0  0  0
    7.3739  -11.3713   17.1332 N   0  0  0  0  0  0  0  0  0  0  0  0
   10.6546  -16.5014   24.1957 C   0  0  2  0  0  0  0  0  0  0  0  0
   10.6801  -17.7008   25.0574 C   0  0  0  0  0  0  0  0  0  0  0  0
   11.2039  -17.2160   26.3782 C   0  0  0  0  0  0  0  0  0  0  0  0
   11.2615  -18.2233   27.4634 C   0  0  0  0  0  0  0  0  0  0  0  0
   11.8903  -17.7219   28.6968 O   0  0  0  0  0  0  0  0  0  0  0  0
   11.2958  -17.0097   29.5336 C   0  0  0  0  0  0  0  0  0  0  0  0
    9.3018  -18.2098   25.1420 O   0  0  0  0  0  0  0  0  0  0  0  0
    9.0266  -19.5337   25.4299 O   0  0  0  0  0  0  0  0  0  0  0  0
   13.2195  -18.0345   28.9863 O   0  0  0  0  0  0  0  0  0  0  0  0
  2  1  1  0
  2  3  2  0
  4  5  1  0
  4  2  1  0
  5  7  1  0
  5  6  1  6
  7  8  2  0
 10  9  1  0
 11 10  2  0
 12 10  1  0
 13 14  1  0
 13 12  1  0
 16 15  1  6
 15 14  1  0
 16 17  1  0
 17  7  1  0
 18 19  2  0
 18 16  1  0
 20 18  1  0
 21 22  1  6
 21 20  1  0
 22 23  1  0
 23 24  1  0
 24 25  2  0
 26 21  1  0
 27 26  1  0
 28 24  1  0
 29 26  2  0
M  END
$$$$
