NRE.pdb
     RDKit          3D

 29 28  0  0  1  0  0  0  0  0999 V2000
   13.8917  -19.5252   14.6170 N   0  0  0  0  0  0  0  0  0  0  0  0
   13.3582  -18.2741   14.2106 C   0  0  0  0  0  0  0  0  0  0  0  0
   13.5972  -17.8169   13.0859 O   0  0  0  0  0  0  0  0  0  0  0  0
   12.5054  -17.5154   15.1544 C   0  0  0  0  0  0  0  0  0  0  0  0
   12.4261  -18.2365   16.4650 C   0  0  2  0  0  0  0  0  0  0  0  0
   11.2940  -19.1440   16.4044 N   0  0  0  0  0  0  0  0  0  0  0  0
   12.1969  -17.2407   17.5691 C   0  0  0  0  0  0  0  0  0  0  0  0
   13.0882  -16.4153   17.8958 O   0  0  0  0  0  0  0  0  0  0  0  0
    7.9385  -12.7536   22.3736 N   0  0  0  0  0  0  0  0  0  0  0  0
    7.4610  -12.4202   21.0771 C   0  0  0  0  0  0  0  0  0  0  0  0
    7.3688  -11.1724   20.7448 N   0  0  0  0  0  0  0  0  0  0  0  0
    7.0769  -13.3854   20.1202 N   0  0  0  0  0  0  0  0  0  0  0  0
    7.4261  -14.7678   20.2675 C   0  0  0  0  0  0  0  0  0  0  0  0
    8.9192  -14.9613   20.4811 C   0  0  0  0  0  0  0  0  0  0  0  0
    9.3615  -15.8740   19.3675 C   0  0  0  0  0  0  0  0  0  0  0  0
   10.8242  -16.2357   19.3959 C   0  0  2  0  0  0  0  0  0  0  0  0
   10.9800  -17.1876   18.2836 N   0  0  0  0  0  0  0  0  0  0  0  0
   11.1575  -16.8740   20.6791 C   0  0  0  0  0  0  0  0  0  0  0  0
   10.6789  -17.9546   21.0586 O   0  0  0  0  0  0  0  0  0  0  0  0
    6.9972  -10.8855   19.8174 N   0  0  0  0  0  0  0  0  0  0  0  0
   12.0792  -16.2472   21.5670 C   0  0  2  0  0  0  0  0  0  0  0  0
   12.4233  -16.8513   22.8702 C   0  0  0  0  0  0  0  0  0  0  0  0
   13.8101  -16.3600   23.1692 C   0  0  0  0  0  0  0  0  0  0  0  0
   14.9086  -17.3217   22.9163 C   0  0  0  0  0  0  0  0  0  0  0  0
   16.2414  -16.6966   22.8897 O   0  0  0  0  0  0  0  0  0  0  0  0
   17.2465  -17.2367   22.3808 C   0  0  0  0  0  0  0  0  0  0  0  0
   11.4283  -16.3820   23.8478 O   0  0  0  0  0  0  0  0  0  0  0  0
   11.2082  -17.0418   25.0427 O   0  0  0  0  0  0  0  0  0  0  0  0
   16.4377  -15.4340   23.4515 O   0  0  0  0  0  0  0  0  0  0  0  0
  2  1  1  0
  2  3  2  0
  4  5  1  0
  4  2  1  0
  5  7  1  0
  5  6  1  6
  7  8  2  0
 10  9  1  0
 11 10  2  0
 12 10  1  0
 13 14  1  0
 13 12  1  0
 16 15  1  1
 15 14  1  0
 16 17  1  0
 17  7  1  0
 18 19  2  0
 18 16  1  0
 20 18  1  0
 21 22  1  6
 21 20  1  0
 22 23  1  0
 23 24  1  0
 24 25  2  0
 26 21  1  0
 27 26  1  0
 28 24  1  0
 29 26  2  0
M  END
$$$$
