NRE.pdb
     RDKit          3D

 29 28  0  0  1  0  0  0  0  0999 V2000
   11.3847  -19.9799   17.1484 N   0  0  0  0  0  0  0  0  0  0  0  0
   11.8397  -20.7250   18.2678 C   0  0  0  0  0  0  0  0  0  0  0  0
   11.9368  -21.9573   18.2135 O   0  0  0  0  0  0  0  0  0  0  0  0
   12.2000  -20.0061   19.5116 C   0  0  0  0  0  0  0  0  0  0  0  0
   11.9541  -18.5381   19.3434 C   0  0  2  0  0  0  0  0  0  0  0  0
   13.1382  -17.9564   18.7363 N   0  0  0  0  0  0  0  0  0  0  0  0
   11.7375  -17.9106   20.6934 C   0  0  0  0  0  0  0  0  0  0  0  0
   12.6780  -17.8109   21.5227 O   0  0  0  0  0  0  0  0  0  0  0  0
    7.2106  -11.8824   19.5267 N   0  0  0  0  0  0  0  0  0  0  0  0
    7.5599  -13.1387   18.9614 C   0  0  0  0  0  0  0  0  0  0  0  0
    7.6033  -13.2561   17.6729 N   0  0  0  0  0  0  0  0  0  0  0  0
    7.8658  -14.2795   19.7360 N   0  0  0  0  0  0  0  0  0  0  0  0
    7.8676  -14.2347   21.1687 C   0  0  0  0  0  0  0  0  0  0  0  0
    9.2215  -14.6085   21.7513 C   0  0  0  0  0  0  0  0  0  0  0  0
    9.0433  -15.9989   22.3022 C   0  0  0  0  0  0  0  0  0  0  0  0
   10.3167  -16.7966   22.4173 C   0  0  2  0  0  0  0  0  0  0  0  0
   10.4779  -17.4089   21.0881 N   0  0  0  0  0  0  0  0  0  0  0  0
   10.1679  -17.8309   23.4533 C   0  0  0  0  0  0  0  0  0  0  0  0
    9.6081  -18.9226   23.2648 O   0  0  0  0  0  0  0  0  0  0  0  0
    7.8074  -14.1688   17.2193 N   0  0  0  0  0  0  0  0  0  0  0  0
   10.6826  -17.6050   24.7628 C   0  0  1  0  0  0  0  0  0  0  0  0
   10.8493  -18.7132   25.7250 C   0  0  0  0  0  0  0  0  0  0  0  0
   11.7685  -19.6833   25.0410 C   0  0  0  0  0  0  0  0  0  0  0  0
   12.2294  -20.8291   25.8598 C   0  0  0  0  0  0  0  0  0  0  0  0
   13.1127  -21.7540   25.1302 O   0  0  0  0  0  0  0  0  0  0  0  0
   13.4493  -21.5903   23.9382 C   0  0  0  0  0  0  0  0  0  0  0  0
   11.4300  -18.1450   26.9523 O   0  0  0  0  0  0  0  0  0  0  0  0
   11.2645  -18.7455   28.1866 O   0  0  0  0  0  0  0  0  0  0  0  0
   13.6240  -22.8869   25.7653 O   0  0  0  0  0  0  0  0  0  0  0  0
  2  1  1  0
  2  3  2  0
  4  5  1  0
  4  2  1  0
  5  7  1  0
  5  6  1  1
  7  8  2  0
 10  9  1  0
 11 10  2  0
 12 10  1  0
 13 14  1  0
 13 12  1  0
 16 15  1  6
 15 14  1  0
 16 17  1  0
 17  7  1  0
 18 19  2  0
 18 16  1  0
 20 18  1  0
 21 22  1  1
 21 20  1  0
 22 23  1  0
 23 24  1  0
 24 25  2  0
 26 21  1  0
 27 26  1  0
 28 24  1  0
 29 26  2  0
M  END
$$$$
