NRE.pdb
     RDKit          3D

 29 28  0  0  1  0  0  0  0  0999 V2000
   12.4261  -22.7228   18.7111 N   0  0  0  0  0  0  0  0  0  0  0  0
   13.7007  -22.1941   18.3778 C   0  0  0  0  0  0  0  0  0  0  0  0
   14.7248  -22.8762   18.5074 O   0  0  0  0  0  0  0  0  0  0  0  0
   13.7927  -20.8061   17.8692 C   0  0  0  0  0  0  0  0  0  0  0  0
   12.4279  -20.1916   17.8099 C   0  0  2  0  0  0  0  0  0  0  0  0
   12.1177  -19.9330   16.4149 N   0  0  0  0  0  0  0  0  0  0  0  0
   12.4349  -18.8875   18.5599 C   0  0  0  0  0  0  0  0  0  0  0  0
   13.4773  -18.1878   18.6379 O   0  0  0  0  0  0  0  0  0  0  0  0
    7.5403  -11.9075   21.8820 N   0  0  0  0  0  0  0  0  0  0  0  0
    7.8176  -12.6783   20.7206 C   0  0  0  0  0  0  0  0  0  0  0  0
    6.8345  -13.0467   19.9632 N   0  0  0  0  0  0  0  0  0  0  0  0
    9.1210  -13.0692   20.3422 N   0  0  0  0  0  0  0  0  0  0  0  0
    9.3792  -14.3527   19.7585 C   0  0  0  0  0  0  0  0  0  0  0  0
    9.6806  -15.4093   20.8097 C   0  0  0  0  0  0  0  0  0  0  0  0
    9.9001  -16.6831   20.0365 C   0  0  0  0  0  0  0  0  0  0  0  0
   11.3398  -17.1177   19.9382 C   0  0  2  0  0  0  0  0  0  0  0  0
   11.2803  -18.3933   19.2055 N   0  0  0  0  0  0  0  0  0  0  0  0
   11.8963  -17.3158   21.2859 C   0  0  0  0  0  0  0  0  0  0  0  0
   11.3591  -18.0149   22.1596 O   0  0  0  0  0  0  0  0  0  0  0  0
    6.9922  -13.6298   19.1173 N   0  0  0  0  0  0  0  0  0  0  0  0
   13.1216  -16.6855   21.6490 C   0  0  1  0  0  0  0  0  0  0  0  0
   13.7752  -16.9641   22.9440 C   0  0  0  0  0  0  0  0  0  0  0  0
   14.3906  -18.3238   22.7812 C   0  0  0  0  0  0  0  0  0  0  0  0
   15.2540  -18.7835   23.8942 C   0  0  0  0  0  0  0  0  0  0  0  0
   15.8931  -20.0858   23.6418 O   0  0  0  0  0  0  0  0  0  0  0  0
   15.2755  -21.1717   23.6571 C   0  0  0  0  0  0  0  0  0  0  0  0
   14.7755  -15.9078   23.1669 O   0  0  0  0  0  0  0  0  0  0  0  0
   15.1426  -15.0246   22.1685 O   0  0  0  0  0  0  0  0  0  0  0  0
   17.2597  -20.1573   23.3666 O   0  0  0  0  0  0  0  0  0  0  0  0
  2  1  1  0
  2  3  2  0
  4  5  1  0
  4  2  1  0
  5  7  1  0
  5  6  1  6
  7  8  2  0
 10  9  1  0
 11 10  2  0
 12 10  1  0
 13 14  1  0
 13 12  1  0
 16 15  1  1
 15 14  1  0
 16 17  1  0
 17  7  1  0
 18 19  2  0
 18 16  1  0
 20 18  1  0
 21 22  1  1
 21 20  1  0
 22 23  1  0
 23 24  1  0
 24 25  2  0
 26 21  1  0
 27 26  1  0
 28 24  1  0
 29 26  2  0
M  END
$$$$
