NRE.pdb
     RDKit          3D

 29 28  0  0  1  0  0  0  0  0999 V2000
    2.5914  -20.7372   22.6424 N   0  0  0  0  0  0  0  0  0  0  0  0
    2.5181  -19.7508   21.6242 C   0  0  0  0  0  0  0  0  0  0  0  0
    1.4649  -19.5536   21.0055 O   0  0  0  0  0  0  0  0  0  0  0  0
    3.7255  -18.9535   21.3074 C   0  0  0  0  0  0  0  0  0  0  0  0
    4.8825  -19.4277   22.1321 C   0  0  2  0  0  0  0  0  0  0  0  0
    4.5657  -19.1767   23.5270 N   0  0  0  0  0  0  0  0  0  0  0  0
    6.1132  -18.6460   21.7611 C   0  0  0  0  0  0  0  0  0  0  0  0
    6.5947  -18.7035   20.6004 O   0  0  0  0  0  0  0  0  0  0  0  0
    8.7673  -11.2149   19.4916 N   0  0  0  0  0  0  0  0  0  0  0  0
    8.0740  -12.3018   18.8934 C   0  0  0  0  0  0  0  0  0  0  0  0
    8.2228  -12.5187   17.6258 N   0  0  0  0  0  0  0  0  0  0  0  0
    7.2218  -13.1683   19.6128 N   0  0  0  0  0  0  0  0  0  0  0  0
    7.6318  -13.7679   20.8486 C   0  0  0  0  0  0  0  0  0  0  0  0
    7.1070  -15.1873   20.9979 C   0  0  0  0  0  0  0  0  0  0  0  0
    7.6793  -15.6841   22.2996 C   0  0  0  0  0  0  0  0  0  0  0  0
    8.0334  -17.1489   22.3112 C   0  0  2  0  0  0  0  0  0  0  0  0
    6.7786  -17.8184   22.6918 N   0  0  0  0  0  0  0  0  0  0  0  0
    9.0836  -17.4024   23.3102 C   0  0  0  0  0  0  0  0  0  0  0  0
    8.8632  -17.8520   24.4460 O   0  0  0  0  0  0  0  0  0  0  0  0
    7.7664  -13.3269   17.1579 N   0  0  0  0  0  0  0  0  0  0  0  0
   10.4460  -17.1286   22.9949 C   0  0  2  0  0  0  0  0  0  0  0  0
   11.5268  -17.3833   23.9690 C   0  0  0  0  0  0  0  0  0  0  0  0
   12.7767  -16.8961   23.2950 C   0  0  0  0  0  0  0  0  0  0  0  0
   14.0258  -17.0075   24.0841 C   0  0  0  0  0  0  0  0  0  0  0  0
   15.2231  -16.5583   23.3542 O   0  0  0  0  0  0  0  0  0  0  0  0
   15.2066  -16.1970   22.1583 C   0  0  0  0  0  0  0  0  0  0  0  0
   11.2046  -16.6267   25.1897 O   0  0  0  0  0  0  0  0  0  0  0  0
   11.5947  -17.0593   26.4435 O   0  0  0  0  0  0  0  0  0  0  0  0
   16.4633  -16.5185   23.9935 O   0  0  0  0  0  0  0  0  0  0  0  0
  2  1  1  0
  2  3  2  0
  4  5  1  0
  4  2  1  0
  5  7  1  0
  5  6  1  1
  7  8  2  0
 10  9  1  0
 11 10  2  0
 12 10  1  0
 13 14  1  0
 13 12  1  0
 16 15  1  1
 15 14  1  0
 16 17  1  0
 17  7  1  0
 18 19  2  0
 18 16  1  0
 20 18  1  0
 21 22  1  6
 21 20  1  0
 22 23  1  0
 23 24  1  0
 24 25  2  0
 26 21  1  0
 27 26  1  0
 28 24  1  0
 29 26  2  0
M  END
$$$$
