NRE.pdb
     RDKit          3D

 29 28  0  0  1  0  0  0  0  0999 V2000
   13.6939  -16.4210   15.5159 N   0  0  0  0  0  0  0  0  0  0  0  0
   14.6181  -16.9758   16.4396 C   0  0  0  0  0  0  0  0  0  0  0  0
   15.1189  -18.0904   16.2451 O   0  0  0  0  0  0  0  0  0  0  0  0
   14.9795  -16.2004   17.6487 C   0  0  0  0  0  0  0  0  0  0  0  0
   14.1957  -14.9246   17.6912 C   0  0  2  0  0  0  0  0  0  0  0  0
   15.1173  -13.8291   17.4472 N   0  0  0  0  0  0  0  0  0  0  0  0
   13.5877  -14.7580   19.0571 C   0  0  0  0  0  0  0  0  0  0  0  0
   14.3093  -14.6623   20.0830 O   0  0  0  0  0  0  0  0  0  0  0  0
    5.8824  -13.0174   18.2080 N   0  0  0  0  0  0  0  0  0  0  0  0
    7.0769  -13.4636   17.5804 C   0  0  0  0  0  0  0  0  0  0  0  0
    7.0096  -13.9633   16.3880 N   0  0  0  0  0  0  0  0  0  0  0  0
    8.3479  -13.3916   18.1921 N   0  0  0  0  0  0  0  0  0  0  0  0
    8.5270  -12.7901   19.4809 C   0  0  0  0  0  0  0  0  0  0  0  0
    9.9761  -12.8390   19.9389 C   0  0  0  0  0  0  0  0  0  0  0  0
   10.1944  -14.2544   20.4055 C   0  0  0  0  0  0  0  0  0  0  0  0
   11.6387  -14.6317   20.6119 C   0  0  2  0  0  0  0  0  0  0  0  0
   12.1897  -14.7016   19.2483 N   0  0  0  0  0  0  0  0  0  0  0  0
   11.7241  -15.9417   21.2766 C   0  0  0  0  0  0  0  0  0  0  0  0
   11.2379  -16.9853   20.8127 O   0  0  0  0  0  0  0  0  0  0  0  0
    7.8569  -14.3180   15.9014 N   0  0  0  0  0  0  0  0  0  0  0  0
   12.3956  -16.0618   22.5277 C   0  0  1  0  0  0  0  0  0  0  0  0
   12.5924  -17.3766   23.1715 C   0  0  0  0  0  0  0  0  0  0  0  0
   14.0816  -17.5375   23.2732 C   0  0  0  0  0  0  0  0  0  0  0  0
   14.8312  -16.3545   23.7571 C   0  0  0  0  0  0  0  0  0  0  0  0
   16.1670  -16.2187   23.1527 O   0  0  0  0  0  0  0  0  0  0  0  0
   16.6227  -17.0117   22.3015 C   0  0  0  0  0  0  0  0  0  0  0  0
   11.9328  -17.3246   24.4861 O   0  0  0  0  0  0  0  0  0  0  0  0
   11.9296  -18.4064   25.3470 O   0  0  0  0  0  0  0  0  0  0  0  0
   17.0021  -15.1627   23.5213 O   0  0  0  0  0  0  0  0  0  0  0  0
  2  1  1  0
  2  3  2  0
  4  5  1  0
  4  2  1  0
  5  7  1  0
  5  6  1  1
  7  8  2  0
 10  9  1  0
 11 10  2  0
 12 10  1  0
 13 14  1  0
 13 12  1  0
 16 15  1  6
 15 14  1  0
 16 17  1  0
 17  7  1  0
 18 19  2  0
 18 16  1  0
 20 18  1  0
 21 22  1  6
 21 20  1  0
 22 23  1  0
 23 24  1  0
 24 25  2  0
 26 21  1  0
 27 26  1  0
 28 24  1  0
 29 26  2  0
M  END
$$$$
