GCT.pdb
     RDKit          3D

 18 17  0  0  1  0  0  0  0  0999 V2000
    7.5594  -14.5434   20.1355 N   0  0  0  0  0  0  0  0  0  0  0  0
    6.6764  -14.2014   21.2332 C   0  0  0  0  0  0  0  0  0  0  0  0
    7.4499  -14.1601   22.4898 C   0  0  0  0  0  0  0  0  0  0  0  0
    8.6565  -14.5030   22.4967 O   0  0  0  0  0  0  0  0  0  0  0  0
    6.8627  -13.7345   23.7267 N   0  0  0  0  0  0  0  0  0  0  0  0
    7.6574  -13.6460   24.9437 C   0  0  1  0  0  0  0  0  0  0  0  0
    6.8756  -12.7878   25.9091 C   0  0  0  0  0  0  0  0  0  0  0  0
    7.8295  -12.6551   27.4433 S   0  0  0  0  0  0  0  0  0  0  0  0
    7.8116  -15.0021   25.5137 C   0  0  0  0  0  0  0  0  0  0  0  0
    6.7647  -15.6764   25.7837 O   0  0  0  0  0  0  0  0  0  0  0  0
    9.1303  -17.8499   24.0186 C   0  0  0  0  0  0  0  0  0  0  0  0
    9.9214  -17.7384   25.2969 C   0  0  1  0  0  0  0  0  0  0  0  0
   11.1443  -17.1543   24.9770 O   0  0  0  0  0  0  0  0  0  0  0  0
    9.2470  -16.8677   26.3201 C   0  0  2  0  0  0  0  0  0  0  0  0
    9.1000  -15.5430   25.7575 N   0  0  0  0  0  0  0  0  0  0  0  0
    9.9686  -16.8019   27.6086 C   0  0  0  0  0  0  0  0  0  0  0  0
   10.1712  -17.8110   28.3153 O   0  0  0  0  0  0  0  0  0  0  0  0
   10.4478  -15.5834   28.0701 O   0  0  0  0  0  0  0  0  0  0  0  0
  1  2  1  0
  3  2  1  0
  4  3  2  0
  5  3  1  0
  6  5  1  0
  7  8  1  0
  6  7  1  1
  9  6  1  0
  9 15  1  0
 10  9  2  0
 12 11  1  6
 12 14  1  0
 12 13  1  0
 14 15  1  6
 14 16  1  0
 16 18  1  0
 17 16  2  0
M  END
$$$$
