GCT.pdb
     RDKit          3D

 18 17  0  0  1  0  0  0  0  0999 V2000
    8.3641  -17.4947   19.0497 N   0  0  0  0  0  0  0  0  0  0  0  0
    8.8282  -17.8550   20.3750 C   0  0  0  0  0  0  0  0  0  0  0  0
    7.9657  -17.2146   21.3873 C   0  0  0  0  0  0  0  0  0  0  0  0
    6.8451  -16.7564   21.0590 O   0  0  0  0  0  0  0  0  0  0  0  0
    8.3683  -17.0942   22.7582 N   0  0  0  0  0  0  0  0  0  0  0  0
    7.4544  -16.5750   23.7660 C   0  0  1  0  0  0  0  0  0  0  0  0
    6.9538  -17.7647   24.5495 C   0  0  0  0  0  0  0  0  0  0  0  0
    5.8258  -17.1598   25.8313 S   0  0  0  0  0  0  0  0  0  0  0  0
    8.2022  -15.6762   24.6720 C   0  0  0  0  0  0  0  0  0  0  0  0
    9.4054  -15.9698   24.9712 O   0  0  0  0  0  0  0  0  0  0  0  0
    7.2496  -11.6414   25.2182 C   0  0  0  0  0  0  0  0  0  0  0  0
    7.4460  -12.4815   26.4542 C   0  0  1  0  0  0  0  0  0  0  0  0
    6.1859  -12.8973   26.8764 O   0  0  0  0  0  0  0  0  0  0  0  0
    8.2742  -13.7088   26.1936 C   0  0  2  0  0  0  0  0  0  0  0  0
    7.5924  -14.5094   25.2001 N   0  0  0  0  0  0  0  0  0  0  0  0
    8.5403  -14.5112   27.4062 C   0  0  0  0  0  0  0  0  0  0  0  0
    8.1400  -15.6872   27.5326 O   0  0  0  0  0  0  0  0  0  0  0  0
    9.2599  -13.9576   28.4564 O   0  0  0  0  0  0  0  0  0  0  0  0
  1  2  1  0
  3  2  1  0
  4  3  2  0
  5  3  1  0
  6  5  1  0
  7  8  1  0
  6  7  1  1
  9  6  1  0
  9 15  1  0
 10  9  2  0
 12 11  1  6
 12 14  1  0
 12 13  1  0
 14 15  1  6
 14 16  1  0
 16 18  1  0
 17 16  2  0
M  END
$$$$
