GCT.pdb
     RDKit          3D

 18 17  0  0  1  0  0  0  0  0999 V2000
    9.2490  -17.1804   15.7574 N   0  0  0  0  0  0  0  0  0  0  0  0
    8.2234  -16.5874   16.5930 C   0  0  0  0  0  0  0  0  0  0  0  0
    8.8512  -15.9812   17.7834 C   0  0  0  0  0  0  0  0  0  0  0  0
   10.0531  -16.2205   18.0508 O   0  0  0  0  0  0  0  0  0  0  0  0
    8.1248  -15.1122   18.6628 N   0  0  0  0  0  0  0  0  0  0  0  0
    8.7586  -14.5349   19.8398 C   0  0  1  0  0  0  0  0  0  0  0  0
    7.7969  -13.5087   20.3892 C   0  0  0  0  0  0  0  0  0  0  0  0
    7.6827  -12.1498   19.1968 S   0  0  0  0  0  0  0  0  0  0  0  0
    8.9594  -15.6005   20.8458 C   0  0  0  0  0  0  0  0  0  0  0  0
    7.9471  -16.2596   21.2512 O   0  0  0  0  0  0  0  0  0  0  0  0
   11.0816  -18.4557   20.3426 C   0  0  0  0  0  0  0  0  0  0  0  0
   11.4958  -17.8978   21.6802 C   0  0  1  0  0  0  0  0  0  0  0  0
   12.6568  -17.1561   21.4775 O   0  0  0  0  0  0  0  0  0  0  0  0
   10.4599  -16.9823   22.2707 C   0  0  2  0  0  0  0  0  0  0  0  0
   10.2538  -15.8837   21.3522 N   0  0  0  0  0  0  0  0  0  0  0  0
   10.8170  -16.4717   23.6111 C   0  0  0  0  0  0  0  0  0  0  0  0
   10.8656  -17.2087   24.6178 O   0  0  0  0  0  0  0  0  0  0  0  0
   11.1133  -15.1261   23.7810 O   0  0  0  0  0  0  0  0  0  0  0  0
  1  2  1  0
  3  2  1  0
  4  3  2  0
  5  3  1  0
  6  5  1  0
  7  8  1  0
  6  7  1  1
  9  6  1  0
  9 15  1  0
 10  9  2  0
 12 11  1  6
 12 14  1  0
 12 13  1  0
 14 15  1  6
 14 16  1  0
 16 18  1  0
 17 16  2  0
M  END
$$$$
