GCT.pdb
     RDKit          3D

 18 17  0  0  1  0  0  0  0  0999 V2000
    7.3460  -13.9203   20.5822 N   0  0  0  0  0  0  0  0  0  0  0  0
    6.4998  -13.8974   21.7591 C   0  0  0  0  0  0  0  0  0  0  0  0
    7.3441  -13.8500   22.9690 C   0  0  0  0  0  0  0  0  0  0  0  0
    8.5898  -13.9587   22.8707 O   0  0  0  0  0  0  0  0  0  0  0  0
    6.7830  -13.6811   24.2777 N   0  0  0  0  0  0  0  0  0  0  0  0
    7.6159  -13.7707   25.4687 C   0  0  1  0  0  0  0  0  0  0  0  0
    6.8032  -13.2041   26.6082 C   0  0  0  0  0  0  0  0  0  0  0  0
    6.6710  -11.4134   26.3689 S   0  0  0  0  0  0  0  0  0  0  0  0
    7.9087  -15.1946   25.7414 C   0  0  0  0  0  0  0  0  0  0  0  0
    6.9359  -15.9952   25.9314 O   0  0  0  0  0  0  0  0  0  0  0  0
    9.4674  -17.4920   23.5729 C   0  0  0  0  0  0  0  0  0  0  0  0
   10.2641  -17.6059   24.8475 C   0  0  1  0  0  0  0  0  0  0  0  0
   11.4244  -16.8549   24.6785 O   0  0  0  0  0  0  0  0  0  0  0  0
    9.5292  -17.0592   26.0395 C   0  0  2  0  0  0  0  0  0  0  0  0
    9.2471  -15.6619   25.7925 N   0  0  0  0  0  0  0  0  0  0  0  0
   10.2649  -17.2179   27.3117 C   0  0  0  0  0  0  0  0  0  0  0  0
   10.6510  -16.2424   27.9886 O   0  0  0  0  0  0  0  0  0  0  0  0
   10.5483  -18.4895   27.7915 O   0  0  0  0  0  0  0  0  0  0  0  0
  1  2  1  0
  3  2  1  0
  4  3  2  0
  5  3  1  0
  6  5  1  0
  7  8  1  0
  6  7  1  1
  9  6  1  0
  9 15  1  0
 10  9  2  0
 12 11  1  6
 12 14  1  0
 12 13  1  0
 14 15  1  6
 14 16  1  0
 16 18  1  0
 17 16  2  0
M  END
$$$$
