GCT.pdb
     RDKit          3D

 18 17  0  0  1  0  0  0  0  0999 V2000
    4.7757  -18.8904   22.9022 N   0  0  0  0  0  0  0  0  0  0  0  0
    5.0778  -18.2343   24.1592 C   0  0  0  0  0  0  0  0  0  0  0  0
    6.0831  -17.1777   23.9313 C   0  0  0  0  0  0  0  0  0  0  0  0
    6.5193  -16.9641   22.7748 O   0  0  0  0  0  0  0  0  0  0  0  0
    6.5895  -16.3707   25.0028 N   0  0  0  0  0  0  0  0  0  0  0  0
    7.6273  -15.3766   24.7680 C   0  0  1  0  0  0  0  0  0  0  0  0
    7.6147  -14.4488   25.9593 C   0  0  0  0  0  0  0  0  0  0  0  0
    6.0196  -13.5907   25.9869 S   0  0  0  0  0  0  0  0  0  0  0  0
    8.9371  -16.0601   24.6982 C   0  0  0  0  0  0  0  0  0  0  0  0
    9.2946  -16.8015   25.6708 O   0  0  0  0  0  0  0  0  0  0  0  0
    9.7828  -17.7904   21.4493 C   0  0  0  0  0  0  0  0  0  0  0  0
   11.0358  -17.1154   21.9458 C   0  0  1  0  0  0  0  0  0  0  0  0
   11.2001  -15.9495   21.2024 O   0  0  0  0  0  0  0  0  0  0  0  0
   10.9490  -16.7301   23.3963 C   0  0  2  0  0  0  0  0  0  0  0  0
    9.7818  -15.8934   23.5708 N   0  0  0  0  0  0  0  0  0  0  0  0
   12.1560  -16.0399   23.8982 C   0  0  0  0  0  0  0  0  0  0  0  0
   13.2824  -16.5785   23.9033 O   0  0  0  0  0  0  0  0  0  0  0  0
   12.0575  -14.7442   24.3867 O   0  0  0  0  0  0  0  0  0  0  0  0
  1  2  1  0
  3  2  1  0
  4  3  2  0
  5  3  1  0
  6  5  1  0
  7  8  1  0
  6  7  1  1
  9  6  1  0
  9 15  1  0
 10  9  2  0
 12 11  1  6
 12 14  1  0
 12 13  1  0
 14 15  1  6
 14 16  1  0
 16 18  1  0
 17 16  2  0
M  END
$$$$
