GCT.pdb
     RDKit          3D

 18 17  0  0  1  0  0  0  0  0999 V2000
    9.4546  -18.2127   18.6089 N   0  0  0  0  0  0  0  0  0  0  0  0
    9.2301  -18.4365   20.0236 C   0  0  0  0  0  0  0  0  0  0  0  0
    9.9532  -17.4122   20.8026 C   0  0  0  0  0  0  0  0  0  0  0  0
   10.6095  -16.5210   20.2125 O   0  0  0  0  0  0  0  0  0  0  0  0
    9.9332  -17.3974   22.2363 N   0  0  0  0  0  0  0  0  0  0  0  0
   10.7291  -16.4373   22.9881 C   0  0  1  0  0  0  0  0  0  0  0  0
    9.9778  -16.1615   24.2685 C   0  0  0  0  0  0  0  0  0  0  0  0
   11.0223  -15.1206   25.3205 S   0  0  0  0  0  0  0  0  0  0  0  0
   12.0355  -17.0497   23.3134 C   0  0  0  0  0  0  0  0  0  0  0  0
   12.0616  -18.0692   24.0771 O   0  0  0  0  0  0  0  0  0  0  0  0
   14.3203  -18.4748   20.9620 C   0  0  0  0  0  0  0  0  0  0  0  0
   15.1537  -17.5093   21.7654 C   0  0  1  0  0  0  0  0  0  0  0  0
   15.2852  -16.3476   21.0091 O   0  0  0  0  0  0  0  0  0  0  0  0
   14.5105  -17.1392   23.0727 C   0  0  2  0  0  0  0  0  0  0  0  0
   13.2383  -16.5125   22.7870 N   0  0  0  0  0  0  0  0  0  0  0  0
   15.3437  -16.2521   23.9116 C   0  0  0  0  0  0  0  0  0  0  0  0
   15.0253  -15.0704   24.1588 O   0  0  0  0  0  0  0  0  0  0  0  0
   16.5286  -16.7289   24.4557 O   0  0  0  0  0  0  0  0  0  0  0  0
  1  2  1  0
  3  2  1  0
  4  3  2  0
  5  3  1  0
  6  5  1  0
  7  8  1  0
  6  7  1  1
  9  6  1  0
  9 15  1  0
 10  9  2  0
 12 11  1  6
 12 14  1  0
 12 13  1  0
 14 15  1  6
 14 16  1  0
 16 18  1  0
 17 16  2  0
M  END
$$$$
