EIK.pdb
     RDKit          3D

 27 26  0  0  1  0  0  0  0  0999 V2000
    6.6917  -16.4118   21.9071 N   0  0  0  0  0  0  0  0  0  0  0  0
    8.1327  -16.3563   21.8866 C   0  0  1  0  0  0  0  0  0  0  0  0
    8.6560  -15.9203   20.5429 C   0  0  0  0  0  0  0  0  0  0  0  0
    7.9394  -16.6235   19.4284 C   0  0  0  0  0  0  0  0  0  0  0  0
    8.5920  -16.2638   18.1423 C   0  0  0  0  0  0  0  0  0  0  0  0
    8.1344  -15.3513   17.4012 O   0  0  0  0  0  0  0  0  0  0  0  0
    8.7105  -15.5603   22.9765 C   0  0  0  0  0  0  0  0  0  0  0  0
    9.9239  -15.2088   23.0199 O   0  0  0  0  0  0  0  0  0  0  0  0
    9.7504  -16.9335   17.7005 O   0  0  0  0  0  0  0  0  0  0  0  0
    5.6099  -11.8920   25.2664 C   0  0  0  0  0  0  0  0  0  0  0  0
    6.8340  -12.5753   24.6354 C   0  0  0  0  0  0  0  0  0  0  0  0
    7.3549  -13.5248   25.6484 C   0  0  2  0  0  0  0  0  0  0  0  0
    7.7935  -12.7371   26.8779 C   0  0  0  0  0  0  0  0  0  0  0  0
    8.4366  -14.4611   25.2178 C   0  0  2  0  0  0  0  0  0  0  0  0
    7.8753  -15.1583   24.0379 N   0  0  0  0  0  0  0  0  0  0  0  0
    8.8149  -15.4964   26.1956 C   0  0  0  0  0  0  0  0  0  0  0  0
    7.9708  -16.4121   26.5009 O   0  0  0  0  0  0  0  0  0  0  0  0
   10.0637  -15.5823   26.8535 N   0  0  0  0  0  0  0  0  0  0  0  0
   10.4181  -16.7598   27.6616 C   0  0  1  0  0  0  0  0  0  0  0  0
   11.5646  -17.4590   26.9943 C   0  0  0  0  0  0  0  0  0  0  0  0
   12.0465  -18.6615   27.7292 C   0  0  0  0  0  0  0  0  0  0  0  0
   13.1870  -19.3853   27.0469 C   0  0  0  0  0  0  0  0  0  0  0  0
   13.5420  -20.6645   27.8151 C   0  0  0  0  0  0  0  0  0  0  0  0
   14.6355  -21.2934   27.0998 N   0  0  0  0  0  0  0  0  0  0  0  0
   10.7569  -16.3023   29.0071 C   0  0  0  0  0  0  0  0  0  0  0  0
   11.0076  -17.1189   29.9650 O   0  0  0  0  0  0  0  0  0  0  0  0
   10.8292  -14.9688   29.3235 O   0  0  0  0  0  0  0  0  0  0  0  0
  2  1  1  6
  3  2  1  0
  4  3  1  0
  5  4  1  0
  5  6  2  0
  7  2  1  0
  7  8  2  0
  9  5  1  0
 10 11  1  0
 12 11  1  0
 12 14  1  0
 12 13  1  1
 14 15  1  6
 15  7  1  0
 16 14  1  0
 17 16  2  0
 18 16  1  0
 19 25  1  0
 19 18  1  0
 19 20  1  6
 21 20  1  0
 22 21  1  0
 23 24  1  0
 23 22  1  0
 25 27  1  0
 26 25  2  0
M  END
$$$$
