EIK.pdb
     RDKit          3D

 27 26  0  0  1  0  0  0  0  0999 V2000
    9.0110  -17.0600   15.3059 N   0  0  0  0  0  0  0  0  0  0  0  0
    8.3049  -17.2176   16.5536 C   0  0  1  0  0  0  0  0  0  0  0  0
    7.8749  -18.6442   16.7759 C   0  0  0  0  0  0  0  0  0  0  0  0
    8.9527  -19.4350   17.4565 C   0  0  0  0  0  0  0  0  0  0  0  0
    8.4637  -20.8230   17.6655 C   0  0  0  0  0  0  0  0  0  0  0  0
    9.1550  -21.6824   18.2778 O   0  0  0  0  0  0  0  0  0  0  0  0
    9.0271  -16.6831   17.7147 C   0  0  0  0  0  0  0  0  0  0  0  0
   10.2860  -16.7027   17.8263 O   0  0  0  0  0  0  0  0  0  0  0  0
    7.2046  -21.2325   17.1834 O   0  0  0  0  0  0  0  0  0  0  0  0
    6.4593  -12.5341   20.1685 C   0  0  0  0  0  0  0  0  0  0  0  0
    7.6224  -13.2790   19.4934 C   0  0  0  0  0  0  0  0  0  0  0  0
    7.9561  -14.4247   20.3738 C   0  0  2  0  0  0  0  0  0  0  0  0
    8.3656  -13.8884   21.7411 C   0  0  0  0  0  0  0  0  0  0  0  0
    8.9702  -15.4010   19.8734 C   0  0  2  0  0  0  0  0  0  0  0  0
    8.2864  -16.1122   18.7688 N   0  0  0  0  0  0  0  0  0  0  0  0
    9.4099  -16.4212   20.8412 C   0  0  0  0  0  0  0  0  0  0  0  0
    8.6221  -17.3886   21.1374 O   0  0  0  0  0  0  0  0  0  0  0  0
   10.6618  -16.4386   21.4987 N   0  0  0  0  0  0  0  0  0  0  0  0
   11.0088  -17.5106   22.4451 C   0  0  1  0  0  0  0  0  0  0  0  0
   12.3546  -18.0530   22.0669 C   0  0  0  0  0  0  0  0  0  0  0  0
   12.8715  -19.0887   23.0042 C   0  0  0  0  0  0  0  0  0  0  0  0
   14.2574  -19.5921   22.6636 C   0  0  0  0  0  0  0  0  0  0  0  0
   14.6549  -20.7365   23.6041 C   0  0  0  0  0  0  0  0  0  0  0  0
   15.8566  -21.3334   23.0540 N   0  0  0  0  0  0  0  0  0  0  0  0
   10.9983  -16.9476   23.7932 C   0  0  0  0  0  0  0  0  0  0  0  0
   11.0115  -15.6821   24.0068 O   0  0  0  0  0  0  0  0  0  0  0  0
   10.9707  -17.7427   24.9115 O   0  0  0  0  0  0  0  0  0  0  0  0
  2  1  1  6
  3  2  1  0
  4  3  1  0
  5  4  1  0
  5  6  2  0
  7  2  1  0
  7  8  2  0
  9  5  1  0
 10 11  1  0
 12 11  1  0
 12 14  1  0
 12 13  1  1
 14 15  1  6
 15  7  1  0
 16 14  1  0
 17 16  2  0
 18 16  1  0
 19 25  1  0
 19 18  1  0
 19 20  1  6
 21 20  1  0
 22 21  1  0
 23 24  1  0
 23 22  1  0
 25 27  1  0
 26 25  2  0
M  END
$$$$
