EIK.pdb
     RDKit          3D

 27 26  0  0  1  0  0  0  0  0999 V2000
    6.8714  -14.0586   20.4894 N   0  0  0  0  0  0  0  0  0  0  0  0
    7.0014  -15.0809   21.4984 C   0  0  1  0  0  0  0  0  0  0  0  0
    7.3887  -16.4088   20.9017 C   0  0  0  0  0  0  0  0  0  0  0  0
    7.4878  -17.4691   21.9582 C   0  0  0  0  0  0  0  0  0  0  0  0
    7.9341  -18.7354   21.3204 C   0  0  0  0  0  0  0  0  0  0  0  0
    8.6474  -18.7360   20.2799 O   0  0  0  0  0  0  0  0  0  0  0  0
    7.8863  -14.7081   22.6089 C   0  0  0  0  0  0  0  0  0  0  0  0
    9.0897  -14.3525   22.4565 O   0  0  0  0  0  0  0  0  0  0  0  0
    7.5735  -19.9878   21.8560 O   0  0  0  0  0  0  0  0  0  0  0  0
    5.8305  -11.5492   26.2016 C   0  0  0  0  0  0  0  0  0  0  0  0
    6.8081  -12.2026   25.2112 C   0  0  0  0  0  0  0  0  0  0  0  0
    7.3202  -13.4277   25.8713 C   0  0  2  0  0  0  0  0  0  0  0  0
    8.0016  -13.0319   27.1767 C   0  0  0  0  0  0  0  0  0  0  0  0
    8.2123  -14.3171   25.0681 C   0  0  2  0  0  0  0  0  0  0  0  0
    7.3765  -14.7431   23.9221 N   0  0  0  0  0  0  0  0  0  0  0  0
    8.6768  -15.5401   25.7460 C   0  0  0  0  0  0  0  0  0  0  0  0
    7.8211  -16.4273   26.0995 O   0  0  0  0  0  0  0  0  0  0  0  0
   10.0232  -15.8421   26.0556 N   0  0  0  0  0  0  0  0  0  0  0  0
   10.3984  -17.1461   26.6248 C   0  0  1  0  0  0  0  0  0  0  0  0
   11.7301  -17.5394   26.0587 C   0  0  0  0  0  0  0  0  0  0  0  0
   11.6990  -17.8422   24.6007 C   0  0  0  0  0  0  0  0  0  0  0  0
   13.0259  -18.3037   24.0382 C   0  0  0  0  0  0  0  0  0  0  0  0
   12.8699  -18.7063   22.5665 C   0  0  0  0  0  0  0  0  0  0  0  0
   14.1658  -19.1819   22.1222 N   0  0  0  0  0  0  0  0  0  0  0  0
   10.4330  -17.0139   28.0794 C   0  0  0  0  0  0  0  0  0  0  0  0
   10.3226  -15.8780   28.6665 O   0  0  0  0  0  0  0  0  0  0  0  0
   10.5832  -18.1011   28.9035 O   0  0  0  0  0  0  0  0  0  0  0  0
  2  1  1  6
  3  2  1  0
  4  3  1  0
  5  4  1  0
  5  6  2  0
  7  2  1  0
  7  8  2  0
  9  5  1  0
 10 11  1  0
 12 11  1  0
 12 14  1  0
 12 13  1  1
 14 15  1  6
 15  7  1  0
 16 14  1  0
 17 16  2  0
 18 16  1  0
 19 25  1  0
 19 18  1  0
 19 20  1  6
 21 20  1  0
 22 21  1  0
 23 24  1  0
 23 22  1  0
 25 27  1  0
 26 25  2  0
M  END
$$$$
