EIK.pdb
     RDKit          3D

 27 26  0  0  1  0  0  0  0  0999 V2000
    7.7337  -14.7970   20.4437 N   0  0  0  0  0  0  0  0  0  0  0  0
    7.2854  -15.3129   21.7137 C   0  0  1  0  0  0  0  0  0  0  0  0
    7.1793  -16.8156   21.7003 C   0  0  0  0  0  0  0  0  0  0  0  0
    7.3527  -17.3585   20.3127 C   0  0  0  0  0  0  0  0  0  0  0  0
    7.1207  -18.8263   20.3442 C   0  0  0  0  0  0  0  0  0  0  0  0
    8.0551  -19.6384   20.5862 O   0  0  0  0  0  0  0  0  0  0  0  0
    8.0723  -14.8363   22.8578 C   0  0  0  0  0  0  0  0  0  0  0  0
    9.2965  -14.5298   22.7869 O   0  0  0  0  0  0  0  0  0  0  0  0
    5.8424  -19.3674   20.1020 O   0  0  0  0  0  0  0  0  0  0  0  0
    5.5937  -11.6863   26.4213 C   0  0  0  0  0  0  0  0  0  0  0  0
    6.6321  -12.2539   25.4399 C   0  0  0  0  0  0  0  0  0  0  0  0
    7.2107  -13.4558   26.0878 C   0  0  2  0  0  0  0  0  0  0  0  0
    7.8117  -13.0478   27.4284 C   0  0  0  0  0  0  0  0  0  0  0  0
    8.1964  -14.2529   25.2973 C   0  0  2  0  0  0  0  0  0  0  0  0
    7.4378  -14.7077   24.1095 N   0  0  0  0  0  0  0  0  0  0  0  0
    8.7273  -15.4563   25.9613 C   0  0  0  0  0  0  0  0  0  0  0  0
    7.9120  -16.3350   26.4169 O   0  0  0  0  0  0  0  0  0  0  0  0
   10.0979  -15.7478   26.1516 N   0  0  0  0  0  0  0  0  0  0  0  0
   10.5267  -16.9947   26.8046 C   0  0  1  0  0  0  0  0  0  0  0  0
   11.7955  -17.4544   26.1510 C   0  0  0  0  0  0  0  0  0  0  0  0
   11.6243  -17.8736   24.7321 C   0  0  0  0  0  0  0  0  0  0  0  0
   12.9156  -18.2565   24.0421 C   0  0  0  0  0  0  0  0  0  0  0  0
   12.6255  -18.8374   22.6526 C   0  0  0  0  0  0  0  0  0  0  0  0
   13.9093  -19.0877   22.0262 N   0  0  0  0  0  0  0  0  0  0  0  0
   10.7051  -16.7236   28.2291 C   0  0  0  0  0  0  0  0  0  0  0  0
   10.9774  -17.6509   29.0737 O   0  0  0  0  0  0  0  0  0  0  0  0
   10.5939  -15.4572   28.7464 O   0  0  0  0  0  0  0  0  0  0  0  0
  2  1  1  6
  3  2  1  0
  4  3  1  0
  5  4  1  0
  5  6  2  0
  7  2  1  0
  7  8  2  0
  9  5  1  0
 10 11  1  0
 12 11  1  0
 12 14  1  0
 12 13  1  1
 14 15  1  6
 15  7  1  0
 16 14  1  0
 17 16  2  0
 18 16  1  0
 19 25  1  0
 19 18  1  0
 19 20  1  6
 21 20  1  0
 22 21  1  0
 23 24  1  0
 23 22  1  0
 25 27  1  0
 26 25  2  0
M  END
$$$$
