EIK.pdb
     RDKit          3D

 27 26  0  0  1  0  0  0  0  0999 V2000
    8.1235  -15.1176   20.4825 N   0  0  0  0  0  0  0  0  0  0  0  0
    7.8240  -15.7925   21.7215 C   0  0  1  0  0  0  0  0  0  0  0  0
    8.0722  -17.2752   21.6243 C   0  0  0  0  0  0  0  0  0  0  0  0
    7.4762  -17.8431   20.3703 C   0  0  0  0  0  0  0  0  0  0  0  0
    7.6846  -19.3148   20.3693 C   0  0  0  0  0  0  0  0  0  0  0  0
    6.8285  -20.1041   20.8544 O   0  0  0  0  0  0  0  0  0  0  0  0
    8.4915  -15.2077   22.8911 C   0  0  0  0  0  0  0  0  0  0  0  0
    9.7048  -14.8534   22.9006 O   0  0  0  0  0  0  0  0  0  0  0  0
    8.8526  -19.8851   19.8253 O   0  0  0  0  0  0  0  0  0  0  0  0
    5.5489  -11.9247   25.9067 C   0  0  0  0  0  0  0  0  0  0  0  0
    6.7604  -12.4604   25.1265 C   0  0  0  0  0  0  0  0  0  0  0  0
    7.2811  -13.6148   25.8980 C   0  0  2  0  0  0  0  0  0  0  0  0
    7.7047  -13.1291   27.2798 C   0  0  0  0  0  0  0  0  0  0  0  0
    8.3730  -14.4203   25.2729 C   0  0  2  0  0  0  0  0  0  0  0  0
    7.7479  -15.0248   24.0740 N   0  0  0  0  0  0  0  0  0  0  0  0
    8.9031  -15.5253   26.0908 C   0  0  0  0  0  0  0  0  0  0  0  0
    8.1504  -16.5288   26.3566 O   0  0  0  0  0  0  0  0  0  0  0  0
   10.2087  -15.5898   26.6305 N   0  0  0  0  0  0  0  0  0  0  0  0
   10.7016  -16.8122   27.2845 C   0  0  1  0  0  0  0  0  0  0  0  0
   12.0991  -17.0696   26.8058 C   0  0  0  0  0  0  0  0  0  0  0  0
   12.6967  -18.3253   27.3392 C   0  0  0  0  0  0  0  0  0  0  0  0
   14.1310  -18.5545   26.9148 C   0  0  0  0  0  0  0  0  0  0  0  0
   14.6682  -19.8524   27.5307 C   0  0  0  0  0  0  0  0  0  0  0  0
   15.9359  -20.1304   26.8835 N   0  0  0  0  0  0  0  0  0  0  0  0
   10.6406  -16.6103   28.7302 C   0  0  0  0  0  0  0  0  0  0  0  0
   10.4673  -15.4509   29.2529 O   0  0  0  0  0  0  0  0  0  0  0  0
   10.7628  -17.6528   29.6144 O   0  0  0  0  0  0  0  0  0  0  0  0
  2  1  1  6
  3  2  1  0
  4  3  1  0
  5  4  1  0
  5  6  2  0
  7  2  1  0
  7  8  2  0
  9  5  1  0
 10 11  1  0
 12 11  1  0
 12 14  1  0
 12 13  1  1
 14 15  1  6
 15  7  1  0
 16 14  1  0
 17 16  2  0
 18 16  1  0
 19 25  1  0
 19 18  1  0
 19 20  1  6
 21 20  1  0
 22 21  1  0
 23 24  1  0
 23 22  1  0
 25 27  1  0
 26 25  2  0
M  END
$$$$
