EIK.pdb
     RDKit          3D

 27 26  0  0  1  0  0  0  0  0999 V2000
    7.7162  -14.2654   20.0501 N   0  0  0  0  0  0  0  0  0  0  0  0
    7.0969  -14.7630   21.2537 C   0  0  1  0  0  0  0  0  0  0  0  0
    6.6322  -16.1873   21.0951 C   0  0  0  0  0  0  0  0  0  0  0  0
    7.6511  -17.0114   20.3651 C   0  0  0  0  0  0  0  0  0  0  0  0
    7.0932  -18.3714   20.1454 C   0  0  0  0  0  0  0  0  0  0  0  0
    5.9419  -18.6876   20.5526 O   0  0  0  0  0  0  0  0  0  0  0  0
    7.9200  -14.5934   22.4574 C   0  0  0  0  0  0  0  0  0  0  0  0
    9.1840  -14.6008   22.4483 O   0  0  0  0  0  0  0  0  0  0  0  0
    7.8342  -19.3631   19.4723 O   0  0  0  0  0  0  0  0  0  0  0  0
    5.7979  -11.3490   26.2104 C   0  0  0  0  0  0  0  0  0  0  0  0
    6.7723  -11.9765   25.2002 C   0  0  0  0  0  0  0  0  0  0  0  0
    7.1751  -13.2881   25.7627 C   0  0  2  0  0  0  0  0  0  0  0  0
    7.7979  -13.0614   27.1359 C   0  0  0  0  0  0  0  0  0  0  0  0
    8.0631  -14.1494   24.9251 C   0  0  2  0  0  0  0  0  0  0  0  0
    7.2764  -14.4094   23.6974 N   0  0  0  0  0  0  0  0  0  0  0  0
    8.4151  -15.4589   25.5015 C   0  0  0  0  0  0  0  0  0  0  0  0
    7.4958  -16.3344   25.6825 O   0  0  0  0  0  0  0  0  0  0  0  0
    9.7152  -15.8592   25.8880 N   0  0  0  0  0  0  0  0  0  0  0  0
    9.9863  -17.2353   26.3329 C   0  0  1  0  0  0  0  0  0  0  0  0
   11.1721  -17.7493   25.5725 C   0  0  0  0  0  0  0  0  0  0  0  0
   11.6721  -19.0667   26.0552 C   0  0  0  0  0  0  0  0  0  0  0  0
   12.9589  -19.5163   25.3979 C   0  0  0  0  0  0  0  0  0  0  0  0
   13.3682  -20.8997   25.9186 C   0  0  0  0  0  0  0  0  0  0  0  0
   14.5798  -21.2715   25.2137 N   0  0  0  0  0  0  0  0  0  0  0  0
   10.2228  -17.2086   27.7744 C   0  0  0  0  0  0  0  0  0  0  0  0
   10.4831  -16.1218   28.4055 O   0  0  0  0  0  0  0  0  0  0  0  0
   10.1771  -18.3477   28.5385 O   0  0  0  0  0  0  0  0  0  0  0  0
  2  1  1  6
  3  2  1  0
  4  3  1  0
  5  4  1  0
  5  6  2  0
  7  2  1  0
  7  8  2  0
  9  5  1  0
 10 11  1  0
 12 11  1  0
 12 14  1  0
 12 13  1  1
 14 15  1  6
 15  7  1  0
 16 14  1  0
 17 16  2  0
 18 16  1  0
 19 25  1  0
 19 18  1  0
 19 20  1  6
 21 20  1  0
 22 21  1  0
 23 24  1  0
 23 22  1  0
 25 27  1  0
 26 25  2  0
M  END
$$$$
