EIK.pdb
     RDKit          3D

 27 26  0  0  1  0  0  0  0  0999 V2000
    7.1489  -14.4152   20.6271 N   0  0  0  0  0  0  0  0  0  0  0  0
    7.3997  -15.4765   21.5709 C   0  0  1  0  0  0  0  0  0  0  0  0
    8.0160  -16.6803   20.9073 C   0  0  0  0  0  0  0  0  0  0  0  0
    7.5275  -16.8308   19.4970 C   0  0  0  0  0  0  0  0  0  0  0  0
    8.0809  -18.0903   18.9342 C   0  0  0  0  0  0  0  0  0  0  0  0
    8.8736  -18.8170   19.5936 O   0  0  0  0  0  0  0  0  0  0  0  0
    8.1698  -15.0537   22.7472 C   0  0  0  0  0  0  0  0  0  0  0  0
    9.4324  -15.0030   22.7765 O   0  0  0  0  0  0  0  0  0  0  0  0
    7.7401  -18.5201   17.6363 O   0  0  0  0  0  0  0  0  0  0  0  0
    5.6680  -11.5018   25.9821 C   0  0  0  0  0  0  0  0  0  0  0  0
    6.7568  -12.1367   25.1018 C   0  0  0  0  0  0  0  0  0  0  0  0
    7.2409  -13.3346   25.8294 C   0  0  2  0  0  0  0  0  0  0  0  0
    7.8159  -12.8935   27.1709 C   0  0  0  0  0  0  0  0  0  0  0  0
    8.2066  -14.2250   25.1176 C   0  0  2  0  0  0  0  0  0  0  0  0
    7.4734  -14.6796   23.9137 N   0  0  0  0  0  0  0  0  0  0  0  0
    8.6273  -15.4313   25.8518 C   0  0  0  0  0  0  0  0  0  0  0  0
    7.7600  -16.3346   26.1275 O   0  0  0  0  0  0  0  0  0  0  0  0
    9.9421  -15.6999   26.2978 N   0  0  0  0  0  0  0  0  0  0  0  0
   10.2746  -16.9689   26.9642 C   0  0  1  0  0  0  0  0  0  0  0  0
   11.4520  -17.5743   26.2601 C   0  0  0  0  0  0  0  0  0  0  0  0
   11.9662  -18.8150   26.9041 C   0  0  0  0  0  0  0  0  0  0  0  0
   13.1358  -19.4462   26.1806 C   0  0  0  0  0  0  0  0  0  0  0  0
   13.5243  -20.7707   26.8493 C   0  0  0  0  0  0  0  0  0  0  0  0
   14.7163  -21.2473   26.1747 N   0  0  0  0  0  0  0  0  0  0  0  0
   10.5569  -16.6841   28.3691 C   0  0  0  0  0  0  0  0  0  0  0  0
   10.5919  -17.6063   29.2610 O   0  0  0  0  0  0  0  0  0  0  0  0
   10.8042  -15.4102   28.8159 O   0  0  0  0  0  0  0  0  0  0  0  0
  2  1  1  6
  3  2  1  0
  4  3  1  0
  5  4  1  0
  5  6  2  0
  7  2  1  0
  7  8  2  0
  9  5  1  0
 10 11  1  0
 12 11  1  0
 12 14  1  0
 12 13  1  1
 14 15  1  6
 15  7  1  0
 16 14  1  0
 17 16  2  0
 18 16  1  0
 19 25  1  0
 19 18  1  0
 19 20  1  6
 21 20  1  0
 22 21  1  0
 23 24  1  0
 23 22  1  0
 25 27  1  0
 26 25  2  0
M  END
$$$$
