DCG.pdb
     RDKit          3D

 19 18  0  0  1  0  0  0  0  0999 V2000
   18.5304  -11.3835  -15.9545 N   0  0  0  0  0  0  0  0  0  0  0  0
   18.5914   -9.9635  -15.9067 C   0  0  1  0  0  0  0  0  0  0  0  0
   17.3422   -9.3085  -15.3855 C   0  0  0  0  0  0  0  0  0  0  0  0
   16.1761   -9.7007  -16.2083 C   0  0  0  0  0  0  0  0  0  0  0  0
   16.1131   -9.2521  -17.3934 O   0  0  0  0  0  0  0  0  0  0  0  0
   19.7760   -9.4636  -15.1348 C   0  0  0  0  0  0  0  0  0  0  0  0
   20.0183   -9.9245  -13.9829 O   0  0  0  0  0  0  0  0  0  0  0  0
   15.1647  -10.5143  -15.7724 O   0  0  0  0  0  0  0  0  0  0  0  0
   20.6454   -8.4833  -15.6516 N   0  0  0  0  0  0  0  0  0  0  0  0
   21.9027   -8.0734  -15.0321 C   0  0  1  0  0  0  0  0  0  0  0  0
   22.9830   -8.8977  -15.7009 C   0  0  0  0  0  0  0  0  0  0  0  0
   23.6901  -10.1855  -14.7018 S   0  0  0  0  0  0  0  0  0  0  0  0
   22.1021   -6.6236  -15.1265 C   0  0  0  0  0  0  0  0  0  0  0  0
   21.9775   -6.0599  -16.2754 O   0  0  0  0  0  0  0  0  0  0  0  0
   22.4251   -5.7819  -14.0337 N   0  0  0  0  0  0  0  0  0  0  0  0
   22.5467   -4.3529  -14.2528 C   0  0  0  0  0  0  0  0  0  0  0  0
   21.2701   -3.6437  -14.0673 C   0  0  0  0  0  0  0  0  0  0  0  0
   20.2643   -3.9376  -14.7438 O   0  0  0  0  0  0  0  0  0  0  0  0
   21.1769   -2.6370  -13.1322 O   0  0  0  0  0  0  0  0  0  0  0  0
  2  1  1  1
  2  3  1  0
  3  4  1  0
  4  8  1  0
  5  4  2  0
  6  2  1  0
  6  7  2  0
  9  6  1  0
 10  9  1  0
 10 11  1  6
 12 11  1  0
 13 10  1  0
 14 13  2  0
 15 13  1  0
 16 15  1  0
 17 16  1  0
 17 19  1  0
 18 17  2  0
M  END
$$$$
