DCG.pdb
     RDKit          3D

 19 18  0  0  1  0  0  0  0  0999 V2000
   18.4057  -11.6331  -16.8292 N   0  0  0  0  0  0  0  0  0  0  0  0
   19.5150  -10.7701  -17.0468 C   0  0  1  0  0  0  0  0  0  0  0  0
   19.8744  -10.5785  -18.4943 C   0  0  0  0  0  0  0  0  0  0  0  0
   20.4071  -11.8376  -19.0613 C   0  0  0  0  0  0  0  0  0  0  0  0
   19.6244  -12.8343  -19.1221 O   0  0  0  0  0  0  0  0  0  0  0  0
   19.3393   -9.4309  -16.3949 C   0  0  0  0  0  0  0  0  0  0  0  0
   18.3624   -8.6960  -16.7170 O   0  0  0  0  0  0  0  0  0  0  0  0
   21.6867  -11.9939  -19.5226 O   0  0  0  0  0  0  0  0  0  0  0  0
   20.2355   -8.9507  -15.4203 N   0  0  0  0  0  0  0  0  0  0  0  0
   20.0917   -7.6847  -14.7065 C   0  0  1  0  0  0  0  0  0  0  0  0
   19.8380   -8.0509  -13.2590 C   0  0  0  0  0  0  0  0  0  0  0  0
   19.8018   -6.6871  -12.1209 S   0  0  0  0  0  0  0  0  0  0  0  0
   21.2526   -6.8135  -14.9159 C   0  0  0  0  0  0  0  0  0  0  0  0
   22.4280   -7.3315  -14.8566 O   0  0  0  0  0  0  0  0  0  0  0  0
   21.1797   -5.4243  -15.1837 N   0  0  0  0  0  0  0  0  0  0  0  0
   22.4079   -4.6682  -15.3406 C   0  0  0  0  0  0  0  0  0  0  0  0
   22.1644   -3.2779  -15.7586 C   0  0  0  0  0  0  0  0  0  0  0  0
   23.0997   -2.4579  -15.8494 O   0  0  0  0  0  0  0  0  0  0  0  0
   20.8838   -2.8680  -16.0565 O   0  0  0  0  0  0  0  0  0  0  0  0
  2  1  1  6
  2  3  1  0
  3  4  1  0
  4  8  1  0
  5  4  2  0
  6  2  1  0
  6  7  2  0
  9  6  1  0
 10  9  1  0
 10 11  1  1
 12 11  1  0
 13 10  1  0
 14 13  2  0
 15 13  1  0
 16 15  1  0
 17 16  1  0
 17 19  1  0
 18 17  2  0
M  END
$$$$
