DCG.pdb
     RDKit          3D

 19 18  0  0  1  0  0  0  0  0999 V2000
   14.7739  -11.3535  -12.8031 N   0  0  0  0  0  0  0  0  0  0  0  0
   15.7702  -10.7104  -13.5882 C   0  0  1  0  0  0  0  0  0  0  0  0
   15.3797  -10.4912  -15.0237 C   0  0  0  0  0  0  0  0  0  0  0  0
   15.2037  -11.7900  -15.7112 C   0  0  0  0  0  0  0  0  0  0  0  0
   14.1034  -11.9969  -16.3079 O   0  0  0  0  0  0  0  0  0  0  0  0
   16.2246   -9.4119  -12.9910 C   0  0  0  0  0  0  0  0  0  0  0  0
   15.3875   -8.4892  -12.7763 O   0  0  0  0  0  0  0  0  0  0  0  0
   16.1503  -12.7788  -15.7436 O   0  0  0  0  0  0  0  0  0  0  0  0
   17.5715   -9.1751  -12.6537 N   0  0  0  0  0  0  0  0  0  0  0  0
   18.0740   -7.9501  -12.0376 C   0  0  1  0  0  0  0  0  0  0  0  0
   17.9758   -8.1673  -10.5419 C   0  0  0  0  0  0  0  0  0  0  0  0
   18.6875   -6.8876   -9.5356 S   0  0  0  0  0  0  0  0  0  0  0  0
   19.4212   -7.6210  -12.5142 C   0  0  0  0  0  0  0  0  0  0  0  0
   20.2471   -8.5819  -12.7332 O   0  0  0  0  0  0  0  0  0  0  0  0
   19.8913   -6.3069  -12.7573 N   0  0  0  0  0  0  0  0  0  0  0  0
   21.2368   -6.1193  -13.2665 C   0  0  0  0  0  0  0  0  0  0  0  0
   21.6058   -4.6983  -13.3737 C   0  0  0  0  0  0  0  0  0  0  0  0
   20.7694   -3.7968  -13.1657 O   0  0  0  0  0  0  0  0  0  0  0  0
   22.8953   -4.3503  -13.7093 O   0  0  0  0  0  0  0  0  0  0  0  0
  2  1  1  1
  2  3  1  0
  3  4  1  0
  4  8  1  0
  5  4  2  0
  6  2  1  0
  6  7  2  0
  9  6  1  0
 10  9  1  0
 10 11  1  1
 12 11  1  0
 13 10  1  0
 14 13  2  0
 15 13  1  0
 16 15  1  0
 17 16  1  0
 17 19  1  0
 18 17  2  0
M  END
$$$$
