DCG.pdb
     RDKit          3D

 19 18  0  0  1  0  0  0  0  0999 V2000
   19.3425  -10.4982  -17.2031 N   0  0  0  0  0  0  0  0  0  0  0  0
   18.5892   -9.4203  -16.6615 C   0  0  1  0  0  0  0  0  0  0  0  0
   17.2476   -9.8188  -16.1115 C   0  0  0  0  0  0  0  0  0  0  0  0
   16.4245  -10.4442  -17.1708 C   0  0  0  0  0  0  0  0  0  0  0  0
   15.5019  -11.2367  -16.8098 O   0  0  0  0  0  0  0  0  0  0  0  0
   19.3479   -8.6539  -15.6193 C   0  0  0  0  0  0  0  0  0  0  0  0
   18.7221   -7.9894  -14.7448 O   0  0  0  0  0  0  0  0  0  0  0  0
   16.5954  -10.2219  -18.5110 O   0  0  0  0  0  0  0  0  0  0  0  0
   20.7557   -8.6450  -15.5752 N   0  0  0  0  0  0  0  0  0  0  0  0
   21.5539   -7.9707  -14.5549 C   0  0  1  0  0  0  0  0  0  0  0  0
   22.7597   -8.8561  -14.3190 C   0  0  0  0  0  0  0  0  0  0  0  0
   22.4194  -10.4222  -13.5521 S   0  0  0  0  0  0  0  0  0  0  0  0
   21.8801   -6.5960  -14.9478 C   0  0  0  0  0  0  0  0  0  0  0  0
   22.7531   -6.4125  -15.8737 O   0  0  0  0  0  0  0  0  0  0  0  0
   21.2987   -5.4360  -14.3792 N   0  0  0  0  0  0  0  0  0  0  0  0
   21.7814   -4.1299  -14.7867 C   0  0  0  0  0  0  0  0  0  0  0  0
   21.0563   -3.0306  -14.1288 C   0  0  0  0  0  0  0  0  0  0  0  0
   20.0509   -3.2511  -13.4244 O   0  0  0  0  0  0  0  0  0  0  0  0
   21.4896   -1.7333  -14.2891 O   0  0  0  0  0  0  0  0  0  0  0  0
  2  1  1  1
  2  3  1  0
  3  4  1  0
  4  8  1  0
  5  4  2  0
  6  2  1  0
  6  7  2  0
  9  6  1  0
 10  9  1  0
 10 11  1  6
 12 11  1  0
 13 10  1  0
 14 13  2  0
 15 13  1  0
 16 15  1  0
 17 16  1  0
 17 19  1  0
 18 17  2  0
M  END
$$$$
