DCG.pdb
     RDKit          3D

 19 18  0  0  1  0  0  0  0  0999 V2000
   21.1778  -11.6795  -15.7452 N   0  0  0  0  0  0  0  0  0  0  0  0
   20.2283  -10.6789  -16.0918 C   0  0  1  0  0  0  0  0  0  0  0  0
   18.7989  -11.1443  -16.0554 C   0  0  0  0  0  0  0  0  0  0  0  0
   18.5770  -12.1986  -17.0702 C   0  0  0  0  0  0  0  0  0  0  0  0
   19.4128  -12.2875  -18.0204 O   0  0  0  0  0  0  0  0  0  0  0  0
   20.3703   -9.4382  -15.2615 C   0  0  0  0  0  0  0  0  0  0  0  0
   20.0639   -9.4614  -14.0352 O   0  0  0  0  0  0  0  0  0  0  0  0
   17.5301  -13.0809  -17.0479 O   0  0  0  0  0  0  0  0  0  0  0  0
   20.8401   -8.2259  -15.8033 N   0  0  0  0  0  0  0  0  0  0  0  0
   21.0492   -6.9975  -15.0417 C   0  0  1  0  0  0  0  0  0  0  0  0
   22.5497   -6.8075  -14.9642 C   0  0  0  0  0  0  0  0  0  0  0  0
   23.0898   -5.2717  -14.2527 S   0  0  0  0  0  0  0  0  0  0  0  0
   20.3258   -5.8673  -15.6333 C   0  0  0  0  0  0  0  0  0  0  0  0
   20.3989   -5.6890  -16.9045 O   0  0  0  0  0  0  0  0  0  0  0  0
   19.5394   -4.9427  -14.9028 N   0  0  0  0  0  0  0  0  0  0  0  0
   18.9089   -3.8403  -15.6042 C   0  0  0  0  0  0  0  0  0  0  0  0
   18.1699   -2.9452  -14.6987 C   0  0  0  0  0  0  0  0  0  0  0  0
   17.3092   -3.3893  -13.9129 O   0  0  0  0  0  0  0  0  0  0  0  0
   18.4280   -1.5926  -14.7139 O   0  0  0  0  0  0  0  0  0  0  0  0
  2  1  1  1
  2  3  1  0
  3  4  1  0
  4  8  1  0
  5  4  2  0
  6  2  1  0
  6  7  2  0
  9  6  1  0
 10  9  1  0
 10 11  1  6
 12 11  1  0
 13 10  1  0
 14 13  2  0
 15 13  1  0
 16 15  1  0
 17 16  1  0
 17 19  1  0
 18 17  2  0
M  END
$$$$
