DCG.pdb
     RDKit          3D

 19 18  0  0  1  0  0  0  0  0999 V2000
   27.9257  -20.7151  -15.7244 N   0  0  0  0  0  0  0  0  0  0  0  0
   26.6726  -20.1481  -15.3624 C   0  0  1  0  0  0  0  0  0  0  0  0
   25.7782  -19.8301  -16.5286 C   0  0  0  0  0  0  0  0  0  0  0  0
   26.4120  -18.8142  -17.3987 C   0  0  0  0  0  0  0  0  0  0  0  0
   26.7095  -19.1559  -18.5837 O   0  0  0  0  0  0  0  0  0  0  0  0
   25.9231  -20.9912  -14.3742 C   0  0  0  0  0  0  0  0  0  0  0  0
   25.8314  -22.2395  -14.5516 O   0  0  0  0  0  0  0  0  0  0  0  0
   26.6963  -17.5336  -17.0065 O   0  0  0  0  0  0  0  0  0  0  0  0
   25.3060  -20.4376  -13.2356 N   0  0  0  0  0  0  0  0  0  0  0  0
   24.4895  -21.1850  -12.2829 C   0  0  1  0  0  0  0  0  0  0  0  0
   24.8414  -20.6375  -10.9154 C   0  0  0  0  0  0  0  0  0  0  0  0
   23.8906  -21.2893   -9.5635 S   0  0  0  0  0  0  0  0  0  0  0  0
   23.0639  -21.1067  -12.6177 C   0  0  0  0  0  0  0  0  0  0  0  0
   22.5999  -19.9974  -13.0732 O   0  0  0  0  0  0  0  0  0  0  0  0
   22.1434  -22.1744  -12.4776 N   0  0  0  0  0  0  0  0  0  0  0  0
   20.7532  -21.9619  -12.8341 C   0  0  0  0  0  0  0  0  0  0  0  0
   19.8899  -21.7845  -11.6550 C   0  0  0  0  0  0  0  0  0  0  0  0
   18.6514  -21.6921  -11.7700 O   0  0  0  0  0  0  0  0  0  0  0  0
   20.4523  -21.7187  -10.3997 O   0  0  0  0  0  0  0  0  0  0  0  0
  2  1  1  6
  2  3  1  0
  3  4  1  0
  4  8  1  0
  5  4  2  0
  6  2  1  0
  6  7  2  0
  9  6  1  0
 10  9  1  0
 10 11  1  1
 12 11  1  0
 13 10  1  0
 14 13  2  0
 15 13  1  0
 16 15  1  0
 17 16  1  0
 17 19  1  0
 18 17  2  0
M  END
$$$$
