DCG.pdb
     RDKit          3D

 19 18  0  0  1  0  0  0  0  0999 V2000
   15.0977  -10.2799   -9.8944 N   0  0  0  0  0  0  0  0  0  0  0  0
   15.4695   -9.9469  -11.2261 C   0  0  1  0  0  0  0  0  0  0  0  0
   14.3778  -10.1463  -12.2408 C   0  0  0  0  0  0  0  0  0  0  0  0
   14.0505  -11.5843  -12.3658 C   0  0  0  0  0  0  0  0  0  0  0  0
   12.9322  -11.8918  -12.8801 O   0  0  0  0  0  0  0  0  0  0  0  0
   16.0094   -8.5526  -11.3416 C   0  0  0  0  0  0  0  0  0  0  0  0
   15.4166   -7.7050  -12.0686 O   0  0  0  0  0  0  0  0  0  0  0  0
   14.8757  -12.5999  -11.9630 O   0  0  0  0  0  0  0  0  0  0  0  0
   17.1717   -8.1422  -10.6601 N   0  0  0  0  0  0  0  0  0  0  0  0
   17.7122   -6.7856  -10.6751 C   0  0  1  0  0  0  0  0  0  0  0  0
   17.6032   -6.2796   -9.2518 C   0  0  0  0  0  0  0  0  0  0  0  0
   15.9484   -6.0701   -8.6399 S   0  0  0  0  0  0  0  0  0  0  0  0
   19.0706   -6.7531  -11.2265 C   0  0  0  0  0  0  0  0  0  0  0  0
   19.9126   -7.6441  -10.8385 O   0  0  0  0  0  0  0  0  0  0  0  0
   19.5352   -5.8029  -12.1690 N   0  0  0  0  0  0  0  0  0  0  0  0
   20.8982   -5.8980  -12.6570 C   0  0  0  0  0  0  0  0  0  0  0  0
   21.1671   -4.9648  -13.7633 C   0  0  0  0  0  0  0  0  0  0  0  0
   20.2489   -4.3026  -14.2867 O   0  0  0  0  0  0  0  0  0  0  0  0
   22.4525   -4.8150  -14.2341 O   0  0  0  0  0  0  0  0  0  0  0  0
  2  1  1  1
  2  3  1  0
  3  4  1  0
  4  8  1  0
  5  4  2  0
  6  2  1  0
  6  7  2  0
  9  6  1  0
 10  9  1  0
 10 11  1  1
 12 11  1  0
 13 10  1  0
 14 13  2  0
 15 13  1  0
 16 15  1  0
 17 16  1  0
 17 19  1  0
 18 17  2  0
M  END
$$$$
