DCG.pdb
     RDKit          3D

 19 18  0  0  1  0  0  0  0  0999 V2000
   19.8689  -12.3834  -15.8288 N   0  0  0  0  0  0  0  0  0  0  0  0
   19.6627  -10.9807  -15.7161 C   0  0  1  0  0  0  0  0  0  0  0  0
   18.3325  -10.5968  -15.1292 C   0  0  0  0  0  0  0  0  0  0  0  0
   17.2378  -11.2944  -15.8403 C   0  0  0  0  0  0  0  0  0  0  0  0
   17.1241  -11.0949  -17.0881 O   0  0  0  0  0  0  0  0  0  0  0  0
   20.7595  -10.2967  -14.9557 C   0  0  0  0  0  0  0  0  0  0  0  0
   21.4510  -10.9491  -14.1224 O   0  0  0  0  0  0  0  0  0  0  0  0
   16.3434  -12.1385  -15.2385 O   0  0  0  0  0  0  0  0  0  0  0  0
   21.0554   -8.9315  -15.1363 N   0  0  0  0  0  0  0  0  0  0  0  0
   22.2989   -8.2860  -14.7244 C   0  0  1  0  0  0  0  0  0  0  0  0
   23.4022   -8.9807  -15.4953 C   0  0  0  0  0  0  0  0  0  0  0  0
   24.2389  -10.2839  -14.6246 S   0  0  0  0  0  0  0  0  0  0  0  0
   22.2435   -6.8341  -14.9230 C   0  0  0  0  0  0  0  0  0  0  0  0
   21.9055   -6.3847  -16.0793 O   0  0  0  0  0  0  0  0  0  0  0  0
   22.5368   -5.8726  -13.9248 N   0  0  0  0  0  0  0  0  0  0  0  0
   22.4767   -4.4625  -14.2609 C   0  0  0  0  0  0  0  0  0  0  0  0
   21.1601   -3.8702  -13.9732 C   0  0  0  0  0  0  0  0  0  0  0  0
   20.2082   -4.5733  -13.5796 O   0  0  0  0  0  0  0  0  0  0  0  0
   20.9685   -2.5165  -14.1391 O   0  0  0  0  0  0  0  0  0  0  0  0
  2  1  1  1
  2  3  1  0
  3  4  1  0
  4  8  1  0
  5  4  2  0
  6  2  1  0
  6  7  2  0
  9  6  1  0
 10  9  1  0
 10 11  1  6
 12 11  1  0
 13 10  1  0
 14 13  2  0
 15 13  1  0
 16 15  1  0
 17 16  1  0
 17 19  1  0
 18 17  2  0
M  END
$$$$
