DCG.pdb
     RDKit          3D

 19 18  0  0  1  0  0  0  0  0999 V2000
   20.5303  -13.6195  -16.1135 N   0  0  0  0  0  0  0  0  0  0  0  0
   20.6060  -12.3649  -16.7790 C   0  0  1  0  0  0  0  0  0  0  0  0
   19.2853  -11.8519  -17.2828 C   0  0  0  0  0  0  0  0  0  0  0  0
   18.6442  -12.8588  -18.1578 C   0  0  0  0  0  0  0  0  0  0  0  0
   17.4982  -13.2874  -17.8221 O   0  0  0  0  0  0  0  0  0  0  0  0
   21.2655  -11.3087  -15.9433 C   0  0  0  0  0  0  0  0  0  0  0  0
   20.8543  -11.0857  -14.7688 O   0  0  0  0  0  0  0  0  0  0  0  0
   19.2080  -13.3549  -19.3027 O   0  0  0  0  0  0  0  0  0  0  0  0
   22.3445  -10.5412  -16.4234 N   0  0  0  0  0  0  0  0  0  0  0  0
   23.1153   -9.5935  -15.6231 C   0  0  1  0  0  0  0  0  0  0  0  0
   24.5712   -9.9310  -15.8683 C   0  0  0  0  0  0  0  0  0  0  0  0
   25.1230  -11.4758  -15.1858 S   0  0  0  0  0  0  0  0  0  0  0  0
   22.7547   -8.2068  -15.9351 C   0  0  0  0  0  0  0  0  0  0  0  0
   22.5631   -7.8837  -17.1648 O   0  0  0  0  0  0  0  0  0  0  0  0
   22.5972   -7.1791  -14.9728 N   0  0  0  0  0  0  0  0  0  0  0  0
   22.2607   -5.8394  -15.4165 C   0  0  0  0  0  0  0  0  0  0  0  0
   22.1969   -4.8768  -14.3046 C   0  0  0  0  0  0  0  0  0  0  0  0
   22.2619   -5.2560  -13.1182 O   0  0  0  0  0  0  0  0  0  0  0  0
   22.0632   -3.5324  -14.5711 O   0  0  0  0  0  0  0  0  0  0  0  0
  2  1  1  1
  2  3  1  0
  3  4  1  0
  4  8  1  0
  5  4  2  0
  6  2  1  0
  6  7  2  0
  9  6  1  0
 10  9  1  0
 10 11  1  6
 12 11  1  0
 13 10  1  0
 14 13  2  0
 15 13  1  0
 16 15  1  0
 17 16  1  0
 17 19  1  0
 18 17  2  0
M  END
$$$$
