DCG.pdb
     RDKit          3D

 19 18  0  0  1  0  0  0  0  0999 V2000
   20.8286  -21.0366  -11.7819 N   0  0  0  0  0  0  0  0  0  0  0  0
   21.8342  -21.2520  -12.7642 C   0  0  1  0  0  0  0  0  0  0  0  0
   21.4134  -20.9056  -14.1657 C   0  0  0  0  0  0  0  0  0  0  0  0
   20.1842  -21.6453  -14.5295 C   0  0  0  0  0  0  0  0  0  0  0  0
   19.2277  -20.9852  -15.0384 O   0  0  0  0  0  0  0  0  0  0  0  0
   23.1169  -20.5460  -12.4396 C   0  0  0  0  0  0  0  0  0  0  0  0
   23.1916  -19.2892  -12.5543 O   0  0  0  0  0  0  0  0  0  0  0  0
   20.0149  -22.9924  -14.3521 O   0  0  0  0  0  0  0  0  0  0  0  0
   24.2626  -21.2399  -12.0041 N   0  0  0  0  0  0  0  0  0  0  0  0
   25.5415  -20.6157  -11.6765 C   0  0  1  0  0  0  0  0  0  0  0  0
   26.0083  -21.2736  -10.3947 C   0  0  0  0  0  0  0  0  0  0  0  0
   25.7127  -20.3463   -8.9083 S   0  0  0  0  0  0  0  0  0  0  0  0
   26.4911  -20.7172  -12.7894 C   0  0  0  0  0  0  0  0  0  0  0  0
   26.6105  -21.8456  -13.3941 O   0  0  0  0  0  0  0  0  0  0  0  0
   27.2991  -19.6524  -13.2589 N   0  0  0  0  0  0  0  0  0  0  0  0
   28.1805  -19.8778  -14.3890 C   0  0  0  0  0  0  0  0  0  0  0  0
   27.5779  -19.4605  -15.6657 C   0  0  0  0  0  0  0  0  0  0  0  0
   26.3649  -19.1822  -15.7463 O   0  0  0  0  0  0  0  0  0  0  0  0
   28.3611  -19.3734  -16.7951 O   0  0  0  0  0  0  0  0  0  0  0  0
  2  1  1  1
  2  3  1  0
  3  4  1  0
  4  8  1  0
  5  4  2  0
  6  2  1  0
  6  7  2  0
  9  6  1  0
 10  9  1  0
 10 11  1  1
 12 11  1  0
 13 10  1  0
 14 13  2  0
 15 13  1  0
 16 15  1  0
 17 16  1  0
 17 19  1  0
 18 17  2  0
M  END
$$$$
