DCG.pdb
     RDKit          3D

 19 18  0  0  1  0  0  0  0  0999 V2000
   21.1454  -12.8412  -18.0457 N   0  0  0  0  0  0  0  0  0  0  0  0
   21.6633  -11.5168  -18.0262 C   0  0  1  0  0  0  0  0  0  0  0  0
   21.9903  -10.9610  -19.3846 C   0  0  0  0  0  0  0  0  0  0  0  0
   23.0410  -11.7772  -20.0331 C   0  0  0  0  0  0  0  0  0  0  0  0
   24.2500  -11.5080  -19.7586 O   0  0  0  0  0  0  0  0  0  0  0  0
   20.7682  -10.5592  -17.2976 C   0  0  0  0  0  0  0  0  0  0  0  0
   19.5473  -10.4720  -17.6140 O   0  0  0  0  0  0  0  0  0  0  0  0
   22.7911  -12.8008  -20.9075 O   0  0  0  0  0  0  0  0  0  0  0  0
   21.2420   -9.7381  -16.2559 N   0  0  0  0  0  0  0  0  0  0  0  0
   20.4355   -8.7578  -15.5340 C   0  0  1  0  0  0  0  0  0  0  0  0
   20.1269   -9.3835  -14.1897 C   0  0  0  0  0  0  0  0  0  0  0  0
   19.3488   -8.3094  -13.0075 S   0  0  0  0  0  0  0  0  0  0  0  0
   21.1099   -7.4580  -15.4560 C   0  0  0  0  0  0  0  0  0  0  0  0
   22.3618   -7.4320  -15.1641 O   0  0  0  0  0  0  0  0  0  0  0  0
   20.4807   -6.2089  -15.6818 N   0  0  0  0  0  0  0  0  0  0  0  0
   21.2692   -4.9939  -15.5987 C   0  0  0  0  0  0  0  0  0  0  0  0
   21.3769   -4.4851  -14.2215 C   0  0  0  0  0  0  0  0  0  0  0  0
   20.8634   -5.0987  -13.2647 O   0  0  0  0  0  0  0  0  0  0  0  0
   22.0551   -3.3117  -13.9773 O   0  0  0  0  0  0  0  0  0  0  0  0
  2  1  1  6
  2  3  1  0
  3  4  1  0
  4  8  1  0
  5  4  2  0
  6  2  1  0
  6  7  2  0
  9  6  1  0
 10  9  1  0
 10 11  1  1
 12 11  1  0
 13 10  1  0
 14 13  2  0
 15 13  1  0
 16 15  1  0
 17 16  1  0
 17 19  1  0
 18 17  2  0
M  END
$$$$
