DCG.pdb
     RDKit          3D

 19 18  0  0  1  0  0  0  0  0999 V2000
   19.9255  -12.7694  -17.0075 N   0  0  0  0  0  0  0  0  0  0  0  0
   20.8502  -11.6916  -16.9301 C   0  0  1  0  0  0  0  0  0  0  0  0
   21.7636  -11.5745  -18.1189 C   0  0  0  0  0  0  0  0  0  0  0  0
   22.5569  -12.8136  -18.2801 C   0  0  0  0  0  0  0  0  0  0  0  0
   22.3953  -13.4825  -19.3459 O   0  0  0  0  0  0  0  0  0  0  0  0
   20.1787  -10.3733  -16.6851 C   0  0  0  0  0  0  0  0  0  0  0  0
   19.0828  -10.1078  -17.2566 O   0  0  0  0  0  0  0  0  0  0  0  0
   23.4509  -13.2816  -17.3546 O   0  0  0  0  0  0  0  0  0  0  0  0
   20.7304   -9.4013  -15.8279 N   0  0  0  0  0  0  0  0  0  0  0  0
   20.0644   -8.1631  -15.4328 C   0  0  1  0  0  0  0  0  0  0  0  0
   18.7846   -8.5831  -14.7403 C   0  0  0  0  0  0  0  0  0  0  0  0
   17.8092   -7.2587  -14.0685 S   0  0  0  0  0  0  0  0  0  0  0  0
   20.9422   -7.3152  -14.6198 C   0  0  0  0  0  0  0  0  0  0  0  0
   21.7660   -7.8812  -13.8108 O   0  0  0  0  0  0  0  0  0  0  0  0
   20.9550   -5.8991  -14.6572 N   0  0  0  0  0  0  0  0  0  0  0  0
   21.9285   -5.1787  -13.8582 C   0  0  0  0  0  0  0  0  0  0  0  0
   21.7272   -3.7211  -13.9038 C   0  0  0  0  0  0  0  0  0  0  0  0
   22.4294   -2.9509  -13.2189 O   0  0  0  0  0  0  0  0  0  0  0  0
   20.7482   -3.1913  -14.7146 O   0  0  0  0  0  0  0  0  0  0  0  0
  2  1  1  6
  2  3  1  0
  3  4  1  0
  4  8  1  0
  5  4  2  0
  6  2  1  0
  6  7  2  0
  9  6  1  0
 10  9  1  0
 10 11  1  1
 12 11  1  0
 13 10  1  0
 14 13  2  0
 15 13  1  0
 16 15  1  0
 17 16  1  0
 17 19  1  0
 18 17  2  0
M  END
$$$$
