YNM.pdb
     RDKit          3D

 29 29  0  0  1  0  0  0  0  0999 V2000
    7.1961  -12.3064   16.7156 O   0  0  0  0  0  0  0  0  0  0  0  0
    7.5416  -13.0068   17.8722 C   0  0  0  0  0  0  0  0  0  0  0  0
    8.8764  -13.2156   18.2031 C   0  0  0  0  0  0  0  0  0  0  0  0
    9.2397  -13.9047   19.3409 C   0  0  0  0  0  0  0  0  0  0  0  0
    8.2305  -14.3844   20.1472 C   0  0  0  0  0  0  0  0  0  0  0  0
    8.5591  -15.1346   21.3864 C   0  0  0  0  0  0  0  0  0  0  0  0
    8.9104  -16.5787   21.0877 C   0  0  2  0  0  0  0  0  0  0  0  0
    7.8401  -17.2091   20.3426 N   0  0  0  0  0  0  0  0  0  0  0  0
    9.1077  -17.2854   22.3559 C   0  0  0  0  0  0  0  0  0  0  0  0
    8.7217  -18.4749   22.4640 O   0  0  0  0  0  0  0  0  0  0  0  0
    6.8937  -14.1885   19.8379 C   0  0  0  0  0  0  0  0  0  0  0  0
    6.5326  -13.4911   18.6863 C   0  0  0  0  0  0  0  0  0  0  0  0
   13.9330  -18.0613   24.4369 N   0  0  0  0  0  0  0  0  0  0  0  0
   12.8661  -17.4056   23.7729 C   0  0  0  0  0  0  0  0  0  0  0  0
   13.0980  -16.2200   23.4067 O   0  0  0  0  0  0  0  0  0  0  0  0
   11.6157  -18.1392   23.5722 C   0  0  0  0  0  0  0  0  0  0  0  0
   10.5116  -17.4724   24.3625 C   0  0  2  0  0  0  0  0  0  0  0  0
    9.7363  -16.6545   23.4939 N   0  0  0  0  0  0  0  0  0  0  0  0
   11.1882  -16.6926   25.4355 C   0  0  0  0  0  0  0  0  0  0  0  0
   12.1079  -17.2314   26.1055 O   0  0  0  0  0  0  0  0  0  0  0  0
    7.3211  -10.7783   26.5006 C   0  0  0  0  0  0  0  0  0  0  0  0
    6.6092  -12.4044   26.7458 S   0  0  0  0  0  0  0  0  0  0  0  0
    7.7234  -13.6870   27.2585 C   0  0  0  0  0  0  0  0  0  0  0  0
    8.7660  -14.1542   26.3361 C   0  0  0  0  0  0  0  0  0  0  0  0
    9.8878  -14.9820   26.7665 C   0  0  2  0  0  0  0  0  0  0  0  0
   10.8167  -15.3487   25.7200 N   0  0  0  0  0  0  0  0  0  0  0  0
    9.4784  -16.1019   27.6363 C   0  0  0  0  0  0  0  0  0  0  0  0
    8.6864  -16.9745   27.2157 O   0  0  0  0  0  0  0  0  0  0  0  0
    9.9484  -16.2200   28.9351 O   0  0  0  0  0  0  0  0  0  0  0  0
  2  1  1  0
  3  2  2  0
  4  3  1  0
  5 11  1  0
  5  4  2  0
  6  5  1  0
  7  6  1  0
  7  8  1  1
  9  7  1  0
 10  9  2  0
 11 12  2  0
 12  2  1  0
 13 14  1  0
 14 15  2  0
 16 14  1  0
 17 16  1  6
 17 18  1  0
 18  9  1  0
 19 17  1  0
 19 26  1  0
 20 19  2  0
 22 21  1  0
 23 24  1  0
 23 22  1  0
 25 24  1  6
 25 26  1  0
 25 27  1  0
 27 28  2  0
 27 29  1  0
M  END
$$$$
