YNM.pdb
     RDKit          3D

 29 29  0  0  1  0  0  0  0  0999 V2000
    8.9218  -11.9453   17.6996 O   0  0  0  0  0  0  0  0  0  0  0  0
    8.4528  -13.1930   18.1127 C   0  0  0  0  0  0  0  0  0  0  0  0
    9.0130  -14.3632   17.6110 C   0  0  0  0  0  0  0  0  0  0  0  0
    8.5648  -15.6061   18.0057 C   0  0  0  0  0  0  0  0  0  0  0  0
    7.5356  -15.6536   18.9208 C   0  0  0  0  0  0  0  0  0  0  0  0
    7.0097  -16.9631   19.3842 C   0  0  0  0  0  0  0  0  0  0  0  0
    7.1398  -17.1165   20.8867 C   0  0  2  0  0  0  0  0  0  0  0  0
    6.4291  -16.0496   21.5609 N   0  0  0  0  0  0  0  0  0  0  0  0
    8.5600  -17.0614   21.2426 C   0  0  0  0  0  0  0  0  0  0  0  0
    9.2965  -18.0459   20.9894 O   0  0  0  0  0  0  0  0  0  0  0  0
    6.9620  -14.5010   19.4344 C   0  0  0  0  0  0  0  0  0  0  0  0
    7.4193  -13.2475   19.0316 C   0  0  0  0  0  0  0  0  0  0  0  0
   12.1215  -14.0202   19.8424 N   0  0  0  0  0  0  0  0  0  0  0  0
   11.7645  -15.1372   20.6386 C   0  0  0  0  0  0  0  0  0  0  0  0
   11.8685  -16.2630   20.0770 O   0  0  0  0  0  0  0  0  0  0  0  0
   11.3164  -14.8985   22.0113 C   0  0  0  0  0  0  0  0  0  0  0  0
   10.4373  -16.0458   22.4576 C   0  0  2  0  0  0  0  0  0  0  0  0
    9.1451  -15.9037   21.8794 N   0  0  0  0  0  0  0  0  0  0  0  0
   10.4116  -15.9885   23.9454 C   0  0  0  0  0  0  0  0  0  0  0  0
   11.4973  -15.9500   24.5817 O   0  0  0  0  0  0  0  0  0  0  0  0
    7.3271  -11.3171   26.5642 C   0  0  0  0  0  0  0  0  0  0  0  0
    8.1542  -12.8819   26.8447 S   0  0  0  0  0  0  0  0  0  0  0  0
    7.2397  -14.3456   26.4318 C   0  0  0  0  0  0  0  0  0  0  0  0
    7.8302  -15.6659   26.6852 C   0  0  0  0  0  0  0  0  0  0  0  0
    9.1006  -16.0872   26.1041 C   0  0  2  0  0  0  0  0  0  0  0  0
    9.1836  -15.9760   24.6643 N   0  0  0  0  0  0  0  0  0  0  0  0
    9.5840  -17.3731   26.6438 C   0  0  0  0  0  0  0  0  0  0  0  0
    9.4547  -18.4271   25.9818 O   0  0  0  0  0  0  0  0  0  0  0  0
   10.1857  -17.4558   27.8898 O   0  0  0  0  0  0  0  0  0  0  0  0
  2  1  1  0
  3  2  2  0
  4  3  1  0
  5 11  1  0
  5  4  2  0
  6  5  1  0
  7  6  1  0
  7  8  1  1
  9  7  1  0
 10  9  2  0
 11 12  2  0
 12  2  1  0
 13 14  1  0
 14 15  2  0
 16 14  1  0
 17 16  1  6
 17 18  1  0
 18  9  1  0
 19 17  1  0
 19 26  1  0
 20 19  2  0
 22 21  1  0
 23 24  1  0
 23 22  1  0
 25 24  1  6
 25 26  1  0
 25 27  1  0
 27 28  2  0
 27 29  1  0
M  END
$$$$
