YNM.pdb
     RDKit          3D

 29 29  0  0  1  0  0  0  0  0999 V2000
    8.1502  -11.8141   17.8583 O   0  0  0  0  0  0  0  0  0  0  0  0
    7.8945  -12.6396   18.9541 C   0  0  0  0  0  0  0  0  0  0  0  0
    8.8091  -12.7371   19.9976 C   0  0  0  0  0  0  0  0  0  0  0  0
    8.5764  -13.5465   21.0894 C   0  0  0  0  0  0  0  0  0  0  0  0
    7.3991  -14.2622   21.1151 C   0  0  0  0  0  0  0  0  0  0  0  0
    7.0921  -15.1514   22.2646 C   0  0  0  0  0  0  0  0  0  0  0  0
    7.5010  -16.5844   21.9862 C   0  0  2  0  0  0  0  0  0  0  0  0
    6.3399  -17.4497   22.0160 N   0  0  0  0  0  0  0  0  0  0  0  0
    8.4550  -17.0080   23.0143 C   0  0  0  0  0  0  0  0  0  0  0  0
    8.0255  -17.4783   24.0961 O   0  0  0  0  0  0  0  0  0  0  0  0
    6.4730  -14.1809   20.0871 C   0  0  0  0  0  0  0  0  0  0  0  0
    6.7139  -13.3610   18.9860 C   0  0  0  0  0  0  0  0  0  0  0  0
   13.1125  -19.5116   24.5136 N   0  0  0  0  0  0  0  0  0  0  0  0
   12.9765  -18.1052   24.4027 C   0  0  0  0  0  0  0  0  0  0  0  0
   13.6167  -17.4264   25.2530 O   0  0  0  0  0  0  0  0  0  0  0  0
   12.1265  -17.5701   23.3382 C   0  0  0  0  0  0  0  0  0  0  0  0
   10.7294  -17.3511   23.8754 C   0  0  2  0  0  0  0  0  0  0  0  0
    9.8834  -16.9022   22.8232 N   0  0  0  0  0  0  0  0  0  0  0  0
   10.8633  -16.3526   24.9721 C   0  0  0  0  0  0  0  0  0  0  0  0
   11.0147  -15.1360   24.6857 O   0  0  0  0  0  0  0  0  0  0  0  0
    6.7730  -12.6877   26.8038 C   0  0  0  0  0  0  0  0  0  0  0  0
    8.1119  -12.6026   27.9919 S   0  0  0  0  0  0  0  0  0  0  0  0
    8.9149  -14.1342   28.3902 C   0  0  0  0  0  0  0  0  0  0  0  0
    9.3952  -15.0044   27.3094 C   0  0  0  0  0  0  0  0  0  0  0  0
   10.5985  -15.8208   27.4289 C   0  0  2  0  0  0  0  0  0  0  0  0
   10.8234  -16.7453   26.3392 N   0  0  0  0  0  0  0  0  0  0  0  0
   10.7647  -16.4110   28.7714 C   0  0  0  0  0  0  0  0  0  0  0  0
   10.6377  -15.7030   29.7953 O   0  0  0  0  0  0  0  0  0  0  0  0
   11.0688  -17.7528   28.9406 O   0  0  0  0  0  0  0  0  0  0  0  0
  2  1  1  0
  3  2  2  0
  4  3  1  0
  5 11  1  0
  5  4  2  0
  6  5  1  0
  7  6  1  0
  7  8  1  1
  9  7  1  0
 10  9  2  0
 11 12  2  0
 12  2  1  0
 13 14  1  0
 14 15  2  0
 16 14  1  0
 17 16  1  6
 17 18  1  0
 18  9  1  0
 19 17  1  0
 19 26  1  0
 20 19  2  0
 22 21  1  0
 23 24  1  0
 23 22  1  0
 25 24  1  1
 25 26  1  0
 25 27  1  0
 27 28  2  0
 27 29  1  0
M  END
$$$$
