YNM.pdb
     RDKit          3D

 29 29  0  0  1  0  0  0  0  0999 V2000
   10.5999  -24.1016   20.0871 O   0  0  0  0  0  0  0  0  0  0  0  0
   10.4904  -22.7409   20.3773 C   0  0  0  0  0  0  0  0  0  0  0  0
    9.3525  -22.0275   20.0152 C   0  0  0  0  0  0  0  0  0  0  0  0
    9.2238  -20.6830   20.2923 C   0  0  0  0  0  0  0  0  0  0  0  0
   10.2667  -20.0621   20.9449 C   0  0  0  0  0  0  0  0  0  0  0  0
   10.1866  -18.6151   21.2707 C   0  0  0  0  0  0  0  0  0  0  0  0
   10.4091  -17.7538   20.0434 C   0  0  2  0  0  0  0  0  0  0  0  0
   11.7619  -17.9221   19.5538 N   0  0  0  0  0  0  0  0  0  0  0  0
   10.1904  -16.3518   20.4083 C   0  0  0  0  0  0  0  0  0  0  0  0
   11.1734  -15.6370   20.7223 O   0  0  0  0  0  0  0  0  0  0  0  0
   11.4100  -20.7524   21.3155 C   0  0  0  0  0  0  0  0  0  0  0  0
   11.5344  -22.1116   21.0327 C   0  0  0  0  0  0  0  0  0  0  0  0
    8.2221  -12.6772   17.8178 N   0  0  0  0  0  0  0  0  0  0  0  0
    7.7913  -13.8632   18.4633 C   0  0  0  0  0  0  0  0  0  0  0  0
    7.6461  -14.8696   17.7151 O   0  0  0  0  0  0  0  0  0  0  0  0
    7.5566  -13.8237   19.9074 C   0  0  0  0  0  0  0  0  0  0  0  0
    8.7756  -14.3562   20.6276 C   0  0  2  0  0  0  0  0  0  0  0  0
    8.8720  -15.7603   20.4188 N   0  0  0  0  0  0  0  0  0  0  0  0
    8.5937  -13.9987   22.0617 C   0  0  0  0  0  0  0  0  0  0  0  0
    8.3849  -12.7982   22.3782 O   0  0  0  0  0  0  0  0  0  0  0  0
    7.2482  -11.2478   28.1183 C   0  0  0  0  0  0  0  0  0  0  0  0
    6.7030  -11.7581   26.4893 S   0  0  0  0  0  0  0  0  0  0  0  0
    6.8438  -13.4867   26.1131 C   0  0  0  0  0  0  0  0  0  0  0  0
    7.2228  -13.9059   24.7578 C   0  0  0  0  0  0  0  0  0  0  0  0
    8.4126  -14.7042   24.4820 C   0  0  2  0  0  0  0  0  0  0  0  0
    8.6509  -14.9873   23.0836 N   0  0  0  0  0  0  0  0  0  0  0  0
    8.5402  -15.8760   25.3702 C   0  0  0  0  0  0  0  0  0  0  0  0
    8.6957  -17.0212   24.8904 O   0  0  0  0  0  0  0  0  0  0  0  0
    8.4874  -15.7491   26.7496 O   0  0  0  0  0  0  0  0  0  0  0  0
  2  1  1  0
  3  2  2  0
  4  3  1  0
  5 11  1  0
  5  4  2  0
  6  5  1  0
  7  6  1  0
  7  8  1  1
  9  7  1  0
 10  9  2  0
 11 12  2  0
 12  2  1  0
 13 14  1  0
 14 15  2  0
 16 14  1  0
 17 16  1  6
 17 18  1  0
 18  9  1  0
 19 17  1  0
 19 26  1  0
 20 19  2  0
 22 21  1  0
 23 24  1  0
 23 22  1  0
 25 24  1  6
 25 26  1  0
 25 27  1  0
 27 28  2  0
 27 29  1  0
M  END
$$$$
