THQ.pdb
     RDKit          3D

 27 27  0  0  1  0  0  0  0  0999 V2000
   21.9745  -11.2887  -21.5363 C   0  0  0  0  0  0  0  0  0  0  0  0
   21.4948  -10.7090  -20.2222 C   0  0  1  0  0  0  0  0  0  0  0  0
   22.1103  -11.3529  -19.1698 O   0  0  0  0  0  0  0  0  0  0  0  0
   21.7905   -9.2388  -20.1114 C   0  0  2  0  0  0  0  0  0  0  0  0
   23.2034   -9.0439  -20.3071 N   0  0  0  0  0  0  0  0  0  0  0  0
   21.3137   -8.7519  -18.8128 C   0  0  0  0  0  0  0  0  0  0  0  0
   20.0659   -8.7679  -18.6085 O   0  0  0  0  0  0  0  0  0  0  0  0
   22.1583   -8.2670  -17.7774 N   0  0  0  0  0  0  0  0  0  0  0  0
   21.6071   -7.8787  -16.5203 C   0  0  1  0  0  0  0  0  0  0  0  0
   22.5203   -8.1681  -15.3543 C   0  0  0  0  0  0  0  0  0  0  0  0
   22.6578   -9.6058  -15.0806 C   0  0  0  0  0  0  0  0  0  0  0  0
   21.9164  -10.5685  -15.7393 C   0  0  0  0  0  0  0  0  0  0  0  0
   22.2712  -11.7670  -15.2683 N   0  0  0  0  0  0  0  0  0  0  0  0
   23.2206  -11.6054  -14.3243 C   0  0  0  0  0  0  0  0  0  0  0  0
   23.4374  -10.2821  -14.2295 N   0  0  0  0  0  0  0  0  0  0  0  0
   21.3339   -6.4010  -16.4746 C   0  0  0  0  0  0  0  0  0  0  0  0
   22.2395   -5.6592  -16.9326 O   0  0  0  0  0  0  0  0  0  0  0  0
   18.7283   -2.1426  -19.3612 N   0  0  0  0  0  0  0  0  0  0  0  0
   18.2427   -3.4686  -19.3006 C   0  0  0  0  0  0  0  0  0  0  0  0
   17.3628   -3.8260  -20.1110 O   0  0  0  0  0  0  0  0  0  0  0  0
   18.7598   -4.3986  -18.3103 C   0  0  0  0  0  0  0  0  0  0  0  0
   19.8662   -3.9230  -17.4462 C   0  0  0  0  0  0  0  0  0  0  0  0
   19.8566   -4.4107  -16.0334 C   0  0  2  0  0  0  0  0  0  0  0  0
   20.1547   -5.8467  -15.9609 N   0  0  0  0  0  0  0  0  0  0  0  0
   18.5417   -4.1868  -15.4032 C   0  0  0  0  0  0  0  0  0  0  0  0
   18.0978   -2.8873  -15.0902 O   0  0  0  0  0  0  0  0  0  0  0  0
   17.7331   -5.1011  -15.1017 O   0  0  0  0  0  0  0  0  0  0  0  0
  2  1  1  6
  2  4  1  0
  3  2  1  0
  4  5  1  1
  4  6  1  0
  6  7  2  0
  8  6  1  0
  8  9  1  0
  9 10  1  1
 11 10  1  0
 12 11  2  0
 13 12  1  0
 14 13  1  0
 14 15  2  0
 15 11  1  0
 16 17  2  0
 16  9  1  0
 18 19  1  0
 19 21  1  0
 20 19  2  0
 22 21  1  0
 23 22  1  6
 23 24  1  0
 24 16  1  0
 25 23  1  0
 25 26  1  0
 27 25  2  0
M  END
$$$$
