THQ.pdb
     RDKit          3D

 27 27  0  0  1  0  0  0  0  0999 V2000
   27.1366  -34.0938  -14.8426 C   0  0  0  0  0  0  0  0  0  0  0  0
   26.8084  -33.4751  -16.1851 C   0  0  1  0  0  0  0  0  0  0  0  0
   27.6249  -34.0055  -17.1614 O   0  0  0  0  0  0  0  0  0  0  0  0
   25.3792  -33.7171  -16.5851 C   0  0  2  0  0  0  0  0  0  0  0  0
   25.1834  -33.1905  -17.9106 N   0  0  0  0  0  0  0  0  0  0  0  0
   24.4938  -33.1113  -15.5851 C   0  0  0  0  0  0  0  0  0  0  0  0
   23.5444  -32.3918  -16.0092 O   0  0  0  0  0  0  0  0  0  0  0  0
   24.6341  -33.2801  -14.1807 N   0  0  0  0  0  0  0  0  0  0  0  0
   23.6421  -32.7707  -13.2911 C   0  0  1  0  0  0  0  0  0  0  0  0
   22.2488  -33.2522  -13.6136 C   0  0  0  0  0  0  0  0  0  0  0  0
   21.2197  -32.6260  -12.7713 C   0  0  0  0  0  0  0  0  0  0  0  0
   21.4359  -31.4551  -12.0695 C   0  0  0  0  0  0  0  0  0  0  0  0
   20.3170  -31.1497  -11.4068 N   0  0  0  0  0  0  0  0  0  0  0  0
   19.3845  -32.0903  -11.6610 C   0  0  0  0  0  0  0  0  0  0  0  0
   19.9588  -32.9762  -12.4931 N   0  0  0  0  0  0  0  0  0  0  0  0
   23.9080  -33.1942  -11.8732 C   0  0  0  0  0  0  0  0  0  0  0  0
   23.7729  -34.4201  -11.6302 O   0  0  0  0  0  0  0  0  0  0  0  0
   22.4894  -33.9917   -6.3857 N   0  0  0  0  0  0  0  0  0  0  0  0
   21.6735  -33.3669   -7.3561 C   0  0  0  0  0  0  0  0  0  0  0  0
   20.5475  -32.9474   -7.0174 O   0  0  0  0  0  0  0  0  0  0  0  0
   22.1392  -33.2167   -8.7249 C   0  0  0  0  0  0  0  0  0  0  0  0
   23.4873  -33.7439   -9.0441 C   0  0  0  0  0  0  0  0  0  0  0  0
   24.5058  -32.7368   -9.4709 C   0  0  2  0  0  0  0  0  0  0  0  0
   24.2851  -32.3068  -10.8574 N   0  0  0  0  0  0  0  0  0  0  0  0
   25.8705  -33.2895   -9.3780 C   0  0  0  0  0  0  0  0  0  0  0  0
   26.3440  -33.8585   -8.1797 O   0  0  0  0  0  0  0  0  0  0  0  0
   26.6987  -33.3006  -10.3238 O   0  0  0  0  0  0  0  0  0  0  0  0
  2  1  1  1
  2  4  1  0
  3  2  1  0
  4  5  1  6
  4  6  1  0
  6  7  2  0
  8  6  1  0
  8  9  1  0
  9 10  1  6
 11 10  1  0
 12 11  2  0
 13 12  1  0
 14 13  1  0
 14 15  2  0
 15 11  1  0
 16 17  2  0
 16  9  1  0
 18 19  1  0
 19 21  1  0
 20 19  2  0
 22 21  1  0
 23 22  1  6
 23 24  1  0
 24 16  1  0
 25 23  1  0
 25 26  1  0
 27 25  2  0
M  END
$$$$
