THQ.pdb
     RDKit          3D

 27 27  0  0  1  0  0  0  0  0999 V2000
   32.0062  -37.1203   -4.0553 C   0  0  0  0  0  0  0  0  0  0  0  0
   32.7984  -36.1129   -4.8619 C   0  0  1  0  0  0  0  0  0  0  0  0
   33.9366  -36.7040   -5.3680 O   0  0  0  0  0  0  0  0  0  0  0  0
   32.0043  -35.5601   -6.0129 C   0  0  2  0  0  0  0  0  0  0  0  0
   32.8460  -34.6562   -6.7525 N   0  0  0  0  0  0  0  0  0  0  0  0
   30.7887  -34.9248   -5.4937 C   0  0  0  0  0  0  0  0  0  0  0  0
   30.9158  -33.7994   -4.9314 O   0  0  0  0  0  0  0  0  0  0  0  0
   29.4871  -35.4893   -5.5815 N   0  0  0  0  0  0  0  0  0  0  0  0
   28.3955  -34.8960   -4.8806 C   0  0  1  0  0  0  0  0  0  0  0  0
   27.0625  -35.1255   -5.5496 C   0  0  0  0  0  0  0  0  0  0  0  0
   26.8042  -34.1808   -6.6457 C   0  0  0  0  0  0  0  0  0  0  0  0
   27.6779  -33.1633   -6.9799 C   0  0  0  0  0  0  0  0  0  0  0  0
   27.1608  -32.4865   -8.0088 N   0  0  0  0  0  0  0  0  0  0  0  0
   25.9780  -33.0383   -8.3484 C   0  0  0  0  0  0  0  0  0  0  0  0
   25.7846  -34.0664   -7.5043 N   0  0  0  0  0  0  0  0  0  0  0  0
   28.2641  -35.4593   -3.4929 C   0  0  0  0  0  0  0  0  0  0  0  0
   29.0009  -36.4421   -3.2256 O   0  0  0  0  0  0  0  0  0  0  0  0
   29.3551  -34.3356    2.1502 N   0  0  0  0  0  0  0  0  0  0  0  0
   29.4958  -35.7057    1.8329 C   0  0  0  0  0  0  0  0  0  0  0  0
   29.9343  -36.4845    2.7046 O   0  0  0  0  0  0  0  0  0  0  0  0
   29.1362  -36.1976    0.5131 C   0  0  0  0  0  0  0  0  0  0  0  0
   28.7280  -35.1926   -0.4970 C   0  0  0  0  0  0  0  0  0  0  0  0
   27.3912  -35.4007   -1.1323 C   0  0  2  0  0  0  0  0  0  0  0  0
   27.3861  -34.9478   -2.5291 N   0  0  0  0  0  0  0  0  0  0  0  0
   26.3391  -34.6602   -0.4103 C   0  0  0  0  0  0  0  0  0  0  0  0
   25.5605  -33.6838   -1.0617 O   0  0  0  0  0  0  0  0  0  0  0  0
   26.0560  -34.8291    0.8029 O   0  0  0  0  0  0  0  0  0  0  0  0
  2  1  1  6
  2  4  1  0
  3  2  1  0
  4  5  1  1
  4  6  1  0
  6  7  2  0
  8  6  1  0
  8  9  1  0
  9 10  1  6
 11 10  1  0
 12 11  2  0
 13 12  1  0
 14 13  1  0
 14 15  2  0
 15 11  1  0
 16 17  2  0
 16  9  1  0
 18 19  1  0
 19 21  1  0
 20 19  2  0
 22 21  1  0
 23 22  1  1
 23 24  1  0
 24 16  1  0
 25 23  1  0
 25 26  1  0
 27 25  2  0
M  END
$$$$
