THQ.pdb
     RDKit          3D

 27 27  0  0  1  0  0  0  0  0999 V2000
   30.7316  -36.7086    3.4300 C   0  0  0  0  0  0  0  0  0  0  0  0
   30.7140  -35.8355    2.1929 C   0  0  1  0  0  0  0  0  0  0  0  0
   31.2001  -36.5395    1.1117 O   0  0  0  0  0  0  0  0  0  0  0  0
   29.3282  -35.3575    1.8580 C   0  0  2  0  0  0  0  0  0  0  0  0
   29.3423  -34.8267    0.5198 N   0  0  0  0  0  0  0  0  0  0  0  0
   28.9040  -34.3786    2.8643 C   0  0  0  0  0  0  0  0  0  0  0  0
   29.4062  -33.2202    2.7962 O   0  0  0  0  0  0  0  0  0  0  0  0
   27.9716  -34.6472    3.9031 N   0  0  0  0  0  0  0  0  0  0  0  0
   27.5897  -33.6169    4.8128 C   0  0  1  0  0  0  0  0  0  0  0  0
   26.0964  -33.4137    4.8902 C   0  0  0  0  0  0  0  0  0  0  0  0
   25.5439  -32.7786    3.6852 C   0  0  0  0  0  0  0  0  0  0  0  0
   25.6427  -31.4218    3.4406 C   0  0  0  0  0  0  0  0  0  0  0  0
   25.0468  -31.1608    2.2740 N   0  0  0  0  0  0  0  0  0  0  0  0
   24.5662  -32.3105    1.7584 C   0  0  0  0  0  0  0  0  0  0  0  0
   24.8818  -33.2788    2.6359 N   0  0  0  0  0  0  0  0  0  0  0  0
   28.0377  -33.9288    6.2136 C   0  0  0  0  0  0  0  0  0  0  0  0
   27.8478  -35.1090    6.6024 O   0  0  0  0  0  0  0  0  0  0  0  0
   33.2026  -31.5942    9.6268 N   0  0  0  0  0  0  0  0  0  0  0  0
   32.4212  -31.4025    8.4648 C   0  0  0  0  0  0  0  0  0  0  0  0
   32.6182  -30.3863    7.7667 O   0  0  0  0  0  0  0  0  0  0  0  0
   31.4055  -32.3728    8.0908 C   0  0  0  0  0  0  0  0  0  0  0  0
   30.1536  -32.3839    8.8843 C   0  0  0  0  0  0  0  0  0  0  0  0
   29.0864  -33.3217    8.4203 C   0  0  2  0  0  0  0  0  0  0  0  0
   28.6340  -32.9889    7.0636 N   0  0  0  0  0  0  0  0  0  0  0  0
   27.9139  -33.2762    9.3146 C   0  0  0  0  0  0  0  0  0  0  0  0
   28.0264  -33.6119   10.6778 O   0  0  0  0  0  0  0  0  0  0  0  0
   26.7560  -32.9465    8.9523 O   0  0  0  0  0  0  0  0  0  0  0  0
  2  1  1  1
  2  4  1  0
  3  2  1  0
  4  5  1  6
  4  6  1  0
  6  7  2  0
  8  6  1  0
  8  9  1  0
  9 10  1  1
 11 10  1  0
 12 11  2  0
 13 12  1  0
 14 13  1  0
 14 15  2  0
 15 11  1  0
 16 17  2  0
 16  9  1  0
 18 19  1  0
 19 21  1  0
 20 19  2  0
 22 21  1  0
 23 22  1  1
 23 24  1  0
 24 16  1  0
 25 23  1  0
 25 26  1  0
 27 25  2  0
M  END
$$$$
