THQ.pdb
     RDKit          3D

 27 27  0  0  1  0  0  0  0  0999 V2000
   25.0181  -10.1481  -15.3668 C   0  0  0  0  0  0  0  0  0  0  0  0
   24.9836  -11.0607  -16.5747 C   0  0  1  0  0  0  0  0  0  0  0  0
   25.6580  -12.2316  -16.3008 O   0  0  0  0  0  0  0  0  0  0  0  0
   23.5781  -11.4112  -16.9785 C   0  0  2  0  0  0  0  0  0  0  0  0
   23.6351  -12.2032  -18.1794 N   0  0  0  0  0  0  0  0  0  0  0  0
   22.8039  -10.1757  -17.1364 C   0  0  0  0  0  0  0  0  0  0  0  0
   22.7957   -9.6371  -18.2803 O   0  0  0  0  0  0  0  0  0  0  0  0
   22.0680   -9.5502  -16.0934 N   0  0  0  0  0  0  0  0  0  0  0  0
   21.2532   -8.4122  -16.3688 C   0  0  1  0  0  0  0  0  0  0  0  0
   19.8597   -8.7726  -16.8222 C   0  0  0  0  0  0  0  0  0  0  0  0
   19.1522   -9.6325  -15.8627 C   0  0  0  0  0  0  0  0  0  0  0  0
   18.5080   -9.1366  -14.7450 C   0  0  0  0  0  0  0  0  0  0  0  0
   17.9674  -10.1624  -14.0819 N   0  0  0  0  0  0  0  0  0  0  0  0
   18.2444  -11.3066  -14.7399 C   0  0  0  0  0  0  0  0  0  0  0  0
   18.9657  -10.9565  -15.8188 N   0  0  0  0  0  0  0  0  0  0  0  0
   21.0811   -7.5527  -15.1473 C   0  0  0  0  0  0  0  0  0  0  0  0
   21.2377   -8.1298  -14.0416 O   0  0  0  0  0  0  0  0  0  0  0  0
   19.7539   -5.9449  -10.0254 N   0  0  0  0  0  0  0  0  0  0  0  0
   18.7161   -5.4356  -10.8386 C   0  0  0  0  0  0  0  0  0  0  0  0
   17.6904   -4.9798  -10.2920 O   0  0  0  0  0  0  0  0  0  0  0  0
   18.8425   -5.4439  -12.2867 C   0  0  0  0  0  0  0  0  0  0  0  0
   20.0592   -6.0692  -12.8574 C   0  0  0  0  0  0  0  0  0  0  0  0
   20.7005   -5.3458  -13.9973 C   0  0  2  0  0  0  0  0  0  0  0  0
   20.7657   -6.1890  -15.1976 N   0  0  0  0  0  0  0  0  0  0  0  0
   22.0750   -4.9314  -13.6574 C   0  0  0  0  0  0  0  0  0  0  0  0
   22.3232   -4.0368  -12.5983 O   0  0  0  0  0  0  0  0  0  0  0  0
   23.1056   -5.3252  -14.2602 O   0  0  0  0  0  0  0  0  0  0  0  0
  2  1  1  1
  2  4  1  0
  3  2  1  0
  4  5  1  6
  4  6  1  0
  6  7  2  0
  8  6  1  0
  8  9  1  0
  9 10  1  1
 11 10  1  0
 12 11  2  0
 13 12  1  0
 14 13  1  0
 14 15  2  0
 15 11  1  0
 16 17  2  0
 16  9  1  0
 18 19  1  0
 19 21  1  0
 20 19  2  0
 22 21  1  0
 23 22  1  1
 23 24  1  0
 24 16  1  0
 25 23  1  0
 25 26  1  0
 27 25  2  0
M  END
$$$$
