THQ.pdb
     RDKit          3D

 27 27  0  0  1  0  0  0  0  0999 V2000
   24.4620   -9.1228  -19.1783 C   0  0  0  0  0  0  0  0  0  0  0  0
   23.6726  -10.3070  -19.6955 C   0  0  1  0  0  0  0  0  0  0  0  0
   24.4549  -11.0613  -20.5440 O   0  0  0  0  0  0  0  0  0  0  0  0
   23.1937  -11.1970  -18.5820 C   0  0  2  0  0  0  0  0  0  0  0  0
   22.6291  -12.3870  -19.1631 N   0  0  0  0  0  0  0  0  0  0  0  0
   22.2430  -10.4522  -17.7500 C   0  0  0  0  0  0  0  0  0  0  0  0
   21.4517   -9.6606  -18.3382 O   0  0  0  0  0  0  0  0  0  0  0  0
   22.1553  -10.5628  -16.3355 N   0  0  0  0  0  0  0  0  0  0  0  0
   21.2715   -9.7184  -15.6002 C   0  0  1  0  0  0  0  0  0  0  0  0
   20.9464  -10.2491  -14.2255 C   0  0  0  0  0  0  0  0  0  0  0  0
   19.9381   -9.4404  -13.5255 C   0  0  0  0  0  0  0  0  0  0  0  0
   19.3502   -8.3234  -14.0887 C   0  0  0  0  0  0  0  0  0  0  0  0
   18.4846   -7.8149  -13.2078 N   0  0  0  0  0  0  0  0  0  0  0  0
   18.4969   -8.5719  -12.0917 C   0  0  0  0  0  0  0  0  0  0  0  0
   19.3889   -9.5533  -12.3109 N   0  0  0  0  0  0  0  0  0  0  0  0
   21.8675   -8.3547  -15.3866 C   0  0  0  0  0  0  0  0  0  0  0  0
   23.0621   -8.3310  -14.9963 O   0  0  0  0  0  0  0  0  0  0  0  0
   22.6608   -3.8216  -19.1312 N   0  0  0  0  0  0  0  0  0  0  0  0
   23.6852   -3.9961  -18.1732 C   0  0  0  0  0  0  0  0  0  0  0  0
   24.8330   -3.5809  -18.4356 O   0  0  0  0  0  0  0  0  0  0  0  0
   23.4052   -4.6488  -16.9049 C   0  0  0  0  0  0  0  0  0  0  0  0
   22.0253   -5.1442  -16.6875 C   0  0  0  0  0  0  0  0  0  0  0  0
   21.7703   -5.8391  -15.3890 C   0  0  2  0  0  0  0  0  0  0  0  0
   21.1664   -7.1610  -15.5988 N   0  0  0  0  0  0  0  0  0  0  0  0
   20.8588   -5.0530  -14.5360 C   0  0  0  0  0  0  0  0  0  0  0  0
   21.3452   -4.0194  -13.7121 O   0  0  0  0  0  0  0  0  0  0  0  0
   19.6157   -5.2298  -14.4721 O   0  0  0  0  0  0  0  0  0  0  0  0
  2  1  1  1
  2  4  1  0
  3  2  1  0
  4  5  1  6
  4  6  1  0
  6  7  2  0
  8  6  1  0
  8  9  1  0
  9 10  1  1
 11 10  1  0
 12 11  2  0
 13 12  1  0
 14 13  1  0
 14 15  2  0
 15 11  1  0
 16 17  2  0
 16  9  1  0
 18 19  1  0
 19 21  1  0
 20 19  2  0
 22 21  1  0
 23 22  1  6
 23 24  1  0
 24 16  1  0
 25 23  1  0
 25 26  1  0
 27 25  2  0
M  END
$$$$
