NQV.pdb
     RDKit          3D

 25 24  0  0  1  0  0  0  0  0999 V2000
   18.1903  -15.7749  -14.6074 N   0  0  0  0  0  0  0  0  0  0  0  0
   17.5153  -14.5361  -14.5761 C   0  0  0  0  0  0  0  0  0  0  0  0
   16.3561  -14.4799  -14.0995 O   0  0  0  0  0  0  0  0  0  0  0  0
   18.1770  -13.3154  -15.1043 C   0  0  0  0  0  0  0  0  0  0  0  0
   17.2764  -12.5583  -16.0461 C   0  0  2  0  0  0  0  0  0  0  0  0
   16.8744  -13.2923  -17.2077 N   0  0  0  0  0  0  0  0  0  0  0  0
   17.9403  -11.2723  -16.3986 C   0  0  0  0  0  0  0  0  0  0  0  0
   18.6141  -11.1126  -17.4302 O   0  0  0  0  0  0  0  0  0  0  0  0
   15.4397   -5.8802  -15.5285 N   0  0  0  0  0  0  0  0  0  0  0  0
   16.7219   -5.4260  -15.9491 C   0  0  0  0  0  0  0  0  0  0  0  0
   16.9411   -4.2069  -16.1086 O   0  0  0  0  0  0  0  0  0  0  0  0
   17.7641   -6.4849  -16.1816 C   0  0  0  0  0  0  0  0  0  0  0  0
   17.2191   -7.8506  -15.9193 C   0  0  0  0  0  0  0  0  0  0  0  0
   18.2991   -8.8558  -15.7741 C   0  0  2  0  0  0  0  0  0  0  0  0
   17.7832  -10.1908  -15.5000 N   0  0  0  0  0  0  0  0  0  0  0  0
   19.3151   -8.5497  -14.7498 C   0  0  0  0  0  0  0  0  0  0  0  0
   19.1535   -8.6465  -13.5032 O   0  0  0  0  0  0  0  0  0  0  0  0
   23.2907   -8.2267  -16.0351 C   0  0  0  0  0  0  0  0  0  0  0  0
   22.9334   -8.5835  -14.6095 C   0  0  2  0  0  0  0  0  0  0  0  0
   22.7497  -10.0731  -14.4904 C   0  0  0  0  0  0  0  0  0  0  0  0
   21.6654   -7.8509  -14.1697 C   0  0  2  0  0  0  0  0  0  0  0  0
   20.6211   -8.0965  -15.1477 N   0  0  0  0  0  0  0  0  0  0  0  0
   22.0163   -6.3864  -14.1524 C   0  0  0  0  0  0  0  0  0  0  0  0
   22.7624   -5.8227  -13.1621 O   0  0  0  0  0  0  0  0  0  0  0  0
   21.6004   -5.6624  -15.0923 O   0  0  0  0  0  0  0  0  0  0  0  0
  2  1  1  0
  2  3  2  0
  4  2  1  0
  5  7  1  0
  5  4  1  0
  5  6  1  6
  7  8  2  0
  9 10  1  0
 10 11  2  0
 12 10  1  0
 12 13  1  0
 14 13  1  1
 15 14  1  0
 15  7  1  0
 16 17  2  0
 16 14  1  0
 19 18  1  6
 19 21  1  0
 20 19  1  0
 21 22  1  6
 22 16  1  0
 23 21  1  0
 23 24  1  0
 25 23  2  0
M  END
$$$$
