NQV.pdb
     RDKit          3D

 25 24  0  0  1  0  0  0  0  0999 V2000
   28.5224  -19.1437  -18.2734 N   0  0  0  0  0  0  0  0  0  0  0  0
   27.6245  -20.1296  -18.7351 C   0  0  0  0  0  0  0  0  0  0  0  0
   27.8513  -20.7042  -19.8270 O   0  0  0  0  0  0  0  0  0  0  0  0
   26.4250  -20.4778  -17.9308 C   0  0  0  0  0  0  0  0  0  0  0  0
   26.4019  -19.7377  -16.6182 C   0  0  2  0  0  0  0  0  0  0  0  0
   27.6895  -19.5242  -16.0300 N   0  0  0  0  0  0  0  0  0  0  0  0
   25.4753  -20.4494  -15.6940 C   0  0  0  0  0  0  0  0  0  0  0  0
   24.6821  -21.3297  -16.0674 O   0  0  0  0  0  0  0  0  0  0  0  0
   26.1982  -20.5647   -9.4651 N   0  0  0  0  0  0  0  0  0  0  0  0
   24.9011  -21.1435   -9.5634 C   0  0  0  0  0  0  0  0  0  0  0  0
   24.3198  -21.5719   -8.5445 O   0  0  0  0  0  0  0  0  0  0  0  0
   24.2968  -21.2021  -10.9392 C   0  0  0  0  0  0  0  0  0  0  0  0
   25.1827  -20.5507  -11.9501 C   0  0  0  0  0  0  0  0  0  0  0  0
   24.6469  -20.6933  -13.3250 C   0  0  2  0  0  0  0  0  0  0  0  0
   25.5167  -20.0897  -14.3262 N   0  0  0  0  0  0  0  0  0  0  0  0
   23.2877  -20.1600  -13.5331 C   0  0  0  0  0  0  0  0  0  0  0  0
   22.9940  -18.9468  -13.7104 O   0  0  0  0  0  0  0  0  0  0  0  0
   20.4079  -22.6007  -15.1528 C   0  0  0  0  0  0  0  0  0  0  0  0
   20.3007  -21.0931  -15.0972 C   0  0  2  0  0  0  0  0  0  0  0  0
   21.0796  -20.4870  -16.2343 C   0  0  0  0  0  0  0  0  0  0  0  0
   20.8106  -20.5633  -13.7566 C   0  0  2  0  0  0  0  0  0  0  0  0
   22.1603  -21.0535  -13.5436 N   0  0  0  0  0  0  0  0  0  0  0  0
   19.8892  -21.1292  -12.7084 C   0  0  0  0  0  0  0  0  0  0  0  0
   18.6549  -20.6098  -12.4593 O   0  0  0  0  0  0  0  0  0  0  0  0
   20.2819  -22.1198  -12.0411 O   0  0  0  0  0  0  0  0  0  0  0  0
  2  1  1  0
  2  3  2  0
  4  2  1  0
  5  7  1  0
  5  4  1  0
  5  6  1  1
  7  8  2  0
  9 10  1  0
 10 11  2  0
 12 10  1  0
 12 13  1  0
 14 13  1  1
 15 14  1  0
 15  7  1  0
 16 17  2  0
 16 14  1  0
 19 18  1  1
 19 21  1  0
 20 19  1  0
 21 22  1  1
 22 16  1  0
 23 21  1  0
 23 24  1  0
 25 23  2  0
M  END
$$$$
