NQV.pdb
     RDKit          3D

 25 24  0  0  1  0  0  0  0  0999 V2000
   17.7727  -13.5315  -16.4738 N   0  0  0  0  0  0  0  0  0  0  0  0
   19.0013  -14.0289  -15.9897 C   0  0  0  0  0  0  0  0  0  0  0  0
   19.1406  -15.2643  -15.8216 O   0  0  0  0  0  0  0  0  0  0  0  0
   20.1136  -13.0929  -15.6842 C   0  0  0  0  0  0  0  0  0  0  0  0
   19.7304  -11.6630  -15.9669 C   0  0  2  0  0  0  0  0  0  0  0  0
   19.5468  -11.3567  -17.3533 N   0  0  0  0  0  0  0  0  0  0  0  0
   20.7365  -10.7714  -15.3251 C   0  0  0  0  0  0  0  0  0  0  0  0
   20.9716  -10.7750  -14.1052 O   0  0  0  0  0  0  0  0  0  0  0  0
   26.4346   -9.6328  -16.4405 N   0  0  0  0  0  0  0  0  0  0  0  0
   25.7744  -10.6898  -15.7520 C   0  0  0  0  0  0  0  0  0  0  0  0
   26.4087  -11.7018  -15.3873 O   0  0  0  0  0  0  0  0  0  0  0  0
   24.3026  -10.5091  -15.5017 C   0  0  0  0  0  0  0  0  0  0  0  0
   23.8032   -9.2325  -16.0952 C   0  0  0  0  0  0  0  0  0  0  0  0
   22.4211   -8.9247  -15.6558 C   0  0  2  0  0  0  0  0  0  0  0  0
   21.4491   -9.8834  -16.1651 N   0  0  0  0  0  0  0  0  0  0  0  0
   21.9359   -7.5734  -15.9931 C   0  0  0  0  0  0  0  0  0  0  0  0
   21.2959   -7.2615  -17.0335 O   0  0  0  0  0  0  0  0  0  0  0  0
   19.6874   -6.0456  -16.5389 C   0  0  0  0  0  0  0  0  0  0  0  0
   20.1904   -5.1433  -15.4342 C   0  0  2  0  0  0  0  0  0  0  0  0
   19.6608   -3.7486  -15.6380 C   0  0  0  0  0  0  0  0  0  0  0  0
   21.7189   -5.1353  -15.3957 C   0  0  2  0  0  0  0  0  0  0  0  0
   22.1855   -6.4768  -15.0961 N   0  0  0  0  0  0  0  0  0  0  0  0
   22.1016   -4.1991  -14.2798 C   0  0  0  0  0  0  0  0  0  0  0  0
   22.5245   -4.6423  -13.0632 O   0  0  0  0  0  0  0  0  0  0  0  0
   22.0249   -2.9614  -14.4869 O   0  0  0  0  0  0  0  0  0  0  0  0
  2  1  1  0
  2  3  2  0
  4  2  1  0
  5  7  1  0
  5  4  1  0
  5  6  1  6
  7  8  2  0
  9 10  1  0
 10 11  2  0
 12 10  1  0
 12 13  1  0
 14 13  1  6
 15 14  1  0
 15  7  1  0
 16 17  2  0
 16 14  1  0
 19 18  1  6
 19 21  1  0
 20 19  1  0
 21 22  1  1
 22 16  1  0
 23 21  1  0
 23 24  1  0
 25 23  2  0
M  END
$$$$
