NQV.pdb
     RDKit          3D

 25 24  0  0  1  0  0  0  0  0999 V2000
   25.1810  -13.2363  -19.7828 N   0  0  0  0  0  0  0  0  0  0  0  0
   25.5402  -11.8772  -19.6596 C   0  0  0  0  0  0  0  0  0  0  0  0
   26.7450  -11.5471  -19.7758 O   0  0  0  0  0  0  0  0  0  0  0  0
   24.4967  -10.8536  -19.3943 C   0  0  0  0  0  0  0  0  0  0  0  0
   23.1337  -11.4772  -19.2375 C   0  0  2  0  0  0  0  0  0  0  0  0
   22.6090  -12.0738  -20.4284 N   0  0  0  0  0  0  0  0  0  0  0  0
   22.2114  -10.4536  -18.6711 C   0  0  0  0  0  0  0  0  0  0  0  0
   21.8719   -9.4275  -19.2838 O   0  0  0  0  0  0  0  0  0  0  0  0
   17.6264  -11.7819  -14.8039 N   0  0  0  0  0  0  0  0  0  0  0  0
   17.4511  -10.3740  -14.9235 C   0  0  0  0  0  0  0  0  0  0  0  0
   16.4094   -9.8275  -14.5042 O   0  0  0  0  0  0  0  0  0  0  0  0
   18.5744   -9.6122  -15.5712 C   0  0  0  0  0  0  0  0  0  0  0  0
   19.5989  -10.5365  -16.1431 C   0  0  0  0  0  0  0  0  0  0  0  0
   20.7411   -9.7963  -16.7309 C   0  0  2  0  0  0  0  0  0  0  0  0
   21.7080  -10.6806  -17.3684 N   0  0  0  0  0  0  0  0  0  0  0  0
   21.4790   -8.9255  -15.7969 C   0  0  0  0  0  0  0  0  0  0  0  0
   22.4110   -9.2926  -15.0314 O   0  0  0  0  0  0  0  0  0  0  0  0
   22.5050   -5.1546  -16.7778 C   0  0  0  0  0  0  0  0  0  0  0  0
   21.8243   -5.2168  -15.4286 C   0  0  2  0  0  0  0  0  0  0  0  0
   22.4643   -4.2271  -14.4917 C   0  0  0  0  0  0  0  0  0  0  0  0
   21.9003   -6.6295  -14.8486 C   0  0  2  0  0  0  0  0  0  0  0  0
   21.1502   -7.5279  -15.7073 N   0  0  0  0  0  0  0  0  0  0  0  0
   21.2508   -6.5572  -13.4917 C   0  0  0  0  0  0  0  0  0  0  0  0
   21.9699   -6.4797  -12.3376 O   0  0  0  0  0  0  0  0  0  0  0  0
   19.9951   -6.5695  -13.4302 O   0  0  0  0  0  0  0  0  0  0  0  0
  2  1  1  0
  2  3  2  0
  4  2  1  0
  5  7  1  0
  5  4  1  0
  5  6  1  6
  7  8  2  0
  9 10  1  0
 10 11  2  0
 12 10  1  0
 12 13  1  0
 14 13  1  1
 15 14  1  0
 15  7  1  0
 16 17  2  0
 16 14  1  0
 19 18  1  6
 19 21  1  0
 20 19  1  0
 21 22  1  6
 22 16  1  0
 23 21  1  0
 23 24  1  0
 25 23  2  0
M  END
$$$$
