NQV.pdb
     RDKit          3D

 25 24  0  0  1  0  0  0  0  0999 V2000
   21.9787  -21.9119  -16.8528 N   0  0  0  0  0  0  0  0  0  0  0  0
   23.0451  -21.7386  -17.7606 C   0  0  0  0  0  0  0  0  0  0  0  0
   23.8408  -22.6873  -17.9622 O   0  0  0  0  0  0  0  0  0  0  0  0
   23.2174  -20.4427  -18.4662 C   0  0  0  0  0  0  0  0  0  0  0  0
   22.1282  -19.4650  -18.1069 C   0  0  2  0  0  0  0  0  0  0  0  0
   20.8061  -19.8886  -18.4565 N   0  0  0  0  0  0  0  0  0  0  0  0
   22.4684  -18.1429  -18.7031 C   0  0  0  0  0  0  0  0  0  0  0  0
   22.1860  -17.8283  -19.8714 O   0  0  0  0  0  0  0  0  0  0  0  0
   20.4227  -13.3810  -18.1503 N   0  0  0  0  0  0  0  0  0  0  0  0
   21.5569  -12.7874  -18.7736 C   0  0  0  0  0  0  0  0  0  0  0  0
   21.6158  -11.5505  -18.9355 O   0  0  0  0  0  0  0  0  0  0  0  0
   22.6476  -13.7256  -19.2115 C   0  0  0  0  0  0  0  0  0  0  0  0
   22.3143  -15.1419  -18.8734 C   0  0  0  0  0  0  0  0  0  0  0  0
   23.4849  -15.8668  -18.3238 C   0  0  2  0  0  0  0  0  0  0  0  0
   23.1473  -17.2132  -17.8805 N   0  0  0  0  0  0  0  0  0  0  0  0
   24.1831  -15.1921  -17.2136 C   0  0  0  0  0  0  0  0  0  0  0  0
   23.8196  -15.1970  -16.0064 O   0  0  0  0  0  0  0  0  0  0  0  0
   28.1043  -15.1327  -16.6152 C   0  0  0  0  0  0  0  0  0  0  0  0
   27.5618  -13.7225  -16.6833 C   0  0  2  0  0  0  0  0  0  0  0  0
   28.2827  -12.8531  -15.6877 C   0  0  0  0  0  0  0  0  0  0  0  0
   26.0565  -13.7082  -16.4154 C   0  0  2  0  0  0  0  0  0  0  0  0
   25.3874  -14.4481  -17.4699 N   0  0  0  0  0  0  0  0  0  0  0  0
   25.6399  -12.2617  -16.4614 C   0  0  0  0  0  0  0  0  0  0  0  0
   25.0121  -11.7132  -17.5386 O   0  0  0  0  0  0  0  0  0  0  0  0
   25.8848  -11.5384  -15.4627 O   0  0  0  0  0  0  0  0  0  0  0  0
  2  1  1  0
  2  3  2  0
  4  2  1  0
  5  7  1  0
  5  4  1  0
  5  6  1  6
  7  8  2  0
  9 10  1  0
 10 11  2  0
 12 10  1  0
 12 13  1  0
 14 13  1  1
 15 14  1  0
 15  7  1  0
 16 17  2  0
 16 14  1  0
 19 18  1  1
 19 21  1  0
 20 19  1  0
 21 22  1  6
 22 16  1  0
 23 21  1  0
 23 24  1  0
 25 23  2  0
M  END
$$$$
