NQV.pdb
     RDKit          3D

 25 24  0  0  1  0  0  0  0  0999 V2000
   15.8169  -12.7325  -17.1412 N   0  0  0  0  0  0  0  0  0  0  0  0
   15.8216  -11.7087  -16.1701 C   0  0  0  0  0  0  0  0  0  0  0  0
   14.7606  -11.4373  -15.5582 O   0  0  0  0  0  0  0  0  0  0  0  0
   17.0742  -10.9640  -15.8813 C   0  0  0  0  0  0  0  0  0  0  0  0
   18.1974  -11.3917  -16.7905 C   0  0  2  0  0  0  0  0  0  0  0  0
   18.7430  -12.6829  -16.4994 N   0  0  0  0  0  0  0  0  0  0  0  0
   19.2404  -10.3281  -16.7808 C   0  0  0  0  0  0  0  0  0  0  0  0
   20.2868  -10.4047  -16.1154 O   0  0  0  0  0  0  0  0  0  0  0  0
   19.7473   -6.1118  -21.3692 N   0  0  0  0  0  0  0  0  0  0  0  0
   20.7672   -5.6376  -20.4962 C   0  0  0  0  0  0  0  0  0  0  0  0
   21.4876   -4.6731  -20.8286 O   0  0  0  0  0  0  0  0  0  0  0  0
   20.9133   -6.3576  -19.1840 C   0  0  0  0  0  0  0  0  0  0  0  0
   19.8400   -7.3806  -19.0030 C   0  0  0  0  0  0  0  0  0  0  0  0
   19.9853   -8.1100  -17.7206 C   0  0  2  0  0  0  0  0  0  0  0  0
   19.0081   -9.1813  -17.5763 N   0  0  0  0  0  0  0  0  0  0  0  0
   19.9171   -7.2756  -16.5065 C   0  0  0  0  0  0  0  0  0  0  0  0
   18.8601   -6.9188  -15.9191 O   0  0  0  0  0  0  0  0  0  0  0  0
   21.9092   -8.2304  -13.5313 C   0  0  0  0  0  0  0  0  0  0  0  0
   22.1686   -6.7508  -13.7072 C   0  0  2  0  0  0  0  0  0  0  0  0
   22.1831   -6.0750  -12.3618 C   0  0  0  0  0  0  0  0  0  0  0  0
   21.1101   -6.1195  -14.6121 C   0  0  2  0  0  0  0  0  0  0  0  0
   21.1285   -6.7972  -15.8957 N   0  0  0  0  0  0  0  0  0  0  0  0
   21.5178   -4.6803  -14.7873 C   0  0  0  0  0  0  0  0  0  0  0  0
   21.1100   -3.6942  -13.9408 O   0  0  0  0  0  0  0  0  0  0  0  0
   22.2637   -4.3854  -15.7555 O   0  0  0  0  0  0  0  0  0  0  0  0
  2  1  1  0
  2  3  2  0
  4  2  1  0
  5  7  1  0
  5  4  1  0
  5  6  1  1
  7  8  2  0
  9 10  1  0
 10 11  2  0
 12 10  1  0
 12 13  1  0
 14 13  1  6
 15 14  1  0
 15  7  1  0
 16 17  2  0
 16 14  1  0
 19 18  1  1
 19 21  1  0
 20 19  1  0
 21 22  1  6
 22 16  1  0
 23 21  1  0
 23 24  1  0
 25 23  2  0
M  END
$$$$
