NQV.pdb
     RDKit          3D

 25 24  0  0  1  0  0  0  0  0999 V2000
   21.8675  -16.1026  -17.2240 N   0  0  0  0  0  0  0  0  0  0  0  0
   21.6580  -15.7110  -18.5634 C   0  0  0  0  0  0  0  0  0  0  0  0
   21.2224  -16.5502  -19.3879 O   0  0  0  0  0  0  0  0  0  0  0  0
   21.9532  -14.3175  -18.9853 C   0  0  0  0  0  0  0  0  0  0  0  0
   22.4963  -13.4948  -17.8454 C   0  0  2  0  0  0  0  0  0  0  0  0
   22.4617  -14.1447  -16.5701 N   0  0  0  0  0  0  0  0  0  0  0  0
   21.7815  -12.1880  -17.8272 C   0  0  0  0  0  0  0  0  0  0  0  0
   21.7287  -11.4255  -18.8067 O   0  0  0  0  0  0  0  0  0  0  0  0
   16.5318  -11.2199  -14.9565 N   0  0  0  0  0  0  0  0  0  0  0  0
   16.8520   -9.8570  -15.2157 C   0  0  0  0  0  0  0  0  0  0  0  0
   16.0196   -8.9555  -14.9833 O   0  0  0  0  0  0  0  0  0  0  0  0
   18.2221   -9.5856  -15.7729 C   0  0  0  0  0  0  0  0  0  0  0  0
   18.9863  -10.8526  -15.9776 C   0  0  0  0  0  0  0  0  0  0  0  0
   20.3514  -10.5947  -16.4952 C   0  0  2  0  0  0  0  0  0  0  0  0
   21.1371  -11.8151  -16.6240 N   0  0  0  0  0  0  0  0  0  0  0  0
   21.1504   -9.6280  -15.7192 C   0  0  0  0  0  0  0  0  0  0  0  0
   21.9496   -9.9160  -14.7876 O   0  0  0  0  0  0  0  0  0  0  0  0
   22.8615   -6.3762  -17.3714 C   0  0  0  0  0  0  0  0  0  0  0  0
   22.0453   -6.0167  -16.1499 C   0  0  2  0  0  0  0  0  0  0  0  0
   22.7405   -4.9267  -15.3783 C   0  0  0  0  0  0  0  0  0  0  0  0
   21.8271   -7.2439  -15.2643 C   0  0  2  0  0  0  0  0  0  0  0  0
   21.0499   -8.2215  -16.0042 N   0  0  0  0  0  0  0  0  0  0  0  0
   21.0425   -6.7622  -14.0725 C   0  0  0  0  0  0  0  0  0  0  0  0
   21.6278   -6.4739  -12.8769 O   0  0  0  0  0  0  0  0  0  0  0  0
   19.7987   -6.6235  -14.1936 O   0  0  0  0  0  0  0  0  0  0  0  0
  2  1  1  0
  2  3  2  0
  4  2  1  0
  5  7  1  0
  5  4  1  0
  5  6  1  1
  7  8  2  0
  9 10  1  0
 10 11  2  0
 12 10  1  0
 12 13  1  0
 14 13  1  1
 15 14  1  0
 15  7  1  0
 16 17  2  0
 16 14  1  0
 19 18  1  6
 19 21  1  0
 20 19  1  0
 21 22  1  6
 22 16  1  0
 23 21  1  0
 23 24  1  0
 25 23  2  0
M  END
$$$$
