NQV.pdb
     RDKit          3D

 25 24  0  0  1  0  0  0  0  0999 V2000
   19.2198  -15.8049  -17.0744 N   0  0  0  0  0  0  0  0  0  0  0  0
   19.0690  -15.0799  -18.2757 C   0  0  0  0  0  0  0  0  0  0  0  0
   19.0529  -15.6970  -19.3678 O   0  0  0  0  0  0  0  0  0  0  0  0
   18.9318  -13.6012  -18.2393 C   0  0  0  0  0  0  0  0  0  0  0  0
   18.9771  -13.0733  -16.8284 C   0  0  2  0  0  0  0  0  0  0  0  0
   17.8808  -13.4806  -16.0026 N   0  0  0  0  0  0  0  0  0  0  0  0
   19.1143  -11.5911  -16.8856 C   0  0  0  0  0  0  0  0  0  0  0  0
   20.0420  -11.0141  -17.4773 O   0  0  0  0  0  0  0  0  0  0  0  0
   14.3137   -7.6980  -15.9695 N   0  0  0  0  0  0  0  0  0  0  0  0
   15.3717   -6.7496  -16.0604 C   0  0  0  0  0  0  0  0  0  0  0  0
   15.1264   -5.5251  -16.0613 O   0  0  0  0  0  0  0  0  0  0  0  0
   16.7650   -7.3079  -16.1531 C   0  0  0  0  0  0  0  0  0  0  0  0
   16.7530   -8.8016  -16.1529 C   0  0  0  0  0  0  0  0  0  0  0  0
   18.1219   -9.3631  -16.2461 C   0  0  2  0  0  0  0  0  0  0  0  0
   18.1279  -10.8201  -16.2265 N   0  0  0  0  0  0  0  0  0  0  0  0
   19.0685   -8.8978  -15.2152 C   0  0  0  0  0  0  0  0  0  0  0  0
   18.9765   -9.1236  -13.9783 O   0  0  0  0  0  0  0  0  0  0  0  0
   22.9556   -8.0312  -16.2675 C   0  0  0  0  0  0  0  0  0  0  0  0
   22.5123   -8.2312  -14.8354 C   0  0  2  0  0  0  0  0  0  0  0  0
   22.4785   -9.7021  -14.5157 C   0  0  0  0  0  0  0  0  0  0  0  0
   21.1393   -7.6007  -14.6006 C   0  0  2  0  0  0  0  0  0  0  0  0
   20.2137   -8.1139  -15.5941 N   0  0  0  0  0  0  0  0  0  0  0  0
   21.3246   -6.1183  -14.7912 C   0  0  0  0  0  0  0  0  0  0  0  0
   21.9010   -5.3239  -13.8469 O   0  0  0  0  0  0  0  0  0  0  0  0
   20.9288   -5.6012  -15.8667 O   0  0  0  0  0  0  0  0  0  0  0  0
  2  1  1  0
  2  3  2  0
  4  2  1  0
  5  7  1  0
  5  4  1  0
  5  6  1  6
  7  8  2  0
  9 10  1  0
 10 11  2  0
 12 10  1  0
 12 13  1  0
 14 13  1  1
 15 14  1  0
 15  7  1  0
 16 17  2  0
 16 14  1  0
 19 18  1  6
 19 21  1  0
 20 19  1  0
 21 22  1  6
 22 16  1  0
 23 21  1  0
 23 24  1  0
 25 23  2  0
M  END
$$$$
