WTW.pdb
     RDKit          3D

 36 39  0  0  1  0  0  0  0  0999 V2000
    9.9722  -17.3885   17.0223 N   0  0  0  0  0  0  0  0  0  0  0  0
   10.4765  -17.7450   18.3160 C   0  0  1  0  0  0  0  0  0  0  0  0
   11.9428  -18.0269   18.3910 C   0  0  0  0  0  0  0  0  0  0  0  0
   12.4060  -19.1742   17.5845 C   0  0  0  0  0  0  0  0  0  0  0  0
   12.9739  -19.0956   16.2962 C   0  0  0  0  0  0  0  0  0  0  0  0
   13.2719  -20.3298   15.8772 N   0  0  0  0  0  0  0  0  0  0  0  0
   12.9217  -21.2128   16.8419 C   0  0  0  0  0  0  0  0  0  0  0  0
   13.0117  -22.6061   16.8969 C   0  0  0  0  0  0  0  0  0  0  0  0
   12.5736  -23.3123   17.9906 C   0  0  0  0  0  0  0  0  0  0  0  0
   12.0368  -22.6074   19.0444 C   0  0  0  0  0  0  0  0  0  0  0  0
   11.9453  -21.2282   18.9963 C   0  0  0  0  0  0  0  0  0  0  0  0
   12.3908  -20.5100   17.8894 C   0  0  0  0  0  0  0  0  0  0  0  0
   10.0931  -16.6928   19.3270 C   0  0  0  0  0  0  0  0  0  0  0  0
   10.1937  -15.4553   19.0854 O   0  0  0  0  0  0  0  0  0  0  0  0
    6.9578  -15.5934   20.3062 C   0  0  0  0  0  0  0  0  0  0  0  0
    7.5523  -16.0533   21.5886 C   0  0  1  0  0  0  0  0  0  0  0  0
    6.9849  -17.2465   22.0162 O   0  0  0  0  0  0  0  0  0  0  0  0
    9.0398  -16.2082   21.6089 C   0  0  2  0  0  0  0  0  0  0  0  0
    9.5966  -17.0477   20.5985 N   0  0  0  0  0  0  0  0  0  0  0  0
    9.6087  -16.4256   22.9722 C   0  0  0  0  0  0  0  0  0  0  0  0
   10.3206  -17.4326   23.1943 O   0  0  0  0  0  0  0  0  0  0  0  0
    9.3847  -15.5527   24.0581 N   0  0  0  0  0  0  0  0  0  0  0  0
   10.1058  -15.7301   25.3152 C   0  0  1  0  0  0  0  0  0  0  0  0
    9.6991  -14.8545   26.4157 C   0  0  0  0  0  0  0  0  0  0  0  0
    8.2485  -14.5311   26.4968 C   0  0  0  0  0  0  0  0  0  0  0  0
    7.2530  -15.5155   26.3488 C   0  0  0  0  0  0  0  0  0  0  0  0
    6.0756  -14.8999   26.4781 N   0  0  0  0  0  0  0  0  0  0  0  0
    6.2215  -13.5850   26.6996 C   0  0  0  0  0  0  0  0  0  0  0  0
    5.3379  -12.5321   26.8991 C   0  0  0  0  0  0  0  0  0  0  0  0
    5.8636  -11.2751   27.1071 C   0  0  0  0  0  0  0  0  0  0  0  0
    7.2219  -11.0180   27.1231 C   0  0  0  0  0  0  0  0  0  0  0  0
    8.0865  -12.0681   26.9231 C   0  0  0  0  0  0  0  0  0  0  0  0
    7.5799  -13.3568   26.7116 C   0  0  0  0  0  0  0  0  0  0  0  0
    9.8272  -17.1830   25.7661 C   0  0  0  0  0  0  0  0  0  0  0  0
    8.6680  -17.6355   25.8299 O   0  0  0  0  0  0  0  0  0  0  0  0
   10.9234  -17.9641   26.0993 O   0  0  0  0  0  0  0  0  0  0  0  0
  2  1  1  6
  3  2  1  0
  3  4  1  0
  4 12  1  0
  5  4  2  0
  5  6  1  0
  6  7  1  0
  7  8  1  0
  8  9  2  0
 10  9  1  0
 11 10  2  0
 12  7  2  0
 12 11  1  0
 13  2  1  0
 14 13  2  0
 16 15  1  6
 16 17  1  0
 18 19  1  6
 18 16  1  0
 19 13  1  0
 20 21  2  0
 20 18  1  0
 22 20  1  0
 23 24  1  1
 23 22  1  0
 24 25  1  0
 25 26  2  0
 26 27  1  0
 28 27  1  0
 29 28  2  0
 30 29  1  0
 31 32  1  0
 31 30  2  0
 32 33  2  0
 33 25  1  0
 33 28  1  0
 34 36  1  0
 34 23  1  0
 35 34  2  0
M  END
$$$$
