WTW.pdb
     RDKit          3D

 36 39  0  0  1  0  0  0  0  0999 V2000
    8.1417  -17.6333   20.4137 N   0  0  0  0  0  0  0  0  0  0  0  0
    8.6581  -16.7685   21.4336 C   0  0  1  0  0  0  0  0  0  0  0  0
    7.7306  -15.6996   21.9156 C   0  0  0  0  0  0  0  0  0  0  0  0
    7.2432  -14.7719   20.8749 C   0  0  0  0  0  0  0  0  0  0  0  0
    5.9363  -14.7457   20.3459 C   0  0  0  0  0  0  0  0  0  0  0  0
    5.8595  -13.7777   19.4267 N   0  0  0  0  0  0  0  0  0  0  0  0
    7.0653  -13.1690   19.3345 C   0  0  0  0  0  0  0  0  0  0  0  0
    7.5117  -12.1188   18.5282 C   0  0  0  0  0  0  0  0  0  0  0  0
    8.8059  -11.6632   18.5922 C   0  0  0  0  0  0  0  0  0  0  0  0
    9.6641  -12.2725   19.4798 C   0  0  0  0  0  0  0  0  0  0  0  0
    9.2283  -13.3122   20.2810 C   0  0  0  0  0  0  0  0  0  0  0  0
    7.9160  -13.7745   20.2193 C   0  0  0  0  0  0  0  0  0  0  0  0
    9.1639  -17.5863   22.5962 C   0  0  0  0  0  0  0  0  0  0  0  0
    8.5440  -18.6004   23.0291 O   0  0  0  0  0  0  0  0  0  0  0  0
   12.1045  -19.7531   23.0778 C   0  0  0  0  0  0  0  0  0  0  0  0
   12.2254  -18.6678   24.0863 C   0  0  1  0  0  0  0  0  0  0  0  0
   13.2297  -17.7689   23.7520 O   0  0  0  0  0  0  0  0  0  0  0  0
   10.9794  -17.8922   24.3742 C   0  0  2  0  0  0  0  0  0  0  0  0
   10.3655  -17.2540   23.2555 N   0  0  0  0  0  0  0  0  0  0  0  0
   11.0634  -17.0415   25.5984 C   0  0  0  0  0  0  0  0  0  0  0  0
   11.6601  -15.9407   25.5495 O   0  0  0  0  0  0  0  0  0  0  0  0
   10.5075  -17.4091   26.8423 N   0  0  0  0  0  0  0  0  0  0  0  0
   10.8166  -16.6471   28.0488 C   0  0  1  0  0  0  0  0  0  0  0  0
    9.7118  -15.8735   28.6181 C   0  0  0  0  0  0  0  0  0  0  0  0
    8.6443  -15.4554   27.6688 C   0  0  0  0  0  0  0  0  0  0  0  0
    7.7255  -16.3728   27.1247 C   0  0  0  0  0  0  0  0  0  0  0  0
    6.9112  -15.6797   26.3257 N   0  0  0  0  0  0  0  0  0  0  0  0
    7.2252  -14.3758   26.3029 C   0  0  0  0  0  0  0  0  0  0  0  0
    6.7039  -13.2647   25.6526 C   0  0  0  0  0  0  0  0  0  0  0  0
    7.2996  -12.0426   25.8782 C   0  0  0  0  0  0  0  0  0  0  0  0
    8.3872  -11.8759   26.7154 C   0  0  0  0  0  0  0  0  0  0  0  0
    8.8953  -12.9833   27.3523 C   0  0  0  0  0  0  0  0  0  0  0  0
    8.3079  -14.2377   27.1432 C   0  0  0  0  0  0  0  0  0  0  0  0
   11.2377  -17.6862   29.1140 C   0  0  0  0  0  0  0  0  0  0  0  0
   11.1759  -18.9106   28.8914 O   0  0  0  0  0  0  0  0  0  0  0  0
   11.6868  -17.1985   30.3319 O   0  0  0  0  0  0  0  0  0  0  0  0
  2  1  1  6
  3  2  1  0
  3  4  1  0
  4 12  1  0
  5  4  2  0
  5  6  1  0
  6  7  1  0
  7  8  1  0
  8  9  2  0
 10  9  1  0
 11 10  2  0
 12  7  2  0
 12 11  1  0
 13  2  1  0
 14 13  2  0
 16 15  1  6
 16 17  1  0
 18 19  1  6
 18 16  1  0
 19 13  1  0
 20 21  2  0
 20 18  1  0
 22 20  1  0
 23 24  1  1
 23 22  1  0
 24 25  1  0
 25 26  2  0
 26 27  1  0
 28 27  1  0
 29 28  2  0
 30 29  1  0
 31 32  1  0
 31 30  2  0
 32 33  2  0
 33 25  1  0
 33 28  1  0
 34 36  1  0
 34 23  1  0
 35 34  2  0
M  END
$$$$
