WTW.pdb
     RDKit          3D

 36 39  0  0  1  0  0  0  0  0999 V2000
    6.1809  -17.7251   24.1971 N   0  0  0  0  0  0  0  0  0  0  0  0
    7.2593  -16.8519   23.8371 C   0  0  1  0  0  0  0  0  0  0  0  0
    7.8591  -16.0593   24.9538 C   0  0  0  0  0  0  0  0  0  0  0  0
    7.0320  -14.9395   25.4470 C   0  0  0  0  0  0  0  0  0  0  0  0
    5.8851  -15.0618   26.2583 C   0  0  0  0  0  0  0  0  0  0  0  0
    5.3971  -13.8420   26.5065 N   0  0  0  0  0  0  0  0  0  0  0  0
    6.1808  -12.9264   25.8899 C   0  0  0  0  0  0  0  0  0  0  0  0
    6.1009  -11.5327   25.8276 C   0  0  0  0  0  0  0  0  0  0  0  0
    7.0136  -10.7913   25.1178 C   0  0  0  0  0  0  0  0  0  0  0  0
    8.0214  -11.4606   24.4607 C   0  0  0  0  0  0  0  0  0  0  0  0
    8.1063  -12.8399   24.5188 C   0  0  0  0  0  0  0  0  0  0  0  0
    7.1832  -13.5936   25.2395 C   0  0  0  0  0  0  0  0  0  0  0  0
    8.3305  -17.6274   23.1110 C   0  0  0  0  0  0  0  0  0  0  0  0
    8.6292  -18.8173   23.4188 O   0  0  0  0  0  0  0  0  0  0  0  0
   12.3097  -16.7539   20.1016 C   0  0  0  0  0  0  0  0  0  0  0  0
   10.9051  -16.4765   20.5011 C   0  0  1  0  0  0  0  0  0  0  0  0
   10.0079  -16.8551   19.5112 O   0  0  0  0  0  0  0  0  0  0  0  0
   10.4558  -17.0769   21.7952 C   0  0  2  0  0  0  0  0  0  0  0  0
    9.0509  -17.0537   22.0428 N   0  0  0  0  0  0  0  0  0  0  0  0
   11.2940  -16.6878   22.9680 C   0  0  0  0  0  0  0  0  0  0  0  0
   11.2663  -15.5069   23.3862 O   0  0  0  0  0  0  0  0  0  0  0  0
   12.1442  -17.5844   23.6497 N   0  0  0  0  0  0  0  0  0  0  0  0
   13.0701  -17.1006   24.6696 C   0  0  1  0  0  0  0  0  0  0  0  0
   12.8711  -17.6320   26.0190 C   0  0  0  0  0  0  0  0  0  0  0  0
   11.5762  -17.2980   26.6727 C   0  0  0  0  0  0  0  0  0  0  0  0
   10.5637  -18.2579   26.8613 C   0  0  0  0  0  0  0  0  0  0  0  0
    9.5505  -17.6391   27.4715 N   0  0  0  0  0  0  0  0  0  0  0  0
    9.8199  -16.3448   27.6982 C   0  0  0  0  0  0  0  0  0  0  0  0
    9.1212  -15.2980   28.2859 C   0  0  0  0  0  0  0  0  0  0  0  0
    9.7335  -14.0650   28.3501 C   0  0  0  0  0  0  0  0  0  0  0  0
   11.0026  -13.8256   27.8563 C   0  0  0  0  0  0  0  0  0  0  0  0
   11.6836  -14.8692   27.2756 C   0  0  0  0  0  0  0  0  0  0  0  0
   11.0862  -16.1339   27.1989 C   0  0  0  0  0  0  0  0  0  0  0  0
   14.4793  -17.5438   24.2119 C   0  0  0  0  0  0  0  0  0  0  0  0
   15.5003  -17.2441   24.8604 O   0  0  0  0  0  0  0  0  0  0  0  0
   14.5613  -18.2894   23.0457 O   0  0  0  0  0  0  0  0  0  0  0  0
  2  1  1  1
  3  2  1  0
  3  4  1  0
  4 12  1  0
  5  4  2  0
  5  6  1  0
  6  7  1  0
  7  8  1  0
  8  9  2  0
 10  9  1  0
 11 10  2  0
 12  7  2  0
 12 11  1  0
 13  2  1  0
 14 13  2  0
 16 15  1  6
 16 17  1  0
 18 19  1  1
 18 16  1  0
 19 13  1  0
 20 21  2  0
 20 18  1  0
 22 20  1  0
 23 24  1  1
 23 22  1  0
 24 25  1  0
 25 26  2  0
 26 27  1  0
 28 27  1  0
 29 28  2  0
 30 29  1  0
 31 32  1  0
 31 30  2  0
 32 33  2  0
 33 25  1  0
 33 28  1  0
 34 36  1  0
 34 23  1  0
 35 34  2  0
M  END
$$$$
