WTW.pdb
     RDKit          3D

 36 39  0  0  1  0  0  0  0  0999 V2000
    5.8220  -19.7063   23.2453 N   0  0  0  0  0  0  0  0  0  0  0  0
    6.5593  -18.4890   23.4165 C   0  0  1  0  0  0  0  0  0  0  0  0
    7.2208  -18.3068   24.7448 C   0  0  0  0  0  0  0  0  0  0  0  0
    6.6989  -17.1921   25.5611 C   0  0  0  0  0  0  0  0  0  0  0  0
    5.5177  -17.2216   26.3308 C   0  0  0  0  0  0  0  0  0  0  0  0
    5.3626  -16.0381   26.9331 N   0  0  0  0  0  0  0  0  0  0  0  0
    6.3969  -15.2356   26.5881 C   0  0  0  0  0  0  0  0  0  0  0  0
    6.6984  -13.9156   26.9333 C   0  0  0  0  0  0  0  0  0  0  0  0
    7.8153  -13.2820   26.4455 C   0  0  0  0  0  0  0  0  0  0  0  0
    8.6412  -13.9857   25.5980 C   0  0  0  0  0  0  0  0  0  0  0  0
    8.3486  -15.2927   25.2528 C   0  0  0  0  0  0  0  0  0  0  0  0
    7.2179  -15.9378   25.7477 C   0  0  0  0  0  0  0  0  0  0  0  0
    7.5670  -18.3353   22.3042 C   0  0  0  0  0  0  0  0  0  0  0  0
    8.3191  -19.2841   21.9382 O   0  0  0  0  0  0  0  0  0  0  0  0
    7.0285  -15.7620   19.1132 C   0  0  0  0  0  0  0  0  0  0  0  0
    8.3778  -15.6498   19.7267 C   0  0  1  0  0  0  0  0  0  0  0  0
    8.5643  -14.4125   20.3288 O   0  0  0  0  0  0  0  0  0  0  0  0
    8.7444  -16.7115   20.7143 C   0  0  2  0  0  0  0  0  0  0  0  0
    7.7128  -17.1141   21.6139 N   0  0  0  0  0  0  0  0  0  0  0  0
   10.0768  -16.5083   21.3569 C   0  0  0  0  0  0  0  0  0  0  0  0
   11.0898  -16.3278   20.6417 O   0  0  0  0  0  0  0  0  0  0  0  0
   10.2771  -16.5146   22.7538 N   0  0  0  0  0  0  0  0  0  0  0  0
   11.5873  -16.2036   23.3180 C   0  0  1  0  0  0  0  0  0  0  0  0
   11.6951  -14.9227   24.0186 C   0  0  0  0  0  0  0  0  0  0  0  0
   10.7103  -14.6850   25.1091 C   0  0  0  0  0  0  0  0  0  0  0  0
   10.7555  -15.3925   26.3254 C   0  0  0  0  0  0  0  0  0  0  0  0
    9.7471  -14.9416   27.0749 N   0  0  0  0  0  0  0  0  0  0  0  0
    9.0420  -13.9912   26.4435 C   0  0  0  0  0  0  0  0  0  0  0  0
    7.9334  -13.2240   26.7776 C   0  0  0  0  0  0  0  0  0  0  0  0
    7.4716  -12.3139   25.8514 C   0  0  0  0  0  0  0  0  0  0  0  0
    8.0578  -12.1344   24.6121 C   0  0  0  0  0  0  0  0  0  0  0  0
    9.1537  -12.9006   24.2923 C   0  0  0  0  0  0  0  0  0  0  0  0
    9.6459  -13.8319   25.2157 C   0  0  0  0  0  0  0  0  0  0  0  0
   11.8799  -17.3127   24.3554 C   0  0  0  0  0  0  0  0  0  0  0  0
   12.9723  -17.3772   24.9512 O   0  0  0  0  0  0  0  0  0  0  0  0
   10.8743  -18.2369   24.5952 O   0  0  0  0  0  0  0  0  0  0  0  0
  2  1  1  1
  3  2  1  0
  3  4  1  0
  4 12  1  0
  5  4  2  0
  5  6  1  0
  6  7  1  0
  7  8  1  0
  8  9  2  0
 10  9  1  0
 11 10  2  0
 12  7  2  0
 12 11  1  0
 13  2  1  0
 14 13  2  0
 16 15  1  1
 16 17  1  0
 18 19  1  1
 18 16  1  0
 19 13  1  0
 20 21  2  0
 20 18  1  0
 22 20  1  0
 23 24  1  1
 23 22  1  0
 24 25  1  0
 25 26  2  0
 26 27  1  0
 28 27  1  0
 29 28  2  0
 30 29  1  0
 31 32  1  0
 31 30  2  0
 32 33  2  0
 33 25  1  0
 33 28  1  0
 34 36  1  0
 34 23  1  0
 35 34  2  0
M  END
$$$$
