WTW.pdb
     RDKit          3D

 36 39  0  0  1  0  0  0  0  0999 V2000
    7.7981  -18.0069   20.6938 N   0  0  0  0  0  0  0  0  0  0  0  0
    8.3088  -16.9779   21.5513 C   0  0  1  0  0  0  0  0  0  0  0  0
    7.3495  -15.8879   21.9072 C   0  0  0  0  0  0  0  0  0  0  0  0
    7.0211  -14.9546   20.8106 C   0  0  0  0  0  0  0  0  0  0  0  0
    5.8347  -14.9691   20.0485 C   0  0  0  0  0  0  0  0  0  0  0  0
    5.8851  -13.9817   19.1484 N   0  0  0  0  0  0  0  0  0  0  0  0
    7.0580  -13.3212   19.2927 C   0  0  0  0  0  0  0  0  0  0  0  0
    7.5974  -12.2329   18.6021 C   0  0  0  0  0  0  0  0  0  0  0  0
    8.8353  -11.7256   18.9136 C   0  0  0  0  0  0  0  0  0  0  0  0
    9.5416  -12.3215   19.9343 C   0  0  0  0  0  0  0  0  0  0  0  0
    9.0131  -13.3988   20.6220 C   0  0  0  0  0  0  0  0  0  0  0  0
    7.7573  -13.9135   20.3093 C   0  0  0  0  0  0  0  0  0  0  0  0
    8.8928  -17.5901   22.8005 C   0  0  0  0  0  0  0  0  0  0  0  0
    8.2061  -18.3029   23.5882 O   0  0  0  0  0  0  0  0  0  0  0  0
   12.0872  -19.7926   22.9996 C   0  0  0  0  0  0  0  0  0  0  0  0
   12.2223  -18.6581   23.9506 C   0  0  1  0  0  0  0  0  0  0  0  0
   13.1800  -17.7465   23.5261 O   0  0  0  0  0  0  0  0  0  0  0  0
   10.9677  -17.9072   24.2652 C   0  0  2  0  0  0  0  0  0  0  0  0
   10.2462  -17.3950   23.1459 N   0  0  0  0  0  0  0  0  0  0  0  0
   11.1034  -16.9479   25.4013 C   0  0  0  0  0  0  0  0  0  0  0  0
   11.6311  -15.8278   25.2082 O   0  0  0  0  0  0  0  0  0  0  0  0
   10.6725  -17.2302   26.7151 N   0  0  0  0  0  0  0  0  0  0  0  0
   10.9861  -16.3191   27.8120 C   0  0  1  0  0  0  0  0  0  0  0  0
   10.2448  -15.0568   27.8277 C   0  0  0  0  0  0  0  0  0  0  0  0
    8.9085  -15.0710   27.1722 C   0  0  0  0  0  0  0  0  0  0  0  0
    8.1676  -16.2570   27.0093 C   0  0  0  0  0  0  0  0  0  0  0  0
    7.0296  -15.9231   26.3966 N   0  0  0  0  0  0  0  0  0  0  0  0
    6.9662  -14.6073   26.1440 C   0  0  0  0  0  0  0  0  0  0  0  0
    6.0246  -13.7797   25.5458 C   0  0  0  0  0  0  0  0  0  0  0  0
    6.3056  -12.4331   25.4610 C   0  0  0  0  0  0  0  0  0  0  0  0
    7.4764  -11.8746   25.9395 C   0  0  0  0  0  0  0  0  0  0  0  0
    8.4013  -12.7041   26.5282 C   0  0  0  0  0  0  0  0  0  0  0  0
    8.1408  -14.0767   26.6299 C   0  0  0  0  0  0  0  0  0  0  0  0
   10.6220  -17.0740   29.1117 C   0  0  0  0  0  0  0  0  0  0  0  0
   10.0417  -18.1763   29.0853 O   0  0  0  0  0  0  0  0  0  0  0  0
   10.9672  -16.4716   30.3120 O   0  0  0  0  0  0  0  0  0  0  0  0
  2  1  1  1
  3  2  1  0
  3  4  1  0
  4 12  1  0
  5  4  2  0
  5  6  1  0
  6  7  1  0
  7  8  1  0
  8  9  2  0
 10  9  1  0
 11 10  2  0
 12  7  2  0
 12 11  1  0
 13  2  1  0
 14 13  2  0
 16 15  1  6
 16 17  1  0
 18 19  1  6
 18 16  1  0
 19 13  1  0
 20 21  2  0
 20 18  1  0
 22 20  1  0
 23 24  1  6
 23 22  1  0
 24 25  1  0
 25 26  2  0
 26 27  1  0
 28 27  1  0
 29 28  2  0
 30 29  1  0
 31 32  1  0
 31 30  2  0
 32 33  2  0
 33 25  1  0
 33 28  1  0
 34 36  1  0
 34 23  1  0
 35 34  2  0
M  END
$$$$
