WTW.pdb
     RDKit          3D

 36 39  0  0  1  0  0  0  0  0999 V2000
   13.3117  -14.9801   19.8660 N   0  0  0  0  0  0  0  0  0  0  0  0
   11.9478  -15.2527   20.2130 C   0  0  1  0  0  0  0  0  0  0  0  0
   11.1676  -16.0515   19.2188 C   0  0  0  0  0  0  0  0  0  0  0  0
    9.8896  -15.4483   18.7895 C   0  0  0  0  0  0  0  0  0  0  0  0
    9.0515  -15.9417   17.7684 C   0  0  0  0  0  0  0  0  0  0  0  0
    7.9859  -15.1419   17.6573 N   0  0  0  0  0  0  0  0  0  0  0  0
    8.0939  -14.1448   18.5667 C   0  0  0  0  0  0  0  0  0  0  0  0
    7.2627  -13.0581   18.8505 C   0  0  0  0  0  0  0  0  0  0  0  0
    7.5817  -12.1440   19.8249 C   0  0  0  0  0  0  0  0  0  0  0  0
    8.7538  -12.3250   20.5242 C   0  0  0  0  0  0  0  0  0  0  0  0
    9.5807  -13.3988   20.2485 C   0  0  0  0  0  0  0  0  0  0  0  0
    9.2582  -14.3280   19.2624 C   0  0  0  0  0  0  0  0  0  0  0  0
   11.8814  -15.9011   21.5736 C   0  0  0  0  0  0  0  0  0  0  0  0
   12.7706  -15.7165   22.4541 O   0  0  0  0  0  0  0  0  0  0  0  0
    7.8319  -17.0436   22.5856 C   0  0  0  0  0  0  0  0  0  0  0  0
    8.9640  -17.7353   23.2559 C   0  0  1  0  0  0  0  0  0  0  0  0
    9.1460  -19.0187   22.7578 O   0  0  0  0  0  0  0  0  0  0  0  0
   10.2819  -17.0289   23.2232 C   0  0  2  0  0  0  0  0  0  0  0  0
   10.8106  -16.7477   21.9281 N   0  0  0  0  0  0  0  0  0  0  0  0
   11.2823  -17.5656   24.1931 C   0  0  0  0  0  0  0  0  0  0  0  0
   12.2374  -18.2625   23.7780 O   0  0  0  0  0  0  0  0  0  0  0  0
   11.2167  -17.3404   25.5847 N   0  0  0  0  0  0  0  0  0  0  0  0
   12.2087  -17.9284   26.4802 C   0  0  1  0  0  0  0  0  0  0  0  0
   12.5697  -17.1266   27.6506 C   0  0  0  0  0  0  0  0  0  0  0  0
   11.4495  -16.4329   28.3432 C   0  0  0  0  0  0  0  0  0  0  0  0
   10.9375  -16.8836   29.5747 C   0  0  0  0  0  0  0  0  0  0  0  0
    9.9555  -16.0467   29.9169 N   0  0  0  0  0  0  0  0  0  0  0  0
    9.7828  -15.0797   29.0035 C   0  0  0  0  0  0  0  0  0  0  0  0
    8.9218  -13.9957   28.8908 C   0  0  0  0  0  0  0  0  0  0  0  0
    9.0385  -13.1876   27.7805 C   0  0  0  0  0  0  0  0  0  0  0  0
    9.9668  -13.4087   26.7800 C   0  0  0  0  0  0  0  0  0  0  0  0
   10.8125  -14.4857   26.9020 C   0  0  0  0  0  0  0  0  0  0  0  0
   10.7177  -15.3225   28.0213 C   0  0  0  0  0  0  0  0  0  0  0  0
   11.5839  -19.2416   27.0064 C   0  0  0  0  0  0  0  0  0  0  0  0
   10.4028  -19.5488   26.7551 O   0  0  0  0  0  0  0  0  0  0  0  0
   12.3936  -20.0655   27.7734 O   0  0  0  0  0  0  0  0  0  0  0  0
  2  1  1  6
  3  2  1  0
  3  4  1  0
  4 12  1  0
  5  4  2  0
  5  6  1  0
  6  7  1  0
  7  8  1  0
  8  9  2  0
 10  9  1  0
 11 10  2  0
 12  7  2  0
 12 11  1  0
 13  2  1  0
 14 13  2  0
 16 15  1  6
 16 17  1  0
 18 19  1  6
 18 16  1  0
 19 13  1  0
 20 21  2  0
 20 18  1  0
 22 20  1  0
 23 24  1  1
 23 22  1  0
 24 25  1  0
 25 26  2  0
 26 27  1  0
 28 27  1  0
 29 28  2  0
 30 29  1  0
 31 32  1  0
 31 30  2  0
 32 33  2  0
 33 25  1  0
 33 28  1  0
 34 36  1  0
 34 23  1  0
 35 34  2  0
M  END
$$$$
