WTW.pdb
     RDKit          3D

 36 39  0  0  1  0  0  0  0  0999 V2000
    6.5070  -17.6886   24.8065 N   0  0  0  0  0  0  0  0  0  0  0  0
    7.5664  -16.8684   24.2966 C   0  0  1  0  0  0  0  0  0  0  0  0
    8.2453  -15.9838   25.2924 C   0  0  0  0  0  0  0  0  0  0  0  0
    7.3984  -14.9219   25.8725 C   0  0  0  0  0  0  0  0  0  0  0  0
    6.3740  -15.1162   26.8219 C   0  0  0  0  0  0  0  0  0  0  0  0
    5.8244  -13.9333   27.1156 N   0  0  0  0  0  0  0  0  0  0  0  0
    6.4501  -12.9724   26.3958 C   0  0  0  0  0  0  0  0  0  0  0  0
    6.2519  -11.5909   26.3285 C   0  0  0  0  0  0  0  0  0  0  0  0
    7.0077  -10.7955   25.5021 C   0  0  0  0  0  0  0  0  0  0  0  0
    7.9769  -11.3979   24.7319 C   0  0  0  0  0  0  0  0  0  0  0  0
    8.1784  -12.7648   24.7942 C   0  0  0  0  0  0  0  0  0  0  0  0
    7.4147  -13.5729   25.6328 C   0  0  0  0  0  0  0  0  0  0  0  0
    8.5808  -17.7234   23.5783 C   0  0  0  0  0  0  0  0  0  0  0  0
    9.0807  -18.7613   24.1008 O   0  0  0  0  0  0  0  0  0  0  0  0
    9.2507  -17.9705   19.4188 C   0  0  0  0  0  0  0  0  0  0  0  0
   10.3831  -17.4175   20.2070 C   0  0  1  0  0  0  0  0  0  0  0  0
   10.5818  -16.0694   19.9397 O   0  0  0  0  0  0  0  0  0  0  0  0
   10.3039  -17.5943   21.6901 C   0  0  2  0  0  0  0  0  0  0  0  0
    9.0177  -17.4009   22.2767 N   0  0  0  0  0  0  0  0  0  0  0  0
   11.4247  -16.9515   22.4385 C   0  0  0  0  0  0  0  0  0  0  0  0
   11.6562  -15.7301   22.2812 O   0  0  0  0  0  0  0  0  0  0  0  0
   12.2682  -17.6494   23.3289 N   0  0  0  0  0  0  0  0  0  0  0  0
   13.3720  -16.9658   23.9968 C   0  0  1  0  0  0  0  0  0  0  0  0
   13.0052  -15.8173   24.8272 C   0  0  0  0  0  0  0  0  0  0  0  0
   12.2149  -16.1175   26.0523 C   0  0  0  0  0  0  0  0  0  0  0  0
   12.3363  -17.3398   26.7402 C   0  0  0  0  0  0  0  0  0  0  0  0
   11.5030  -17.2840   27.7816 N   0  0  0  0  0  0  0  0  0  0  0  0
   10.8427  -16.1175   27.8305 C   0  0  0  0  0  0  0  0  0  0  0  0
    9.8939  -15.5764   28.6885 C   0  0  0  0  0  0  0  0  0  0  0  0
    9.4276  -14.3071   28.4220 C   0  0  0  0  0  0  0  0  0  0  0  0
    9.8579  -13.5556   27.3442 C   0  0  0  0  0  0  0  0  0  0  0  0
   10.7962  -14.1025   26.5012 C   0  0  0  0  0  0  0  0  0  0  0  0
   11.2894  -15.3899   26.7495 C   0  0  0  0  0  0  0  0  0  0  0  0
   14.0189  -18.0130   24.9331 C   0  0  0  0  0  0  0  0  0  0  0  0
   13.4754  -19.1115   25.1580 O   0  0  0  0  0  0  0  0  0  0  0  0
   15.2319  -17.6782   25.5158 O   0  0  0  0  0  0  0  0  0  0  0  0
  2  1  1  1
  3  2  1  0
  3  4  1  0
  4 12  1  0
  5  4  2  0
  5  6  1  0
  6  7  1  0
  7  8  1  0
  8  9  2  0
 10  9  1  0
 11 10  2  0
 12  7  2  0
 12 11  1  0
 13  2  1  0
 14 13  2  0
 16 15  1  6
 16 17  1  0
 18 19  1  1
 18 16  1  0
 19 13  1  0
 20 21  2  0
 20 18  1  0
 22 20  1  0
 23 24  1  1
 23 22  1  0
 24 25  1  0
 25 26  2  0
 26 27  1  0
 28 27  1  0
 29 28  2  0
 30 29  1  0
 31 32  1  0
 31 30  2  0
 32 33  2  0
 33 25  1  0
 33 28  1  0
 34 36  1  0
 34 23  1  0
 35 34  2  0
M  END
$$$$
