WTW.pdb
     RDKit          3D

 36 39  0  0  1  0  0  0  0  0999 V2000
    9.7238  -16.7318   20.4481 N   0  0  0  0  0  0  0  0  0  0  0  0
    9.0708  -16.0825   21.5467 C   0  0  1  0  0  0  0  0  0  0  0  0
    7.6221  -15.7683   21.3527 C   0  0  0  0  0  0  0  0  0  0  0  0
    7.3031  -14.9901   20.1387 C   0  0  0  0  0  0  0  0  0  0  0  0
    6.4920  -15.4293   19.0720 C   0  0  0  0  0  0  0  0  0  0  0  0
    6.4271  -14.4633   18.1499 N   0  0  0  0  0  0  0  0  0  0  0  0
    7.1636  -13.4088   18.5723 C   0  0  0  0  0  0  0  0  0  0  0  0
    7.4279  -12.1700   17.9824 C   0  0  0  0  0  0  0  0  0  0  0  0
    8.2303  -11.2385   18.5950 C   0  0  0  0  0  0  0  0  0  0  0  0
    8.7752  -11.5571   19.8185 C   0  0  0  0  0  0  0  0  0  0  0  0
    8.5172  -12.7815   20.4079 C   0  0  0  0  0  0  0  0  0  0  0  0
    7.7023  -13.7266   19.7896 C   0  0  0  0  0  0  0  0  0  0  0  0
    9.2684  -16.8827   22.8104 C   0  0  0  0  0  0  0  0  0  0  0  0
    8.2995  -17.2512   23.5352 O   0  0  0  0  0  0  0  0  0  0  0  0
   11.6695  -20.0630   23.3132 C   0  0  0  0  0  0  0  0  0  0  0  0
   11.9654  -19.0005   24.3097 C   0  0  1  0  0  0  0  0  0  0  0  0
   13.1963  -18.4038   24.0704 O   0  0  0  0  0  0  0  0  0  0  0  0
   10.9401  -17.9203   24.4474 C   0  0  2  0  0  0  0  0  0  0  0  0
   10.5567  -17.2623   23.2409 N   0  0  0  0  0  0  0  0  0  0  0  0
   11.1773  -17.0021   25.6008 C   0  0  0  0  0  0  0  0  0  0  0  0
   12.0021  -16.0654   25.4890 O   0  0  0  0  0  0  0  0  0  0  0  0
   10.5222  -17.1280   26.8443 N   0  0  0  0  0  0  0  0  0  0  0  0
   10.9515  -16.3369   27.9939 C   0  0  1  0  0  0  0  0  0  0  0  0
   10.1406  -15.1565   28.2976 C   0  0  0  0  0  0  0  0  0  0  0  0
    8.8584  -15.0303   27.5521 C   0  0  0  0  0  0  0  0  0  0  0  0
    8.0288  -16.1388   27.2973 C   0  0  0  0  0  0  0  0  0  0  0  0
    6.9715  -15.6853   26.6202 N   0  0  0  0  0  0  0  0  0  0  0  0
    7.0432  -14.3624   26.4102 C   0  0  0  0  0  0  0  0  0  0  0  0
    6.2239  -13.4358   25.7784 C   0  0  0  0  0  0  0  0  0  0  0  0
    6.6285  -12.1184   25.7604 C   0  0  0  0  0  0  0  0  0  0  0  0
    7.8071  -11.6827   26.3372 C   0  0  0  0  0  0  0  0  0  0  0  0
    8.6104  -12.6095   26.9583 C   0  0  0  0  0  0  0  0  0  0  0  0
    8.2226  -13.9551   26.9937 C   0  0  0  0  0  0  0  0  0  0  0  0
   10.8585  -17.2771   29.2183 C   0  0  0  0  0  0  0  0  0  0  0  0
   11.2614  -16.9249   30.3436 O   0  0  0  0  0  0  0  0  0  0  0  0
   10.3083  -18.5331   29.0121 O   0  0  0  0  0  0  0  0  0  0  0  0
  2  1  1  6
  3  2  1  0
  3  4  1  0
  4 12  1  0
  5  4  2  0
  5  6  1  0
  6  7  1  0
  7  8  1  0
  8  9  2  0
 10  9  1  0
 11 10  2  0
 12  7  2  0
 12 11  1  0
 13  2  1  0
 14 13  2  0
 16 15  1  6
 16 17  1  0
 18 19  1  6
 18 16  1  0
 19 13  1  0
 20 21  2  0
 20 18  1  0
 22 20  1  0
 23 24  1  1
 23 22  1  0
 24 25  1  0
 25 26  2  0
 26 27  1  0
 28 27  1  0
 29 28  2  0
 30 29  1  0
 31 32  1  0
 31 30  2  0
 32 33  2  0
 33 25  1  0
 33 28  1  0
 34 36  1  0
 34 23  1  0
 35 34  2  0
M  END
$$$$
