WTW.pdb
     RDKit          3D

 36 39  0  0  1  0  0  0  0  0999 V2000
    7.7974  -17.7681   21.0613 N   0  0  0  0  0  0  0  0  0  0  0  0
    8.7031  -16.9036   21.7594 C   0  0  1  0  0  0  0  0  0  0  0  0
    8.1211  -15.6271   22.2758 C   0  0  0  0  0  0  0  0  0  0  0  0
    7.5028  -14.7577   21.2544 C   0  0  0  0  0  0  0  0  0  0  0  0
    6.1216  -14.6590   20.9880 C   0  0  0  0  0  0  0  0  0  0  0  0
    5.9319  -13.7768   20.0015 N   0  0  0  0  0  0  0  0  0  0  0  0
    7.1354  -13.2937   19.6127 C   0  0  0  0  0  0  0  0  0  0  0  0
    7.4854  -12.3680   18.6262 C   0  0  0  0  0  0  0  0  0  0  0  0
    8.7957  -12.0306   18.3894 C   0  0  0  0  0  0  0  0  0  0  0  0
    9.7684  -12.6327   19.1554 C   0  0  0  0  0  0  0  0  0  0  0  0
    9.4285  -13.5494   20.1336 C   0  0  0  0  0  0  0  0  0  0  0  0
    8.1006  -13.8916   20.3769 C   0  0  0  0  0  0  0  0  0  0  0  0
    9.3808  -17.6595   22.8755 C   0  0  0  0  0  0  0  0  0  0  0  0
    8.7618  -18.4883   23.6033 O   0  0  0  0  0  0  0  0  0  0  0  0
   12.8983  -19.5649   22.8313 C   0  0  0  0  0  0  0  0  0  0  0  0
   12.8649  -18.5344   23.9020 C   0  0  1  0  0  0  0  0  0  0  0  0
   13.7092  -17.4702   23.6138 O   0  0  0  0  0  0  0  0  0  0  0  0
   11.5177  -17.9835   24.2465 C   0  0  2  0  0  0  0  0  0  0  0  0
   10.7507  -17.4752   23.1562 N   0  0  0  0  0  0  0  0  0  0  0  0
   11.5095  -17.1163   25.4620 C   0  0  0  0  0  0  0  0  0  0  0  0
   12.1852  -16.0610   25.4761 O   0  0  0  0  0  0  0  0  0  0  0  0
   10.7779  -17.4190   26.6301 N   0  0  0  0  0  0  0  0  0  0  0  0
   10.9123  -16.5926   27.8262 C   0  0  1  0  0  0  0  0  0  0  0  0
   10.4108  -15.2216   27.7169 C   0  0  0  0  0  0  0  0  0  0  0  0
    9.1286  -15.0473   26.9812 C   0  0  0  0  0  0  0  0  0  0  0  0
    8.3331  -16.1425   26.5945 C   0  0  0  0  0  0  0  0  0  0  0  0
    7.2657  -15.6448   25.9661 N   0  0  0  0  0  0  0  0  0  0  0  0
    7.2992  -14.3050   25.9102 C   0  0  0  0  0  0  0  0  0  0  0  0
    6.4555  -13.3357   25.3830 C   0  0  0  0  0  0  0  0  0  0  0  0
    6.8212  -12.0140   25.5196 C   0  0  0  0  0  0  0  0  0  0  0  0
    7.9840  -11.6138   26.1515 C   0  0  0  0  0  0  0  0  0  0  0  0
    8.8118  -12.5824   26.6679 C   0  0  0  0  0  0  0  0  0  0  0  0
    8.4637  -13.9337   26.5455 C   0  0  0  0  0  0  0  0  0  0  0  0
   10.0793  -17.2929   28.9251 C   0  0  0  0  0  0  0  0  0  0  0  0
    9.3858  -18.2980   28.6772 O   0  0  0  0  0  0  0  0  0  0  0  0
   10.1343  -16.7542   30.2016 O   0  0  0  0  0  0  0  0  0  0  0  0
  2  1  1  1
  3  2  1  0
  3  4  1  0
  4 12  1  0
  5  4  2  0
  5  6  1  0
  6  7  1  0
  7  8  1  0
  8  9  2  0
 10  9  1  0
 11 10  2  0
 12  7  2  0
 12 11  1  0
 13  2  1  0
 14 13  2  0
 16 15  1  6
 16 17  1  0
 18 19  1  6
 18 16  1  0
 19 13  1  0
 20 21  2  0
 20 18  1  0
 22 20  1  0
 23 24  1  6
 23 22  1  0
 24 25  1  0
 25 26  2  0
 26 27  1  0
 28 27  1  0
 29 28  2  0
 30 29  1  0
 31 32  1  0
 31 30  2  0
 32 33  2  0
 33 25  1  0
 33 28  1  0
 34 36  1  0
 34 23  1  0
 35 34  2  0
M  END
$$$$
