CDR.pdb
     RDKit          3D

 26 25  0  0  1  0  0  0  0  0999 V2000
   28.1012  -21.2252  -15.6499 N   0  0  0  0  0  0  0  0  0  0  0  0
   27.3780  -20.1980  -14.9227 C   0  0  1  0  0  0  0  0  0  0  0  0
   26.8906  -19.1925  -15.9442 C   0  0  0  0  0  0  0  0  0  0  0  0
   28.1567  -18.8402  -17.1870 S   0  0  0  0  0  0  0  0  0  0  0  0
   26.1792  -20.7546  -14.2407 C   0  0  0  0  0  0  0  0  0  0  0  0
   25.6147  -21.7838  -14.6877 O   0  0  0  0  0  0  0  0  0  0  0  0
   25.6149  -20.1709  -13.0742 N   0  0  0  0  0  0  0  0  0  0  0  0
   24.4485  -20.7739  -12.4612 C   0  0  1  0  0  0  0  0  0  0  0  0
   24.3529  -20.1622  -11.0560 C   0  0  0  0  0  0  0  0  0  0  0  0
   25.2161  -21.0156  -10.1907 C   0  0  0  0  0  0  0  0  0  0  0  0
   25.7453  -22.0546  -10.6145 O   0  0  0  0  0  0  0  0  0  0  0  0
   23.2203  -20.5549  -13.2142 C   0  0  0  0  0  0  0  0  0  0  0  0
   23.0425  -19.4937  -13.8448 O   0  0  0  0  0  0  0  0  0  0  0  0
   25.4468  -20.6531   -8.8669 O   0  0  0  0  0  0  0  0  0  0  0  0
   19.0993  -24.9007   -9.3998 N   0  0  0  0  0  0  0  0  0  0  0  0
   17.9959  -24.0187   -9.4315 C   0  0  0  0  0  0  0  0  0  0  0  0
   17.2086  -23.9556   -8.4123 N   0  0  0  0  0  0  0  0  0  0  0  0
   17.7910  -23.2271  -10.5917 N   0  0  0  0  0  0  0  0  0  0  0  0
   18.5475  -23.4945  -11.7929 C   0  0  0  0  0  0  0  0  0  0  0  0
   19.3091  -22.2117  -12.1519 C   0  0  0  0  0  0  0  0  0  0  0  0
   20.0687  -22.5105  -13.3988 C   0  0  0  0  0  0  0  0  0  0  0  0
   20.9069  -21.3362  -13.8381 C   0  0  2  0  0  0  0  0  0  0  0  0
   22.2233  -21.5529  -13.2297 N   0  0  0  0  0  0  0  0  0  0  0  0
   20.3690  -20.0219  -13.4985 C   0  0  0  0  0  0  0  0  0  0  0  0
   19.7031  -19.2822  -14.4878 O   0  0  0  0  0  0  0  0  0  0  0  0
   20.4785  -19.5273  -12.3566 O   0  0  0  0  0  0  0  0  0  0  0  0
  2  1  1  6
  3  2  1  0
  4  3  1  0
  5  2  1  0
  5  6  2  0
  7  5  1  0
  8  7  1  0
  9 10  1  0
  8  9  1  1
 10 14  1  0
 10 11  2  0
 12  8  1  0
 13 12  2  0
 16 15  1  0
 17 16  2  0
 18 16  1  0
 19 18  1  0
 20 19  1  0
 21 20  1  0
 22 21  1  1
 22 23  1  0
 23 12  1  0
 24 22  1  0
 25 24  1  0
 26 24  2  0
M  END
$$$$
