CDR.pdb
     RDKit          3D

 26 25  0  0  1  0  0  0  0  0999 V2000
   16.6396  -10.6929  -13.8346 N   0  0  0  0  0  0  0  0  0  0  0  0
   15.9042   -9.4841  -14.1590 C   0  0  1  0  0  0  0  0  0  0  0  0
   14.4463   -9.7585  -13.8572 C   0  0  0  0  0  0  0  0  0  0  0  0
   13.7796  -11.0581  -14.9242 S   0  0  0  0  0  0  0  0  0  0  0  0
   16.3273   -8.3429  -13.3042 C   0  0  0  0  0  0  0  0  0  0  0  0
   16.6644   -8.5348  -12.1095 O   0  0  0  0  0  0  0  0  0  0  0  0
   16.3736   -7.0026  -13.7746 N   0  0  0  0  0  0  0  0  0  0  0  0
   16.8267   -5.9465  -12.8919 C   0  0  1  0  0  0  0  0  0  0  0  0
   17.3981   -4.8543  -13.8075 C   0  0  0  0  0  0  0  0  0  0  0  0
   18.6429   -5.4331  -14.3886 C   0  0  0  0  0  0  0  0  0  0  0  0
   19.4861   -6.0121  -13.6867 O   0  0  0  0  0  0  0  0  0  0  0  0
   15.7737   -5.4161  -12.0354 C   0  0  0  0  0  0  0  0  0  0  0  0
   14.5737   -5.6405  -12.2911 O   0  0  0  0  0  0  0  0  0  0  0  0
   18.8838   -5.3311  -15.7557 O   0  0  0  0  0  0  0  0  0  0  0  0
   11.2856   -8.2634   -6.6031 N   0  0  0  0  0  0  0  0  0  0  0  0
   11.1116   -6.9279   -6.1758 C   0  0  0  0  0  0  0  0  0  0  0  0
   10.2700   -6.6712   -5.2332 N   0  0  0  0  0  0  0  0  0  0  0  0
   11.8743   -5.9082   -6.8027 N   0  0  0  0  0  0  0  0  0  0  0  0
   12.8186   -6.2466   -7.8423 C   0  0  0  0  0  0  0  0  0  0  0  0
   13.4670   -4.9398   -8.3178 C   0  0  0  0  0  0  0  0  0  0  0  0
   14.4494   -5.3191   -9.3724 C   0  0  0  0  0  0  0  0  0  0  0  0
   15.1050   -4.1082   -9.9876 C   0  0  2  0  0  0  0  0  0  0  0  0
   16.1152   -4.6418  -10.9069 N   0  0  0  0  0  0  0  0  0  0  0  0
   15.6884   -3.1634   -9.0395 C   0  0  0  0  0  0  0  0  0  0  0  0
   17.0745   -3.1860   -8.8209 O   0  0  0  0  0  0  0  0  0  0  0  0
   14.9994   -2.3315   -8.4120 O   0  0  0  0  0  0  0  0  0  0  0  0
  2  1  1  1
  3  2  1  0
  4  3  1  0
  5  2  1  0
  5  6  2  0
  7  5  1  0
  8  7  1  0
  9 10  1  0
  8  9  1  6
 10 14  1  0
 10 11  2  0
 12  8  1  0
 13 12  2  0
 16 15  1  0
 17 16  2  0
 18 16  1  0
 19 18  1  0
 20 19  1  0
 21 20  1  0
 22 21  1  1
 22 23  1  0
 23 12  1  0
 24 22  1  0
 25 24  1  0
 26 24  2  0
M  END
$$$$
