CDR.pdb
     RDKit          3D

 26 25  0  0  1  0  0  0  0  0999 V2000
   23.9454  -11.2332  -15.3669 N   0  0  0  0  0  0  0  0  0  0  0  0
   23.5960  -10.2251  -16.3511 C   0  0  1  0  0  0  0  0  0  0  0  0
   22.7743  -10.9151  -17.4191 C   0  0  0  0  0  0  0  0  0  0  0  0
   23.6693  -12.3059  -18.1515 S   0  0  0  0  0  0  0  0  0  0  0  0
   22.7472   -9.1567  -15.7593 C   0  0  0  0  0  0  0  0  0  0  0  0
   21.7214   -9.4536  -15.0981 O   0  0  0  0  0  0  0  0  0  0  0  0
   23.0376   -7.7729  -15.9028 N   0  0  0  0  0  0  0  0  0  0  0  0
   22.1579   -6.7884  -15.3054 C   0  0  1  0  0  0  0  0  0  0  0  0
   23.0782   -5.7707  -14.6161 C   0  0  0  0  0  0  0  0  0  0  0  0
   22.1710   -4.8645  -13.8560 C   0  0  0  0  0  0  0  0  0  0  0  0
   21.2608   -5.3021  -13.1354 O   0  0  0  0  0  0  0  0  0  0  0  0
   21.2808   -6.1353  -16.2687 C   0  0  0  0  0  0  0  0  0  0  0  0
   21.7484   -5.6066  -17.2970 O   0  0  0  0  0  0  0  0  0  0  0  0
   22.3339   -3.4850  -13.9443 O   0  0  0  0  0  0  0  0  0  0  0  0
   15.0269   -9.8884  -15.3568 N   0  0  0  0  0  0  0  0  0  0  0  0
   14.3741   -8.8776  -16.0973 C   0  0  0  0  0  0  0  0  0  0  0  0
   13.1036   -8.9641  -16.3000 N   0  0  0  0  0  0  0  0  0  0  0  0
   15.1442   -7.7945  -16.5958 N   0  0  0  0  0  0  0  0  0  0  0  0
   16.4714   -8.0294  -17.1158 C   0  0  0  0  0  0  0  0  0  0  0  0
   16.9745   -6.7058  -17.7069 C   0  0  0  0  0  0  0  0  0  0  0  0
   17.5945   -5.9527  -16.5802 C   0  0  0  0  0  0  0  0  0  0  0  0
   18.9593   -5.4245  -16.9444 C   0  0  2  0  0  0  0  0  0  0  0  0
   19.8900   -6.1012  -16.0355 N   0  0  0  0  0  0  0  0  0  0  0  0
   19.1062   -3.9732  -16.8794 C   0  0  0  0  0  0  0  0  0  0  0  0
   19.0151   -3.2256  -18.0636 O   0  0  0  0  0  0  0  0  0  0  0  0
   19.3107   -3.3674  -15.8061 O   0  0  0  0  0  0  0  0  0  0  0  0
  2  1  1  1
  3  2  1  0
  4  3  1  0
  5  2  1  0
  5  6  2  0
  7  5  1  0
  8  7  1  0
  9 10  1  0
  8  9  1  6
 10 14  1  0
 10 11  2  0
 12  8  1  0
 13 12  2  0
 16 15  1  0
 17 16  2  0
 18 16  1  0
 19 18  1  0
 20 19  1  0
 21 20  1  0
 22 21  1  1
 22 23  1  0
 23 12  1  0
 24 22  1  0
 25 24  1  0
 26 24  2  0
M  END
$$$$
