CDR.pdb
     RDKit          3D

 26 25  0  0  1  0  0  0  0  0999 V2000
   23.1942  -27.1180  -16.1218 N   0  0  0  0  0  0  0  0  0  0  0  0
   21.7591  -27.3159  -16.2132 C   0  0  1  0  0  0  0  0  0  0  0  0
   21.4650  -28.6898  -15.6497 C   0  0  0  0  0  0  0  0  0  0  0  0
   22.2819  -29.9897  -16.6061 S   0  0  0  0  0  0  0  0  0  0  0  0
   21.0188  -26.3280  -15.3837 C   0  0  0  0  0  0  0  0  0  0  0  0
   21.3755  -26.0967  -14.2018 O   0  0  0  0  0  0  0  0  0  0  0  0
   19.8931  -25.6063  -15.8651 N   0  0  0  0  0  0  0  0  0  0  0  0
   19.2593  -24.6153  -15.0188 C   0  0  1  0  0  0  0  0  0  0  0  0
   18.4271  -23.7334  -15.9607 C   0  0  0  0  0  0  0  0  0  0  0  0
   17.8220  -22.6837  -15.0923 C   0  0  0  0  0  0  0  0  0  0  0  0
   18.4474  -22.1707  -14.1517 O   0  0  0  0  0  0  0  0  0  0  0  0
   18.4286  -25.1947  -13.9710 C   0  0  0  0  0  0  0  0  0  0  0  0
   17.6340  -26.1206  -14.2296 O   0  0  0  0  0  0  0  0  0  0  0  0
   16.5194  -22.2535  -15.3277 O   0  0  0  0  0  0  0  0  0  0  0  0
   17.0808  -24.0638   -6.1761 N   0  0  0  0  0  0  0  0  0  0  0  0
   17.4962  -25.3863   -5.9026 C   0  0  0  0  0  0  0  0  0  0  0  0
   17.0007  -26.0063   -4.8864 N   0  0  0  0  0  0  0  0  0  0  0  0
   18.4507  -25.9909   -6.7617 N   0  0  0  0  0  0  0  0  0  0  0  0
   18.9274  -25.2818   -7.9265 C   0  0  0  0  0  0  0  0  0  0  0  0
   17.9964  -25.6361   -9.0936 C   0  0  0  0  0  0  0  0  0  0  0  0
   18.5998  -25.0244  -10.3113 C   0  0  0  0  0  0  0  0  0  0  0  0
   17.7674  -25.2885  -11.5409 C   0  0  2  0  0  0  0  0  0  0  0  0
   18.5244  -24.7034  -12.6521 N   0  0  0  0  0  0  0  0  0  0  0  0
   16.4013  -24.7751  -11.4936 C   0  0  0  0  0  0  0  0  0  0  0  0
   15.3909  -25.5773  -10.9414 O   0  0  0  0  0  0  0  0  0  0  0  0
   16.0946  -23.6444  -11.9273 O   0  0  0  0  0  0  0  0  0  0  0  0
  2  1  1  1
  3  2  1  0
  4  3  1  0
  5  2  1  0
  5  6  2  0
  7  5  1  0
  8  7  1  0
  9 10  1  0
  8  9  1  6
 10 14  1  0
 10 11  2  0
 12  8  1  0
 13 12  2  0
 16 15  1  0
 17 16  2  0
 18 16  1  0
 19 18  1  0
 20 19  1  0
 21 20  1  0
 22 21  1  1
 22 23  1  0
 23 12  1  0
 24 22  1  0
 25 24  1  0
 26 24  2  0
M  END
$$$$
