CDR.pdb
     RDKit          3D

 26 25  0  0  1  0  0  0  0  0999 V2000
   25.4092  -20.7030  -17.0058 N   0  0  0  0  0  0  0  0  0  0  0  0
   25.2176  -21.2546  -15.6769 C   0  0  1  0  0  0  0  0  0  0  0  0
   26.3443  -20.7294  -14.8129 C   0  0  0  0  0  0  0  0  0  0  0  0
   26.6477  -18.9715  -15.1121 S   0  0  0  0  0  0  0  0  0  0  0  0
   23.9408  -20.7891  -15.0725 C   0  0  0  0  0  0  0  0  0  0  0  0
   23.7174  -19.5618  -14.9264 O   0  0  0  0  0  0  0  0  0  0  0  0
   22.9243  -21.6810  -14.6352 N   0  0  0  0  0  0  0  0  0  0  0  0
   21.6539  -21.1542  -14.1787 C   0  0  1  0  0  0  0  0  0  0  0  0
   21.0442  -20.4299  -15.3876 C   0  0  0  0  0  0  0  0  0  0  0  0
   19.7164  -19.9337  -14.9263 C   0  0  0  0  0  0  0  0  0  0  0  0
   18.7016  -20.0221  -15.6345 O   0  0  0  0  0  0  0  0  0  0  0  0
   20.7512  -22.1791  -13.6703 C   0  0  0  0  0  0  0  0  0  0  0  0
   20.4380  -23.1573  -14.3778 O   0  0  0  0  0  0  0  0  0  0  0  0
   19.5913  -19.3515  -13.6682 O   0  0  0  0  0  0  0  0  0  0  0  0
   18.3784  -25.0147   -6.4914 N   0  0  0  0  0  0  0  0  0  0  0  0
   18.2617  -26.1605   -7.3099 C   0  0  0  0  0  0  0  0  0  0  0  0
   17.8038  -27.2543   -6.8034 N   0  0  0  0  0  0  0  0  0  0  0  0
   18.6550  -26.0674   -8.6705 N   0  0  0  0  0  0  0  0  0  0  0  0
   19.5145  -24.9899   -9.1032 C   0  0  0  0  0  0  0  0  0  0  0  0
   18.6122  -23.8194   -9.5158 C   0  0  0  0  0  0  0  0  0  0  0  0
   19.4764  -22.8719  -10.2751 C   0  0  0  0  0  0  0  0  0  0  0  0
   19.3887  -23.1042  -11.7627 C   0  0  2  0  0  0  0  0  0  0  0  0
   20.2271  -22.0633  -12.3657 N   0  0  0  0  0  0  0  0  0  0  0  0
   18.0386  -23.0943  -12.3188 C   0  0  0  0  0  0  0  0  0  0  0  0
   17.4050  -24.3165  -12.5908 O   0  0  0  0  0  0  0  0  0  0  0  0
   17.4219  -22.0356  -12.5632 O   0  0  0  0  0  0  0  0  0  0  0  0
  2  1  1  6
  3  2  1  0
  4  3  1  0
  5  2  1  0
  5  6  2  0
  7  5  1  0
  8  7  1  0
  9 10  1  0
  8  9  1  6
 10 14  1  0
 10 11  2  0
 12  8  1  0
 13 12  2  0
 16 15  1  0
 17 16  2  0
 18 16  1  0
 19 18  1  0
 20 19  1  0
 21 20  1  0
 22 21  1  1
 22 23  1  0
 23 12  1  0
 24 22  1  0
 25 24  1  0
 26 24  2  0
M  END
$$$$
