PGG.pdb
     RDKit          3D

 16 16  0  0  1  0  0  0  0  0999 V2000
   17.0992  -15.5989    2.5696 N   0  0  0  0  0  0  0  0  0  0  0  0
   17.2618  -14.2533    2.1104 C   0  0  0  0  0  0  0  0  0  0  0  0
   18.2474  -13.5770    3.0576 C   0  0  0  0  0  0  0  0  0  0  0  0
   18.0873  -14.4594    4.3020 C   0  0  0  0  0  0  0  0  0  0  0  0
   18.0304  -15.8362    3.6284 C   0  0  1  0  0  0  0  0  0  0  0  0
   17.6213  -16.8887    4.5603 C   0  0  0  0  0  0  0  0  0  0  0  0
   18.2096  -17.9992    4.5161 O   0  0  0  0  0  0  0  0  0  0  0  0
   16.5882  -16.7265    5.5210 N   0  0  0  0  0  0  0  0  0  0  0  0
   16.2140  -17.7526    6.4632 C   0  0  0  0  0  0  0  0  0  0  0  0
   16.7899  -17.4424    7.8005 C   0  0  0  0  0  0  0  0  0  0  0  0
   16.3744  -16.4639    8.4741 O   0  0  0  0  0  0  0  0  0  0  0  0
   17.8226  -18.2390    8.3546 N   0  0  0  0  0  0  0  0  0  0  0  0
   18.4637  -17.8006    9.6019 C   0  0  0  0  0  0  0  0  0  0  0  0
   17.9072  -18.5237   10.7637 C   0  0  0  0  0  0  0  0  0  0  0  0
   16.9663  -19.3561   10.6516 O   0  0  0  0  0  0  0  0  0  0  0  0
   18.4636  -18.2525   12.0057 O   0  0  0  0  0  0  0  0  0  0  0  0
  1  2  1  0
  1  5  1  0
  2  3  1  0
  4  3  1  0
  5  4  1  0
  6  7  2  0
  5  6  1  1
  8  6  1  0
  9  8  1  0
 10  9  1  0
 10 12  1  0
 11 10  2  0
 13 12  1  0
 14 13  1  0
 15 14  2  0
 16 14  1  0
M  END
$$$$
