PGG.pdb
     RDKit          3D

 16 16  0  0  1  0  0  0  0  0999 V2000
   27.2720  -20.5915  -15.4161 N   0  0  0  0  0  0  0  0  0  0  0  0
   28.4996  -21.2850  -15.1717 C   0  0  0  0  0  0  0  0  0  0  0  0
   29.0521  -20.7581  -13.8514 C   0  0  0  0  0  0  0  0  0  0  0  0
   28.3561  -19.3929  -13.7838 C   0  0  0  0  0  0  0  0  0  0  0  0
   26.9585  -19.7989  -14.2681 C   0  0  1  0  0  0  0  0  0  0  0  0
   26.1161  -18.6364  -14.5555 C   0  0  0  0  0  0  0  0  0  0  0  0
   25.7308  -17.9162  -13.5994 O   0  0  0  0  0  0  0  0  0  0  0  0
   25.7046  -18.2714  -15.8647 N   0  0  0  0  0  0  0  0  0  0  0  0
   24.9104  -17.1012  -16.1485 C   0  0  0  0  0  0  0  0  0  0  0  0
   23.5107  -17.5049  -16.4548 C   0  0  0  0  0  0  0  0  0  0  0  0
   22.7293  -16.7260  -17.0604 O   0  0  0  0  0  0  0  0  0  0  0  0
   23.0164  -18.7772  -16.0738 N   0  0  0  0  0  0  0  0  0  0  0  0
   21.6415  -19.1421  -16.4415 C   0  0  0  0  0  0  0  0  0  0  0  0
   20.7109  -18.8877  -15.3227 C   0  0  0  0  0  0  0  0  0  0  0  0
   20.0336  -17.8272  -15.2376 O   0  0  0  0  0  0  0  0  0  0  0  0
   20.6040  -19.8717  -14.3501 O   0  0  0  0  0  0  0  0  0  0  0  0
  1  2  1  0
  1  5  1  0
  2  3  1  0
  4  3  1  0
  5  4  1  0
  6  7  2  0
  5  6  1  6
  8  6  1  0
  9  8  1  0
 10  9  1  0
 10 12  1  0
 11 10  2  0
 13 12  1  0
 14 13  1  0
 15 14  2  0
 16 14  1  0
M  END
$$$$
