PGG.pdb
     RDKit          3D

 16 16  0  0  1  0  0  0  0  0999 V2000
   19.1847   -9.7594  -17.5448 N   0  0  0  0  0  0  0  0  0  0  0  0
   18.4285   -9.4019  -18.7060 C   0  0  0  0  0  0  0  0  0  0  0  0
   19.4201   -8.8696  -19.7352 C   0  0  0  0  0  0  0  0  0  0  0  0
   20.5718   -8.4423  -18.8166 C   0  0  0  0  0  0  0  0  0  0  0  0
   20.5761   -9.6320  -17.8486 C   0  0  1  0  0  0  0  0  0  0  0  0
   21.4237   -9.3881  -16.6800 C   0  0  0  0  0  0  0  0  0  0  0  0
   22.6666   -9.2896  -16.8430 O   0  0  0  0  0  0  0  0  0  0  0  0
   20.9183   -9.2548  -15.3596 N   0  0  0  0  0  0  0  0  0  0  0  0
   21.7540   -8.9905  -14.2140 C   0  0  0  0  0  0  0  0  0  0  0  0
   21.4797   -7.6222  -13.6956 C   0  0  0  0  0  0  0  0  0  0  0  0
   21.7423   -7.3160  -12.5034 O   0  0  0  0  0  0  0  0  0  0  0  0
   20.9151   -6.6242  -14.5283 N   0  0  0  0  0  0  0  0  0  0  0  0
   20.5579   -5.3273  -13.9373 C   0  0  0  0  0  0  0  0  0  0  0  0
   21.6443   -4.3442  -14.1262 C   0  0  0  0  0  0  0  0  0  0  0  0
   22.8272   -4.5668  -13.7496 O   0  0  0  0  0  0  0  0  0  0  0  0
   21.3150   -3.1455  -14.7429 O   0  0  0  0  0  0  0  0  0  0  0  0
  1  2  1  0
  1  5  1  0
  2  3  1  0
  4  3  1  0
  5  4  1  0
  6  7  2  0
  5  6  1  1
  8  6  1  0
  9  8  1  0
 10  9  1  0
 10 12  1  0
 11 10  2  0
 13 12  1  0
 14 13  1  0
 15 14  2  0
 16 14  1  0
M  END
$$$$
