PGG.pdb
     RDKit          3D

 16 16  0  0  1  0  0  0  0  0999 V2000
   25.7160  -20.2413  -12.4087 N   0  0  0  0  0  0  0  0  0  0  0  0
   25.9267  -21.1401  -11.3152 C   0  0  0  0  0  0  0  0  0  0  0  0
   25.9868  -22.5466  -11.9016 C   0  0  0  0  0  0  0  0  0  0  0  0
   25.2172  -22.3349  -13.2114 C   0  0  0  0  0  0  0  0  0  0  0  0
   25.8014  -20.9799  -13.6301 C   0  0  1  0  0  0  0  0  0  0  0  0
   25.0624  -20.3820  -14.7436 C   0  0  0  0  0  0  0  0  0  0  0  0
   25.0810  -20.9573  -15.8616 O   0  0  0  0  0  0  0  0  0  0  0  0
   24.3180  -19.1776  -14.6332 N   0  0  0  0  0  0  0  0  0  0  0  0
   23.5100  -18.6445  -15.7026 C   0  0  0  0  0  0  0  0  0  0  0  0
   22.0753  -18.9513  -15.4505 C   0  0  0  0  0  0  0  0  0  0  0  0
   21.1664  -18.3990  -16.1235 O   0  0  0  0  0  0  0  0  0  0  0  0
   21.6901  -19.8738  -14.4461 N   0  0  0  0  0  0  0  0  0  0  0  0
   20.2591  -20.0795  -14.1843 C   0  0  0  0  0  0  0  0  0  0  0  0
   19.7465  -21.2419  -14.9383 C   0  0  0  0  0  0  0  0  0  0  0  0
   18.6234  -21.7612  -14.6942 O   0  0  0  0  0  0  0  0  0  0  0  0
   20.5558  -21.7535  -15.9427 O   0  0  0  0  0  0  0  0  0  0  0  0
  1  2  1  0
  1  5  1  0
  2  3  1  0
  4  3  1  0
  5  4  1  0
  6  7  2  0
  5  6  1  6
  8  6  1  0
  9  8  1  0
 10  9  1  0
 10 12  1  0
 11 10  2  0
 13 12  1  0
 14 13  1  0
 15 14  2  0
 16 14  1  0
M  END
$$$$
