PGG.pdb
     RDKit          3D

 16 16  0  0  1  0  0  0  0  0999 V2000
   28.9488  -21.5818  -11.5832 N   0  0  0  0  0  0  0  0  0  0  0  0
   30.1802  -21.3280  -10.8997 C   0  0  0  0  0  0  0  0  0  0  0  0
   29.8191  -20.8240   -9.5064 C   0  0  0  0  0  0  0  0  0  0  0  0
   28.4019  -20.2952   -9.7606 C   0  0  0  0  0  0  0  0  0  0  0  0
   27.8709  -21.4202  -10.6577 C   0  0  1  0  0  0  0  0  0  0  0  0
   26.5936  -21.0703  -11.2820 C   0  0  0  0  0  0  0  0  0  0  0  0
   25.6481  -20.6807  -10.5503 O   0  0  0  0  0  0  0  0  0  0  0  0
   26.3582  -21.1460  -12.6804 N   0  0  0  0  0  0  0  0  0  0  0  0
   25.8200  -20.0539  -13.4539 C   0  0  0  0  0  0  0  0  0  0  0  0
   24.3956  -20.3280  -13.7886 C   0  0  0  0  0  0  0  0  0  0  0  0
   23.7718  -19.6051  -14.6086 O   0  0  0  0  0  0  0  0  0  0  0  0
   23.6998  -21.4101  -13.1945 N   0  0  0  0  0  0  0  0  0  0  0  0
   22.2943  -21.6342  -13.5591 C   0  0  0  0  0  0  0  0  0  0  0  0
   21.3994  -20.7608  -12.7725 C   0  0  0  0  0  0  0  0  0  0  0  0
   21.6144  -20.4940  -11.5588 O   0  0  0  0  0  0  0  0  0  0  0  0
   20.2938  -20.2334  -13.4246 O   0  0  0  0  0  0  0  0  0  0  0  0
  1  2  1  0
  1  5  1  0
  2  3  1  0
  4  3  1  0
  5  4  1  0
  6  7  2  0
  5  6  1  6
  8  6  1  0
  9  8  1  0
 10  9  1  0
 10 12  1  0
 11 10  2  0
 13 12  1  0
 14 13  1  0
 15 14  2  0
 16 14  1  0
M  END
$$$$
