PGG.pdb
     RDKit          3D

 16 16  0  0  1  0  0  0  0  0999 V2000
   22.4153  -11.9036  -15.8366 N   0  0  0  0  0  0  0  0  0  0  0  0
   23.3132  -13.0152  -15.9148 C   0  0  0  0  0  0  0  0  0  0  0  0
   24.7118  -12.4770  -15.6320 C   0  0  0  0  0  0  0  0  0  0  0  0
   24.5207  -10.9999  -15.9985 C   0  0  0  0  0  0  0  0  0  0  0  0
   23.1407  -10.7620  -15.3730 C   0  0  1  0  0  0  0  0  0  0  0  0
   22.5641   -9.4800  -15.7824 C   0  0  0  0  0  0  0  0  0  0  0  0
   23.1494   -8.4182  -15.4489 O   0  0  0  0  0  0  0  0  0  0  0  0
   21.3698   -9.3649  -16.5421 N   0  0  0  0  0  0  0  0  0  0  0  0
   20.7885   -8.0995  -16.9181 C   0  0  0  0  0  0  0  0  0  0  0  0
   20.5395   -7.2785  -15.7015 C   0  0  0  0  0  0  0  0  0  0  0  0
   19.7962   -7.6988  -14.7768 O   0  0  0  0  0  0  0  0  0  0  0  0
   21.1313   -6.0001  -15.5481 N   0  0  0  0  0  0  0  0  0  0  0  0
   20.8603   -5.2364  -14.3224 C   0  0  0  0  0  0  0  0  0  0  0  0
   21.6652   -3.9982  -14.2833 C   0  0  0  0  0  0  0  0  0  0  0  0
   21.5673   -3.1604  -13.3458 O   0  0  0  0  0  0  0  0  0  0  0  0
   22.5490   -3.7828  -15.3313 O   0  0  0  0  0  0  0  0  0  0  0  0
  1  2  1  0
  1  5  1  0
  2  3  1  0
  4  3  1  0
  5  4  1  0
  6  7  2  0
  5  6  1  6
  8  6  1  0
  9  8  1  0
 10  9  1  0
 10 12  1  0
 11 10  2  0
 13 12  1  0
 14 13  1  0
 15 14  2  0
 16 14  1  0
M  END
$$$$
