PGG.pdb
     RDKit          3D

 16 16  0  0  1  0  0  0  0  0999 V2000
   25.2153  -21.8212  -14.8742 N   0  0  0  0  0  0  0  0  0  0  0  0
   26.3128  -22.5692  -14.3414 C   0  0  0  0  0  0  0  0  0  0  0  0
   25.8677  -23.1059  -12.9851 C   0  0  0  0  0  0  0  0  0  0  0  0
   24.7561  -22.1062  -12.6417 C   0  0  0  0  0  0  0  0  0  0  0  0
   24.0847  -21.9948  -14.0162 C   0  0  1  0  0  0  0  0  0  0  0  0
   23.1187  -20.8959  -14.0698 C   0  0  0  0  0  0  0  0  0  0  0  0
   22.1856  -20.8679  -13.2273 O   0  0  0  0  0  0  0  0  0  0  0  0
   23.1749  -19.8492  -15.0278 N   0  0  0  0  0  0  0  0  0  0  0  0
   23.2316  -18.4522  -14.6730 C   0  0  0  0  0  0  0  0  0  0  0  0
   22.5791  -17.6365  -15.7336 C   0  0  0  0  0  0  0  0  0  0  0  0
   23.1247  -16.5921  -16.1758 O   0  0  0  0  0  0  0  0  0  0  0  0
   21.3250  -18.0112  -16.2768 N   0  0  0  0  0  0  0  0  0  0  0  0
   20.6650  -17.1048  -17.2263 C   0  0  0  0  0  0  0  0  0  0  0  0
   19.5072  -16.4352  -16.5990 C   0  0  0  0  0  0  0  0  0  0  0  0
   18.8353  -16.9738  -15.6776 O   0  0  0  0  0  0  0  0  0  0  0  0
   19.1767  -15.1705  -17.0650 O   0  0  0  0  0  0  0  0  0  0  0  0
  1  2  1  0
  1  5  1  0
  2  3  1  0
  4  3  1  0
  5  4  1  0
  6  7  2  0
  5  6  1  1
  8  6  1  0
  9  8  1  0
 10  9  1  0
 10 12  1  0
 11 10  2  0
 13 12  1  0
 14 13  1  0
 15 14  2  0
 16 14  1  0
M  END
$$$$
