PGG.pdb
     RDKit          3D

 16 16  0  0  1  0  0  0  0  0999 V2000
   27.7630  -18.5772   -6.9771 N   0  0  0  0  0  0  0  0  0  0  0  0
   27.9861  -18.3114   -5.5888 C   0  0  0  0  0  0  0  0  0  0  0  0
   28.2325  -19.6562   -4.9131 C   0  0  0  0  0  0  0  0  0  0  0  0
   27.5411  -20.5977   -5.9073 C   0  0  0  0  0  0  0  0  0  0  0  0
   28.0112  -19.9639   -7.2225 C   0  0  1  0  0  0  0  0  0  0  0  0
   27.2963  -20.5039   -8.3804 C   0  0  0  0  0  0  0  0  0  0  0  0
   27.4288  -21.7227   -8.6599 O   0  0  0  0  0  0  0  0  0  0  0  0
   26.4533  -19.7230   -9.2148 N   0  0  0  0  0  0  0  0  0  0  0  0
   26.0319  -20.1413  -10.5294 C   0  0  0  0  0  0  0  0  0  0  0  0
   24.5453  -20.1898  -10.5900 C   0  0  0  0  0  0  0  0  0  0  0  0
   23.9437  -20.2697  -11.6926 O   0  0  0  0  0  0  0  0  0  0  0  0
   23.7634  -20.1475   -9.4088 N   0  0  0  0  0  0  0  0  0  0  0  0
   22.3000  -20.0965   -9.5294 C   0  0  0  0  0  0  0  0  0  0  0  0
   21.6938  -21.3887   -9.1485 C   0  0  0  0  0  0  0  0  0  0  0  0
   22.0491  -22.0216   -8.1171 O   0  0  0  0  0  0  0  0  0  0  0  0
   20.7021  -21.8932   -9.9778 O   0  0  0  0  0  0  0  0  0  0  0  0
  1  2  1  0
  1  5  1  0
  2  3  1  0
  4  3  1  0
  5  4  1  0
  6  7  2  0
  5  6  1  6
  8  6  1  0
  9  8  1  0
 10  9  1  0
 10 12  1  0
 11 10  2  0
 13 12  1  0
 14 13  1  0
 15 14  2  0
 16 14  1  0
M  END
$$$$
