LLP.pdb
     RDKit          3D

 24 24  0  0  1  0  0  0  0  0999 V2000
    9.4350  -13.6778   20.0301 C   0  0  0  0  0  0  0  0  0  0  0  0
    7.9626  -13.6990   19.6294 C   0  0  2  0  0  0  0  0  0  0  0  0
    7.3812  -12.2960   19.7115 C   0  0  0  0  0  0  0  0  0  0  0  0
    7.2118  -14.6039   20.5906 C   0  0  0  0  0  0  0  0  0  0  0  0
    8.1926  -15.4983   21.3098 C   0  0  2  0  0  0  0  0  0  0  0  0
    7.6346  -16.8177   21.5303 N   0  0  0  0  0  0  0  0  0  0  0  0
    8.5407  -14.8468   22.6196 C   0  0  0  0  0  0  0  0  0  0  0  0
    9.4722  -13.9914   22.6168 O   0  0  0  0  0  0  0  0  0  0  0  0
    5.3501  -12.3867   26.3308 C   0  0  0  0  0  0  0  0  0  0  0  0
    6.5212  -12.7387   25.3795 C   0  0  1  0  0  0  0  0  0  0  0  0
    7.5152  -11.6033   25.6014 C   0  0  0  0  0  0  0  0  0  0  0  0
    7.1009  -14.0499   25.7705 C   0  0  0  0  0  0  0  0  0  0  0  0
    8.3238  -14.5318   25.1040 C   0  0  2  0  0  0  0  0  0  0  0  0
    7.8760  -15.1566   23.8089 N   0  0  0  0  0  0  0  0  0  0  0  0
    9.2480  -15.4341   25.7670 C   0  0  0  0  0  0  0  0  0  0  0  0
    9.5362  -16.5150   25.1147 O   0  0  0  0  0  0  0  0  0  0  0  0
    9.8611  -15.2262   27.0334 N   0  0  0  0  0  0  0  0  0  0  0  0
    9.6708  -14.0777   27.8966 C   0  0  0  0  0  0  0  0  0  0  0  0
   11.1729  -13.7938   28.1792 C   0  0  0  0  0  0  0  0  0  0  0  0
   11.5869  -15.1660   28.6589 C   0  0  0  0  0  0  0  0  0  0  0  0
   10.8547  -16.0705   27.6495 C   0  0  1  0  0  0  0  0  0  0  0  0
   10.3693  -17.2268   28.3818 C   0  0  0  0  0  0  0  0  0  0  0  0
    9.1542  -17.4327   28.5532 O   0  0  0  0  0  0  0  0  0  0  0  0
   11.2952  -18.1500   28.9187 O   0  0  0  0  0  0  0  0  0  0  0  0
  2  1  1  1
  2  3  1  0
  4  2  1  0
  5  4  1  0
  5  6  1  1
  7  8  2  0
  7  5  1  0
 10  9  1  1
 11 10  1  0
 12 10  1  0
 13 12  1  1
 13 14  1  0
 14  7  1  0
 15 13  1  0
 16 15  2  0
 17 15  1  0
 18 17  1  0
 19 18  1  0
 19 20  1  0
 20 21  1  0
 21 17  1  0
 21 22  1  1
 23 22  2  0
 24 22  1  0
M  END
$$$$
