LLP.pdb
     RDKit          3D

 24 24  0  0  1  0  0  0  0  0999 V2000
    7.5241  -18.3202   20.5127 C   0  0  0  0  0  0  0  0  0  0  0  0
    9.0467  -18.2190   20.5316 C   0  0  2  0  0  0  0  0  0  0  0  0
    9.6575  -19.6010   20.7054 C   0  0  0  0  0  0  0  0  0  0  0  0
    9.4596  -17.3436   21.7020 C   0  0  0  0  0  0  0  0  0  0  0  0
    8.7609  -16.0090   21.6032 C   0  0  2  0  0  0  0  0  0  0  0  0
    9.2691  -15.2326   20.4897 N   0  0  0  0  0  0  0  0  0  0  0  0
    8.9746  -15.2762   22.8987 C   0  0  0  0  0  0  0  0  0  0  0  0
   10.0765  -14.6753   23.0546 O   0  0  0  0  0  0  0  0  0  0  0  0
    5.1396  -12.5478   25.9676 C   0  0  0  0  0  0  0  0  0  0  0  0
    6.4559  -12.8711   25.2169 C   0  0  1  0  0  0  0  0  0  0  0  0
    7.3357  -11.6578   25.5002 C   0  0  0  0  0  0  0  0  0  0  0  0
    7.0517  -14.1136   25.7730 C   0  0  0  0  0  0  0  0  0  0  0  0
    8.3310  -14.6099   25.2354 C   0  0  2  0  0  0  0  0  0  0  0  0
    8.0091  -15.2446   23.9082 N   0  0  0  0  0  0  0  0  0  0  0  0
    9.1783  -15.5116   25.9951 C   0  0  0  0  0  0  0  0  0  0  0  0
    9.3708  -16.6764   25.4630 O   0  0  0  0  0  0  0  0  0  0  0  0
    9.8123  -15.2227   27.2350 N   0  0  0  0  0  0  0  0  0  0  0  0
    9.6893  -13.9926   27.9915 C   0  0  0  0  0  0  0  0  0  0  0  0
   11.2064  -13.7634   28.2412 C   0  0  0  0  0  0  0  0  0  0  0  0
   11.5530  -15.1066   28.8415 C   0  0  0  0  0  0  0  0  0  0  0  0
   10.7663  -16.0589   27.9210 C   0  0  1  0  0  0  0  0  0  0  0  0
   10.2281  -17.1174   28.7569 C   0  0  0  0  0  0  0  0  0  0  0  0
    9.0046  -17.2514   28.9402 O   0  0  0  0  0  0  0  0  0  0  0  0
   11.1105  -18.0261   29.3842 O   0  0  0  0  0  0  0  0  0  0  0  0
  2  1  1  1
  2  3  1  0
  4  2  1  0
  5  4  1  0
  5  6  1  6
  7  8  2  0
  7  5  1  0
 10  9  1  1
 11 10  1  0
 12 10  1  0
 13 12  1  1
 13 14  1  0
 14  7  1  0
 15 13  1  0
 16 15  2  0
 17 15  1  0
 18 17  1  0
 19 18  1  0
 19 20  1  0
 20 21  1  0
 21 17  1  0
 21 22  1  1
 23 22  2  0
 24 22  1  0
M  END
$$$$
