LLP.pdb
     RDKit          3D

 24 24  0  0  1  0  0  0  0  0999 V2000
    8.3341  -15.0800   17.9984 C   0  0  0  0  0  0  0  0  0  0  0  0
    7.7627  -14.1828   19.0928 C   0  0  2  0  0  0  0  0  0  0  0  0
    7.3533  -12.8413   18.5043 C   0  0  0  0  0  0  0  0  0  0  0  0
    8.8358  -13.9567   20.1434 C   0  0  0  0  0  0  0  0  0  0  0  0
    8.8831  -15.1416   21.0776 C   0  0  2  0  0  0  0  0  0  0  0  0
    7.6583  -15.9135   21.0073 N   0  0  0  0  0  0  0  0  0  0  0  0
    9.1018  -14.6245   22.4724 C   0  0  0  0  0  0  0  0  0  0  0  0
   10.1243  -13.9084   22.6760 O   0  0  0  0  0  0  0  0  0  0  0  0
    7.5229  -11.4641   26.3236 C   0  0  0  0  0  0  0  0  0  0  0  0
    7.0840  -12.9323   26.5520 C   0  0  1  0  0  0  0  0  0  0  0  0
    5.6381  -12.8040   27.0204 C   0  0  0  0  0  0  0  0  0  0  0  0
    7.1740  -13.6817   25.2720 C   0  0  0  0  0  0  0  0  0  0  0  0
    8.4537  -14.2982   24.8791 C   0  0  2  0  0  0  0  0  0  0  0  0
    8.2244  -14.9094   23.5219 N   0  0  0  0  0  0  0  0  0  0  0  0
    9.1233  -15.2694   25.7256 C   0  0  0  0  0  0  0  0  0  0  0  0
    9.1535  -16.4805   25.2681 O   0  0  0  0  0  0  0  0  0  0  0  0
    9.7482  -15.0041   26.9753 N   0  0  0  0  0  0  0  0  0  0  0  0
    9.7455  -13.7378   27.6804 C   0  0  0  0  0  0  0  0  0  0  0  0
   11.2706  -13.6740   27.9746 C   0  0  0  0  0  0  0  0  0  0  0  0
   11.4405  -15.0221   28.6367 C   0  0  0  0  0  0  0  0  0  0  0  0
   10.5772  -15.9151   27.7254 C   0  0  1  0  0  0  0  0  0  0  0  0
    9.8945  -16.8695   28.5809 C   0  0  0  0  0  0  0  0  0  0  0  0
   10.5142  -17.7392   29.2197 O   0  0  0  0  0  0  0  0  0  0  0  0
    8.4869  -16.8171   28.6980 O   0  0  0  0  0  0  0  0  0  0  0  0
  2  1  1  6
  2  3  1  0
  4  2  1  0
  5  4  1  0
  5  6  1  1
  7  8  2  0
  7  5  1  0
 10  9  1  6
 11 10  1  0
 12 10  1  0
 13 12  1  1
 13 14  1  0
 14  7  1  0
 15 13  1  0
 16 15  2  0
 17 15  1  0
 18 17  1  0
 19 18  1  0
 19 20  1  0
 20 21  1  0
 21 17  1  0
 21 22  1  1
 23 22  2  0
 24 22  1  0
M  END
$$$$
