LLP.pdb
     RDKit          3D

 24 24  0  0  1  0  0  0  0  0999 V2000
    8.6787  -12.8593   18.4353 C   0  0  0  0  0  0  0  0  0  0  0  0
    8.1897  -13.8852   19.4538 C   0  0  2  0  0  0  0  0  0  0  0  0
    6.6917  -13.7323   19.6677 C   0  0  0  0  0  0  0  0  0  0  0  0
    8.9061  -13.6403   20.7704 C   0  0  0  0  0  0  0  0  0  0  0  0
    8.9422  -14.9207   21.5694 C   0  0  2  0  0  0  0  0  0  0  0  0
    7.6903  -15.6429   21.4589 N   0  0  0  0  0  0  0  0  0  0  0  0
    9.2215  -14.5651   23.0035 C   0  0  0  0  0  0  0  0  0  0  0  0
   10.3116  -13.9762   23.2572 O   0  0  0  0  0  0  0  0  0  0  0  0
    5.4364  -12.4948   26.4655 C   0  0  0  0  0  0  0  0  0  0  0  0
    6.6975  -12.7532   25.6034 C   0  0  1  0  0  0  0  0  0  0  0  0
    7.5864  -11.5501   25.9014 C   0  0  0  0  0  0  0  0  0  0  0  0
    7.3410  -14.0216   26.0337 C   0  0  0  0  0  0  0  0  0  0  0  0
    8.6312  -14.4191   25.4425 C   0  0  2  0  0  0  0  0  0  0  0  0
    8.3278  -14.8625   24.0355 N   0  0  0  0  0  0  0  0  0  0  0  0
    9.4861  -15.4085   26.0737 C   0  0  0  0  0  0  0  0  0  0  0  0
    9.7818  -16.4364   25.3438 O   0  0  0  0  0  0  0  0  0  0  0  0
   10.0262  -15.3354   27.3873 N   0  0  0  0  0  0  0  0  0  0  0  0
    9.8067  -14.2685   28.3434 C   0  0  0  0  0  0  0  0  0  0  0  0
   11.2944  -14.0496   28.7378 C   0  0  0  0  0  0  0  0  0  0  0  0
   11.6526  -15.4706   29.1081 C   0  0  0  0  0  0  0  0  0  0  0  0
   10.9648  -16.2581   27.9767 C   0  0  1  0  0  0  0  0  0  0  0  0
   10.4144  -17.4655   28.5666 C   0  0  0  0  0  0  0  0  0  0  0  0
    9.1878  -17.6645   28.6312 O   0  0  0  0  0  0  0  0  0  0  0  0
   11.2883  -18.4484   29.0845 O   0  0  0  0  0  0  0  0  0  0  0  0
  2  1  1  6
  2  3  1  0
  4  2  1  0
  5  4  1  0
  5  6  1  1
  7  8  2  0
  7  5  1  0
 10  9  1  1
 11 10  1  0
 12 10  1  0
 13 12  1  1
 13 14  1  0
 14  7  1  0
 15 13  1  0
 16 15  2  0
 17 15  1  0
 18 17  1  0
 19 18  1  0
 19 20  1  0
 20 21  1  0
 21 17  1  0
 21 22  1  1
 23 22  2  0
 24 22  1  0
M  END
$$$$
