LLP.pdb
     RDKit          3D

 24 24  0  0  1  0  0  0  0  0999 V2000
    8.4341  -12.9491   18.5003 C   0  0  0  0  0  0  0  0  0  0  0  0
    7.9739  -14.0056   19.5008 C   0  0  2  0  0  0  0  0  0  0  0  0
    6.4943  -13.8254   19.8035 C   0  0  0  0  0  0  0  0  0  0  0  0
    8.7670  -13.8350   20.7847 C   0  0  0  0  0  0  0  0  0  0  0  0
    8.6668  -15.0957   21.6093 C   0  0  2  0  0  0  0  0  0  0  0  0
    7.3406  -15.6742   21.5232 N   0  0  0  0  0  0  0  0  0  0  0  0
    8.9988  -14.7462   23.0336 C   0  0  0  0  0  0  0  0  0  0  0  0
   10.1154  -14.1948   23.2543 O   0  0  0  0  0  0  0  0  0  0  0  0
    5.2065  -12.7118   26.5193 C   0  0  0  0  0  0  0  0  0  0  0  0
    6.4975  -12.9029   25.6843 C   0  0  1  0  0  0  0  0  0  0  0  0
    7.3320  -11.6741   26.0308 C   0  0  0  0  0  0  0  0  0  0  0  0
    7.1784  -14.1555   26.1034 C   0  0  0  0  0  0  0  0  0  0  0  0
    8.4598  -14.5300   25.4793 C   0  0  2  0  0  0  0  0  0  0  0  0
    8.1249  -15.0097   24.0915 N   0  0  0  0  0  0  0  0  0  0  0  0
    9.3610  -15.4830   26.1020 C   0  0  0  0  0  0  0  0  0  0  0  0
    9.5775  -16.5675   25.4283 O   0  0  0  0  0  0  0  0  0  0  0  0
   10.0226  -15.3204   27.3505 N   0  0  0  0  0  0  0  0  0  0  0  0
    9.9484  -14.1571   28.2117 C   0  0  0  0  0  0  0  0  0  0  0  0
   11.4755  -13.9939   28.4527 C   0  0  0  0  0  0  0  0  0  0  0  0
   11.7906  -15.3932   28.9294 C   0  0  0  0  0  0  0  0  0  0  0  0
   10.9614  -16.2396   27.9450 C   0  0  1  0  0  0  0  0  0  0  0  0
   10.4045  -17.3504   28.6966 C   0  0  0  0  0  0  0  0  0  0  0  0
    9.1833  -17.4494   28.9141 O   0  0  0  0  0  0  0  0  0  0  0  0
   11.2655  -18.3523   29.1993 O   0  0  0  0  0  0  0  0  0  0  0  0
  2  1  1  6
  2  3  1  0
  4  2  1  0
  5  4  1  0
  5  6  1  1
  7  8  2  0
  7  5  1  0
 10  9  1  1
 11 10  1  0
 12 10  1  0
 13 12  1  1
 13 14  1  0
 14  7  1  0
 15 13  1  0
 16 15  2  0
 17 15  1  0
 18 17  1  0
 19 18  1  0
 19 20  1  0
 20 21  1  0
 21 17  1  0
 21 22  1  1
 23 22  2  0
 24 22  1  0
M  END
$$$$
