LLP.pdb
     RDKit          3D

 24 24  0  0  1  0  0  0  0  0999 V2000
    8.6413  -19.2530   20.8412 C   0  0  0  0  0  0  0  0  0  0  0  0
   10.1393  -19.2349   21.1316 C   0  0  2  0  0  0  0  0  0  0  0  0
   10.5704  -20.5681   21.7232 C   0  0  0  0  0  0  0  0  0  0  0  0
   10.4249  -18.1315   22.1354 C   0  0  0  0  0  0  0  0  0  0  0  0
    9.8123  -16.8396   21.6508 C   0  0  2  0  0  0  0  0  0  0  0  0
   10.5602  -16.2902   20.5374 N   0  0  0  0  0  0  0  0  0  0  0  0
    9.7950  -15.8734   22.8029 C   0  0  0  0  0  0  0  0  0  0  0  0
   10.8803  -15.2933   23.0947 O   0  0  0  0  0  0  0  0  0  0  0  0
    7.6381  -11.7882   25.6304 C   0  0  0  0  0  0  0  0  0  0  0  0
    7.1743  -13.1979   26.0755 C   0  0  1  0  0  0  0  0  0  0  0  0
    5.6881  -13.0106   26.3629 C   0  0  0  0  0  0  0  0  0  0  0  0
    7.3940  -14.1647   24.9686 C   0  0  0  0  0  0  0  0  0  0  0  0
    8.7202  -14.7842   24.7972 C   0  0  2  0  0  0  0  0  0  0  0  0
    8.6376  -15.6086   23.5395 N   0  0  0  0  0  0  0  0  0  0  0  0
    9.3289  -15.5840   25.8450 C   0  0  0  0  0  0  0  0  0  0  0  0
    9.4479  -16.8468   25.5842 O   0  0  0  0  0  0  0  0  0  0  0  0
    9.8090  -15.1047   27.0950 N   0  0  0  0  0  0  0  0  0  0  0  0
    9.6234  -13.7692   27.6265 C   0  0  0  0  0  0  0  0  0  0  0  0
   11.1024  -13.5113   28.0296 C   0  0  0  0  0  0  0  0  0  0  0  0
   11.3361  -14.7435   28.8732 C   0  0  0  0  0  0  0  0  0  0  0  0
   10.6472  -15.8260   28.0207 C   0  0  1  0  0  0  0  0  0  0  0  0
    9.9811  -16.7350   28.9366 C   0  0  0  0  0  0  0  0  0  0  0  0
    8.7408  -16.8188   28.9923 O   0  0  0  0  0  0  0  0  0  0  0  0
   10.7545  -17.5516   29.7927 O   0  0  0  0  0  0  0  0  0  0  0  0
  2  1  1  1
  2  3  1  0
  4  2  1  0
  5  4  1  0
  5  6  1  6
  7  8  2  0
  7  5  1  0
 10  9  1  6
 11 10  1  0
 12 10  1  0
 13 12  1  1
 13 14  1  0
 14  7  1  0
 15 13  1  0
 16 15  2  0
 17 15  1  0
 18 17  1  0
 19 18  1  0
 19 20  1  0
 20 21  1  0
 21 17  1  0
 21 22  1  1
 23 22  2  0
 24 22  1  0
M  END
$$$$
