EGQ.pdb
     RDKit          3D

 23 22  0  0  1  0  0  0  0  0999 V2000
    5.1525  -17.6304   22.2933 N   0  0  0  0  0  0  0  0  0  0  0  0
    6.1673  -18.0115   21.3650 C   0  0  1  0  0  0  0  0  0  0  0  0
    5.7103  -18.6822   20.1188 C   0  0  0  0  0  0  0  0  0  0  0  0
    4.5028  -19.5244   20.1807 C   0  0  0  0  0  0  0  0  0  0  0  0
    4.5489  -20.8251   19.5274 C   0  0  0  0  0  0  0  0  0  0  0  0
    4.3626  -20.9717   18.3116 O   0  0  0  0  0  0  0  0  0  0  0  0
    6.9740  -16.8308   20.9492 C   0  0  0  0  0  0  0  0  0  0  0  0
    8.0295  -16.9832   20.3041 O   0  0  0  0  0  0  0  0  0  0  0  0
    4.8153  -21.9643   20.3029 O   0  0  0  0  0  0  0  0  0  0  0  0
    6.5195  -15.5446   21.2991 N   0  0  0  0  0  0  0  0  0  0  0  0
    7.3035  -14.4042   20.9473 C   0  0  0  0  0  0  0  0  0  0  0  0
    8.1559  -14.0509   22.1409 C   0  0  0  0  0  0  0  0  0  0  0  0
    8.9627  -13.0936   22.0875 O   0  0  0  0  0  0  0  0  0  0  0  0
    6.1619  -10.8646   26.7071 N   0  0  0  0  0  0  0  0  0  0  0  0
    6.5642  -12.1953   26.4524 C   0  0  0  0  0  0  0  0  0  0  0  0
    6.0576  -13.1250   27.1687 O   0  0  0  0  0  0  0  0  0  0  0  0
    7.5194  -12.5660   25.4130 C   0  0  0  0  0  0  0  0  0  0  0  0
    8.0378  -13.9353   25.5045 C   0  0  0  0  0  0  0  0  0  0  0  0
    8.9944  -14.4108   24.4426 C   0  0  2  0  0  0  0  0  0  0  0  0
    8.0664  -14.7851   23.3386 N   0  0  0  0  0  0  0  0  0  0  0  0
    9.7591  -15.5816   24.8511 C   0  0  0  0  0  0  0  0  0  0  0  0
    9.4240  -16.8755   24.4677 O   0  0  0  0  0  0  0  0  0  0  0  0
   10.7845  -15.4512   25.6016 O   0  0  0  0  0  0  0  0  0  0  0  0
  2  1  1  6
  2  3  1  0
  3  4  1  0
  5  4  1  0
  5  9  1  0
  6  5  2  0
  7  2  1  0
  7  8  2  0
 10  7  1  0
 11 10  1  0
 11 12  1  0
 12 20  1  0
 13 12  2  0
 15 17  1  0
 15 14  1  0
 16 15  2  0
 18 17  1  0
 19 18  1  1
 19 21  1  0
 20 19  1  0
 21 23  2  0
 21 22  1  0
M  END
$$$$
