EGQ.pdb
     RDKit          3D

 23 22  0  0  1  0  0  0  0  0999 V2000
    6.0701  -20.3112   24.5075 N   0  0  0  0  0  0  0  0  0  0  0  0
    6.7670  -19.0928   24.7652 C   0  0  1  0  0  0  0  0  0  0  0  0
    7.7021  -19.0937   25.9216 C   0  0  0  0  0  0  0  0  0  0  0  0
    8.0357  -20.3841   26.5500 C   0  0  0  0  0  0  0  0  0  0  0  0
    8.9887  -20.3761   27.6511 C   0  0  0  0  0  0  0  0  0  0  0  0
    8.6674  -20.0944   28.8138 O   0  0  0  0  0  0  0  0  0  0  0  0
    7.5543  -18.6716   23.5734 C   0  0  0  0  0  0  0  0  0  0  0  0
    7.6018  -19.3958   22.5603 O   0  0  0  0  0  0  0  0  0  0  0  0
   10.3291  -20.7005   27.3901 O   0  0  0  0  0  0  0  0  0  0  0  0
    8.2403  -17.4424   23.6167 N   0  0  0  0  0  0  0  0  0  0  0  0
    8.9906  -17.0178   22.4782 C   0  0  0  0  0  0  0  0  0  0  0  0
   10.0925  -16.1124   22.9701 C   0  0  0  0  0  0  0  0  0  0  0  0
   10.1921  -14.9387   22.5424 O   0  0  0  0  0  0  0  0  0  0  0  0
   11.1299  -15.0699   28.9028 N   0  0  0  0  0  0  0  0  0  0  0  0
   10.2851  -14.5182   27.9132 C   0  0  0  0  0  0  0  0  0  0  0  0
    9.1519  -14.0538   28.2797 O   0  0  0  0  0  0  0  0  0  0  0  0
   10.6384  -14.4431   26.4991 C   0  0  0  0  0  0  0  0  0  0  0  0
   11.4153  -15.5791   25.9910 C   0  0  0  0  0  0  0  0  0  0  0  0
   11.8969  -15.5359   24.5645 C   0  0  2  0  0  0  0  0  0  0  0  0
   11.0319  -16.5619   23.9171 N   0  0  0  0  0  0  0  0  0  0  0  0
   13.2946  -15.9225   24.4256 C   0  0  0  0  0  0  0  0  0  0  0  0
   14.3460  -15.0245   24.5723 O   0  0  0  0  0  0  0  0  0  0  0  0
   13.6041  -17.1306   24.1491 O   0  0  0  0  0  0  0  0  0  0  0  0
  2  1  1  6
  2  3  1  0
  3  4  1  0
  5  4  1  0
  5  9  1  0
  6  5  2  0
  7  2  1  0
  7  8  2  0
 10  7  1  0
 11 10  1  0
 11 12  1  0
 12 20  1  0
 13 12  2  0
 15 17  1  0
 15 14  1  0
 16 15  2  0
 18 17  1  0
 19 18  1  1
 19 21  1  0
 20 19  1  0
 21 23  2  0
 21 22  1  0
M  END
$$$$
