EGQ.pdb
     RDKit          3D

 23 22  0  0  1  0  0  0  0  0999 V2000
    7.2570  -15.3274   20.1461 N   0  0  0  0  0  0  0  0  0  0  0  0
    8.1257  -16.2500   19.4897 C   0  0  1  0  0  0  0  0  0  0  0  0
    8.5026  -15.9260   18.0880 C   0  0  0  0  0  0  0  0  0  0  0  0
    7.9558  -14.6988   17.4828 C   0  0  0  0  0  0  0  0  0  0  0  0
    8.1006  -14.5295   16.0437 C   0  0  0  0  0  0  0  0  0  0  0  0
    8.6167  -15.3890   15.3161 O   0  0  0  0  0  0  0  0  0  0  0  0
    9.3949  -16.4148   20.2511 C   0  0  0  0  0  0  0  0  0  0  0  0
   10.4275  -16.8131   19.6780 O   0  0  0  0  0  0  0  0  0  0  0  0
    7.6376  -13.3447   15.4504 O   0  0  0  0  0  0  0  0  0  0  0  0
    9.4021  -16.1116   21.6264 N   0  0  0  0  0  0  0  0  0  0  0  0
   10.6294  -15.7434   22.2567 C   0  0  0  0  0  0  0  0  0  0  0  0
   10.3365  -15.4957   23.7157 C   0  0  0  0  0  0  0  0  0  0  0  0
   11.2661  -15.2560   24.5211 O   0  0  0  0  0  0  0  0  0  0  0  0
    6.2443  -11.6684   26.5112 N   0  0  0  0  0  0  0  0  0  0  0  0
    7.1247  -12.7623   26.3512 C   0  0  0  0  0  0  0  0  0  0  0  0
    8.1555  -12.8208   27.1050 O   0  0  0  0  0  0  0  0  0  0  0  0
    6.9177  -13.8309   25.3788 C   0  0  0  0  0  0  0  0  0  0  0  0
    7.3707  -15.1586   25.8079 C   0  0  0  0  0  0  0  0  0  0  0  0
    8.8348  -15.4898   25.6843 C   0  0  2  0  0  0  0  0  0  0  0  0
    9.0174  -15.5278   24.2061 N   0  0  0  0  0  0  0  0  0  0  0  0
    9.1719  -16.7902   26.2481 C   0  0  0  0  0  0  0  0  0  0  0  0
    9.4721  -16.9768   27.5928 O   0  0  0  0  0  0  0  0  0  0  0  0
    9.2108  -17.8254   25.5007 O   0  0  0  0  0  0  0  0  0  0  0  0
  2  1  1  1
  2  3  1  0
  3  4  1  0
  5  4  1  0
  5  9  1  0
  6  5  2  0
  7  2  1  0
  7  8  2  0
 10  7  1  0
 11 10  1  0
 11 12  1  0
 12 20  1  0
 13 12  2  0
 15 17  1  0
 15 14  1  0
 16 15  2  0
 18 17  1  0
 19 18  1  6
 19 21  1  0
 20 19  1  0
 21 23  2  0
 21 22  1  0
M  END
$$$$
