EGQ.pdb
     RDKit          3D

 23 22  0  0  1  0  0  0  0  0999 V2000
    6.9503  -18.2944   21.5751 N   0  0  0  0  0  0  0  0  0  0  0  0
    8.2073  -17.9249   21.0092 C   0  0  1  0  0  0  0  0  0  0  0  0
    8.4448  -18.3277   19.5975 C   0  0  0  0  0  0  0  0  0  0  0  0
    7.3104  -18.2857   18.6581 C   0  0  0  0  0  0  0  0  0  0  0  0
    7.5610  -18.6646   17.2745 C   0  0  0  0  0  0  0  0  0  0  0  0
    8.6883  -18.9582   16.8535 O   0  0  0  0  0  0  0  0  0  0  0  0
    8.4047  -16.4504   21.0767 C   0  0  0  0  0  0  0  0  0  0  0  0
    9.4920  -15.9431   20.7396 O   0  0  0  0  0  0  0  0  0  0  0  0
    6.4836  -18.7006   16.3756 O   0  0  0  0  0  0  0  0  0  0  0  0
    7.3401  -15.6460   21.5273 N   0  0  0  0  0  0  0  0  0  0  0  0
    7.4704  -14.2245   21.4886 C   0  0  0  0  0  0  0  0  0  0  0  0
    8.1245  -13.7912   22.7772 C   0  0  0  0  0  0  0  0  0  0  0  0
    8.2218  -12.5756   23.0657 O   0  0  0  0  0  0  0  0  0  0  0  0
    5.3587  -12.3370   26.4229 N   0  0  0  0  0  0  0  0  0  0  0  0
    6.5520  -12.2256   27.1719 C   0  0  0  0  0  0  0  0  0  0  0  0
    6.5251  -11.5367   28.2484 O   0  0  0  0  0  0  0  0  0  0  0  0
    7.8096  -12.8592   26.7878 C   0  0  0  0  0  0  0  0  0  0  0  0
    7.8035  -13.5055   25.4709 C   0  0  0  0  0  0  0  0  0  0  0  0
    9.0384  -14.2482   25.0325 C   0  0  2  0  0  0  0  0  0  0  0  0
    8.6396  -14.7377   23.6829 N   0  0  0  0  0  0  0  0  0  0  0  0
    9.3502  -15.3854   25.8881 C   0  0  0  0  0  0  0  0  0  0  0  0
    9.1870  -16.7050   25.4816 O   0  0  0  0  0  0  0  0  0  0  0  0
    9.7874  -15.1983   27.0737 O   0  0  0  0  0  0  0  0  0  0  0  0
  2  1  1  6
  2  3  1  0
  3  4  1  0
  5  4  1  0
  5  9  1  0
  6  5  2  0
  7  2  1  0
  7  8  2  0
 10  7  1  0
 11 10  1  0
 11 12  1  0
 12 20  1  0
 13 12  2  0
 15 17  1  0
 15 14  1  0
 16 15  2  0
 18 17  1  0
 19 18  1  1
 19 21  1  0
 20 19  1  0
 21 23  2  0
 21 22  1  0
M  END
$$$$
