EGQ.pdb
     RDKit          3D

 23 22  0  0  1  0  0  0  0  0999 V2000
   11.3058  -19.3035   20.0966 N   0  0  0  0  0  0  0  0  0  0  0  0
   11.4391  -17.9184   19.7796 C   0  0  1  0  0  0  0  0  0  0  0  0
   11.4331  -17.5636   18.3353 C   0  0  0  0  0  0  0  0  0  0  0  0
   11.3107  -18.6512   17.3487 C   0  0  0  0  0  0  0  0  0  0  0  0
   12.3624  -18.7825   16.3501 C   0  0  0  0  0  0  0  0  0  0  0  0
   12.4457  -18.0397   15.3624 O   0  0  0  0  0  0  0  0  0  0  0  0
   10.3588  -17.1218   20.4246 C   0  0  0  0  0  0  0  0  0  0  0  0
   10.1958  -15.9225   20.1274 O   0  0  0  0  0  0  0  0  0  0  0  0
   13.3253  -19.7916   16.5081 O   0  0  0  0  0  0  0  0  0  0  0  0
    9.5294  -17.7512   21.3729 N   0  0  0  0  0  0  0  0  0  0  0  0
    8.3765  -17.0646   21.8614 C   0  0  0  0  0  0  0  0  0  0  0  0
    8.8201  -16.1826   23.0020 C   0  0  0  0  0  0  0  0  0  0  0  0
   10.0066  -16.2090   23.4045 O   0  0  0  0  0  0  0  0  0  0  0  0
    4.8885  -12.1923   25.8935 N   0  0  0  0  0  0  0  0  0  0  0  0
    6.1191  -11.9825   26.5561 C   0  0  0  0  0  0  0  0  0  0  0  0
    6.1445  -11.1568   27.5317 O   0  0  0  0  0  0  0  0  0  0  0  0
    7.3590  -12.6614   26.1924 C   0  0  0  0  0  0  0  0  0  0  0  0
    7.2411  -13.6241   25.0918 C   0  0  0  0  0  0  0  0  0  0  0  0
    8.4534  -14.4365   24.7188 C   0  0  2  0  0  0  0  0  0  0  0  0
    7.9161  -15.3122   23.6396 N   0  0  0  0  0  0  0  0  0  0  0  0
    8.9422  -15.2623   25.8149 C   0  0  0  0  0  0  0  0  0  0  0  0
    8.4208  -16.5178   26.1070 O   0  0  0  0  0  0  0  0  0  0  0  0
    9.8856  -14.8420   26.5666 O   0  0  0  0  0  0  0  0  0  0  0  0
  2  1  1  6
  2  3  1  0
  3  4  1  0
  5  4  1  0
  5  9  1  0
  6  5  2  0
  7  2  1  0
  7  8  2  0
 10  7  1  0
 11 10  1  0
 11 12  1  0
 12 20  1  0
 13 12  2  0
 15 17  1  0
 15 14  1  0
 16 15  2  0
 18 17  1  0
 19 18  1  1
 19 21  1  0
 20 19  1  0
 21 23  2  0
 21 22  1  0
M  END
$$$$
