EGQ.pdb
     RDKit          3D

 23 22  0  0  1  0  0  0  0  0999 V2000
    7.5934  -12.7628   18.5951 N   0  0  0  0  0  0  0  0  0  0  0  0
    7.6784  -14.0888   19.1159 C   0  0  1  0  0  0  0  0  0  0  0  0
    8.8780  -14.8787   18.7302 C   0  0  0  0  0  0  0  0  0  0  0  0
    8.9882  -15.3476   17.3377 C   0  0  0  0  0  0  0  0  0  0  0  0
   10.2153  -16.0270   16.9459 C   0  0  0  0  0  0  0  0  0  0  0  0
   11.1075  -16.3186   17.7540 O   0  0  0  0  0  0  0  0  0  0  0  0
    7.6295  -14.0765   20.6042 C   0  0  0  0  0  0  0  0  0  0  0  0
    8.0506  -13.0917   21.2414 O   0  0  0  0  0  0  0  0  0  0  0  0
   10.4002  -16.3684   15.5970 O   0  0  0  0  0  0  0  0  0  0  0  0
    7.0990  -15.1972   21.2722 N   0  0  0  0  0  0  0  0  0  0  0  0
    7.0132  -15.1880   22.6976 C   0  0  0  0  0  0  0  0  0  0  0  0
    8.4069  -15.3873   23.2396 C   0  0  0  0  0  0  0  0  0  0  0  0
    9.4089  -15.1008   22.5437 O   0  0  0  0  0  0  0  0  0  0  0  0
    9.3197  -13.9027   28.9238 N   0  0  0  0  0  0  0  0  0  0  0  0
    8.7940  -13.3523   27.7329 C   0  0  0  0  0  0  0  0  0  0  0  0
    8.0592  -12.3102   27.8244 O   0  0  0  0  0  0  0  0  0  0  0  0
    9.0498  -13.9036   26.4059 C   0  0  0  0  0  0  0  0  0  0  0  0
    9.8096  -15.1584   26.3896 C   0  0  0  0  0  0  0  0  0  0  0  0
   10.0047  -15.8599   25.0711 C   0  0  2  0  0  0  0  0  0  0  0  0
    8.6151  -15.8978   24.5348 N   0  0  0  0  0  0  0  0  0  0  0  0
   10.5041  -17.2203   25.2206 C   0  0  0  0  0  0  0  0  0  0  0  0
    9.7233  -18.3440   24.9739 O   0  0  0  0  0  0  0  0  0  0  0  0
   11.7058  -17.4268   25.6015 O   0  0  0  0  0  0  0  0  0  0  0  0
  2  1  1  1
  2  3  1  0
  3  4  1  0
  5  4  1  0
  5  9  1  0
  6  5  2  0
  7  2  1  0
  7  8  2  0
 10  7  1  0
 11 10  1  0
 11 12  1  0
 12 20  1  0
 13 12  2  0
 15 17  1  0
 15 14  1  0
 16 15  2  0
 18 17  1  0
 19 18  1  1
 19 21  1  0
 20 19  1  0
 21 23  2  0
 21 22  1  0
M  END
$$$$
