EGQ.pdb
     RDKit          3D

 23 22  0  0  1  0  0  0  0  0999 V2000
    7.6587  -18.9163   19.5054 N   0  0  0  0  0  0  0  0  0  0  0  0
    8.7679  -18.0274   19.3778 C   0  0  1  0  0  0  0  0  0  0  0  0
    9.4147  -17.9594   18.0403 C   0  0  0  0  0  0  0  0  0  0  0  0
    8.5568  -18.0291   16.8444 C   0  0  0  0  0  0  0  0  0  0  0  0
    9.2094  -18.1208   15.5458 C   0  0  0  0  0  0  0  0  0  0  0  0
    8.5788  -18.1805   14.4813 O   0  0  0  0  0  0  0  0  0  0  0  0
    8.3757  -16.6370   19.7391 C   0  0  0  0  0  0  0  0  0  0  0  0
    8.7639  -15.6728   19.0513 O   0  0  0  0  0  0  0  0  0  0  0  0
   10.6118  -18.1427   15.4918 O   0  0  0  0  0  0  0  0  0  0  0  0
    7.5600  -16.4371   20.8696 N   0  0  0  0  0  0  0  0  0  0  0  0
    7.1339  -15.1152   21.2018 C   0  0  0  0  0  0  0  0  0  0  0  0
    7.8010  -14.7339   22.5001 C   0  0  0  0  0  0  0  0  0  0  0  0
    9.0201  -14.4456   22.5301 O   0  0  0  0  0  0  0  0  0  0  0  0
    5.3638  -11.1587   26.3910 N   0  0  0  0  0  0  0  0  0  0  0  0
    6.2509  -11.7785   27.2999 C   0  0  0  0  0  0  0  0  0  0  0  0
    6.4846  -11.1891   28.4099 O   0  0  0  0  0  0  0  0  0  0  0  0
    6.9080  -13.0564   27.0440 C   0  0  0  0  0  0  0  0  0  0  0  0
    6.6178  -13.6540   25.7360 C   0  0  0  0  0  0  0  0  0  0  0  0
    7.7705  -14.1588   24.9082 C   0  0  2  0  0  0  0  0  0  0  0  0
    7.0734  -14.6929   23.7045 N   0  0  0  0  0  0  0  0  0  0  0  0
    8.5079  -15.2339   25.5584 C   0  0  0  0  0  0  0  0  0  0  0  0
    9.5723  -15.0058   26.4233 O   0  0  0  0  0  0  0  0  0  0  0  0
    8.1947  -16.4530   25.3404 O   0  0  0  0  0  0  0  0  0  0  0  0
  2  1  1  6
  2  3  1  0
  3  4  1  0
  5  4  1  0
  5  9  1  0
  6  5  2  0
  7  2  1  0
  7  8  2  0
 10  7  1  0
 11 10  1  0
 11 12  1  0
 12 20  1  0
 13 12  2  0
 15 17  1  0
 15 14  1  0
 16 15  2  0
 18 17  1  0
 19 18  1  1
 19 21  1  0
 20 19  1  0
 21 23  2  0
 21 22  1  0
M  END
$$$$
