EGQ.pdb
     RDKit          3D

 23 22  0  0  1  0  0  0  0  0999 V2000
    6.6018  -17.2317   17.1180 N   0  0  0  0  0  0  0  0  0  0  0  0
    7.9202  -17.4082   17.6352 C   0  0  1  0  0  0  0  0  0  0  0  0
    9.0307  -17.3852   16.6463 C   0  0  0  0  0  0  0  0  0  0  0  0
    9.0478  -16.3099   15.6390 C   0  0  0  0  0  0  0  0  0  0  0  0
   10.0347  -16.3959   14.5717 C   0  0  0  0  0  0  0  0  0  0  0  0
   10.9429  -17.2382   14.5646 O   0  0  0  0  0  0  0  0  0  0  0  0
    8.2306  -16.3708   18.6575 C   0  0  0  0  0  0  0  0  0  0  0  0
    9.2854  -16.4318   19.3184 O   0  0  0  0  0  0  0  0  0  0  0  0
    9.9586  -15.4889   13.5031 O   0  0  0  0  0  0  0  0  0  0  0  0
    7.3101  -15.3242   18.8592 N   0  0  0  0  0  0  0  0  0  0  0  0
    7.5972  -14.3150   19.8279 C   0  0  0  0  0  0  0  0  0  0  0  0
    7.1068  -14.8134   21.1648 C   0  0  0  0  0  0  0  0  0  0  0  0
    6.4681  -15.8882   21.2494 O   0  0  0  0  0  0  0  0  0  0  0  0
   11.6321  -16.4673   22.3920 N   0  0  0  0  0  0  0  0  0  0  0  0
   11.1239  -16.6903   23.6918 C   0  0  0  0  0  0  0  0  0  0  0  0
   11.8529  -17.3348   24.5209 O   0  0  0  0  0  0  0  0  0  0  0  0
    9.8174  -16.2194   24.1407 C   0  0  0  0  0  0  0  0  0  0  0  0
    9.0596  -15.4489   23.1486 C   0  0  0  0  0  0  0  0  0  0  0  0
    7.7353  -14.8603   23.5592 C   0  0  2  0  0  0  0  0  0  0  0  0
    7.3534  -14.0864   22.3446 N   0  0  0  0  0  0  0  0  0  0  0  0
    7.8444  -13.9558   24.6960 C   0  0  0  0  0  0  0  0  0  0  0  0
    7.4899  -14.3210   25.9899 O   0  0  0  0  0  0  0  0  0  0  0  0
    8.2733  -12.7639   24.5316 O   0  0  0  0  0  0  0  0  0  0  0  0
  2  1  1  6
  2  3  1  0
  3  4  1  0
  5  4  1  0
  5  9  1  0
  6  5  2  0
  7  2  1  0
  7  8  2  0
 10  7  1  0
 11 10  1  0
 11 12  1  0
 12 20  1  0
 13 12  2  0
 15 17  1  0
 15 14  1  0
 16 15  2  0
 18 17  1  0
 19 18  1  6
 19 21  1  0
 20 19  1  0
 21 23  2  0
 21 22  1  0
M  END
$$$$
