KQF.pdb
     RDKit          3D

 30 30  0  0  1  0  0  0  0  0999 V2000
   27.8027  -20.1752  -15.4959 N   0  0  0  0  0  0  0  0  0  0  0  0
   27.9899  -18.9313  -14.7565 C   0  0  1  0  0  0  0  0  0  0  0  0
   27.5810  -17.7553  -15.5747 C   0  0  0  0  0  0  0  0  0  0  0  0
   27.9738  -17.7232  -16.9866 C   0  0  0  0  0  0  0  0  0  0  0  0
   28.9476  -16.7522  -17.5006 C   0  0  0  0  0  0  0  0  0  0  0  0
   28.8129  -16.2955  -18.9161 C   0  0  0  0  0  0  0  0  0  0  0  0
   29.4699  -17.2072  -19.8207 N   0  0  0  0  0  0  0  0  0  0  0  0
   27.0184  -18.9971  -13.5740 C   0  0  0  0  0  0  0  0  0  0  0  0
   26.8442  -17.8860  -12.9871 O   0  0  0  0  0  0  0  0  0  0  0  0
   22.1037  -22.8015  -12.6949 N   0  0  0  0  0  0  0  0  0  0  0  0
   23.4082  -23.3519  -12.7167 C   0  0  0  0  0  0  0  0  0  0  0  0
   23.5122  -24.6062  -12.9098 O   0  0  0  0  0  0  0  0  0  0  0  0
   24.5880  -22.4957  -12.5277 C   0  0  0  0  0  0  0  0  0  0  0  0
   24.3281  -21.0622  -12.3530 C   0  0  0  0  0  0  0  0  0  0  0  0
   25.5075  -20.2067  -12.0312 C   0  0  2  0  0  0  0  0  0  0  0  0
   26.4031  -20.1933  -13.2137 N   0  0  0  0  0  0  0  0  0  0  0  0
   26.2991  -20.5016  -10.8544 C   0  0  0  0  0  0  0  0  0  0  0  0
   27.1870  -21.4034  -10.8966 O   0  0  0  0  0  0  0  0  0  0  0  0
   26.1272  -19.8165   -9.6365 N   0  0  0  0  0  0  0  0  0  0  0  0
   26.7612  -20.3108   -8.4120 C   0  0  1  0  0  0  0  0  0  0  0  0
   27.7122  -19.2026   -7.9484 C   0  0  0  0  0  0  0  0  0  0  0  0
   28.3151  -19.5426   -6.6581 C   0  0  0  0  0  0  0  0  0  0  0  0
   27.8380  -18.9046   -5.5166 C   0  0  0  0  0  0  0  0  0  0  0  0
   28.3443  -19.1697   -4.2629 C   0  0  0  0  0  0  0  0  0  0  0  0
   29.3573  -20.0916   -4.0960 C   0  0  0  0  0  0  0  0  0  0  0  0
   29.8426  -20.7317   -5.2007 C   0  0  0  0  0  0  0  0  0  0  0  0
   29.3312  -20.4637   -6.4650 C   0  0  0  0  0  0  0  0  0  0  0  0
   25.7188  -20.5896   -7.4139 C   0  0  0  0  0  0  0  0  0  0  0  0
   25.9042  -21.4985   -6.3739 O   0  0  0  0  0  0  0  0  0  0  0  0
   24.6076  -19.9979   -7.4819 O   0  0  0  0  0  0  0  0  0  0  0  0
  2  1  1  6
  2  3  1  0
  4  3  1  0
  5  4  1  0
  6  5  1  0
  7  6  1  0
  8  2  1  0
  9  8  2  0
 10 11  1  0
 11 12  2  0
 11 13  1  0
 13 14  1  0
 15 14  1  6
 15 16  1  0
 16  8  1  0
 17 15  1  0
 17 18  2  0
 19 17  1  0
 20 19  1  0
 20 28  1  0
 20 21  1  1
 22 21  1  0
 22 23  2  0
 24 23  1  0
 25 24  2  0
 26 27  2  0
 26 25  1  0
 27 22  1  0
 28 29  1  0
 30 28  2  0
M  END
$$$$
