KQF.pdb
     RDKit          3D

 30 30  0  0  1  0  0  0  0  0999 V2000
   12.4797  -21.7041   -0.3043 N   0  0  0  0  0  0  0  0  0  0  0  0
   13.8052  -21.6928    0.3055 C   0  0  1  0  0  0  0  0  0  0  0  0
   14.8640  -21.4721   -0.7191 C   0  0  0  0  0  0  0  0  0  0  0  0
   15.0691  -22.5063   -1.7375 C   0  0  0  0  0  0  0  0  0  0  0  0
   15.6134  -23.8284   -1.4042 C   0  0  0  0  0  0  0  0  0  0  0  0
   15.8652  -24.7918   -2.5171 C   0  0  0  0  0  0  0  0  0  0  0  0
   16.4574  -26.0115   -2.0243 N   0  0  0  0  0  0  0  0  0  0  0  0
   13.8311  -20.4700    1.2278 C   0  0  0  0  0  0  0  0  0  0  0  0
   12.7902  -19.7483    1.1569 O   0  0  0  0  0  0  0  0  0  0  0  0
   13.2173  -18.6104    6.6349 N   0  0  0  0  0  0  0  0  0  0  0  0
   13.6006  -19.9442    6.3535 C   0  0  0  0  0  0  0  0  0  0  0  0
   13.6944  -20.7473    7.3372 O   0  0  0  0  0  0  0  0  0  0  0  0
   13.8713  -20.3728    4.9737 C   0  0  0  0  0  0  0  0  0  0  0  0
   13.6735  -19.3612    3.9294 C   0  0  0  0  0  0  0  0  0  0  0  0
   14.8338  -19.0995    3.0285 C   0  0  2  0  0  0  0  0  0  0  0  0
   14.9220  -20.2154    2.0551 N   0  0  0  0  0  0  0  0  0  0  0  0
   16.1454  -18.8828    3.6041 C   0  0  0  0  0  0  0  0  0  0  0  0
   16.9554  -19.8493    3.7192 O   0  0  0  0  0  0  0  0  0  0  0  0
   16.5754  -17.6189    4.0510 N   0  0  0  0  0  0  0  0  0  0  0  0
   17.8830  -17.4650    4.6932 C   0  0  1  0  0  0  0  0  0  0  0  0
   18.8099  -16.8638    3.6318 C   0  0  0  0  0  0  0  0  0  0  0  0
   18.3940  -15.5017    3.2914 C   0  0  0  0  0  0  0  0  0  0  0  0
   19.1003  -14.4370    3.8439 C   0  0  0  0  0  0  0  0  0  0  0  0
   18.7801  -13.1249    3.5717 C   0  0  0  0  0  0  0  0  0  0  0  0
   17.7315  -12.8192    2.7284 C   0  0  0  0  0  0  0  0  0  0  0  0
   17.0230  -13.8462    2.1729 C   0  0  0  0  0  0  0  0  0  0  0  0
   17.3468  -15.1696    2.4480 C   0  0  0  0  0  0  0  0  0  0  0  0
   17.7410  -16.5812    5.8590 C   0  0  0  0  0  0  0  0  0  0  0  0
   18.7737  -16.3774    6.7722 O   0  0  0  0  0  0  0  0  0  0  0  0
   16.6538  -15.9759    6.0616 O   0  0  0  0  0  0  0  0  0  0  0  0
  2  1  1  6
  2  3  1  0
  4  3  1  0
  5  4  1  0
  6  5  1  0
  7  6  1  0
  8  2  1  0
  9  8  2  0
 10 11  1  0
 11 12  2  0
 11 13  1  0
 13 14  1  0
 15 14  1  1
 15 16  1  0
 16  8  1  0
 17 15  1  0
 17 18  2  0
 19 17  1  0
 20 19  1  0
 20 28  1  0
 20 21  1  6
 22 21  1  0
 22 23  2  0
 24 23  1  0
 25 24  2  0
 26 27  2  0
 26 25  1  0
 27 22  1  0
 28 29  1  0
 30 28  2  0
M  END
$$$$
