KQF.pdb
     RDKit          3D

 30 30  0  0  1  0  0  0  0  0999 V2000
   19.4398  -13.4018  -18.2291 N   0  0  0  0  0  0  0  0  0  0  0  0
   20.2578  -12.9227  -17.1198 C   0  0  1  0  0  0  0  0  0  0  0  0
   21.6912  -13.2758  -17.3202 C   0  0  0  0  0  0  0  0  0  0  0  0
   22.0171  -14.3279  -18.2874 C   0  0  0  0  0  0  0  0  0  0  0  0
   22.2761  -15.7121  -17.8724 C   0  0  0  0  0  0  0  0  0  0  0  0
   22.5988  -16.7191  -18.9269 C   0  0  0  0  0  0  0  0  0  0  0  0
   23.8470  -16.4064  -19.5791 N   0  0  0  0  0  0  0  0  0  0  0  0
   20.1756  -11.3939  -17.1691 C   0  0  0  0  0  0  0  0  0  0  0  0
   20.2597  -10.9103  -18.3389 O   0  0  0  0  0  0  0  0  0  0  0  0
   15.8074   -8.1659  -14.8983 N   0  0  0  0  0  0  0  0  0  0  0  0
   16.7089   -7.1278  -15.2371 C   0  0  0  0  0  0  0  0  0  0  0  0
   16.2952   -5.9295  -15.1172 O   0  0  0  0  0  0  0  0  0  0  0  0
   18.0688   -7.4360  -15.7026 C   0  0  0  0  0  0  0  0  0  0  0  0
   18.4171   -8.8585  -15.7925 C   0  0  0  0  0  0  0  0  0  0  0  0
   19.8368   -9.1762  -16.1236 C   0  0  2  0  0  0  0  0  0  0  0  0
   20.0199  -10.6436  -16.0064 N   0  0  0  0  0  0  0  0  0  0  0  0
   20.9010   -8.5173  -15.3942 C   0  0  0  0  0  0  0  0  0  0  0  0
   21.2187   -8.9178  -14.2357 O   0  0  0  0  0  0  0  0  0  0  0  0
   21.6186   -7.4279  -15.9238 N   0  0  0  0  0  0  0  0  0  0  0  0
   22.5537   -6.6769  -15.0828 C   0  0  1  0  0  0  0  0  0  0  0  0
   23.9041   -6.7201  -15.8052 C   0  0  0  0  0  0  0  0  0  0  0  0
   24.4782   -8.0660  -15.7518 C   0  0  0  0  0  0  0  0  0  0  0  0
   25.2502   -8.4124  -14.6464 C   0  0  0  0  0  0  0  0  0  0  0  0
   25.8222   -9.6588  -14.5133 C   0  0  0  0  0  0  0  0  0  0  0  0
   25.6447  -10.6197  -15.4875 C   0  0  0  0  0  0  0  0  0  0  0  0
   24.8908  -10.3047  -16.5820 C   0  0  0  0  0  0  0  0  0  0  0  0
   24.3142   -9.0471  -16.7155 C   0  0  0  0  0  0  0  0  0  0  0  0
   22.0590   -5.3013  -14.9299 C   0  0  0  0  0  0  0  0  0  0  0  0
   22.4793   -4.4669  -13.8959 O   0  0  0  0  0  0  0  0  0  0  0  0
   21.2224   -4.8380  -15.7514 O   0  0  0  0  0  0  0  0  0  0  0  0
  2  1  1  6
  2  3  1  0
  4  3  1  0
  5  4  1  0
  6  5  1  0
  7  6  1  0
  8  2  1  0
  9  8  2  0
 10 11  1  0
 11 12  2  0
 11 13  1  0
 13 14  1  0
 15 14  1  1
 15 16  1  0
 16  8  1  0
 17 15  1  0
 17 18  2  0
 19 17  1  0
 20 19  1  0
 20 28  1  0
 20 21  1  6
 22 21  1  0
 22 23  2  0
 24 23  1  0
 25 24  2  0
 26 27  2  0
 26 25  1  0
 27 22  1  0
 28 29  1  0
 30 28  2  0
M  END
$$$$
