KQF.pdb
     RDKit          3D

 30 30  0  0  1  0  0  0  0  0999 V2000
   22.9719  -18.6776  -17.4288 N   0  0  0  0  0  0  0  0  0  0  0  0
   22.9118  -18.1891  -16.0552 C   0  0  1  0  0  0  0  0  0  0  0  0
   21.6826  -17.3785  -15.8285 C   0  0  0  0  0  0  0  0  0  0  0  0
   21.7352  -15.9432  -16.1213 C   0  0  0  0  0  0  0  0  0  0  0  0
   21.6143  -15.4240  -17.4892 C   0  0  0  0  0  0  0  0  0  0  0  0
   21.7285  -13.9499  -17.7000 C   0  0  0  0  0  0  0  0  0  0  0  0
   21.7612  -13.6272  -19.1057 N   0  0  0  0  0  0  0  0  0  0  0  0
   22.7800  -19.4348  -15.1735 C   0  0  0  0  0  0  0  0  0  0  0  0
   21.6471  -20.0008  -15.2466 O   0  0  0  0  0  0  0  0  0  0  0  0
   25.2869  -24.5661  -14.5268 N   0  0  0  0  0  0  0  0  0  0  0  0
   25.5982  -23.5687  -15.4827 C   0  0  0  0  0  0  0  0  0  0  0  0
   26.6090  -23.7685  -16.2308 O   0  0  0  0  0  0  0  0  0  0  0  0
   24.7741  -22.3570  -15.5995 C   0  0  0  0  0  0  0  0  0  0  0  0
   23.6393  -22.2525  -14.6753 C   0  0  0  0  0  0  0  0  0  0  0  0
   23.7062  -21.1607  -13.6605 C   0  0  2  0  0  0  0  0  0  0  0  0
   23.8383  -19.8703  -14.3801 N   0  0  0  0  0  0  0  0  0  0  0  0
   24.7148  -21.2168  -12.6221 C   0  0  0  0  0  0  0  0  0  0  0  0
   25.9431  -21.1894  -12.9284 O   0  0  0  0  0  0  0  0  0  0  0  0
   24.3885  -21.3004  -11.2550 N   0  0  0  0  0  0  0  0  0  0  0  0
   25.4451  -21.4004  -10.2454 C   0  0  1  0  0  0  0  0  0  0  0  0
   26.2648  -20.1110  -10.3586 C   0  0  0  0  0  0  0  0  0  0  0  0
   27.1925  -19.9855   -9.2327 C   0  0  0  0  0  0  0  0  0  0  0  0
   26.8969  -19.0645   -8.2317 C   0  0  0  0  0  0  0  0  0  0  0  0
   27.7118  -18.8870   -7.1350 C   0  0  0  0  0  0  0  0  0  0  0  0
   28.8662  -19.6292   -6.9914 C   0  0  0  0  0  0  0  0  0  0  0  0
   29.1784  -20.5402   -7.9600 C   0  0  0  0  0  0  0  0  0  0  0  0
   28.3557  -20.7186   -9.0660 C   0  0  0  0  0  0  0  0  0  0  0  0
   24.8265  -21.5405   -8.9195 C   0  0  0  0  0  0  0  0  0  0  0  0
   25.4816  -22.1476   -7.8498 O   0  0  0  0  0  0  0  0  0  0  0  0
   23.6607  -21.1042   -8.7193 O   0  0  0  0  0  0  0  0  0  0  0  0
  2  1  1  6
  2  3  1  0
  4  3  1  0
  5  4  1  0
  6  5  1  0
  7  6  1  0
  8  2  1  0
  9  8  2  0
 10 11  1  0
 11 12  2  0
 11 13  1  0
 13 14  1  0
 15 14  1  6
 15 16  1  0
 16  8  1  0
 17 15  1  0
 17 18  2  0
 19 17  1  0
 20 19  1  0
 20 28  1  0
 20 21  1  1
 22 21  1  0
 22 23  2  0
 24 23  1  0
 25 24  2  0
 26 27  2  0
 26 25  1  0
 27 22  1  0
 28 29  1  0
 30 28  2  0
M  END
$$$$
