KQF.pdb
     RDKit          3D

 30 30  0  0  1  0  0  0  0  0999 V2000
   17.6967  -12.7667  -18.6683 N   0  0  0  0  0  0  0  0  0  0  0  0
   17.4468  -11.9942  -17.4560 C   0  0  1  0  0  0  0  0  0  0  0  0
   17.8047  -12.7763  -16.2395 C   0  0  0  0  0  0  0  0  0  0  0  0
   19.0295  -13.5812  -16.2686 C   0  0  0  0  0  0  0  0  0  0  0  0
   19.0266  -15.0129  -15.9438 C   0  0  0  0  0  0  0  0  0  0  0  0
   20.3260  -15.7485  -15.9733 C   0  0  0  0  0  0  0  0  0  0  0  0
   20.1505  -17.1283  -15.5906 N   0  0  0  0  0  0  0  0  0  0  0  0
   18.4134  -10.8070  -17.5095 C   0  0  0  0  0  0  0  0  0  0  0  0
   19.3331  -10.9294  -18.3746 O   0  0  0  0  0  0  0  0  0  0  0  0
   17.7241   -5.2398  -14.5835 N   0  0  0  0  0  0  0  0  0  0  0  0
   18.7918   -5.0299  -15.4897 C   0  0  0  0  0  0  0  0  0  0  0  0
   19.4299   -3.9317  -15.3999 O   0  0  0  0  0  0  0  0  0  0  0  0
   19.1426   -6.0515  -16.4868 C   0  0  0  0  0  0  0  0  0  0  0  0
   18.4161   -7.3232  -16.3961 C   0  0  0  0  0  0  0  0  0  0  0  0
   19.1537   -8.5434  -16.8356 C   0  0  2  0  0  0  0  0  0  0  0  0
   18.2551   -9.7113  -16.6648 N   0  0  0  0  0  0  0  0  0  0  0  0
   20.4350   -8.8538  -16.2354 C   0  0  0  0  0  0  0  0  0  0  0  0
   20.4890   -9.5504  -15.1793 O   0  0  0  0  0  0  0  0  0  0  0  0
   21.6538   -8.4099  -16.7829 N   0  0  0  0  0  0  0  0  0  0  0  0
   22.9148   -8.6504  -16.0775 C   0  0  1  0  0  0  0  0  0  0  0  0
   23.5291   -9.8990  -16.7185 C   0  0  0  0  0  0  0  0  0  0  0  0
   24.8825  -10.1308  -16.2100 C   0  0  0  0  0  0  0  0  0  0  0  0
   25.9613   -9.7615  -17.0084 C   0  0  0  0  0  0  0  0  0  0  0  0
   27.2667   -9.9382  -16.6045 C   0  0  0  0  0  0  0  0  0  0  0  0
   27.5510  -10.4962  -15.3749 C   0  0  0  0  0  0  0  0  0  0  0  0
   26.5098  -10.8666  -14.5723 C   0  0  0  0  0  0  0  0  0  0  0  0
   25.1933  -10.6879  -14.9806 C   0  0  0  0  0  0  0  0  0  0  0  0
   23.7810   -7.4732  -16.2337 C   0  0  0  0  0  0  0  0  0  0  0  0
   24.7613   -7.1381  -15.3016 O   0  0  0  0  0  0  0  0  0  0  0  0
   23.6497   -6.7237  -17.2389 O   0  0  0  0  0  0  0  0  0  0  0  0
  2  1  1  6
  2  3  1  0
  4  3  1  0
  5  4  1  0
  6  5  1  0
  7  6  1  0
  8  2  1  0
  9  8  2  0
 10 11  1  0
 11 12  2  0
 11 13  1  0
 13 14  1  0
 15 14  1  1
 15 16  1  0
 16  8  1  0
 17 15  1  0
 17 18  2  0
 19 17  1  0
 20 19  1  0
 20 28  1  0
 20 21  1  6
 22 21  1  0
 22 23  2  0
 24 23  1  0
 25 24  2  0
 26 27  2  0
 26 25  1  0
 27 22  1  0
 28 29  1  0
 30 28  2  0
M  END
$$$$
