KQF.pdb
     RDKit          3D

 30 30  0  0  1  0  0  0  0  0999 V2000
   21.0025  -13.7405  -17.2724 N   0  0  0  0  0  0  0  0  0  0  0  0
   21.4235  -12.5156  -17.9441 C   0  0  1  0  0  0  0  0  0  0  0  0
   20.2483  -11.7461  -18.4403 C   0  0  0  0  0  0  0  0  0  0  0  0
   19.3206  -12.4132  -19.3584 C   0  0  0  0  0  0  0  0  0  0  0  0
   18.1103  -11.7497  -19.8587 C   0  0  0  0  0  0  0  0  0  0  0  0
   17.1974  -12.5221  -20.7533 C   0  0  0  0  0  0  0  0  0  0  0  0
   16.9924  -13.8605  -20.2556 N   0  0  0  0  0  0  0  0  0  0  0  0
   22.0843  -11.6523  -16.8649 C   0  0  0  0  0  0  0  0  0  0  0  0
   21.5662  -11.7794  -15.7140 O   0  0  0  0  0  0  0  0  0  0  0  0
   28.0230  -10.4809  -16.0155 N   0  0  0  0  0  0  0  0  0  0  0  0
   27.1843  -11.5724  -15.6834 C   0  0  0  0  0  0  0  0  0  0  0  0
   27.7473  -12.6549  -15.3192 O   0  0  0  0  0  0  0  0  0  0  0  0
   25.7216  -11.4450  -15.7554 C   0  0  0  0  0  0  0  0  0  0  0  0
   25.2023  -10.1177  -16.1044 C   0  0  0  0  0  0  0  0  0  0  0  0
   23.7186   -9.9604  -16.0954 C   0  0  2  0  0  0  0  0  0  0  0  0
   23.1579  -10.8186  -17.1675 N   0  0  0  0  0  0  0  0  0  0  0  0
   23.1439   -8.6360  -16.2147 C   0  0  0  0  0  0  0  0  0  0  0  0
   23.3777   -7.9330  -17.2416 O   0  0  0  0  0  0  0  0  0  0  0  0
   22.3160   -8.0789  -15.2215 N   0  0  0  0  0  0  0  0  0  0  0  0
   21.8117   -6.7104  -15.3585 C   0  0  1  0  0  0  0  0  0  0  0  0
   20.3278   -6.8380  -15.7176 C   0  0  0  0  0  0  0  0  0  0  0  0
   20.1603   -7.0819  -17.1517 C   0  0  0  0  0  0  0  0  0  0  0  0
   19.7354   -8.3421  -17.5630 C   0  0  0  0  0  0  0  0  0  0  0  0
   19.5463   -8.6545  -18.8916 C   0  0  0  0  0  0  0  0  0  0  0  0
   19.7756   -7.7122  -19.8732 C   0  0  0  0  0  0  0  0  0  0  0  0
   20.1927   -6.4677  -19.4954 C   0  0  0  0  0  0  0  0  0  0  0  0
   20.3832   -6.1535  -18.1549 C   0  0  0  0  0  0  0  0  0  0  0  0
   22.0074   -6.0002  -14.0866 C   0  0  0  0  0  0  0  0  0  0  0  0
   22.4991   -6.6322  -12.9460 O   0  0  0  0  0  0  0  0  0  0  0  0
   21.7256   -4.7744  -14.0000 O   0  0  0  0  0  0  0  0  0  0  0  0
  2  1  1  1
  2  3  1  0
  4  3  1  0
  5  4  1  0
  6  5  1  0
  7  6  1  0
  8  2  1  0
  9  8  2  0
 10 11  1  0
 11 12  2  0
 11 13  1  0
 13 14  1  0
 15 14  1  6
 15 16  1  0
 16  8  1  0
 17 15  1  0
 17 18  2  0
 19 17  1  0
 20 19  1  0
 20 28  1  0
 20 21  1  1
 22 21  1  0
 22 23  2  0
 24 23  1  0
 25 24  2  0
 26 27  2  0
 26 25  1  0
 27 22  1  0
 28 29  1  0
 30 28  2  0
M  END
$$$$
