KQF.pdb
     RDKit          3D

 30 30  0  0  1  0  0  0  0  0999 V2000
   27.9048  -18.4103  -21.5027 N   0  0  0  0  0  0  0  0  0  0  0  0
   27.6743  -18.0841  -20.0993 C   0  0  1  0  0  0  0  0  0  0  0  0
   28.3067  -16.7836  -19.7411 C   0  0  0  0  0  0  0  0  0  0  0  0
   29.7339  -16.6058  -20.0240 C   0  0  0  0  0  0  0  0  0  0  0  0
   30.4423  -15.3623  -19.6963 C   0  0  0  0  0  0  0  0  0  0  0  0
   31.8710  -15.2308  -20.1107 C   0  0  0  0  0  0  0  0  0  0  0  0
   32.7124  -16.1388  -19.3701 N   0  0  0  0  0  0  0  0  0  0  0  0
   26.1619  -17.8855  -19.9588 C   0  0  0  0  0  0  0  0  0  0  0  0
   25.6244  -17.3009  -20.9481 O   0  0  0  0  0  0  0  0  0  0  0  0
   21.9661  -21.8086  -17.9348 N   0  0  0  0  0  0  0  0  0  0  0  0
   21.2449  -20.5923  -17.8597 C   0  0  0  0  0  0  0  0  0  0  0  0
   19.9996  -20.6639  -17.6037 O   0  0  0  0  0  0  0  0  0  0  0  0
   21.9216  -19.3038  -18.0661 C   0  0  0  0  0  0  0  0  0  0  0  0
   23.3641  -19.3631  -18.3281 C   0  0  0  0  0  0  0  0  0  0  0  0
   24.0190  -18.0862  -18.7366 C   0  0  2  0  0  0  0  0  0  0  0  0
   25.4801  -18.3263  -18.8275 N   0  0  0  0  0  0  0  0  0  0  0  0
   23.7948  -16.8897  -17.9512 C   0  0  0  0  0  0  0  0  0  0  0  0
   24.3942  -16.7340  -16.8468 O   0  0  0  0  0  0  0  0  0  0  0  0
   22.9231  -15.8651  -18.3666 N   0  0  0  0  0  0  0  0  0  0  0  0
   22.7110  -14.6854  -17.5246 C   0  0  1  0  0  0  0  0  0  0  0  0
   23.5681  -13.5700  -18.1317 C   0  0  0  0  0  0  0  0  0  0  0  0
   23.1526  -13.2867  -19.5069 C   0  0  0  0  0  0  0  0  0  0  0  0
   23.8276  -13.9214  -20.5458 C   0  0  0  0  0  0  0  0  0  0  0  0
   23.4974  -13.7166  -21.8676 C   0  0  0  0  0  0  0  0  0  0  0  0
   22.4696  -12.8617  -22.2096 C   0  0  0  0  0  0  0  0  0  0  0  0
   21.7913  -12.2270  -21.2084 C   0  0  0  0  0  0  0  0  0  0  0  0
   22.1251  -12.4342  -19.8751 C   0  0  0  0  0  0  0  0  0  0  0  0
   21.2816  -14.3432  -17.5339 C   0  0  0  0  0  0  0  0  0  0  0  0
   20.7603  -13.2915  -16.7828 O   0  0  0  0  0  0  0  0  0  0  0  0
   20.4785  -15.0124  -18.2386 O   0  0  0  0  0  0  0  0  0  0  0  0
  2  1  1  6
  2  3  1  0
  4  3  1  0
  5  4  1  0
  6  5  1  0
  7  6  1  0
  8  2  1  0
  9  8  2  0
 10 11  1  0
 11 12  2  0
 11 13  1  0
 13 14  1  0
 15 14  1  1
 15 16  1  0
 16  8  1  0
 17 15  1  0
 17 18  2  0
 19 17  1  0
 20 19  1  0
 20 28  1  0
 20 21  1  6
 22 21  1  0
 22 23  2  0
 24 23  1  0
 25 24  2  0
 26 27  2  0
 26 25  1  0
 27 22  1  0
 28 29  1  0
 30 28  2  0
M  END
$$$$
