KQF.pdb
     RDKit          3D

 30 30  0  0  1  0  0  0  0  0999 V2000
   26.7502  -24.0412  -17.5876 N   0  0  0  0  0  0  0  0  0  0  0  0
   25.8225  -24.1903  -16.4713 C   0  0  1  0  0  0  0  0  0  0  0  0
   26.0800  -25.4546  -15.7264 C   0  0  0  0  0  0  0  0  0  0  0  0
   26.0619  -26.7153  -16.4740 C   0  0  0  0  0  0  0  0  0  0  0  0
   27.2877  -27.3170  -17.0133 C   0  0  0  0  0  0  0  0  0  0  0  0
   28.0459  -28.2727  -16.1518 C   0  0  0  0  0  0  0  0  0  0  0  0
   29.2227  -28.7607  -16.8286 N   0  0  0  0  0  0  0  0  0  0  0  0
   26.1416  -23.0444  -15.5061 C   0  0  0  0  0  0  0  0  0  0  0  0
   27.3452  -22.6469  -15.5573 O   0  0  0  0  0  0  0  0  0  0  0  0
   27.0577  -18.8786  -16.2611 N   0  0  0  0  0  0  0  0  0  0  0  0
   25.8739  -18.5789  -15.5442 C   0  0  0  0  0  0  0  0  0  0  0  0
   25.8785  -17.5354  -14.8145 O   0  0  0  0  0  0  0  0  0  0  0  0
   24.6909  -19.4449  -15.6520 C   0  0  0  0  0  0  0  0  0  0  0  0
   24.3676  -20.2518  -14.4699 C   0  0  0  0  0  0  0  0  0  0  0  0
   25.4155  -21.2099  -14.0116 C   0  0  2  0  0  0  0  0  0  0  0  0
   25.1634  -22.5165  -14.6672 N   0  0  0  0  0  0  0  0  0  0  0  0
   25.6026  -21.4328  -12.5925 C   0  0  0  0  0  0  0  0  0  0  0  0
   24.8828  -22.2772  -11.9824 O   0  0  0  0  0  0  0  0  0  0  0  0
   26.5708  -20.7411  -11.8398 N   0  0  0  0  0  0  0  0  0  0  0  0
   26.5973  -20.8577  -10.3799 C   0  0  1  0  0  0  0  0  0  0  0  0
   27.7583  -19.9785   -9.9041 C   0  0  0  0  0  0  0  0  0  0  0  0
   27.7208  -19.8120   -8.4498 C   0  0  0  0  0  0  0  0  0  0  0  0
   28.5062  -20.6538   -7.6673 C   0  0  0  0  0  0  0  0  0  0  0  0
   28.5352  -20.5613   -6.2929 C   0  0  0  0  0  0  0  0  0  0  0  0
   27.7740  -19.6153   -5.6373 C   0  0  0  0  0  0  0  0  0  0  0  0
   26.9951  -18.7768   -6.3827 C   0  0  0  0  0  0  0  0  0  0  0  0
   26.9665  -18.8708   -7.7692 C   0  0  0  0  0  0  0  0  0  0  0  0
   25.3085  -20.4002   -9.8411 C   0  0  0  0  0  0  0  0  0  0  0  0
   24.6962  -21.0114   -8.7487 O   0  0  0  0  0  0  0  0  0  0  0  0
   24.7161  -19.4217  -10.3713 O   0  0  0  0  0  0  0  0  0  0  0  0
  2  1  1  6
  2  3  1  0
  4  3  1  0
  5  4  1  0
  6  5  1  0
  7  6  1  0
  8  2  1  0
  9  8  2  0
 10 11  1  0
 11 12  2  0
 11 13  1  0
 13 14  1  0
 15 14  1  1
 15 16  1  0
 16  8  1  0
 17 15  1  0
 17 18  2  0
 19 17  1  0
 20 19  1  0
 20 28  1  0
 20 21  1  1
 22 21  1  0
 22 23  2  0
 24 23  1  0
 25 24  2  0
 26 27  2  0
 26 25  1  0
 27 22  1  0
 28 29  1  0
 30 28  2  0
M  END
$$$$
