KQF.pdb
     RDKit          3D

 30 30  0  0  1  0  0  0  0  0999 V2000
   27.9372  -22.2004  -17.4864 N   0  0  0  0  0  0  0  0  0  0  0  0
   28.5534  -22.1947  -16.1637 C   0  0  1  0  0  0  0  0  0  0  0  0
   29.9659  -21.7262  -16.2332 C   0  0  0  0  0  0  0  0  0  0  0  0
   30.9911  -22.6780  -16.6710 C   0  0  0  0  0  0  0  0  0  0  0  0
   30.8603  -24.1220  -16.4403 C   0  0  0  0  0  0  0  0  0  0  0  0
   31.9783  -25.0125  -16.8732 C   0  0  0  0  0  0  0  0  0  0  0  0
   31.7634  -26.3686  -16.4305 N   0  0  0  0  0  0  0  0  0  0  0  0
   27.7874  -21.1473  -15.3497 C   0  0  0  0  0  0  0  0  0  0  0  0
   27.8636  -19.9717  -15.8201 O   0  0  0  0  0  0  0  0  0  0  0  0
   24.2003  -18.5197  -16.8542 N   0  0  0  0  0  0  0  0  0  0  0  0
   23.4164  -18.7200  -15.6921 C   0  0  0  0  0  0  0  0  0  0  0  0
   22.3835  -17.9893  -15.5484 O   0  0  0  0  0  0  0  0  0  0  0  0
   23.7893  -19.7394  -14.7009 C   0  0  0  0  0  0  0  0  0  0  0  0
   25.0443  -20.4579  -14.9497 C   0  0  0  0  0  0  0  0  0  0  0  0
   25.9429  -20.6536  -13.7748 C   0  0  2  0  0  0  0  0  0  0  0  0
   27.0821  -21.5021  -14.2026 N   0  0  0  0  0  0  0  0  0  0  0  0
   25.3985  -21.1950  -12.5464 C   0  0  0  0  0  0  0  0  0  0  0  0
   25.0006  -22.3964  -12.5038 O   0  0  0  0  0  0  0  0  0  0  0  0
   25.2890  -20.4330  -11.3676 N   0  0  0  0  0  0  0  0  0  0  0  0
   24.7145  -21.0211  -10.1553 C   0  0  1  0  0  0  0  0  0  0  0  0
   25.1675  -20.1298   -8.9944 C   0  0  0  0  0  0  0  0  0  0  0  0
   26.6270  -20.1339   -8.8763 C   0  0  0  0  0  0  0  0  0  0  0  0
   27.3280  -21.2272   -9.3771 C   0  0  0  0  0  0  0  0  0  0  0  0
   28.7019  -21.3091   -9.3128 C   0  0  0  0  0  0  0  0  0  0  0  0
   29.4391  -20.2928   -8.7405 C   0  0  0  0  0  0  0  0  0  0  0  0
   28.7748  -19.2085   -8.2420 C   0  0  0  0  0  0  0  0  0  0  0  0
   27.3888  -19.1268   -8.3074 C   0  0  0  0  0  0  0  0  0  0  0  0
   23.2506  -21.0476  -10.2852 C   0  0  0  0  0  0  0  0  0  0  0  0
   22.4303  -21.6940   -9.3626 O   0  0  0  0  0  0  0  0  0  0  0  0
   22.6945  -20.4725  -11.2596 O   0  0  0  0  0  0  0  0  0  0  0  0
  2  1  1  6
  2  3  1  0
  4  3  1  0
  5  4  1  0
  6  5  1  0
  7  6  1  0
  8  2  1  0
  9  8  2  0
 10 11  1  0
 11 12  2  0
 11 13  1  0
 13 14  1  0
 15 14  1  6
 15 16  1  0
 16  8  1  0
 17 15  1  0
 17 18  2  0
 19 17  1  0
 20 19  1  0
 20 28  1  0
 20 21  1  1
 22 21  1  0
 22 23  2  0
 24 23  1  0
 25 24  2  0
 26 27  2  0
 26 25  1  0
 27 22  1  0
 28 29  1  0
 30 28  2  0
M  END
$$$$
