KQF.pdb
     RDKit          3D

 30 30  0  0  1  0  0  0  0  0999 V2000
   27.7644  -19.2734  -15.3312 N   0  0  0  0  0  0  0  0  0  0  0  0
   27.7442  -18.1978  -14.3454 C   0  0  1  0  0  0  0  0  0  0  0  0
   27.0842  -16.9804  -14.8949 C   0  0  0  0  0  0  0  0  0  0  0  0
   27.4022  -16.5799  -16.2686 C   0  0  0  0  0  0  0  0  0  0  0  0
   26.9220  -15.3161  -16.8407 C   0  0  0  0  0  0  0  0  0  0  0  0
   27.2127  -15.0335  -18.2781 C   0  0  0  0  0  0  0  0  0  0  0  0
   28.6281  -14.8616  -18.4976 N   0  0  0  0  0  0  0  0  0  0  0  0
   26.8554  -18.6954  -13.2013 C   0  0  0  0  0  0  0  0  0  0  0  0
   26.4705  -17.7801  -12.4117 O   0  0  0  0  0  0  0  0  0  0  0  0
   24.3483  -24.7826  -12.9880 N   0  0  0  0  0  0  0  0  0  0  0  0
   24.5658  -23.6618  -13.8257 C   0  0  0  0  0  0  0  0  0  0  0  0
   24.0063  -23.6672  -14.9695 O   0  0  0  0  0  0  0  0  0  0  0  0
   25.4030  -22.5399  -13.3770 C   0  0  0  0  0  0  0  0  0  0  0  0
   24.7637  -21.5720  -12.4783 C   0  0  0  0  0  0  0  0  0  0  0  0
   25.6235  -20.4598  -11.9784 C   0  0  2  0  0  0  0  0  0  0  0  0
   26.5242  -20.0426  -13.0809 N   0  0  0  0  0  0  0  0  0  0  0  0
   26.4168  -20.6574  -10.7825 C   0  0  0  0  0  0  0  0  0  0  0  0
   27.5376  -21.2422  -10.8540 O   0  0  0  0  0  0  0  0  0  0  0  0
   25.9935  -20.2187   -9.5135 N   0  0  0  0  0  0  0  0  0  0  0  0
   26.7147  -20.6321   -8.3074 C   0  0  1  0  0  0  0  0  0  0  0  0
   27.4839  -19.3971   -7.8275 C   0  0  0  0  0  0  0  0  0  0  0  0
   28.0700  -19.6319   -6.5064 C   0  0  0  0  0  0  0  0  0  0  0  0
   27.6110  -18.8714   -5.4346 C   0  0  0  0  0  0  0  0  0  0  0  0
   28.1033  -19.0320   -4.1578 C   0  0  0  0  0  0  0  0  0  0  0  0
   29.0832  -19.9676   -3.8963 C   0  0  0  0  0  0  0  0  0  0  0  0
   29.5501  -20.7270   -4.9312 C   0  0  0  0  0  0  0  0  0  0  0  0
   29.0529  -20.5643   -6.2189 C   0  0  0  0  0  0  0  0  0  0  0  0
   25.7436  -21.0949   -7.3057 C   0  0  0  0  0  0  0  0  0  0  0  0
   26.1234  -21.8103   -6.1718 O   0  0  0  0  0  0  0  0  0  0  0  0
   24.5166  -20.8484   -7.4575 O   0  0  0  0  0  0  0  0  0  0  0  0
  2  1  1  6
  2  3  1  0
  4  3  1  0
  5  4  1  0
  6  5  1  0
  7  6  1  0
  8  2  1  0
  9  8  2  0
 10 11  1  0
 11 12  2  0
 11 13  1  0
 13 14  1  0
 15 14  1  6
 15 16  1  0
 16  8  1  0
 17 15  1  0
 17 18  2  0
 19 17  1  0
 20 19  1  0
 20 28  1  0
 20 21  1  1
 22 21  1  0
 22 23  2  0
 24 23  1  0
 25 24  2  0
 26 27  2  0
 26 25  1  0
 27 22  1  0
 28 29  1  0
 30 28  2  0
M  END
$$$$
