KQF.pdb
     RDKit          3D

 30 30  0  0  1  0  0  0  0  0999 V2000
   22.9704  -23.2063  -14.5127 N   0  0  0  0  0  0  0  0  0  0  0  0
   23.6075  -24.0842  -13.5367 C   0  0  1  0  0  0  0  0  0  0  0  0
   24.1085  -25.3293  -14.1833 C   0  0  0  0  0  0  0  0  0  0  0  0
   23.2673  -25.9697  -15.1986 C   0  0  0  0  0  0  0  0  0  0  0  0
   22.0868  -26.7657  -14.8406 C   0  0  0  0  0  0  0  0  0  0  0  0
   22.1457  -28.2457  -15.0320 C   0  0  0  0  0  0  0  0  0  0  0  0
   20.9616  -28.8843  -14.5113 N   0  0  0  0  0  0  0  0  0  0  0  0
   24.8415  -23.3274  -13.0359 C   0  0  0  0  0  0  0  0  0  0  0  0
   25.7172  -24.0692  -12.4952 O   0  0  0  0  0  0  0  0  0  0  0  0
   27.2958  -16.8064  -13.6550 N   0  0  0  0  0  0  0  0  0  0  0  0
   27.8122  -18.0656  -14.0459 C   0  0  0  0  0  0  0  0  0  0  0  0
   28.4724  -18.1166  -15.1336 O   0  0  0  0  0  0  0  0  0  0  0  0
   27.5918  -19.2585  -13.2157 C   0  0  0  0  0  0  0  0  0  0  0  0
   26.4204  -20.0758  -13.5520 C   0  0  0  0  0  0  0  0  0  0  0  0
   26.1730  -21.2695  -12.6918 C   0  0  2  0  0  0  0  0  0  0  0  0
   24.9490  -21.9470  -13.1850 N   0  0  0  0  0  0  0  0  0  0  0  0
   26.0624  -21.1009  -11.2573 C   0  0  0  0  0  0  0  0  0  0  0  0
   24.9499  -20.7893  -10.7389 O   0  0  0  0  0  0  0  0  0  0  0  0
   27.1575  -21.2725  -10.3892 N   0  0  0  0  0  0  0  0  0  0  0  0
   27.0151  -21.0098   -8.9552 C   0  0  1  0  0  0  0  0  0  0  0  0
   28.3849  -20.5201   -8.4745 C   0  0  0  0  0  0  0  0  0  0  0  0
   28.3397  -20.1640   -7.0549 C   0  0  0  0  0  0  0  0  0  0  0  0
   28.6989  -21.1298   -6.1190 C   0  0  0  0  0  0  0  0  0  0  0  0
   28.6905  -20.8770   -4.7646 C   0  0  0  0  0  0  0  0  0  0  0  0
   28.3198  -19.6375   -4.2847 C   0  0  0  0  0  0  0  0  0  0  0  0
   27.9634  -18.6723   -5.1829 C   0  0  0  0  0  0  0  0  0  0  0  0
   27.9722  -18.9282   -6.5490 C   0  0  0  0  0  0  0  0  0  0  0  0
   25.9710  -19.9943   -8.7574 C   0  0  0  0  0  0  0  0  0  0  0  0
   25.9182  -18.8212   -9.5077 O   0  0  0  0  0  0  0  0  0  0  0  0
   25.0810  -20.1685   -7.8816 O   0  0  0  0  0  0  0  0  0  0  0  0
  2  1  1  6
  2  3  1  0
  4  3  1  0
  5  4  1  0
  6  5  1  0
  7  6  1  0
  8  2  1  0
  9  8  2  0
 10 11  1  0
 11 12  2  0
 11 13  1  0
 13 14  1  0
 15 14  1  6
 15 16  1  0
 16  8  1  0
 17 15  1  0
 17 18  2  0
 19 17  1  0
 20 19  1  0
 20 28  1  0
 20 21  1  6
 22 21  1  0
 22 23  2  0
 24 23  1  0
 25 24  2  0
 26 27  2  0
 26 25  1  0
 27 22  1  0
 28 29  1  0
 30 28  2  0
M  END
$$$$
