MLN.pdb
     RDKit          3D

 25 24  0  0  1  0  0  0  0  0999 V2000
   20.0462  -18.2094  -21.1584 C   0  0  0  0  0  0  0  0  0  0  0  0
   20.9396  -17.2603  -19.9268 S   0  0  0  0  0  0  0  0  0  0  0  0
   20.0411  -17.0492  -18.3954 C   0  0  0  0  0  0  0  0  0  0  0  0
   20.7077  -16.2364  -17.3455 C   0  0  0  0  0  0  0  0  0  0  0  0
   22.0927  -16.6559  -17.0009 C   0  0  2  0  0  0  0  0  0  0  0  0
   22.0968  -17.8755  -16.2186 N   0  0  0  0  0  0  0  0  0  0  0  0
   22.8019  -15.5550  -16.2868 C   0  0  0  0  0  0  0  0  0  0  0  0
   22.5864  -15.3876  -15.0648 O   0  0  0  0  0  0  0  0  0  0  0  0
   28.1050  -14.0241  -17.0265 C   0  0  0  0  0  0  0  0  0  0  0  0
   26.7644  -14.4783  -16.4053 C   0  0  1  0  0  0  0  0  0  0  0  0
   27.0806  -14.6259  -14.9102 C   0  0  0  0  0  0  0  0  0  0  0  0
   25.8056  -13.3636  -16.6082 C   0  0  0  0  0  0  0  0  0  0  0  0
   24.3829  -13.6139  -16.1981 C   0  0  2  0  0  0  0  0  0  0  0  0
   23.7179  -14.6722  -16.9113 N   0  0  0  0  0  0  0  0  0  0  0  0
   23.5475  -12.3818  -16.2696 C   0  0  0  0  0  0  0  0  0  0  0  0
   22.9576  -12.0729  -17.3373 O   0  0  0  0  0  0  0  0  0  0  0  0
   20.9709   -8.0764  -15.2000 N   0  0  0  0  0  0  0  0  0  0  0  0
   21.5778   -8.4366  -13.9727 C   0  0  0  0  0  0  0  0  0  0  0  0
   21.3538   -7.7029  -12.9537 O   0  0  0  0  0  0  0  0  0  0  0  0
   22.4351   -9.6141  -13.8774 C   0  0  0  0  0  0  0  0  0  0  0  0
   22.5631  -10.3113  -15.1856 C   0  0  2  0  0  0  0  0  0  0  0  0
   23.3749  -11.5081  -15.1627 N   0  0  0  0  0  0  0  0  0  0  0  0
   23.0500   -9.3745  -16.2556 C   0  0  0  0  0  0  0  0  0  0  0  0
   22.1242   -8.9169  -17.1746 O   0  0  0  0  0  0  0  0  0  0  0  0
   24.2355   -8.9960  -16.3508 O   0  0  0  0  0  0  0  0  0  0  0  0
  1  2  1  0
  3  2  1  0
  4  3  1  0
  5  4  1  0
  5  6  1  1
  7  8  2  0
  7  5  1  0
 10  9  1  6
 10 12  1  0
 11 10  1  0
 13 12  1  6
 13 14  1  0
 14  7  1  0
 15 13  1  0
 15 22  1  0
 16 15  2  0
 17 18  1  0
 18 20  1  0
 18 19  2  0
 21 20  1  1
 21 22  1  0
 21 23  1  0
 23 25  2  0
 23 24  1  0
M  END
$$$$
