MLN.pdb
     RDKit          3D

 25 24  0  0  1  0  0  0  0  0999 V2000
   23.7233  -27.2592  -16.1568 C   0  0  0  0  0  0  0  0  0  0  0  0
   25.0686  -27.1437  -17.3370 S   0  0  0  0  0  0  0  0  0  0  0  0
   25.2335  -25.5249  -18.0781 C   0  0  0  0  0  0  0  0  0  0  0  0
   25.0279  -24.3619  -17.1767 C   0  0  0  0  0  0  0  0  0  0  0  0
   26.2704  -23.6746  -16.7328 C   0  0  2  0  0  0  0  0  0  0  0  0
   27.1801  -24.5951  -16.0812 N   0  0  0  0  0  0  0  0  0  0  0  0
   25.9339  -22.5273  -15.8410 C   0  0  0  0  0  0  0  0  0  0  0  0
   26.0042  -22.6827  -14.6006 O   0  0  0  0  0  0  0  0  0  0  0  0
   28.2591  -17.8226  -16.2999 C   0  0  0  0  0  0  0  0  0  0  0  0
   27.6405  -19.1416  -15.7829 C   0  0  1  0  0  0  0  0  0  0  0  0
   28.1995  -19.2794  -14.3596 C   0  0  0  0  0  0  0  0  0  0  0  0
   26.1730  -18.9266  -15.7275 C   0  0  0  0  0  0  0  0  0  0  0  0
   25.3250  -20.1313  -15.4363 C   0  0  2  0  0  0  0  0  0  0  0  0
   25.5334  -21.2527  -16.3138 N   0  0  0  0  0  0  0  0  0  0  0  0
   23.8710  -19.8058  -15.4027 C   0  0  0  0  0  0  0  0  0  0  0  0
   23.1843  -19.8465  -16.4564 O   0  0  0  0  0  0  0  0  0  0  0  0
   19.2666  -17.7352  -14.0284 N   0  0  0  0  0  0  0  0  0  0  0  0
   19.7686  -18.2993  -15.2259 C   0  0  0  0  0  0  0  0  0  0  0  0
   18.9420  -18.5500  -16.1644 O   0  0  0  0  0  0  0  0  0  0  0  0
   21.1915  -18.5854  -15.3809 C   0  0  0  0  0  0  0  0  0  0  0  0
   21.7851  -19.1286  -14.1294 C   0  0  2  0  0  0  0  0  0  0  0  0
   23.1952  -19.4403  -14.2077 N   0  0  0  0  0  0  0  0  0  0  0  0
   21.0163  -20.3226  -13.6366 C   0  0  0  0  0  0  0  0  0  0  0  0
   21.7306  -21.4734  -13.3601 O   0  0  0  0  0  0  0  0  0  0  0  0
   19.7797  -20.3225  -13.4680 O   0  0  0  0  0  0  0  0  0  0  0  0
  1  2  1  0
  3  2  1  0
  4  3  1  0
  5  4  1  0
  5  6  1  1
  7  8  2  0
  7  5  1  0
 10  9  1  1
 10 12  1  0
 11 10  1  0
 13 12  1  6
 13 14  1  0
 14  7  1  0
 15 13  1  0
 15 22  1  0
 16 15  2  0
 17 18  1  0
 18 20  1  0
 18 19  2  0
 21 20  1  6
 21 22  1  0
 21 23  1  0
 23 25  2  0
 23 24  1  0
M  END
$$$$
