MLN.pdb
     RDKit          3D

 25 24  0  0  1  0  0  0  0  0999 V2000
   29.0390  -19.5077  -13.2025 C   0  0  0  0  0  0  0  0  0  0  0  0
   28.8151  -20.8831  -12.0738 S   0  0  0  0  0  0  0  0  0  0  0  0
   27.5393  -22.0272  -12.5838 C   0  0  0  0  0  0  0  0  0  0  0  0
   26.2474  -21.9435  -11.8548 C   0  0  0  0  0  0  0  0  0  0  0  0
   25.8242  -20.5710  -11.4675 C   0  0  2  0  0  0  0  0  0  0  0  0
   25.6130  -20.4662  -10.0379 N   0  0  0  0  0  0  0  0  0  0  0  0
   24.6004  -20.1766  -12.2236 C   0  0  0  0  0  0  0  0  0  0  0  0
   23.4776  -20.3809  -11.7086 O   0  0  0  0  0  0  0  0  0  0  0  0
   21.6319  -16.9276  -15.3195 C   0  0  0  0  0  0  0  0  0  0  0  0
   22.4362  -17.9308  -16.1775 C   0  0  1  0  0  0  0  0  0  0  0  0
   22.8481  -17.1154  -17.4114 C   0  0  0  0  0  0  0  0  0  0  0  0
   23.6406  -18.2910  -15.3885 C   0  0  0  0  0  0  0  0  0  0  0  0
   23.4288  -19.1954  -14.2085 C   0  0  2  0  0  0  0  0  0  0  0  0
   24.6262  -19.5765  -13.5072 N   0  0  0  0  0  0  0  0  0  0  0  0
   22.6649  -20.4240  -14.5664 C   0  0  0  0  0  0  0  0  0  0  0  0
   23.2358  -21.3827  -15.1480 O   0  0  0  0  0  0  0  0  0  0  0  0
   19.1280  -24.5830  -13.6343 N   0  0  0  0  0  0  0  0  0  0  0  0
   18.6953  -23.2775  -13.9704 C   0  0  0  0  0  0  0  0  0  0  0  0
   17.6110  -23.1557  -14.6309 O   0  0  0  0  0  0  0  0  0  0  0  0
   19.4687  -22.1055  -13.5718 C   0  0  0  0  0  0  0  0  0  0  0  0
   20.5127  -21.7652  -14.5758 C   0  0  2  0  0  0  0  0  0  0  0  0
   21.2823  -20.5776  -14.2777 N   0  0  0  0  0  0  0  0  0  0  0  0
   19.9281  -21.6715  -15.9575 C   0  0  0  0  0  0  0  0  0  0  0  0
   20.1100  -22.7497  -16.8033 O   0  0  0  0  0  0  0  0  0  0  0  0
   19.2947  -20.6784  -16.3702 O   0  0  0  0  0  0  0  0  0  0  0  0
  1  2  1  0
  3  2  1  0
  4  3  1  0
  5  4  1  0
  5  6  1  1
  7  8  2  0
  7  5  1  0
 10  9  1  1
 10 12  1  0
 11 10  1  0
 13 12  1  6
 13 14  1  0
 14  7  1  0
 15 13  1  0
 15 22  1  0
 16 15  2  0
 17 18  1  0
 18 20  1  0
 18 19  2  0
 21 20  1  1
 21 22  1  0
 21 23  1  0
 23 25  2  0
 23 24  1  0
M  END
$$$$
