MLN.pdb
     RDKit          3D

 25 24  0  0  1  0  0  0  0  0999 V2000
   22.1055  -10.5415  -21.9197 C   0  0  0  0  0  0  0  0  0  0  0  0
   22.3341  -11.7554  -23.2197 S   0  0  0  0  0  0  0  0  0  0  0  0
   23.2240  -13.2128  -22.6896 C   0  0  0  0  0  0  0  0  0  0  0  0
   22.9913  -13.6562  -21.2908 C   0  0  0  0  0  0  0  0  0  0  0  0
   23.8550  -14.7751  -20.8270 C   0  0  2  0  0  0  0  0  0  0  0  0
   23.6774  -15.9558  -21.6480 N   0  0  0  0  0  0  0  0  0  0  0  0
   23.5860  -15.0721  -19.3902 C   0  0  0  0  0  0  0  0  0  0  0  0
   22.9791  -16.1259  -19.0924 O   0  0  0  0  0  0  0  0  0  0  0  0
   27.0017  -13.4944  -15.2591 C   0  0  0  0  0  0  0  0  0  0  0  0
   26.1614  -14.3476  -16.2366 C   0  0  1  0  0  0  0  0  0  0  0  0
   26.4494  -15.7933  -15.8073 C   0  0  0  0  0  0  0  0  0  0  0  0
   24.7391  -14.0182  -15.9694 C   0  0  0  0  0  0  0  0  0  0  0  0
   23.7284  -14.5506  -16.9442 C   0  0  2  0  0  0  0  0  0  0  0  0
   23.9787  -14.2256  -18.3235 N   0  0  0  0  0  0  0  0  0  0  0  0
   22.3371  -14.1457  -16.5956 C   0  0  0  0  0  0  0  0  0  0  0  0
   22.0340  -12.9286  -16.4944 O   0  0  0  0  0  0  0  0  0  0  0  0
   17.4467  -12.4223  -17.1595 N   0  0  0  0  0  0  0  0  0  0  0  0
   17.9325  -13.7418  -17.3243 C   0  0  0  0  0  0  0  0  0  0  0  0
   17.0848  -14.6943  -17.3555 O   0  0  0  0  0  0  0  0  0  0  0  0
   19.3626  -14.0035  -17.4545 C   0  0  0  0  0  0  0  0  0  0  0  0
   19.8951  -14.7552  -16.2861 C   0  0  2  0  0  0  0  0  0  0  0  0
   21.3002  -15.0888  -16.3637 N   0  0  0  0  0  0  0  0  0  0  0  0
   19.0824  -15.9911  -16.0185 C   0  0  0  0  0  0  0  0  0  0  0  0
   18.1033  -15.9144  -15.0455 O   0  0  0  0  0  0  0  0  0  0  0  0
   19.2487  -17.0683  -16.6263 O   0  0  0  0  0  0  0  0  0  0  0  0
  1  2  1  0
  3  2  1  0
  4  3  1  0
  5  4  1  0
  5  6  1  6
  7  8  2  0
  7  5  1  0
 10  9  1  1
 10 12  1  0
 11 10  1  0
 13 12  1  1
 13 14  1  0
 14  7  1  0
 15 13  1  0
 15 22  1  0
 16 15  2  0
 17 18  1  0
 18 20  1  0
 18 19  2  0
 21 20  1  6
 21 22  1  0
 21 23  1  0
 23 25  2  0
 23 24  1  0
M  END
$$$$
