MLN.pdb
     RDKit          3D

 25 24  0  0  1  0  0  0  0  0999 V2000
   14.3250  -10.0425  -20.0409 C   0  0  0  0  0  0  0  0  0  0  0  0
   15.2700  -11.4507  -20.6238 S   0  0  0  0  0  0  0  0  0  0  0  0
   16.0758  -12.3635  -19.3143 C   0  0  0  0  0  0  0  0  0  0  0  0
   16.6312  -11.5602  -18.1946 C   0  0  0  0  0  0  0  0  0  0  0  0
   17.2642  -12.3463  -17.1017 C   0  0  2  0  0  0  0  0  0  0  0  0
   16.2822  -13.1207  -16.3700 N   0  0  0  0  0  0  0  0  0  0  0  0
   18.0253  -11.4426  -16.1912 C   0  0  0  0  0  0  0  0  0  0  0  0
   17.5134  -11.1131  -15.0971 O   0  0  0  0  0  0  0  0  0  0  0  0
   21.4527   -9.4048  -12.9628 C   0  0  0  0  0  0  0  0  0  0  0  0
   22.1427   -9.5136  -14.3418 C   0  0  1  0  0  0  0  0  0  0  0  0
   23.5181  -10.1156  -14.0207 C   0  0  0  0  0  0  0  0  0  0  0  0
   21.3452  -10.4793  -15.1382 C   0  0  0  0  0  0  0  0  0  0  0  0
   19.9996  -10.0127  -15.6143 C   0  0  2  0  0  0  0  0  0  0  0  0
   19.3103  -10.9242  -16.4889 N   0  0  0  0  0  0  0  0  0  0  0  0
   20.0616   -8.6722  -16.2628 C   0  0  0  0  0  0  0  0  0  0  0  0
   20.6408   -8.5263  -17.3703 O   0  0  0  0  0  0  0  0  0  0  0  0
   17.7459   -6.6557  -18.3598 N   0  0  0  0  0  0  0  0  0  0  0  0
   17.3149   -5.8020  -17.3159 C   0  0  0  0  0  0  0  0  0  0  0  0
   16.1275   -5.3394  -17.3698 O   0  0  0  0  0  0  0  0  0  0  0  0
   18.2049   -5.4615  -16.2101 C   0  0  0  0  0  0  0  0  0  0  0  0
   19.4936   -6.2009  -16.2907 C   0  0  2  0  0  0  0  0  0  0  0  0
   19.4842   -7.5121  -15.6805 N   0  0  0  0  0  0  0  0  0  0  0  0
   20.6265   -5.3805  -15.7403 C   0  0  0  0  0  0  0  0  0  0  0  0
   21.3522   -4.6128  -16.6319 O   0  0  0  0  0  0  0  0  0  0  0  0
   20.9374   -5.3609  -14.5317 O   0  0  0  0  0  0  0  0  0  0  0  0
  1  2  1  0
  3  2  1  0
  4  3  1  0
  5  4  1  0
  5  6  1  1
  7  8  2  0
  7  5  1  0
 10  9  1  1
 10 12  1  0
 11 10  1  0
 13 12  1  6
 13 14  1  0
 14  7  1  0
 15 13  1  0
 15 22  1  0
 16 15  2  0
 17 18  1  0
 18 20  1  0
 18 19  2  0
 21 20  1  1
 21 22  1  0
 21 23  1  0
 23 25  2  0
 23 24  1  0
M  END
$$$$
