YAY.pdb
     RDKit          3D

 30 31  0  0  1  0  0  0  0  0999 V2000
    7.7733  -12.1509   17.1402 O   0  0  0  0  0  0  0  0  0  0  0  0
    7.7887  -12.7750   18.3929 C   0  0  0  0  0  0  0  0  0  0  0  0
    8.9505  -12.9053   19.1228 C   0  0  0  0  0  0  0  0  0  0  0  0
    8.9680  -13.5196   20.3569 C   0  0  0  0  0  0  0  0  0  0  0  0
    7.8073  -14.0370   20.9211 C   0  0  0  0  0  0  0  0  0  0  0  0
    7.8109  -14.7023   22.2514 C   0  0  0  0  0  0  0  0  0  0  0  0
    8.4189  -16.0981   22.0624 C   0  0  2  0  0  0  0  0  0  0  0  0
    7.4935  -16.8471   21.2658 N   0  0  0  0  0  0  0  0  0  0  0  0
    8.6251  -16.7695   23.3634 C   0  0  0  0  0  0  0  0  0  0  0  0
    7.6328  -17.0308   24.1077 O   0  0  0  0  0  0  0  0  0  0  0  0
    6.6498  -13.9021   20.1841 C   0  0  0  0  0  0  0  0  0  0  0  0
    6.6346  -13.2872   18.9499 C   0  0  0  0  0  0  0  0  0  0  0  0
   11.2183  -18.7822   24.9863 C   0  0  0  0  0  0  0  0  0  0  0  0
   10.0946  -17.7686   25.1494 C   0  0  2  0  0  0  0  0  0  0  0  0
    9.9015  -17.1535   23.8501 N   0  0  0  0  0  0  0  0  0  0  0  0
   10.4783  -16.7680   26.1776 C   0  0  0  0  0  0  0  0  0  0  0  0
   11.3417  -15.9162   25.8439 O   0  0  0  0  0  0  0  0  0  0  0  0
    6.7125  -12.2592   24.5297 O   0  0  0  0  0  0  0  0  0  0  0  0
    7.2991  -12.9311   25.6113 C   0  0  0  0  0  0  0  0  0  0  0  0
    8.4224  -12.4179   26.2219 C   0  0  0  0  0  0  0  0  0  0  0  0
    8.9965  -13.0775   27.2820 C   0  0  0  0  0  0  0  0  0  0  0  0
    8.4883  -14.2772   27.7908 C   0  0  0  0  0  0  0  0  0  0  0  0
    9.1527  -14.9572   28.9219 C   0  0  0  0  0  0  0  0  0  0  0  0
   10.3384  -15.7410   28.4235 C   0  0  2  0  0  0  0  0  0  0  0  0
    9.9052  -16.7676   27.4693 N   0  0  0  0  0  0  0  0  0  0  0  0
   11.1383  -16.3799   29.4698 C   0  0  0  0  0  0  0  0  0  0  0  0
   11.8477  -15.6502   30.4086 O   0  0  0  0  0  0  0  0  0  0  0  0
    7.3639  -14.7651   27.1583 C   0  0  0  0  0  0  0  0  0  0  0  0
    6.7834  -14.1110   26.0970 C   0  0  0  0  0  0  0  0  0  0  0  0
   11.2122  -17.6401   29.5535 O   0  0  0  0  0  0  0  0  0  0  0  0
  2  3  2  0
  2  1  1  0
  4  3  1  0
  5  4  2  0
  6  7  1  0
  6  5  1  0
  7  8  1  6
  9  7  1  0
  9 10  2  0
 11  5  1  0
 11 12  2  0
 12  2  1  0
 14 13  1  6
 14 15  1  0
 15  9  1  0
 16 14  1  0
 17 16  2  0
 18 19  1  0
 19 29  2  0
 20 19  1  0
 20 21  2  0
 21 22  1  0
 22 28  2  0
 22 23  1  0
 24 23  1  1
 24 25  1  0
 24 26  1  0
 25 16  1  0
 26 27  1  0
 29 28  1  0
 30 26  2  0
M  END
$$$$
