YAY.pdb
     RDKit          3D

 30 31  0  0  1  0  0  0  0  0999 V2000
    8.2709  -24.2164   19.8067 O   0  0  0  0  0  0  0  0  0  0  0  0
    8.5010  -22.8767   20.1401 C   0  0  0  0  0  0  0  0  0  0  0  0
    9.7688  -22.4027   20.4003 C   0  0  0  0  0  0  0  0  0  0  0  0
    9.9978  -21.0836   20.7290 C   0  0  0  0  0  0  0  0  0  0  0  0
    8.9532  -20.1696   20.8124 C   0  0  0  0  0  0  0  0  0  0  0  0
    9.1851  -18.7436   21.1659 C   0  0  0  0  0  0  0  0  0  0  0  0
    8.8108  -17.9021   19.9389 C   0  0  2  0  0  0  0  0  0  0  0  0
    9.7432  -18.2413   18.9056 N   0  0  0  0  0  0  0  0  0  0  0  0
    8.8927  -16.4569   20.2394 C   0  0  0  0  0  0  0  0  0  0  0  0
   10.0232  -15.8944   20.3513 O   0  0  0  0  0  0  0  0  0  0  0  0
    7.6885  -20.6524   20.5506 C   0  0  0  0  0  0  0  0  0  0  0  0
    7.4618  -21.9724   20.2220 C   0  0  0  0  0  0  0  0  0  0  0  0
    6.4216  -13.7020   20.8483 C   0  0  0  0  0  0  0  0  0  0  0  0
    7.8454  -14.2394   20.8167 C   0  0  2  0  0  0  0  0  0  0  0  0
    7.7529  -15.6305   20.4166 N   0  0  0  0  0  0  0  0  0  0  0  0
    8.4566  -14.0959   22.1626 C   0  0  0  0  0  0  0  0  0  0  0  0
    8.5440  -12.9284   22.6228 O   0  0  0  0  0  0  0  0  0  0  0  0
   10.8835  -14.7688   30.4214 O   0  0  0  0  0  0  0  0  0  0  0  0
   10.2814  -14.7747   29.1554 C   0  0  0  0  0  0  0  0  0  0  0  0
   10.0136  -15.9667   28.5185 C   0  0  0  0  0  0  0  0  0  0  0  0
    9.4234  -15.9711   27.2775 C   0  0  0  0  0  0  0  0  0  0  0  0
    9.0687  -14.7971   26.6048 C   0  0  0  0  0  0  0  0  0  0  0  0
    8.4520  -14.8546   25.2633 C   0  0  0  0  0  0  0  0  0  0  0  0
    9.5232  -14.9798   24.2119 C   0  0  2  0  0  0  0  0  0  0  0  0
    8.9192  -15.2121   22.8953 N   0  0  0  0  0  0  0  0  0  0  0  0
   10.5152  -16.0261   24.4648 C   0  0  0  0  0  0  0  0  0  0  0  0
   11.6930  -15.7794   25.1494 O   0  0  0  0  0  0  0  0  0  0  0  0
    9.3497  -13.6210   27.2681 C   0  0  0  0  0  0  0  0  0  0  0  0
    9.9401  -13.6080   28.5101 C   0  0  0  0  0  0  0  0  0  0  0  0
   10.3294  -17.2099   24.0592 O   0  0  0  0  0  0  0  0  0  0  0  0
  2  3  2  0
  2  1  1  0
  4  3  1  0
  5  4  2  0
  6  7  1  0
  6  5  1  0
  7  8  1  6
  9  7  1  0
  9 10  2  0
 11  5  1  0
 11 12  2  0
 12  2  1  0
 14 13  1  1
 14 15  1  0
 15  9  1  0
 16 14  1  0
 17 16  2  0
 18 19  1  0
 19 29  2  0
 20 19  1  0
 20 21  2  0
 21 22  1  0
 22 28  2  0
 22 23  1  0
 24 23  1  1
 24 25  1  0
 24 26  1  0
 25 16  1  0
 26 27  1  0
 29 28  1  0
 30 26  2  0
M  END
$$$$
