YAY.pdb
     RDKit          3D

 30 31  0  0  1  0  0  0  0  0999 V2000
    8.1946  -13.0160   15.4361 O   0  0  0  0  0  0  0  0  0  0  0  0
    7.8225  -13.6569   16.6234 C   0  0  0  0  0  0  0  0  0  0  0  0
    7.7435  -12.9767   17.8194 C   0  0  0  0  0  0  0  0  0  0  0  0
    7.3772  -13.6060   18.9901 C   0  0  0  0  0  0  0  0  0  0  0  0
    7.0701  -14.9619   19.0141 C   0  0  0  0  0  0  0  0  0  0  0  0
    6.6734  -15.6542   20.2694 C   0  0  0  0  0  0  0  0  0  0  0  0
    7.7284  -15.3157   21.3307 C   0  0  2  0  0  0  0  0  0  0  0  0
    8.9927  -15.7364   20.8049 N   0  0  0  0  0  0  0  0  0  0  0  0
    7.4500  -16.0187   22.6011 C   0  0  0  0  0  0  0  0  0  0  0  0
    6.2937  -15.9634   23.1177 O   0  0  0  0  0  0  0  0  0  0  0  0
    7.1518  -15.6344   17.8132 C   0  0  0  0  0  0  0  0  0  0  0  0
    7.5184  -15.0028   16.6434 C   0  0  0  0  0  0  0  0  0  0  0  0
    9.4416  -18.1042   24.9995 C   0  0  0  0  0  0  0  0  0  0  0  0
    8.1680  -17.3720   24.6012 C   0  0  2  0  0  0  0  0  0  0  0  0
    8.4228  -16.7760   23.3037 N   0  0  0  0  0  0  0  0  0  0  0  0
    7.8503  -16.3431   25.6239 C   0  0  0  0  0  0  0  0  0  0  0  0
    7.4726  -16.7610   26.7487 O   0  0  0  0  0  0  0  0  0  0  0  0
   11.5694  -16.3428   30.8623 O   0  0  0  0  0  0  0  0  0  0  0  0
   10.8929  -15.5860   29.8954 C   0  0  0  0  0  0  0  0  0  0  0  0
   11.0965  -15.8292   28.5547 C   0  0  0  0  0  0  0  0  0  0  0  0
   10.4328  -15.0867   27.6078 C   0  0  0  0  0  0  0  0  0  0  0  0
    9.5348  -14.0668   27.9398 C   0  0  0  0  0  0  0  0  0  0  0  0
    8.8592  -13.2848   26.8838 C   0  0  0  0  0  0  0  0  0  0  0  0
    7.6248  -14.0115   26.4184 C   0  0  2  0  0  0  0  0  0  0  0  0
    7.9646  -14.9610   25.3530 N   0  0  0  0  0  0  0  0  0  0  0  0
    6.5411  -13.1467   25.9488 C   0  0  0  0  0  0  0  0  0  0  0  0
    5.9261  -12.2180   26.7711 O   0  0  0  0  0  0  0  0  0  0  0  0
    9.3528  -13.8477   29.2894 C   0  0  0  0  0  0  0  0  0  0  0  0
   10.0131  -14.5864   30.2430 C   0  0  0  0  0  0  0  0  0  0  0  0
    6.1209  -13.2195   24.7577 O   0  0  0  0  0  0  0  0  0  0  0  0
  2  3  2  0
  2  1  1  0
  4  3  1  0
  5  4  2  0
  6  7  1  0
  6  5  1  0
  7  8  1  6
  9  7  1  0
  9 10  2  0
 11  5  1  0
 11 12  2  0
 12  2  1  0
 14 13  1  1
 14 15  1  0
 15  9  1  0
 16 14  1  0
 17 16  2  0
 18 19  1  0
 19 29  2  0
 20 19  1  0
 20 21  2  0
 21 22  1  0
 22 28  2  0
 22 23  1  0
 24 23  1  6
 24 25  1  0
 24 26  1  0
 25 16  1  0
 26 27  1  0
 29 28  1  0
 30 26  2  0
M  END
$$$$
