YAY.pdb
     RDKit          3D

 30 31  0  0  1  0  0  0  0  0999 V2000
    4.5833  -20.0615   12.3996 O   0  0  0  0  0  0  0  0  0  0  0  0
    5.2475  -19.4883   13.4901 C   0  0  0  0  0  0  0  0  0  0  0  0
    4.8759  -18.2638   14.0022 C   0  0  0  0  0  0  0  0  0  0  0  0
    5.5286  -17.6973   15.0763 C   0  0  0  0  0  0  0  0  0  0  0  0
    6.5961  -18.3409   15.6923 C   0  0  0  0  0  0  0  0  0  0  0  0
    7.3098  -17.7420   16.8517 C   0  0  0  0  0  0  0  0  0  0  0  0
    7.9522  -16.4357   16.3675 C   0  0  2  0  0  0  0  0  0  0  0  0
    8.9688  -16.7997   15.4261 N   0  0  0  0  0  0  0  0  0  0  0  0
    8.5504  -15.6873   17.4934 C   0  0  0  0  0  0  0  0  0  0  0  0
    9.6509  -16.0668   17.9952 O   0  0  0  0  0  0  0  0  0  0  0  0
    6.9611  -19.5652   15.1735 C   0  0  0  0  0  0  0  0  0  0  0  0
    6.3066  -20.1300   14.0990 C   0  0  0  0  0  0  0  0  0  0  0  0
    7.5466  -12.7306   19.5707 C   0  0  0  0  0  0  0  0  0  0  0  0
    8.5039  -13.8646   19.2321 C   0  0  2  0  0  0  0  0  0  0  0  0
    7.9553  -14.5347   18.0686 N   0  0  0  0  0  0  0  0  0  0  0  0
    8.6107  -14.7834   20.3940 C   0  0  0  0  0  0  0  0  0  0  0  0
    7.5668  -15.4035   20.7228 O   0  0  0  0  0  0  0  0  0  0  0  0
   12.6369  -21.4513   24.0205 O   0  0  0  0  0  0  0  0  0  0  0  0
   11.8779  -20.4311   23.4301 C   0  0  0  0  0  0  0  0  0  0  0  0
   11.1549  -20.6773   22.2835 C   0  0  0  0  0  0  0  0  0  0  0  0
   10.4112  -19.6765   21.7058 C   0  0  0  0  0  0  0  0  0  0  0  0
   10.3457  -18.3826   22.2333 C   0  0  0  0  0  0  0  0  0  0  0  0
    9.5453  -17.3362   21.5644 C   0  0  0  0  0  0  0  0  0  0  0  0
    9.8802  -15.9865   22.1431 C   0  0  2  0  0  0  0  0  0  0  0  0
    9.8226  -14.9569   21.0996 N   0  0  0  0  0  0  0  0  0  0  0  0
   11.1812  -15.9077   22.8093 C   0  0  0  0  0  0  0  0  0  0  0  0
   12.3558  -15.6744   22.1145 O   0  0  0  0  0  0  0  0  0  0  0  0
   11.0802  -18.1679   23.3808 C   0  0  0  0  0  0  0  0  0  0  0  0
   11.8268  -19.1641   23.9650 C   0  0  0  0  0  0  0  0  0  0  0  0
   11.2800  -16.0538   24.0621 O   0  0  0  0  0  0  0  0  0  0  0  0
  2  3  2  0
  2  1  1  0
  4  3  1  0
  5  4  2  0
  6  7  1  0
  6  5  1  0
  7  8  1  6
  9  7  1  0
  9 10  2  0
 11  5  1  0
 11 12  2  0
 12  2  1  0
 14 13  1  1
 14 15  1  0
 15  9  1  0
 16 14  1  0
 17 16  2  0
 18 19  1  0
 19 29  2  0
 20 19  1  0
 20 21  2  0
 21 22  1  0
 22 28  2  0
 22 23  1  0
 24 23  1  6
 24 25  1  0
 24 26  1  0
 25 16  1  0
 26 27  1  0
 29 28  1  0
 30 26  2  0
M  END
$$$$
