YAY.pdb
     RDKit          3D

 30 31  0  0  1  0  0  0  0  0999 V2000
    8.8486  -24.4700   19.7346 O   0  0  0  0  0  0  0  0  0  0  0  0
    9.0849  -23.1510   20.1386 C   0  0  0  0  0  0  0  0  0  0  0  0
   10.3610  -22.6780   20.3564 C   0  0  0  0  0  0  0  0  0  0  0  0
   10.5962  -21.3791   20.7543 C   0  0  0  0  0  0  0  0  0  0  0  0
    9.5497  -20.4857   20.9541 C   0  0  0  0  0  0  0  0  0  0  0  0
    9.7881  -19.0817   21.3833 C   0  0  0  0  0  0  0  0  0  0  0  0
    9.4234  -18.1744   20.2012 C   0  0  2  0  0  0  0  0  0  0  0  0
   10.3921  -18.4231   19.1756 N   0  0  0  0  0  0  0  0  0  0  0  0
    9.4572  -16.7494   20.5936 C   0  0  0  0  0  0  0  0  0  0  0  0
   10.5678  -16.1518   20.7210 O   0  0  0  0  0  0  0  0  0  0  0  0
    8.2766  -20.9674   20.7339 C   0  0  0  0  0  0  0  0  0  0  0  0
    8.0437  -22.2670   20.3359 C   0  0  0  0  0  0  0  0  0  0  0  0
    6.9410  -14.0469   21.1830 C   0  0  0  0  0  0  0  0  0  0  0  0
    8.3390  -14.6239   21.3546 C   0  0  2  0  0  0  0  0  0  0  0  0
    8.2911  -15.9811   20.8452 N   0  0  0  0  0  0  0  0  0  0  0  0
    8.7132  -14.5908   22.7914 C   0  0  0  0  0  0  0  0  0  0  0  0
    8.8073  -13.4559   23.3257 O   0  0  0  0  0  0  0  0  0  0  0  0
    6.2101  -10.5065   27.3081 O   0  0  0  0  0  0  0  0  0  0  0  0
    6.6457  -11.7816   26.9215 C   0  0  0  0  0  0  0  0  0  0  0  0
    5.7417  -12.7175   26.4688 C   0  0  0  0  0  0  0  0  0  0  0  0
    6.1701  -13.9671   26.0900 C   0  0  0  0  0  0  0  0  0  0  0  0
    7.5136  -14.3531   26.1401 C   0  0  0  0  0  0  0  0  0  0  0  0
    7.9214  -15.7153   25.7382 C   0  0  0  0  0  0  0  0  0  0  0  0
    9.2137  -15.6566   24.9668 C   0  0  2  0  0  0  0  0  0  0  0  0
    8.9530  -15.7728   23.5278 N   0  0  0  0  0  0  0  0  0  0  0  0
   10.2046  -16.6644   25.3475 C   0  0  0  0  0  0  0  0  0  0  0  0
   10.7502  -17.5487   24.4324 O   0  0  0  0  0  0  0  0  0  0  0  0
    8.3935  -13.3945   26.5976 C   0  0  0  0  0  0  0  0  0  0  0  0
    7.9728  -12.1419   26.9784 C   0  0  0  0  0  0  0  0  0  0  0  0
   10.6023  -16.7657   26.5442 O   0  0  0  0  0  0  0  0  0  0  0  0
  2  3  2  0
  2  1  1  0
  4  3  1  0
  5  4  2  0
  6  7  1  0
  6  5  1  0
  7  8  1  6
  9  7  1  0
  9 10  2  0
 11  5  1  0
 11 12  2  0
 12  2  1  0
 14 13  1  1
 14 15  1  0
 15  9  1  0
 16 14  1  0
 17 16  2  0
 18 19  1  0
 19 29  2  0
 20 19  1  0
 20 21  2  0
 21 22  1  0
 22 28  2  0
 22 23  1  0
 24 23  1  1
 24 25  1  0
 24 26  1  0
 25 16  1  0
 26 27  1  0
 29 28  1  0
 30 26  2  0
M  END
$$$$
