YAY.pdb
     RDKit          3D

 30 31  0  0  1  0  0  0  0  0999 V2000
    9.1495  -12.1252   19.5742 O   0  0  0  0  0  0  0  0  0  0  0  0
    8.4079  -13.1869   20.1052 C   0  0  0  0  0  0  0  0  0  0  0  0
    7.7444  -13.0764   21.3082 C   0  0  0  0  0  0  0  0  0  0  0  0
    7.0134  -14.1208   21.8331 C   0  0  0  0  0  0  0  0  0  0  0  0
    6.9137  -15.3373   21.1672 C   0  0  0  0  0  0  0  0  0  0  0  0
    6.1287  -16.4727   21.7212 C   0  0  0  0  0  0  0  0  0  0  0  0
    6.6406  -16.7305   23.1443 C   0  0  2  0  0  0  0  0  0  0  0  0
    6.7568  -15.4517   23.7793 N   0  0  0  0  0  0  0  0  0  0  0  0
    7.9556  -17.4057   23.1229 C   0  0  0  0  0  0  0  0  0  0  0  0
    8.2866  -18.1205   22.1297 O   0  0  0  0  0  0  0  0  0  0  0  0
    7.5805  -15.4389   19.9646 C   0  0  0  0  0  0  0  0  0  0  0  0
    8.3112  -14.3929   19.4415 C   0  0  0  0  0  0  0  0  0  0  0  0
   10.2312  -15.8238   22.8616 C   0  0  0  0  0  0  0  0  0  0  0  0
   10.2724  -16.8771   23.9597 C   0  0  2  0  0  0  0  0  0  0  0  0
    8.9029  -17.3037   24.1744 N   0  0  0  0  0  0  0  0  0  0  0  0
   10.8611  -16.2858   25.1882 C   0  0  0  0  0  0  0  0  0  0  0  0
   12.1061  -16.1056   25.1890 O   0  0  0  0  0  0  0  0  0  0  0  0
    5.6212  -12.8998   24.7869 O   0  0  0  0  0  0  0  0  0  0  0  0
    6.7243  -13.2200   25.5906 C   0  0  0  0  0  0  0  0  0  0  0  0
    7.9996  -12.8964   25.1818 C   0  0  0  0  0  0  0  0  0  0  0  0
    9.0801  -13.2108   25.9705 C   0  0  0  0  0  0  0  0  0  0  0  0
    8.9531  -13.8607   27.2026 C   0  0  0  0  0  0  0  0  0  0  0  0
   10.1481  -14.1928   28.0057 C   0  0  0  0  0  0  0  0  0  0  0  0
   10.7419  -15.4918   27.5279 C   0  0  2  0  0  0  0  0  0  0  0  0
   10.0671  -15.9405   26.3050 N   0  0  0  0  0  0  0  0  0  0  0  0
   10.7121  -16.5797   28.5068 C   0  0  0  0  0  0  0  0  0  0  0  0
   10.1016  -17.7945   28.2451 O   0  0  0  0  0  0  0  0  0  0  0  0
    7.6644  -14.1713   27.5836 C   0  0  0  0  0  0  0  0  0  0  0  0
    6.5780  -13.8601   26.8001 C   0  0  0  0  0  0  0  0  0  0  0  0
   11.2497  -16.4458   29.6442 O   0  0  0  0  0  0  0  0  0  0  0  0
  2  3  2  0
  2  1  1  0
  4  3  1  0
  5  4  2  0
  6  7  1  0
  6  5  1  0
  7  8  1  6
  9  7  1  0
  9 10  2  0
 11  5  1  0
 11 12  2  0
 12  2  1  0
 14 13  1  6
 14 15  1  0
 15  9  1  0
 16 14  1  0
 17 16  2  0
 18 19  1  0
 19 29  2  0
 20 19  1  0
 20 21  2  0
 21 22  1  0
 22 28  2  0
 22 23  1  0
 24 23  1  1
 24 25  1  0
 24 26  1  0
 25 16  1  0
 26 27  1  0
 29 28  1  0
 30 26  2  0
M  END
$$$$
