LKS.pdb
     RDKit          3D

 24 23  0  0  1  0  0  0  0  0999 V2000
   25.2815  -14.3526  -15.1035 C   0  0  0  0  0  0  0  0  0  0  0  0
   23.7650  -14.4476  -15.0187 C   0  0  2  0  0  0  0  0  0  0  0  0
   23.2639  -15.5860  -15.9102 C   0  0  0  0  0  0  0  0  0  0  0  0
   23.2012  -13.1785  -15.5655 C   0  0  0  0  0  0  0  0  0  0  0  0
   22.2970  -13.3821  -16.7451 C   0  0  2  0  0  0  0  0  0  0  0  0
   22.9606  -13.8747  -17.9090 N   0  0  0  0  0  0  0  0  0  0  0  0
   21.5691  -12.1048  -16.9980 C   0  0  0  0  0  0  0  0  0  0  0  0
   22.1626  -11.1361  -17.5360 O   0  0  0  0  0  0  0  0  0  0  0  0
   20.2019  -11.9502  -16.6419 N   0  0  0  0  0  0  0  0  0  0  0  0
   19.4363  -10.7498  -16.9625 C   0  0  1  0  0  0  0  0  0  0  0  0
   17.9921  -11.0597  -17.1435 C   0  0  0  0  0  0  0  0  0  0  0  0
   17.7088  -11.8504  -18.3806 C   0  0  0  0  0  0  0  0  0  0  0  0
   16.2212  -12.0859  -18.5239 C   0  0  0  0  0  0  0  0  0  0  0  0
   15.9899  -12.9056  -19.8016 C   0  0  0  0  0  0  0  0  0  0  0  0
   14.6006  -12.9973  -20.1267 N   0  0  0  0  0  0  0  0  0  0  0  0
   19.7359   -9.7615  -15.9053 C   0  0  0  0  0  0  0  0  0  0  0  0
   19.7673  -10.1489  -14.7137 O   0  0  0  0  0  0  0  0  0  0  0  0
   22.6502   -7.7840  -15.0542 O   0  0  0  0  0  0  0  0  0  0  0  0
   21.6685   -6.8477  -15.3183 C   0  0  0  0  0  0  0  0  0  0  0  0
   20.3012   -7.4875  -15.0923 C   0  0  2  0  0  0  0  0  0  0  0  0
   19.9883   -8.3983  -16.1823 N   0  0  0  0  0  0  0  0  0  0  0  0
   19.2973   -6.4270  -14.9906 C   0  0  0  0  0  0  0  0  0  0  0  0
   19.2944   -5.5517  -14.0874 O   0  0  0  0  0  0  0  0  0  0  0  0
   18.2793   -6.3609  -15.9322 O   0  0  0  0  0  0  0  0  0  0  0  0
  2  1  1  6
  2  3  1  0
  4  2  1  0
  4  5  1  0
  5  7  1  0
  5  6  1  6
  7  8  2  0
  9 10  1  0
  9  7  1  0
 11 12  1  0
 10 11  1  1
 13 14  1  0
 13 12  1  0
 15 14  1  0
 16 17  2  0
 16 10  1  0
 18 19  1  0
 20 19  1  6
 20 22  1  0
 20 21  1  0
 21 16  1  0
 22 24  1  0
 23 22  2  0
M  END
$$$$
