LKS.pdb
     RDKit          3D

 24 23  0  0  1  0  0  0  0  0999 V2000
   22.2053  -14.4342  -20.2676 C   0  0  0  0  0  0  0  0  0  0  0  0
   23.1793  -15.3615  -20.9801 C   0  0  2  0  0  0  0  0  0  0  0  0
   22.8885  -15.3674  -22.4824 C   0  0  0  0  0  0  0  0  0  0  0  0
   22.9350  -16.7457  -20.4782 C   0  0  0  0  0  0  0  0  0  0  0  0
   23.2224  -16.9136  -19.0154 C   0  0  2  0  0  0  0  0  0  0  0  0
   24.5293  -16.4911  -18.6268 N   0  0  0  0  0  0  0  0  0  0  0  0
   22.9460  -18.3327  -18.6479 C   0  0  0  0  0  0  0  0  0  0  0  0
   22.2776  -19.0658  -19.4198 O   0  0  0  0  0  0  0  0  0  0  0  0
   23.4249  -18.8875  -17.4303 N   0  0  0  0  0  0  0  0  0  0  0  0
   23.1854  -20.2762  -17.0506 C   0  0  1  0  0  0  0  0  0  0  0  0
   24.2910  -20.8065  -16.2073 C   0  0  0  0  0  0  0  0  0  0  0  0
   24.0601  -22.2099  -15.7458 C   0  0  0  0  0  0  0  0  0  0  0  0
   24.7823  -23.1852  -16.6492 C   0  0  0  0  0  0  0  0  0  0  0  0
   24.4099  -24.6081  -16.2082 C   0  0  0  0  0  0  0  0  0  0  0  0
   25.5398  -25.4836  -16.2380 N   0  0  0  0  0  0  0  0  0  0  0  0
   21.8468  -20.3197  -16.4260 C   0  0  0  0  0  0  0  0  0  0  0  0
   21.5702  -19.4764  -15.5409 O   0  0  0  0  0  0  0  0  0  0  0  0
   18.2099  -20.4587  -17.9172 O   0  0  0  0  0  0  0  0  0  0  0  0
   18.4685  -21.5785  -17.1496 C   0  0  0  0  0  0  0  0  0  0  0  0
   19.5629  -21.2437  -16.1396 C   0  0  2  0  0  0  0  0  0  0  0  0
   20.8660  -21.2724  -16.7852 N   0  0  0  0  0  0  0  0  0  0  0  0
   19.5004  -22.2098  -15.0415 C   0  0  0  0  0  0  0  0  0  0  0  0
   20.0942  -23.3186  -15.0516 O   0  0  0  0  0  0  0  0  0  0  0  0
   18.7499  -21.9097  -13.9129 O   0  0  0  0  0  0  0  0  0  0  0  0
  2  1  1  1
  2  3  1  0
  4  2  1  0
  4  5  1  0
  5  7  1  0
  5  6  1  6
  7  8  2  0
  9 10  1  0
  9  7  1  0
 11 12  1  0
 10 11  1  1
 13 14  1  0
 13 12  1  0
 15 14  1  0
 16 17  2  0
 16 10  1  0
 18 19  1  0
 20 19  1  6
 20 22  1  0
 20 21  1  0
 21 16  1  0
 22 24  1  0
 23 22  2  0
M  END
$$$$
