LKS.pdb
     RDKit          3D

 24 23  0  0  1  0  0  0  0  0999 V2000
   15.5920  -10.6250  -16.8887 C   0  0  0  0  0  0  0  0  0  0  0  0
   16.0248  -11.4707  -15.6997 C   0  0  2  0  0  0  0  0  0  0  0  0
   15.0564  -11.2633  -14.5331 C   0  0  0  0  0  0  0  0  0  0  0  0
   17.3615  -10.9767  -15.2563 C   0  0  0  0  0  0  0  0  0  0  0  0
   18.4321  -11.1256  -16.2966 C   0  0  2  0  0  0  0  0  0  0  0  0
   18.6429  -12.4704  -16.7265 N   0  0  0  0  0  0  0  0  0  0  0  0
   19.6767  -10.4886  -15.7764 C   0  0  0  0  0  0  0  0  0  0  0  0
   19.7396  -10.1115  -14.5789 O   0  0  0  0  0  0  0  0  0  0  0  0
   20.8110  -10.2932  -16.6100 N   0  0  0  0  0  0  0  0  0  0  0  0
   22.0373   -9.6606  -16.1345 C   0  0  1  0  0  0  0  0  0  0  0  0
   23.2273  -10.1577  -16.8770 C   0  0  0  0  0  0  0  0  0  0  0  0
   24.5213   -9.6515  -16.3245 C   0  0  0  0  0  0  0  0  0  0  0  0
   25.6861  -10.2628  -17.0717 C   0  0  0  0  0  0  0  0  0  0  0  0
   26.9842   -9.7336  -16.4450 C   0  0  0  0  0  0  0  0  0  0  0  0
   27.3508  -10.4777  -15.2804 N   0  0  0  0  0  0  0  0  0  0  0  0
   21.8178   -8.2011  -16.2104 C   0  0  0  0  0  0  0  0  0  0  0  0
   21.2997   -7.7257  -17.2480 O   0  0  0  0  0  0  0  0  0  0  0  0
   19.7208   -4.6456  -14.8660 O   0  0  0  0  0  0  0  0  0  0  0  0
   20.1492   -5.9455  -15.0576 C   0  0  0  0  0  0  0  0  0  0  0  0
   21.6711   -5.9527  -15.1737 C   0  0  2  0  0  0  0  0  0  0  0  0
   22.1678   -7.3197  -15.1619 N   0  0  0  0  0  0  0  0  0  0  0  0
   22.2309   -5.1819  -14.0621 C   0  0  0  0  0  0  0  0  0  0  0  0
   22.8476   -5.6975  -13.0949 O   0  0  0  0  0  0  0  0  0  0  0  0
   22.0867   -3.8012  -14.0506 O   0  0  0  0  0  0  0  0  0  0  0  0
  2  1  1  6
  2  3  1  0
  4  2  1  0
  4  5  1  0
  5  7  1  0
  5  6  1  1
  7  8  2  0
  9 10  1  0
  9  7  1  0
 11 12  1  0
 10 11  1  6
 13 14  1  0
 13 12  1  0
 15 14  1  0
 16 17  2  0
 16 10  1  0
 18 19  1  0
 20 19  1  1
 20 22  1  0
 20 21  1  0
 21 16  1  0
 22 24  1  0
 23 22  2  0
M  END
$$$$
