LKS.pdb
     RDKit          3D

 24 23  0  0  1  0  0  0  0  0999 V2000
   18.1198  -25.9153  -10.9378 C   0  0  0  0  0  0  0  0  0  0  0  0
   18.5028  -26.7872  -12.1250 C   0  0  2  0  0  0  0  0  0  0  0  0
   17.2648  -27.0835  -12.9744 C   0  0  0  0  0  0  0  0  0  0  0  0
   18.9921  -28.0912  -11.5889 C   0  0  0  0  0  0  0  0  0  0  0  0
   20.1840  -27.9607  -10.6873 C   0  0  2  0  0  0  0  0  0  0  0  0
   21.3118  -27.3362  -11.3002 N   0  0  0  0  0  0  0  0  0  0  0  0
   20.5035  -29.3117  -10.1415 C   0  0  0  0  0  0  0  0  0  0  0  0
   19.5809  -30.0625   -9.7351 O   0  0  0  0  0  0  0  0  0  0  0  0
   21.8429  -29.7810  -10.0671 N   0  0  0  0  0  0  0  0  0  0  0  0
   22.1770  -31.1499   -9.6872 C   0  0  1  0  0  0  0  0  0  0  0  0
   23.5415  -31.5234  -10.1489 C   0  0  0  0  0  0  0  0  0  0  0  0
   23.9021  -32.9410   -9.8384 C   0  0  0  0  0  0  0  0  0  0  0  0
   25.2389  -33.2898  -10.4548 C   0  0  0  0  0  0  0  0  0  0  0  0
   25.4890  -34.7885  -10.2330 C   0  0  0  0  0  0  0  0  0  0  0  0
   26.7089  -35.2170  -10.8434 N   0  0  0  0  0  0  0  0  0  0  0  0
   21.9617  -31.2491   -8.2285 C   0  0  0  0  0  0  0  0  0  0  0  0
   22.3815  -30.3228   -7.4959 O   0  0  0  0  0  0  0  0  0  0  0  0
   19.4575  -32.6573   -4.5048 O   0  0  0  0  0  0  0  0  0  0  0  0
   19.6772  -32.8111   -5.8605 C   0  0  0  0  0  0  0  0  0  0  0  0
   21.0987  -32.3598   -6.1855 C   0  0  2  0  0  0  0  0  0  0  0  0
   21.3024  -32.3449   -7.6257 N   0  0  0  0  0  0  0  0  0  0  0  0
   22.0415  -33.2692   -5.5321 C   0  0  0  0  0  0  0  0  0  0  0  0
   22.1216  -33.4153   -4.2854 O   0  0  0  0  0  0  0  0  0  0  0  0
   22.9079  -34.0254   -6.3098 O   0  0  0  0  0  0  0  0  0  0  0  0
  2  1  1  1
  2  3  1  0
  4  2  1  0
  4  5  1  0
  5  7  1  0
  5  6  1  6
  7  8  2  0
  9 10  1  0
  9  7  1  0
 11 12  1  0
 10 11  1  1
 13 14  1  0
 13 12  1  0
 15 14  1  0
 16 17  2  0
 16 10  1  0
 18 19  1  0
 20 19  1  6
 20 22  1  0
 20 21  1  0
 21 16  1  0
 22 24  1  0
 23 22  2  0
M  END
$$$$
