WYA.pdb
     RDKit          3D

 32 34  0  0  1  0  0  0  0  0999 V2000
   17.9259  -28.5678  -11.1108 N   0  0  0  0  0  0  0  0  0  0  0  0
   19.3503  -28.7451  -10.9436 C   0  0  1  0  0  0  0  0  0  0  0  0
   19.9817  -27.6176  -10.1600 C   0  0  0  0  0  0  0  0  0  0  0  0
   19.7609  -26.3039  -10.7800 C   0  0  0  0  0  0  0  0  0  0  0  0
   18.9937  -25.2652  -10.2755 C   0  0  0  0  0  0  0  0  0  0  0  0
   19.0419  -24.2298  -11.1304 N   0  0  0  0  0  0  0  0  0  0  0  0
   19.8109  -24.5185  -12.1988 C   0  0  0  0  0  0  0  0  0  0  0  0
   20.1815  -23.8302  -13.3321 C   0  0  0  0  0  0  0  0  0  0  0  0
   21.0037  -24.4210  -14.2634 C   0  0  0  0  0  0  0  0  0  0  0  0
   21.4692  -25.7260  -14.0652 C   0  0  0  0  0  0  0  0  0  0  0  0
   21.0793  -26.3979  -12.9118 C   0  0  0  0  0  0  0  0  0  0  0  0
   20.2610  -25.8258  -11.9730 C   0  0  0  0  0  0  0  0  0  0  0  0
   19.6843  -30.0560  -10.3480 C   0  0  0  0  0  0  0  0  0  0  0  0
   19.0779  -30.5236   -9.3456 O   0  0  0  0  0  0  0  0  0  0  0  0
   21.5994  -38.3240   -8.7408 O   0  0  0  0  0  0  0  0  0  0  0  0
   21.4303  -37.1033   -9.3443 C   0  0  0  0  0  0  0  0  0  0  0  0
   22.4029  -36.5186  -10.1528 C   0  0  0  0  0  0  0  0  0  0  0  0
   22.1953  -35.3024  -10.7347 C   0  0  0  0  0  0  0  0  0  0  0  0
   21.0373  -34.6109  -10.5528 C   0  0  0  0  0  0  0  0  0  0  0  0
   20.7265  -33.3056  -11.1337 C   0  0  0  0  0  0  0  0  0  0  0  0
   21.1144  -32.1231  -10.3134 C   0  0  2  0  0  0  0  0  0  0  0  0
   20.7191  -30.8656  -10.8816 N   0  0  0  0  0  0  0  0  0  0  0  0
   22.5848  -32.1379   -9.9803 C   0  0  0  0  0  0  0  0  0  0  0  0
   23.4413  -31.6140  -10.7321 O   0  0  0  0  0  0  0  0  0  0  0  0
   20.0644  -35.1838   -9.7509 C   0  0  0  0  0  0  0  0  0  0  0  0
   20.2483  -36.4026   -9.1558 C   0  0  0  0  0  0  0  0  0  0  0  0
   24.9391  -31.2823   -8.1698 C   0  0  0  0  0  0  0  0  0  0  0  0
   24.4400  -32.6962   -8.3404 C   0  0  2  0  0  0  0  0  0  0  0  0
   23.0705  -32.7495   -8.7928 N   0  0  0  0  0  0  0  0  0  0  0  0
   24.6872  -33.5152   -7.1510 C   0  0  0  0  0  0  0  0  0  0  0  0
   25.9689  -33.7896   -6.6693 O   0  0  0  0  0  0  0  0  0  0  0  0
   23.7281  -34.0109   -6.5078 O   0  0  0  0  0  0  0  0  0  0  0  0
  2  1  1  1
  3  4  1  0
  3  2  1  0
  4  5  2  0
  6  5  1  0
  7  6  1  0
  8  7  2  0
  9  8  1  0
 10  9  2  0
 10 11  1  0
 11 12  2  0
 12  7  1  0
 12  4  1  0
 13  2  1  0
 13 14  2  0
 15 16  1  0
 16 17  2  0
 17 18  1  0
 19 20  1  0
 19 18  2  0
 21 20  1  6
 21 22  1  0
 22 13  1  0
 23 21  1  0
 24 23  2  0
 25 19  1  0
 26 25  2  0
 26 16  1  0
 28 27  1  1
 28 29  1  0
 28 30  1  0
 29 23  1  0
 30 31  1  0
 32 30  2  0
M  END
$$$$
