WYA.pdb
     RDKit          3D

 32 34  0  0  1  0  0  0  0  0999 V2000
   27.8131  -20.9775  -18.4784 N   0  0  0  0  0  0  0  0  0  0  0  0
   27.2968  -20.0111  -17.5361 C   0  0  1  0  0  0  0  0  0  0  0  0
   26.2786  -19.0860  -18.1615 C   0  0  0  0  0  0  0  0  0  0  0  0
   26.8590  -18.2241  -19.2004 C   0  0  0  0  0  0  0  0  0  0  0  0
   26.6642  -18.3259  -20.5692 C   0  0  0  0  0  0  0  0  0  0  0  0
   27.3607  -17.3554  -21.1841 N   0  0  0  0  0  0  0  0  0  0  0  0
   28.0239  -16.5943  -20.2912 C   0  0  0  0  0  0  0  0  0  0  0  0
   28.8576  -15.5029  -20.3880 C   0  0  0  0  0  0  0  0  0  0  0  0
   29.3912  -14.9364  -19.2537 C   0  0  0  0  0  0  0  0  0  0  0  0
   29.0902  -15.4655  -17.9934 C   0  0  0  0  0  0  0  0  0  0  0  0
   28.2455  -16.5681  -17.9249 C   0  0  0  0  0  0  0  0  0  0  0  0
   27.7045  -17.1459  -19.0437 C   0  0  0  0  0  0  0  0  0  0  0  0
   26.7540  -20.6515  -16.3195 C   0  0  0  0  0  0  0  0  0  0  0  0
   26.0439  -21.6934  -16.3566 O   0  0  0  0  0  0  0  0  0  0  0  0
   24.2220  -21.3947   -7.8445 O   0  0  0  0  0  0  0  0  0  0  0  0
   24.9188  -21.1153   -8.9931 C   0  0  0  0  0  0  0  0  0  0  0  0
   25.9421  -21.9297   -9.4734 C   0  0  0  0  0  0  0  0  0  0  0  0
   26.6108  -21.6160  -10.6203 C   0  0  0  0  0  0  0  0  0  0  0  0
   26.3103  -20.5015  -11.3413 C   0  0  0  0  0  0  0  0  0  0  0  0
   26.9704  -20.0854  -12.5779 C   0  0  0  0  0  0  0  0  0  0  0  0
   26.3445  -20.5707  -13.8406 C   0  0  2  0  0  0  0  0  0  0  0  0
   27.0079  -20.1182  -15.0303 N   0  0  0  0  0  0  0  0  0  0  0  0
   24.8693  -20.2620  -13.8823 C   0  0  0  0  0  0  0  0  0  0  0  0
   24.4395  -19.0965  -14.0563 O   0  0  0  0  0  0  0  0  0  0  0  0
   25.2945  -19.6855  -10.8720 C   0  0  0  0  0  0  0  0  0  0  0  0
   24.6087  -19.9782   -9.7242 C   0  0  0  0  0  0  0  0  0  0  0  0
   21.7302  -22.0524  -14.5992 C   0  0  0  0  0  0  0  0  0  0  0  0
   22.4663  -21.0643  -13.7278 C   0  0  2  0  0  0  0  0  0  0  0  0
   23.8928  -21.2827  -13.7257 N   0  0  0  0  0  0  0  0  0  0  0  0
   21.8929  -20.9822  -12.3821 C   0  0  0  0  0  0  0  0  0  0  0  0
   22.6143  -21.2930  -11.2275 O   0  0  0  0  0  0  0  0  0  0  0  0
   20.7009  -20.6196  -12.2181 O   0  0  0  0  0  0  0  0  0  0  0  0
  2  1  1  6
  3  4  1  0
  3  2  1  0
  4  5  2  0
  6  5  1  0
  7  6  1  0
  8  7  2  0
  9  8  1  0
 10  9  2  0
 10 11  1  0
 11 12  2  0
 12  7  1  0
 12  4  1  0
 13  2  1  0
 13 14  2  0
 15 16  1  0
 16 17  2  0
 17 18  1  0
 19 20  1  0
 19 18  2  0
 21 20  1  1
 21 22  1  0
 22 13  1  0
 23 21  1  0
 24 23  2  0
 25 19  1  0
 26 25  2  0
 26 16  1  0
 28 27  1  6
 28 29  1  0
 28 30  1  0
 29 23  1  0
 30 31  1  0
 32 30  2  0
M  END
$$$$
