WYA.pdb
     RDKit          3D

 32 34  0  0  1  0  0  0  0  0999 V2000
   25.7423  -19.0114  -12.3687 N   0  0  0  0  0  0  0  0  0  0  0  0
   26.8157  -19.9570  -12.1638 C   0  0  1  0  0  0  0  0  0  0  0  0
   28.1608  -19.3945  -12.5611 C   0  0  0  0  0  0  0  0  0  0  0  0
   28.1371  -18.7477  -13.8803 C   0  0  0  0  0  0  0  0  0  0  0  0
   27.8526  -17.4178  -14.1489 C   0  0  0  0  0  0  0  0  0  0  0  0
   27.9354  -17.2111  -15.4739 N   0  0  0  0  0  0  0  0  0  0  0  0
   28.2649  -18.3458  -16.1220 C   0  0  0  0  0  0  0  0  0  0  0  0
   28.4726  -18.6743  -17.4428 C   0  0  0  0  0  0  0  0  0  0  0  0
   28.8082  -19.9619  -17.7918 C   0  0  0  0  0  0  0  0  0  0  0  0
   28.9410  -20.9470  -16.8064 C   0  0  0  0  0  0  0  0  0  0  0  0
   28.7255  -20.5876  -15.4804 C   0  0  0  0  0  0  0  0  0  0  0  0
   28.3906  -19.3102  -15.1137 C   0  0  0  0  0  0  0  0  0  0  0  0
   26.8465  -20.4765  -10.7803 C   0  0  0  0  0  0  0  0  0  0  0  0
   27.6040  -21.4197  -10.4231 O   0  0  0  0  0  0  0  0  0  0  0  0
   30.1397  -19.8854   -4.8264 O   0  0  0  0  0  0  0  0  0  0  0  0
   28.9316  -19.9088   -5.4765 C   0  0  0  0  0  0  0  0  0  0  0  0
   28.2933  -18.7552   -5.9273 C   0  0  0  0  0  0  0  0  0  0  0  0
   27.0918  -18.8219   -6.5698 C   0  0  0  0  0  0  0  0  0  0  0  0
   26.4674  -20.0096   -6.7975 C   0  0  0  0  0  0  0  0  0  0  0  0
   25.1828  -20.1784   -7.4752 C   0  0  0  0  0  0  0  0  0  0  0  0
   25.2481  -20.7333   -8.8571 C   0  0  2  0  0  0  0  0  0  0  0  0
   26.0130  -19.9323   -9.7703 N   0  0  0  0  0  0  0  0  0  0  0  0
   23.8733  -21.0270   -9.4020 C   0  0  0  0  0  0  0  0  0  0  0  0
   23.1144  -21.8715   -8.8689 O   0  0  0  0  0  0  0  0  0  0  0  0
   27.0940  -21.1619   -6.3533 C   0  0  0  0  0  0  0  0  0  0  0  0
   28.2995  -21.1217   -5.7062 C   0  0  0  0  0  0  0  0  0  0  0  0
   21.5384  -19.2719  -11.7730 C   0  0  0  0  0  0  0  0  0  0  0  0
   22.0378  -20.5152  -11.0786 C   0  0  2  0  0  0  0  0  0  0  0  0
   23.3716  -20.3570  -10.5506 N   0  0  0  0  0  0  0  0  0  0  0  0
   21.8848  -21.7108  -11.9115 C   0  0  0  0  0  0  0  0  0  0  0  0
   20.6428  -22.1925  -12.3301 O   0  0  0  0  0  0  0  0  0  0  0  0
   22.8936  -22.3595  -12.2869 O   0  0  0  0  0  0  0  0  0  0  0  0
  2  1  1  1
  3  4  1  0
  3  2  1  0
  4  5  2  0
  6  5  1  0
  7  6  1  0
  8  7  2  0
  9  8  1  0
 10  9  2  0
 10 11  1  0
 11 12  2  0
 12  7  1  0
 12  4  1  0
 13  2  1  0
 13 14  2  0
 15 16  1  0
 16 17  2  0
 17 18  1  0
 19 20  1  0
 19 18  2  0
 21 20  1  1
 21 22  1  0
 22 13  1  0
 23 21  1  0
 24 23  2  0
 25 19  1  0
 26 25  2  0
 26 16  1  0
 28 27  1  6
 28 29  1  0
 28 30  1  0
 29 23  1  0
 30 31  1  0
 32 30  2  0
M  END
$$$$
