WYA.pdb
     RDKit          3D

 32 34  0  0  1  0  0  0  0  0999 V2000
   27.2483  -21.4035  -11.4168 N   0  0  0  0  0  0  0  0  0  0  0  0
   26.0265  -21.0180  -10.7482 C   0  0  1  0  0  0  0  0  0  0  0  0
   26.2792  -20.1051   -9.5707 C   0  0  0  0  0  0  0  0  0  0  0  0
   27.4647  -20.4955   -8.7954 C   0  0  0  0  0  0  0  0  0  0  0  0
   28.5680  -21.1949   -9.2596 C   0  0  0  0  0  0  0  0  0  0  0  0
   29.4412  -21.3549   -8.2511 N   0  0  0  0  0  0  0  0  0  0  0  0
   28.9796  -20.7932   -7.1163 C   0  0  0  0  0  0  0  0  0  0  0  0
   29.4659  -20.6758   -5.8336 C   0  0  0  0  0  0  0  0  0  0  0  0
   28.7307  -20.0231   -4.8714 C   0  0  0  0  0  0  0  0  0  0  0  0
   27.4834  -19.4737   -5.1898 C   0  0  0  0  0  0  0  0  0  0  0  0
   27.0166  -19.6070   -6.4930 C   0  0  0  0  0  0  0  0  0  0  0  0
   27.7347  -20.2537   -7.4648 C   0  0  0  0  0  0  0  0  0  0  0  0
   25.0440  -20.4229  -11.6786 C   0  0  0  0  0  0  0  0  0  0  0  0
   24.9979  -19.1861  -11.9217 O   0  0  0  0  0  0  0  0  0  0  0  0
   28.8629  -18.3855  -15.7447 O   0  0  0  0  0  0  0  0  0  0  0  0
   27.6519  -18.9925  -15.5262 C   0  0  0  0  0  0  0  0  0  0  0  0
   26.4351  -18.3368  -15.7014 C   0  0  0  0  0  0  0  0  0  0  0  0
   25.2522  -18.9768  -15.4731 C   0  0  0  0  0  0  0  0  0  0  0  0
   25.2082  -20.2750  -15.0670 C   0  0  0  0  0  0  0  0  0  0  0  0
   23.9920  -21.0409  -14.7984 C   0  0  0  0  0  0  0  0  0  0  0  0
   23.3343  -20.7726  -13.4880 C   0  0  2  0  0  0  0  0  0  0  0  0
   24.0896  -21.2251  -12.3543 N   0  0  0  0  0  0  0  0  0  0  0  0
   21.9237  -21.3041  -13.4566 C   0  0  0  0  0  0  0  0  0  0  0  0
   21.0966  -21.0460  -14.3636 O   0  0  0  0  0  0  0  0  0  0  0  0
   26.4125  -20.9354  -14.8900 C   0  0  0  0  0  0  0  0  0  0  0  0
   27.6125  -20.3157  -15.1123 C   0  0  0  0  0  0  0  0  0  0  0  0
   20.0187  -23.7890  -11.3066 C   0  0  0  0  0  0  0  0  0  0  0  0
   20.1154  -22.6224  -12.2590 C   0  0  2  0  0  0  0  0  0  0  0  0
   21.4641  -22.1264  -12.3924 N   0  0  0  0  0  0  0  0  0  0  0  0
   19.1427  -21.5727  -11.9451 C   0  0  0  0  0  0  0  0  0  0  0  0
   17.7798  -21.6899  -12.2254 O   0  0  0  0  0  0  0  0  0  0  0  0
   19.5130  -20.5033  -11.3985 O   0  0  0  0  0  0  0  0  0  0  0  0
  2  1  1  6
  3  4  1  0
  3  2  1  0
  4  5  2  0
  6  5  1  0
  7  6  1  0
  8  7  2  0
  9  8  1  0
 10  9  2  0
 10 11  1  0
 11 12  2  0
 12  7  1  0
 12  4  1  0
 13  2  1  0
 13 14  2  0
 15 16  1  0
 16 17  2  0
 17 18  1  0
 19 20  1  0
 19 18  2  0
 21 20  1  6
 21 22  1  0
 22 13  1  0
 23 21  1  0
 24 23  2  0
 25 19  1  0
 26 25  2  0
 26 16  1  0
 28 27  1  1
 28 29  1  0
 28 30  1  0
 29 23  1  0
 30 31  1  0
 32 30  2  0
M  END
$$$$
