WYA.pdb
     RDKit          3D

 32 34  0  0  1  0  0  0  0  0999 V2000
   19.3216  -16.0788  -18.9037 N   0  0  0  0  0  0  0  0  0  0  0  0
   18.4807  -17.2416  -18.7330 C   0  0  1  0  0  0  0  0  0  0  0  0
   18.9583  -18.4209  -19.5486 C   0  0  0  0  0  0  0  0  0  0  0  0
   19.3304  -18.0475  -20.9201 C   0  0  0  0  0  0  0  0  0  0  0  0
   18.6599  -17.1641  -21.7520 C   0  0  0  0  0  0  0  0  0  0  0  0
   19.3119  -17.0856  -22.9241 N   0  0  0  0  0  0  0  0  0  0  0  0
   20.4010  -17.8794  -22.9273 C   0  0  0  0  0  0  0  0  0  0  0  0
   21.3842  -18.1609  -23.8491 C   0  0  0  0  0  0  0  0  0  0  0  0
   22.3922  -19.0440  -23.5387 C   0  0  0  0  0  0  0  0  0  0  0  0
   22.4253  -19.6624  -22.2835 C   0  0  0  0  0  0  0  0  0  0  0  0
   21.4198  -19.3598  -21.3717 C   0  0  0  0  0  0  0  0  0  0  0  0
   20.4078  -18.4828  -21.6630 C   0  0  0  0  0  0  0  0  0  0  0  0
   18.3201  -17.6114  -17.3109 C   0  0  0  0  0  0  0  0  0  0  0  0
   19.2583  -17.5202  -16.4728 O   0  0  0  0  0  0  0  0  0  0  0  0
   11.4095  -14.8057  -19.0403 O   0  0  0  0  0  0  0  0  0  0  0  0
   12.5646  -15.1078  -18.3641 C   0  0  0  0  0  0  0  0  0  0  0  0
   13.6888  -15.6429  -18.9894 C   0  0  0  0  0  0  0  0  0  0  0  0
   14.8184  -15.9294  -18.2802 C   0  0  0  0  0  0  0  0  0  0  0  0
   14.8970  -15.7068  -16.9399 C   0  0  0  0  0  0  0  0  0  0  0  0
   16.0614  -15.9818  -16.0994 C   0  0  0  0  0  0  0  0  0  0  0  0
   16.3194  -17.4192  -15.8011 C   0  0  2  0  0  0  0  0  0  0  0  0
   17.0844  -18.0948  -16.8104 N   0  0  0  0  0  0  0  0  0  0  0  0
   15.0426  -18.1589  -15.4917 C   0  0  0  0  0  0  0  0  0  0  0  0
   14.2183  -17.7359  -14.6463 O   0  0  0  0  0  0  0  0  0  0  0  0
   13.7847  -15.1750  -16.3092 C   0  0  0  0  0  0  0  0  0  0  0  0
   12.6396  -14.8790  -16.9981 C   0  0  0  0  0  0  0  0  0  0  0  0
   12.2619  -19.3055  -16.0005 C   0  0  0  0  0  0  0  0  0  0  0  0
   13.5140  -20.1425  -15.9053 C   0  0  2  0  0  0  0  0  0  0  0  0
   14.7125  -19.3760  -16.1474 N   0  0  0  0  0  0  0  0  0  0  0  0
   13.4296  -21.3554  -16.7228 C   0  0  0  0  0  0  0  0  0  0  0  0
   13.1705  -22.6182  -16.1860 O   0  0  0  0  0  0  0  0  0  0  0  0
   13.5918  -21.2977  -17.9677 O   0  0  0  0  0  0  0  0  0  0  0  0
  2  1  1  1
  3  4  1  0
  3  2  1  0
  4  5  2  0
  6  5  1  0
  7  6  1  0
  8  7  2  0
  9  8  1  0
 10  9  2  0
 10 11  1  0
 11 12  2  0
 12  7  1  0
 12  4  1  0
 13  2  1  0
 13 14  2  0
 15 16  1  0
 16 17  2  0
 17 18  1  0
 19 20  1  0
 19 18  2  0
 21 20  1  6
 21 22  1  0
 22 13  1  0
 23 21  1  0
 24 23  2  0
 25 19  1  0
 26 25  2  0
 26 16  1  0
 28 27  1  6
 28 29  1  0
 28 30  1  0
 29 23  1  0
 30 31  1  0
 32 30  2  0
M  END
$$$$
