WYA.pdb
     RDKit          3D

 32 34  0  0  1  0  0  0  0  0999 V2000
   17.0053   -8.3924  -14.5854 N   0  0  0  0  0  0  0  0  0  0  0  0
   18.3082   -8.6277  -15.1645 C   0  0  1  0  0  0  0  0  0  0  0  0
   19.2390   -9.3439  -14.2135 C   0  0  0  0  0  0  0  0  0  0  0  0
   19.6667   -8.4952  -13.0929 C   0  0  0  0  0  0  0  0  0  0  0  0
   19.2138   -8.5563  -11.7840 C   0  0  0  0  0  0  0  0  0  0  0  0
   19.8458   -7.6192  -11.0577 N   0  0  0  0  0  0  0  0  0  0  0  0
   20.7123   -6.9199  -11.8169 C   0  0  0  0  0  0  0  0  0  0  0  0
   21.5834   -5.8816  -11.5748 C   0  0  0  0  0  0  0  0  0  0  0  0
   22.3551   -5.3731  -12.5938 C   0  0  0  0  0  0  0  0  0  0  0  0
   22.2600   -5.9080  -13.8838 C   0  0  0  0  0  0  0  0  0  0  0  0
   21.3721   -6.9561  -14.1000 C   0  0  0  0  0  0  0  0  0  0  0  0
   20.5953   -7.4756  -13.0975 C   0  0  0  0  0  0  0  0  0  0  0  0
   18.2248   -9.3369  -16.4587 C   0  0  0  0  0  0  0  0  0  0  0  0
   17.4183  -10.2843  -16.6661 O   0  0  0  0  0  0  0  0  0  0  0  0
   19.3987  -11.2620  -25.0120 O   0  0  0  0  0  0  0  0  0  0  0  0
   19.5227  -10.7128  -23.7607 C   0  0  0  0  0  0  0  0  0  0  0  0
   20.6167  -10.9569  -22.9332 C   0  0  0  0  0  0  0  0  0  0  0  0
   20.7018  -10.3908  -21.6949 C   0  0  0  0  0  0  0  0  0  0  0  0
   19.7289   -9.5684  -21.2161 C   0  0  0  0  0  0  0  0  0  0  0  0
   19.7336   -8.9187  -19.9062 C   0  0  0  0  0  0  0  0  0  0  0  0
   19.0445   -9.6614  -18.8129 C   0  0  2  0  0  0  0  0  0  0  0  0
   19.0603   -8.9824  -17.5483 N   0  0  0  0  0  0  0  0  0  0  0  0
   19.5647  -11.0709  -18.6868 C   0  0  0  0  0  0  0  0  0  0  0  0
   20.6978  -11.3203  -18.2103 O   0  0  0  0  0  0  0  0  0  0  0  0
   18.6374   -9.3196  -22.0313 C   0  0  0  0  0  0  0  0  0  0  0  0
   18.5285   -9.8752  -23.2774 C   0  0  0  0  0  0  0  0  0  0  0  0
   18.7863  -14.3003  -17.8516 C   0  0  0  0  0  0  0  0  0  0  0  0
   19.2446  -13.5574  -19.0827 C   0  0  2  0  0  0  0  0  0  0  0  0
   18.7909  -12.1876  -19.1041 N   0  0  0  0  0  0  0  0  0  0  0  0
   18.9341  -14.2876  -20.3144 C   0  0  0  0  0  0  0  0  0  0  0  0
   18.1898  -13.7355  -21.3590 O   0  0  0  0  0  0  0  0  0  0  0  0
   19.3384  -15.4665  -20.4758 O   0  0  0  0  0  0  0  0  0  0  0  0
  2  1  1  1
  3  4  1  0
  3  2  1  0
  4  5  2  0
  6  5  1  0
  7  6  1  0
  8  7  2  0
  9  8  1  0
 10  9  2  0
 10 11  1  0
 11 12  2  0
 12  7  1  0
 12  4  1  0
 13  2  1  0
 13 14  2  0
 15 16  1  0
 16 17  2  0
 17 18  1  0
 19 20  1  0
 19 18  2  0
 21 20  1  6
 21 22  1  0
 22 13  1  0
 23 21  1  0
 24 23  2  0
 25 19  1  0
 26 25  2  0
 26 16  1  0
 28 27  1  1
 28 29  1  0
 28 30  1  0
 29 23  1  0
 30 31  1  0
 32 30  2  0
M  END
$$$$
