WYA.pdb
     RDKit          3D

 32 34  0  0  1  0  0  0  0  0999 V2000
   27.6990  -19.2116  -19.4220 N   0  0  0  0  0  0  0  0  0  0  0  0
   26.7662  -18.5950  -18.5065 C   0  0  1  0  0  0  0  0  0  0  0  0
   25.4298  -18.3110  -19.1524 C   0  0  0  0  0  0  0  0  0  0  0  0
   25.5205  -17.3123  -20.2263 C   0  0  0  0  0  0  0  0  0  0  0  0
   25.3040  -17.5245  -21.5791 C   0  0  0  0  0  0  0  0  0  0  0  0
   25.4791  -16.3665  -22.2376 N   0  0  0  0  0  0  0  0  0  0  0  0
   25.8065  -15.3713  -21.3899 C   0  0  0  0  0  0  0  0  0  0  0  0
   26.0854  -14.0315  -21.5405 C   0  0  0  0  0  0  0  0  0  0  0  0
   26.3941  -13.2609  -20.4436 C   0  0  0  0  0  0  0  0  0  0  0  0
   26.4267  -13.8336  -19.1669 C   0  0  0  0  0  0  0  0  0  0  0  0
   26.1409  -15.1890  -19.0438 C   0  0  0  0  0  0  0  0  0  0  0  0
   25.8313  -15.9724  -20.1248 C   0  0  0  0  0  0  0  0  0  0  0  0
   26.5986  -19.3806  -17.2657 C   0  0  0  0  0  0  0  0  0  0  0  0
   26.2646  -20.5970  -17.2690 O   0  0  0  0  0  0  0  0  0  0  0  0
   26.0607  -21.4637   -8.6938 O   0  0  0  0  0  0  0  0  0  0  0  0
   26.3108  -20.8018   -9.8694 C   0  0  0  0  0  0  0  0  0  0  0  0
   25.7560  -19.5596  -10.1703 C   0  0  0  0  0  0  0  0  0  0  0  0
   26.0303  -18.9346  -11.3515 C   0  0  0  0  0  0  0  0  0  0  0  0
   26.8521  -19.4925  -12.2819 C   0  0  0  0  0  0  0  0  0  0  0  0
   27.2026  -18.8992  -13.5715 C   0  0  0  0  0  0  0  0  0  0  0  0
   26.4881  -19.4554  -14.7554 C   0  0  2  0  0  0  0  0  0  0  0  0
   26.8079  -18.7971  -15.9903 N   0  0  0  0  0  0  0  0  0  0  0  0
   24.9982  -19.5073  -14.5298 C   0  0  0  0  0  0  0  0  0  0  0  0
   24.2992  -18.4675  -14.4694 O   0  0  0  0  0  0  0  0  0  0  0  0
   27.4084  -20.7271  -11.9920 C   0  0  0  0  0  0  0  0  0  0  0  0
   27.1490  -21.3746  -10.8143 C   0  0  0  0  0  0  0  0  0  0  0  0
   22.3701  -22.2363  -14.5315 C   0  0  0  0  0  0  0  0  0  0  0  0
   22.8951  -20.8752  -14.1453 C   0  0  2  0  0  0  0  0  0  0  0  0
   24.3139  -20.7432  -14.3743 N   0  0  0  0  0  0  0  0  0  0  0  0
   22.4911  -20.4930  -12.7898 C   0  0  0  0  0  0  0  0  0  0  0  0
   23.3968  -20.3594  -11.7353 O   0  0  0  0  0  0  0  0  0  0  0  0
   21.2838  -20.2667  -12.5244 O   0  0  0  0  0  0  0  0  0  0  0  0
  2  1  1  6
  3  4  1  0
  3  2  1  0
  4  5  2  0
  6  5  1  0
  7  6  1  0
  8  7  2  0
  9  8  1  0
 10  9  2  0
 10 11  1  0
 11 12  2  0
 12  7  1  0
 12  4  1  0
 13  2  1  0
 13 14  2  0
 15 16  1  0
 16 17  2  0
 17 18  1  0
 19 20  1  0
 19 18  2  0
 21 20  1  1
 21 22  1  0
 22 13  1  0
 23 21  1  0
 24 23  2  0
 25 19  1  0
 26 25  2  0
 26 16  1  0
 28 27  1  1
 28 29  1  0
 28 30  1  0
 29 23  1  0
 30 31  1  0
 32 30  2  0
M  END
$$$$
