PGT.pdb
     RDKit          3D

 19 19  0  0  1  0  0  0  0  0999 V2000
    6.9376  -18.8608   21.8189 N   0  0  0  0  0  0  0  0  0  0  0  0
    7.6411  -19.1862   23.0220 C   0  0  0  0  0  0  0  0  0  0  0  0
    6.8864  -18.5570   24.1751 C   0  0  0  0  0  0  0  0  0  0  0  0
    5.5033  -18.3733   23.5383 C   0  0  0  0  0  0  0  0  0  0  0  0
    5.9470  -17.8750   22.1578 C   0  0  1  0  0  0  0  0  0  0  0  0
    6.4635  -16.5095   22.3297 C   0  0  0  0  0  0  0  0  0  0  0  0
    5.6855  -15.5727   22.7278 O   0  0  0  0  0  0  0  0  0  0  0  0
    7.7977  -16.0850   22.0925 N   0  0  0  0  0  0  0  0  0  0  0  0
    8.1853  -14.6793   22.1714 C   0  0  0  0  0  0  0  0  0  0  0  0
    8.6088  -14.2986   23.5226 C   0  0  0  0  0  0  0  0  0  0  0  0
    9.6707  -13.6662   23.7075 O   0  0  0  0  0  0  0  0  0  0  0  0
    6.9294  -12.2605   25.9426 C   0  0  0  0  0  0  0  0  0  0  0  0
    7.0348  -13.6032   26.6461 C   0  0  1  0  0  0  0  0  0  0  0  0
    5.8786  -14.3406   26.4485 O   0  0  0  0  0  0  0  0  0  0  0  0
    8.1915  -14.3399   25.9978 C   0  0  2  0  0  0  0  0  0  0  0  0
    7.8197  -14.6421   24.6433 N   0  0  0  0  0  0  0  0  0  0  0  0
    8.5427  -15.5688   26.7471 C   0  0  0  0  0  0  0  0  0  0  0  0
    9.0539  -15.4226   28.0399 O   0  0  0  0  0  0  0  0  0  0  0  0
    8.3983  -16.7207   26.2659 O   0  0  0  0  0  0  0  0  0  0  0  0
  1  2  1  0
  3  2  1  0
  4  5  1  0
  4  3  1  0
  5  6  1  1
  5  1  1  0
  6  8  1  0
  7  6  2  0
  8  9  1  0
 10  9  1  0
 10 11  2  0
 13 12  1  6
 13 15  1  0
 14 13  1  0
 15 16  1  6
 15 17  1  0
 16 10  1  0
 17 19  2  0
 17 18  1  0
M  END
$$$$
