PGT.pdb
     RDKit          3D

 19 19  0  0  1  0  0  0  0  0999 V2000
    8.0368  -14.7980   18.8116 N   0  0  0  0  0  0  0  0  0  0  0  0
    7.0626  -13.7503   18.8502 C   0  0  0  0  0  0  0  0  0  0  0  0
    7.6364  -12.6257   19.6874 C   0  0  0  0  0  0  0  0  0  0  0  0
    9.1334  -12.9474   19.6014 C   0  0  0  0  0  0  0  0  0  0  0  0
    9.0547  -14.4690   19.7726 C   0  0  1  0  0  0  0  0  0  0  0  0
    8.6954  -14.7347   21.1730 C   0  0  0  0  0  0  0  0  0  0  0  0
    9.5402  -14.5055   22.1085 O   0  0  0  0  0  0  0  0  0  0  0  0
    7.4527  -15.2439   21.6344 N   0  0  0  0  0  0  0  0  0  0  0  0
    7.2377  -15.6017   23.0338 C   0  0  0  0  0  0  0  0  0  0  0  0
    7.8221  -14.6182   23.9510 C   0  0  0  0  0  0  0  0  0  0  0  0
    8.9058  -14.0564   23.6832 O   0  0  0  0  0  0  0  0  0  0  0  0
    6.4105  -11.5320   25.8318 C   0  0  0  0  0  0  0  0  0  0  0  0
    6.6974  -12.6439   26.8268 C   0  0  1  0  0  0  0  0  0  0  0  0
    5.5655  -13.4190   27.0201 O   0  0  0  0  0  0  0  0  0  0  0  0
    7.7742  -13.5123   26.2042 C   0  0  2  0  0  0  0  0  0  0  0  0
    7.1667  -14.2879   25.1585 N   0  0  0  0  0  0  0  0  0  0  0  0
    8.4228  -14.3822   27.2129 C   0  0  0  0  0  0  0  0  0  0  0  0
    9.1730  -13.7685   28.2201 O   0  0  0  0  0  0  0  0  0  0  0  0
    8.3221  -15.6347   27.1931 O   0  0  0  0  0  0  0  0  0  0  0  0
  1  2  1  0
  3  2  1  0
  4  5  1  0
  4  3  1  0
  5  6  1  1
  5  1  1  0
  6  8  1  0
  7  6  2  0
  8  9  1  0
 10  9  1  0
 10 11  2  0
 13 12  1  6
 13 15  1  0
 14 13  1  0
 15 16  1  6
 15 17  1  0
 16 10  1  0
 17 19  2  0
 17 18  1  0
M  END
$$$$
