PGT.pdb
     RDKit          3D

 19 19  0  0  1  0  0  0  0  0999 V2000
    6.9175  -18.4515   23.3409 N   0  0  0  0  0  0  0  0  0  0  0  0
    5.5584  -18.0063   23.2890 C   0  0  0  0  0  0  0  0  0  0  0  0
    5.2138  -17.7642   21.8339 C   0  0  0  0  0  0  0  0  0  0  0  0
    6.2823  -18.6226   21.1458 C   0  0  0  0  0  0  0  0  0  0  0  0
    7.4796  -18.2580   22.0314 C   0  0  1  0  0  0  0  0  0  0  0  0
    7.8531  -16.8720   21.7148 C   0  0  0  0  0  0  0  0  0  0  0  0
    8.2856  -16.5730   20.5465 O   0  0  0  0  0  0  0  0  0  0  0  0
    7.7868  -15.7654   22.6024 N   0  0  0  0  0  0  0  0  0  0  0  0
    8.7974  -14.7113   22.5976 C   0  0  0  0  0  0  0  0  0  0  0  0
    8.9292  -14.0672   23.9083 C   0  0  0  0  0  0  0  0  0  0  0  0
    9.8919  -13.3103   24.1569 O   0  0  0  0  0  0  0  0  0  0  0  0
    6.4726  -11.9808   25.7621 C   0  0  0  0  0  0  0  0  0  0  0  0
    6.7059  -13.2054   26.6307 C   0  0  1  0  0  0  0  0  0  0  0  0
    5.7502  -14.1724   26.3638 O   0  0  0  0  0  0  0  0  0  0  0  0
    8.0663  -13.7548   26.2450 C   0  0  2  0  0  0  0  0  0  0  0  0
    7.9653  -14.2928   24.9167 N   0  0  0  0  0  0  0  0  0  0  0  0
    8.5323  -14.7799   27.2077 C   0  0  0  0  0  0  0  0  0  0  0  0
    8.7994  -16.0620   26.7193 O   0  0  0  0  0  0  0  0  0  0  0  0
    8.6930  -14.5382   28.4305 O   0  0  0  0  0  0  0  0  0  0  0  0
  1  2  1  0
  3  2  1  0
  4  5  1  0
  4  3  1  0
  5  6  1  1
  5  1  1  0
  6  8  1  0
  7  6  2  0
  8  9  1  0
 10  9  1  0
 10 11  2  0
 13 12  1  6
 13 15  1  0
 14 13  1  0
 15 16  1  6
 15 17  1  0
 16 10  1  0
 17 19  2  0
 17 18  1  0
M  END
$$$$
