PGT.pdb
     RDKit          3D

 19 19  0  0  1  0  0  0  0  0999 V2000
    7.6168  -15.1868   19.6060 N   0  0  0  0  0  0  0  0  0  0  0  0
    6.8655  -14.0475   19.1751 C   0  0  0  0  0  0  0  0  0  0  0  0
    7.7618  -12.8336   19.3095 C   0  0  0  0  0  0  0  0  0  0  0  0
    9.1420  -13.5025   19.3093 C   0  0  0  0  0  0  0  0  0  0  0  0
    8.8223  -14.6959   20.2172 C   0  0  1  0  0  0  0  0  0  0  0  0
    8.6592  -14.1767   21.5827 C   0  0  0  0  0  0  0  0  0  0  0  0
    9.6673  -13.7032   22.2158 O   0  0  0  0  0  0  0  0  0  0  0  0
    7.4474  -14.1371   22.3221 N   0  0  0  0  0  0  0  0  0  0  0  0
    7.3934  -13.6208   23.6870 C   0  0  0  0  0  0  0  0  0  0  0  0
    7.6482  -14.6664   24.6830 C   0  0  0  0  0  0  0  0  0  0  0  0
    7.5963  -14.4136   25.9057 O   0  0  0  0  0  0  0  0  0  0  0  0
    5.9962  -17.9486   24.3346 C   0  0  0  0  0  0  0  0  0  0  0  0
    7.4571  -18.3017   24.5574 C   0  0  1  0  0  0  0  0  0  0  0  0
    8.0807  -18.5523   23.3458 O   0  0  0  0  0  0  0  0  0  0  0  0
    8.1039  -17.0829   25.1879 C   0  0  2  0  0  0  0  0  0  0  0  0
    7.9583  -15.9832   24.2749 N   0  0  0  0  0  0  0  0  0  0  0  0
    9.5284  -17.3291   25.5122 C   0  0  0  0  0  0  0  0  0  0  0  0
    9.8233  -18.3249   26.4478 O   0  0  0  0  0  0  0  0  0  0  0  0
   10.4660  -16.6818   24.9819 O   0  0  0  0  0  0  0  0  0  0  0  0
  1  2  1  0
  3  2  1  0
  4  5  1  0
  4  3  1  0
  5  6  1  1
  5  1  1  0
  6  8  1  0
  7  6  2  0
  8  9  1  0
 10  9  1  0
 10 11  2  0
 13 12  1  6
 13 15  1  0
 14 13  1  0
 15 16  1  6
 15 17  1  0
 16 10  1  0
 17 19  2  0
 17 18  1  0
M  END
$$$$
