PGT.pdb
     RDKit          3D

 19 19  0  0  1  0  0  0  0  0999 V2000
    8.8349  -14.9430   18.9285 N   0  0  0  0  0  0  0  0  0  0  0  0
    7.5530  -14.7605   18.3190 C   0  0  0  0  0  0  0  0  0  0  0  0
    7.0360  -13.4015   18.7441 C   0  0  0  0  0  0  0  0  0  0  0  0
    8.3480  -12.7140   19.1419 C   0  0  0  0  0  0  0  0  0  0  0  0
    9.0072  -13.8824   19.8842 C   0  0  1  0  0  0  0  0  0  0  0  0
    8.2817  -14.0632   21.1497 C   0  0  0  0  0  0  0  0  0  0  0  0
    8.0547  -13.0577   21.9105 O   0  0  0  0  0  0  0  0  0  0  0  0
    7.7756  -15.2902   21.6546 N   0  0  0  0  0  0  0  0  0  0  0  0
    7.0696  -15.3665   22.9306 C   0  0  0  0  0  0  0  0  0  0  0  0
    7.8671  -14.8253   24.0357 C   0  0  0  0  0  0  0  0  0  0  0  0
    9.1143  -14.7876   23.9681 O   0  0  0  0  0  0  0  0  0  0  0  0
    7.0934  -11.5518   26.0542 C   0  0  0  0  0  0  0  0  0  0  0  0
    7.0837  -12.7532   26.9844 C   0  0  1  0  0  0  0  0  0  0  0  0
    5.7980  -13.2547   27.1073 O   0  0  0  0  0  0  0  0  0  0  0  0
    7.9520  -13.8115   26.3308 C   0  0  2  0  0  0  0  0  0  0  0  0
    7.2356  -14.3352   25.2009 N   0  0  0  0  0  0  0  0  0  0  0  0
    8.3124  -14.8857   27.2854 C   0  0  0  0  0  0  0  0  0  0  0  0
    9.1085  -14.5451   28.3827 O   0  0  0  0  0  0  0  0  0  0  0  0
    7.9316  -16.0748   27.1431 O   0  0  0  0  0  0  0  0  0  0  0  0
  1  2  1  0
  3  2  1  0
  4  5  1  0
  4  3  1  0
  5  6  1  1
  5  1  1  0
  6  8  1  0
  7  6  2  0
  8  9  1  0
 10  9  1  0
 10 11  2  0
 13 12  1  6
 13 15  1  0
 14 13  1  0
 15 16  1  6
 15 17  1  0
 16 10  1  0
 17 19  2  0
 17 18  1  0
M  END
$$$$
