PGT.pdb
     RDKit          3D

 19 19  0  0  1  0  0  0  0  0999 V2000
    7.7960  -14.8751   19.8267 N   0  0  0  0  0  0  0  0  0  0  0  0
    6.7188  -13.9343   19.7753 C   0  0  0  0  0  0  0  0  0  0  0  0
    7.2239  -12.6314   20.3603 C   0  0  0  0  0  0  0  0  0  0  0  0
    8.7374  -12.8193   20.1985 C   0  0  0  0  0  0  0  0  0  0  0  0
    8.8367  -14.2881   20.6268 C   0  0  1  0  0  0  0  0  0  0  0  0
    8.6071  -14.3382   22.0779 C   0  0  0  0  0  0  0  0  0  0  0  0
    9.4856  -13.8710   22.8848 O   0  0  0  0  0  0  0  0  0  0  0  0
    7.4618  -14.8740   22.7244 N   0  0  0  0  0  0  0  0  0  0  0  0
    7.3616  -14.9482   24.1793 C   0  0  0  0  0  0  0  0  0  0  0  0
    7.7312  -16.2717   24.6912 C   0  0  0  0  0  0  0  0  0  0  0  0
    6.8639  -17.1514   24.8796 O   0  0  0  0  0  0  0  0  0  0  0  0
   10.0347  -18.5360   23.2394 C   0  0  0  0  0  0  0  0  0  0  0  0
   10.6294  -18.3590   24.6263 C   0  0  1  0  0  0  0  0  0  0  0  0
   11.6424  -17.4142   24.5973 O   0  0  0  0  0  0  0  0  0  0  0  0
    9.5124  -17.8392   25.5113 C   0  0  2  0  0  0  0  0  0  0  0  0
    9.0803  -16.5756   24.9813 N   0  0  0  0  0  0  0  0  0  0  0  0
    9.9495  -17.7112   26.9210 C   0  0  0  0  0  0  0  0  0  0  0  0
   10.1228  -16.4240   27.4376 O   0  0  0  0  0  0  0  0  0  0  0  0
   10.1663  -18.7069   27.6565 O   0  0  0  0  0  0  0  0  0  0  0  0
  1  2  1  0
  3  2  1  0
  4  5  1  0
  4  3  1  0
  5  6  1  1
  5  1  1  0
  6  8  1  0
  7  6  2  0
  8  9  1  0
 10  9  1  0
 10 11  2  0
 13 12  1  6
 13 15  1  0
 14 13  1  0
 15 16  1  6
 15 17  1  0
 16 10  1  0
 17 19  2  0
 17 18  1  0
M  END
$$$$
