SQP.pdb
     RDKit          3D

 23 23  0  0  1  0  0  0  0  0999 V2000
    9.7836  -19.9952   16.5097 O   0  0  0  0  0  0  0  0  0  0  0  0
    8.4790  -19.5707   16.5809 C   0  0  0  0  0  0  0  0  0  0  0  0
    8.3738  -18.1908   15.9795 C   0  0  2  0  0  0  0  0  0  0  0  0
    9.0364  -18.2136   14.6932 N   0  0  0  0  0  0  0  0  0  0  0  0
    8.9640  -17.1777   16.8937 C   0  0  0  0  0  0  0  0  0  0  0  0
   10.1883  -16.9295   16.7426 O   0  0  0  0  0  0  0  0  0  0  0  0
    8.0256  -12.5673   18.0114 N   0  0  0  0  0  0  0  0  0  0  0  0
    8.4289  -12.4847   19.3641 C   0  0  0  0  0  0  0  0  0  0  0  0
    8.9209  -11.4256   19.7956 O   0  0  0  0  0  0  0  0  0  0  0  0
    8.2614  -13.6558   20.2475 C   0  0  0  0  0  0  0  0  0  0  0  0
    7.6354  -14.8211   19.4824 C   0  0  0  0  0  0  0  0  0  0  0  0
    8.8036  -15.4551   18.7056 C   0  0  2  0  0  0  0  0  0  0  0  0
    8.1990  -16.5247   17.8810 N   0  0  0  0  0  0  0  0  0  0  0  0
    9.7673  -16.0265   19.6560 C   0  0  0  0  0  0  0  0  0  0  0  0
    9.4518  -17.1586   20.1779 O   0  0  0  0  0  0  0  0  0  0  0  0
   11.0003  -15.4444   20.0408 N   0  0  0  0  0  0  0  0  0  0  0  0
   11.4138  -14.1377   19.4822 C   0  0  0  0  0  0  0  0  0  0  0  0
   12.9402  -14.2723   19.4683 C   0  0  0  0  0  0  0  0  0  0  0  0
   13.1449  -14.9113   20.8126 C   0  0  0  0  0  0  0  0  0  0  0  0
   12.0198  -15.9057   20.9187 C   0  0  1  0  0  0  0  0  0  0  0  0
   11.5458  -15.9976   22.3381 C   0  0  0  0  0  0  0  0  0  0  0  0
   12.3515  -16.4439   23.1910 O   0  0  0  0  0  0  0  0  0  0  0  0
   10.2937  -15.6210   22.7396 O   0  0  0  0  0  0  0  0  0  0  0  0
  1  2  1  0
  2  3  1  0
  3  5  1  0
  3  4  1  6
  5  6  2  0
  8  7  1  0
  8 10  1  0
  9  8  2  0
 10 11  1  0
 12 11  1  1
 12 14  1  0
 13 12  1  0
 13  5  1  0
 14 15  2  0
 14 16  1  0
 16 20  1  0
 17 16  1  0
 18 19  1  0
 18 17  1  0
 19 20  1  0
 20 21  1  1
 21 22  2  0
 21 23  1  0
M  END
$$$$
