SQP.pdb
     RDKit          3D

 23 23  0  0  1  0  0  0  0  0999 V2000
   10.0029  -14.7532   20.7339 O   0  0  0  0  0  0  0  0  0  0  0  0
    9.0903  -15.3565   19.9030 C   0  0  0  0  0  0  0  0  0  0  0  0
    8.5068  -16.5609   20.5999 C   0  0  2  0  0  0  0  0  0  0  0  0
    7.6677  -17.2614   19.6516 N   0  0  0  0  0  0  0  0  0  0  0  0
    7.7532  -16.1468   21.8128 C   0  0  0  0  0  0  0  0  0  0  0  0
    6.6178  -15.6389   21.6231 O   0  0  0  0  0  0  0  0  0  0  0  0
    7.0907  -19.6274   26.2748 N   0  0  0  0  0  0  0  0  0  0  0  0
    6.5192  -19.4700   24.9910 C   0  0  0  0  0  0  0  0  0  0  0  0
    5.8925  -20.4149   24.4769 O   0  0  0  0  0  0  0  0  0  0  0  0
    6.6732  -18.1870   24.2770 C   0  0  0  0  0  0  0  0  0  0  0  0
    7.3608  -17.1543   25.1691 C   0  0  0  0  0  0  0  0  0  0  0  0
    7.4856  -15.8960   24.2911 C   0  0  2  0  0  0  0  0  0  0  0  0
    8.2763  -16.3110   23.1112 N   0  0  0  0  0  0  0  0  0  0  0  0
    8.1951  -14.8489   25.0385 C   0  0  0  0  0  0  0  0  0  0  0  0
    9.4772  -14.8458   24.9394 O   0  0  0  0  0  0  0  0  0  0  0  0
    7.5945  -13.8534   25.8480 N   0  0  0  0  0  0  0  0  0  0  0  0
    6.1507  -13.5563   25.7154 C   0  0  0  0  0  0  0  0  0  0  0  0
    6.1040  -12.0662   26.0698 C   0  0  0  0  0  0  0  0  0  0  0  0
    7.0364  -12.0624   27.2480 C   0  0  0  0  0  0  0  0  0  0  0  0
    8.1455  -12.9939   26.8382 C   0  0  1  0  0  0  0  0  0  0  0  0
    8.6480  -13.7521   28.0300 C   0  0  0  0  0  0  0  0  0  0  0  0
    8.2978  -14.9522   28.1440 O   0  0  0  0  0  0  0  0  0  0  0  0
    9.4604  -13.2033   28.9837 O   0  0  0  0  0  0  0  0  0  0  0  0
  1  2  1  0
  2  3  1  0
  3  5  1  0
  3  4  1  6
  5  6  2  0
  8  7  1  0
  8 10  1  0
  9  8  2  0
 10 11  1  0
 12 11  1  1
 12 14  1  0
 13 12  1  0
 13  5  1  0
 14 15  2  0
 14 16  1  0
 16 20  1  0
 17 16  1  0
 18 19  1  0
 18 17  1  0
 19 20  1  0
 20 21  1  1
 21 22  2  0
 21 23  1  0
M  END
$$$$
