SQP.pdb
     RDKit          3D

 23 23  0  0  1  0  0  0  0  0999 V2000
    8.8622  -13.8092   18.7896 O   0  0  0  0  0  0  0  0  0  0  0  0
    8.0294  -13.8172   19.8822 C   0  0  0  0  0  0  0  0  0  0  0  0
    7.6930  -15.2444   20.2379 C   0  0  2  0  0  0  0  0  0  0  0  0
    6.6617  -15.6987   19.3300 N   0  0  0  0  0  0  0  0  0  0  0  0
    7.2676  -15.3407   21.6592 C   0  0  0  0  0  0  0  0  0  0  0  0
    6.0958  -14.9654   21.9221 O   0  0  0  0  0  0  0  0  0  0  0  0
    6.9190  -19.0328   27.7323 N   0  0  0  0  0  0  0  0  0  0  0  0
    6.9647  -18.6492   26.3721 C   0  0  0  0  0  0  0  0  0  0  0  0
    6.3754  -19.3380   25.5188 O   0  0  0  0  0  0  0  0  0  0  0  0
    7.7108  -17.4365   25.9815 C   0  0  0  0  0  0  0  0  0  0  0  0
    7.9320  -17.4051   24.4698 C   0  0  0  0  0  0  0  0  0  0  0  0
    7.6451  -15.9491   24.0600 C   0  0  2  0  0  0  0  0  0  0  0  0
    8.1262  -15.8260   22.6661 N   0  0  0  0  0  0  0  0  0  0  0  0
    8.3914  -15.0395   24.9398 C   0  0  0  0  0  0  0  0  0  0  0  0
    9.6739  -15.1131   24.8815 O   0  0  0  0  0  0  0  0  0  0  0  0
    7.8255  -14.0985   25.8350 N   0  0  0  0  0  0  0  0  0  0  0  0
    6.3716  -13.8235   25.8060 C   0  0  0  0  0  0  0  0  0  0  0  0
    6.3222  -12.3546   26.2395 C   0  0  0  0  0  0  0  0  0  0  0  0
    7.3254  -12.3922   27.3575 C   0  0  0  0  0  0  0  0  0  0  0  0
    8.4224  -13.2797   26.8331 C   0  0  1  0  0  0  0  0  0  0  0  0
    9.0101  -14.0874   27.9511 C   0  0  0  0  0  0  0  0  0  0  0  0
    9.7651  -13.4949   28.7603 O   0  0  0  0  0  0  0  0  0  0  0  0
    8.7627  -15.4210   28.1272 O   0  0  0  0  0  0  0  0  0  0  0  0
  1  2  1  0
  2  3  1  0
  3  5  1  0
  3  4  1  6
  5  6  2  0
  8  7  1  0
  8 10  1  0
  9  8  2  0
 10 11  1  0
 12 11  1  1
 12 14  1  0
 13 12  1  0
 13  5  1  0
 14 15  2  0
 14 16  1  0
 16 20  1  0
 17 16  1  0
 18 19  1  0
 18 17  1  0
 19 20  1  0
 20 21  1  1
 21 22  2  0
 21 23  1  0
M  END
$$$$
