SQP.pdb
     RDKit          3D

 23 23  0  0  1  0  0  0  0  0999 V2000
    9.4640  -14.4162   20.4605 O   0  0  0  0  0  0  0  0  0  0  0  0
    8.4451  -14.7920   19.6191 C   0  0  0  0  0  0  0  0  0  0  0  0
    7.7726  -16.0231   20.1749 C   0  0  2  0  0  0  0  0  0  0  0  0
    6.6951  -16.3851   19.2794 N   0  0  0  0  0  0  0  0  0  0  0  0
    7.2886  -15.7727   21.5583 C   0  0  0  0  0  0  0  0  0  0  0  0
    6.1911  -15.1675   21.6690 O   0  0  0  0  0  0  0  0  0  0  0  0
    7.8260  -19.7247   26.1892 N   0  0  0  0  0  0  0  0  0  0  0  0
    7.2634  -18.6037   26.8420 C   0  0  0  0  0  0  0  0  0  0  0  0
    6.9548  -18.6838   28.0455 O   0  0  0  0  0  0  0  0  0  0  0  0
    7.0491  -17.3526   26.0879 C   0  0  0  0  0  0  0  0  0  0  0  0
    7.5320  -17.5046   24.6460 C   0  0  0  0  0  0  0  0  0  0  0  0
    7.4115  -16.0947   24.0397 C   0  0  2  0  0  0  0  0  0  0  0  0
    8.0154  -16.1883   22.6921 N   0  0  0  0  0  0  0  0  0  0  0  0
    8.1608  -15.1419   24.8699 C   0  0  0  0  0  0  0  0  0  0  0  0
    9.4417  -15.2544   24.8532 O   0  0  0  0  0  0  0  0  0  0  0  0
    7.5995  -14.1212   25.6761 N   0  0  0  0  0  0  0  0  0  0  0  0
    6.1772  -13.7440   25.5176 C   0  0  0  0  0  0  0  0  0  0  0  0
    6.2052  -12.2563   25.8841 C   0  0  0  0  0  0  0  0  0  0  0  0
    7.1123  -12.3129   27.0805 C   0  0  0  0  0  0  0  0  0  0  0  0
    8.1768  -13.3009   26.6845 C   0  0  1  0  0  0  0  0  0  0  0  0
    8.6128  -14.0948   27.8792 C   0  0  0  0  0  0  0  0  0  0  0  0
    9.3353  -13.5168   28.7276 O   0  0  0  0  0  0  0  0  0  0  0  0
    8.2623  -15.4009   28.0840 O   0  0  0  0  0  0  0  0  0  0  0  0
  1  2  1  0
  2  3  1  0
  3  5  1  0
  3  4  1  6
  5  6  2  0
  8  7  1  0
  8 10  1  0
  9  8  2  0
 10 11  1  0
 12 11  1  1
 12 14  1  0
 13 12  1  0
 13  5  1  0
 14 15  2  0
 14 16  1  0
 16 20  1  0
 17 16  1  0
 18 19  1  0
 18 17  1  0
 19 20  1  0
 20 21  1  1
 21 22  2  0
 21 23  1  0
M  END
$$$$
