SQP.pdb
     RDKit          3D

 23 23  0  0  1  0  0  0  0  0999 V2000
    9.4429  -12.7927   20.1939 O   0  0  0  0  0  0  0  0  0  0  0  0
    9.3068  -14.1449   19.9934 C   0  0  0  0  0  0  0  0  0  0  0  0
    7.8435  -14.5087   20.0485 C   0  0  2  0  0  0  0  0  0  0  0  0
    7.1087  -13.5161   19.2942 N   0  0  0  0  0  0  0  0  0  0  0  0
    7.3805  -14.5938   21.4588 C   0  0  0  0  0  0  0  0  0  0  0  0
    6.5222  -13.7479   21.8207 O   0  0  0  0  0  0  0  0  0  0  0  0
    7.6444  -19.6286   25.2360 N   0  0  0  0  0  0  0  0  0  0  0  0
    7.0593  -18.6290   26.0470 C   0  0  0  0  0  0  0  0  0  0  0  0
    6.7049  -18.9081   27.2074 O   0  0  0  0  0  0  0  0  0  0  0  0
    6.8763  -17.2670   25.5073 C   0  0  0  0  0  0  0  0  0  0  0  0
    7.4292  -17.1734   24.0857 C   0  0  0  0  0  0  0  0  0  0  0  0
    7.3067  -15.6848   23.7128 C   0  0  2  0  0  0  0  0  0  0  0  0
    7.8724  -15.5681   22.3505 N   0  0  0  0  0  0  0  0  0  0  0  0
    8.0882  -14.8792   24.6608 C   0  0  0  0  0  0  0  0  0  0  0  0
    9.3664  -15.0070   24.6005 O   0  0  0  0  0  0  0  0  0  0  0  0
    7.5603  -13.9834   25.6231 N   0  0  0  0  0  0  0  0  0  0  0  0
    6.1119  -13.6798   25.6428 C   0  0  0  0  0  0  0  0  0  0  0  0
    6.1013  -12.2390   26.1644 C   0  0  0  0  0  0  0  0  0  0  0  0
    7.1267  -12.3630   27.2557 C   0  0  0  0  0  0  0  0  0  0  0  0
    8.1943  -13.2378   26.6550 C   0  0  1  0  0  0  0  0  0  0  0  0
    8.7889  -14.1225   27.7093 C   0  0  0  0  0  0  0  0  0  0  0  0
    9.5845  -13.5974   28.5262 O   0  0  0  0  0  0  0  0  0  0  0  0
    8.5061  -15.4560   27.8203 O   0  0  0  0  0  0  0  0  0  0  0  0
  1  2  1  0
  2  3  1  0
  3  5  1  0
  3  4  1  6
  5  6  2  0
  8  7  1  0
  8 10  1  0
  9  8  2  0
 10 11  1  0
 12 11  1  1
 12 14  1  0
 13 12  1  0
 13  5  1  0
 14 15  2  0
 14 16  1  0
 16 20  1  0
 17 16  1  0
 18 19  1  0
 18 17  1  0
 19 20  1  0
 20 21  1  1
 21 22  2  0
 21 23  1  0
M  END
$$$$
