SQP.pdb
     RDKit          3D

 23 23  0  0  1  0  0  0  0  0999 V2000
    7.2126  -21.3913   17.6426 O   0  0  0  0  0  0  0  0  0  0  0  0
    7.4045  -20.1271   18.1449 C   0  0  0  0  0  0  0  0  0  0  0  0
    6.0960  -19.6051   18.6853 C   0  0  2  0  0  0  0  0  0  0  0  0
    5.1490  -19.5590   17.5922 N   0  0  0  0  0  0  0  0  0  0  0  0
    6.2871  -18.2720   19.3151 C   0  0  0  0  0  0  0  0  0  0  0  0
    5.9963  -17.2706   18.6110 O   0  0  0  0  0  0  0  0  0  0  0  0
    7.5241  -16.9539   25.4188 N   0  0  0  0  0  0  0  0  0  0  0  0
    7.5154  -15.6924   24.7800 C   0  0  0  0  0  0  0  0  0  0  0  0
    7.6571  -14.6584   25.4588 O   0  0  0  0  0  0  0  0  0  0  0  0
    7.3384  -15.6179   23.3162 C   0  0  0  0  0  0  0  0  0  0  0  0
    7.0456  -17.0022   22.7389 C   0  0  0  0  0  0  0  0  0  0  0  0
    6.9434  -16.7813   21.2187 C   0  0  2  0  0  0  0  0  0  0  0  0
    6.7688  -18.1285   20.6319 N   0  0  0  0  0  0  0  0  0  0  0  0
    8.1867  -16.1693   20.7308 C   0  0  0  0  0  0  0  0  0  0  0  0
    9.2150  -16.9389   20.6665 O   0  0  0  0  0  0  0  0  0  0  0  0
    8.3471  -14.8204   20.3286 N   0  0  0  0  0  0  0  0  0  0  0  0
    7.1942  -13.8928   20.3553 C   0  0  0  0  0  0  0  0  0  0  0  0
    7.5290  -12.9442   19.1994 C   0  0  0  0  0  0  0  0  0  0  0  0
    8.9959  -12.7468   19.4577 C   0  0  0  0  0  0  0  0  0  0  0  0
    9.4850  -14.1162   19.8467 C   0  0  1  0  0  0  0  0  0  0  0  0
   10.5619  -14.0031   20.8837 C   0  0  0  0  0  0  0  0  0  0  0  0
   10.2418  -14.2185   22.0783 O   0  0  0  0  0  0  0  0  0  0  0  0
   11.8586  -13.6820   20.5905 O   0  0  0  0  0  0  0  0  0  0  0  0
  1  2  1  0
  2  3  1  0
  3  5  1  0
  3  4  1  6
  5  6  2  0
  8  7  1  0
  8 10  1  0
  9  8  2  0
 10 11  1  0
 12 11  1  1
 12 14  1  0
 13 12  1  0
 13  5  1  0
 14 15  2  0
 14 16  1  0
 16 20  1  0
 17 16  1  0
 18 19  1  0
 18 17  1  0
 19 20  1  0
 20 21  1  1
 21 22  2  0
 21 23  1  0
M  END
$$$$
