SQP.pdb
     RDKit          3D

 23 23  0  0  1  0  0  0  0  0999 V2000
    4.4432  -21.0699   20.7757 O   0  0  0  0  0  0  0  0  0  0  0  0
    4.4160  -19.7070   20.6051 C   0  0  0  0  0  0  0  0  0  0  0  0
    3.8281  -19.0654   21.8377 C   0  0  2  0  0  0  0  0  0  0  0  0
    2.4333  -18.7857   21.5724 N   0  0  0  0  0  0  0  0  0  0  0  0
    4.5852  -17.8375   22.1975 C   0  0  0  0  0  0  0  0  0  0  0  0
    4.1521  -16.7527   21.7297 O   0  0  0  0  0  0  0  0  0  0  0  0
    8.7267  -16.9256   26.8922 N   0  0  0  0  0  0  0  0  0  0  0  0
    8.7628  -15.7176   26.1583 C   0  0  0  0  0  0  0  0  0  0  0  0
    9.4526  -14.7672   26.5718 O   0  0  0  0  0  0  0  0  0  0  0  0
    7.9818  -15.5988   24.9110 C   0  0  0  0  0  0  0  0  0  0  0  0
    7.1917  -16.8800   24.6474 C   0  0  0  0  0  0  0  0  0  0  0  0
    6.4904  -16.6396   23.2981 C   0  0  2  0  0  0  0  0  0  0  0  0
    5.7297  -17.8777   23.0191 N   0  0  0  0  0  0  0  0  0  0  0  0
    7.5021  -16.4164   22.2564 C   0  0  0  0  0  0  0  0  0  0  0  0
    8.1804  -17.4454   21.8894 O   0  0  0  0  0  0  0  0  0  0  0  0
    7.7894  -15.1795   21.6282 N   0  0  0  0  0  0  0  0  0  0  0  0
    7.0537  -13.9565   22.0194 C   0  0  0  0  0  0  0  0  0  0  0  0
    7.0399  -13.1662   20.7066 C   0  0  0  0  0  0  0  0  0  0  0  0
    8.4560  -13.3994   20.2620 C   0  0  0  0  0  0  0  0  0  0  0  0
    8.7096  -14.8451   20.5965 C   0  0  1  0  0  0  0  0  0  0  0  0
   10.1339  -15.0322   21.0257 C   0  0  0  0  0  0  0  0  0  0  0  0
   10.3591  -15.1462   22.2554 O   0  0  0  0  0  0  0  0  0  0  0  0
   11.1833  -15.0852   20.1500 O   0  0  0  0  0  0  0  0  0  0  0  0
  1  2  1  0
  2  3  1  0
  3  5  1  0
  3  4  1  6
  5  6  2  0
  8  7  1  0
  8 10  1  0
  9  8  2  0
 10 11  1  0
 12 11  1  1
 12 14  1  0
 13 12  1  0
 13  5  1  0
 14 15  2  0
 14 16  1  0
 16 20  1  0
 17 16  1  0
 18 19  1  0
 18 17  1  0
 19 20  1  0
 20 21  1  1
 21 22  2  0
 21 23  1  0
M  END
$$$$
