TQN.pdb
     RDKit          3D

 25 24  0  0  1  0  0  0  0  0999 V2000
   36.4963  -10.5272   -7.9234 C   0  0  0  0  0  0  0  0  0  0  0  0
   37.9808  -10.2854   -7.8164 C   0  0  1  0  0  0  0  0  0  0  0  0
   38.5728  -11.4341   -7.3152 O   0  0  0  0  0  0  0  0  0  0  0  0
   38.5939   -9.8202   -9.1008 C   0  0  2  0  0  0  0  0  0  0  0  0
   38.3152  -10.7455  -10.1516 N   0  0  0  0  0  0  0  0  0  0  0  0
   40.0537   -9.5366   -8.9680 C   0  0  0  0  0  0  0  0  0  0  0  0
   40.8450  -10.3326   -9.5036 O   0  0  0  0  0  0  0  0  0  0  0  0
   42.3341   -3.8934   -7.1343 N   0  0  0  0  0  0  0  0  0  0  0  0
   41.7713   -4.2236   -8.3903 C   0  0  0  0  0  0  0  0  0  0  0  0
   41.3869   -3.3287   -9.1739 O   0  0  0  0  0  0  0  0  0  0  0  0
   41.6310   -5.6429   -8.7922 C   0  0  0  0  0  0  0  0  0  0  0  0
   42.0912   -6.5466   -7.6943 C   0  0  0  0  0  0  0  0  0  0  0  0
   41.8600   -8.0179   -7.9739 C   0  0  2  0  0  0  0  0  0  0  0  0
   40.5347   -8.4147   -8.2662 N   0  0  0  0  0  0  0  0  0  0  0  0
   42.6168   -8.8332   -7.0395 C   0  0  0  0  0  0  0  0  0  0  0  0
   42.1900   -9.1615   -5.8978 O   0  0  0  0  0  0  0  0  0  0  0  0
   46.2883  -12.2323   -5.4332 N   0  0  0  0  0  0  0  0  0  0  0  0
   45.9111  -12.3723   -6.7848 C   0  0  0  0  0  0  0  0  0  0  0  0
   46.3242  -13.3659   -7.4157 O   0  0  0  0  0  0  0  0  0  0  0  0
   45.0572  -11.3706   -7.4171 C   0  0  0  0  0  0  0  0  0  0  0  0
   44.6740  -10.2271   -6.5232 C   0  0  2  0  0  0  0  0  0  0  0  0
   43.9073   -9.3060   -7.3882 N   0  0  0  0  0  0  0  0  0  0  0  0
   45.8347   -9.4326   -6.0509 C   0  0  0  0  0  0  0  0  0  0  0  0
   46.1595   -9.4175   -4.8338 O   0  0  0  0  0  0  0  0  0  0  0  0
   46.6413   -8.6582   -6.8895 O   0  0  0  0  0  0  0  0  0  0  0  0
  2  3  1  0
  2  1  1  6
  4  2  1  0
  4  5  1  6
  6  4  1  0
  6 14  1  0
  7  6  2  0
  9 10  2  0
  9  8  1  0
 11  9  1  0
 12 11  1  0
 13 12  1  1
 13 14  1  0
 15 22  1  0
 15 13  1  0
 16 15  2  0
 18 20  1  0
 18 17  1  0
 19 18  2  0
 21 22  1  0
 21 20  1  6
 23 21  1  0
 24 23  2  0
 25 23  1  0
M  END
$$$$
