TQN.pdb
     RDKit          3D

 25 24  0  0  1  0  0  0  0  0999 V2000
   16.2019  -13.8799  -17.8867 C   0  0  0  0  0  0  0  0  0  0  0  0
   16.3693  -12.6359  -17.0513 C   0  0  1  0  0  0  0  0  0  0  0  0
   15.2626  -12.5150  -16.2256 O   0  0  0  0  0  0  0  0  0  0  0  0
   17.6668  -12.6004  -16.3046 C   0  0  2  0  0  0  0  0  0  0  0  0
   17.8046  -13.7623  -15.4867 N   0  0  0  0  0  0  0  0  0  0  0  0
   17.8461  -11.3373  -15.5292 C   0  0  0  0  0  0  0  0  0  0  0  0
   17.3294  -11.2779  -14.3995 O   0  0  0  0  0  0  0  0  0  0  0  0
   22.8894   -7.8095  -15.7473 N   0  0  0  0  0  0  0  0  0  0  0  0
   22.6136   -8.9667  -14.9804 C   0  0  0  0  0  0  0  0  0  0  0  0
   23.5352   -9.5928  -14.4136 O   0  0  0  0  0  0  0  0  0  0  0  0
   21.2204   -9.4514  -14.8405 C   0  0  0  0  0  0  0  0  0  0  0  0
   20.2663   -8.4973  -15.4835 C   0  0  0  0  0  0  0  0  0  0  0  0
   18.8274   -8.9726  -15.4789 C   0  0  2  0  0  0  0  0  0  0  0  0
   18.5700  -10.2438  -16.0419 N   0  0  0  0  0  0  0  0  0  0  0  0
   17.9360   -7.8833  -15.8386 C   0  0  0  0  0  0  0  0  0  0  0  0
   17.4813   -7.7116  -17.0036 O   0  0  0  0  0  0  0  0  0  0  0  0
   14.4661   -4.0169  -15.1579 N   0  0  0  0  0  0  0  0  0  0  0  0
   14.2477   -5.2504  -14.5103 C   0  0  0  0  0  0  0  0  0  0  0  0
   13.1475   -5.4414  -13.9544 O   0  0  0  0  0  0  0  0  0  0  0  0
   15.2931   -6.2699  -14.4990 C   0  0  0  0  0  0  0  0  0  0  0  0
   16.5761   -5.8517  -15.1567 C   0  0  2  0  0  0  0  0  0  0  0  0
   17.5304   -6.9407  -14.8601 N   0  0  0  0  0  0  0  0  0  0  0  0
   17.1801   -4.6379  -14.5539 C   0  0  0  0  0  0  0  0  0  0  0  0
   17.9627   -4.7217  -13.5703 O   0  0  0  0  0  0  0  0  0  0  0  0
   16.9402   -3.3394  -15.0119 O   0  0  0  0  0  0  0  0  0  0  0  0
  2  3  1  0
  2  1  1  1
  4  2  1  0
  4  5  1  1
  6  4  1  0
  6 14  1  0
  7  6  2  0
  9 10  2  0
  9  8  1  0
 11  9  1  0
 12 11  1  0
 13 12  1  6
 13 14  1  0
 15 22  1  0
 15 13  1  0
 16 15  2  0
 18 20  1  0
 18 17  1  0
 19 18  2  0
 21 22  1  0
 21 20  1  1
 23 21  1  0
 24 23  2  0
 25 23  1  0
M  END
$$$$
