TQN.pdb
     RDKit          3D

 25 24  0  0  1  0  0  0  0  0999 V2000
   44.7346  -13.8817   -6.3291 C   0  0  0  0  0  0  0  0  0  0  0  0
   44.0295  -12.5836   -6.6309 C   0  0  1  0  0  0  0  0  0  0  0  0
   44.9687  -11.5645   -6.6120 O   0  0  0  0  0  0  0  0  0  0  0  0
   43.2354  -12.6280   -7.8996 C   0  0  2  0  0  0  0  0  0  0  0  0
   44.0471  -13.0850   -8.9814 N   0  0  0  0  0  0  0  0  0  0  0  0
   42.5678  -11.3275   -8.2024 C   0  0  0  0  0  0  0  0  0  0  0  0
   43.1960  -10.5058   -8.8930 O   0  0  0  0  0  0  0  0  0  0  0  0
   36.3895  -10.3692   -7.7319 N   0  0  0  0  0  0  0  0  0  0  0  0
   37.0577  -10.6816   -6.5239 C   0  0  0  0  0  0  0  0  0  0  0  0
   36.4268  -11.1260   -5.5406 O   0  0  0  0  0  0  0  0  0  0  0  0
   38.5219  -10.4838   -6.4115 C   0  0  0  0  0  0  0  0  0  0  0  0
   39.0646   -9.8649   -7.6591 C   0  0  0  0  0  0  0  0  0  0  0  0
   40.5778   -9.7957   -7.7011 C   0  0  2  0  0  0  0  0  0  0  0  0
   41.2755  -11.0251   -7.7319 N   0  0  0  0  0  0  0  0  0  0  0  0
   41.0605   -8.7697   -6.7928 C   0  0  0  0  0  0  0  0  0  0  0  0
   41.2827   -8.9735   -5.5671 O   0  0  0  0  0  0  0  0  0  0  0  0
   45.2932   -7.5949   -5.8745 N   0  0  0  0  0  0  0  0  0  0  0  0
   44.1402   -6.8353   -5.5878 C   0  0  0  0  0  0  0  0  0  0  0  0
   43.8622   -6.6074   -4.3933 O   0  0  0  0  0  0  0  0  0  0  0  0
   43.3015   -6.3342   -6.6731 C   0  0  0  0  0  0  0  0  0  0  0  0
   41.8275   -6.3836   -6.3930 C   0  0  2  0  0  0  0  0  0  0  0  0
   41.3080   -7.4565   -7.2668 N   0  0  0  0  0  0  0  0  0  0  0  0
   41.1046   -5.1595   -6.8178 C   0  0  0  0  0  0  0  0  0  0  0  0
   40.7598   -4.9921   -8.0179 O   0  0  0  0  0  0  0  0  0  0  0  0
   40.7552   -4.1210   -5.9501 O   0  0  0  0  0  0  0  0  0  0  0  0
  2  3  1  0
  2  1  1  6
  4  2  1  0
  4  5  1  6
  6  4  1  0
  6 14  1  0
  7  6  2  0
  9 10  2  0
  9  8  1  0
 11  9  1  0
 12 11  1  0
 13 12  1  1
 13 14  1  0
 15 22  1  0
 15 13  1  0
 16 15  2  0
 18 20  1  0
 18 17  1  0
 19 18  2  0
 21 22  1  0
 21 20  1  6
 23 21  1  0
 24 23  2  0
 25 23  1  0
M  END
$$$$
