TQN.pdb
     RDKit          3D

 25 24  0  0  1  0  0  0  0  0999 V2000
   17.0189  -12.8691  -13.7774 C   0  0  0  0  0  0  0  0  0  0  0  0
   17.2892  -11.4093  -13.5136 C   0  0  1  0  0  0  0  0  0  0  0  0
   18.2040  -10.9604  -14.4532 O   0  0  0  0  0  0  0  0  0  0  0  0
   16.0428  -10.5811  -13.4638 C   0  0  2  0  0  0  0  0  0  0  0  0
   15.3226  -10.6876  -14.6919 N   0  0  0  0  0  0  0  0  0  0  0  0
   16.3136   -9.1621  -13.0872 C   0  0  0  0  0  0  0  0  0  0  0  0
   16.3281   -8.3177  -14.0001 O   0  0  0  0  0  0  0  0  0  0  0  0
   15.3223   -6.5114   -7.3857 N   0  0  0  0  0  0  0  0  0  0  0  0
   14.3996   -7.0416   -8.3188 C   0  0  0  0  0  0  0  0  0  0  0  0
   13.2032   -7.2207   -8.0040 O   0  0  0  0  0  0  0  0  0  0  0  0
   14.8450   -7.3922   -9.6879 C   0  0  0  0  0  0  0  0  0  0  0  0
   16.3222   -7.2076   -9.8219 C   0  0  0  0  0  0  0  0  0  0  0  0
   16.8543   -7.5079  -11.2087 C   0  0  2  0  0  0  0  0  0  0  0  0
   16.5461   -8.7758  -11.7532 N   0  0  0  0  0  0  0  0  0  0  0  0
   18.2213   -7.0336  -11.3373 C   0  0  0  0  0  0  0  0  0  0  0  0
   19.2049   -7.5811  -10.7662 O   0  0  0  0  0  0  0  0  0  0  0  0
   22.4243   -5.1050  -13.5623 N   0  0  0  0  0  0  0  0  0  0  0  0
   21.8525   -6.3901  -13.6630 C   0  0  0  0  0  0  0  0  0  0  0  0
   22.4966   -7.2810  -14.2524 O   0  0  0  0  0  0  0  0  0  0  0  0
   20.5375   -6.6568  -13.0866 C   0  0  0  0  0  0  0  0  0  0  0  0
   19.8934   -5.4692  -12.4321 C   0  0  2  0  0  0  0  0  0  0  0  0
   18.5104   -5.8988  -12.1368 N   0  0  0  0  0  0  0  0  0  0  0  0
   19.7476   -4.3031  -13.3378 C   0  0  0  0  0  0  0  0  0  0  0  0
   20.6350   -3.4107  -13.3959 O   0  0  0  0  0  0  0  0  0  0  0  0
   18.6485   -4.1019  -14.1774 O   0  0  0  0  0  0  0  0  0  0  0  0
  2  3  1  0
  2  1  1  6
  4  2  1  0
  4  5  1  6
  6  4  1  0
  6 14  1  0
  7  6  2  0
  9 10  2  0
  9  8  1  0
 11  9  1  0
 12 11  1  0
 13 12  1  1
 13 14  1  0
 15 22  1  0
 15 13  1  0
 16 15  2  0
 18 20  1  0
 18 17  1  0
 19 18  2  0
 21 22  1  0
 21 20  1  6
 23 21  1  0
 24 23  2  0
 25 23  1  0
M  END
$$$$
