TQN.pdb
     RDKit          3D

 25 24  0  0  1  0  0  0  0  0999 V2000
   12.0219   -8.7398  -10.7245 C   0  0  0  0  0  0  0  0  0  0  0  0
   13.2576   -9.5447  -10.4103 C   0  0  1  0  0  0  0  0  0  0  0  0
   13.1451  -10.0255   -9.1152 O   0  0  0  0  0  0  0  0  0  0  0  0
   13.5287  -10.6207  -11.4157 C   0  0  2  0  0  0  0  0  0  0  0  0
   13.8075  -11.8580  -10.7605 N   0  0  0  0  0  0  0  0  0  0  0  0
   14.5972  -10.2404  -12.3865 C   0  0  0  0  0  0  0  0  0  0  0  0
   15.6016  -10.9710  -12.4513 O   0  0  0  0  0  0  0  0  0  0  0  0
   13.7006   -6.1717  -17.2307 N   0  0  0  0  0  0  0  0  0  0  0  0
   15.0576   -6.5414  -17.3898 C   0  0  0  0  0  0  0  0  0  0  0  0
   15.7030   -6.1862  -18.3996 O   0  0  0  0  0  0  0  0  0  0  0  0
   15.7318   -7.3589  -16.3541 C   0  0  0  0  0  0  0  0  0  0  0  0
   14.7807   -7.6971  -15.2517 C   0  0  0  0  0  0  0  0  0  0  0  0
   15.3767   -8.5860  -14.1789 C   0  0  2  0  0  0  0  0  0  0  0  0
   14.4889   -9.1006  -13.2062 N   0  0  0  0  0  0  0  0  0  0  0  0
   16.6400   -8.0385  -13.7156 C   0  0  0  0  0  0  0  0  0  0  0  0
   16.7292   -7.1621  -12.8114 O   0  0  0  0  0  0  0  0  0  0  0  0
   21.8748   -7.3995  -13.3981 N   0  0  0  0  0  0  0  0  0  0  0  0
   21.5459   -8.6819  -13.8837 C   0  0  0  0  0  0  0  0  0  0  0  0
   22.4727   -9.4849  -14.1123 O   0  0  0  0  0  0  0  0  0  0  0  0
   20.1501   -9.0471  -14.1086 C   0  0  0  0  0  0  0  0  0  0  0  0
   19.1709   -7.9335  -13.8746 C   0  0  2  0  0  0  0  0  0  0  0  0
   17.8612   -8.4840  -14.2819 N   0  0  0  0  0  0  0  0  0  0  0  0
   19.3865   -6.7622  -14.7595 C   0  0  0  0  0  0  0  0  0  0  0  0
   19.7633   -5.6550  -14.2914 O   0  0  0  0  0  0  0  0  0  0  0  0
   19.1965   -6.7870  -16.1440 O   0  0  0  0  0  0  0  0  0  0  0  0
  2  3  1  0
  2  1  1  6
  4  2  1  0
  4  5  1  1
  6  4  1  0
  6 14  1  0
  7  6  2  0
  9 10  2  0
  9  8  1  0
 11  9  1  0
 12 11  1  0
 13 12  1  1
 13 14  1  0
 15 22  1  0
 15 13  1  0
 16 15  2  0
 18 20  1  0
 18 17  1  0
 19 18  2  0
 21 22  1  0
 21 20  1  6
 23 21  1  0
 24 23  2  0
 25 23  1  0
M  END
$$$$
