TQN.pdb
     RDKit          3D

 25 24  0  0  1  0  0  0  0  0999 V2000
   25.1572  -11.3959  -15.7113 C   0  0  0  0  0  0  0  0  0  0  0  0
   24.5117  -12.4672  -16.5534 C   0  0  1  0  0  0  0  0  0  0  0  0
   25.1436  -13.6710  -16.2839 O   0  0  0  0  0  0  0  0  0  0  0  0
   23.0254  -12.5321  -16.3828 C   0  0  2  0  0  0  0  0  0  0  0  0
   22.4885  -13.6448  -17.0980 N   0  0  0  0  0  0  0  0  0  0  0  0
   22.3519  -11.2491  -16.7424 C   0  0  0  0  0  0  0  0  0  0  0  0
   22.6889  -10.7016  -17.8070 O   0  0  0  0  0  0  0  0  0  0  0  0
   16.4484   -9.9674  -16.0196 N   0  0  0  0  0  0  0  0  0  0  0  0
   17.1691  -10.7606  -16.9441 C   0  0  0  0  0  0  0  0  0  0  0  0
   16.5816  -11.5977  -17.6629 O   0  0  0  0  0  0  0  0  0  0  0  0
   18.6374  -10.6061  -17.0703 C   0  0  0  0  0  0  0  0  0  0  0  0
   19.1380   -9.5629  -16.1243 C   0  0  0  0  0  0  0  0  0  0  0  0
   20.6489   -9.4590  -16.0697 C   0  0  2  0  0  0  0  0  0  0  0  0
   21.3697  -10.6661  -15.9190 N   0  0  0  0  0  0  0  0  0  0  0  0
   21.0467   -8.3295  -15.2473 C   0  0  0  0  0  0  0  0  0  0  0  0
   21.3813   -8.4348  -14.0347 O   0  0  0  0  0  0  0  0  0  0  0  0
   22.4233   -3.3872  -14.0534 N   0  0  0  0  0  0  0  0  0  0  0  0
   22.7509   -3.7366  -15.3797 C   0  0  0  0  0  0  0  0  0  0  0  0
   23.4052   -2.9234  -16.0626 O   0  0  0  0  0  0  0  0  0  0  0  0
   22.3275   -5.0226  -15.9270 C   0  0  0  0  0  0  0  0  0  0  0  0
   21.4702   -5.8389  -15.0038 C   0  0  2  0  0  0  0  0  0  0  0  0
   21.0746   -7.0224  -15.7960 N   0  0  0  0  0  0  0  0  0  0  0  0
   20.1934   -5.1749  -14.6427 C   0  0  0  0  0  0  0  0  0  0  0  0
   19.1900   -5.2399  -15.4018 O   0  0  0  0  0  0  0  0  0  0  0  0
   20.0010   -4.4445  -13.4668 O   0  0  0  0  0  0  0  0  0  0  0  0
  2  3  1  0
  2  1  1  1
  4  2  1  0
  4  5  1  6
  6  4  1  0
  6 14  1  0
  7  6  2  0
  9 10  2  0
  9  8  1  0
 11  9  1  0
 12 11  1  0
 13 12  1  1
 13 14  1  0
 15 22  1  0
 15 13  1  0
 16 15  2  0
 18 20  1  0
 18 17  1  0
 19 18  2  0
 21 22  1  0
 21 20  1  6
 23 21  1  0
 24 23  2  0
 25 23  1  0
M  END
$$$$
