TQN.pdb
     RDKit          3D

 25 24  0  0  1  0  0  0  0  0999 V2000
   13.1661  -25.8790   -7.4062 C   0  0  0  0  0  0  0  0  0  0  0  0
   14.1787  -25.1282   -8.2336 C   0  0  1  0  0  0  0  0  0  0  0  0
   13.7380  -25.1098   -9.5476 O   0  0  0  0  0  0  0  0  0  0  0  0
   14.4810  -23.7640   -7.6955 C   0  0  2  0  0  0  0  0  0  0  0  0
   15.3798  -23.0726   -8.5628 N   0  0  0  0  0  0  0  0  0  0  0  0
   14.9702  -23.8007   -6.2855 C   0  0  0  0  0  0  0  0  0  0  0  0
   16.1702  -24.0699   -6.1001 O   0  0  0  0  0  0  0  0  0  0  0  0
   12.0951  -20.9081   -1.4097 N   0  0  0  0  0  0  0  0  0  0  0  0
   13.1470  -21.5984   -0.7615 C   0  0  0  0  0  0  0  0  0  0  0  0
   13.3864  -21.4067    0.4503 O   0  0  0  0  0  0  0  0  0  0  0  0
   13.9810  -22.5619   -1.5175 C   0  0  0  0  0  0  0  0  0  0  0  0
   13.5266  -22.6463   -2.9389 C   0  0  0  0  0  0  0  0  0  0  0  0
   14.3866  -23.5441   -3.8053 C   0  0  2  0  0  0  0  0  0  0  0  0
   14.1191  -23.5431   -5.1937 N   0  0  0  0  0  0  0  0  0  0  0  0
   14.5841  -24.8296   -3.1581 C   0  0  0  0  0  0  0  0  0  0  0  0
   13.7293  -25.7582   -3.1790 O   0  0  0  0  0  0  0  0  0  0  0  0
   17.3307  -28.9019   -2.0824 N   0  0  0  0  0  0  0  0  0  0  0  0
   18.1529  -27.7863   -1.8215 C   0  0  0  0  0  0  0  0  0  0  0  0
   19.3806  -27.9702   -1.7000 O   0  0  0  0  0  0  0  0  0  0  0  0
   17.5673  -26.4542   -1.6992 C   0  0  0  0  0  0  0  0  0  0  0  0
   16.0744  -26.4152   -1.8518 C   0  0  2  0  0  0  0  0  0  0  0  0
   15.7860  -25.0971   -2.4551 N   0  0  0  0  0  0  0  0  0  0  0  0
   15.3487  -26.4116   -0.5577 C   0  0  0  0  0  0  0  0  0  0  0  0
   14.9612  -27.4866   -0.0272 O   0  0  0  0  0  0  0  0  0  0  0  0
   15.0432  -25.2522    0.1605 O   0  0  0  0  0  0  0  0  0  0  0  0
  2  3  1  0
  2  1  1  1
  4  2  1  0
  4  5  1  6
  6  4  1  0
  6 14  1  0
  7  6  2  0
  9 10  2  0
  9  8  1  0
 11  9  1  0
 12 11  1  0
 13 12  1  1
 13 14  1  0
 15 22  1  0
 15 13  1  0
 16 15  2  0
 18 20  1  0
 18 17  1  0
 19 18  2  0
 21 22  1  0
 21 20  1  1
 23 21  1  0
 24 23  2  0
 25 23  1  0
M  END
$$$$
