TQN.pdb
     RDKit          3D

 25 24  0  0  1  0  0  0  0  0999 V2000
   21.7510   -9.6961  -20.5457 C   0  0  0  0  0  0  0  0  0  0  0  0
   21.5850  -10.9474  -19.7212 C   0  0  1  0  0  0  0  0  0  0  0  0
   21.0172  -11.9243  -20.5240 O   0  0  0  0  0  0  0  0  0  0  0  0
   22.8556  -11.3910  -19.0648 C   0  0  2  0  0  0  0  0  0  0  0  0
   22.6814  -12.6677  -18.4503 N   0  0  0  0  0  0  0  0  0  0  0  0
   23.3938  -10.3734  -18.1142 C   0  0  0  0  0  0  0  0  0  0  0  0
   22.6960  -10.0836  -17.1264 O   0  0  0  0  0  0  0  0  0  0  0  0
   29.3457   -8.0848  -18.5122 N   0  0  0  0  0  0  0  0  0  0  0  0
   28.9498   -9.4004  -18.1717 C   0  0  0  0  0  0  0  0  0  0  0  0
   29.7683  -10.3444  -18.2092 O   0  0  0  0  0  0  0  0  0  0  0  0
   27.5516   -9.6742  -17.7646 C   0  0  0  0  0  0  0  0  0  0  0  0
   26.7205   -8.4372  -17.8789 C   0  0  0  0  0  0  0  0  0  0  0  0
   25.2424   -8.6670  -17.6362 C   0  0  2  0  0  0  0  0  0  0  0  0
   24.6428   -9.7543  -18.3126 N   0  0  0  0  0  0  0  0  0  0  0  0
   24.5300   -7.4010  -17.6312 C   0  0  0  0  0  0  0  0  0  0  0  0
   24.4902   -6.6206  -18.6225 O   0  0  0  0  0  0  0  0  0  0  0  0
   21.0829   -3.7444  -16.3131 N   0  0  0  0  0  0  0  0  0  0  0  0
   20.6801   -5.0315  -16.7251 C   0  0  0  0  0  0  0  0  0  0  0  0
   19.4826   -5.2103  -17.0251 O   0  0  0  0  0  0  0  0  0  0  0  0
   21.6523   -6.1190  -16.7941 C   0  0  0  0  0  0  0  0  0  0  0  0
   23.0534   -5.7242  -16.4272 C   0  0  2  0  0  0  0  0  0  0  0  0
   23.8291   -6.9815  -16.4722 N   0  0  0  0  0  0  0  0  0  0  0  0
   23.1842   -5.2428  -15.0298 C   0  0  0  0  0  0  0  0  0  0  0  0
   23.7533   -5.9442  -14.1516 O   0  0  0  0  0  0  0  0  0  0  0  0
   22.7028   -4.0090  -14.5830 O   0  0  0  0  0  0  0  0  0  0  0  0
  2  3  1  0
  2  1  1  6
  4  2  1  0
  4  5  1  1
  6  4  1  0
  6 14  1  0
  7  6  2  0
  9 10  2  0
  9  8  1  0
 11  9  1  0
 12 11  1  0
 13 12  1  6
 13 14  1  0
 15 22  1  0
 15 13  1  0
 16 15  2  0
 18 20  1  0
 18 17  1  0
 19 18  2  0
 21 22  1  0
 21 20  1  1
 23 21  1  0
 24 23  2  0
 25 23  1  0
M  END
$$$$
