TQN.pdb
     RDKit          3D

 25 24  0  0  1  0  0  0  0  0999 V2000
   27.9020  -20.8082  -11.7400 C   0  0  0  0  0  0  0  0  0  0  0  0
   26.8668  -20.3342  -12.7285 C   0  0  1  0  0  0  0  0  0  0  0  0
   27.3691  -20.5214  -14.0067 O   0  0  0  0  0  0  0  0  0  0  0  0
   25.5262  -20.9693  -12.5245 C   0  0  2  0  0  0  0  0  0  0  0  0
   25.6036  -22.3789  -12.7367 N   0  0  0  0  0  0  0  0  0  0  0  0
   24.4589  -20.3300  -13.3497 C   0  0  0  0  0  0  0  0  0  0  0  0
   24.0461  -19.2132  -12.9906 O   0  0  0  0  0  0  0  0  0  0  0  0
   23.0045  -17.5408  -16.6763 N   0  0  0  0  0  0  0  0  0  0  0  0
   24.3246  -18.0237  -16.8430 C   0  0  0  0  0  0  0  0  0  0  0  0
   25.2905  -17.2333  -16.9128 O   0  0  0  0  0  0  0  0  0  0  0  0
   24.5770  -19.4807  -16.9373 C   0  0  0  0  0  0  0  0  0  0  0  0
   23.2985  -20.2438  -16.8059 C   0  0  0  0  0  0  0  0  0  0  0  0
   22.9016  -20.5330  -15.3723 C   0  0  2  0  0  0  0  0  0  0  0  0
   23.9277  -20.9535  -14.4951 N   0  0  0  0  0  0  0  0  0  0  0  0
   21.6436  -21.2587  -15.3346 C   0  0  0  0  0  0  0  0  0  0  0  0
   21.5351  -22.4801  -15.6343 O   0  0  0  0  0  0  0  0  0  0  0  0
   16.6470  -22.2924  -14.0991 N   0  0  0  0  0  0  0  0  0  0  0  0
   17.0671  -21.0882  -13.4974 C   0  0  0  0  0  0  0  0  0  0  0  0
   16.2942  -20.5242  -12.6970 O   0  0  0  0  0  0  0  0  0  0  0  0
   18.3776  -20.5268  -13.8131 C   0  0  0  0  0  0  0  0  0  0  0  0
   19.1551  -21.3014  -14.8374 C   0  0  2  0  0  0  0  0  0  0  0  0
   20.4505  -20.5982  -14.9463 N   0  0  0  0  0  0  0  0  0  0  0  0
   18.5675  -21.2357  -16.1982 C   0  0  0  0  0  0  0  0  0  0  0  0
   18.6487  -20.1866  -16.8909 O   0  0  0  0  0  0  0  0  0  0  0  0
   17.8956  -22.2986  -16.8083 O   0  0  0  0  0  0  0  0  0  0  0  0
  2  3  1  0
  2  1  1  1
  4  2  1  0
  4  5  1  6
  6  4  1  0
  6 14  1  0
  7  6  2  0
  9 10  2  0
  9  8  1  0
 11  9  1  0
 12 11  1  0
 13 12  1  6
 13 14  1  0
 15 22  1  0
 15 13  1  0
 16 15  2  0
 18 20  1  0
 18 17  1  0
 19 18  2  0
 21 22  1  0
 21 20  1  1
 23 21  1  0
 24 23  2  0
 25 23  1  0
M  END
$$$$
