TQN.pdb
     RDKit          3D

 25 24  0  0  1  0  0  0  0  0999 V2000
   28.5390  -19.8383  -19.4681 C   0  0  0  0  0  0  0  0  0  0  0  0
   27.3592  -19.5698  -18.5684 C   0  0  1  0  0  0  0  0  0  0  0  0
   27.7494  -19.8037  -17.2591 O   0  0  0  0  0  0  0  0  0  0  0  0
   26.7638  -18.2109  -18.7708 C   0  0  2  0  0  0  0  0  0  0  0  0
   27.7834  -17.2118  -18.7592 N   0  0  0  0  0  0  0  0  0  0  0  0
   25.6698  -17.9152  -17.7989 C   0  0  0  0  0  0  0  0  0  0  0  0
   25.9896  -17.4026  -16.7118 O   0  0  0  0  0  0  0  0  0  0  0  0
   19.5538  -16.9461  -19.1406 N   0  0  0  0  0  0  0  0  0  0  0  0
   19.5208  -17.0757  -17.7316 C   0  0  0  0  0  0  0  0  0  0  0  0
   18.4660  -16.8653  -17.0946 O   0  0  0  0  0  0  0  0  0  0  0  0
   20.7443  -17.4647  -16.9918 C   0  0  0  0  0  0  0  0  0  0  0  0
   21.9082  -17.5724  -17.9233 C   0  0  0  0  0  0  0  0  0  0  0  0
   23.1710  -18.0954  -17.2688 C   0  0  2  0  0  0  0  0  0  0  0  0
   24.3207  -18.1994  -18.0852 N   0  0  0  0  0  0  0  0  0  0  0  0
   22.8600  -19.2152  -16.3973 C   0  0  0  0  0  0  0  0  0  0  0  0
   22.5583  -20.3651  -16.8219 O   0  0  0  0  0  0  0  0  0  0  0  0
   23.3931  -20.3913  -10.3555 N   0  0  0  0  0  0  0  0  0  0  0  0
   22.9121  -20.6754  -11.6503 C   0  0  0  0  0  0  0  0  0  0  0  0
   22.2600  -21.7245  -11.8235 O   0  0  0  0  0  0  0  0  0  0  0  0
   23.1786  -19.7546  -12.7518 C   0  0  0  0  0  0  0  0  0  0  0  0
   22.5529  -20.1502  -14.0578 C   0  0  2  0  0  0  0  0  0  0  0  0
   22.8847  -19.0515  -14.9891 N   0  0  0  0  0  0  0  0  0  0  0  0
   21.0702  -20.1829  -14.0160 C   0  0  0  0  0  0  0  0  0  0  0  0
   20.3954  -19.1201  -14.0626 O   0  0  0  0  0  0  0  0  0  0  0  0
   20.3195  -21.3583  -13.9248 O   0  0  0  0  0  0  0  0  0  0  0  0
  2  3  1  0
  2  1  1  6
  4  2  1  0
  4  5  1  1
  6  4  1  0
  6 14  1  0
  7  6  2  0
  9 10  2  0
  9  8  1  0
 11  9  1  0
 12 11  1  0
 13 12  1  6
 13 14  1  0
 15 22  1  0
 15 13  1  0
 16 15  2  0
 18 20  1  0
 18 17  1  0
 19 18  2  0
 21 22  1  0
 21 20  1  1
 23 21  1  0
 24 23  2  0
 25 23  1  0
M  END
$$$$
