TQN.pdb
     RDKit          3D

 25 24  0  0  1  0  0  0  0  0999 V2000
   10.8033  -10.3796  -11.7485 C   0  0  0  0  0  0  0  0  0  0  0  0
   10.9181  -11.5763  -10.8386 C   0  0  1  0  0  0  0  0  0  0  0  0
    9.8843  -12.4499  -11.1375 O   0  0  0  0  0  0  0  0  0  0  0  0
   12.2675  -12.2235  -10.8871 C   0  0  2  0  0  0  0  0  0  0  0  0
   12.2697  -13.4320  -10.1272 N   0  0  0  0  0  0  0  0  0  0  0  0
   13.3623  -11.2948  -10.4776 C   0  0  0  0  0  0  0  0  0  0  0  0
   13.3266  -10.8383   -9.3213 O   0  0  0  0  0  0  0  0  0  0  0  0
   18.7474  -10.2954  -13.8297 N   0  0  0  0  0  0  0  0  0  0  0  0
   18.7518   -9.1981  -12.9357 C   0  0  0  0  0  0  0  0  0  0  0  0
   19.7008   -8.3846  -12.9264 O   0  0  0  0  0  0  0  0  0  0  0  0
   17.6240   -9.0008  -11.9951 C   0  0  0  0  0  0  0  0  0  0  0  0
   16.5727  -10.0410  -12.2116 C   0  0  0  0  0  0  0  0  0  0  0  0
   15.4424   -9.9895  -11.2036 C   0  0  2  0  0  0  0  0  0  0  0  0
   14.4046  -10.9378  -11.3546 N   0  0  0  0  0  0  0  0  0  0  0  0
   15.0633   -8.6117  -10.9420 C   0  0  0  0  0  0  0  0  0  0  0  0
   14.3855   -7.9116  -11.7445 O   0  0  0  0  0  0  0  0  0  0  0  0
   14.5897   -4.1121   -8.2081 N   0  0  0  0  0  0  0  0  0  0  0  0
   14.8094   -5.2097   -7.3503 C   0  0  0  0  0  0  0  0  0  0  0  0
   14.7838   -5.0140   -6.1187 O   0  0  0  0  0  0  0  0  0  0  0  0
   15.0595   -6.5373   -7.9048 C   0  0  0  0  0  0  0  0  0  0  0  0
   15.0721   -6.5920   -9.4049 C   0  0  2  0  0  0  0  0  0  0  0  0
   15.4545   -7.9813   -9.7336 N   0  0  0  0  0  0  0  0  0  0  0  0
   16.1280   -5.7486  -10.0174 C   0  0  0  0  0  0  0  0  0  0  0  0
   17.3001   -6.1843  -10.1706 O   0  0  0  0  0  0  0  0  0  0  0  0
   15.9187   -4.4404  -10.4630 O   0  0  0  0  0  0  0  0  0  0  0  0
  2  3  1  0
  2  1  1  6
  4  2  1  0
  4  5  1  1
  6  4  1  0
  6 14  1  0
  7  6  2  0
  9 10  2  0
  9  8  1  0
 11  9  1  0
 12 11  1  0
 13 12  1  6
 13 14  1  0
 15 22  1  0
 15 13  1  0
 16 15  2  0
 18 20  1  0
 18 17  1  0
 19 18  2  0
 21 22  1  0
 21 20  1  1
 23 21  1  0
 24 23  2  0
 25 23  1  0
M  END
$$$$
