TQN.pdb
     RDKit          3D

 25 24  0  0  1  0  0  0  0  0999 V2000
   26.2560  -10.6360  -14.7761 C   0  0  0  0  0  0  0  0  0  0  0  0
   26.7438  -10.7061  -16.2010 C   0  0  1  0  0  0  0  0  0  0  0  0
   27.9455  -11.3967  -16.2152 O   0  0  0  0  0  0  0  0  0  0  0  0
   25.7275  -11.2748  -17.1422 C   0  0  2  0  0  0  0  0  0  0  0  0
   26.2889  -11.4385  -18.4445 N   0  0  0  0  0  0  0  0  0  0  0  0
   24.4629  -10.4817  -17.1660 C   0  0  0  0  0  0  0  0  0  0  0  0
   24.4007   -9.5224  -17.9550 O   0  0  0  0  0  0  0  0  0  0  0  0
   18.7294  -12.6807  -15.7632 N   0  0  0  0  0  0  0  0  0  0  0  0
   18.4763  -11.2918  -15.8644 C   0  0  0  0  0  0  0  0  0  0  0  0
   17.3066  -10.8516  -15.8409 O   0  0  0  0  0  0  0  0  0  0  0  0
   19.6027  -10.3387  -16.0000 C   0  0  0  0  0  0  0  0  0  0  0  0
   20.9058  -11.0696  -16.0412 C   0  0  0  0  0  0  0  0  0  0  0  0
   22.1110  -10.1655  -16.2037 C   0  0  2  0  0  0  0  0  0  0  0  0
   23.3712  -10.7935  -16.3331 N   0  0  0  0  0  0  0  0  0  0  0  0
   22.0136   -9.0296  -15.3033 C   0  0  0  0  0  0  0  0  0  0  0  0
   22.2370   -9.1031  -14.0631 O   0  0  0  0  0  0  0  0  0  0  0  0
   22.9502   -3.7830  -13.8734 N   0  0  0  0  0  0  0  0  0  0  0  0
   22.0591   -4.1773  -14.8928 C   0  0  0  0  0  0  0  0  0  0  0  0
   21.1418   -3.3952  -15.2135 O   0  0  0  0  0  0  0  0  0  0  0  0
   22.2186   -5.4725  -15.5480 C   0  0  0  0  0  0  0  0  0  0  0  0
   21.4366   -6.5882  -14.9178 C   0  0  2  0  0  0  0  0  0  0  0  0
   21.6513   -7.7528  -15.8023 N   0  0  0  0  0  0  0  0  0  0  0  0
   19.9703   -6.3620  -14.9310 C   0  0  0  0  0  0  0  0  0  0  0  0
   19.2685   -6.7073  -15.9186 O   0  0  0  0  0  0  0  0  0  0  0  0
   19.2649   -5.7660  -13.8818 O   0  0  0  0  0  0  0  0  0  0  0  0
  2  3  1  0
  2  1  1  1
  4  2  1  0
  4  5  1  6
  6  4  1  0
  6 14  1  0
  7  6  2  0
  9 10  2  0
  9  8  1  0
 11  9  1  0
 12 11  1  0
 13 12  1  1
 13 14  1  0
 15 22  1  0
 15 13  1  0
 16 15  2  0
 18 20  1  0
 18 17  1  0
 19 18  2  0
 21 22  1  0
 21 20  1  6
 23 21  1  0
 24 23  2  0
 25 23  1  0
M  END
$$$$
