HSA.pdb
     RDKit          3D

 22 22  0  0  1  0  0  0  0  0999 V2000
    8.5244  -17.6712   20.1972 N   0  0  0  0  0  0  0  0  0  0  0  0
    9.5132  -17.3298   21.1722 C   0  0  1  0  0  0  0  0  0  0  0  0
   10.5206  -16.4073   20.5176 C   0  0  0  0  0  0  0  0  0  0  0  0
   11.2957  -17.2386   19.5459 C   0  0  0  0  0  0  0  0  0  0  0  0
   12.2600  -18.1448   19.8969 C   0  0  0  0  0  0  0  0  0  0  0  0
   12.7276  -18.6926   18.7469 N   0  0  0  0  0  0  0  0  0  0  0  0
   12.0839  -18.1544   17.6994 C   0  0  0  0  0  0  0  0  0  0  0  0
   11.2118  -17.2671   18.2056 N   0  0  0  0  0  0  0  0  0  0  0  0
    8.9305  -16.5682   22.3248 C   0  0  0  0  0  0  0  0  0  0  0  0
    8.3939  -15.4536   22.0962 O   0  0  0  0  0  0  0  0  0  0  0  0
    7.7492  -18.3950   25.7316 O   0  0  0  0  0  0  0  0  0  0  0  0
    7.2955  -17.1546   25.3411 C   0  0  0  0  0  0  0  0  0  0  0  0
    8.3793  -16.2764   24.7468 C   0  0  2  0  0  0  0  0  0  0  0  0
    8.9573  -17.0440   23.6473 N   0  0  0  0  0  0  0  0  0  0  0  0
    9.4090  -15.9061   25.7413 C   0  0  0  0  0  0  0  0  0  0  0  0
   10.5018  -16.5216   25.8069 O   0  0  0  0  0  0  0  0  0  0  0  0
    9.8656  -13.2488   28.3252 C   0  0  0  0  0  0  0  0  0  0  0  0
   10.1200  -14.6312   27.7428 C   0  0  2  0  0  0  0  0  0  0  0  0
    9.1650  -14.8349   26.6431 N   0  0  0  0  0  0  0  0  0  0  0  0
    9.9642  -15.6890   28.7704 C   0  0  0  0  0  0  0  0  0  0  0  0
   10.8745  -15.9317   29.7855 O   0  0  0  0  0  0  0  0  0  0  0  0
    8.9375  -16.4107   28.7131 O   0  0  0  0  0  0  0  0  0  0  0  0
  2  1  1  6
  3  2  1  0
  4  3  1  0
  4  5  2  0
  6  5  1  0
  7  6  1  0
  8  7  2  0
  8  4  1  0
  9  2  1  0
  9 14  1  0
 10  9  2  0
 11 12  1  0
 13 14  1  0
 13 12  1  1
 13 15  1  0
 15 19  1  0
 15 16  2  0
 18 17  1  1
 18 20  1  0
 19 18  1  0
 20 21  1  0
 22 20  2  0
M  END
$$$$
