HSA.pdb
     RDKit          3D

 22 22  0  0  1  0  0  0  0  0999 V2000
   11.7002  -16.7797   20.2490 N   0  0  0  0  0  0  0  0  0  0  0  0
   11.7546  -17.2806   21.5873 C   0  0  1  0  0  0  0  0  0  0  0  0
   13.2095  -17.3582   22.0017 C   0  0  0  0  0  0  0  0  0  0  0  0
   13.7797  -18.5723   21.3407 C   0  0  0  0  0  0  0  0  0  0  0  0
   13.2785  -19.8387   21.4799 C   0  0  0  0  0  0  0  0  0  0  0  0
   14.0601  -20.6594   20.7336 N   0  0  0  0  0  0  0  0  0  0  0  0
   15.0258  -19.9412   20.1395 C   0  0  0  0  0  0  0  0  0  0  0  0
   14.8399  -18.6669   20.5213 N   0  0  0  0  0  0  0  0  0  0  0  0
   11.0868  -16.3585   22.5630 C   0  0  0  0  0  0  0  0  0  0  0  0
   11.4427  -15.1522   22.5871 O   0  0  0  0  0  0  0  0  0  0  0  0
    7.8318  -17.6028   24.8062 O   0  0  0  0  0  0  0  0  0  0  0  0
    8.0024  -16.2755   24.4804 C   0  0  0  0  0  0  0  0  0  0  0  0
    9.4578  -15.8587   24.3937 C   0  0  2  0  0  0  0  0  0  0  0  0
   10.0822  -16.7820   23.4505 N   0  0  0  0  0  0  0  0  0  0  0  0
   10.1319  -15.8991   25.7092 C   0  0  0  0  0  0  0  0  0  0  0  0
   10.8965  -16.8457   26.0200 O   0  0  0  0  0  0  0  0  0  0  0  0
   10.2148  -13.7059   28.7505 C   0  0  0  0  0  0  0  0  0  0  0  0
   10.6015  -14.9359   27.9426 C   0  0  2  0  0  0  0  0  0  0  0  0
    9.9156  -14.8509   26.6444 N   0  0  0  0  0  0  0  0  0  0  0  0
   10.2288  -16.1862   28.6476 C   0  0  0  0  0  0  0  0  0  0  0  0
   10.9519  -16.7394   29.6912 O   0  0  0  0  0  0  0  0  0  0  0  0
    9.1879  -16.7799   28.2706 O   0  0  0  0  0  0  0  0  0  0  0  0
  2  1  1  6
  3  2  1  0
  4  3  1  0
  4  5  2  0
  6  5  1  0
  7  6  1  0
  8  7  2  0
  8  4  1  0
  9  2  1  0
  9 14  1  0
 10  9  2  0
 11 12  1  0
 13 14  1  0
 13 12  1  1
 13 15  1  0
 15 19  1  0
 15 16  2  0
 18 17  1  1
 18 20  1  0
 19 18  1  0
 20 21  1  0
 22 20  2  0
M  END
$$$$
