HSA.pdb
     RDKit          3D

 22 22  0  0  1  0  0  0  0  0999 V2000
   12.1603  -13.9401   19.2187 N   0  0  0  0  0  0  0  0  0  0  0  0
   10.8589  -14.1878   19.7572 C   0  0  1  0  0  0  0  0  0  0  0  0
   10.2303  -15.3176   18.9677 C   0  0  0  0  0  0  0  0  0  0  0  0
    9.4618  -14.6854   17.8516 C   0  0  0  0  0  0  0  0  0  0  0  0
    9.3994  -13.3378   17.6188 C   0  0  0  0  0  0  0  0  0  0  0  0
    8.6127  -13.1591   16.5277 N   0  0  0  0  0  0  0  0  0  0  0  0
    8.1883  -14.3513   16.0806 C   0  0  0  0  0  0  0  0  0  0  0  0
    8.7167  -15.2739   16.9015 N   0  0  0  0  0  0  0  0  0  0  0  0
   10.9160  -14.6500   21.1823 C   0  0  0  0  0  0  0  0  0  0  0  0
   11.9880  -15.1538   21.6062 O   0  0  0  0  0  0  0  0  0  0  0  0
    7.5484  -15.1303   23.6631 O   0  0  0  0  0  0  0  0  0  0  0  0
    8.6548  -14.4553   24.1288 C   0  0  0  0  0  0  0  0  0  0  0  0
    9.9498  -14.8981   23.4758 C   0  0  2  0  0  0  0  0  0  0  0  0
    9.8263  -14.5455   22.0642 N   0  0  0  0  0  0  0  0  0  0  0  0
   10.1975  -16.3458   23.6468 C   0  0  0  0  0  0  0  0  0  0  0  0
    9.6827  -17.1903   22.8727 O   0  0  0  0  0  0  0  0  0  0  0  0
   12.6990  -18.5413   24.8436 C   0  0  0  0  0  0  0  0  0  0  0  0
   11.2061  -18.2488   24.8708 C   0  0  2  0  0  0  0  0  0  0  0  0
   11.0326  -16.7979   24.7044 N   0  0  0  0  0  0  0  0  0  0  0  0
   10.5877  -18.7052   26.1390 C   0  0  0  0  0  0  0  0  0  0  0  0
   10.5653  -20.0220   26.5672 O   0  0  0  0  0  0  0  0  0  0  0  0
   10.0494  -17.8372   26.8705 O   0  0  0  0  0  0  0  0  0  0  0  0
  2  1  1  6
  3  2  1  0
  4  3  1  0
  4  5  2  0
  6  5  1  0
  7  6  1  0
  8  7  2  0
  8  4  1  0
  9  2  1  0
  9 14  1  0
 10  9  2  0
 11 12  1  0
 13 14  1  0
 13 12  1  1
 13 15  1  0
 15 19  1  0
 15 16  2  0
 18 17  1  1
 18 20  1  0
 19 18  1  0
 20 21  1  0
 22 20  2  0
M  END
$$$$
