HSA.pdb
     RDKit          3D

 22 22  0  0  1  0  0  0  0  0999 V2000
   10.3375  -18.1001   21.3999 N   0  0  0  0  0  0  0  0  0  0  0  0
    9.9745  -16.7224   21.2775 C   0  0  1  0  0  0  0  0  0  0  0  0
    8.9841  -16.5963   20.1383 C   0  0  0  0  0  0  0  0  0  0  0  0
    9.6832  -17.0769   18.9068 C   0  0  0  0  0  0  0  0  0  0  0  0
   10.8883  -16.6019   18.4638 C   0  0  0  0  0  0  0  0  0  0  0  0
   11.1888  -17.2796   17.3273 N   0  0  0  0  0  0  0  0  0  0  0  0
   10.2094  -18.1560   17.0553 C   0  0  0  0  0  0  0  0  0  0  0  0
    9.2966  -18.0191   18.0311 N   0  0  0  0  0  0  0  0  0  0  0  0
    9.2762  -16.2114   22.5019 C   0  0  0  0  0  0  0  0  0  0  0  0
    8.8600  -15.0242   22.5026 O   0  0  0  0  0  0  0  0  0  0  0  0
    8.5505  -18.6313   25.8958 O   0  0  0  0  0  0  0  0  0  0  0  0
    7.6898  -17.6427   25.4731 C   0  0  0  0  0  0  0  0  0  0  0  0
    8.3951  -16.4650   24.8288 C   0  0  2  0  0  0  0  0  0  0  0  0
    9.0664  -16.9991   23.6472 N   0  0  0  0  0  0  0  0  0  0  0  0
    9.3580  -15.8181   25.7458 C   0  0  0  0  0  0  0  0  0  0  0  0
   10.5762  -16.1233   25.7316 O   0  0  0  0  0  0  0  0  0  0  0  0
    9.2614  -12.9667   28.1565 C   0  0  0  0  0  0  0  0  0  0  0  0
    9.8987  -14.2076   27.5487 C   0  0  2  0  0  0  0  0  0  0  0  0
    8.9042  -14.8316   26.6630 N   0  0  0  0  0  0  0  0  0  0  0  0
   10.3339  -15.1618   28.5971 C   0  0  0  0  0  0  0  0  0  0  0  0
   11.4233  -14.9643   29.4291 O   0  0  0  0  0  0  0  0  0  0  0  0
    9.6681  -16.2179   28.7368 O   0  0  0  0  0  0  0  0  0  0  0  0
  2  1  1  1
  3  2  1  0
  4  3  1  0
  4  5  2  0
  6  5  1  0
  7  6  1  0
  8  7  2  0
  8  4  1  0
  9  2  1  0
  9 14  1  0
 10  9  2  0
 11 12  1  0
 13 14  1  0
 13 12  1  1
 13 15  1  0
 15 19  1  0
 15 16  2  0
 18 17  1  1
 18 20  1  0
 19 18  1  0
 20 21  1  0
 22 20  2  0
M  END
$$$$
