HSA.pdb
     RDKit          3D

 22 22  0  0  1  0  0  0  0  0999 V2000
    7.4303  -16.6161   20.3317 N   0  0  0  0  0  0  0  0  0  0  0  0
    8.0704  -15.6139   21.1260 C   0  0  1  0  0  0  0  0  0  0  0  0
    7.3580  -14.2985   20.8873 C   0  0  0  0  0  0  0  0  0  0  0  0
    7.7059  -13.8680   19.4981 C   0  0  0  0  0  0  0  0  0  0  0  0
    8.6047  -12.8812   19.1942 C   0  0  0  0  0  0  0  0  0  0  0  0
    8.6461  -12.7846   17.8413 N   0  0  0  0  0  0  0  0  0  0  0  0
    7.8031  -13.6787   17.3017 C   0  0  0  0  0  0  0  0  0  0  0  0
    7.2363  -14.3330   18.3287 N   0  0  0  0  0  0  0  0  0  0  0  0
    7.9534  -15.8966   22.5938 C   0  0  0  0  0  0  0  0  0  0  0  0
    6.8142  -15.8452   23.1248 O   0  0  0  0  0  0  0  0  0  0  0  0
   10.6146  -18.2082   24.3653 O   0  0  0  0  0  0  0  0  0  0  0  0
    9.3856  -17.9898   24.9474 C   0  0  0  0  0  0  0  0  0  0  0  0
    8.9004  -16.5595   24.8116 C   0  0  2  0  0  0  0  0  0  0  0  0
    9.0589  -16.2161   23.4013 N   0  0  0  0  0  0  0  0  0  0  0  0
    9.6534  -15.6274   25.6781 C   0  0  0  0  0  0  0  0  0  0  0  0
   10.8058  -15.2368   25.3673 O   0  0  0  0  0  0  0  0  0  0  0  0
    9.0278  -13.1812   28.2710 C   0  0  0  0  0  0  0  0  0  0  0  0
    9.8955  -14.3274   27.7728 C   0  0  2  0  0  0  0  0  0  0  0  0
    9.0688  -15.1604   26.8866 N   0  0  0  0  0  0  0  0  0  0  0  0
   10.4271  -15.1333   28.8985 C   0  0  0  0  0  0  0  0  0  0  0  0
   11.4082  -14.6994   29.7745 O   0  0  0  0  0  0  0  0  0  0  0  0
    9.9540  -16.2850   29.0654 O   0  0  0  0  0  0  0  0  0  0  0  0
  2  1  1  6
  3  2  1  0
  4  3  1  0
  4  5  2  0
  6  5  1  0
  7  6  1  0
  8  7  2  0
  8  4  1  0
  9  2  1  0
  9 14  1  0
 10  9  2  0
 11 12  1  0
 13 14  1  0
 13 12  1  6
 13 15  1  0
 15 19  1  0
 15 16  2  0
 18 17  1  1
 18 20  1  0
 19 18  1  0
 20 21  1  0
 22 20  2  0
M  END
$$$$
