HSA.pdb
     RDKit          3D

 22 22  0  0  1  0  0  0  0  0999 V2000
    6.3474  -16.0437   20.3888 N   0  0  0  0  0  0  0  0  0  0  0  0
    7.3789  -15.4566   21.1864 C   0  0  1  0  0  0  0  0  0  0  0  0
    7.3881  -13.9654   20.9203 C   0  0  0  0  0  0  0  0  0  0  0  0
    8.0323  -13.7719   19.5847 C   0  0  0  0  0  0  0  0  0  0  0  0
    7.4844  -13.0533   18.5563 C   0  0  0  0  0  0  0  0  0  0  0  0
    8.3607  -13.1092   17.5217 N   0  0  0  0  0  0  0  0  0  0  0  0
    9.4298  -13.8381   17.8783 C   0  0  0  0  0  0  0  0  0  0  0  0
    9.2129  -14.2357   19.1428 N   0  0  0  0  0  0  0  0  0  0  0  0
    7.1206  -15.6215   22.6541 C   0  0  0  0  0  0  0  0  0  0  0  0
    6.0629  -15.1386   23.1342 O   0  0  0  0  0  0  0  0  0  0  0  0
    8.8336  -18.5282   24.9920 O   0  0  0  0  0  0  0  0  0  0  0  0
    7.6862  -17.8300   25.2967 C   0  0  0  0  0  0  0  0  0  0  0  0
    7.7701  -16.3549   24.9553 C   0  0  2  0  0  0  0  0  0  0  0  0
    8.0070  -16.2908   23.5159 N   0  0  0  0  0  0  0  0  0  0  0  0
    8.8416  -15.6657   25.7059 C   0  0  0  0  0  0  0  0  0  0  0  0
   10.0435  -15.7516   25.3516 O   0  0  0  0  0  0  0  0  0  0  0  0
    9.0747  -13.0330   28.2905 C   0  0  0  0  0  0  0  0  0  0  0  0
    9.6172  -14.2792   27.6066 C   0  0  2  0  0  0  0  0  0  0  0  0
    8.5133  -14.8898   26.8507 N   0  0  0  0  0  0  0  0  0  0  0  0
   10.1685  -15.2411   28.5916 C   0  0  0  0  0  0  0  0  0  0  0  0
   11.3447  -15.0485   29.2969 O   0  0  0  0  0  0  0  0  0  0  0  0
    9.5233  -16.2992   28.7971 O   0  0  0  0  0  0  0  0  0  0  0  0
  2  1  1  6
  3  2  1  0
  4  3  1  0
  4  5  2  0
  6  5  1  0
  7  6  1  0
  8  7  2  0
  8  4  1  0
  9  2  1  0
  9 14  1  0
 10  9  2  0
 11 12  1  0
 13 14  1  0
 13 12  1  1
 13 15  1  0
 15 19  1  0
 15 16  2  0
 18 17  1  1
 18 20  1  0
 19 18  1  0
 20 21  1  0
 22 20  2  0
M  END
$$$$
