HSA.pdb
     RDKit          3D

 22 22  0  0  1  0  0  0  0  0999 V2000
   10.5498  -20.0532   15.9133 N   0  0  0  0  0  0  0  0  0  0  0  0
   10.6919  -21.2305   16.7124 C   0  0  1  0  0  0  0  0  0  0  0  0
   12.1588  -21.6078   16.7375 C   0  0  0  0  0  0  0  0  0  0  0  0
   12.4772  -22.1823   15.3941 C   0  0  0  0  0  0  0  0  0  0  0  0
   11.8777  -23.2929   14.8638 C   0  0  0  0  0  0  0  0  0  0  0  0
   12.4296  -23.4965   13.6410 N   0  0  0  0  0  0  0  0  0  0  0  0
   13.3489  -22.5487   13.4003 C   0  0  0  0  0  0  0  0  0  0  0  0
   13.3654  -21.7532   14.4825 N   0  0  0  0  0  0  0  0  0  0  0  0
   10.2920  -20.9969   18.1384 C   0  0  0  0  0  0  0  0  0  0  0  0
   10.6934  -19.9502   18.7093 O   0  0  0  0  0  0  0  0  0  0  0  0
    7.2998  -23.2273   20.4605 O   0  0  0  0  0  0  0  0  0  0  0  0
    7.6100  -21.8931   20.3167 C   0  0  0  0  0  0  0  0  0  0  0  0
    9.1009  -21.6255   20.2458 C   0  0  2  0  0  0  0  0  0  0  0  0
    9.4897  -21.8944   18.8643 N   0  0  0  0  0  0  0  0  0  0  0  0
    9.8669  -22.4654   21.1914 C   0  0  0  0  0  0  0  0  0  0  0  0
   10.2959  -23.5973   20.8564 O   0  0  0  0  0  0  0  0  0  0  0  0
   11.2767  -22.0114   24.6298 C   0  0  0  0  0  0  0  0  0  0  0  0
   10.9470  -22.8305   23.3906 C   0  0  2  0  0  0  0  0  0  0  0  0
   10.1266  -21.9900   22.5054 N   0  0  0  0  0  0  0  0  0  0  0  0
   10.2245  -24.0771   23.7417 C   0  0  0  0  0  0  0  0  0  0  0  0
   10.8389  -25.2393   24.1774 O   0  0  0  0  0  0  0  0  0  0  0  0
    8.9728  -24.0750   23.6356 O   0  0  0  0  0  0  0  0  0  0  0  0
  2  1  1  6
  3  2  1  0
  4  3  1  0
  4  5  2  0
  6  5  1  0
  7  6  1  0
  8  7  2  0
  8  4  1  0
  9  2  1  0
  9 14  1  0
 10  9  2  0
 11 12  1  0
 13 14  1  0
 13 12  1  6
 13 15  1  0
 15 19  1  0
 15 16  2  0
 18 17  1  1
 18 20  1  0
 19 18  1  0
 20 21  1  0
 22 20  2  0
M  END
$$$$
