HSA.pdb
     RDKit          3D

 22 22  0  0  1  0  0  0  0  0999 V2000
   12.6009  -17.9350   13.5632 N   0  0  0  0  0  0  0  0  0  0  0  0
   11.5938  -18.7388   14.1833 C   0  0  1  0  0  0  0  0  0  0  0  0
   12.0042  -20.1911   14.0523 C   0  0  0  0  0  0  0  0  0  0  0  0
   11.7956  -20.5685   12.6205 C   0  0  0  0  0  0  0  0  0  0  0  0
   10.7431  -20.1475   11.8529 C   0  0  0  0  0  0  0  0  0  0  0  0
   10.9039  -20.6971   10.6227 N   0  0  0  0  0  0  0  0  0  0  0  0
   12.0200  -21.4423   10.6067 C   0  0  0  0  0  0  0  0  0  0  0  0
   12.5532  -21.3529   11.8362 N   0  0  0  0  0  0  0  0  0  0  0  0
   11.4774  -18.4643   15.6527 C   0  0  0  0  0  0  0  0  0  0  0  0
   12.5143  -18.1352   16.2845 O   0  0  0  0  0  0  0  0  0  0  0  0
    7.8412  -18.8880   17.7934 O   0  0  0  0  0  0  0  0  0  0  0  0
    8.7504  -17.8880   18.0590 C   0  0  0  0  0  0  0  0  0  0  0  0
   10.1866  -18.2921   17.7879 C   0  0  2  0  0  0  0  0  0  0  0  0
   10.2628  -18.5582   16.3542 N   0  0  0  0  0  0  0  0  0  0  0  0
   10.5942  -19.4756   18.5750 C   0  0  0  0  0  0  0  0  0  0  0  0
   10.5218  -20.6336   18.0942 O   0  0  0  0  0  0  0  0  0  0  0  0
   12.7422  -20.1831   21.4176 C   0  0  0  0  0  0  0  0  0  0  0  0
   11.4729  -20.5127   20.6461 C   0  0  2  0  0  0  0  0  0  0  0  0
   11.0780  -19.3078   19.9009 N   0  0  0  0  0  0  0  0  0  0  0  0
   10.3830  -20.9435   21.5547 C   0  0  0  0  0  0  0  0  0  0  0  0
   10.3618  -22.1522   22.2306 O   0  0  0  0  0  0  0  0  0  0  0  0
    9.4169  -20.1577   21.7200 O   0  0  0  0  0  0  0  0  0  0  0  0
  2  1  1  1
  3  2  1  0
  4  3  1  0
  4  5  2  0
  6  5  1  0
  7  6  1  0
  8  7  2  0
  8  4  1  0
  9  2  1  0
  9 14  1  0
 10  9  2  0
 11 12  1  0
 13 14  1  0
 13 12  1  1
 13 15  1  0
 15 19  1  0
 15 16  2  0
 18 17  1  1
 18 20  1  0
 19 18  1  0
 20 21  1  0
 22 20  2  0
M  END
$$$$
