HSA.pdb
     RDKit          3D

 22 22  0  0  1  0  0  0  0  0999 V2000
    9.8951  -16.5406   15.8201 N   0  0  0  0  0  0  0  0  0  0  0  0
   10.3323  -15.7139   16.9019 C   0  0  1  0  0  0  0  0  0  0  0  0
    9.3600  -15.8887   18.0503 C   0  0  0  0  0  0  0  0  0  0  0  0
    8.6561  -14.5802   18.2195 C   0  0  0  0  0  0  0  0  0  0  0  0
    8.8952  -13.4670   17.4594 C   0  0  0  0  0  0  0  0  0  0  0  0
    8.0676  -12.4916   17.9122 N   0  0  0  0  0  0  0  0  0  0  0  0
    7.3268  -12.9666   18.9256 C   0  0  0  0  0  0  0  0  0  0  0  0
    7.6992  -14.2452   19.1006 N   0  0  0  0  0  0  0  0  0  0  0  0
   11.6768  -16.1274   17.4210 C   0  0  0  0  0  0  0  0  0  0  0  0
   12.0024  -17.3399   17.3421 O   0  0  0  0  0  0  0  0  0  0  0  0
   15.3318  -13.9595   17.4036 O   0  0  0  0  0  0  0  0  0  0  0  0
   14.7284  -14.3700   18.5717 C   0  0  0  0  0  0  0  0  0  0  0  0
   13.9195  -15.6432   18.4166 C   0  0  2  0  0  0  0  0  0  0  0  0
   12.5879  -15.2212   17.9911 N   0  0  0  0  0  0  0  0  0  0  0  0
   13.8588  -16.4251   19.6702 C   0  0  0  0  0  0  0  0  0  0  0  0
   13.1990  -16.0197   20.6590 O   0  0  0  0  0  0  0  0  0  0  0  0
   14.2952  -19.8778   20.6852 C   0  0  0  0  0  0  0  0  0  0  0  0
   14.4647  -18.4054   21.0296 C   0  0  2  0  0  0  0  0  0  0  0  0
   14.5573  -17.6593   19.7656 N   0  0  0  0  0  0  0  0  0  0  0  0
   15.6735  -18.1785   21.8580 C   0  0  0  0  0  0  0  0  0  0  0  0
   15.8012  -18.5765   23.1784 O   0  0  0  0  0  0  0  0  0  0  0  0
   16.6437  -17.5858   21.3236 O   0  0  0  0  0  0  0  0  0  0  0  0
  2  1  1  6
  3  2  1  0
  4  3  1  0
  4  5  2  0
  6  5  1  0
  7  6  1  0
  8  7  2  0
  8  4  1  0
  9  2  1  0
  9 14  1  0
 10  9  2  0
 11 12  1  0
 13 14  1  0
 13 12  1  1
 13 15  1  0
 15 19  1  0
 15 16  2  0
 18 17  1  6
 18 20  1  0
 19 18  1  0
 20 21  1  0
 22 20  2  0
M  END
$$$$
