WFD.pdb
     RDKit          3D

 34 36  0  0  1  0  0  0  0  0999 V2000
   27.3762  -21.2400  -13.2496 N   0  0  0  0  0  0  0  0  0  0  0  0
   26.1748  -20.6764  -12.7445 C   0  0  1  0  0  0  0  0  0  0  0  0
   24.9142  -21.0366  -13.4318 C   0  0  0  0  0  0  0  0  0  0  0  0
   24.8048  -20.6734  -14.8496 C   0  0  0  0  0  0  0  0  0  0  0  0
   24.8676  -21.5456  -15.9416 C   0  0  0  0  0  0  0  0  0  0  0  0
   24.7109  -20.8017  -17.0403 N   0  0  0  0  0  0  0  0  0  0  0  0
   24.5512  -19.4975  -16.7093 C   0  0  0  0  0  0  0  0  0  0  0  0
   24.3630  -18.3654  -17.4716 C   0  0  0  0  0  0  0  0  0  0  0  0
   24.2278  -17.1225  -16.9085 C   0  0  0  0  0  0  0  0  0  0  0  0
   24.2866  -17.0345  -15.5307 C   0  0  0  0  0  0  0  0  0  0  0  0
   24.4726  -18.1383  -14.7458 C   0  0  0  0  0  0  0  0  0  0  0  0
   24.6081  -19.3908  -15.3118 C   0  0  0  0  0  0  0  0  0  0  0  0
   26.0216  -21.0568  -11.3102 C   0  0  0  0  0  0  0  0  0  0  0  0
   26.2690  -22.2419  -10.9920 O   0  0  0  0  0  0  0  0  0  0  0  0
   25.6180  -20.1521  -10.3179 N   0  0  0  0  0  0  0  0  0  0  0  0
   25.3809  -20.5075   -8.9498 C   0  0  1  0  0  0  0  0  0  0  0  0
   25.6540  -19.3743   -7.9944 C   0  0  0  0  0  0  0  0  0  0  0  0
   26.8429  -19.5461   -7.1701 C   0  0  0  0  0  0  0  0  0  0  0  0
   27.5737  -18.4549   -6.7629 C   0  0  0  0  0  0  0  0  0  0  0  0
   28.7169  -18.6057   -5.9720 C   0  0  0  0  0  0  0  0  0  0  0  0
   29.1548  -19.8479   -5.5708 C   0  0  0  0  0  0  0  0  0  0  0  0
   28.4174  -20.9478   -5.9817 C   0  0  0  0  0  0  0  0  0  0  0  0
   27.3127  -20.7758   -6.7484 C   0  0  0  0  0  0  0  0  0  0  0  0
   24.0501  -21.0594   -8.7106 C   0  0  0  0  0  0  0  0  0  0  0  0
   23.1209  -20.7362   -9.5060 O   0  0  0  0  0  0  0  0  0  0  0  0
   23.6845  -21.9401   -7.6526 N   0  0  0  0  0  0  0  0  0  0  0  0
   22.3362  -22.4477   -7.4993 C   0  0  1  0  0  0  0  0  0  0  0  0
   22.2518  -23.5481   -6.4518 C   0  0  0  0  0  0  0  0  0  0  0  0
   20.8636  -24.0239   -6.2899 C   0  0  0  0  0  0  0  0  0  0  0  0
   20.0871  -23.9737   -7.2765 O   0  0  0  0  0  0  0  0  0  0  0  0
   21.5005  -21.3106   -6.9783 C   0  0  0  0  0  0  0  0  0  0  0  0
   22.0605  -20.2923   -6.4865 O   0  0  0  0  0  0  0  0  0  0  0  0
   20.3515  -24.5310   -5.1020 O   0  0  0  0  0  0  0  0  0  0  0  0
   20.1230  -21.3872   -7.0409 O   0  0  0  0  0  0  0  0  0  0  0  0
  2  1  1  6
  2  3  1  0
  4  5  2  0
  4  3  1  0
  6  5  1  0
  7 12  2  0
  7  6  1  0
  8  7  1  0
  9  8  2  0
  9 10  1  0
 10 11  2  0
 11 12  1  0
 12  4  1  0
 13 14  2  0
 13  2  1  0
 15 13  1  0
 16 24  1  0
 16 15  1  0
 16 17  1  1
 18 17  1  0
 19 18  2  0
 20 19  1  0
 21 22  1  0
 21 20  2  0
 22 23  2  0
 23 18  1  0
 24 26  1  0
 25 24  2  0
 26 27  1  0
 27 31  1  0
 27 28  1  1
 29 28  1  0
 30 29  2  0
 31 32  2  0
 31 34  1  0
 33 29  1  0
M  END
$$$$
