WFD.pdb
     RDKit          3D

 34 36  0  0  1  0  0  0  0  0999 V2000
   24.0033  -19.2570   -9.7862 N   0  0  0  0  0  0  0  0  0  0  0  0
   25.2219  -19.7067  -10.3597 C   0  0  1  0  0  0  0  0  0  0  0  0
   25.7251  -21.0318   -9.9328 C   0  0  0  0  0  0  0  0  0  0  0  0
   26.5256  -21.0724   -8.7033 C   0  0  0  0  0  0  0  0  0  0  0  0
   26.0496  -20.9508   -7.3934 C   0  0  0  0  0  0  0  0  0  0  0  0
   27.1088  -21.0565   -6.5857 N   0  0  0  0  0  0  0  0  0  0  0  0
   28.2392  -21.2393   -7.3100 C   0  0  0  0  0  0  0  0  0  0  0  0
   29.5582  -21.3953   -6.9437 C   0  0  0  0  0  0  0  0  0  0  0  0
   30.5558  -21.5649   -7.8691 C   0  0  0  0  0  0  0  0  0  0  0  0
   30.1959  -21.5751   -9.2032 C   0  0  0  0  0  0  0  0  0  0  0  0
   28.8965  -21.4227   -9.5998 C   0  0  0  0  0  0  0  0  0  0  0  0
   27.8908  -21.2525   -8.6687 C   0  0  0  0  0  0  0  0  0  0  0  0
   25.0789  -19.7445  -11.8441 C   0  0  0  0  0  0  0  0  0  0  0  0
   24.0212  -20.2196  -12.3158 O   0  0  0  0  0  0  0  0  0  0  0  0
   26.0681  -19.2748  -12.7200 N   0  0  0  0  0  0  0  0  0  0  0  0
   25.8057  -18.7536  -14.0291 C   0  0  1  0  0  0  0  0  0  0  0  0
   26.9923  -18.0399  -14.6242 C   0  0  0  0  0  0  0  0  0  0  0  0
   26.7678  -17.4901  -15.9545 C   0  0  0  0  0  0  0  0  0  0  0  0
   26.0334  -16.3395  -16.1195 C   0  0  0  0  0  0  0  0  0  0  0  0
   25.8102  -15.8014  -17.3906 C   0  0  0  0  0  0  0  0  0  0  0  0
   26.3147  -16.3998  -18.5234 C   0  0  0  0  0  0  0  0  0  0  0  0
   27.0552  -17.5601  -18.3563 C   0  0  0  0  0  0  0  0  0  0  0  0
   27.2577  -18.0623  -17.1135 C   0  0  0  0  0  0  0  0  0  0  0  0
   25.2958  -19.7518  -14.9652 C   0  0  0  0  0  0  0  0  0  0  0  0
   25.9726  -20.8070  -15.1358 O   0  0  0  0  0  0  0  0  0  0  0  0
   24.0922  -19.6563  -15.7208 N   0  0  0  0  0  0  0  0  0  0  0  0
   23.6876  -20.6787  -16.6642 C   0  0  1  0  0  0  0  0  0  0  0  0
   22.1934  -20.9597  -16.6017 C   0  0  0  0  0  0  0  0  0  0  0  0
   21.8249  -21.6002  -15.3236 C   0  0  0  0  0  0  0  0  0  0  0  0
   22.5082  -22.5718  -14.9137 O   0  0  0  0  0  0  0  0  0  0  0  0
   23.9518  -20.1298  -18.0396 C   0  0  0  0  0  0  0  0  0  0  0  0
   23.5016  -18.9956  -18.3613 O   0  0  0  0  0  0  0  0  0  0  0  0
   20.7575  -21.1940  -14.5323 O   0  0  0  0  0  0  0  0  0  0  0  0
   24.6866  -20.8708  -18.9442 O   0  0  0  0  0  0  0  0  0  0  0  0
  2  1  1  1
  2  3  1  0
  4  5  2  0
  4  3  1  0
  6  5  1  0
  7 12  2  0
  7  6  1  0
  8  7  1  0
  9  8  2  0
  9 10  1  0
 10 11  2  0
 11 12  1  0
 12  4  1  0
 13 14  2  0
 13  2  1  0
 15 13  1  0
 16 24  1  0
 16 15  1  0
 16 17  1  6
 18 17  1  0
 19 18  2  0
 20 19  1  0
 21 22  1  0
 21 20  2  0
 22 23  2  0
 23 18  1  0
 24 26  1  0
 25 24  2  0
 26 27  1  0
 27 31  1  0
 27 28  1  6
 29 28  1  0
 30 29  2  0
 31 32  2  0
 31 34  1  0
 33 29  1  0
M  END
$$$$
