WFD.pdb
     RDKit          3D

 34 36  0  0  1  0  0  0  0  0999 V2000
   27.3159  -21.6238  -16.9820 N   0  0  0  0  0  0  0  0  0  0  0  0
   26.3917  -20.8559  -16.2256 C   0  0  1  0  0  0  0  0  0  0  0  0
   24.9742  -20.8869  -16.6510 C   0  0  0  0  0  0  0  0  0  0  0  0
   24.6838  -20.4515  -18.0222 C   0  0  0  0  0  0  0  0  0  0  0  0
   24.2953  -21.2657  -19.0915 C   0  0  0  0  0  0  0  0  0  0  0  0
   24.1242  -20.4634  -20.1462 N   0  0  0  0  0  0  0  0  0  0  0  0
   24.3832  -19.1770  -19.8085 C   0  0  0  0  0  0  0  0  0  0  0  0
   24.3518  -18.0055  -20.5329 C   0  0  0  0  0  0  0  0  0  0  0  0
   24.6641  -16.7938  -19.9720 C   0  0  0  0  0  0  0  0  0  0  0  0
   25.0177  -16.7793  -18.6363 C   0  0  0  0  0  0  0  0  0  0  0  0
   25.0589  -17.9238  -17.8897 C   0  0  0  0  0  0  0  0  0  0  0  0
   24.7439  -19.1447  -18.4533 C   0  0  0  0  0  0  0  0  0  0  0  0
   26.4367  -21.3000  -14.8021 C   0  0  0  0  0  0  0  0  0  0  0  0
   26.0466  -22.4604  -14.5411 O   0  0  0  0  0  0  0  0  0  0  0  0
   26.8930  -20.4810  -13.7595 N   0  0  0  0  0  0  0  0  0  0  0  0
   26.6916  -20.7585  -12.3678 C   0  0  1  0  0  0  0  0  0  0  0  0
   27.5203  -19.8773  -11.4688 C   0  0  0  0  0  0  0  0  0  0  0  0
   27.3744  -20.1510  -10.0453 C   0  0  0  0  0  0  0  0  0  0  0  0
   26.5045  -19.4127   -9.2780 C   0  0  0  0  0  0  0  0  0  0  0  0
   26.3552  -19.6648   -7.9108 C   0  0  0  0  0  0  0  0  0  0  0  0
   27.0703  -20.6583   -7.2806 C   0  0  0  0  0  0  0  0  0  0  0  0
   27.9474  -21.4024   -8.0549 C   0  0  0  0  0  0  0  0  0  0  0  0
   28.0747  -21.1388   -9.3785 C   0  0  0  0  0  0  0  0  0  0  0  0
   25.2899  -20.7194  -11.9600 C   0  0  0  0  0  0  0  0  0  0  0  0
   24.5847  -19.7436  -12.3490 O   0  0  0  0  0  0  0  0  0  0  0  0
   24.6232  -21.6852  -11.1528 N   0  0  0  0  0  0  0  0  0  0  0  0
   23.2018  -21.6181  -10.8810 C   0  0  1  0  0  0  0  0  0  0  0  0
   22.6589  -22.9292  -10.3317 C   0  0  0  0  0  0  0  0  0  0  0  0
   21.2242  -22.8154  -10.0028 C   0  0  0  0  0  0  0  0  0  0  0  0
   20.8930  -22.5545   -8.8191 O   0  0  0  0  0  0  0  0  0  0  0  0
   23.0157  -20.5996   -9.7896 C   0  0  0  0  0  0  0  0  0  0  0  0
   23.7301  -20.6535   -8.7506 O   0  0  0  0  0  0  0  0  0  0  0  0
   20.2012  -22.9800  -10.9284 O   0  0  0  0  0  0  0  0  0  0  0  0
   22.0631  -19.6098   -9.9305 O   0  0  0  0  0  0  0  0  0  0  0  0
  2  1  1  6
  2  3  1  0
  4  5  2  0
  4  3  1  0
  6  5  1  0
  7 12  2  0
  7  6  1  0
  8  7  1  0
  9  8  2  0
  9 10  1  0
 10 11  2  0
 11 12  1  0
 12  4  1  0
 13 14  2  0
 13  2  1  0
 15 13  1  0
 16 24  1  0
 16 15  1  0
 16 17  1  1
 18 17  1  0
 19 18  2  0
 20 19  1  0
 21 22  1  0
 21 20  2  0
 22 23  2  0
 23 18  1  0
 24 26  1  0
 25 24  2  0
 26 27  1  0
 27 31  1  0
 27 28  1  1
 29 28  1  0
 30 29  2  0
 31 32  2  0
 31 34  1  0
 33 29  1  0
M  END
$$$$
