WFD.pdb
     RDKit          3D

 34 36  0  0  1  0  0  0  0  0999 V2000
   26.3539  -21.6075  -13.5142 N   0  0  0  0  0  0  0  0  0  0  0  0
   26.0402  -20.4837  -12.7050 C   0  0  1  0  0  0  0  0  0  0  0  0
   24.7055  -19.8691  -12.8843 C   0  0  0  0  0  0  0  0  0  0  0  0
   24.4419  -19.2209  -14.1745 C   0  0  0  0  0  0  0  0  0  0  0  0
   23.4117  -19.5307  -15.0688 C   0  0  0  0  0  0  0  0  0  0  0  0
   23.5330  -18.6938  -16.1033 N   0  0  0  0  0  0  0  0  0  0  0  0
   24.5877  -17.8636  -15.9187 C   0  0  0  0  0  0  0  0  0  0  0  0
   25.1137  -16.8497  -16.6891 C   0  0  0  0  0  0  0  0  0  0  0  0
   26.2136  -16.1317  -16.2956 C   0  0  0  0  0  0  0  0  0  0  0  0
   26.7908  -16.4585  -15.0834 C   0  0  0  0  0  0  0  0  0  0  0  0
   26.2938  -17.4591  -14.2955 C   0  0  0  0  0  0  0  0  0  0  0  0
   25.1855  -18.1825  -14.6904 C   0  0  0  0  0  0  0  0  0  0  0  0
   26.1620  -20.8665  -11.2683 C   0  0  0  0  0  0  0  0  0  0  0  0
   26.0614  -22.0799  -10.9780 O   0  0  0  0  0  0  0  0  0  0  0  0
   26.3827  -19.9342  -10.2445 N   0  0  0  0  0  0  0  0  0  0  0  0
   26.5676  -20.2783   -8.8655 C   0  0  1  0  0  0  0  0  0  0  0  0
   27.4584  -19.3075   -8.1337 C   0  0  0  0  0  0  0  0  0  0  0  0
   27.7519  -19.6716   -6.7540 C   0  0  0  0  0  0  0  0  0  0  0  0
   27.1250  -19.0275   -5.7135 C   0  0  0  0  0  0  0  0  0  0  0  0
   27.3979  -19.3669   -4.3848 C   0  0  0  0  0  0  0  0  0  0  0  0
   28.3016  -20.3557   -4.0664 C   0  0  0  0  0  0  0  0  0  0  0  0
   28.9334  -21.0048   -5.1161 C   0  0  0  0  0  0  0  0  0  0  0  0
   28.6521  -20.6576   -6.3959 C   0  0  0  0  0  0  0  0  0  0  0  0
   25.3163  -20.4636   -8.1356 C   0  0  0  0  0  0  0  0  0  0  0  0
   24.4254  -19.5722   -8.2473 O   0  0  0  0  0  0  0  0  0  0  0  0
   24.9907  -21.5657   -7.2941 N   0  0  0  0  0  0  0  0  0  0  0  0
   23.7018  -21.6888   -6.6442 C   0  0  1  0  0  0  0  0  0  0  0  0
   23.3710  -23.1316   -6.2920 C   0  0  0  0  0  0  0  0  0  0  0  0
   22.0157  -23.2422   -5.7170 C   0  0  0  0  0  0  0  0  0  0  0  0
   21.2988  -22.2121   -5.6533 O   0  0  0  0  0  0  0  0  0  0  0  0
   23.8025  -20.9526   -5.3362 C   0  0  0  0  0  0  0  0  0  0  0  0
   24.8267  -21.0936   -4.6124 O   0  0  0  0  0  0  0  0  0  0  0  0
   21.4723  -24.4266   -5.2348 O   0  0  0  0  0  0  0  0  0  0  0  0
   22.7726  -20.1253   -4.9338 O   0  0  0  0  0  0  0  0  0  0  0  0
  2  1  1  6
  2  3  1  0
  4  5  2  0
  4  3  1  0
  6  5  1  0
  7 12  2  0
  7  6  1  0
  8  7  1  0
  9  8  2  0
  9 10  1  0
 10 11  2  0
 11 12  1  0
 12  4  1  0
 13 14  2  0
 13  2  1  0
 15 13  1  0
 16 24  1  0
 16 15  1  0
 16 17  1  1
 18 17  1  0
 19 18  2  0
 20 19  1  0
 21 22  1  0
 21 20  2  0
 22 23  2  0
 23 18  1  0
 24 26  1  0
 25 24  2  0
 26 27  1  0
 27 31  1  0
 27 28  1  1
 29 28  1  0
 30 29  2  0
 31 32  2  0
 31 34  1  0
 33 29  1  0
M  END
$$$$
