WFD.pdb
     RDKit          3D

 34 36  0  0  1  0  0  0  0  0999 V2000
   29.1311  -20.2018  -13.8542 N   0  0  0  0  0  0  0  0  0  0  0  0
   27.8454  -19.7896  -13.4148 C   0  0  1  0  0  0  0  0  0  0  0  0
   26.7508  -19.8024  -14.4112 C   0  0  0  0  0  0  0  0  0  0  0  0
   26.9343  -18.9737  -15.6085 C   0  0  0  0  0  0  0  0  0  0  0  0
   27.6669  -19.3102  -16.7519 C   0  0  0  0  0  0  0  0  0  0  0  0
   27.5606  -18.2802  -17.5963 N   0  0  0  0  0  0  0  0  0  0  0  0
   26.7980  -17.3006  -17.0535 C   0  0  0  0  0  0  0  0  0  0  0  0
   26.4073  -16.0651  -17.5214 C   0  0  0  0  0  0  0  0  0  0  0  0
   25.6210  -15.2209  -16.7802 C   0  0  0  0  0  0  0  0  0  0  0  0
   25.2240  -15.6507  -15.5284 C   0  0  0  0  0  0  0  0  0  0  0  0
   25.5946  -16.8705  -15.0346 C   0  0  0  0  0  0  0  0  0  0  0  0
   26.3859  -17.7219  -15.7806 C   0  0  0  0  0  0  0  0  0  0  0  0
   27.4178  -20.6532  -12.2760 C   0  0  0  0  0  0  0  0  0  0  0  0
   27.6705  -21.8772  -12.3460 O   0  0  0  0  0  0  0  0  0  0  0  0
   26.7542  -20.1553  -11.1457 N   0  0  0  0  0  0  0  0  0  0  0  0
   25.9548  -20.9524  -10.2626 C   0  0  1  0  0  0  0  0  0  0  0  0
   25.8000  -20.3363   -8.8958 C   0  0  0  0  0  0  0  0  0  0  0  0
   27.0176  -20.3148   -8.0962 C   0  0  0  0  0  0  0  0  0  0  0  0
   27.3167  -19.2279   -7.3090 C   0  0  0  0  0  0  0  0  0  0  0  0
   28.4820  -19.1941   -6.5370 C   0  0  0  0  0  0  0  0  0  0  0  0
   29.3731  -20.2437   -6.5342 C   0  0  0  0  0  0  0  0  0  0  0  0
   29.0710  -21.3395   -7.3283 C   0  0  0  0  0  0  0  0  0  0  0  0
   27.9350  -21.3484   -8.0680 C   0  0  0  0  0  0  0  0  0  0  0  0
   24.6464  -21.2998  -10.8105 C   0  0  0  0  0  0  0  0  0  0  0  0
   23.8048  -21.8451  -10.0392 O   0  0  0  0  0  0  0  0  0  0  0  0
   24.2134  -21.0843  -12.1502 N   0  0  0  0  0  0  0  0  0  0  0  0
   22.9130  -21.5150  -12.6218 C   0  0  1  0  0  0  0  0  0  0  0  0
   22.1611  -20.3996  -13.3332 C   0  0  0  0  0  0  0  0  0  0  0  0
   21.3245  -19.6341  -12.3879 C   0  0  0  0  0  0  0  0  0  0  0  0
   21.3072  -19.9773  -11.1793 O   0  0  0  0  0  0  0  0  0  0  0  0
   23.1567  -22.5797  -13.6562 C   0  0  0  0  0  0  0  0  0  0  0  0
   24.3331  -22.8245  -14.0417 O   0  0  0  0  0  0  0  0  0  0  0  0
   20.5437  -18.5437  -12.7512 O   0  0  0  0  0  0  0  0  0  0  0  0
   22.0904  -23.2846  -14.1791 O   0  0  0  0  0  0  0  0  0  0  0  0
  2  1  1  6
  2  3  1  0
  4  5  2  0
  4  3  1  0
  6  5  1  0
  7 12  2  0
  7  6  1  0
  8  7  1  0
  9  8  2  0
  9 10  1  0
 10 11  2  0
 11 12  1  0
 12  4  1  0
 13 14  2  0
 13  2  1  0
 15 13  1  0
 16 24  1  0
 16 15  1  0
 16 17  1  1
 18 17  1  0
 19 18  2  0
 20 19  1  0
 21 22  1  0
 21 20  2  0
 22 23  2  0
 23 18  1  0
 24 26  1  0
 25 24  2  0
 26 27  1  0
 27 31  1  0
 27 28  1  6
 29 28  1  0
 30 29  2  0
 31 32  2  0
 31 34  1  0
 33 29  1  0
M  END
$$$$
