WFD.pdb
     RDKit          3D

 34 36  0  0  1  0  0  0  0  0999 V2000
   27.9356  -21.0181   -8.8848 N   0  0  0  0  0  0  0  0  0  0  0  0
   26.5209  -20.9456   -8.7880 C   0  0  1  0  0  0  0  0  0  0  0  0
   25.9557  -20.0202   -7.7803 C   0  0  0  0  0  0  0  0  0  0  0  0
   26.9045  -19.3812   -6.8609 C   0  0  0  0  0  0  0  0  0  0  0  0
   27.2957  -18.0380   -6.8664 C   0  0  0  0  0  0  0  0  0  0  0  0
   28.1587  -17.8824   -5.8582 N   0  0  0  0  0  0  0  0  0  0  0  0
   28.3412  -19.0564   -5.2068 C   0  0  0  0  0  0  0  0  0  0  0  0
   29.1208  -19.4033   -4.1251 C   0  0  0  0  0  0  0  0  0  0  0  0
   29.1517  -20.6816   -3.6298 C   0  0  0  0  0  0  0  0  0  0  0  0
   28.3656  -21.6297   -4.2564 C   0  0  0  0  0  0  0  0  0  0  0  0
   27.5812  -21.3182   -5.3319 C   0  0  0  0  0  0  0  0  0  0  0  0
   27.5486  -20.0308   -5.8311 C   0  0  0  0  0  0  0  0  0  0  0  0
   25.9596  -20.5536  -10.1134 C   0  0  0  0  0  0  0  0  0  0  0  0
   26.0405  -19.3500  -10.4476 O   0  0  0  0  0  0  0  0  0  0  0  0
   25.3542  -21.4671  -10.9880 N   0  0  0  0  0  0  0  0  0  0  0  0
   24.9073  -21.1435  -12.3109 C   0  0  1  0  0  0  0  0  0  0  0  0
   25.8529  -21.6225  -13.3823 C   0  0  0  0  0  0  0  0  0  0  0  0
   27.0799  -20.8463  -13.5029 C   0  0  0  0  0  0  0  0  0  0  0  0
   28.1999  -21.1949  -12.7855 C   0  0  0  0  0  0  0  0  0  0  0  0
   29.3837  -20.4584  -12.8917 C   0  0  0  0  0  0  0  0  0  0  0  0
   29.4749  -19.3589  -13.7155 C   0  0  0  0  0  0  0  0  0  0  0  0
   28.3451  -19.0079  -14.4386 C   0  0  0  0  0  0  0  0  0  0  0  0
   27.2090  -19.7377  -14.3184 C   0  0  0  0  0  0  0  0  0  0  0  0
   23.5490  -21.5972  -12.5972 C   0  0  0  0  0  0  0  0  0  0  0  0
   23.0400  -22.4683  -11.8338 O   0  0  0  0  0  0  0  0  0  0  0  0
   22.7236  -21.1513  -13.6690 N   0  0  0  0  0  0  0  0  0  0  0  0
   21.3136  -20.8682  -13.4937 C   0  0  1  0  0  0  0  0  0  0  0  0
   21.0745  -19.7110  -12.5350 C   0  0  0  0  0  0  0  0  0  0  0  0
   19.6346  -19.4076  -12.4152 C   0  0  0  0  0  0  0  0  0  0  0  0
   18.8027  -20.2195  -12.8923 O   0  0  0  0  0  0  0  0  0  0  0  0
   20.7916  -20.4173  -14.8305 C   0  0  0  0  0  0  0  0  0  0  0  0
   21.4545  -19.5934  -15.5193 O   0  0  0  0  0  0  0  0  0  0  0  0
   19.1311  -18.2676  -11.8009 O   0  0  0  0  0  0  0  0  0  0  0  0
   19.5881  -20.9079  -15.2977 O   0  0  0  0  0  0  0  0  0  0  0  0
  2  1  1  6
  2  3  1  0
  4  5  2  0
  4  3  1  0
  6  5  1  0
  7 12  2  0
  7  6  1  0
  8  7  1  0
  9  8  2  0
  9 10  1  0
 10 11  2  0
 11 12  1  0
 12  4  1  0
 13 14  2  0
 13  2  1  0
 15 13  1  0
 16 24  1  0
 16 15  1  0
 16 17  1  6
 18 17  1  0
 19 18  2  0
 20 19  1  0
 21 22  1  0
 21 20  2  0
 22 23  2  0
 23 18  1  0
 24 26  1  0
 25 24  2  0
 26 27  1  0
 27 31  1  0
 27 28  1  1
 29 28  1  0
 30 29  2  0
 31 32  2  0
 31 34  1  0
 33 29  1  0
M  END
$$$$
