WFD.pdb
     RDKit          3D

 34 36  0  0  1  0  0  0  0  0999 V2000
   25.5024   -7.4660  -17.3406 N   0  0  0  0  0  0  0  0  0  0  0  0
   24.0922   -7.6273  -17.3759 C   0  0  1  0  0  0  0  0  0  0  0  0
   23.2879   -6.4738  -17.8382 C   0  0  0  0  0  0  0  0  0  0  0  0
   23.4114   -5.2291  -17.0704 C   0  0  0  0  0  0  0  0  0  0  0  0
   24.3428   -4.2070  -17.2824 C   0  0  0  0  0  0  0  0  0  0  0  0
   24.0936   -3.2618  -16.3714 N   0  0  0  0  0  0  0  0  0  0  0  0
   23.0508   -3.6251  -15.5863 C   0  0  0  0  0  0  0  0  0  0  0  0
   22.4302   -3.0029  -14.5252 C   0  0  0  0  0  0  0  0  0  0  0  0
   21.3729   -3.5729  -13.8637 C   0  0  0  0  0  0  0  0  0  0  0  0
   20.9391   -4.8109  -14.2979 C   0  0  0  0  0  0  0  0  0  0  0  0
   21.5333   -5.4551  -15.3472 C   0  0  0  0  0  0  0  0  0  0  0  0
   22.5977   -4.8816  -16.0147 C   0  0  0  0  0  0  0  0  0  0  0  0
   23.7543   -8.7838  -18.2557 C   0  0  0  0  0  0  0  0  0  0  0  0
   22.6803   -8.7342  -18.8966 O   0  0  0  0  0  0  0  0  0  0  0  0
   24.5810   -9.9081  -18.3921 N   0  0  0  0  0  0  0  0  0  0  0  0
   24.5119  -11.0675  -17.5523 C   0  0  1  0  0  0  0  0  0  0  0  0
   25.3938  -10.9622  -16.3346 C   0  0  0  0  0  0  0  0  0  0  0  0
   26.8233  -10.9719  -16.6154 C   0  0  0  0  0  0  0  0  0  0  0  0
   27.5625   -9.8170  -16.5140 C   0  0  0  0  0  0  0  0  0  0  0  0
   28.9350   -9.8123  -16.7809 C   0  0  0  0  0  0  0  0  0  0  0  0
   29.5986  -10.9593  -17.1546 C   0  0  0  0  0  0  0  0  0  0  0  0
   28.8527  -12.1236  -17.2567 C   0  0  0  0  0  0  0  0  0  0  0  0
   27.5231  -12.1026  -16.9928 C   0  0  0  0  0  0  0  0  0  0  0  0
   23.1516  -11.4263  -17.1606 C   0  0  0  0  0  0  0  0  0  0  0  0
   22.9147  -12.6361  -16.8758 O   0  0  0  0  0  0  0  0  0  0  0  0
   22.0432  -10.5368  -17.0657 N   0  0  0  0  0  0  0  0  0  0  0  0
   20.7069  -10.9969  -16.7471 C   0  0  1  0  0  0  0  0  0  0  0  0
   20.3972  -10.8792  -15.2619 C   0  0  0  0  0  0  0  0  0  0  0  0
   19.0398  -11.3751  -14.9600 C   0  0  0  0  0  0  0  0  0  0  0  0
   18.4615  -12.1078  -15.8013 O   0  0  0  0  0  0  0  0  0  0  0  0
   19.7501  -10.0712  -17.4474 C   0  0  0  0  0  0  0  0  0  0  0  0
   19.7064   -8.8515  -17.1265 O   0  0  0  0  0  0  0  0  0  0  0  0
   18.3494  -11.0813  -13.7906 O   0  0  0  0  0  0  0  0  0  0  0  0
   18.9235  -10.5615  -18.4392 O   0  0  0  0  0  0  0  0  0  0  0  0
  2  1  1  6
  2  3  1  0
  4  5  2  0
  4  3  1  0
  6  5  1  0
  7 12  2  0
  7  6  1  0
  8  7  1  0
  9  8  2  0
  9 10  1  0
 10 11  2  0
 11 12  1  0
 12  4  1  0
 13 14  2  0
 13  2  1  0
 15 13  1  0
 16 24  1  0
 16 15  1  0
 16 17  1  1
 18 17  1  0
 19 18  2  0
 20 19  1  0
 21 22  1  0
 21 20  2  0
 22 23  2  0
 23 18  1  0
 24 26  1  0
 25 24  2  0
 26 27  1  0
 27 31  1  0
 27 28  1  1
 29 28  1  0
 30 29  2  0
 31 32  2  0
 31 34  1  0
 33 29  1  0
M  END
$$$$
