WFD.pdb
     RDKit          3D

 34 36  0  0  1  0  0  0  0  0999 V2000
   17.4270   -9.0417   -9.9024 N   0  0  0  0  0  0  0  0  0  0  0  0
   16.7243   -8.1771  -10.7826 C   0  0  1  0  0  0  0  0  0  0  0  0
   15.5501   -7.4600  -10.2363 C   0  0  0  0  0  0  0  0  0  0  0  0
   14.4159   -8.2821   -9.7986 C   0  0  0  0  0  0  0  0  0  0  0  0
   14.2301   -9.6467  -10.0451 C   0  0  0  0  0  0  0  0  0  0  0  0
   13.0798   -9.9923   -9.4599 N   0  0  0  0  0  0  0  0  0  0  0  0
   12.5182   -8.9200   -8.8511 C   0  0  0  0  0  0  0  0  0  0  0  0
   11.3527   -8.7689   -8.1322 C   0  0  0  0  0  0  0  0  0  0  0  0
   10.9755   -7.5620   -7.6017 C   0  0  0  0  0  0  0  0  0  0  0  0
   11.8111   -6.4817   -7.8117 C   0  0  0  0  0  0  0  0  0  0  0  0
   12.9743   -6.5980   -8.5207 C   0  0  0  0  0  0  0  0  0  0  0  0
   13.3556   -7.8132   -9.0548 C   0  0  0  0  0  0  0  0  0  0  0  0
   17.6655   -7.1474  -11.3111 C   0  0  0  0  0  0  0  0  0  0  0  0
   18.1904   -6.3615  -10.4903 O   0  0  0  0  0  0  0  0  0  0  0  0
   17.9819   -7.0270  -12.6718 N   0  0  0  0  0  0  0  0  0  0  0  0
   18.8634   -6.0336  -13.2108 C   0  0  1  0  0  0  0  0  0  0  0  0
   19.8844   -6.6086  -14.1588 C   0  0  0  0  0  0  0  0  0  0  0  0
   20.8183   -7.5473  -13.5515 C   0  0  0  0  0  0  0  0  0  0  0  0
   21.8033   -7.1013  -12.7021 C   0  0  0  0  0  0  0  0  0  0  0  0
   22.7063   -7.9915  -12.1129 C   0  0  0  0  0  0  0  0  0  0  0  0
   22.6457   -9.3449  -12.3587 C   0  0  0  0  0  0  0  0  0  0  0  0
   21.6523   -9.7940  -13.2153 C   0  0  0  0  0  0  0  0  0  0  0  0
   20.7887   -8.9112  -13.7744 C   0  0  0  0  0  0  0  0  0  0  0  0
   18.1684   -4.9123  -13.8372 C   0  0  0  0  0  0  0  0  0  0  0  0
   16.9655   -5.0814  -14.1909 O   0  0  0  0  0  0  0  0  0  0  0  0
   18.7173   -3.6238  -14.0964 N   0  0  0  0  0  0  0  0  0  0  0  0
   17.9164   -2.5301  -14.6076 C   0  0  1  0  0  0  0  0  0  0  0  0
   16.7939   -2.1453  -13.6550 C   0  0  0  0  0  0  0  0  0  0  0  0
   16.0415   -0.9804  -14.1614 C   0  0  0  0  0  0  0  0  0  0  0  0
   15.6075   -1.0056  -15.3404 O   0  0  0  0  0  0  0  0  0  0  0  0
   18.8212   -1.3313  -14.6921 C   0  0  0  0  0  0  0  0  0  0  0  0
   18.4338   -0.2921  -15.2943 O   0  0  0  0  0  0  0  0  0  0  0  0
   15.7774    0.1582  -13.4102 O   0  0  0  0  0  0  0  0  0  0  0  0
   20.0726   -1.3743  -14.1095 O   0  0  0  0  0  0  0  0  0  0  0  0
  2  1  1  1
  2  3  1  0
  4  5  2  0
  4  3  1  0
  6  5  1  0
  7 12  2  0
  7  6  1  0
  8  7  1  0
  9  8  2  0
  9 10  1  0
 10 11  2  0
 11 12  1  0
 12  4  1  0
 13 14  2  0
 13  2  1  0
 15 13  1  0
 16 24  1  0
 16 15  1  0
 16 17  1  6
 18 17  1  0
 19 18  2  0
 20 19  1  0
 21 22  1  0
 21 20  2  0
 22 23  2  0
 23 18  1  0
 24 26  1  0
 25 24  2  0
 26 27  1  0
 27 31  1  0
 27 28  1  1
 29 28  1  0
 30 29  2  0
 31 32  2  0
 31 34  1  0
 33 29  1  0
M  END
$$$$
