WFD.pdb
     RDKit          3D

 34 36  0  0  1  0  0  0  0  0999 V2000
   16.5391  -19.8856    1.4792 N   0  0  0  0  0  0  0  0  0  0  0  0
   15.9057  -18.9043    2.2866 C   0  0  1  0  0  0  0  0  0  0  0  0
   14.8784  -19.3725    3.2440 C   0  0  0  0  0  0  0  0  0  0  0  0
   13.5988  -19.8168    2.6789 C   0  0  0  0  0  0  0  0  0  0  0  0
   13.2413  -21.1297    2.3537 C   0  0  0  0  0  0  0  0  0  0  0  0
   11.9917  -21.0849    1.8829 N   0  0  0  0  0  0  0  0  0  0  0  0
   11.5295  -19.8112    1.8891 C   0  0  0  0  0  0  0  0  0  0  0  0
   10.3263  -19.2611    1.5044 C   0  0  0  0  0  0  0  0  0  0  0  0
   10.0776  -17.9159    1.5977 C   0  0  0  0  0  0  0  0  0  0  0  0
   11.0847  -17.1122    2.0970 C   0  0  0  0  0  0  0  0  0  0  0  0
   12.2899  -17.6264    2.4871 C   0  0  0  0  0  0  0  0  0  0  0  0
   12.5413  -18.9813    2.3943 C   0  0  0  0  0  0  0  0  0  0  0  0
   16.9426  -18.1737    3.0718 C   0  0  0  0  0  0  0  0  0  0  0  0
   17.9590  -18.8108    3.4296 O   0  0  0  0  0  0  0  0  0  0  0  0
   16.8262  -16.8203    3.4194 N   0  0  0  0  0  0  0  0  0  0  0  0
   17.7812  -16.1060    4.2144 C   0  0  1  0  0  0  0  0  0  0  0  0
   17.8286  -14.6346    3.8917 C   0  0  0  0  0  0  0  0  0  0  0  0
   18.8000  -13.8727    4.6651 C   0  0  0  0  0  0  0  0  0  0  0  0
   19.5856  -14.4949    5.6064 C   0  0  0  0  0  0  0  0  0  0  0  0
   20.5215  -13.7754    6.3558 C   0  0  0  0  0  0  0  0  0  0  0  0
   20.6932  -12.4204    6.1818 C   0  0  0  0  0  0  0  0  0  0  0  0
   19.9007  -11.7935    5.2324 C   0  0  0  0  0  0  0  0  0  0  0  0
   19.0003  -12.5128    4.5185 C   0  0  0  0  0  0  0  0  0  0  0  0
   17.6100  -16.3020    5.6515 C   0  0  0  0  0  0  0  0  0  0  0  0
   16.4684  -16.0802    6.1497 O   0  0  0  0  0  0  0  0  0  0  0  0
   18.6163  -16.7244    6.5667 N   0  0  0  0  0  0  0  0  0  0  0  0
   18.3238  -17.0260    7.9533 C   0  0  1  0  0  0  0  0  0  0  0  0
   18.5852  -18.4864    8.2914 C   0  0  0  0  0  0  0  0  0  0  0  0
   18.1885  -18.7907    9.6805 C   0  0  0  0  0  0  0  0  0  0  0  0
   17.5582  -17.9223   10.3345 O   0  0  0  0  0  0  0  0  0  0  0  0
   19.2889  -16.2260    8.7849 C   0  0  0  0  0  0  0  0  0  0  0  0
   20.5286  -16.3089    8.5637 O   0  0  0  0  0  0  0  0  0  0  0  0
   18.4697  -19.9907   10.3219 O   0  0  0  0  0  0  0  0  0  0  0  0
   18.8126  -15.4039    9.7872 O   0  0  0  0  0  0  0  0  0  0  0  0
  2  1  1  1
  2  3  1  0
  4  5  2  0
  4  3  1  0
  6  5  1  0
  7 12  2  0
  7  6  1  0
  8  7  1  0
  9  8  2  0
  9 10  1  0
 10 11  2  0
 11 12  1  0
 12  4  1  0
 13 14  2  0
 13  2  1  0
 15 13  1  0
 16 24  1  0
 16 15  1  0
 16 17  1  1
 18 17  1  0
 19 18  2  0
 20 19  1  0
 21 22  1  0
 21 20  2  0
 22 23  2  0
 23 18  1  0
 24 26  1  0
 25 24  2  0
 26 27  1  0
 27 31  1  0
 27 28  1  6
 29 28  1  0
 30 29  2  0
 31 32  2  0
 31 34  1  0
 33 29  1  0
M  END
$$$$
