RVQ.pdb
     RDKit          3D

 28 27  0  0  1  0  0  0  0  0999 V2000
   18.4885  -31.0101  -15.5613 N   0  0  0  0  0  0  0  0  0  0  0  0
   19.6283  -31.5190  -14.8805 C   0  0  0  0  0  0  0  0  0  0  0  0
   19.8942  -32.7738  -14.9667 N   0  0  0  0  0  0  0  0  0  0  0  0
   20.4774  -30.6828  -14.1111 N   0  0  0  0  0  0  0  0  0  0  0  0
   20.2156  -29.2808  -13.9554 C   0  0  0  0  0  0  0  0  0  0  0  0
   19.6180  -28.9556  -12.6093 C   0  0  0  0  0  0  0  0  0  0  0  0
   19.3227  -27.4899  -12.5323 C   0  0  0  0  0  0  0  0  0  0  0  0
   20.5625  -26.6280  -12.5661 C   0  0  2  0  0  0  0  0  0  0  0  0
   21.3191  -26.8856  -11.3623 N   0  0  0  0  0  0  0  0  0  0  0  0
   20.1622  -25.1942  -12.6781 C   0  0  0  0  0  0  0  0  0  0  0  0
   19.5115  -24.6984  -11.7086 O   0  0  0  0  0  0  0  0  0  0  0  0
   20.7227  -33.2183  -14.5205 C   0  0  0  0  0  0  0  0  0  0  0  0
   20.5354  -20.8318  -14.9860 C   0  0  1  0  0  0  0  0  0  0  0  0
   20.8043  -22.3153  -14.9568 C   0  0  0  0  0  0  0  0  0  0  0  0
   20.4467  -23.0215  -16.2251 C   0  0  2  0  0  0  0  0  0  0  0  0
   20.1064  -23.0010  -13.7997 N   0  0  0  0  0  0  0  0  0  0  0  0
   20.4727  -24.3790  -13.8012 C   0  0  0  0  0  0  0  0  0  0  0  0
   18.6416  -22.7752  -13.8101 O   0  0  0  0  0  0  0  0  0  0  0  0
   17.9447  -23.5293  -14.5368 N   0  0  0  0  0  0  0  0  0  0  0  0
   14.4319  -21.6628   -9.4188 C   0  0  0  0  0  0  0  0  0  0  0  0
   13.6918  -21.4475  -10.6043 O   0  0  0  0  0  0  0  0  0  0  0  0
   12.4453  -21.3003  -10.5493 C   0  0  0  0  0  0  0  0  0  0  0  0
   14.3974  -21.3983  -11.8973 C   0  0  0  0  0  0  0  0  0  0  0  0
   15.8771  -21.6556  -11.7559 C   0  0  2  0  0  0  0  0  0  0  0  0
   16.5631  -21.5455  -13.0804 N   0  0  0  0  0  0  0  0  0  0  0  0
   17.9684  -21.7781  -13.0671 C   0  0  0  0  0  0  0  0  0  0  0  0
   16.1730  -20.2479  -13.6885 O   0  0  0  0  0  0  0  0  0  0  0  0
   17.0062  -19.3326  -13.8746 O   0  0  0  0  0  0  0  0  0  0  0  0
  2  1  1  0
  3  2  2  0
  4  2  1  0
  5  4  1  0
  6  5  1  0
  7  6  1  0
  8  7  1  0
  8  9  1  1
 10  8  1  0
 10 11  2  0
 13 14  1  1
 13 12  1  0
 15 16  1  1
 15 13  1  0
 16 10  1  0
 17 15  1  0
 18 17  2  0
 20 21  2  0
 20 19  1  0
 22 20  1  0
 23 22  1  0
 24 23  1  6
 24 25  1  0
 25 17  1  0
 26 28  1  0
 26 24  1  0
 27 26  2  0
M  END
$$$$
