RVQ.pdb
     RDKit          3D

 28 27  0  0  1  0  0  0  0  0999 V2000
   24.6486  -17.0961  -19.5199 N   0  0  0  0  0  0  0  0  0  0  0  0
   25.2691  -15.8327  -19.3189 C   0  0  0  0  0  0  0  0  0  0  0  0
   24.8989  -14.8368  -20.0426 N   0  0  0  0  0  0  0  0  0  0  0  0
   26.2825  -15.6415  -18.3449 N   0  0  0  0  0  0  0  0  0  0  0  0
   26.6797  -16.6931  -17.4535 C   0  0  0  0  0  0  0  0  0  0  0  0
   26.1814  -18.0439  -17.9029 C   0  0  0  0  0  0  0  0  0  0  0  0
   26.0906  -18.9628  -16.7243 C   0  0  0  0  0  0  0  0  0  0  0  0
   27.3670  -19.7264  -16.4623 C   0  0  2  0  0  0  0  0  0  0  0  0
   27.5956  -20.6125  -17.5807 N   0  0  0  0  0  0  0  0  0  0  0  0
   27.2386  -20.4727  -15.1757 C   0  0  0  0  0  0  0  0  0  0  0  0
   26.2526  -21.2626  -15.0615 O   0  0  0  0  0  0  0  0  0  0  0  0
   25.2664  -13.8705  -19.9231 C   0  0  0  0  0  0  0  0  0  0  0  0
   28.9522  -21.6905  -10.7030 C   0  0  1  0  0  0  0  0  0  0  0  0
   29.1286  -20.9446  -12.0017 C   0  0  0  0  0  0  0  0  0  0  0  0
   29.5894  -19.5324  -11.8322 C   0  0  2  0  0  0  0  0  0  0  0  0
   27.8677  -20.9519  -12.8420 N   0  0  0  0  0  0  0  0  0  0  0  0
   28.1550  -20.3381  -14.0966 C   0  0  0  0  0  0  0  0  0  0  0  0
   26.7143  -20.3470  -12.1346 O   0  0  0  0  0  0  0  0  0  0  0  0
   26.7498  -19.1073  -11.9238 N   0  0  0  0  0  0  0  0  0  0  0  0
   22.3295  -21.1917  -14.0531 C   0  0  0  0  0  0  0  0  0  0  0  0
   21.9136  -21.9333  -12.9233 O   0  0  0  0  0  0  0  0  0  0  0  0
   21.1553  -22.9247  -13.0665 C   0  0  0  0  0  0  0  0  0  0  0  0
   22.3784  -21.5306  -11.5839 C   0  0  0  0  0  0  0  0  0  0  0  0
   23.2309  -20.2865  -11.6203 C   0  0  1  0  0  0  0  0  0  0  0  0
   24.5215  -20.5072  -10.8973 N   0  0  0  0  0  0  0  0  0  0  0  0
   25.5789  -21.0558  -11.6786 C   0  0  0  0  0  0  0  0  0  0  0  0
   24.2251  -21.2751   -9.6611 O   0  0  0  0  0  0  0  0  0  0  0  0
   24.8284  -22.3369   -9.3866 O   0  0  0  0  0  0  0  0  0  0  0  0
  2  1  1  0
  3  2  2  0
  4  2  1  0
  5  4  1  0
  6  5  1  0
  7  6  1  0
  8  7  1  0
  8  9  1  6
 10  8  1  0
 10 11  2  0
 13 14  1  1
 13 12  1  0
 15 16  1  1
 15 13  1  0
 16 10  1  0
 17 15  1  0
 18 17  2  0
 20 21  2  0
 20 19  1  0
 22 20  1  0
 23 22  1  0
 24 23  1  6
 24 25  1  0
 25 17  1  0
 26 28  1  0
 26 24  1  0
 27 26  2  0
M  END
$$$$
