RVQ.pdb
     RDKit          3D

 28 27  0  0  1  0  0  0  0  0999 V2000
   26.8449  -25.5113  -15.8321 N   0  0  0  0  0  0  0  0  0  0  0  0
   26.7551  -25.5997  -17.2484 C   0  0  0  0  0  0  0  0  0  0  0  0
   26.3472  -26.6980  -17.7775 N   0  0  0  0  0  0  0  0  0  0  0  0
   27.1024  -24.5126  -18.0910 N   0  0  0  0  0  0  0  0  0  0  0  0
   27.2491  -23.1799  -17.5807 C   0  0  0  0  0  0  0  0  0  0  0  0
   26.2564  -22.8724  -16.4875 C   0  0  0  0  0  0  0  0  0  0  0  0
   26.4371  -21.4588  -16.0287 C   0  0  0  0  0  0  0  0  0  0  0  0
   26.3276  -20.4492  -17.1466 C   0  0  2  0  0  0  0  0  0  0  0  0
   27.6460  -19.9120  -17.3947 N   0  0  0  0  0  0  0  0  0  0  0  0
   25.3557  -19.3856  -16.7558 C   0  0  0  0  0  0  0  0  0  0  0  0
   25.7673  -18.4926  -15.9544 O   0  0  0  0  0  0  0  0  0  0  0  0
   26.2737  -26.8495  -18.8045 C   0  0  0  0  0  0  0  0  0  0  0  0
   21.9096  -18.3076  -18.9722 C   0  0  1  0  0  0  0  0  0  0  0  0
   22.7077  -17.4852  -17.9920 C   0  0  0  0  0  0  0  0  0  0  0  0
   23.9055  -16.8211  -18.5915 C   0  0  1  0  0  0  0  0  0  0  0  0
   23.1464  -18.2951  -16.7888 N   0  0  0  0  0  0  0  0  0  0  0  0
   24.0172  -19.3329  -17.2334 C   0  0  0  0  0  0  0  0  0  0  0  0
   21.9986  -18.7842  -15.9887 O   0  0  0  0  0  0  0  0  0  0  0  0
   21.3995  -19.8099  -16.4027 N   0  0  0  0  0  0  0  0  0  0  0  0
   20.9360  -18.8768   -9.7973 C   0  0  0  0  0  0  0  0  0  0  0  0
   19.7214  -19.3527  -10.3430 O   0  0  0  0  0  0  0  0  0  0  0  0
   18.8320  -19.8176   -9.5871 C   0  0  0  0  0  0  0  0  0  0  0  0
   19.5138  -19.2967  -11.8010 C   0  0  0  0  0  0  0  0  0  0  0  0
   20.6905  -18.6938  -12.5274 C   0  0  2  0  0  0  0  0  0  0  0  0
   20.4467  -18.6698  -14.0029 N   0  0  0  0  0  0  0  0  0  0  0  0
   21.5259  -18.1867  -14.7974 C   0  0  0  0  0  0  0  0  0  0  0  0
   19.1613  -17.9649  -14.2404 O   0  0  0  0  0  0  0  0  0  0  0  0
   19.1205  -16.7393  -14.4912 O   0  0  0  0  0  0  0  0  0  0  0  0
  2  1  1  0
  3  2  2  0
  4  2  1  0
  5  4  1  0
  6  5  1  0
  7  6  1  0
  8  7  1  0
  8  9  1  1
 10  8  1  0
 10 11  2  0
 13 14  1  6
 13 12  1  0
 15 16  1  6
 15 13  1  0
 16 10  1  0
 17 15  1  0
 18 17  2  0
 20 21  2  0
 20 19  1  0
 22 20  1  0
 23 22  1  0
 24 23  1  6
 24 25  1  0
 25 17  1  0
 26 28  1  0
 26 24  1  0
 27 26  2  0
M  END
$$$$
