RVQ.pdb
     RDKit          3D

 28 27  0  0  1  0  0  0  0  0999 V2000
   19.5616  -23.6589   -9.1049 N   0  0  0  0  0  0  0  0  0  0  0  0
   19.5049  -23.2254  -10.4579 C   0  0  0  0  0  0  0  0  0  0  0  0
   18.9081  -23.9659  -11.3228 N   0  0  0  0  0  0  0  0  0  0  0  0
   20.0873  -22.0022  -10.8783 N   0  0  0  0  0  0  0  0  0  0  0  0
   20.7781  -21.1415   -9.9617 C   0  0  0  0  0  0  0  0  0  0  0  0
   22.2174  -21.5485   -9.7674 C   0  0  0  0  0  0  0  0  0  0  0  0
   23.0972  -20.7181  -10.6494 C   0  0  0  0  0  0  0  0  0  0  0  0
   24.5402  -21.1640  -10.6440 C   0  0  2  0  0  0  0  0  0  0  0  0
   25.0397  -21.0454   -9.2933 N   0  0  0  0  0  0  0  0  0  0  0  0
   25.3181  -20.3248  -11.6028 C   0  0  0  0  0  0  0  0  0  0  0  0
   25.8763  -19.2843  -11.1392 O   0  0  0  0  0  0  0  0  0  0  0  0
   18.8442  -23.7315  -12.3347 C   0  0  0  0  0  0  0  0  0  0  0  0
   27.6445  -21.8000  -14.4860 C   0  0  1  0  0  0  0  0  0  0  0  0
   27.6552  -20.4150  -13.8894 C   0  0  0  0  0  0  0  0  0  0  0  0
   28.2848  -20.3429  -12.5353 C   0  0  1  0  0  0  0  0  0  0  0  0
   26.2671  -19.8117  -13.8180 N   0  0  0  0  0  0  0  0  0  0  0  0
   25.4564  -20.6360  -12.9835 C   0  0  0  0  0  0  0  0  0  0  0  0
   25.6864  -19.5712  -15.1603 O   0  0  0  0  0  0  0  0  0  0  0  0
   25.1189  -20.5400  -15.7277 N   0  0  0  0  0  0  0  0  0  0  0  0
   24.6926  -14.0677  -18.4222 C   0  0  0  0  0  0  0  0  0  0  0  0
   23.9614  -15.0632  -19.1106 O   0  0  0  0  0  0  0  0  0  0  0  0
   23.2209  -14.7457  -20.0746 C   0  0  0  0  0  0  0  0  0  0  0  0
   24.0785  -16.4694  -18.6850 C   0  0  0  0  0  0  0  0  0  0  0  0
   24.9381  -16.6292  -17.4556 C   0  0  2  0  0  0  0  0  0  0  0  0
   25.0954  -18.0742  -17.1032 N   0  0  0  0  0  0  0  0  0  0  0  0
   25.7218  -18.3379  -15.8512 C   0  0  0  0  0  0  0  0  0  0  0  0
   25.7398  -18.7559  -18.2545 O   0  0  0  0  0  0  0  0  0  0  0  0
   26.9847  -18.8190  -18.3680 O   0  0  0  0  0  0  0  0  0  0  0  0
  2  1  1  0
  3  2  2  0
  4  2  1  0
  5  4  1  0
  6  5  1  0
  7  6  1  0
  8  7  1  0
  8  9  1  1
 10  8  1  0
 10 11  2  0
 13 14  1  1
 13 12  1  0
 15 16  1  1
 15 13  1  0
 16 10  1  0
 17 15  1  0
 18 17  2  0
 20 21  2  0
 20 19  1  0
 22 20  1  0
 23 22  1  0
 24 23  1  1
 24 25  1  0
 25 17  1  0
 26 28  1  0
 26 24  1  0
 27 26  2  0
M  END
$$$$
