RVQ.pdb
     RDKit          3D

 28 27  0  0  1  0  0  0  0  0999 V2000
   29.9854  -22.8111  -16.4197 N   0  0  0  0  0  0  0  0  0  0  0  0
   29.6660  -21.8588  -17.4261 C   0  0  0  0  0  0  0  0  0  0  0  0
   29.3364  -22.2782  -18.5958 N   0  0  0  0  0  0  0  0  0  0  0  0
   29.7011  -20.4630  -17.1757 N   0  0  0  0  0  0  0  0  0  0  0  0
   28.8700  -19.8548  -16.1770 C   0  0  0  0  0  0  0  0  0  0  0  0
   27.5280  -19.4375  -16.7249 C   0  0  0  0  0  0  0  0  0  0  0  0
   26.4432  -19.9044  -15.8048 C   0  0  0  0  0  0  0  0  0  0  0  0
   26.7740  -21.1981  -15.0991 C   0  0  2  0  0  0  0  0  0  0  0  0
   26.8884  -22.2359  -16.0982 N   0  0  0  0  0  0  0  0  0  0  0  0
   25.7069  -21.5003  -14.0997 C   0  0  0  0  0  0  0  0  0  0  0  0
   24.7482  -22.2374  -14.4828 O   0  0  0  0  0  0  0  0  0  0  0  0
   29.2085  -21.6516  -19.4168 C   0  0  0  0  0  0  0  0  0  0  0  0
   25.1682  -19.6857  -10.0433 C   0  0  1  0  0  0  0  0  0  0  0  0
   25.0973  -21.1322  -10.4635 C   0  0  0  0  0  0  0  0  0  0  0  0
   26.3818  -21.8775  -10.2909 C   0  0  1  0  0  0  0  0  0  0  0  0
   24.6267  -21.2902  -11.8952 N   0  0  0  0  0  0  0  0  0  0  0  0
   25.7198  -21.0073  -12.7659 C   0  0  0  0  0  0  0  0  0  0  0  0
   23.4145  -20.4873  -12.1827 O   0  0  0  0  0  0  0  0  0  0  0  0
   23.5459  -19.4909  -12.9393 N   0  0  0  0  0  0  0  0  0  0  0  0
   20.3254  -22.8716  -15.9352 C   0  0  0  0  0  0  0  0  0  0  0  0
   19.3463  -21.9084  -15.5991 O   0  0  0  0  0  0  0  0  0  0  0  0
   18.3689  -21.7123  -16.3638 C   0  0  0  0  0  0  0  0  0  0  0  0
   19.4863  -21.1422  -14.3479 C   0  0  0  0  0  0  0  0  0  0  0  0
   20.7964  -21.4130  -13.6506 C   0  0  2  0  0  0  0  0  0  0  0  0
   20.9034  -20.6100  -12.3933 N   0  0  0  0  0  0  0  0  0  0  0  0
   22.1233  -20.7551  -11.6721 C   0  0  0  0  0  0  0  0  0  0  0  0
   19.6884  -20.8727  -11.5808 O   0  0  0  0  0  0  0  0  0  0  0  0
   19.7271  -21.5845  -10.5519 O   0  0  0  0  0  0  0  0  0  0  0  0
  2  1  1  0
  3  2  2  0
  4  2  1  0
  5  4  1  0
  6  5  1  0
  7  6  1  0
  8  7  1  0
  8  9  1  6
 10  8  1  0
 10 11  2  0
 13 14  1  1
 13 12  1  0
 15 16  1  6
 15 13  1  0
 16 10  1  0
 17 15  1  0
 18 17  2  0
 20 21  2  0
 20 19  1  0
 22 20  1  0
 23 22  1  0
 24 23  1  6
 24 25  1  0
 25 17  1  0
 26 28  1  0
 26 24  1  0
 27 26  2  0
M  END
$$$$
