HKD.pdb
     RDKit          3D

 28 28  0  0  1  0  0  0  0  0999 V2000
    7.5915  -13.4953   16.4715 N   0  0  0  0  0  0  0  0  0  0  0  0
    8.1810  -14.6828   17.0636 C   0  0  1  0  0  0  0  0  0  0  0  0
    9.5352  -14.9784   16.4296 C   0  0  0  0  0  0  0  0  0  0  0  0
    9.4325  -15.4797   15.0610 C   0  0  0  0  0  0  0  0  0  0  0  0
    8.3059  -15.7843   14.3125 C   0  0  0  0  0  0  0  0  0  0  0  0
    8.7360  -16.2150   13.1003 N   0  0  0  0  0  0  0  0  0  0  0  0
   10.0783  -16.1747   13.1092 C   0  0  0  0  0  0  0  0  0  0  0  0
   10.5047  -15.7337   14.2848 N   0  0  0  0  0  0  0  0  0  0  0  0
    8.3620  -14.4254   18.5099 C   0  0  0  0  0  0  0  0  0  0  0  0
    8.6353  -13.2889   18.9582 O   0  0  0  0  0  0  0  0  0  0  0  0
    8.2223  -15.4911   19.4244 N   0  0  0  0  0  0  0  0  0  0  0  0
    8.2225  -15.3586   20.8722 C   0  0  1  0  0  0  0  0  0  0  0  0
    6.8523  -15.6132   21.4371 C   0  0  0  0  0  0  0  0  0  0  0  0
    6.3416  -16.9330   21.0029 C   0  0  0  0  0  0  0  0  0  0  0  0
    4.9542  -17.2680   21.4699 C   0  0  0  0  0  0  0  0  0  0  0  0
    4.4728  -18.6064   20.9606 C   0  0  0  0  0  0  0  0  0  0  0  0
    3.1026  -18.7644   21.4311 N   0  0  0  0  0  0  0  0  0  0  0  0
    9.2550  -16.2450   21.4503 C   0  0  0  0  0  0  0  0  0  0  0  0
    9.5385  -17.3917   21.0123 O   0  0  0  0  0  0  0  0  0  0  0  0
   10.0348  -15.8461   22.5883 N   0  0  0  0  0  0  0  0  0  0  0  0
   11.0313  -16.7275   23.2001 C   0  0  1  0  0  0  0  0  0  0  0  0
   12.0659  -15.9474   23.9340 C   0  0  0  0  0  0  0  0  0  0  0  0
   13.1185  -16.8239   24.4652 C   0  0  0  0  0  0  0  0  0  0  0  0
   13.7365  -17.7052   23.7826 O   0  0  0  0  0  0  0  0  0  0  0  0
   10.3371  -17.6299   24.1823 C   0  0  0  0  0  0  0  0  0  0  0  0
    9.2071  -17.2418   24.6379 O   0  0  0  0  0  0  0  0  0  0  0  0
   13.5380  -16.7646   25.8050 O   0  0  0  0  0  0  0  0  0  0  0  0
   10.8123  -18.8270   24.6273 O   0  0  0  0  0  0  0  0  0  0  0  0
  2  1  1  6
  3  4  1  0
  3  2  1  0
  4  5  2  0
  6  5  1  0
  7  6  1  0
  8  7  2  0
  8  4  1  0
  9 11  1  0
  9  2  1  0
 10  9  2  0
 12 11  1  0
 12 13  1  1
 13 14  1  0
 14 15  1  0
 15 16  1  0
 17 16  1  0
 18 12  1  0
 19 18  2  0
 20 18  1  0
 21 25  1  0
 21 20  1  0
 21 22  1  1
 23 27  1  0
 23 22  1  0
 24 23  2  0
 25 28  1  0
 26 25  2  0
M  END
$$$$
