HKD.pdb
     RDKit          3D

 28 28  0  0  1  0  0  0  0  0999 V2000
    7.3246  -18.0583   18.8136 N   0  0  0  0  0  0  0  0  0  0  0  0
    8.4297  -17.2376   19.2754 C   0  0  1  0  0  0  0  0  0  0  0  0
    7.9784  -16.3256   20.4104 C   0  0  0  0  0  0  0  0  0  0  0  0
    8.0582  -14.9060   20.0739 C   0  0  0  0  0  0  0  0  0  0  0  0
    8.3810  -14.2987   18.8700 C   0  0  0  0  0  0  0  0  0  0  0  0
    8.3173  -12.9585   19.0688 N   0  0  0  0  0  0  0  0  0  0  0  0
    7.9679  -12.7552   20.3495 C   0  0  0  0  0  0  0  0  0  0  0  0
    7.8104  -13.9215   20.9606 N   0  0  0  0  0  0  0  0  0  0  0  0
    9.4921  -18.1434   19.7668 C   0  0  0  0  0  0  0  0  0  0  0  0
    9.2862  -18.9909   20.6649 O   0  0  0  0  0  0  0  0  0  0  0  0
   10.7856  -18.0583   19.2090 N   0  0  0  0  0  0  0  0  0  0  0  0
   11.9340  -18.8429   19.6322 C   0  0  1  0  0  0  0  0  0  0  0  0
   13.0975  -18.6411   18.7011 C   0  0  0  0  0  0  0  0  0  0  0  0
   12.8880  -19.3731   17.4316 C   0  0  0  0  0  0  0  0  0  0  0  0
   14.0209  -19.2890   16.4494 C   0  0  0  0  0  0  0  0  0  0  0  0
   13.7568  -20.0703   15.1836 C   0  0  0  0  0  0  0  0  0  0  0  0
   14.8677  -19.7931   14.2819 N   0  0  0  0  0  0  0  0  0  0  0  0
   12.2619  -18.5222   21.0378 C   0  0  0  0  0  0  0  0  0  0  0  0
   12.2375  -17.3629   21.5302 O   0  0  0  0  0  0  0  0  0  0  0  0
   12.6414  -19.5448   21.9719 N   0  0  0  0  0  0  0  0  0  0  0  0
   12.9757  -19.2445   23.3656 C   0  0  1  0  0  0  0  0  0  0  0  0
   11.9510  -19.7911   24.2976 C   0  0  0  0  0  0  0  0  0  0  0  0
   12.3504  -19.6050   25.6991 C   0  0  0  0  0  0  0  0  0  0  0  0
   13.0051  -18.6023   26.1359 O   0  0  0  0  0  0  0  0  0  0  0  0
   14.2973  -19.8831   23.6916 C   0  0  0  0  0  0  0  0  0  0  0  0
   14.5949  -20.9628   23.0747 O   0  0  0  0  0  0  0  0  0  0  0  0
   12.0399  -20.5432   26.6980 O   0  0  0  0  0  0  0  0  0  0  0  0
   15.2042  -19.4067   24.5903 O   0  0  0  0  0  0  0  0  0  0  0  0
  2  1  1  1
  3  4  1  0
  3  2  1  0
  4  5  2  0
  6  5  1  0
  7  6  1  0
  8  7  2  0
  8  4  1  0
  9 11  1  0
  9  2  1  0
 10  9  2  0
 12 11  1  0
 12 13  1  6
 13 14  1  0
 14 15  1  0
 15 16  1  0
 17 16  1  0
 18 12  1  0
 19 18  2  0
 20 18  1  0
 21 25  1  0
 21 20  1  0
 21 22  1  1
 23 27  1  0
 23 22  1  0
 24 23  2  0
 25 28  1  0
 26 25  2  0
M  END
$$$$
