HKD.pdb
     RDKit          3D

 28 28  0  0  1  0  0  0  0  0999 V2000
    9.6430  -16.3347   18.8980 N   0  0  0  0  0  0  0  0  0  0  0  0
    8.5538  -16.4994   19.8439 C   0  0  1  0  0  0  0  0  0  0  0  0
    8.1898  -17.9727   19.9864 C   0  0  0  0  0  0  0  0  0  0  0  0
    7.5046  -18.5119   18.8139 C   0  0  0  0  0  0  0  0  0  0  0  0
    7.2020  -17.9006   17.6069 C   0  0  0  0  0  0  0  0  0  0  0  0
    6.5586  -18.8192   16.8440 N   0  0  0  0  0  0  0  0  0  0  0  0
    6.4717  -19.9515   17.5608 C   0  0  0  0  0  0  0  0  0  0  0  0
    7.0383  -19.7747   18.7466 N   0  0  0  0  0  0  0  0  0  0  0  0
    9.0075  -15.9773   21.1524 C   0  0  0  0  0  0  0  0  0  0  0  0
   10.1839  -16.1172   21.5572 O   0  0  0  0  0  0  0  0  0  0  0  0
    8.0905  -15.2948   21.9800 N   0  0  0  0  0  0  0  0  0  0  0  0
    8.3828  -14.7784   23.3072 C   0  0  1  0  0  0  0  0  0  0  0  0
    7.2259  -13.9803   23.8420 C   0  0  0  0  0  0  0  0  0  0  0  0
    7.5385  -13.4349   25.1823 C   0  0  0  0  0  0  0  0  0  0  0  0
    6.5009  -12.5138   25.7567 C   0  0  0  0  0  0  0  0  0  0  0  0
    6.9062  -11.9369   27.0929 C   0  0  0  0  0  0  0  0  0  0  0  0
    5.8107  -11.0798   27.5277 N   0  0  0  0  0  0  0  0  0  0  0  0
    8.7711  -15.8930   24.1976 C   0  0  0  0  0  0  0  0  0  0  0  0
    8.0685  -16.9174   24.4078 O   0  0  0  0  0  0  0  0  0  0  0  0
   10.0197  -15.8866   24.9070 N   0  0  0  0  0  0  0  0  0  0  0  0
   10.5365  -17.0747   25.5893 C   0  0  1  0  0  0  0  0  0  0  0  0
   11.9603  -17.3267   25.2334 C   0  0  0  0  0  0  0  0  0  0  0  0
   12.4884  -18.4999   25.9426 C   0  0  0  0  0  0  0  0  0  0  0  0
   11.7693  -19.4316   26.4320 O   0  0  0  0  0  0  0  0  0  0  0  0
   10.4546  -16.8508   27.0739 C   0  0  0  0  0  0  0  0  0  0  0  0
   10.2884  -17.8803   27.8139 O   0  0  0  0  0  0  0  0  0  0  0  0
   13.8647  -18.6943   26.1491 O   0  0  0  0  0  0  0  0  0  0  0  0
   10.5426  -15.6417   27.6962 O   0  0  0  0  0  0  0  0  0  0  0  0
  2  1  1  6
  3  4  1  0
  3  2  1  0
  4  5  2  0
  6  5  1  0
  7  6  1  0
  8  7  2  0
  8  4  1  0
  9 11  1  0
  9  2  1  0
 10  9  2  0
 12 11  1  0
 12 13  1  1
 13 14  1  0
 14 15  1  0
 15 16  1  0
 17 16  1  0
 18 12  1  0
 19 18  2  0
 20 18  1  0
 21 25  1  0
 21 20  1  0
 21 22  1  6
 23 27  1  0
 23 22  1  0
 24 23  2  0
 25 28  1  0
 26 25  2  0
M  END
$$$$
