HKD.pdb
     RDKit          3D

 28 28  0  0  1  0  0  0  0  0999 V2000
   11.0021  -16.0574   19.3512 N   0  0  0  0  0  0  0  0  0  0  0  0
   11.7327  -15.8483   20.5884 C   0  0  1  0  0  0  0  0  0  0  0  0
   12.3905  -14.4733   20.5931 C   0  0  0  0  0  0  0  0  0  0  0  0
   13.5764  -14.4000   19.7427 C   0  0  0  0  0  0  0  0  0  0  0  0
   14.1859  -15.3898   18.9870 C   0  0  0  0  0  0  0  0  0  0  0  0
   15.2565  -14.8238   18.3762 N   0  0  0  0  0  0  0  0  0  0  0  0
   15.2987  -13.5336   18.7464 C   0  0  0  0  0  0  0  0  0  0  0  0
   14.2917  -13.2710   19.5682 N   0  0  0  0  0  0  0  0  0  0  0  0
   10.7654  -15.9334   21.7054 C   0  0  0  0  0  0  0  0  0  0  0  0
    9.7785  -15.1685   21.7956 O   0  0  0  0  0  0  0  0  0  0  0  0
   10.9519  -16.9083   22.7086 N   0  0  0  0  0  0  0  0  0  0  0  0
    9.9844  -17.2452   23.7400 C   0  0  1  0  0  0  0  0  0  0  0  0
    8.8387  -18.0334   23.1678 C   0  0  0  0  0  0  0  0  0  0  0  0
    9.3339  -19.1920   22.3908 C   0  0  0  0  0  0  0  0  0  0  0  0
    8.2710  -20.1212   21.8788 C   0  0  0  0  0  0  0  0  0  0  0  0
    8.8294  -21.2329   21.0216 C   0  0  0  0  0  0  0  0  0  0  0  0
    7.6867  -21.9619   20.4863 N   0  0  0  0  0  0  0  0  0  0  0  0
   10.6664  -17.9469   24.8484 C   0  0  0  0  0  0  0  0  0  0  0  0
   11.6389  -18.7347   24.7039 O   0  0  0  0  0  0  0  0  0  0  0  0
   10.2557  -17.7715   26.2132 N   0  0  0  0  0  0  0  0  0  0  0  0
   10.8700  -18.5145   27.3154 C   0  0  1  0  0  0  0  0  0  0  0  0
   10.4195  -17.9943   28.6360 C   0  0  0  0  0  0  0  0  0  0  0  0
   10.9745  -16.6604   28.9020 C   0  0  0  0  0  0  0  0  0  0  0  0
   11.7666  -16.0391   28.1201 O   0  0  0  0  0  0  0  0  0  0  0  0
   10.4580  -19.9568   27.2119 C   0  0  0  0  0  0  0  0  0  0  0  0
   11.0007  -20.7815   28.0246 O   0  0  0  0  0  0  0  0  0  0  0  0
   10.6739  -15.9431   30.0723 O   0  0  0  0  0  0  0  0  0  0  0  0
    9.5544  -20.4582   26.3236 O   0  0  0  0  0  0  0  0  0  0  0  0
  2  1  1  6
  3  4  1  0
  3  2  1  0
  4  5  2  0
  6  5  1  0
  7  6  1  0
  8  7  2  0
  8  4  1  0
  9 11  1  0
  9  2  1  0
 10  9  2  0
 12 11  1  0
 12 13  1  6
 13 14  1  0
 14 15  1  0
 15 16  1  0
 17 16  1  0
 18 12  1  0
 19 18  2  0
 20 18  1  0
 21 25  1  0
 21 20  1  0
 21 22  1  1
 23 27  1  0
 23 22  1  0
 24 23  2  0
 25 28  1  0
 26 25  2  0
M  END
$$$$
