HKD.pdb
     RDKit          3D

 28 28  0  0  1  0  0  0  0  0999 V2000
   14.1506  -13.0880   17.6880 N   0  0  0  0  0  0  0  0  0  0  0  0
   14.5134  -14.4775   17.9027 C   0  0  1  0  0  0  0  0  0  0  0  0
   15.9991  -14.6880   17.6349 C   0  0  0  0  0  0  0  0  0  0  0  0
   16.3516  -14.5678   16.2220 C   0  0  0  0  0  0  0  0  0  0  0  0
   16.0022  -15.3760   15.1510 C   0  0  0  0  0  0  0  0  0  0  0  0
   16.5797  -14.8449   14.0446 N   0  0  0  0  0  0  0  0  0  0  0  0
   17.2578  -13.7508   14.4273 C   0  0  0  0  0  0  0  0  0  0  0  0
   17.1256  -13.5775   15.7354 N   0  0  0  0  0  0  0  0  0  0  0  0
   14.2173  -14.8099   19.3142 C   0  0  0  0  0  0  0  0  0  0  0  0
   14.5913  -14.0861   20.2647 O   0  0  0  0  0  0  0  0  0  0  0  0
   13.4870  -15.9807   19.6101 N   0  0  0  0  0  0  0  0  0  0  0  0
   13.2467  -16.5035   20.9452 C   0  0  1  0  0  0  0  0  0  0  0  0
   12.2016  -17.5845   20.9209 C   0  0  0  0  0  0  0  0  0  0  0  0
   12.0787  -18.2269   22.2489 C   0  0  0  0  0  0  0  0  0  0  0  0
   11.0158  -19.2825   22.3537 C   0  0  0  0  0  0  0  0  0  0  0  0
   10.9452  -19.9072   23.7275 C   0  0  0  0  0  0  0  0  0  0  0  0
    9.8126  -20.8241   23.7120 N   0  0  0  0  0  0  0  0  0  0  0  0
   14.5241  -16.9540   21.5379 C   0  0  0  0  0  0  0  0  0  0  0  0
   15.2652  -17.8454   21.0446 O   0  0  0  0  0  0  0  0  0  0  0  0
   15.0274  -16.3858   22.7570 N   0  0  0  0  0  0  0  0  0  0  0  0
   16.3120  -16.7873   23.3338 C   0  0  1  0  0  0  0  0  0  0  0  0
   17.1742  -15.6051   23.6102 C   0  0  0  0  0  0  0  0  0  0  0  0
   18.4817  -16.0107   24.1431 C   0  0  0  0  0  0  0  0  0  0  0  0
   19.3626  -15.2030   24.5864 O   0  0  0  0  0  0  0  0  0  0  0  0
   16.0546  -17.4969   24.6343 C   0  0  0  0  0  0  0  0  0  0  0  0
   17.0426  -18.0981   25.1797 O   0  0  0  0  0  0  0  0  0  0  0  0
   18.8812  -17.3565   24.2054 O   0  0  0  0  0  0  0  0  0  0  0  0
   14.8558  -17.5526   25.2798 O   0  0  0  0  0  0  0  0  0  0  0  0
  2  1  1  1
  3  4  1  0
  3  2  1  0
  4  5  2  0
  6  5  1  0
  7  6  1  0
  8  7  2  0
  8  4  1  0
  9 11  1  0
  9  2  1  0
 10  9  2  0
 12 11  1  0
 12 13  1  6
 13 14  1  0
 14 15  1  0
 15 16  1  0
 17 16  1  0
 18 12  1  0
 19 18  2  0
 20 18  1  0
 21 25  1  0
 21 20  1  0
 21 22  1  1
 23 27  1  0
 23 22  1  0
 24 23  2  0
 25 28  1  0
 26 25  2  0
M  END
$$$$
