HKD.pdb
     RDKit          3D

 28 28  0  0  1  0  0  0  0  0999 V2000
    5.8860  -14.1996   22.0234 N   0  0  0  0  0  0  0  0  0  0  0  0
    6.8102  -15.3059   21.8503 C   0  0  1  0  0  0  0  0  0  0  0  0
    8.2305  -14.7884   21.6543 C   0  0  0  0  0  0  0  0  0  0  0  0
    8.4120  -14.0691   20.3954 C   0  0  0  0  0  0  0  0  0  0  0  0
    7.4729  -13.6960   19.4462 C   0  0  0  0  0  0  0  0  0  0  0  0
    8.1395  -13.0501   18.4571 N   0  0  0  0  0  0  0  0  0  0  0  0
    9.4401  -13.0301   18.7913 C   0  0  0  0  0  0  0  0  0  0  0  0
    9.6120  -13.6410   19.9556 N   0  0  0  0  0  0  0  0  0  0  0  0
    6.7554  -16.1374   23.0735 C   0  0  0  0  0  0  0  0  0  0  0  0
    6.6201  -15.6406   24.2147 O   0  0  0  0  0  0  0  0  0  0  0  0
    6.8567  -17.5404   22.9608 N   0  0  0  0  0  0  0  0  0  0  0  0
    6.6672  -18.4846   24.0499 C   0  0  1  0  0  0  0  0  0  0  0  0
    6.0124  -19.7471   23.5613 C   0  0  0  0  0  0  0  0  0  0  0  0
    5.7744  -20.6838   24.6826 C   0  0  0  0  0  0  0  0  0  0  0  0
    5.2534  -22.0358   24.2879 C   0  0  0  0  0  0  0  0  0  0  0  0
    4.9842  -22.9287   25.4765 C   0  0  0  0  0  0  0  0  0  0  0  0
    4.4131  -24.1624   24.9516 N   0  0  0  0  0  0  0  0  0  0  0  0
    7.9611  -18.7323   24.7211 C   0  0  0  0  0  0  0  0  0  0  0  0
    9.0469  -18.9506   24.1207 O   0  0  0  0  0  0  0  0  0  0  0  0
    8.0746  -18.7391   26.1527 N   0  0  0  0  0  0  0  0  0  0  0  0
    9.3424  -19.0079   26.8344 C   0  0  1  0  0  0  0  0  0  0  0  0
    9.2910  -18.5819   28.2603 C   0  0  0  0  0  0  0  0  0  0  0  0
   10.5675  -17.9940   28.6883 C   0  0  0  0  0  0  0  0  0  0  0  0
   11.5884  -17.8599   27.9369 O   0  0  0  0  0  0  0  0  0  0  0  0
    9.6060  -20.4877   26.7942 C   0  0  0  0  0  0  0  0  0  0  0  0
    8.5964  -21.2594   26.6513 O   0  0  0  0  0  0  0  0  0  0  0  0
   10.7751  -17.5234   29.9960 O   0  0  0  0  0  0  0  0  0  0  0  0
   10.8314  -21.0748   26.8977 O   0  0  0  0  0  0  0  0  0  0  0  0
  2  1  1  1
  3  4  1  0
  3  2  1  0
  4  5  2  0
  6  5  1  0
  7  6  1  0
  8  7  2  0
  8  4  1  0
  9 11  1  0
  9  2  1  0
 10  9  2  0
 12 11  1  0
 12 13  1  6
 13 14  1  0
 14 15  1  0
 15 16  1  0
 17 16  1  0
 18 12  1  0
 19 18  2  0
 20 18  1  0
 21 25  1  0
 21 20  1  0
 21 22  1  1
 23 27  1  0
 23 22  1  0
 24 23  2  0
 25 28  1  0
 26 25  2  0
M  END
$$$$
