HKD.pdb
     RDKit          3D

 28 28  0  0  1  0  0  0  0  0999 V2000
   10.7770  -16.8689   17.8661 N   0  0  0  0  0  0  0  0  0  0  0  0
    9.8350  -17.2960   18.8851 C   0  0  1  0  0  0  0  0  0  0  0  0
   10.0326  -18.7724   19.2086 C   0  0  0  0  0  0  0  0  0  0  0  0
    9.6888  -19.6559   18.0967 C   0  0  0  0  0  0  0  0  0  0  0  0
    8.6104  -19.6049   17.2268 C   0  0  0  0  0  0  0  0  0  0  0  0
    8.7385  -20.6486   16.3701 N   0  0  0  0  0  0  0  0  0  0  0  0
    9.8561  -21.3132   16.7057 C   0  0  0  0  0  0  0  0  0  0  0  0
   10.4332  -20.7225   17.7432 N   0  0  0  0  0  0  0  0  0  0  0  0
   10.0860  -16.4895   20.1005 C   0  0  0  0  0  0  0  0  0  0  0  0
   11.2132  -16.4283   20.6418 O   0  0  0  0  0  0  0  0  0  0  0  0
    9.0250  -15.7589   20.6766 N   0  0  0  0  0  0  0  0  0  0  0  0
    8.9522  -15.3428   22.0677 C   0  0  1  0  0  0  0  0  0  0  0  0
    7.5661  -14.8779   22.4196 C   0  0  0  0  0  0  0  0  0  0  0  0
    7.4519  -14.6176   23.8725 C   0  0  0  0  0  0  0  0  0  0  0  0
    7.5148  -13.1711   24.2708 C   0  0  0  0  0  0  0  0  0  0  0  0
    7.3477  -12.9662   25.7582 C   0  0  0  0  0  0  0  0  0  0  0  0
    7.3362  -11.5263   25.9831 N   0  0  0  0  0  0  0  0  0  0  0  0
    9.4275  -16.4394   22.9380 C   0  0  0  0  0  0  0  0  0  0  0  0
    8.9767  -17.6156   22.9155 O   0  0  0  0  0  0  0  0  0  0  0  0
   10.4734  -16.2340   23.9004 N   0  0  0  0  0  0  0  0  0  0  0  0
   10.9232  -17.2953   24.8036 C   0  0  1  0  0  0  0  0  0  0  0  0
   12.3564  -17.1231   25.1694 C   0  0  0  0  0  0  0  0  0  0  0  0
   13.2379  -17.4339   24.0360 C   0  0  0  0  0  0  0  0  0  0  0  0
   13.0017  -18.3323   23.1631 O   0  0  0  0  0  0  0  0  0  0  0  0
   10.1049  -17.2338   26.0634 C   0  0  0  0  0  0  0  0  0  0  0  0
    9.3201  -16.2341   26.2047 O   0  0  0  0  0  0  0  0  0  0  0  0
   14.4472  -16.7523   23.8179 O   0  0  0  0  0  0  0  0  0  0  0  0
   10.1302  -18.1549   27.0674 O   0  0  0  0  0  0  0  0  0  0  0  0
  2  1  1  6
  3  4  1  0
  3  2  1  0
  4  5  2  0
  6  5  1  0
  7  6  1  0
  8  7  2  0
  8  4  1  0
  9 11  1  0
  9  2  1  0
 10  9  2  0
 12 11  1  0
 12 13  1  1
 13 14  1  0
 14 15  1  0
 15 16  1  0
 17 16  1  0
 18 12  1  0
 19 18  2  0
 20 18  1  0
 21 25  1  0
 21 20  1  0
 21 22  1  1
 23 27  1  0
 23 22  1  0
 24 23  2  0
 25 28  1  0
 26 25  2  0
M  END
$$$$
