HKD.pdb
     RDKit          3D

 28 28  0  0  1  0  0  0  0  0999 V2000
    8.4361  -16.4679   18.5987 N   0  0  0  0  0  0  0  0  0  0  0  0
    8.6641  -15.2205   19.3059 C   0  0  1  0  0  0  0  0  0  0  0  0
    7.6623  -14.1627   18.8575 C   0  0  0  0  0  0  0  0  0  0  0  0
    7.7617  -13.8427   17.4353 C   0  0  0  0  0  0  0  0  0  0  0  0
    8.0894  -12.6449   16.8187 C   0  0  0  0  0  0  0  0  0  0  0  0
    8.0429  -12.8589   15.4801 N   0  0  0  0  0  0  0  0  0  0  0  0
    7.6987  -14.1425   15.2868 C   0  0  0  0  0  0  0  0  0  0  0  0
    7.5277  -14.7408   16.4579 N   0  0  0  0  0  0  0  0  0  0  0  0
    8.4880  -15.4812   20.7522 C   0  0  0  0  0  0  0  0  0  0  0  0
    8.5213  -14.5662   21.6059 O   0  0  0  0  0  0  0  0  0  0  0  0
    8.2728  -16.8038   21.1950 N   0  0  0  0  0  0  0  0  0  0  0  0
    8.2128  -17.2226   22.5859 C   0  0  1  0  0  0  0  0  0  0  0  0
    7.1616  -18.2792   22.7859 C   0  0  0  0  0  0  0  0  0  0  0  0
    5.8603  -17.8368   22.2363 C   0  0  0  0  0  0  0  0  0  0  0  0
    4.7654  -18.8638   22.2771 C   0  0  0  0  0  0  0  0  0  0  0  0
    3.4327  -18.3164   21.8226 C   0  0  0  0  0  0  0  0  0  0  0  0
    2.4761  -19.4115   21.9195 N   0  0  0  0  0  0  0  0  0  0  0  0
    9.5544  -17.6569   23.0304 C   0  0  0  0  0  0  0  0  0  0  0  0
   10.2105  -18.5969   22.5076 O   0  0  0  0  0  0  0  0  0  0  0  0
   10.2269  -17.0141   24.1243 N   0  0  0  0  0  0  0  0  0  0  0  0
   11.4548  -17.5539   24.7120 C   0  0  1  0  0  0  0  0  0  0  0  0
   12.5605  -16.5576   24.6652 C   0  0  0  0  0  0  0  0  0  0  0  0
   13.0298  -16.3449   23.2894 C   0  0  0  0  0  0  0  0  0  0  0  0
   13.2686  -17.2791   22.4557 O   0  0  0  0  0  0  0  0  0  0  0  0
   11.1892  -17.8955   26.1520 C   0  0  0  0  0  0  0  0  0  0  0  0
   10.0663  -17.5315   26.6435 O   0  0  0  0  0  0  0  0  0  0  0  0
   13.2644  -15.0616   22.7673 O   0  0  0  0  0  0  0  0  0  0  0  0
   12.0460  -18.5606   26.9769 O   0  0  0  0  0  0  0  0  0  0  0  0
  2  1  1  6
  3  4  1  0
  3  2  1  0
  4  5  2  0
  6  5  1  0
  7  6  1  0
  8  7  2  0
  8  4  1  0
  9 11  1  0
  9  2  1  0
 10  9  2  0
 12 11  1  0
 12 13  1  6
 13 14  1  0
 14 15  1  0
 15 16  1  0
 17 16  1  0
 18 12  1  0
 19 18  2  0
 20 18  1  0
 21 25  1  0
 21 20  1  0
 21 22  1  1
 23 27  1  0
 23 22  1  0
 24 23  2  0
 25 28  1  0
 26 25  2  0
M  END
$$$$
