HKD.pdb
     RDKit          3D

 28 28  0  0  1  0  0  0  0  0999 V2000
    9.3543  -18.7968   16.8779 N   0  0  0  0  0  0  0  0  0  0  0  0
    9.7763  -17.4604   17.2574 C   0  0  1  0  0  0  0  0  0  0  0  0
    9.0374  -16.4135   16.4319 C   0  0  0  0  0  0  0  0  0  0  0  0
    9.4298  -16.4090   15.0244 C   0  0  0  0  0  0  0  0  0  0  0  0
   10.3915  -17.1647   14.3715 C   0  0  0  0  0  0  0  0  0  0  0  0
   10.3764  -16.7906   13.0678 N   0  0  0  0  0  0  0  0  0  0  0  0
    9.4381  -15.8397   12.9302 C   0  0  0  0  0  0  0  0  0  0  0  0
    8.8644  -15.6046   14.1024 N   0  0  0  0  0  0  0  0  0  0  0  0
    9.4535  -17.2732   18.6897 C   0  0  0  0  0  0  0  0  0  0  0  0
    8.4543  -16.6223   19.0708 O   0  0  0  0  0  0  0  0  0  0  0  0
   10.2939  -17.8455   19.6682 N   0  0  0  0  0  0  0  0  0  0  0  0
   10.0119  -17.8888   21.0938 C   0  0  1  0  0  0  0  0  0  0  0  0
    9.0101  -18.9639   21.4129 C   0  0  0  0  0  0  0  0  0  0  0  0
    8.7164  -18.9950   22.8635 C   0  0  0  0  0  0  0  0  0  0  0  0
    7.6591  -19.9759   23.2819 C   0  0  0  0  0  0  0  0  0  0  0  0
    7.4147  -19.9720   24.7728 C   0  0  0  0  0  0  0  0  0  0  0  0
    6.3779  -20.9636   25.0289 N   0  0  0  0  0  0  0  0  0  0  0  0
   11.2766  -18.0424   21.8442 C   0  0  0  0  0  0  0  0  0  0  0  0
   11.9558  -19.1025   21.8898 O   0  0  0  0  0  0  0  0  0  0  0  0
   11.8393  -16.9564   22.5966 N   0  0  0  0  0  0  0  0  0  0  0  0
   12.9937  -17.1337   23.4800 C   0  0  1  0  0  0  0  0  0  0  0  0
   13.9114  -15.9629   23.4127 C   0  0  0  0  0  0  0  0  0  0  0  0
   14.5683  -15.8740   22.1017 C   0  0  0  0  0  0  0  0  0  0  0  0
   14.5436  -14.8446   21.3503 O   0  0  0  0  0  0  0  0  0  0  0  0
   12.5013  -17.2655   24.8945 C   0  0  0  0  0  0  0  0  0  0  0  0
   13.3617  -17.5746   25.7885 O   0  0  0  0  0  0  0  0  0  0  0  0
   15.2925  -16.9453   21.5519 O   0  0  0  0  0  0  0  0  0  0  0  0
   11.2140  -17.0831   25.3029 O   0  0  0  0  0  0  0  0  0  0  0  0
  2  1  1  6
  3  4  1  0
  3  2  1  0
  4  5  2  0
  6  5  1  0
  7  6  1  0
  8  7  2  0
  8  4  1  0
  9 11  1  0
  9  2  1  0
 10  9  2  0
 12 11  1  0
 12 13  1  6
 13 14  1  0
 14 15  1  0
 15 16  1  0
 17 16  1  0
 18 12  1  0
 19 18  2  0
 20 18  1  0
 21 25  1  0
 21 20  1  0
 21 22  1  1
 23 27  1  0
 23 22  1  0
 24 23  2  0
 25 28  1  0
 26 25  2  0
M  END
$$$$
