WYT.pdb
     RDKit          3D

 34 36  0  0  1  0  0  0  0  0999 V2000
   28.2839  -20.7138   -9.1127 N   0  0  0  0  0  0  0  0  0  0  0  0
   26.8490  -20.9125   -9.0781 C   0  0  1  0  0  0  0  0  0  0  0  0
   26.2357  -20.1579   -7.9177 C   0  0  0  0  0  0  0  0  0  0  0  0
   27.2809  -19.5483   -7.0562 C   0  0  0  0  0  0  0  0  0  0  0  0
   27.9069  -18.3129   -7.2301 C   0  0  0  0  0  0  0  0  0  0  0  0
   28.7940  -18.1223   -6.2408 N   0  0  0  0  0  0  0  0  0  0  0  0
   28.7951  -19.1778   -5.4033 C   0  0  0  0  0  0  0  0  0  0  0  0
   29.5276  -19.4315   -4.2604 C   0  0  0  0  0  0  0  0  0  0  0  0
   29.3136  -20.6201   -3.5934 C   0  0  0  0  0  0  0  0  0  0  0  0
   28.3822  -21.5148   -4.0818 C   0  0  0  0  0  0  0  0  0  0  0  0
   27.6597  -21.2442   -5.2252 C   0  0  0  0  0  0  0  0  0  0  0  0
   27.8565  -20.0657   -5.9064 C   0  0  0  0  0  0  0  0  0  0  0  0
   26.2099  -20.5687  -10.3640 C   0  0  0  0  0  0  0  0  0  0  0  0
   26.1837  -19.3530  -10.7081 O   0  0  0  0  0  0  0  0  0  0  0  0
   29.2957  -18.7469  -16.6184 O   0  0  0  0  0  0  0  0  0  0  0  0
   28.3676  -19.4945  -15.9012 C   0  0  0  0  0  0  0  0  0  0  0  0
   28.7829  -20.4837  -15.0342 C   0  0  0  0  0  0  0  0  0  0  0  0
   27.8472  -21.2239  -14.3232 C   0  0  0  0  0  0  0  0  0  0  0  0
   26.4870  -21.0088  -14.4483 C   0  0  0  0  0  0  0  0  0  0  0  0
   25.5617  -21.8289  -13.6664 C   0  0  0  0  0  0  0  0  0  0  0  0
   24.9913  -21.1265  -12.4601 C   0  0  2  0  0  0  0  0  0  0  0  0
   25.6259  -21.5082  -11.2347 N   0  0  0  0  0  0  0  0  0  0  0  0
   23.5267  -21.3859  -12.4437 C   0  0  0  0  0  0  0  0  0  0  0  0
   23.0667  -22.4626  -11.9846 O   0  0  0  0  0  0  0  0  0  0  0  0
   26.0756  -20.0320  -15.3043 C   0  0  0  0  0  0  0  0  0  0  0  0
   27.0067  -19.2855  -16.0207 C   0  0  0  0  0  0  0  0  0  0  0  0
   20.5215  -18.6718  -14.1165 C   0  0  0  0  0  0  0  0  0  0  0  0
   20.4044  -19.3178  -12.7501 C   0  0  1  0  0  0  0  0  0  0  0  0
   19.0556  -19.6177  -12.5614 O   0  0  0  0  0  0  0  0  0  0  0  0
   21.1446  -20.6340  -12.8191 C   0  0  2  0  0  0  0  0  0  0  0  0
   22.5749  -20.4463  -12.9382 N   0  0  0  0  0  0  0  0  0  0  0  0
   20.6054  -21.5282  -13.8580 C   0  0  0  0  0  0  0  0  0  0  0  0
   21.3654  -21.8556  -14.9525 O   0  0  0  0  0  0  0  0  0  0  0  0
   19.4545  -21.9875  -13.7400 O   0  0  0  0  0  0  0  0  0  0  0  0
  2  1  1  6
  2  3  1  0
  3  4  1  0
  4  5  2  0
  6  5  1  0
  7  6  1  0
  8  7  2  0
  9  8  1  0
 10  9  2  0
 10 11  1  0
 11 12  2  0
 12  7  1  0
 12  4  1  0
 13  2  1  0
 13 14  2  0
 15 16  1  0
 16 26  2  0
 16 17  1  0
 17 18  2  0
 18 19  1  0
 19 20  1  0
 21 20  1  6
 22 21  1  0
 22 13  1  0
 23 21  1  0
 24 23  2  0
 25 19  2  0
 26 25  1  0
 28 27  1  6
 28 30  1  0
 29 28  1  0
 30 32  1  0
 30 31  1  6
 31 23  1  0
 32 33  1  0
 34 32  2  0
M  END
$$$$
