WYT.pdb
     RDKit          3D

 34 36  0  0  1  0  0  0  0  0999 V2000
   28.0446  -21.4556  -10.8485 N   0  0  0  0  0  0  0  0  0  0  0  0
   26.7644  -21.1451  -10.2450 C   0  0  1  0  0  0  0  0  0  0  0  0
   26.9345  -20.1410   -9.1247 C   0  0  0  0  0  0  0  0  0  0  0  0
   27.9566  -20.5912   -8.1456 C   0  0  0  0  0  0  0  0  0  0  0  0
   28.9950  -21.4984   -8.3623 C   0  0  0  0  0  0  0  0  0  0  0  0
   29.7020  -21.6418   -7.2302 N   0  0  0  0  0  0  0  0  0  0  0  0
   29.1855  -20.8689   -6.2548 C   0  0  0  0  0  0  0  0  0  0  0  0
   29.5680  -20.6859   -4.9405 C   0  0  0  0  0  0  0  0  0  0  0  0
   28.8378  -19.8144   -4.1591 C   0  0  0  0  0  0  0  0  0  0  0  0
   27.7552  -19.1553   -4.7069 C   0  0  0  0  0  0  0  0  0  0  0  0
   27.3879  -19.3506   -6.0220 C   0  0  0  0  0  0  0  0  0  0  0  0
   28.1012  -20.2147   -6.8195 C   0  0  0  0  0  0  0  0  0  0  0  0
   25.7732  -20.6993  -11.2444 C   0  0  0  0  0  0  0  0  0  0  0  0
   25.8093  -19.4933  -11.6202 O   0  0  0  0  0  0  0  0  0  0  0  0
   29.0537  -19.2318  -16.0313 O   0  0  0  0  0  0  0  0  0  0  0  0
   27.8456  -19.7547  -15.5822 C   0  0  0  0  0  0  0  0  0  0  0  0
   27.8033  -20.9791  -14.9485 C   0  0  0  0  0  0  0  0  0  0  0  0
   26.5913  -21.4914  -14.5041 C   0  0  0  0  0  0  0  0  0  0  0  0
   25.3978  -20.8135  -14.6724 C   0  0  0  0  0  0  0  0  0  0  0  0
   24.1604  -21.4171  -14.1777 C   0  0  0  0  0  0  0  0  0  0  0  0
   23.8267  -21.0489  -12.7540 C   0  0  2  0  0  0  0  0  0  0  0  0
   24.7874  -21.5313  -11.8083 N   0  0  0  0  0  0  0  0  0  0  0  0
   22.4548  -21.5506  -12.4731 C   0  0  0  0  0  0  0  0  0  0  0  0
   22.2587  -22.7518  -12.1565 O   0  0  0  0  0  0  0  0  0  0  0  0
   25.4383  -19.6040  -15.2982 C   0  0  0  0  0  0  0  0  0  0  0  0
   26.6487  -19.0834  -15.7466 C   0  0  0  0  0  0  0  0  0  0  0  0
   19.9859  -20.2143  -10.0142 C   0  0  0  0  0  0  0  0  0  0  0  0
   19.2260  -20.2406  -11.3257 C   0  0  1  0  0  0  0  0  0  0  0  0
   19.3331  -18.9646  -11.8781 O   0  0  0  0  0  0  0  0  0  0  0  0
   19.9658  -21.1845  -12.2458 C   0  0  2  0  0  0  0  0  0  0  0  0
   21.3018  -20.7146  -12.5446 N   0  0  0  0  0  0  0  0  0  0  0  0
   19.1961  -21.5036  -13.4604 C   0  0  0  0  0  0  0  0  0  0  0  0
   17.9739  -22.1197  -13.3638 O   0  0  0  0  0  0  0  0  0  0  0  0
   19.6590  -21.2119  -14.5785 O   0  0  0  0  0  0  0  0  0  0  0  0
  2  1  1  6
  2  3  1  0
  3  4  1  0
  4  5  2  0
  6  5  1  0
  7  6  1  0
  8  7  2  0
  9  8  1  0
 10  9  2  0
 10 11  1  0
 11 12  2  0
 12  7  1  0
 12  4  1  0
 13  2  1  0
 13 14  2  0
 15 16  1  0
 16 26  2  0
 16 17  1  0
 17 18  2  0
 18 19  1  0
 19 20  1  0
 21 20  1  6
 22 21  1  0
 22 13  1  0
 23 21  1  0
 24 23  2  0
 25 19  2  0
 26 25  1  0
 28 27  1  1
 28 30  1  0
 29 28  1  0
 30 32  1  0
 30 31  1  6
 31 23  1  0
 32 33  1  0
 34 32  2  0
M  END
$$$$
