WYT.pdb
     RDKit          3D

 34 36  0  0  1  0  0  0  0  0999 V2000
   28.2859  -21.6486  -15.0491 N   0  0  0  0  0  0  0  0  0  0  0  0
   27.8345  -20.5654  -14.1991 C   0  0  1  0  0  0  0  0  0  0  0  0
   26.5703  -19.9451  -14.7552 C   0  0  0  0  0  0  0  0  0  0  0  0
   26.8615  -19.0856  -15.9310 C   0  0  0  0  0  0  0  0  0  0  0  0
   26.9113  -19.4728  -17.2712 C   0  0  0  0  0  0  0  0  0  0  0  0
   27.2057  -18.4055  -18.0303 N   0  0  0  0  0  0  0  0  0  0  0  0
   27.3577  -17.3107  -17.2598 C   0  0  0  0  0  0  0  0  0  0  0  0
   27.6597  -16.0032  -17.5862 C   0  0  0  0  0  0  0  0  0  0  0  0
   27.7526  -15.0766  -16.5683 C   0  0  0  0  0  0  0  0  0  0  0  0
   27.5431  -15.4777  -15.2637 C   0  0  0  0  0  0  0  0  0  0  0  0
   27.2423  -16.7883  -14.9566 C   0  0  0  0  0  0  0  0  0  0  0  0
   27.1447  -17.7290  -15.9551 C   0  0  0  0  0  0  0  0  0  0  0  0
   27.6724  -20.9923  -12.7950 C   0  0  0  0  0  0  0  0  0  0  0  0
   27.0430  -22.0645  -12.5688 O   0  0  0  0  0  0  0  0  0  0  0  0
   27.0433  -20.7943   -3.9616 O   0  0  0  0  0  0  0  0  0  0  0  0
   27.4668  -20.6113   -5.2737 C   0  0  0  0  0  0  0  0  0  0  0  0
   26.9886  -19.5580   -6.0250 C   0  0  0  0  0  0  0  0  0  0  0  0
   27.4186  -19.3851   -7.3342 C   0  0  0  0  0  0  0  0  0  0  0  0
   28.3253  -20.2411   -7.9320 C   0  0  0  0  0  0  0  0  0  0  0  0
   28.7312  -19.9948   -9.3158 C   0  0  0  0  0  0  0  0  0  0  0  0
   27.8078  -20.6024  -10.3415 C   0  0  2  0  0  0  0  0  0  0  0  0
   28.1741  -20.2818  -11.6880 N   0  0  0  0  0  0  0  0  0  0  0  0
   26.4249  -20.1651  -10.0117 C   0  0  0  0  0  0  0  0  0  0  0  0
   26.1377  -18.9440   -9.9226 O   0  0  0  0  0  0  0  0  0  0  0  0
   28.7984  -21.2819   -7.1910 C   0  0  0  0  0  0  0  0  0  0  0  0
   28.3727  -21.4623   -5.8781 C   0  0  0  0  0  0  0  0  0  0  0  0
   23.6618  -20.0603  -11.8445 C   0  0  0  0  0  0  0  0  0  0  0  0
   23.0987  -20.8899  -10.7075 C   0  0  1  0  0  0  0  0  0  0  0  0
   23.2303  -22.2269  -11.0818 O   0  0  0  0  0  0  0  0  0  0  0  0
   24.0012  -20.6738   -9.5142 C   0  0  2  0  0  0  0  0  0  0  0  0
   25.3622  -21.0876   -9.7815 N   0  0  0  0  0  0  0  0  0  0  0  0
   23.4603  -21.2770   -8.2841 C   0  0  0  0  0  0  0  0  0  0  0  0
   24.2081  -22.1768   -7.5673 O   0  0  0  0  0  0  0  0  0  0  0  0
   22.3191  -20.9672   -7.8953 O   0  0  0  0  0  0  0  0  0  0  0  0
  2  1  1  6
  2  3  1  0
  3  4  1  0
  4  5  2  0
  6  5  1  0
  7  6  1  0
  8  7  2  0
  9  8  1  0
 10  9  2  0
 10 11  1  0
 11 12  2  0
 12  7  1  0
 12  4  1  0
 13  2  1  0
 13 14  2  0
 15 16  1  0
 16 26  2  0
 16 17  1  0
 17 18  2  0
 18 19  1  0
 19 20  1  0
 21 20  1  1
 22 21  1  0
 22 13  1  0
 23 21  1  0
 24 23  2  0
 25 19  2  0
 26 25  1  0
 28 27  1  6
 28 30  1  0
 29 28  1  0
 30 32  1  0
 30 31  1  6
 31 23  1  0
 32 33  1  0
 34 32  2  0
M  END
$$$$
