WYT.pdb
     RDKit          3D

 34 36  0  0  1  0  0  0  0  0999 V2000
   27.4527  -21.7022  -11.4317 N   0  0  0  0  0  0  0  0  0  0  0  0
   26.3862  -21.1499  -10.6211 C   0  0  1  0  0  0  0  0  0  0  0  0
   26.9096  -20.0326   -9.7436 C   0  0  0  0  0  0  0  0  0  0  0  0
   28.0045  -20.5073   -8.8593 C   0  0  0  0  0  0  0  0  0  0  0  0
   29.1005  -21.2943   -9.2167 C   0  0  0  0  0  0  0  0  0  0  0  0
   29.8641  -21.5090   -8.1336 N   0  0  0  0  0  0  0  0  0  0  0  0
   29.3307  -20.8998   -7.0567 C   0  0  0  0  0  0  0  0  0  0  0  0
   29.7533  -20.8394   -5.7434 C   0  0  0  0  0  0  0  0  0  0  0  0
   28.9911  -20.1277   -4.8401 C   0  0  0  0  0  0  0  0  0  0  0  0
   27.8379  -19.5013   -5.2694 C   0  0  0  0  0  0  0  0  0  0  0  0
   27.4314  -19.5726   -6.5856 C   0  0  0  0  0  0  0  0  0  0  0  0
   28.1755  -20.2764   -7.5034 C   0  0  0  0  0  0  0  0  0  0  0  0
   25.2335  -20.7208  -11.4380 C   0  0  0  0  0  0  0  0  0  0  0  0
   24.8104  -19.5387  -11.2940 O   0  0  0  0  0  0  0  0  0  0  0  0
   27.9946  -17.1667  -15.6251 O   0  0  0  0  0  0  0  0  0  0  0  0
   26.9727  -18.0794  -15.3857 C   0  0  0  0  0  0  0  0  0  0  0  0
   27.2608  -19.4031  -15.1257 C   0  0  0  0  0  0  0  0  0  0  0  0
   26.2323  -20.3056  -14.8881 C   0  0  0  0  0  0  0  0  0  0  0  0
   24.9020  -19.9281  -14.9007 C   0  0  0  0  0  0  0  0  0  0  0  0
   23.8737  -20.9358  -14.6416 C   0  0  0  0  0  0  0  0  0  0  0  0
   23.4981  -21.0666  -13.1869 C   0  0  2  0  0  0  0  0  0  0  0  0
   24.5724  -21.5437  -12.3695 N   0  0  0  0  0  0  0  0  0  0  0  0
   22.2983  -21.9426  -13.1128 C   0  0  0  0  0  0  0  0  0  0  0  0
   22.3893  -23.1807  -13.3136 O   0  0  0  0  0  0  0  0  0  0  0  0
   24.6162  -18.6210  -15.1574 C   0  0  0  0  0  0  0  0  0  0  0  0
   25.6410  -17.7100  -15.3966 C   0  0  0  0  0  0  0  0  0  0  0  0
   19.6525  -22.1438  -10.3120 C   0  0  0  0  0  0  0  0  0  0  0  0
   18.9080  -21.8739  -11.6046 C   0  0  1  0  0  0  0  0  0  0  0  0
   18.7432  -20.4919  -11.6927 O   0  0  0  0  0  0  0  0  0  0  0  0
   19.8239  -22.2830  -12.7354 C   0  0  2  0  0  0  0  0  0  0  0  0
   20.9976  -21.4397  -12.8149 N   0  0  0  0  0  0  0  0  0  0  0  0
   19.1159  -22.3858  -14.0229 C   0  0  0  0  0  0  0  0  0  0  0  0
   18.0797  -23.2724  -14.1745 O   0  0  0  0  0  0  0  0  0  0  0  0
   19.4612  -21.6638  -14.9762 O   0  0  0  0  0  0  0  0  0  0  0  0
  2  1  1  6
  2  3  1  0
  3  4  1  0
  4  5  2  0
  6  5  1  0
  7  6  1  0
  8  7  2  0
  9  8  1  0
 10  9  2  0
 10 11  1  0
 11 12  2  0
 12  7  1  0
 12  4  1  0
 13  2  1  0
 13 14  2  0
 15 16  1  0
 16 26  2  0
 16 17  1  0
 17 18  2  0
 18 19  1  0
 19 20  1  0
 21 20  1  6
 22 21  1  0
 22 13  1  0
 23 21  1  0
 24 23  2  0
 25 19  2  0
 26 25  1  0
 28 27  1  1
 28 30  1  0
 29 28  1  0
 30 32  1  0
 30 31  1  6
 31 23  1  0
 32 33  1  0
 34 32  2  0
M  END
$$$$
