WYT.pdb
     RDKit          3D

 34 36  0  0  1  0  0  0  0  0999 V2000
   26.7199  -22.6243  -11.4401 N   0  0  0  0  0  0  0  0  0  0  0  0
   26.1010  -21.3350  -11.6733 C   0  0  1  0  0  0  0  0  0  0  0  0
   26.7022  -20.6697  -12.8932 C   0  0  0  0  0  0  0  0  0  0  0  0
   28.1523  -20.4079  -12.7069 C   0  0  0  0  0  0  0  0  0  0  0  0
   28.9730  -19.5937  -13.4893 C   0  0  0  0  0  0  0  0  0  0  0  0
   30.2214  -19.6185  -12.9965 N   0  0  0  0  0  0  0  0  0  0  0  0
   30.2808  -20.4160  -11.9122 C   0  0  0  0  0  0  0  0  0  0  0  0
   31.3343  -20.7471  -11.0828 C   0  0  0  0  0  0  0  0  0  0  0  0
   31.0961  -21.6041  -10.0283 C   0  0  0  0  0  0  0  0  0  0  0  0
   29.8234  -22.1028   -9.8326 C   0  0  0  0  0  0  0  0  0  0  0  0
   28.7832  -21.7610  -10.6715 C   0  0  0  0  0  0  0  0  0  0  0  0
   28.9975  -20.9083  -11.7290 C   0  0  0  0  0  0  0  0  0  0  0  0
   24.6304  -21.4332  -11.7623 C   0  0  0  0  0  0  0  0  0  0  0  0
   24.1346  -22.4749  -12.2780 O   0  0  0  0  0  0  0  0  0  0  0  0
   16.1961  -21.2368   -9.3658 O   0  0  0  0  0  0  0  0  0  0  0  0
   17.5476  -20.9479   -9.5229 C   0  0  0  0  0  0  0  0  0  0  0  0
   17.9486  -19.7792  -10.1360 C   0  0  0  0  0  0  0  0  0  0  0  0
   19.3009  -19.5012  -10.2875 C   0  0  0  0  0  0  0  0  0  0  0  0
   20.2858  -20.3632   -9.8411 C   0  0  0  0  0  0  0  0  0  0  0  0
   21.6899  -20.0022  -10.0365 C   0  0  0  0  0  0  0  0  0  0  0  0
   22.3270  -20.6520  -11.2389 C   0  0  2  0  0  0  0  0  0  0  0  0
   23.7413  -20.4401  -11.3094 N   0  0  0  0  0  0  0  0  0  0  0  0
   21.6184  -20.1489  -12.4460 C   0  0  0  0  0  0  0  0  0  0  0  0
   21.7661  -18.9617  -12.8336 O   0  0  0  0  0  0  0  0  0  0  0  0
   19.8909  -21.5179   -9.2354 C   0  0  0  0  0  0  0  0  0  0  0  0
   18.5377  -21.8042   -9.0796 C   0  0  0  0  0  0  0  0  0  0  0  0
   21.6600  -21.5620  -15.9154 C   0  0  0  0  0  0  0  0  0  0  0  0
   20.1897  -21.4772  -15.5560 C   0  0  1  0  0  0  0  0  0  0  0  0
   19.8239  -22.7285  -15.0609 O   0  0  0  0  0  0  0  0  0  0  0  0
   20.0706  -20.4967  -14.4117 C   0  0  2  0  0  0  0  0  0  0  0  0
   20.7457  -20.9679  -13.2213 N   0  0  0  0  0  0  0  0  0  0  0  0
   18.6750  -20.1051  -14.1502 C   0  0  0  0  0  0  0  0  0  0  0  0
   17.9150  -19.5442  -15.1455 O   0  0  0  0  0  0  0  0  0  0  0  0
   18.1852  -20.2849  -13.0201 O   0  0  0  0  0  0  0  0  0  0  0  0
  2  1  1  6
  2  3  1  0
  3  4  1  0
  4  5  2  0
  6  5  1  0
  7  6  1  0
  8  7  2  0
  9  8  1  0
 10  9  2  0
 10 11  1  0
 11 12  2  0
 12  7  1  0
 12  4  1  0
 13  2  1  0
 13 14  2  0
 15 16  1  0
 16 26  2  0
 16 17  1  0
 17 18  2  0
 18 19  1  0
 19 20  1  0
 21 20  1  1
 22 21  1  0
 22 13  1  0
 23 21  1  0
 24 23  2  0
 25 19  2  0
 26 25  1  0
 28 27  1  1
 28 30  1  0
 29 28  1  0
 30 32  1  0
 30 31  1  1
 31 23  1  0
 32 33  1  0
 34 32  2  0
M  END
$$$$
