WYT.pdb
     RDKit          3D

 34 36  0  0  1  0  0  0  0  0999 V2000
   26.2440  -20.5631  -14.8344 N   0  0  0  0  0  0  0  0  0  0  0  0
   25.3199  -20.2113  -13.7753 C   0  0  1  0  0  0  0  0  0  0  0  0
   23.9660  -20.8433  -14.0195 C   0  0  0  0  0  0  0  0  0  0  0  0
   23.3107  -20.2702  -15.2230 C   0  0  0  0  0  0  0  0  0  0  0  0
   23.3557  -20.7642  -16.5277 C   0  0  0  0  0  0  0  0  0  0  0  0
   22.6362  -19.9636  -17.3299 N   0  0  0  0  0  0  0  0  0  0  0  0
   22.1054  -18.9471  -16.6225 C   0  0  0  0  0  0  0  0  0  0  0  0
   21.3046  -17.8904  -17.0090 C   0  0  0  0  0  0  0  0  0  0  0  0
   20.9041  -16.9842  -16.0490 C   0  0  0  0  0  0  0  0  0  0  0  0
   21.3107  -17.1566  -14.7407 C   0  0  0  0  0  0  0  0  0  0  0  0
   22.1108  -18.2184  -14.3731 C   0  0  0  0  0  0  0  0  0  0  0  0
   22.5221  -19.1340  -15.3133 C   0  0  0  0  0  0  0  0  0  0  0  0
   25.8545  -20.5426  -12.4394 C   0  0  0  0  0  0  0  0  0  0  0  0
   26.1704  -21.7438  -12.2070 O   0  0  0  0  0  0  0  0  0  0  0  0
   29.0235  -20.4107   -4.2143 O   0  0  0  0  0  0  0  0  0  0  0  0
   28.5965  -20.0432   -5.4859 C   0  0  0  0  0  0  0  0  0  0  0  0
   29.2291  -20.5360   -6.6082 C   0  0  0  0  0  0  0  0  0  0  0  0
   28.7941  -20.1622   -7.8731 C   0  0  0  0  0  0  0  0  0  0  0  0
   27.7309  -19.2983   -8.0621 C   0  0  0  0  0  0  0  0  0  0  0  0
   27.3302  -18.9502   -9.4253 C   0  0  0  0  0  0  0  0  0  0  0  0
   26.4615  -19.9874  -10.0914 C   0  0  2  0  0  0  0  0  0  0  0  0
   26.0362  -19.6059  -11.4042 N   0  0  0  0  0  0  0  0  0  0  0  0
   25.3163  -20.2608   -9.1824 C   0  0  0  0  0  0  0  0  0  0  0  0
   24.5105  -19.3484   -8.8666 O   0  0  0  0  0  0  0  0  0  0  0  0
   27.1053  -18.8108   -6.9544 C   0  0  0  0  0  0  0  0  0  0  0  0
   27.5349  -19.1805   -5.6831 C   0  0  0  0  0  0  0  0  0  0  0  0
   22.5344  -22.7399   -9.4856 C   0  0  0  0  0  0  0  0  0  0  0  0
   23.1915  -23.0590   -8.1572 C   0  0  1  0  0  0  0  0  0  0  0  0
   24.1300  -24.0608   -8.4033 O   0  0  0  0  0  0  0  0  0  0  0  0
   23.9598  -21.8268   -7.7373 C   0  0  2  0  0  0  0  0  0  0  0  0
   25.0685  -21.5500   -8.6257 N   0  0  0  0  0  0  0  0  0  0  0  0
   24.3693  -21.8747   -6.3233 C   0  0  0  0  0  0  0  0  0  0  0  0
   23.4359  -22.0792   -5.3386 O   0  0  0  0  0  0  0  0  0  0  0  0
   25.5684  -21.7286   -6.0230 O   0  0  0  0  0  0  0  0  0  0  0  0
  2  1  1  6
  2  3  1  0
  3  4  1  0
  4  5  2  0
  6  5  1  0
  7  6  1  0
  8  7  2  0
  9  8  1  0
 10  9  2  0
 10 11  1  0
 11 12  2  0
 12  7  1  0
 12  4  1  0
 13  2  1  0
 13 14  2  0
 15 16  1  0
 16 26  2  0
 16 17  1  0
 17 18  2  0
 18 19  1  0
 19 20  1  0
 21 20  1  1
 22 21  1  0
 22 13  1  0
 23 21  1  0
 24 23  2  0
 25 19  2  0
 26 25  1  0
 28 27  1  6
 28 30  1  0
 29 28  1  0
 30 32  1  0
 30 31  1  6
 31 23  1  0
 32 33  1  0
 34 32  2  0
M  END
$$$$
