WYT.pdb
     RDKit          3D

 34 36  0  0  1  0  0  0  0  0999 V2000
   26.9963  -21.3792  -13.8546 N   0  0  0  0  0  0  0  0  0  0  0  0
   25.8920  -20.7052  -13.2021 C   0  0  1  0  0  0  0  0  0  0  0  0
   26.4009  -19.5946  -12.3079 C   0  0  0  0  0  0  0  0  0  0  0  0
   26.9682  -20.1337  -11.0455 C   0  0  0  0  0  0  0  0  0  0  0  0
   26.2973  -20.3520   -9.8411 C   0  0  0  0  0  0  0  0  0  0  0  0
   27.1577  -20.8480   -8.9379 N   0  0  0  0  0  0  0  0  0  0  0  0
   28.3844  -20.9750   -9.4806 C   0  0  0  0  0  0  0  0  0  0  0  0
   29.5724  -21.4340   -8.9467 C   0  0  0  0  0  0  0  0  0  0  0  0
   30.6917  -21.4515   -9.7531 C   0  0  0  0  0  0  0  0  0  0  0  0
   30.5947  -21.0139  -11.0591 C   0  0  0  0  0  0  0  0  0  0  0  0
   29.3994  -20.5586  -11.5752 C   0  0  0  0  0  0  0  0  0  0  0  0
   28.2708  -20.5323  -10.7897 C   0  0  0  0  0  0  0  0  0  0  0  0
   24.8866  -20.2224  -14.1697 C   0  0  0  0  0  0  0  0  0  0  0  0
   25.1233  -19.1439  -14.7843 O   0  0  0  0  0  0  0  0  0  0  0  0
   27.4273  -19.7200  -19.7238 O   0  0  0  0  0  0  0  0  0  0  0  0
   26.2981  -20.0532  -18.9833 C   0  0  0  0  0  0  0  0  0  0  0  0
   25.1116  -19.3748  -19.1695 C   0  0  0  0  0  0  0  0  0  0  0  0
   23.9903  -19.7161  -18.4244 C   0  0  0  0  0  0  0  0  0  0  0  0
   24.0105  -20.7287  -17.4829 C   0  0  0  0  0  0  0  0  0  0  0  0
   22.7893  -21.0310  -16.7363 C   0  0  0  0  0  0  0  0  0  0  0  0
   22.7196  -20.3686  -15.3833 C   0  0  2  0  0  0  0  0  0  0  0  0
   23.6779  -20.8860  -14.4538 N   0  0  0  0  0  0  0  0  0  0  0  0
   21.3227  -20.5051  -14.8910 C   0  0  0  0  0  0  0  0  0  0  0  0
   20.9342  -21.5647  -14.3362 O   0  0  0  0  0  0  0  0  0  0  0  0
   25.1818  -21.3996  -17.2981 C   0  0  0  0  0  0  0  0  0  0  0  0
   26.3102  -21.0638  -18.0406 C   0  0  0  0  0  0  0  0  0  0  0  0
   19.6739  -19.5010  -12.2294 C   0  0  0  0  0  0  0  0  0  0  0  0
   18.7553  -18.8692  -13.2565 C   0  0  1  0  0  0  0  0  0  0  0  0
   19.1913  -17.5562  -13.4322 O   0  0  0  0  0  0  0  0  0  0  0  0
   18.9905  -19.5919  -14.5632 C   0  0  2  0  0  0  0  0  0  0  0  0
   20.3589  -19.4616  -15.0163 N   0  0  0  0  0  0  0  0  0  0  0  0
   18.0153  -19.2111  -15.5993 C   0  0  0  0  0  0  0  0  0  0  0  0
   16.6738  -19.4162  -15.3965 O   0  0  0  0  0  0  0  0  0  0  0  0
   18.4127  -18.7012  -16.6630 O   0  0  0  0  0  0  0  0  0  0  0  0
  2  1  1  6
  2  3  1  0
  3  4  1  0
  4  5  2  0
  6  5  1  0
  7  6  1  0
  8  7  2  0
  9  8  1  0
 10  9  2  0
 10 11  1  0
 11 12  2  0
 12  7  1  0
 12  4  1  0
 13  2  1  0
 13 14  2  0
 15 16  1  0
 16 26  2  0
 16 17  1  0
 17 18  2  0
 18 19  1  0
 19 20  1  0
 21 20  1  6
 22 21  1  0
 22 13  1  0
 23 21  1  0
 24 23  2  0
 25 19  2  0
 26 25  1  0
 28 27  1  1
 28 30  1  0
 29 28  1  0
 30 32  1  0
 30 31  1  6
 31 23  1  0
 32 33  1  0
 34 32  2  0
M  END
$$$$
