WYT.pdb
     RDKit          3D

 34 36  0  0  1  0  0  0  0  0999 V2000
   23.8126  -11.5357  -20.8910 N   0  0  0  0  0  0  0  0  0  0  0  0
   23.2757  -10.2258  -21.1997 C   0  0  1  0  0  0  0  0  0  0  0  0
   21.8328  -10.3344  -21.6454 C   0  0  0  0  0  0  0  0  0  0  0  0
   21.7229  -11.0150  -22.9610 C   0  0  0  0  0  0  0  0  0  0  0  0
   21.4499  -12.3634  -23.1964 C   0  0  0  0  0  0  0  0  0  0  0  0
   21.4349  -12.5882  -24.5198 N   0  0  0  0  0  0  0  0  0  0  0  0
   21.6866  -11.4475  -25.1912 C   0  0  0  0  0  0  0  0  0  0  0  0
   21.7721  -11.1885  -26.5450 C   0  0  0  0  0  0  0  0  0  0  0  0
   22.0478   -9.8992  -26.9511 C   0  0  0  0  0  0  0  0  0  0  0  0
   22.2291   -8.9125  -26.0024 C   0  0  0  0  0  0  0  0  0  0  0  0
   22.1400   -9.1899  -24.6542 C   0  0  0  0  0  0  0  0  0  0  0  0
   21.8660  -10.4679  -24.2264 C   0  0  0  0  0  0  0  0  0  0  0  0
   23.4407   -9.2798  -20.0781 C   0  0  0  0  0  0  0  0  0  0  0  0
   23.1766   -9.6890  -18.9120 O   0  0  0  0  0  0  0  0  0  0  0  0
   24.6393   -1.6412  -15.6708 O   0  0  0  0  0  0  0  0  0  0  0  0
   24.7404   -2.7206  -16.5422 C   0  0  0  0  0  0  0  0  0  0  0  0
   24.4159   -2.5790  -17.8753 C   0  0  0  0  0  0  0  0  0  0  0  0
   24.5207   -3.6638  -18.7362 C   0  0  0  0  0  0  0  0  0  0  0  0
   24.9455   -4.9078  -18.3071 C   0  0  0  0  0  0  0  0  0  0  0  0
   25.0303   -6.0033  -19.2728 C   0  0  0  0  0  0  0  0  0  0  0  0
   23.9492   -7.0427  -19.1155 C   0  0  2  0  0  0  0  0  0  0  0  0
   23.8741   -7.9482  -20.2220 N   0  0  0  0  0  0  0  0  0  0  0  0
   22.6681   -6.3228  -18.8854 C   0  0  0  0  0  0  0  0  0  0  0  0
   22.1160   -5.6750  -19.8113 O   0  0  0  0  0  0  0  0  0  0  0  0
   25.2663   -5.0489  -16.9905 C   0  0  0  0  0  0  0  0  0  0  0  0
   25.1641   -3.9669  -16.1210 C   0  0  0  0  0  0  0  0  0  0  0  0
   19.5551   -7.3746  -18.5134 C   0  0  0  0  0  0  0  0  0  0  0  0
   19.5842   -6.5245  -17.2585 C   0  0  1  0  0  0  0  0  0  0  0  0
   19.8449   -7.3874  -16.1944 O   0  0  0  0  0  0  0  0  0  0  0  0
   20.7735   -5.5994  -17.3794 C   0  0  2  0  0  0  0  0  0  0  0  0
   22.0020   -6.3245  -17.6246 N   0  0  0  0  0  0  0  0  0  0  0  0
   20.8837   -4.6739  -16.2388 C   0  0  0  0  0  0  0  0  0  0  0  0
   19.8726   -3.7871  -15.9664 O   0  0  0  0  0  0  0  0  0  0  0  0
   21.8998   -4.6985  -15.5203 O   0  0  0  0  0  0  0  0  0  0  0  0
  2  1  1  1
  2  3  1  0
  3  4  1  0
  4  5  2  0
  6  5  1  0
  7  6  1  0
  8  7  2  0
  9  8  1  0
 10  9  2  0
 10 11  1  0
 11 12  2  0
 12  7  1  0
 12  4  1  0
 13  2  1  0
 13 14  2  0
 15 16  1  0
 16 26  2  0
 16 17  1  0
 17 18  2  0
 18 19  1  0
 19 20  1  0
 21 20  1  6
 22 21  1  0
 22 13  1  0
 23 21  1  0
 24 23  2  0
 25 19  2  0
 26 25  1  0
 28 27  1  6
 28 30  1  0
 29 28  1  0
 30 32  1  0
 30 31  1  1
 31 23  1  0
 32 33  1  0
 34 32  2  0
M  END
$$$$
