LPL.pdb
     RDKit          3D

 24 24  0  0  1  0  0  0  0  0999 V2000
    7.3313  -12.1608   20.4957 C   0  0  0  0  0  0  0  0  0  0  0  0
    8.0102  -13.5004   20.5523 C   0  0  2  0  0  0  0  0  0  0  0  0
    9.0498  -13.5198   19.4173 C   0  0  0  0  0  0  0  0  0  0  0  0
    7.0912  -14.6396   20.3602 C   0  0  0  0  0  0  0  0  0  0  0  0
    7.5320  -16.0016   20.7090 C   0  0  2  0  0  0  0  0  0  0  0  0
    6.3725  -16.8752   20.3597 N   0  0  0  0  0  0  0  0  0  0  0  0
    7.8998  -16.3087   22.0697 C   0  0  0  0  0  0  0  0  0  0  0  0
    6.9656  -16.4090   22.9400 O   0  0  0  0  0  0  0  0  0  0  0  0
    9.2192  -16.5207   22.5877 N   0  0  0  0  0  0  0  0  0  0  0  0
   10.3932  -16.4532   21.7583 C   0  0  0  0  0  0  0  0  0  0  0  0
   11.3585  -17.4100   22.4208 C   0  0  0  0  0  0  0  0  0  0  0  0
   10.8440  -17.6533   23.8026 C   0  0  0  0  0  0  0  0  0  0  0  0
    9.6316  -16.8222   23.9103 C   0  0  1  0  0  0  0  0  0  0  0  0
    9.7836  -15.6390   24.7897 C   0  0  0  0  0  0  0  0  0  0  0  0
   10.5276  -14.7094   24.3829 O   0  0  0  0  0  0  0  0  0  0  0  0
    8.1404  -12.0188   25.6740 C   0  0  0  0  0  0  0  0  0  0  0  0
    7.3935  -13.2545   26.1895 C   0  0  2  0  0  0  0  0  0  0  0  0
    6.0169  -12.8323   26.5939 C   0  0  0  0  0  0  0  0  0  0  0  0
    8.1405  -13.7953   27.3830 C   0  0  0  0  0  0  0  0  0  0  0  0
    9.4512  -14.4478   27.0031 C   0  0  2  0  0  0  0  0  0  0  0  0
    9.1600  -15.4720   26.0492 N   0  0  0  0  0  0  0  0  0  0  0  0
   10.0713  -15.0063   28.2500 C   0  0  0  0  0  0  0  0  0  0  0  0
   10.6029  -14.2761   29.1208 O   0  0  0  0  0  0  0  0  0  0  0  0
   10.0704  -16.3737   28.4725 O   0  0  0  0  0  0  0  0  0  0  0  0
  2  1  1  6
  2  3  1  0
  4  2  1  0
  4  5  1  0
  5  7  1  0
  5  6  1  1
  7  8  2  0
  9 13  1  0
  9  7  1  0
 10  9  1  0
 11 10  1  0
 11 12  1  0
 12 13  1  0
 13 14  1  1
 14 15  2  0
 17 16  1  1
 17 19  1  0
 18 17  1  0
 20 19  1  1
 20 21  1  0
 20 22  1  0
 21 14  1  0
 22 23  2  0
 22 24  1  0
M  END
$$$$
