LPL.pdb
     RDKit          3D

 24 24  0  0  1  0  0  0  0  0999 V2000
    6.1268  -12.1220   26.8178 C   0  0  0  0  0  0  0  0  0  0  0  0
    6.4424  -13.1814   25.7996 C   0  0  2  0  0  0  0  0  0  0  0  0
    6.1336  -12.5761   24.4184 C   0  0  0  0  0  0  0  0  0  0  0  0
    5.6427  -14.4121   25.9569 C   0  0  0  0  0  0  0  0  0  0  0  0
    5.7694  -15.4979   24.9689 C   0  0  2  0  0  0  0  0  0  0  0  0
    4.9415  -16.6107   25.5220 N   0  0  0  0  0  0  0  0  0  0  0  0
    7.0701  -16.0452   24.6695 C   0  0  0  0  0  0  0  0  0  0  0  0
    7.4290  -17.1154   25.2745 O   0  0  0  0  0  0  0  0  0  0  0  0
    8.0427  -15.5261   23.7536 N   0  0  0  0  0  0  0  0  0  0  0  0
    7.9034  -14.2369   23.1299 C   0  0  0  0  0  0  0  0  0  0  0  0
    8.6127  -14.3988   21.8044 C   0  0  0  0  0  0  0  0  0  0  0  0
    9.4631  -15.6224   21.9174 C   0  0  0  0  0  0  0  0  0  0  0  0
    9.2490  -16.1105   23.2915 C   0  0  1  0  0  0  0  0  0  0  0  0
   10.4094  -15.9146   24.1924 C   0  0  0  0  0  0  0  0  0  0  0  0
   11.3904  -15.2708   23.7381 O   0  0  0  0  0  0  0  0  0  0  0  0
   10.5557  -13.5968   27.5522 C   0  0  0  0  0  0  0  0  0  0  0  0
    9.9740  -14.9958   27.7868 C   0  0  2  0  0  0  0  0  0  0  0  0
    9.2973  -15.0018   29.1206 C   0  0  0  0  0  0  0  0  0  0  0  0
   11.1097  -15.9882   27.7782 C   0  0  0  0  0  0  0  0  0  0  0  0
   11.6329  -16.2627   26.3857 C   0  0  2  0  0  0  0  0  0  0  0  0
   10.5021  -16.3940   25.5208 N   0  0  0  0  0  0  0  0  0  0  0  0
   12.4473  -17.5219   26.4347 C   0  0  0  0  0  0  0  0  0  0  0  0
   12.0522  -18.5976   25.9241 O   0  0  0  0  0  0  0  0  0  0  0  0
   13.6836  -17.5244   27.0600 O   0  0  0  0  0  0  0  0  0  0  0  0
  2  1  1  1
  2  3  1  0
  4  2  1  0
  4  5  1  0
  5  7  1  0
  5  6  1  1
  7  8  2  0
  9 13  1  0
  9  7  1  0
 10  9  1  0
 11 10  1  0
 11 12  1  0
 12 13  1  0
 13 14  1  1
 14 15  2  0
 17 16  1  1
 17 19  1  0
 18 17  1  0
 20 19  1  1
 20 21  1  0
 20 22  1  0
 21 14  1  0
 22 23  2  0
 22 24  1  0
M  END
$$$$
