LPL.pdb
     RDKit          3D

 24 24  0  0  1  0  0  0  0  0999 V2000
    7.7161  -12.1025   19.6417 C   0  0  0  0  0  0  0  0  0  0  0  0
    8.4410  -13.4124   19.7732 C   0  0  2  0  0  0  0  0  0  0  0  0
    9.7718  -13.2618   19.0145 C   0  0  0  0  0  0  0  0  0  0  0  0
    7.7061  -14.5571   19.1998 C   0  0  0  0  0  0  0  0  0  0  0  0
    8.0766  -15.9304   19.5840 C   0  0  2  0  0  0  0  0  0  0  0  0
    7.0191  -16.7914   18.9756 N   0  0  0  0  0  0  0  0  0  0  0  0
    8.1614  -16.2852   20.9797 C   0  0  0  0  0  0  0  0  0  0  0  0
    7.0806  -16.2970   21.6668 O   0  0  0  0  0  0  0  0  0  0  0  0
    9.3386  -16.6355   21.7184 N   0  0  0  0  0  0  0  0  0  0  0  0
   10.6527  -16.6090   21.1328 C   0  0  0  0  0  0  0  0  0  0  0  0
   11.4059  -17.6809   21.8877 C   0  0  0  0  0  0  0  0  0  0  0  0
   10.6187  -17.9710   23.1243 C   0  0  0  0  0  0  0  0  0  0  0  0
    9.4663  -17.0540   23.0671 C   0  0  1  0  0  0  0  0  0  0  0  0
    9.5234  -15.9461   24.0498 C   0  0  0  0  0  0  0  0  0  0  0  0
   10.3858  -15.0499   23.8596 O   0  0  0  0  0  0  0  0  0  0  0  0
    5.7930  -12.5221   26.5485 C   0  0  0  0  0  0  0  0  0  0  0  0
    7.2528  -12.8913   26.2597 C   0  0  2  0  0  0  0  0  0  0  0  0
    7.5183  -12.6428   24.8090 C   0  0  0  0  0  0  0  0  0  0  0  0
    7.4430  -14.3533   26.5776 C   0  0  0  0  0  0  0  0  0  0  0  0
    8.8283  -14.8500   26.2280 C   0  0  2  0  0  0  0  0  0  0  0  0
    8.6868  -15.8165   25.1840 N   0  0  0  0  0  0  0  0  0  0  0  0
    9.4337  -15.4480   27.4638 C   0  0  0  0  0  0  0  0  0  0  0  0
    9.3648  -16.6742   27.7196 O   0  0  0  0  0  0  0  0  0  0  0  0
   10.0982  -14.6393   28.3715 O   0  0  0  0  0  0  0  0  0  0  0  0
  2  1  1  6
  2  3  1  0
  4  2  1  0
  4  5  1  0
  5  7  1  0
  5  6  1  6
  7  8  2  0
  9 13  1  0
  9  7  1  0
 10  9  1  0
 11 10  1  0
 11 12  1  0
 12 13  1  0
 13 14  1  1
 14 15  2  0
 17 16  1  6
 17 19  1  0
 18 17  1  0
 20 19  1  1
 20 21  1  0
 20 22  1  0
 21 14  1  0
 22 23  2  0
 22 24  1  0
M  END
$$$$
