LPL.pdb
     RDKit          3D

 24 24  0  0  1  0  0  0  0  0999 V2000
    6.9757  -13.0231   27.5834 C   0  0  0  0  0  0  0  0  0  0  0  0
    7.0240  -13.6719   26.2287 C   0  0  2  0  0  0  0  0  0  0  0  0
    6.7274  -12.5688   25.1969 C   0  0  0  0  0  0  0  0  0  0  0  0
    6.0328  -14.7516   26.0525 C   0  0  0  0  0  0  0  0  0  0  0  0
    6.0653  -15.5827   24.8363 C   0  0  2  0  0  0  0  0  0  0  0  0
    5.1105  -16.6967   25.1143 N   0  0  0  0  0  0  0  0  0  0  0  0
    7.3064  -16.1836   24.4127 C   0  0  0  0  0  0  0  0  0  0  0  0
    7.5421  -17.3932   24.7617 O   0  0  0  0  0  0  0  0  0  0  0  0
    8.3422  -15.5795   23.6277 N   0  0  0  0  0  0  0  0  0  0  0  0
    8.2522  -14.2283   23.1411 C   0  0  0  0  0  0  0  0  0  0  0  0
    9.0506  -14.2532   21.8573 C   0  0  0  0  0  0  0  0  0  0  0  0
    9.8857  -15.4920   21.8931 C   0  0  0  0  0  0  0  0  0  0  0  0
    9.5749  -16.1244   23.1876 C   0  0  1  0  0  0  0  0  0  0  0  0
   10.6712  -16.0420   24.1815 C   0  0  0  0  0  0  0  0  0  0  0  0
   11.8479  -15.9854   23.7394 O   0  0  0  0  0  0  0  0  0  0  0  0
   11.0601  -13.1070   27.0788 C   0  0  0  0  0  0  0  0  0  0  0  0
   10.1401  -14.2167   27.6012 C   0  0  2  0  0  0  0  0  0  0  0  0
    9.5325  -13.7521   28.8865 C   0  0  0  0  0  0  0  0  0  0  0  0
   10.9747  -15.4502   27.8395 C   0  0  0  0  0  0  0  0  0  0  0  0
   11.5459  -16.0229   26.5613 C   0  0  2  0  0  0  0  0  0  0  0  0
   10.5003  -16.0227   25.5863 N   0  0  0  0  0  0  0  0  0  0  0  0
   12.0376  -17.4103   26.8522 C   0  0  0  0  0  0  0  0  0  0  0  0
   13.0730  -17.6283   27.5263 O   0  0  0  0  0  0  0  0  0  0  0  0
   11.3421  -18.5077   26.3711 O   0  0  0  0  0  0  0  0  0  0  0  0
  2  1  1  1
  2  3  1  0
  4  2  1  0
  4  5  1  0
  5  7  1  0
  5  6  1  1
  7  8  2  0
  9 13  1  0
  9  7  1  0
 10  9  1  0
 11 10  1  0
 11 12  1  0
 12 13  1  0
 13 14  1  1
 14 15  2  0
 17 16  1  1
 17 19  1  0
 18 17  1  0
 20 19  1  1
 20 21  1  0
 20 22  1  0
 21 14  1  0
 22 23  2  0
 22 24  1  0
M  END
$$$$
