LPL.pdb
     RDKit          3D

 24 24  0  0  1  0  0  0  0  0999 V2000
    7.3818  -12.9713   26.8158 C   0  0  0  0  0  0  0  0  0  0  0  0
    6.5957  -13.2255   25.5603 C   0  0  2  0  0  0  0  0  0  0  0  0
    5.6533  -12.0225   25.3752 C   0  0  0  0  0  0  0  0  0  0  0  0
    5.7776  -14.4532   25.6112 C   0  0  0  0  0  0  0  0  0  0  0  0
    6.0701  -15.5654   24.6901 C   0  0  2  0  0  0  0  0  0  0  0  0
    5.1752  -16.6733   25.1391 N   0  0  0  0  0  0  0  0  0  0  0  0
    7.4069  -16.1027   24.6180 C   0  0  0  0  0  0  0  0  0  0  0  0
    7.6746  -17.1507   25.3038 O   0  0  0  0  0  0  0  0  0  0  0  0
    8.5083  -15.5957   23.8537 N   0  0  0  0  0  0  0  0  0  0  0  0
    8.4731  -14.3090   23.2106 C   0  0  0  0  0  0  0  0  0  0  0  0
    9.3692  -14.4833   22.0053 C   0  0  0  0  0  0  0  0  0  0  0  0
   10.1838  -15.7125   22.2482 C   0  0  0  0  0  0  0  0  0  0  0  0
    9.7649  -16.1914   23.5776 C   0  0  1  0  0  0  0  0  0  0  0  0
   10.7810  -15.9991   24.6393 C   0  0  0  0  0  0  0  0  0  0  0  0
   11.3748  -14.8904   24.6757 O   0  0  0  0  0  0  0  0  0  0  0  0
   11.6203  -14.1459   28.4461 C   0  0  0  0  0  0  0  0  0  0  0  0
   10.3923  -14.4936   27.5966 C   0  0  2  0  0  0  0  0  0  0  0  0
    9.1941  -13.8579   28.2269 C   0  0  0  0  0  0  0  0  0  0  0  0
   10.2354  -15.9936   27.5833 C   0  0  0  0  0  0  0  0  0  0  0  0
   11.4332  -16.6994   26.9873 C   0  0  2  0  0  0  0  0  0  0  0  0
   11.1365  -16.9621   25.6136 N   0  0  0  0  0  0  0  0  0  0  0  0
   11.6602  -17.9646   27.7611 C   0  0  0  0  0  0  0  0  0  0  0  0
   12.6926  -18.1558   28.4478 O   0  0  0  0  0  0  0  0  0  0  0  0
   10.7116  -18.9740   27.7337 O   0  0  0  0  0  0  0  0  0  0  0  0
  2  1  1  1
  2  3  1  0
  4  2  1  0
  4  5  1  0
  5  7  1  0
  5  6  1  1
  7  8  2  0
  9 13  1  0
  9  7  1  0
 10  9  1  0
 11 10  1  0
 11 12  1  0
 12 13  1  0
 13 14  1  1
 14 15  2  0
 17 16  1  1
 17 19  1  0
 18 17  1  0
 20 19  1  1
 20 21  1  0
 20 22  1  0
 21 14  1  0
 22 23  2  0
 22 24  1  0
M  END
$$$$
