LNC.pdb
     RDKit          3D

 23 22  0  0  1  0  0  0  0  0999 V2000
    7.2841  -13.8429   20.7551 C   0  0  0  0  0  0  0  0  0  0  0  0
    8.5942  -13.6213   20.0287 C   0  0  2  0  0  0  0  0  0  0  0  0
    8.6589  -12.1417   19.6678 C   0  0  0  0  0  0  0  0  0  0  0  0
    8.6739  -14.4871   18.7751 C   0  0  0  0  0  0  0  0  0  0  0  0
    8.8644  -15.9132   19.2370 C   0  0  2  0  0  0  0  0  0  0  0  0
    8.3418  -15.9864   20.5960 N   0  0  0  0  0  0  0  0  0  0  0  0
   10.2840  -16.3162   19.2518 C   0  0  0  0  0  0  0  0  0  0  0  0
   10.9352  -16.1763   18.1809 O   0  0  0  0  0  0  0  0  0  0  0  0
   13.5254  -14.3067   18.2282 N   0  0  0  0  0  0  0  0  0  0  0  0
   13.6169  -14.9417   19.4944 C   0  0  0  0  0  0  0  0  0  0  0  0
   14.6804  -15.5290   19.8037 O   0  0  0  0  0  0  0  0  0  0  0  0
   12.4531  -14.8803   20.3889 C   0  0  0  0  0  0  0  0  0  0  0  0
   12.0841  -16.2081   21.0130 C   0  0  2  0  0  0  0  0  0  0  0  0
   10.9596  -16.8420   20.3673 N   0  0  0  0  0  0  0  0  0  0  0  0
   11.8323  -15.9645   22.4556 C   0  0  0  0  0  0  0  0  0  0  0  0
   12.7698  -15.5410   23.1805 O   0  0  0  0  0  0  0  0  0  0  0  0
   10.5869  -16.1810   23.0790 N   0  0  0  0  0  0  0  0  0  0  0  0
   10.3406  -16.0388   24.4913 C   0  0  1  0  0  0  0  0  0  0  0  0
    9.0464  -15.2236   24.6197 C   0  0  0  0  0  0  0  0  0  0  0  0
    7.6543  -16.1290   23.8901 S   0  0  0  0  0  0  0  0  0  0  0  0
   10.1005  -17.3190   25.1725 C   0  0  0  0  0  0  0  0  0  0  0  0
   10.0057  -18.3609   24.5030 O   0  0  0  0  0  0  0  0  0  0  0  0
    9.9808  -17.3696   26.5374 O   0  0  0  0  0  0  0  0  0  0  0  0
  2  1  1  6
  2  3  1  0
  4  5  1  0
  4  2  1  0
  5  6  1  1
  7  5  1  0
  7  8  2  0
 10 12  1  0
 10  9  1  0
 11 10  2  0
 13 12  1  6
 13 14  1  0
 14  7  1  0
 15 13  1  0
 15 17  1  0
 16 15  2  0
 18 17  1  0
 18 21  1  0
 19 20  1  0
 18 19  1  6
 21 22  2  0
 21 23  1  0
M  END
$$$$
