LNC.pdb
     RDKit          3D

 23 22  0  0  1  0  0  0  0  0999 V2000
    9.1699  -12.8603   18.1350 C   0  0  0  0  0  0  0  0  0  0  0  0
    8.0035  -13.5378   18.8233 C   0  0  2  0  0  0  0  0  0  0  0  0
    7.0055  -12.4448   19.1882 C   0  0  0  0  0  0  0  0  0  0  0  0
    8.4672  -14.2842   20.0705 C   0  0  0  0  0  0  0  0  0  0  0  0
    9.4256  -15.3577   19.6095 C   0  0  2  0  0  0  0  0  0  0  0  0
    8.7460  -16.1010   18.5555 N   0  0  0  0  0  0  0  0  0  0  0  0
    9.7880  -16.2927   20.6922 C   0  0  0  0  0  0  0  0  0  0  0  0
    8.8933  -16.5754   21.5348 O   0  0  0  0  0  0  0  0  0  0  0  0
   13.2054  -13.8839   18.8131 N   0  0  0  0  0  0  0  0  0  0  0  0
   13.4388  -14.7687   19.8982 C   0  0  0  0  0  0  0  0  0  0  0  0
   14.4916  -15.4492   19.9113 O   0  0  0  0  0  0  0  0  0  0  0  0
   12.4286  -14.8459   20.9622 C   0  0  0  0  0  0  0  0  0  0  0  0
   12.1824  -16.2463   21.4786 C   0  0  2  0  0  0  0  0  0  0  0  0
   11.0518  -16.8882   20.8517 N   0  0  0  0  0  0  0  0  0  0  0  0
   12.0230  -16.1536   22.9516 C   0  0  0  0  0  0  0  0  0  0  0  0
   13.0169  -15.8457   23.6595 O   0  0  0  0  0  0  0  0  0  0  0  0
   10.8069  -16.3925   23.6226 N   0  0  0  0  0  0  0  0  0  0  0  0
   10.6491  -16.4079   25.0545 C   0  0  1  0  0  0  0  0  0  0  0  0
    9.1472  -16.2370   25.3212 C   0  0  0  0  0  0  0  0  0  0  0  0
    8.5350  -14.7198   24.5381 S   0  0  0  0  0  0  0  0  0  0  0  0
   11.0429  -17.6832   25.6703 C   0  0  0  0  0  0  0  0  0  0  0  0
   11.0651  -17.7849   26.9080 O   0  0  0  0  0  0  0  0  0  0  0  0
   11.3847  -18.7571   24.8894 O   0  0  0  0  0  0  0  0  0  0  0  0
  2  1  1  1
  2  3  1  0
  4  5  1  0
  4  2  1  0
  5  6  1  6
  7  5  1  0
  7  8  2  0
 10 12  1  0
 10  9  1  0
 11 10  2  0
 13 12  1  6
 13 14  1  0
 14  7  1  0
 15 13  1  0
 15 17  1  0
 16 15  2  0
 18 17  1  0
 18 21  1  0
 19 20  1  0
 18 19  1  6
 21 22  2  0
 21 23  1  0
M  END
$$$$
