LNC.pdb
     RDKit          3D

 23 22  0  0  1  0  0  0  0  0999 V2000
    9.5147  -13.3907   19.2837 C   0  0  0  0  0  0  0  0  0  0  0  0
    8.0633  -13.5977   19.6632 C   0  0  2  0  0  0  0  0  0  0  0  0
    7.3845  -12.2349   19.5881 C   0  0  0  0  0  0  0  0  0  0  0  0
    7.9467  -14.1827   21.0673 C   0  0  0  0  0  0  0  0  0  0  0  0
    8.6671  -15.5109   21.0514 C   0  0  2  0  0  0  0  0  0  0  0  0
    7.8519  -16.4199   20.2548 N   0  0  0  0  0  0  0  0  0  0  0  0
    8.8302  -16.0801   22.4033 C   0  0  0  0  0  0  0  0  0  0  0  0
    7.7860  -16.4595   23.0000 O   0  0  0  0  0  0  0  0  0  0  0  0
   10.0404  -19.1550   23.1203 N   0  0  0  0  0  0  0  0  0  0  0  0
   11.2234  -18.9407   23.8747 C   0  0  0  0  0  0  0  0  0  0  0  0
   12.0936  -19.8425   23.9087 O   0  0  0  0  0  0  0  0  0  0  0  0
   11.3735  -17.6635   24.5850 C   0  0  0  0  0  0  0  0  0  0  0  0
   10.1996  -16.7238   24.4192 C   0  0  2  0  0  0  0  0  0  0  0  0
   10.0589  -16.2292   23.0707 N   0  0  0  0  0  0  0  0  0  0  0  0
   10.3714  -15.6231   25.4003 C   0  0  0  0  0  0  0  0  0  0  0  0
   11.4377  -14.9545   25.3939 O   0  0  0  0  0  0  0  0  0  0  0  0
    9.3990  -15.2706   26.3577 N   0  0  0  0  0  0  0  0  0  0  0  0
    9.6276  -14.3870   27.4724 C   0  0  1  0  0  0  0  0  0  0  0  0
    8.2677  -13.7579   27.8054 C   0  0  0  0  0  0  0  0  0  0  0  0
    7.4129  -13.2594   26.2853 S   0  0  0  0  0  0  0  0  0  0  0  0
   10.0766  -15.0845   28.6860 C   0  0  0  0  0  0  0  0  0  0  0  0
   10.1170  -16.3257   28.6997 O   0  0  0  0  0  0  0  0  0  0  0  0
   10.4496  -14.3754   29.7987 O   0  0  0  0  0  0  0  0  0  0  0  0
  2  1  1  1
  2  3  1  0
  4  5  1  0
  4  2  1  0
  5  6  1  6
  7  5  1  0
  7  8  2  0
 10 12  1  0
 10  9  1  0
 11 10  2  0
 13 12  1  6
 13 14  1  0
 14  7  1  0
 15 13  1  0
 15 17  1  0
 16 15  2  0
 18 17  1  0
 18 21  1  0
 19 20  1  0
 18 19  1  1
 21 22  2  0
 21 23  1  0
M  END
$$$$
