LNC.pdb
     RDKit          3D

 23 22  0  0  1  0  0  0  0  0999 V2000
    9.4191  -12.5178   19.5494 C   0  0  0  0  0  0  0  0  0  0  0  0
    8.3411  -13.4449   19.0282 C   0  0  2  0  0  0  0  0  0  0  0  0
    7.0662  -12.6189   18.9014 C   0  0  0  0  0  0  0  0  0  0  0  0
    8.1306  -14.6212   19.9767 C   0  0  0  0  0  0  0  0  0  0  0  0
    9.4304  -14.8246   20.7201 C   0  0  2  0  0  0  0  0  0  0  0  0
   10.2524  -15.7006   19.8941 N   0  0  0  0  0  0  0  0  0  0  0  0
    9.2331  -15.4609   22.0370 C   0  0  0  0  0  0  0  0  0  0  0  0
    8.4110  -14.9173   22.8237 O   0  0  0  0  0  0  0  0  0  0  0  0
   12.0664  -19.3049   22.3279 N   0  0  0  0  0  0  0  0  0  0  0  0
   11.6599  -18.7748   23.5803 C   0  0  0  0  0  0  0  0  0  0  0  0
   12.5368  -18.4373   24.4103 O   0  0  0  0  0  0  0  0  0  0  0  0
   10.2209  -18.6457   23.8468 C   0  0  0  0  0  0  0  0  0  0  0  0
    9.7051  -17.2255   23.7740 C   0  0  2  0  0  0  0  0  0  0  0  0
    9.8918  -16.6232   22.4757 N   0  0  0  0  0  0  0  0  0  0  0  0
   10.3801  -16.4536   24.8475 C   0  0  0  0  0  0  0  0  0  0  0  0
   11.4632  -15.8651   24.5936 O   0  0  0  0  0  0  0  0  0  0  0  0
    9.8773  -16.3343   26.1587 N   0  0  0  0  0  0  0  0  0  0  0  0
   10.4263  -15.4705   27.1726 C   0  0  1  0  0  0  0  0  0  0  0  0
    9.3512  -14.4138   27.4620 C   0  0  0  0  0  0  0  0  0  0  0  0
    9.9835  -13.1702   28.6212 S   0  0  0  0  0  0  0  0  0  0  0  0
   10.6915  -16.1594   28.4437 C   0  0  0  0  0  0  0  0  0  0  0  0
   10.2503  -17.3066   28.6224 O   0  0  0  0  0  0  0  0  0  0  0  0
   11.4202  -15.5454   29.4294 O   0  0  0  0  0  0  0  0  0  0  0  0
  2  1  1  1
  2  3  1  0
  4  5  1  0
  4  2  1  0
  5  6  1  6
  7  5  1  0
  7  8  2  0
 10 12  1  0
 10  9  1  0
 11 10  2  0
 13 12  1  6
 13 14  1  0
 14  7  1  0
 15 13  1  0
 15 17  1  0
 16 15  2  0
 18 17  1  0
 18 21  1  0
 19 20  1  0
 18 19  1  1
 21 22  2  0
 21 23  1  0
M  END
$$$$
