LNC.pdb
     RDKit          3D

 23 22  0  0  1  0  0  0  0  0999 V2000
    9.3354  -12.1981   19.4306 C   0  0  0  0  0  0  0  0  0  0  0  0
    8.3370  -13.3367   19.4247 C   0  0  2  0  0  0  0  0  0  0  0  0
    7.0263  -12.7770   18.8839 C   0  0  0  0  0  0  0  0  0  0  0  0
    8.1454  -13.8990   20.8298 C   0  0  0  0  0  0  0  0  0  0  0  0
    9.5233  -14.1832   21.3813 C   0  0  2  0  0  0  0  0  0  0  0  0
   10.3164  -14.7080   20.2764 N   0  0  0  0  0  0  0  0  0  0  0  0
    9.5010  -15.1827   22.4669 C   0  0  0  0  0  0  0  0  0  0  0  0
    8.6051  -15.0607   23.3460 O   0  0  0  0  0  0  0  0  0  0  0  0
   10.4444  -19.0991   25.6756 N   0  0  0  0  0  0  0  0  0  0  0  0
   11.3041  -19.3409   24.5724 C   0  0  0  0  0  0  0  0  0  0  0  0
   11.9815  -20.3955   24.5500 O   0  0  0  0  0  0  0  0  0  0  0  0
   11.3601  -18.3368   23.5013 C   0  0  0  0  0  0  0  0  0  0  0  0
   10.4635  -17.1400   23.7302 C   0  0  2  0  0  0  0  0  0  0  0  0
   10.4014  -16.2555   22.5914 N   0  0  0  0  0  0  0  0  0  0  0  0
   10.9537  -16.4459   24.9475 C   0  0  0  0  0  0  0  0  0  0  0  0
   12.0163  -15.7743   24.8866 O   0  0  0  0  0  0  0  0  0  0  0  0
   10.2937  -16.4909   26.1920 N   0  0  0  0  0  0  0  0  0  0  0  0
   10.6673  -15.7156   27.3473 C   0  0  1  0  0  0  0  0  0  0  0  0
    9.5121  -14.7362   27.5969 C   0  0  0  0  0  0  0  0  0  0  0  0
    9.9310  -13.5949   28.9430 S   0  0  0  0  0  0  0  0  0  0  0  0
   10.8069  -16.5210   28.5690 C   0  0  0  0  0  0  0  0  0  0  0  0
   10.1482  -17.5667   28.6919 O   0  0  0  0  0  0  0  0  0  0  0  0
   11.6569  -16.1262   29.5698 O   0  0  0  0  0  0  0  0  0  0  0  0
  2  1  1  1
  2  3  1  0
  4  5  1  0
  4  2  1  0
  5  6  1  6
  7  5  1  0
  7  8  2  0
 10 12  1  0
 10  9  1  0
 11 10  2  0
 13 12  1  6
 13 14  1  0
 14  7  1  0
 15 13  1  0
 15 17  1  0
 16 15  2  0
 18 17  1  0
 18 21  1  0
 19 20  1  0
 18 19  1  1
 21 22  2  0
 21 23  1  0
M  END
$$$$
