LNC.pdb
     RDKit          3D

 23 22  0  0  1  0  0  0  0  0999 V2000
    9.2508  -13.6759   20.4258 C   0  0  0  0  0  0  0  0  0  0  0  0
    8.6013  -13.3864   19.0888 C   0  0  2  0  0  0  0  0  0  0  0  0
    7.6358  -12.2266   19.3043 C   0  0  0  0  0  0  0  0  0  0  0  0
    7.8624  -14.6145   18.5661 C   0  0  0  0  0  0  0  0  0  0  0  0
    8.9075  -15.6676   18.2796 C   0  0  2  0  0  0  0  0  0  0  0  0
    8.2587  -16.6922   17.4705 N   0  0  0  0  0  0  0  0  0  0  0  0
    9.4291  -16.2937   19.5100 C   0  0  0  0  0  0  0  0  0  0  0  0
    8.5999  -16.8860   20.2529 O   0  0  0  0  0  0  0  0  0  0  0  0
   13.8853  -17.9812   18.7391 N   0  0  0  0  0  0  0  0  0  0  0  0
   13.0377  -18.3606   19.8125 C   0  0  0  0  0  0  0  0  0  0  0  0
   12.5520  -19.5163   19.8235 O   0  0  0  0  0  0  0  0  0  0  0  0
   12.7675  -17.3742   20.8673 C   0  0  0  0  0  0  0  0  0  0  0  0
   11.3037  -17.0273   21.0271 C   0  0  2  0  0  0  0  0  0  0  0  0
   10.7765  -16.2778   19.9120 N   0  0  0  0  0  0  0  0  0  0  0  0
   11.1602  -16.2923   22.3088 C   0  0  0  0  0  0  0  0  0  0  0  0
   12.0281  -15.4389   22.6289 O   0  0  0  0  0  0  0  0  0  0  0  0
   10.0942  -16.4917   23.2089 N   0  0  0  0  0  0  0  0  0  0  0  0
   10.0110  -15.9096   24.5242 C   0  0  1  0  0  0  0  0  0  0  0  0
    8.5190  -15.8742   24.8826 C   0  0  0  0  0  0  0  0  0  0  0  0
    7.5921  -14.9356   23.6377 S   0  0  0  0  0  0  0  0  0  0  0  0
   10.6733  -16.7148   25.5604 C   0  0  0  0  0  0  0  0  0  0  0  0
   11.1714  -17.8118   25.2587 O   0  0  0  0  0  0  0  0  0  0  0  0
   10.7440  -16.2637   26.8532 O   0  0  0  0  0  0  0  0  0  0  0  0
  2  1  1  1
  2  3  1  0
  4  5  1  0
  4  2  1  0
  5  6  1  6
  7  5  1  0
  7  8  2  0
 10 12  1  0
 10  9  1  0
 11 10  2  0
 13 12  1  6
 13 14  1  0
 14  7  1  0
 15 13  1  0
 15 17  1  0
 16 15  2  0
 18 17  1  0
 18 21  1  0
 19 20  1  0
 18 19  1  1
 21 22  2  0
 21 23  1  0
M  END
$$$$
