HIY.pdb
     RDKit          3D

 31 32  0  0  1  0  0  0  0  0999 V2000
    7.8168  -15.2345   19.6590 N   0  0  0  0  0  0  0  0  0  0  0  0
    7.4415  -15.8529   20.9128 C   0  0  1  0  0  0  0  0  0  0  0  0
    7.7300  -17.3306   20.7815 C   0  0  0  0  0  0  0  0  0  0  0  0
    6.7101  -17.8887   19.8516 C   0  0  0  0  0  0  0  0  0  0  0  0
    6.5428  -17.5649   18.5065 C   0  0  0  0  0  0  0  0  0  0  0  0
    5.5261  -18.2610   17.9813 N   0  0  0  0  0  0  0  0  0  0  0  0
    5.0480  -19.0265   18.9920 C   0  0  0  0  0  0  0  0  0  0  0  0
    5.7597  -18.8020   20.1143 N   0  0  0  0  0  0  0  0  0  0  0  0
    8.2534  -15.2401   21.9923 C   0  0  0  0  0  0  0  0  0  0  0  0
    9.4419  -14.8470   21.7868 O   0  0  0  0  0  0  0  0  0  0  0  0
    5.5561  -12.5696   26.0158 C   0  0  0  0  0  0  0  0  0  0  0  0
    6.5803  -12.8928   24.9872 C   0  0  0  0  0  0  0  0  0  0  0  0
    7.5292  -13.9635   25.3598 C   0  0  2  0  0  0  0  0  0  0  0  0
    8.2765  -13.6043   26.6514 C   0  0  0  0  0  0  0  0  0  0  0  0
    8.5340  -14.4064   24.3672 C   0  0  2  0  0  0  0  0  0  0  0  0
    7.7434  -15.0667   23.2923 N   0  0  0  0  0  0  0  0  0  0  0  0
    9.4637  -15.4796   24.8637 C   0  0  0  0  0  0  0  0  0  0  0  0
    8.9922  -16.6083   25.2081 O   0  0  0  0  0  0  0  0  0  0  0  0
    9.8605  -16.0250   31.5316 O   0  0  0  0  0  0  0  0  0  0  0  0
   10.5164  -15.9169   30.3274 C   0  0  0  0  0  0  0  0  0  0  0  0
   11.1036  -17.0656   29.8202 C   0  0  0  0  0  0  0  0  0  0  0  0
   11.7678  -16.9921   28.6172 C   0  0  0  0  0  0  0  0  0  0  0  0
   11.8425  -15.7960   27.9373 C   0  0  0  0  0  0  0  0  0  0  0  0
   12.5549  -15.7544   26.6646 C   0  0  0  0  0  0  0  0  0  0  0  0
   11.8236  -16.2417   25.4675 C   0  0  2  0  0  0  0  0  0  0  0  0
   10.8613  -15.2912   24.9651 N   0  0  0  0  0  0  0  0  0  0  0  0
   11.3513  -17.6364   25.5256 C   0  0  0  0  0  0  0  0  0  0  0  0
   10.0998  -17.9001   25.4299 O   0  0  0  0  0  0  0  0  0  0  0  0
   11.2623  -14.6694   28.4425 C   0  0  0  0  0  0  0  0  0  0  0  0
   10.5948  -14.7299   29.6452 C   0  0  0  0  0  0  0  0  0  0  0  0
   12.1523  -18.7548   25.6844 O   0  0  0  0  0  0  0  0  0  0  0  0
  2  1  1  6
  3  4  1  0
  3  2  1  0
  4  8  1  0
  4  5  2  0
  5  6  1  0
  7  6  1  0
  8  7  2  0
  9 16  1  0
  9  2  1  0
 10  9  2  0
 11 12  1  0
 13 12  1  0
 13 15  1  0
 13 14  1  1
 15 16  1  6
 17 15  1  0
 18 17  2  0
 20 19  1  0
 20 30  2  0
 21 20  1  0
 22 21  2  0
 22 23  1  0
 23 29  2  0
 24 23  1  0
 25 26  1  0
 25 24  1  1
 26 17  1  0
 27 25  1  0
 28 27  2  0
 29 30  1  0
 31 27  1  0
M  END
$$$$
