HIY.pdb
     RDKit          3D

 31 32  0  0  1  0  0  0  0  0999 V2000
    8.7730  -16.1448   21.0164 N   0  0  0  0  0  0  0  0  0  0  0  0
    7.7508  -16.0853   22.0396 C   0  0  1  0  0  0  0  0  0  0  0  0
    7.2688  -17.4995   22.2668 C   0  0  0  0  0  0  0  0  0  0  0  0
    6.5660  -17.9211   21.0239 C   0  0  0  0  0  0  0  0  0  0  0  0
    6.5272  -17.2313   19.8137 C   0  0  0  0  0  0  0  0  0  0  0  0
    5.8008  -17.9071   18.9138 N   0  0  0  0  0  0  0  0  0  0  0  0
    5.3784  -19.0253   19.5521 C   0  0  0  0  0  0  0  0  0  0  0  0
    5.8385  -19.0324   20.8188 N   0  0  0  0  0  0  0  0  0  0  0  0
    8.3589  -15.5201   23.2688 C   0  0  0  0  0  0  0  0  0  0  0  0
    9.5671  -15.7519   23.5782 O   0  0  0  0  0  0  0  0  0  0  0  0
    6.1526  -10.9217   25.1854 C   0  0  0  0  0  0  0  0  0  0  0  0
    7.1824  -11.9299   24.8187 C   0  0  0  0  0  0  0  0  0  0  0  0
    7.3523  -13.0352   25.7858 C   0  0  2  0  0  0  0  0  0  0  0  0
    7.8444  -12.5044   27.1393 C   0  0  0  0  0  0  0  0  0  0  0  0
    8.2081  -14.1847   25.4154 C   0  0  2  0  0  0  0  0  0  0  0  0
    7.6245  -14.7021   24.1473 N   0  0  0  0  0  0  0  0  0  0  0  0
    8.1300  -15.3469   26.3672 C   0  0  0  0  0  0  0  0  0  0  0  0
    7.3210  -16.2980   26.1312 O   0  0  0  0  0  0  0  0  0  0  0  0
   12.2791  -22.4299   28.2535 O   0  0  0  0  0  0  0  0  0  0  0  0
   11.7335  -21.2016   27.9611 C   0  0  0  0  0  0  0  0  0  0  0  0
   11.7768  -20.7874   26.6390 C   0  0  0  0  0  0  0  0  0  0  0  0
   11.2397  -19.5633   26.3122 C   0  0  0  0  0  0  0  0  0  0  0  0
   10.6721  -18.7718   27.2868 C   0  0  0  0  0  0  0  0  0  0  0  0
   10.1122  -17.4796   26.9047 C   0  0  0  0  0  0  0  0  0  0  0  0
    9.6349  -16.6015   28.0030 C   0  0  2  0  0  0  0  0  0  0  0  0
    8.9288  -15.4353   27.5304 N   0  0  0  0  0  0  0  0  0  0  0  0
   10.5975  -16.3500   29.0903 C   0  0  0  0  0  0  0  0  0  0  0  0
   11.5216  -15.4725   28.9460 O   0  0  0  0  0  0  0  0  0  0  0  0
   10.6330  -19.1858   28.5861 C   0  0  0  0  0  0  0  0  0  0  0  0
   11.1670  -20.4085   28.9258 C   0  0  0  0  0  0  0  0  0  0  0  0
   10.6182  -16.9939   30.3160 O   0  0  0  0  0  0  0  0  0  0  0  0
  2  1  1  6
  3  4  1  0
  3  2  1  0
  4  8  1  0
  4  5  2  0
  5  6  1  0
  7  6  1  0
  8  7  2  0
  9 16  1  0
  9  2  1  0
 10  9  2  0
 11 12  1  0
 13 12  1  0
 13 15  1  0
 13 14  1  1
 15 16  1  6
 17 15  1  0
 18 17  2  0
 20 19  1  0
 20 30  2  0
 21 20  1  0
 22 21  2  0
 22 23  1  0
 23 29  2  0
 24 23  1  0
 25 26  1  0
 25 24  1  6
 26 17  1  0
 27 25  1  0
 28 27  2  0
 29 30  1  0
 31 27  1  0
M  END
$$$$
