HIY.pdb
     RDKit          3D

 31 32  0  0  1  0  0  0  0  0999 V2000
    8.5849  -16.1977   20.6565 N   0  0  0  0  0  0  0  0  0  0  0  0
    7.5176  -16.0643   21.6253 C   0  0  1  0  0  0  0  0  0  0  0  0
    6.9416  -17.4446   21.8424 C   0  0  0  0  0  0  0  0  0  0  0  0
    6.2883  -17.8455   20.5661 C   0  0  0  0  0  0  0  0  0  0  0  0
    6.2859  -17.1299   19.3704 C   0  0  0  0  0  0  0  0  0  0  0  0
    5.5994  -17.7927   18.4305 N   0  0  0  0  0  0  0  0  0  0  0  0
    5.1659  -18.9286   19.0289 C   0  0  0  0  0  0  0  0  0  0  0  0
    5.5803  -18.9590   20.3110 N   0  0  0  0  0  0  0  0  0  0  0  0
    8.0952  -15.5192   22.8780 C   0  0  0  0  0  0  0  0  0  0  0  0
    9.3119  -15.7067   23.1841 O   0  0  0  0  0  0  0  0  0  0  0  0
    5.8829  -11.0101   24.9174 C   0  0  0  0  0  0  0  0  0  0  0  0
    6.8860  -12.0396   24.5362 C   0  0  0  0  0  0  0  0  0  0  0  0
    7.0178  -13.1689   25.4811 C   0  0  2  0  0  0  0  0  0  0  0  0
    7.4967  -12.6778   26.8541 C   0  0  0  0  0  0  0  0  0  0  0  0
    7.8574  -14.3267   25.0996 C   0  0  2  0  0  0  0  0  0  0  0  0
    7.3211  -14.7700   23.7834 N   0  0  0  0  0  0  0  0  0  0  0  0
    7.7007  -15.5266   25.9931 C   0  0  0  0  0  0  0  0  0  0  0  0
    6.5790  -16.1205   26.0552 O   0  0  0  0  0  0  0  0  0  0  0  0
    8.1366  -23.5242   28.7912 O   0  0  0  0  0  0  0  0  0  0  0  0
    8.2214  -22.2738   28.2243 C   0  0  0  0  0  0  0  0  0  0  0  0
    7.1155  -21.4468   28.3453 C   0  0  0  0  0  0  0  0  0  0  0  0
    7.1671  -20.1890   27.7894 C   0  0  0  0  0  0  0  0  0  0  0  0
    8.3000  -19.7686   27.1273 C   0  0  0  0  0  0  0  0  0  0  0  0
    8.3200  -18.4288   26.5498 C   0  0  0  0  0  0  0  0  0  0  0  0
    8.8132  -17.3290   27.4172 C   0  0  2  0  0  0  0  0  0  0  0  0
    8.7598  -16.0361   26.7791 N   0  0  0  0  0  0  0  0  0  0  0  0
   10.0533  -17.6055   28.1640 C   0  0  0  0  0  0  0  0  0  0  0  0
   11.1772  -17.1550   27.7411 O   0  0  0  0  0  0  0  0  0  0  0  0
    9.3847  -20.5879   27.0120 C   0  0  0  0  0  0  0  0  0  0  0  0
    9.3455  -21.8487   27.5639 C   0  0  0  0  0  0  0  0  0  0  0  0
   10.1451  -18.3410   29.3336 O   0  0  0  0  0  0  0  0  0  0  0  0
  2  1  1  6
  3  4  1  0
  3  2  1  0
  4  8  1  0
  4  5  2  0
  5  6  1  0
  7  6  1  0
  8  7  2  0
  9 16  1  0
  9  2  1  0
 10  9  2  0
 11 12  1  0
 13 12  1  0
 13 15  1  0
 13 14  1  1
 15 16  1  6
 17 15  1  0
 18 17  2  0
 20 19  1  0
 20 30  2  0
 21 20  1  0
 22 21  2  0
 22 23  1  0
 23 29  2  0
 24 23  1  0
 25 26  1  0
 25 24  1  6
 26 17  1  0
 27 25  1  0
 28 27  2  0
 29 30  1  0
 31 27  1  0
M  END
$$$$
