HIY.pdb
     RDKit          3D

 31 32  0  0  1  0  0  0  0  0999 V2000
    7.4302  -15.4461   20.0594 N   0  0  0  0  0  0  0  0  0  0  0  0
    7.2556  -15.9204   21.4158 C   0  0  1  0  0  0  0  0  0  0  0  0
    7.7577  -17.3454   21.4547 C   0  0  0  0  0  0  0  0  0  0  0  0
    6.8309  -18.1529   20.6147 C   0  0  0  0  0  0  0  0  0  0  0  0
    5.5803  -18.6417   20.9875 C   0  0  0  0  0  0  0  0  0  0  0  0
    5.0266  -19.3266   19.9784 N   0  0  0  0  0  0  0  0  0  0  0  0
    5.9250  -19.2729   18.9654 C   0  0  0  0  0  0  0  0  0  0  0  0
    7.0077  -18.5680   19.3488 N   0  0  0  0  0  0  0  0  0  0  0  0
    8.0459  -15.0467   22.3169 C   0  0  0  0  0  0  0  0  0  0  0  0
    9.1217  -14.4959   21.9312 O   0  0  0  0  0  0  0  0  0  0  0  0
    5.1750  -12.1984   26.0692 C   0  0  0  0  0  0  0  0  0  0  0  0
    6.1771  -12.5322   25.0223 C   0  0  0  0  0  0  0  0  0  0  0  0
    7.3125  -13.3607   25.4806 C   0  0  2  0  0  0  0  0  0  0  0  0
    8.0459  -12.6835   26.6465 C   0  0  0  0  0  0  0  0  0  0  0  0
    8.3315  -13.7861   24.4948 C   0  0  2  0  0  0  0  0  0  0  0  0
    7.6395  -14.7890   23.6392 N   0  0  0  0  0  0  0  0  0  0  0  0
    9.4927  -14.5356   25.0887 C   0  0  0  0  0  0  0  0  0  0  0  0
   10.2528  -13.9546   25.9251 O   0  0  0  0  0  0  0  0  0  0  0  0
   11.8847  -15.8453   31.7323 O   0  0  0  0  0  0  0  0  0  0  0  0
   11.2835  -16.1783   30.5408 C   0  0  0  0  0  0  0  0  0  0  0  0
   10.7398  -15.1444   29.7946 C   0  0  0  0  0  0  0  0  0  0  0  0
   10.1308  -15.4431   28.5972 C   0  0  0  0  0  0  0  0  0  0  0  0
   10.0676  -16.7472   28.1568 C   0  0  0  0  0  0  0  0  0  0  0  0
    9.4142  -17.0277   26.8826 C   0  0  0  0  0  0  0  0  0  0  0  0
   10.2461  -16.9067   25.6585 C   0  0  2  0  0  0  0  0  0  0  0  0
    9.7832  -15.8791   24.7576 N   0  0  0  0  0  0  0  0  0  0  0  0
   10.6302  -18.1750   25.0136 C   0  0  0  0  0  0  0  0  0  0  0  0
    9.9035  -18.6728   24.0814 O   0  0  0  0  0  0  0  0  0  0  0  0
   10.6049  -17.7598   28.8965 C   0  0  0  0  0  0  0  0  0  0  0  0
   11.2168  -17.4739   30.0962 C   0  0  0  0  0  0  0  0  0  0  0  0
   11.7479  -18.9321   25.3220 O   0  0  0  0  0  0  0  0  0  0  0  0
  2  1  1  6
  3  4  1  0
  3  2  1  0
  4  8  1  0
  4  5  2  0
  5  6  1  0
  7  6  1  0
  8  7  2  0
  9 16  1  0
  9  2  1  0
 10  9  2  0
 11 12  1  0
 13 12  1  0
 13 15  1  0
 13 14  1  1
 15 16  1  6
 17 15  1  0
 18 17  2  0
 20 19  1  0
 20 30  2  0
 21 20  1  0
 22 21  2  0
 22 23  1  0
 23 29  2  0
 24 23  1  0
 25 26  1  0
 25 24  1  1
 26 17  1  0
 27 25  1  0
 28 27  2  0
 29 30  1  0
 31 27  1  0
M  END
$$$$
