HIY.pdb
     RDKit          3D

 31 32  0  0  1  0  0  0  0  0999 V2000
    9.0674  -17.3186   19.5290 N   0  0  0  0  0  0  0  0  0  0  0  0
   10.2055  -17.7554   20.3094 C   0  0  1  0  0  0  0  0  0  0  0  0
   11.3730  -17.8810   19.3579 C   0  0  0  0  0  0  0  0  0  0  0  0
   11.0052  -18.9211   18.3581 C   0  0  0  0  0  0  0  0  0  0  0  0
   10.3302  -20.1145   18.6069 C   0  0  0  0  0  0  0  0  0  0  0  0
   10.1707  -20.8067   17.4713 N   0  0  0  0  0  0  0  0  0  0  0  0
   10.7441  -20.0533   16.5019 C   0  0  0  0  0  0  0  0  0  0  0  0
   11.2447  -18.9215   17.0356 N   0  0  0  0  0  0  0  0  0  0  0  0
   10.4698  -16.7354   21.3534 C   0  0  0  0  0  0  0  0  0  0  0  0
   11.5946  -16.1561   21.4452 O   0  0  0  0  0  0  0  0  0  0  0  0
    7.2844  -12.6787   24.5246 C   0  0  0  0  0  0  0  0  0  0  0  0
    8.5443  -13.4678   24.4857 C   0  0  0  0  0  0  0  0  0  0  0  0
    8.5581  -14.5824   23.5144 C   0  0  2  0  0  0  0  0  0  0  0  0
    7.3668  -15.5221   23.7463 C   0  0  0  0  0  0  0  0  0  0  0  0
    9.7746  -15.4179   23.4015 C   0  0  2  0  0  0  0  0  0  0  0  0
    9.4862  -16.3637   22.2886 N   0  0  0  0  0  0  0  0  0  0  0  0
   10.0306  -16.3029   24.5906 C   0  0  0  0  0  0  0  0  0  0  0  0
    9.2908  -17.3168   24.7891 O   0  0  0  0  0  0  0  0  0  0  0  0
    7.9760  -12.0657   29.1981 O   0  0  0  0  0  0  0  0  0  0  0  0
    8.4944  -13.2799   28.8122 C   0  0  0  0  0  0  0  0  0  0  0  0
    9.8709  -13.3660   28.6734 C   0  0  0  0  0  0  0  0  0  0  0  0
   10.4223  -14.5667   28.2886 C   0  0  0  0  0  0  0  0  0  0  0  0
    9.6141  -15.6564   28.0482 C   0  0  0  0  0  0  0  0  0  0  0  0
   10.2326  -16.9139   27.6415 C   0  0  0  0  0  0  0  0  0  0  0  0
   11.3745  -16.8277   26.6961 C   0  0  2  0  0  0  0  0  0  0  0  0
   11.0742  -16.0587   25.5128 N   0  0  0  0  0  0  0  0  0  0  0  0
   12.1062  -18.0841   26.4547 C   0  0  0  0  0  0  0  0  0  0  0  0
   12.4486  -18.8325   27.4383 O   0  0  0  0  0  0  0  0  0  0  0  0
    8.2601  -15.5645   28.1868 C   0  0  0  0  0  0  0  0  0  0  0  0
    7.6962  -14.3687   28.5713 C   0  0  0  0  0  0  0  0  0  0  0  0
   12.4889  -18.5709   25.2162 O   0  0  0  0  0  0  0  0  0  0  0  0
  2  1  1  6
  3  4  1  0
  3  2  1  0
  4  8  1  0
  4  5  2  0
  5  6  1  0
  7  6  1  0
  8  7  2  0
  9 16  1  0
  9  2  1  0
 10  9  2  0
 11 12  1  0
 13 12  1  0
 13 15  1  0
 13 14  1  1
 15 16  1  6
 17 15  1  0
 18 17  2  0
 20 19  1  0
 20 30  2  0
 21 20  1  0
 22 21  2  0
 22 23  1  0
 23 29  2  0
 24 23  1  0
 25 26  1  0
 25 24  1  6
 26 17  1  0
 27 25  1  0
 28 27  2  0
 29 30  1  0
 31 27  1  0
M  END
$$$$
