HIY.pdb
     RDKit          3D

 31 32  0  0  1  0  0  0  0  0999 V2000
   10.2282  -17.6345   16.6357 N   0  0  0  0  0  0  0  0  0  0  0  0
    9.4134  -17.8371   17.8148 C   0  0  1  0  0  0  0  0  0  0  0  0
    9.6723  -19.2464   18.2953 C   0  0  0  0  0  0  0  0  0  0  0  0
    8.9811  -20.1604   17.3448 C   0  0  0  0  0  0  0  0  0  0  0  0
    7.7015  -20.0010   16.8167 C   0  0  0  0  0  0  0  0  0  0  0  0
    7.4054  -21.0163   15.9948 N   0  0  0  0  0  0  0  0  0  0  0  0
    8.4962  -21.8201   16.0010 C   0  0  0  0  0  0  0  0  0  0  0  0
    9.4415  -21.3051   16.8119 N   0  0  0  0  0  0  0  0  0  0  0  0
    9.8180  -16.8384   18.8341 C   0  0  0  0  0  0  0  0  0  0  0  0
   11.0247  -16.4668   18.9564 O   0  0  0  0  0  0  0  0  0  0  0  0
    6.8980  -12.4306   19.8484 C   0  0  0  0  0  0  0  0  0  0  0  0
    8.0171  -13.3992   19.7045 C   0  0  0  0  0  0  0  0  0  0  0  0
    8.2091  -14.3126   20.8511 C   0  0  2  0  0  0  0  0  0  0  0  0
    8.3786  -13.5218   22.1556 C   0  0  0  0  0  0  0  0  0  0  0  0
    9.2935  -15.3183   20.7908 C   0  0  2  0  0  0  0  0  0  0  0  0
    8.8831  -16.2579   19.7113 N   0  0  0  0  0  0  0  0  0  0  0  0
    9.4066  -16.1813   22.0176 C   0  0  0  0  0  0  0  0  0  0  0  0
    8.4232  -16.9057   22.3682 O   0  0  0  0  0  0  0  0  0  0  0  0
   12.9366  -21.4215   20.0225 O   0  0  0  0  0  0  0  0  0  0  0  0
   12.7323  -20.4778   21.0021 C   0  0  0  0  0  0  0  0  0  0  0  0
   12.0889  -20.8929   22.1576 C   0  0  0  0  0  0  0  0  0  0  0  0
   11.8685  -19.9737   23.1577 C   0  0  0  0  0  0  0  0  0  0  0  0
   12.2829  -18.6685   23.0046 C   0  0  0  0  0  0  0  0  0  0  0  0
   12.0327  -17.7205   24.0852 C   0  0  0  0  0  0  0  0  0  0  0  0
   10.7532  -16.9682   24.0381 C   0  0  2  0  0  0  0  0  0  0  0  0
   10.5752  -16.2285   22.8121 N   0  0  0  0  0  0  0  0  0  0  0  0
   10.3907  -16.2378   25.2657 C   0  0  0  0  0  0  0  0  0  0  0  0
   10.1325  -14.9824   25.2191 O   0  0  0  0  0  0  0  0  0  0  0  0
   12.9155  -18.2669   21.8646 C   0  0  0  0  0  0  0  0  0  0  0  0
   13.1418  -19.1772   20.8567 C   0  0  0  0  0  0  0  0  0  0  0  0
   10.2963  -16.7859   26.5338 O   0  0  0  0  0  0  0  0  0  0  0  0
  2  1  1  6
  3  4  1  0
  3  2  1  0
  4  8  1  0
  4  5  2  0
  5  6  1  0
  7  6  1  0
  8  7  2  0
  9 16  1  0
  9  2  1  0
 10  9  2  0
 11 12  1  0
 13 12  1  0
 13 15  1  0
 13 14  1  1
 15 16  1  6
 17 15  1  0
 18 17  2  0
 20 19  1  0
 20 30  2  0
 21 20  1  0
 22 21  2  0
 22 23  1  0
 23 29  2  0
 24 23  1  0
 25 26  1  0
 25 24  1  1
 26 17  1  0
 27 25  1  0
 28 27  2  0
 29 30  1  0
 31 27  1  0
M  END
$$$$
