HIY.pdb
     RDKit          3D

 31 32  0  0  1  0  0  0  0  0999 V2000
   10.0226  -18.2980   17.9436 N   0  0  0  0  0  0  0  0  0  0  0  0
    9.0472  -18.2393   19.0116 C   0  0  1  0  0  0  0  0  0  0  0  0
    9.0681  -19.5822   19.7046 C   0  0  0  0  0  0  0  0  0  0  0  0
    8.4768  -20.5665   18.7568 C   0  0  0  0  0  0  0  0  0  0  0  0
    7.1913  -20.5376   18.2197 C   0  0  0  0  0  0  0  0  0  0  0  0
    7.0023  -21.5827   17.4036 N   0  0  0  0  0  0  0  0  0  0  0  0
    8.1670  -22.2750   17.4225 C   0  0  0  0  0  0  0  0  0  0  0  0
    9.0514  -21.6638   18.2353 N   0  0  0  0  0  0  0  0  0  0  0  0
    9.4403  -17.1497   19.9380 C   0  0  0  0  0  0  0  0  0  0  0  0
   10.6587  -16.8898   20.1775 O   0  0  0  0  0  0  0  0  0  0  0  0
    7.0080  -12.5722   19.3376 C   0  0  0  0  0  0  0  0  0  0  0  0
    8.0346  -13.5907   19.6841 C   0  0  0  0  0  0  0  0  0  0  0  0
    7.9641  -14.1090   21.0669 C   0  0  2  0  0  0  0  0  0  0  0  0
    8.1386  -12.9731   22.0843 C   0  0  0  0  0  0  0  0  0  0  0  0
    8.8677  -15.2117   21.4646 C   0  0  2  0  0  0  0  0  0  0  0  0
    8.4812  -16.3552   20.5931 N   0  0  0  0  0  0  0  0  0  0  0  0
    8.6505  -15.7160   22.8651 C   0  0  0  0  0  0  0  0  0  0  0  0
    7.5627  -16.3037   23.1588 O   0  0  0  0  0  0  0  0  0  0  0  0
    6.2502  -10.6455   26.5158 O   0  0  0  0  0  0  0  0  0  0  0  0
    6.7547  -11.9140   26.3474 C   0  0  0  0  0  0  0  0  0  0  0  0
    5.8449  -12.9305   26.1014 C   0  0  0  0  0  0  0  0  0  0  0  0
    6.3164  -14.2116   25.9281 C   0  0  0  0  0  0  0  0  0  0  0  0
    7.6681  -14.4694   25.9995 C   0  0  0  0  0  0  0  0  0  0  0  0
    8.1330  -15.8397   25.8110 C   0  0  0  0  0  0  0  0  0  0  0  0
    9.4980  -16.0168   25.2537 C   0  0  2  0  0  0  0  0  0  0  0  0
    9.6155  -15.5675   23.8877 N   0  0  0  0  0  0  0  0  0  0  0  0
   10.1493  -17.3065   25.5445 C   0  0  0  0  0  0  0  0  0  0  0  0
   10.7176  -17.9704   24.6059 O   0  0  0  0  0  0  0  0  0  0  0  0
    8.5579  -13.4642   26.2420 C   0  0  0  0  0  0  0  0  0  0  0  0
    8.0986  -12.1781   26.4171 C   0  0  0  0  0  0  0  0  0  0  0  0
   10.2162  -17.9159   26.7861 O   0  0  0  0  0  0  0  0  0  0  0  0
  2  1  1  6
  3  4  1  0
  3  2  1  0
  4  8  1  0
  4  5  2  0
  5  6  1  0
  7  6  1  0
  8  7  2  0
  9 16  1  0
  9  2  1  0
 10  9  2  0
 11 12  1  0
 13 12  1  0
 13 15  1  0
 13 14  1  1
 15 16  1  6
 17 15  1  0
 18 17  2  0
 20 19  1  0
 20 30  2  0
 21 20  1  0
 22 21  2  0
 22 23  1  0
 23 29  2  0
 24 23  1  0
 25 26  1  0
 25 24  1  6
 26 17  1  0
 27 25  1  0
 28 27  2  0
 29 30  1  0
 31 27  1  0
M  END
$$$$
