HIY.pdb
     RDKit          3D

 31 32  0  0  1  0  0  0  0  0999 V2000
   11.2203  -15.3377   14.7345 N   0  0  0  0  0  0  0  0  0  0  0  0
   10.7057  -16.1681   15.8026 C   0  0  1  0  0  0  0  0  0  0  0  0
   11.5865  -17.3942   15.8738 C   0  0  0  0  0  0  0  0  0  0  0  0
   11.2596  -18.2302   14.6860 C   0  0  0  0  0  0  0  0  0  0  0  0
   10.0894  -18.9568   14.4749 C   0  0  0  0  0  0  0  0  0  0  0  0
   10.1398  -19.5916   13.2965 N   0  0  0  0  0  0  0  0  0  0  0  0
   11.3412  -19.2683   12.7596 C   0  0  0  0  0  0  0  0  0  0  0  0
   12.0125  -18.4510   13.5948 N   0  0  0  0  0  0  0  0  0  0  0  0
   10.7649  -15.3893   17.0636 C   0  0  0  0  0  0  0  0  0  0  0  0
   11.8224  -14.7877   17.4228 O   0  0  0  0  0  0  0  0  0  0  0  0
    6.0604  -13.1396   18.8419 C   0  0  0  0  0  0  0  0  0  0  0  0
    7.4912  -13.3409   18.4902 C   0  0  0  0  0  0  0  0  0  0  0  0
    8.2657  -14.1558   19.4503 C   0  0  2  0  0  0  0  0  0  0  0  0
    8.2000  -13.5483   20.8583 C   0  0  0  0  0  0  0  0  0  0  0  0
    9.6852  -14.4530   19.1545 C   0  0  2  0  0  0  0  0  0  0  0  0
    9.6522  -15.2821   17.9184 N   0  0  0  0  0  0  0  0  0  0  0  0
   10.3608  -15.3269   20.1756 C   0  0  0  0  0  0  0  0  0  0  0  0
    9.9590  -16.5206   20.3444 O   0  0  0  0  0  0  0  0  0  0  0  0
   16.3597  -15.6990   17.1940 O   0  0  0  0  0  0  0  0  0  0  0  0
   15.6651  -15.5754   18.3747 C   0  0  0  0  0  0  0  0  0  0  0  0
   15.6876  -16.6584   19.2397 C   0  0  0  0  0  0  0  0  0  0  0  0
   15.0028  -16.5677   20.4299 C   0  0  0  0  0  0  0  0  0  0  0  0
   14.3112  -15.4189   20.7471 C   0  0  0  0  0  0  0  0  0  0  0  0
   13.5960  -15.3575   22.0175 C   0  0  0  0  0  0  0  0  0  0  0  0
   12.1371  -15.6327   21.9828 C   0  0  2  0  0  0  0  0  0  0  0  0
   11.4416  -14.8777   20.9689 N   0  0  0  0  0  0  0  0  0  0  0  0
   11.4618  -15.6897   23.2915 C   0  0  0  0  0  0  0  0  0  0  0  0
   11.9085  -16.4570   24.2170 O   0  0  0  0  0  0  0  0  0  0  0  0
   14.2933  -14.3569   19.8910 C   0  0  0  0  0  0  0  0  0  0  0  0
   14.9745  -14.4353   18.6971 C   0  0  0  0  0  0  0  0  0  0  0  0
   10.3349  -14.9699   23.6511 O   0  0  0  0  0  0  0  0  0  0  0  0
  2  1  1  6
  3  4  1  0
  3  2  1  0
  4  8  1  0
  4  5  2  0
  5  6  1  0
  7  6  1  0
  8  7  2  0
  9 16  1  0
  9  2  1  0
 10  9  2  0
 11 12  1  0
 13 12  1  0
 13 15  1  0
 13 14  1  1
 15 16  1  6
 17 15  1  0
 18 17  2  0
 20 19  1  0
 20 30  2  0
 21 20  1  0
 22 21  2  0
 22 23  1  0
 23 29  2  0
 24 23  1  0
 25 26  1  0
 25 24  1  1
 26 17  1  0
 27 25  1  0
 28 27  2  0
 29 30  1  0
 31 27  1  0
M  END
$$$$
