KHW.pdb
     RDKit          3D

 34 36  0  0  1  0  0  0  0  0999 V2000
   19.1154  -26.8274  -12.3677 N   0  0  0  0  0  0  0  0  0  0  0  0
   19.6430  -25.5108  -11.9577 C   0  0  1  0  0  0  0  0  0  0  0  0
   19.6904  -24.5833  -13.1182 C   0  0  0  0  0  0  0  0  0  0  0  0
   20.5914  -24.9627  -14.2091 C   0  0  0  0  0  0  0  0  0  0  0  0
   22.0351  -24.7224  -14.1932 C   0  0  0  0  0  0  0  0  0  0  0  0
   22.9039  -25.2738  -15.2653 C   0  0  0  0  0  0  0  0  0  0  0  0
   24.2612  -24.7226  -14.9747 N   0  0  0  0  0  0  0  0  0  0  0  0
   18.7047  -24.9566  -10.9017 C   0  0  0  0  0  0  0  0  0  0  0  0
   18.0957  -23.8919  -11.1482 O   0  0  0  0  0  0  0  0  0  0  0  0
   18.4972  -25.6002   -9.6568 N   0  0  0  0  0  0  0  0  0  0  0  0
   17.5283  -25.1622   -8.6943 C   0  0  1  0  0  0  0  0  0  0  0  0
   16.1106  -25.2363   -9.2079 C   0  0  0  0  0  0  0  0  0  0  0  0
   15.7067  -24.0545  -10.0032 C   0  0  0  0  0  0  0  0  0  0  0  0
   15.7485  -24.0815  -11.3807 C   0  0  0  0  0  0  0  0  0  0  0  0
   15.3300  -22.8821  -11.8156 N   0  0  0  0  0  0  0  0  0  0  0  0
   15.0355  -22.1279  -10.7444 C   0  0  0  0  0  0  0  0  0  0  0  0
   15.2721  -22.8617   -9.6472 N   0  0  0  0  0  0  0  0  0  0  0  0
   17.6687  -25.8635   -7.3848 C   0  0  0  0  0  0  0  0  0  0  0  0
   17.6164  -27.1129   -7.2879 O   0  0  0  0  0  0  0  0  0  0  0  0
   17.8718  -25.1604   -6.1569 N   0  0  0  0  0  0  0  0  0  0  0  0
   17.9875  -25.7207   -4.8660 C   0  0  1  0  0  0  0  0  0  0  0  0
   17.1251  -25.1906   -3.7869 C   0  0  0  0  0  0  0  0  0  0  0  0
   15.7142  -24.9663   -4.1396 C   0  0  0  0  0  0  0  0  0  0  0  0
   15.1434  -24.2297   -5.1533 C   0  0  0  0  0  0  0  0  0  0  0  0
   13.7955  -24.3253   -5.0580 N   0  0  0  0  0  0  0  0  0  0  0  0
   13.4622  -25.1023   -4.0125 C   0  0  0  0  0  0  0  0  0  0  0  0
   12.2678  -25.5266   -3.4669 C   0  0  0  0  0  0  0  0  0  0  0  0
   12.2018  -26.3474   -2.3545 C   0  0  0  0  0  0  0  0  0  0  0  0
   13.4078  -26.7433   -1.7867 C   0  0  0  0  0  0  0  0  0  0  0  0
   14.5852  -26.3228   -2.3278 C   0  0  0  0  0  0  0  0  0  0  0  0
   14.6546  -25.5020   -3.4398 C   0  0  0  0  0  0  0  0  0  0  0  0
   17.8814  -27.2029   -4.8428 C   0  0  0  0  0  0  0  0  0  0  0  0
   17.5440  -27.8010   -5.8810 O   0  0  0  0  0  0  0  0  0  0  0  0
   18.1485  -27.8980   -3.6971 O   0  0  0  0  0  0  0  0  0  0  0  0
  2  1  1  6
  3  2  1  0
  4  3  1  0
  5  4  1  0
  6  5  1  0
  6  7  1  0
  8  9  2  0
  8  2  1  0
 10  8  1  0
 11 10  1  0
 11 12  1  6
 12 13  1  0
 13 17  1  0
 13 14  2  0
 14 15  1  0
 16 15  1  0
 17 16  2  0
 18 20  1  0
 18 11  1  0
 19 18  2  0
 21 22  1  1
 21 20  1  0
 22 23  1  0
 23 31  1  0
 24 23  2  0
 24 25  1  0
 25 26  1  0
 26 27  2  0
 27 28  1  0
 29 28  2  0
 30 29  1  0
 31 30  2  0
 31 26  1  0
 32 21  1  0
 32 34  1  0
 33 32  2  0
M  END
$$$$
