KHW.pdb
     RDKit          3D

 34 36  0  0  1  0  0  0  0  0999 V2000
   28.4915  -18.2906  -18.2141 N   0  0  0  0  0  0  0  0  0  0  0  0
   29.2757  -18.1222  -16.9745 C   0  0  1  0  0  0  0  0  0  0  0  0
   29.9793  -16.8129  -16.9761 C   0  0  0  0  0  0  0  0  0  0  0  0
   31.0585  -16.6632  -17.9552 C   0  0  0  0  0  0  0  0  0  0  0  0
   31.3021  -17.6054  -19.0484 C   0  0  0  0  0  0  0  0  0  0  0  0
   32.4794  -17.4392  -19.9399 C   0  0  0  0  0  0  0  0  0  0  0  0
   32.5218  -18.6931  -20.7501 N   0  0  0  0  0  0  0  0  0  0  0  0
   28.3013  -18.1747  -15.8124 C   0  0  0  0  0  0  0  0  0  0  0  0
   28.7459  -17.9984  -14.6564 O   0  0  0  0  0  0  0  0  0  0  0  0
   26.9167  -18.4143  -15.9923 N   0  0  0  0  0  0  0  0  0  0  0  0
   25.9718  -18.4270  -14.9135 C   0  0  1  0  0  0  0  0  0  0  0  0
   24.7056  -17.6677  -15.2286 C   0  0  0  0  0  0  0  0  0  0  0  0
   24.9140  -16.2108  -15.3912 C   0  0  0  0  0  0  0  0  0  0  0  0
   25.9623  -15.5724  -14.7640 C   0  0  0  0  0  0  0  0  0  0  0  0
   25.8929  -14.2730  -15.0952 N   0  0  0  0  0  0  0  0  0  0  0  0
   24.8347  -14.1032  -15.9041 C   0  0  0  0  0  0  0  0  0  0  0  0
   24.2500  -15.2982  -16.0727 N   0  0  0  0  0  0  0  0  0  0  0  0
   25.6718  -19.8081  -14.4348 C   0  0  0  0  0  0  0  0  0  0  0  0
   25.4674  -20.7591  -15.2267 O   0  0  0  0  0  0  0  0  0  0  0  0
   25.5979  -20.1387  -13.0462 N   0  0  0  0  0  0  0  0  0  0  0  0
   25.3240  -21.4064  -12.4879 C   0  0  1  0  0  0  0  0  0  0  0  0
   26.1808  -21.8909  -11.3832 C   0  0  0  0  0  0  0  0  0  0  0  0
   26.1480  -21.0968  -10.1448 C   0  0  0  0  0  0  0  0  0  0  0  0
   25.1186  -20.4119   -9.5388 C   0  0  0  0  0  0  0  0  0  0  0  0
   25.5875  -19.8247   -8.4118 N   0  0  0  0  0  0  0  0  0  0  0  0
   26.8941  -20.1024   -8.2578 C   0  0  0  0  0  0  0  0  0  0  0  0
   27.8468  -19.7727   -7.3155 C   0  0  0  0  0  0  0  0  0  0  0  0
   29.1601  -20.2019   -7.3958 C   0  0  0  0  0  0  0  0  0  0  0  0
   29.5014  -20.9975   -8.4840 C   0  0  0  0  0  0  0  0  0  0  0  0
   28.5585  -21.3214   -9.4124 C   0  0  0  0  0  0  0  0  0  0  0  0
   27.2446  -20.8937   -9.3352 C   0  0  0  0  0  0  0  0  0  0  0  0
   23.9079  -21.5875  -12.0747 C   0  0  0  0  0  0  0  0  0  0  0  0
   23.1731  -20.5871  -11.9805 O   0  0  0  0  0  0  0  0  0  0  0  0
   23.4211  -22.8344  -11.8001 O   0  0  0  0  0  0  0  0  0  0  0  0
  2  1  1  6
  3  2  1  0
  4  3  1  0
  5  4  1  0
  6  5  1  0
  6  7  1  0
  8  9  2  0
  8  2  1  0
 10  8  1  0
 11 10  1  0
 11 12  1  6
 12 13  1  0
 13 17  1  0
 13 14  2  0
 14 15  1  0
 16 15  1  0
 17 16  2  0
 18 20  1  0
 18 11  1  0
 19 18  2  0
 21 22  1  1
 21 20  1  0
 22 23  1  0
 23 31  1  0
 24 23  2  0
 24 25  1  0
 25 26  1  0
 26 27  2  0
 27 28  1  0
 29 28  2  0
 30 29  1  0
 31 30  2  0
 31 26  1  0
 32 21  1  0
 32 34  1  0
 33 32  2  0
M  END
$$$$
