KHW.pdb
     RDKit          3D

 34 36  0  0  1  0  0  0  0  0999 V2000
   24.4767  -18.3920  -17.9506 N   0  0  0  0  0  0  0  0  0  0  0  0
   24.8101  -18.3446  -16.5132 C   0  0  1  0  0  0  0  0  0  0  0  0
   23.5758  -18.2166  -15.6951 C   0  0  0  0  0  0  0  0  0  0  0  0
   22.7055  -17.0828  -16.0160 C   0  0  0  0  0  0  0  0  0  0  0  0
   21.4170  -17.2132  -16.6978 C   0  0  0  0  0  0  0  0  0  0  0  0
   20.5691  -16.0180  -16.9445 C   0  0  0  0  0  0  0  0  0  0  0  0
   19.3344  -16.5555  -17.5903 N   0  0  0  0  0  0  0  0  0  0  0  0
   25.5157  -19.6434  -16.1696 C   0  0  0  0  0  0  0  0  0  0  0  0
   24.9792  -20.7197  -16.5144 O   0  0  0  0  0  0  0  0  0  0  0  0
   26.7514  -19.6766  -15.4778 N   0  0  0  0  0  0  0  0  0  0  0  0
   27.3635  -20.8881  -15.0143 C   0  0  1  0  0  0  0  0  0  0  0  0
   28.7374  -21.1159  -15.5969 C   0  0  0  0  0  0  0  0  0  0  0  0
   29.1345  -20.0951  -16.5932 C   0  0  0  0  0  0  0  0  0  0  0  0
   28.2510  -19.1151  -16.9918 C   0  0  0  0  0  0  0  0  0  0  0  0
   28.8871  -18.3468  -17.8906 N   0  0  0  0  0  0  0  0  0  0  0  0
   30.1296  -18.8304  -18.0499 C   0  0  0  0  0  0  0  0  0  0  0  0
   30.2611  -19.8980  -17.2491 N   0  0  0  0  0  0  0  0  0  0  0  0
   27.3825  -20.9834  -13.5253 C   0  0  0  0  0  0  0  0  0  0  0  0
   28.3889  -21.3879  -12.8953 O   0  0  0  0  0  0  0  0  0  0  0  0
   26.2588  -20.6209  -12.7198 N   0  0  0  0  0  0  0  0  0  0  0  0
   25.4964  -21.4735  -11.8918 C   0  0  1  0  0  0  0  0  0  0  0  0
   26.1238  -22.0111  -10.6644 C   0  0  0  0  0  0  0  0  0  0  0  0
   26.3452  -21.0454   -9.5764 C   0  0  0  0  0  0  0  0  0  0  0  0
   25.5554  -20.0211   -9.1042 C   0  0  0  0  0  0  0  0  0  0  0  0
   26.2017  -19.4040   -8.0860 N   0  0  0  0  0  0  0  0  0  0  0  0
   27.3926  -19.9913   -7.8740 C   0  0  0  0  0  0  0  0  0  0  0  0
   28.4305  -19.7781   -6.9900 C   0  0  0  0  0  0  0  0  0  0  0  0
   29.5797  -20.5493   -6.9835 C   0  0  0  0  0  0  0  0  0  0  0  0
   29.6603  -21.5742   -7.9199 C   0  0  0  0  0  0  0  0  0  0  0  0
   28.6339  -21.7821   -8.7912 C   0  0  0  0  0  0  0  0  0  0  0  0
   27.4837  -21.0127   -8.8004 C   0  0  0  0  0  0  0  0  0  0  0  0
   24.1705  -20.9172  -11.5155 C   0  0  0  0  0  0  0  0  0  0  0  0
   23.8885  -19.7509  -11.8466 O   0  0  0  0  0  0  0  0  0  0  0  0
   23.2757  -21.6753  -10.8143 O   0  0  0  0  0  0  0  0  0  0  0  0
  2  1  1  6
  3  2  1  0
  4  3  1  0
  5  4  1  0
  6  5  1  0
  6  7  1  0
  8  9  2  0
  8  2  1  0
 10  8  1  0
 11 10  1  0
 11 12  1  1
 12 13  1  0
 13 17  1  0
 13 14  2  0
 14 15  1  0
 16 15  1  0
 17 16  2  0
 18 20  1  0
 18 11  1  0
 19 18  2  0
 21 22  1  1
 21 20  1  0
 22 23  1  0
 23 31  1  0
 24 23  2  0
 24 25  1  0
 25 26  1  0
 26 27  2  0
 27 28  1  0
 29 28  2  0
 30 29  1  0
 31 30  2  0
 31 26  1  0
 32 21  1  0
 32 34  1  0
 33 32  2  0
M  END
$$$$
