KHW.pdb
     RDKit          3D

 34 36  0  0  1  0  0  0  0  0999 V2000
   28.5203  -24.4951  -16.3434 N   0  0  0  0  0  0  0  0  0  0  0  0
   29.3331  -23.3054  -16.0212 C   0  0  1  0  0  0  0  0  0  0  0  0
   29.9606  -22.7537  -17.2505 C   0  0  0  0  0  0  0  0  0  0  0  0
   30.2332  -23.7153  -18.3213 C   0  0  0  0  0  0  0  0  0  0  0  0
   31.2930  -24.7229  -18.2599 C   0  0  0  0  0  0  0  0  0  0  0  0
   31.6346  -25.5330  -19.4580 C   0  0  0  0  0  0  0  0  0  0  0  0
   32.8155  -26.3469  -19.0415 N   0  0  0  0  0  0  0  0  0  0  0  0
   28.4013  -22.2711  -15.4174 C   0  0  0  0  0  0  0  0  0  0  0  0
   28.8460  -21.1203  -15.2103 O   0  0  0  0  0  0  0  0  0  0  0  0
   27.0559  -22.5635  -15.0841 N   0  0  0  0  0  0  0  0  0  0  0  0
   26.1561  -21.6001  -14.5190 C   0  0  1  0  0  0  0  0  0  0  0  0
   24.8716  -21.4624  -15.3001 C   0  0  0  0  0  0  0  0  0  0  0  0
   23.9458  -20.4501  -14.7430 C   0  0  0  0  0  0  0  0  0  0  0  0
   24.3091  -19.6807  -13.6586 C   0  0  0  0  0  0  0  0  0  0  0  0
   23.2782  -18.8647  -13.3858 N   0  0  0  0  0  0  0  0  0  0  0  0
   22.3004  -19.1153  -14.2713 C   0  0  0  0  0  0  0  0  0  0  0  0
   22.7273  -20.0864  -15.0915 N   0  0  0  0  0  0  0  0  0  0  0  0
   25.8877  -21.8508  -13.0727 C   0  0  0  0  0  0  0  0  0  0  0  0
   25.8911  -23.0058  -12.5837 O   0  0  0  0  0  0  0  0  0  0  0  0
   25.6100  -20.7945  -12.1506 N   0  0  0  0  0  0  0  0  0  0  0  0
   25.4505  -20.9074  -10.7521 C   0  0  1  0  0  0  0  0  0  0  0  0
   26.6617  -20.9196   -9.9025 C   0  0  0  0  0  0  0  0  0  0  0  0
   26.4371  -20.7706   -8.4559 C   0  0  0  0  0  0  0  0  0  0  0  0
   25.3278  -21.0322   -7.6831 C   0  0  0  0  0  0  0  0  0  0  0  0
   25.6098  -20.7241   -6.3945 N   0  0  0  0  0  0  0  0  0  0  0  0
   26.8708  -20.2680   -6.2959 C   0  0  0  0  0  0  0  0  0  0  0  0
   27.6581  -19.8234   -5.2534 C   0  0  0  0  0  0  0  0  0  0  0  0
   28.9627  -19.3962   -5.4289 C   0  0  0  0  0  0  0  0  0  0  0  0
   29.4716  -19.4290   -6.7226 C   0  0  0  0  0  0  0  0  0  0  0  0
   28.6919  -19.8685   -7.7496 C   0  0  0  0  0  0  0  0  0  0  0  0
   27.3871  -20.2961   -7.5775 C   0  0  0  0  0  0  0  0  0  0  0  0
   24.5025  -19.9194  -10.1741 C   0  0  0  0  0  0  0  0  0  0  0  0
   24.6237  -18.7177  -10.4754 O   0  0  0  0  0  0  0  0  0  0  0  0
   23.5139  -20.3251   -9.3225 O   0  0  0  0  0  0  0  0  0  0  0  0
  2  1  1  6
  3  2  1  0
  4  3  1  0
  5  4  1  0
  6  5  1  0
  6  7  1  0
  8  9  2  0
  8  2  1  0
 10  8  1  0
 11 10  1  0
 11 12  1  6
 12 13  1  0
 13 17  1  0
 13 14  2  0
 14 15  1  0
 16 15  1  0
 17 16  2  0
 18 20  1  0
 18 11  1  0
 19 18  2  0
 21 22  1  1
 21 20  1  0
 22 23  1  0
 23 31  1  0
 24 23  2  0
 24 25  1  0
 25 26  1  0
 26 27  2  0
 27 28  1  0
 29 28  2  0
 30 29  1  0
 31 30  2  0
 31 26  1  0
 32 21  1  0
 32 34  1  0
 33 32  2  0
M  END
$$$$
