KHW.pdb
     RDKit          3D

 34 36  0  0  1  0  0  0  0  0999 V2000
   28.0176  -18.8044  -20.4367 N   0  0  0  0  0  0  0  0  0  0  0  0
   27.3147  -18.0844  -19.3563 C   0  0  1  0  0  0  0  0  0  0  0  0
   26.5832  -16.9108  -19.9013 C   0  0  0  0  0  0  0  0  0  0  0  0
   27.3190  -16.0816  -20.8588 C   0  0  0  0  0  0  0  0  0  0  0  0
   26.7788  -14.8634  -21.4640 C   0  0  0  0  0  0  0  0  0  0  0  0
   27.5663  -14.1087  -22.4733 C   0  0  0  0  0  0  0  0  0  0  0  0
   26.6924  -12.9591  -22.8542 N   0  0  0  0  0  0  0  0  0  0  0  0
   26.3279  -19.0547  -18.7339 C   0  0  0  0  0  0  0  0  0  0  0  0
   25.6841  -19.8144  -19.4912 O   0  0  0  0  0  0  0  0  0  0  0  0
   26.1140  -19.1281  -17.3354 N   0  0  0  0  0  0  0  0  0  0  0  0
   25.1267  -19.9753  -16.7319 C   0  0  1  0  0  0  0  0  0  0  0  0
   25.6714  -20.7936  -15.5861 C   0  0  0  0  0  0  0  0  0  0  0  0
   26.6450  -21.8267  -16.0070 C   0  0  0  0  0  0  0  0  0  0  0  0
   26.9466  -22.0129  -17.3391 C   0  0  0  0  0  0  0  0  0  0  0  0
   27.8482  -23.0055  -17.4084 N   0  0  0  0  0  0  0  0  0  0  0  0
   28.1031  -23.4274  -16.1594 C   0  0  0  0  0  0  0  0  0  0  0  0
   27.3586  -22.6952  -15.3180 N   0  0  0  0  0  0  0  0  0  0  0  0
   23.9015  -19.2250  -16.3289 C   0  0  0  0  0  0  0  0  0  0  0  0
   23.9537  -18.1990  -15.6092 O   0  0  0  0  0  0  0  0  0  0  0  0
   22.5903  -19.6239  -16.7350 N   0  0  0  0  0  0  0  0  0  0  0  0
   21.3790  -18.9432  -16.4837 C   0  0  1  0  0  0  0  0  0  0  0  0
   20.6782  -18.3070  -17.6209 C   0  0  0  0  0  0  0  0  0  0  0  0
   21.4252  -17.2594  -18.3350 C   0  0  0  0  0  0  0  0  0  0  0  0
   22.4242  -17.3471  -19.2785 C   0  0  0  0  0  0  0  0  0  0  0  0
   22.8019  -16.0956  -19.6335 N   0  0  0  0  0  0  0  0  0  0  0  0
   22.0817  -15.1871  -18.9523 C   0  0  0  0  0  0  0  0  0  0  0  0
   22.0496  -13.8079  -18.9197 C   0  0  0  0  0  0  0  0  0  0  0  0
   21.1867  -13.0976  -18.1034 C   0  0  0  0  0  0  0  0  0  0  0  0
   20.3289  -13.8347  -17.2944 C   0  0  0  0  0  0  0  0  0  0  0  0
   20.3631  -15.1961  -17.3289 C   0  0  0  0  0  0  0  0  0  0  0  0
   21.2247  -15.9093  -18.1438 C   0  0  0  0  0  0  0  0  0  0  0  0
   20.3820  -19.7491  -15.7318 C   0  0  0  0  0  0  0  0  0  0  0  0
   20.6248  -20.9478  -15.4998 O   0  0  0  0  0  0  0  0  0  0  0  0
   19.2148  -19.1820  -15.3037 O   0  0  0  0  0  0  0  0  0  0  0  0
  2  1  1  6
  3  2  1  0
  4  3  1  0
  5  4  1  0
  6  5  1  0
  6  7  1  0
  8  9  2  0
  8  2  1  0
 10  8  1  0
 11 10  1  0
 11 12  1  1
 12 13  1  0
 13 17  1  0
 13 14  2  0
 14 15  1  0
 16 15  1  0
 17 16  2  0
 18 20  1  0
 18 11  1  0
 19 18  2  0
 21 22  1  6
 21 20  1  0
 22 23  1  0
 23 31  1  0
 24 23  2  0
 24 25  1  0
 25 26  1  0
 26 27  2  0
 27 28  1  0
 29 28  2  0
 30 29  1  0
 31 30  2  0
 31 26  1  0
 32 21  1  0
 32 34  1  0
 33 32  2  0
M  END
$$$$
