KHW.pdb
     RDKit          3D

 34 36  0  0  1  0  0  0  0  0999 V2000
   22.5009  -10.9734  -20.0541 N   0  0  0  0  0  0  0  0  0  0  0  0
   23.4014   -9.8230  -19.8410 C   0  0  1  0  0  0  0  0  0  0  0  0
   22.8756   -8.6144  -20.5281 C   0  0  0  0  0  0  0  0  0  0  0  0
   21.4203   -8.5413  -20.6782 C   0  0  0  0  0  0  0  0  0  0  0  0
   20.5929   -7.4892  -20.0861 C   0  0  0  0  0  0  0  0  0  0  0  0
   19.1265   -7.4579  -20.3250 C   0  0  0  0  0  0  0  0  0  0  0  0
   18.6439   -6.2651  -19.5667 N   0  0  0  0  0  0  0  0  0  0  0  0
   23.4663   -9.5706  -18.3461 C   0  0  0  0  0  0  0  0  0  0  0  0
   22.4247   -9.7287  -17.6714 O   0  0  0  0  0  0  0  0  0  0  0  0
   24.6576   -9.1656  -17.6952 N   0  0  0  0  0  0  0  0  0  0  0  0
   24.7330   -8.8865  -16.2904 C   0  0  1  0  0  0  0  0  0  0  0  0
   25.8567   -9.6227  -15.6015 C   0  0  0  0  0  0  0  0  0  0  0  0
   25.7004  -11.0949  -15.6230 C   0  0  0  0  0  0  0  0  0  0  0  0
   24.5547  -11.6770  -16.1214 C   0  0  0  0  0  0  0  0  0  0  0  0
   24.7026  -13.0069  -16.0101 N   0  0  0  0  0  0  0  0  0  0  0  0
   25.9029  -13.2499  -15.4595 C   0  0  0  0  0  0  0  0  0  0  0  0
   26.4968  -12.0696  -15.2305 N   0  0  0  0  0  0  0  0  0  0  0  0
   24.7854   -7.4234  -16.0021 C   0  0  0  0  0  0  0  0  0  0  0  0
   25.8446   -6.7599  -16.1080 O   0  0  0  0  0  0  0  0  0  0  0  0
   23.6356   -6.6824  -15.5875 N   0  0  0  0  0  0  0  0  0  0  0  0
   23.5509   -5.2873  -15.3861 C   0  0  1  0  0  0  0  0  0  0  0  0
   23.8793   -4.3901  -16.5158 C   0  0  0  0  0  0  0  0  0  0  0  0
   23.0882   -4.5799  -17.7419 C   0  0  0  0  0  0  0  0  0  0  0  0
   21.7686   -4.9312  -17.9193 C   0  0  0  0  0  0  0  0  0  0  0  0
   21.5052   -4.9862  -19.2470 N   0  0  0  0  0  0  0  0  0  0  0  0
   22.6112   -4.6817  -19.9484 C   0  0  0  0  0  0  0  0  0  0  0  0
   22.9063   -4.5872  -21.2931 C   0  0  0  0  0  0  0  0  0  0  0  0
   24.1627   -4.2457  -21.7624 C   0  0  0  0  0  0  0  0  0  0  0  0
   25.1468   -3.9933  -20.8130 C   0  0  0  0  0  0  0  0  0  0  0  0
   24.8523   -4.0873  -19.4862 C   0  0  0  0  0  0  0  0  0  0  0  0
   23.5972   -4.4288  -19.0137 C   0  0  0  0  0  0  0  0  0  0  0  0
   22.2532   -4.8405  -14.8160 C   0  0  0  0  0  0  0  0  0  0  0  0
   22.1591   -3.6865  -14.3589 O   0  0  0  0  0  0  0  0  0  0  0  0
   21.1800   -5.6860  -14.7923 O   0  0  0  0  0  0  0  0  0  0  0  0
  2  1  1  1
  3  2  1  0
  4  3  1  0
  5  4  1  0
  6  5  1  0
  6  7  1  0
  8  9  2  0
  8  2  1  0
 10  8  1  0
 11 10  1  0
 11 12  1  6
 12 13  1  0
 13 17  1  0
 13 14  2  0
 14 15  1  0
 16 15  1  0
 17 16  2  0
 18 20  1  0
 18 11  1  0
 19 18  2  0
 21 22  1  6
 21 20  1  0
 22 23  1  0
 23 31  1  0
 24 23  2  0
 24 25  1  0
 25 26  1  0
 26 27  2  0
 27 28  1  0
 29 28  2  0
 30 29  1  0
 31 30  2  0
 31 26  1  0
 32 21  1  0
 32 34  1  0
 33 32  2  0
M  END
$$$$
