KHW.pdb
     RDKit          3D

 34 36  0  0  1  0  0  0  0  0999 V2000
   28.5493  -22.8517  -18.3694 N   0  0  0  0  0  0  0  0  0  0  0  0
   29.2090  -23.2552  -17.1117 C   0  0  1  0  0  0  0  0  0  0  0  0
   30.6857  -23.1442  -17.2382 C   0  0  0  0  0  0  0  0  0  0  0  0
   31.3389  -24.1594  -18.0679 C   0  0  0  0  0  0  0  0  0  0  0  0
   31.2217  -25.5996  -17.8350 C   0  0  0  0  0  0  0  0  0  0  0  0
   31.8949  -26.5678  -18.7393 C   0  0  0  0  0  0  0  0  0  0  0  0
   31.5467  -27.9101  -18.1848 N   0  0  0  0  0  0  0  0  0  0  0  0
   28.7197  -22.3176  -16.0235 C   0  0  0  0  0  0  0  0  0  0  0  0
   29.1734  -22.4625  -14.8666 O   0  0  0  0  0  0  0  0  0  0  0  0
   27.7744  -21.2923  -16.2726 N   0  0  0  0  0  0  0  0  0  0  0  0
   27.3086  -20.3867  -15.2628 C   0  0  1  0  0  0  0  0  0  0  0  0
   26.7939  -19.0852  -15.8288 C   0  0  0  0  0  0  0  0  0  0  0  0
   27.8345  -18.2851  -16.5138 C   0  0  0  0  0  0  0  0  0  0  0  0
   29.1166  -18.2152  -16.0125 C   0  0  0  0  0  0  0  0  0  0  0  0
   29.8244  -17.4266  -16.8372 N   0  0  0  0  0  0  0  0  0  0  0  0
   29.0112  -17.0157  -17.8236 C   0  0  0  0  0  0  0  0  0  0  0  0
   27.8006  -17.5506  -17.6082 N   0  0  0  0  0  0  0  0  0  0  0  0
   26.3086  -21.0153  -14.3510 C   0  0  0  0  0  0  0  0  0  0  0  0
   25.3043  -21.6295  -14.7838 O   0  0  0  0  0  0  0  0  0  0  0  0
   26.4282  -20.9601  -12.9277 N   0  0  0  0  0  0  0  0  0  0  0  0
   25.5846  -21.5788  -11.9793 C   0  0  1  0  0  0  0  0  0  0  0  0
   26.1653  -21.9943  -10.6834 C   0  0  0  0  0  0  0  0  0  0  0  0
   26.2127  -20.9614   -9.6364 C   0  0  0  0  0  0  0  0  0  0  0  0
   25.2858  -20.0156   -9.2591 C   0  0  0  0  0  0  0  0  0  0  0  0
   25.7983  -19.2824   -8.2419 N   0  0  0  0  0  0  0  0  0  0  0  0
   27.0339  -19.7171   -7.9384 C   0  0  0  0  0  0  0  0  0  0  0  0
   27.9884  -19.3452   -7.0137 C   0  0  0  0  0  0  0  0  0  0  0  0
   29.2154  -19.9766   -6.9079 C   0  0  0  0  0  0  0  0  0  0  0  0
   29.4655  -21.0263   -7.7850 C   0  0  0  0  0  0  0  0  0  0  0  0
   28.5212  -21.3911   -8.6966 C   0  0  0  0  0  0  0  0  0  0  0  0
   27.2935  -20.7617   -8.8051 C   0  0  0  0  0  0  0  0  0  0  0  0
   24.3410  -20.8167  -11.6942 C   0  0  0  0  0  0  0  0  0  0  0  0
   24.3219  -19.5901  -11.9055 O   0  0  0  0  0  0  0  0  0  0  0  0
   23.2357  -21.4539  -11.2048 O   0  0  0  0  0  0  0  0  0  0  0  0
  2  1  1  6
  3  2  1  0
  4  3  1  0
  5  4  1  0
  6  5  1  0
  6  7  1  0
  8  9  2  0
  8  2  1  0
 10  8  1  0
 11 10  1  0
 11 12  1  6
 12 13  1  0
 13 17  1  0
 13 14  2  0
 14 15  1  0
 16 15  1  0
 17 16  2  0
 18 20  1  0
 18 11  1  0
 19 18  2  0
 21 22  1  1
 21 20  1  0
 22 23  1  0
 23 31  1  0
 24 23  2  0
 24 25  1  0
 25 26  1  0
 26 27  2  0
 27 28  1  0
 29 28  2  0
 30 29  1  0
 31 30  2  0
 31 26  1  0
 32 21  1  0
 32 34  1  0
 33 32  2  0
M  END
$$$$
