KHW.pdb
     RDKit          3D

 34 36  0  0  1  0  0  0  0  0999 V2000
   26.0351  -21.0261  -19.4945 N   0  0  0  0  0  0  0  0  0  0  0  0
   25.2225  -20.4119  -18.4257 C   0  0  1  0  0  0  0  0  0  0  0  0
   23.8042  -20.2901  -18.8533 C   0  0  0  0  0  0  0  0  0  0  0  0
   23.5766  -19.6621  -20.1570 C   0  0  0  0  0  0  0  0  0  0  0  0
   22.2495  -19.4408  -20.7332 C   0  0  0  0  0  0  0  0  0  0  0  0
   22.1000  -18.7543  -22.0427 C   0  0  0  0  0  0  0  0  0  0  0  0
   20.6350  -18.7988  -22.3293 N   0  0  0  0  0  0  0  0  0  0  0  0
   25.3119  -21.3185  -17.2122 C   0  0  0  0  0  0  0  0  0  0  0  0
   24.2559  -21.8202  -16.7668 O   0  0  0  0  0  0  0  0  0  0  0  0
   26.5413  -21.6131  -16.5730 N   0  0  0  0  0  0  0  0  0  0  0  0
   26.6344  -22.3313  -15.3350 C   0  0  1  0  0  0  0  0  0  0  0  0
   27.6463  -23.4508  -15.3764 C   0  0  0  0  0  0  0  0  0  0  0  0
   27.1914  -24.6316  -16.1453 C   0  0  0  0  0  0  0  0  0  0  0  0
   27.7833  -24.9652  -17.3446 C   0  0  0  0  0  0  0  0  0  0  0  0
   27.1665  -26.0673  -17.8004 N   0  0  0  0  0  0  0  0  0  0  0  0
   26.2184  -26.4129  -16.9146 C   0  0  0  0  0  0  0  0  0  0  0  0
   26.2494  -25.5239  -15.9111 N   0  0  0  0  0  0  0  0  0  0  0  0
   26.8696  -21.4297  -14.1696 C   0  0  0  0  0  0  0  0  0  0  0  0
   27.3227  -20.2680  -14.3053 O   0  0  0  0  0  0  0  0  0  0  0  0
   26.5949  -21.8283  -12.8247 N   0  0  0  0  0  0  0  0  0  0  0  0
   26.7324  -21.0415  -11.6602 C   0  0  1  0  0  0  0  0  0  0  0  0
   26.0797  -19.7142  -11.6244 C   0  0  0  0  0  0  0  0  0  0  0  0
   24.6097  -19.7156  -11.6911 C   0  0  0  0  0  0  0  0  0  0  0  0
   23.6628  -19.9841  -10.7281 C   0  0  0  0  0  0  0  0  0  0  0  0
   22.4314  -19.8623  -11.2793 N   0  0  0  0  0  0  0  0  0  0  0  0
   22.5394  -19.5218  -12.5756 C   0  0  0  0  0  0  0  0  0  0  0  0
   21.6343  -19.2741  -13.5874 C   0  0  0  0  0  0  0  0  0  0  0  0
   22.0210  -18.9322  -14.8716 C   0  0  0  0  0  0  0  0  0  0  0  0
   23.3863  -18.8429  -15.1196 C   0  0  0  0  0  0  0  0  0  0  0  0
   24.2772  -19.0879  -14.1186 C   0  0  0  0  0  0  0  0  0  0  0  0
   23.8939  -19.4301  -12.8336 C   0  0  0  0  0  0  0  0  0  0  0  0
   26.3740  -21.7557  -10.4071 C   0  0  0  0  0  0  0  0  0  0  0  0
   25.9233  -22.9138  -10.4791 O   0  0  0  0  0  0  0  0  0  0  0  0
   26.5353  -21.1480   -9.1939 O   0  0  0  0  0  0  0  0  0  0  0  0
  2  1  1  6
  3  2  1  0
  4  3  1  0
  5  4  1  0
  6  5  1  0
  6  7  1  0
  8  9  2  0
  8  2  1  0
 10  8  1  0
 11 10  1  0
 11 12  1  6
 12 13  1  0
 13 17  1  0
 13 14  2  0
 14 15  1  0
 16 15  1  0
 17 16  2  0
 18 20  1  0
 18 11  1  0
 19 18  2  0
 21 22  1  6
 21 20  1  0
 22 23  1  0
 23 31  1  0
 24 23  2  0
 24 25  1  0
 25 26  1  0
 26 27  2  0
 27 28  1  0
 29 28  2  0
 30 29  1  0
 31 30  2  0
 31 26  1  0
 32 21  1  0
 32 34  1  0
 33 32  2  0
M  END
$$$$
