KHW.pdb
     RDKit          3D

 34 36  0  0  1  0  0  0  0  0999 V2000
   25.8506  -24.6747  -18.5986 N   0  0  0  0  0  0  0  0  0  0  0  0
   26.2694  -25.3092  -17.3330 C   0  0  1  0  0  0  0  0  0  0  0  0
   27.5157  -26.0947  -17.5304 C   0  0  0  0  0  0  0  0  0  0  0  0
   28.2449  -25.8427  -18.7756 C   0  0  0  0  0  0  0  0  0  0  0  0
   28.9646  -24.6004  -19.0602 C   0  0  0  0  0  0  0  0  0  0  0  0
   28.6477  -23.8058  -20.2753 C   0  0  0  0  0  0  0  0  0  0  0  0
   29.4663  -22.5640  -20.1407 N   0  0  0  0  0  0  0  0  0  0  0  0
   26.5220  -24.1974  -16.3317 C   0  0  0  0  0  0  0  0  0  0  0  0
   26.7821  -24.5112  -15.1489 O   0  0  0  0  0  0  0  0  0  0  0  0
   26.4739  -22.8275  -16.6895 N   0  0  0  0  0  0  0  0  0  0  0  0
   26.7806  -21.7631  -15.7785 C   0  0  1  0  0  0  0  0  0  0  0  0
   26.9721  -20.4333  -16.4669 C   0  0  0  0  0  0  0  0  0  0  0  0
   27.1633  -19.3035  -15.5292 C   0  0  0  0  0  0  0  0  0  0  0  0
   26.2412  -18.2815  -15.4564 C   0  0  0  0  0  0  0  0  0  0  0  0
   26.6800  -17.4143  -14.5299 N   0  0  0  0  0  0  0  0  0  0  0  0
   27.8401  -17.8785  -14.0383 C   0  0  0  0  0  0  0  0  0  0  0  0
   28.1182  -19.0330  -14.6612 N   0  0  0  0  0  0  0  0  0  0  0  0
   25.7902  -21.6613  -14.6670 C   0  0  0  0  0  0  0  0  0  0  0  0
   24.5656  -21.4903  -14.8778 O   0  0  0  0  0  0  0  0  0  0  0  0
   26.1696  -21.7519  -13.2919 N   0  0  0  0  0  0  0  0  0  0  0  0
   25.3086  -21.7851  -12.1732 C   0  0  1  0  0  0  0  0  0  0  0  0
   25.8524  -22.2496  -10.8779 C   0  0  0  0  0  0  0  0  0  0  0  0
   26.2803  -21.1971   -9.9427 C   0  0  0  0  0  0  0  0  0  0  0  0
   25.5657  -20.1991   -9.3188 C   0  0  0  0  0  0  0  0  0  0  0  0
   26.4112  -19.4692   -8.5524 N   0  0  0  0  0  0  0  0  0  0  0  0
   27.6603  -19.9567   -8.6530 C   0  0  0  0  0  0  0  0  0  0  0  0
   28.8787  -19.6112   -8.1050 C   0  0  0  0  0  0  0  0  0  0  0  0
   30.0472  -20.2992   -8.3822 C   0  0  0  0  0  0  0  0  0  0  0  0
   29.9552  -21.3791   -9.2534 C   0  0  0  0  0  0  0  0  0  0  0  0
   28.7509  -21.7177   -9.7926 C   0  0  0  0  0  0  0  0  0  0  0  0
   27.5808  -21.0318   -9.5177 C   0  0  0  0  0  0  0  0  0  0  0  0
   24.5904  -20.5069  -11.9300 C   0  0  0  0  0  0  0  0  0  0  0  0
   25.0845  -19.4459  -12.3537 O   0  0  0  0  0  0  0  0  0  0  0  0
   23.4058  -20.4974  -11.2489 O   0  0  0  0  0  0  0  0  0  0  0  0
  2  1  1  6
  3  2  1  0
  4  3  1  0
  5  4  1  0
  6  5  1  0
  6  7  1  0
  8  9  2  0
  8  2  1  0
 10  8  1  0
 11 10  1  0
 11 12  1  6
 12 13  1  0
 13 17  1  0
 13 14  2  0
 14 15  1  0
 16 15  1  0
 17 16  2  0
 18 20  1  0
 18 11  1  0
 19 18  2  0
 21 22  1  1
 21 20  1  0
 22 23  1  0
 23 31  1  0
 24 23  2  0
 24 25  1  0
 25 26  1  0
 26 27  2  0
 27 28  1  0
 29 28  2  0
 30 29  1  0
 31 30  2  0
 31 26  1  0
 32 21  1  0
 32 34  1  0
 33 32  2  0
M  END
$$$$
