KHW.pdb
     RDKit          3D

 34 36  0  0  1  0  0  0  0  0999 V2000
   27.3231  -21.4592  -16.1858 N   0  0  0  0  0  0  0  0  0  0  0  0
   28.0893  -20.3834  -15.5260 C   0  0  1  0  0  0  0  0  0  0  0  0
   28.1392  -19.1739  -16.3885 C   0  0  0  0  0  0  0  0  0  0  0  0
   28.2381  -19.4149  -17.8301 C   0  0  0  0  0  0  0  0  0  0  0  0
   29.4776  -19.2742  -18.5956 C   0  0  0  0  0  0  0  0  0  0  0  0
   29.4738  -19.4302  -20.0735 C   0  0  0  0  0  0  0  0  0  0  0  0
   30.9141  -19.3733  -20.4646 N   0  0  0  0  0  0  0  0  0  0  0  0
   27.3778  -20.0529  -14.2271 C   0  0  0  0  0  0  0  0  0  0  0  0
   27.7818  -19.0739  -13.5612 O   0  0  0  0  0  0  0  0  0  0  0  0
   26.2803  -20.8098  -13.7483 N   0  0  0  0  0  0  0  0  0  0  0  0
   25.5594  -20.4840  -12.5519 C   0  0  1  0  0  0  0  0  0  0  0  0
   24.0668  -20.6583  -12.6959 C   0  0  0  0  0  0  0  0  0  0  0  0
   23.4737  -19.8228  -13.7648 C   0  0  0  0  0  0  0  0  0  0  0  0
   23.2501  -18.4770  -13.5680 C   0  0  0  0  0  0  0  0  0  0  0  0
   22.7114  -17.9931  -14.6987 N   0  0  0  0  0  0  0  0  0  0  0  0
   22.6011  -19.0039  -15.5757 C   0  0  0  0  0  0  0  0  0  0  0  0
   23.0719  -20.1127  -14.9866 N   0  0  0  0  0  0  0  0  0  0  0  0
   26.0784  -21.2125  -11.3576 C   0  0  0  0  0  0  0  0  0  0  0  0
   27.0826  -21.9617  -11.4173 O   0  0  0  0  0  0  0  0  0  0  0  0
   25.4679  -21.1055  -10.0697 N   0  0  0  0  0  0  0  0  0  0  0  0
   25.9374  -21.6583   -8.8581 C   0  0  1  0  0  0  0  0  0  0  0  0
   27.3260  -21.3649   -8.4400 C   0  0  0  0  0  0  0  0  0  0  0  0
   27.5096  -20.1660   -7.6067 C   0  0  0  0  0  0  0  0  0  0  0  0
   26.9880  -18.8971   -7.7237 C   0  0  0  0  0  0  0  0  0  0  0  0
   27.4622  -18.1340   -6.7098 N   0  0  0  0  0  0  0  0  0  0  0  0
   28.2798  -18.8623   -5.9294 C   0  0  0  0  0  0  0  0  0  0  0  0
   29.0161  -18.5998   -4.7922 C   0  0  0  0  0  0  0  0  0  0  0  0
   29.7986  -19.5561   -4.1688 C   0  0  0  0  0  0  0  0  0  0  0  0
   29.8219  -20.8249   -4.7375 C   0  0  0  0  0  0  0  0  0  0  0  0
   29.0938  -21.0808   -5.8601 C   0  0  0  0  0  0  0  0  0  0  0  0
   28.3106  -20.1269   -6.4859 C   0  0  0  0  0  0  0  0  0  0  0  0
   25.0500  -21.3968   -7.6949 C   0  0  0  0  0  0  0  0  0  0  0  0
   24.0781  -20.6320   -7.8361 O   0  0  0  0  0  0  0  0  0  0  0  0
   25.2997  -21.9862   -6.4877 O   0  0  0  0  0  0  0  0  0  0  0  0
  2  1  1  6
  3  2  1  0
  4  3  1  0
  5  4  1  0
  6  5  1  0
  6  7  1  0
  8  9  2  0
  8  2  1  0
 10  8  1  0
 11 10  1  0
 11 12  1  6
 12 13  1  0
 13 17  1  0
 13 14  2  0
 14 15  1  0
 16 15  1  0
 17 16  2  0
 18 20  1  0
 18 11  1  0
 19 18  2  0
 21 22  1  1
 21 20  1  0
 22 23  1  0
 23 31  1  0
 24 23  2  0
 24 25  1  0
 25 26  1  0
 26 27  2  0
 27 28  1  0
 29 28  2  0
 30 29  1  0
 31 30  2  0
 31 26  1  0
 32 21  1  0
 32 34  1  0
 33 32  2  0
M  END
$$$$
