KHW.pdb
     RDKit          3D

 34 36  0  0  1  0  0  0  0  0999 V2000
   28.4645  -26.5768  -16.8930 N   0  0  0  0  0  0  0  0  0  0  0  0
   28.3106  -27.8061  -17.6960 C   0  0  1  0  0  0  0  0  0  0  0  0
   29.5202  -28.6617  -17.5773 C   0  0  0  0  0  0  0  0  0  0  0  0
   30.6143  -28.3619  -18.5040 C   0  0  0  0  0  0  0  0  0  0  0  0
   31.7915  -29.2143  -18.6765 C   0  0  0  0  0  0  0  0  0  0  0  0
   32.8597  -28.8404  -19.6396 C   0  0  0  0  0  0  0  0  0  0  0  0
   33.9076  -29.8910  -19.4706 N   0  0  0  0  0  0  0  0  0  0  0  0
   27.1049  -28.5518  -17.1547 C   0  0  0  0  0  0  0  0  0  0  0  0
   26.7126  -28.2854  -15.9970 O   0  0  0  0  0  0  0  0  0  0  0  0
   26.4148  -29.5308  -17.9111 N   0  0  0  0  0  0  0  0  0  0  0  0
   25.2076  -30.1646  -17.4663 C   0  0  1  0  0  0  0  0  0  0  0  0
   23.9969  -29.7606  -18.2726 C   0  0  0  0  0  0  0  0  0  0  0  0
   22.7156  -30.2092  -17.6815 C   0  0  0  0  0  0  0  0  0  0  0  0
   22.6888  -30.8794  -16.4773 C   0  0  0  0  0  0  0  0  0  0  0  0
   21.4034  -31.1532  -16.2022 N   0  0  0  0  0  0  0  0  0  0  0  0
   20.6492  -30.6699  -17.2025 C   0  0  0  0  0  0  0  0  0  0  0  0
   21.4690  -30.0971  -18.0960 N   0  0  0  0  0  0  0  0  0  0  0  0
   25.3382  -31.6491  -17.3897 C   0  0  0  0  0  0  0  0  0  0  0  0
   24.9251  -32.4033  -18.3028 O   0  0  0  0  0  0  0  0  0  0  0  0
   25.9411  -32.3087  -16.2742 N   0  0  0  0  0  0  0  0  0  0  0  0
   25.2775  -32.9181  -15.1870 C   0  0  1  0  0  0  0  0  0  0  0  0
   24.7124  -32.0511  -14.1296 C   0  0  0  0  0  0  0  0  0  0  0  0
   25.2118  -32.2873  -12.7657 C   0  0  0  0  0  0  0  0  0  0  0  0
   26.4250  -32.7602  -12.3180 C   0  0  0  0  0  0  0  0  0  0  0  0
   26.4032  -32.8088  -10.9644 N   0  0  0  0  0  0  0  0  0  0  0  0
   25.2125  -32.3822  -10.5080 C   0  0  0  0  0  0  0  0  0  0  0  0
   24.6583  -32.2276   -9.2537 C   0  0  0  0  0  0  0  0  0  0  0  0
   23.3727  -31.7552   -9.0555 C   0  0  0  0  0  0  0  0  0  0  0  0
   22.6348  -31.4315  -10.1888 C   0  0  0  0  0  0  0  0  0  0  0  0
   23.1848  -31.5851  -11.4257 C   0  0  0  0  0  0  0  0  0  0  0  0
   24.4699  -32.0574  -11.6272 C   0  0  0  0  0  0  0  0  0  0  0  0
   24.2226  -33.8836  -15.5919 C   0  0  0  0  0  0  0  0  0  0  0  0
   24.5200  -35.0857  -15.7187 O   0  0  0  0  0  0  0  0  0  0  0  0
   22.9456  -33.4564  -15.8237 O   0  0  0  0  0  0  0  0  0  0  0  0
  2  1  1  1
  3  2  1  0
  4  3  1  0
  5  4  1  0
  6  5  1  0
  6  7  1  0
  8  9  2  0
  8  2  1  0
 10  8  1  0
 11 10  1  0
 11 12  1  6
 12 13  1  0
 13 17  1  0
 13 14  2  0
 14 15  1  0
 16 15  1  0
 17 16  2  0
 18 20  1  0
 18 11  1  0
 19 18  2  0
 21 22  1  1
 21 20  1  0
 22 23  1  0
 23 31  1  0
 24 23  2  0
 24 25  1  0
 25 26  1  0
 26 27  2  0
 27 28  1  0
 29 28  2  0
 30 29  1  0
 31 30  2  0
 31 26  1  0
 32 21  1  0
 32 34  1  0
 33 32  2  0
M  END
$$$$
