KHW.pdb
     RDKit          3D

 34 36  0  0  1  0  0  0  0  0999 V2000
   28.1706  -30.1218  -16.5654 N   0  0  0  0  0  0  0  0  0  0  0  0
   27.5920  -29.1787  -17.5429 C   0  0  1  0  0  0  0  0  0  0  0  0
   26.3983  -29.7739  -18.1987 C   0  0  0  0  0  0  0  0  0  0  0  0
   26.6650  -30.7659  -19.2430 C   0  0  0  0  0  0  0  0  0  0  0  0
   27.0585  -30.4225  -20.6103 C   0  0  0  0  0  0  0  0  0  0  0  0
   27.2189  -31.4834  -21.6385 C   0  0  0  0  0  0  0  0  0  0  0  0
   27.7183  -30.7657  -22.8493 N   0  0  0  0  0  0  0  0  0  0  0  0
   27.1848  -27.9311  -16.7811 C   0  0  0  0  0  0  0  0  0  0  0  0
   26.7178  -28.0653  -15.6282 O   0  0  0  0  0  0  0  0  0  0  0  0
   27.3155  -26.6308  -17.3277 N   0  0  0  0  0  0  0  0  0  0  0  0
   26.8804  -25.4434  -16.6511 C   0  0  1  0  0  0  0  0  0  0  0  0
   27.8809  -24.3159  -16.7344 C   0  0  0  0  0  0  0  0  0  0  0  0
   29.2163  -24.6692  -16.2014 C   0  0  0  0  0  0  0  0  0  0  0  0
   29.4671  -25.9287  -15.7005 C   0  0  0  0  0  0  0  0  0  0  0  0
   30.7473  -25.9491  -15.2963 N   0  0  0  0  0  0  0  0  0  0  0  0
   31.2813  -24.7407  -15.5364 C   0  0  0  0  0  0  0  0  0  0  0  0
   30.3306  -23.9733  -16.0892 N   0  0  0  0  0  0  0  0  0  0  0  0
   25.5254  -25.0005  -17.0919 C   0  0  0  0  0  0  0  0  0  0  0  0
   25.2651  -24.7423  -18.2914 O   0  0  0  0  0  0  0  0  0  0  0  0
   24.4366  -24.8416  -16.1795 N   0  0  0  0  0  0  0  0  0  0  0  0
   23.0968  -24.5323  -16.5008 C   0  0  1  0  0  0  0  0  0  0  0  0
   22.0323  -25.4573  -16.0534 C   0  0  0  0  0  0  0  0  0  0  0  0
   21.6298  -25.3443  -14.6425 C   0  0  0  0  0  0  0  0  0  0  0  0
   21.2890  -24.2451  -13.8865 C   0  0  0  0  0  0  0  0  0  0  0  0
   20.9999  -24.6527  -12.6274 N   0  0  0  0  0  0  0  0  0  0  0  0
   21.1400  -25.9865  -12.5321 C   0  0  0  0  0  0  0  0  0  0  0  0
   20.9796  -26.9040  -11.5138 C   0  0  0  0  0  0  0  0  0  0  0  0
   21.1953  -28.2601  -11.6862 C   0  0  0  0  0  0  0  0  0  0  0  0
   21.5893  -28.6834  -12.9508 C   0  0  0  0  0  0  0  0  0  0  0  0
   21.7467  -27.7752  -13.9539 C   0  0  0  0  0  0  0  0  0  0  0  0
   21.5320  -26.4186  -13.7848 C   0  0  0  0  0  0  0  0  0  0  0  0
   22.6899  -23.1552  -16.1175 C   0  0  0  0  0  0  0  0  0  0  0  0
   21.5760  -22.7319  -16.4774 O   0  0  0  0  0  0  0  0  0  0  0  0
   23.5282  -22.3651  -15.3826 O   0  0  0  0  0  0  0  0  0  0  0  0
  2  1  1  1
  3  2  1  0
  4  3  1  0
  5  4  1  0
  6  5  1  0
  6  7  1  0
  8  9  2  0
  8  2  1  0
 10  8  1  0
 11 10  1  0
 11 12  1  6
 12 13  1  0
 13 17  1  0
 13 14  2  0
 14 15  1  0
 16 15  1  0
 17 16  2  0
 18 20  1  0
 18 11  1  0
 19 18  2  0
 21 22  1  1
 21 20  1  0
 22 23  1  0
 23 31  1  0
 24 23  2  0
 24 25  1  0
 25 26  1  0
 26 27  2  0
 27 28  1  0
 29 28  2  0
 30 29  1  0
 31 30  2  0
 31 26  1  0
 32 21  1  0
 32 34  1  0
 33 32  2  0
M  END
$$$$
