HHN.pdb
     RDKit          3D

 29 30  0  0  1  0  0  0  0  0999 V2000
    7.8339  -15.7624   17.3951 N   0  0  0  0  0  0  0  0  0  0  0  0
    8.8428  -14.8204   17.7708 C   0  0  1  0  0  0  0  0  0  0  0  0
    8.6200  -13.4836   17.0487 C   0  0  0  0  0  0  0  0  0  0  0  0
    8.4496  -13.6784   15.6022 C   0  0  0  0  0  0  0  0  0  0  0  0
    7.2494  -13.5901   14.9318 C   0  0  0  0  0  0  0  0  0  0  0  0
    7.4780  -13.8295   13.6089 N   0  0  0  0  0  0  0  0  0  0  0  0
    8.8089  -14.0639   13.4628 C   0  0  0  0  0  0  0  0  0  0  0  0
    9.3767  -13.9688   14.6722 N   0  0  0  0  0  0  0  0  0  0  0  0
    8.8709  -14.5440   19.2233 C   0  0  0  0  0  0  0  0  0  0  0  0
    9.7479  -13.7893   19.6825 O   0  0  0  0  0  0  0  0  0  0  0  0
    7.9529  -15.0863   20.1561 N   0  0  0  0  0  0  0  0  0  0  0  0
    8.0239  -14.9022   21.5553 C   0  0  1  0  0  0  0  0  0  0  0  0
    6.7317  -14.8174   22.2936 C   0  0  0  0  0  0  0  0  0  0  0  0
    6.9577  -14.4189   23.7106 C   0  0  0  0  0  0  0  0  0  0  0  0
    7.1615  -13.1558   24.2312 C   0  0  0  0  0  0  0  0  0  0  0  0
    7.3276  -13.2173   25.5695 N   0  0  0  0  0  0  0  0  0  0  0  0
    7.2292  -14.5168   25.8958 C   0  0  0  0  0  0  0  0  0  0  0  0
    7.0081  -15.2473   24.7946 N   0  0  0  0  0  0  0  0  0  0  0  0
    8.8944  -15.9539   22.1509 C   0  0  0  0  0  0  0  0  0  0  0  0
    8.7148  -17.1700   21.8866 O   0  0  0  0  0  0  0  0  0  0  0  0
   14.1063  -16.4176   25.1044 N   0  0  0  0  0  0  0  0  0  0  0  0
   13.2541  -17.0044   24.1027 C   0  0  0  0  0  0  0  0  0  0  0  0
   13.4153  -18.1762   23.7373 O   0  0  0  0  0  0  0  0  0  0  0  0
   12.2063  -16.1412   23.5568 C   0  0  0  0  0  0  0  0  0  0  0  0
   10.8036  -16.6486   23.6669 C   0  0  2  0  0  0  0  0  0  0  0  0
    9.9552  -15.6224   23.0360 N   0  0  0  0  0  0  0  0  0  0  0  0
   10.3404  -16.9641   25.0152 C   0  0  0  0  0  0  0  0  0  0  0  0
    9.8370  -16.1122   25.7809 O   0  0  0  0  0  0  0  0  0  0  0  0
   10.4807  -18.3046   25.4474 O   0  0  0  0  0  0  0  0  0  0  0  0
  2  3  1  0
  2  1  1  1
  4  8  1  0
  4  3  1  0
  5  4  2  0
  6  5  1  0
  6  7  1  0
  7  8  2  0
  9  2  1  0
 10  9  2  0
 11  9  1  0
 12 11  1  0
 13 14  1  0
 12 13  1  1
 14 15  2  0
 15 16  1  0
 17 16  1  0
 18 14  1  0
 18 17  2  0
 19 12  1  0
 19 26  1  0
 20 19  2  0
 22 21  1  0
 23 22  2  0
 24 22  1  0
 25 24  1  1
 25 27  1  0
 25 26  1  0
 27 29  1  0
 28 27  2  0
M  END
$$$$
