HHN.pdb
     RDKit          3D

 29 30  0  0  1  0  0  0  0  0999 V2000
   13.8159  -14.0391   17.4678 N   0  0  0  0  0  0  0  0  0  0  0  0
   12.8185  -14.9414   17.9548 C   0  0  1  0  0  0  0  0  0  0  0  0
   13.4404  -16.3130   18.2545 C   0  0  0  0  0  0  0  0  0  0  0  0
   13.2911  -17.2289   17.1151 C   0  0  0  0  0  0  0  0  0  0  0  0
   12.6564  -16.9177   15.9327 C   0  0  0  0  0  0  0  0  0  0  0  0
   12.7137  -18.0075   15.1149 N   0  0  0  0  0  0  0  0  0  0  0  0
   13.3785  -18.9845   15.7865 C   0  0  0  0  0  0  0  0  0  0  0  0
   13.7179  -18.4979   16.9874 N   0  0  0  0  0  0  0  0  0  0  0  0
   12.1596  -14.4699   19.1920 C   0  0  0  0  0  0  0  0  0  0  0  0
   12.7635  -13.6792   19.9400 O   0  0  0  0  0  0  0  0  0  0  0  0
   10.8605  -14.8592   19.6016 N   0  0  0  0  0  0  0  0  0  0  0  0
   10.2385  -14.4488   20.8022 C   0  0  1  0  0  0  0  0  0  0  0  0
    8.7545  -14.3086   20.7823 C   0  0  0  0  0  0  0  0  0  0  0  0
    8.2913  -13.7775   19.4703 C   0  0  0  0  0  0  0  0  0  0  0  0
    7.9510  -12.4817   19.1340 C   0  0  0  0  0  0  0  0  0  0  0  0
    7.5804  -12.4117   17.8378 N   0  0  0  0  0  0  0  0  0  0  0  0
    7.6858  -13.6607   17.3542 C   0  0  0  0  0  0  0  0  0  0  0  0
    8.1098  -14.4882   18.3189 N   0  0  0  0  0  0  0  0  0  0  0  0
   10.6604  -15.3477   21.9124 C   0  0  0  0  0  0  0  0  0  0  0  0
   10.1576  -15.2403   23.0598 O   0  0  0  0  0  0  0  0  0  0  0  0
   11.4219  -19.4859   20.0346 N   0  0  0  0  0  0  0  0  0  0  0  0
   11.1736  -19.1503   21.4130 C   0  0  0  0  0  0  0  0  0  0  0  0
   10.0606  -19.3359   21.9224 O   0  0  0  0  0  0  0  0  0  0  0  0
   12.3012  -18.5870   22.1560 C   0  0  0  0  0  0  0  0  0  0  0  0
   12.0741  -17.2558   22.7992 C   0  0  2  0  0  0  0  0  0  0  0  0
   11.6426  -16.3552   21.7158 N   0  0  0  0  0  0  0  0  0  0  0  0
   13.2060  -16.6977   23.5336 C   0  0  0  0  0  0  0  0  0  0  0  0
   13.9699  -15.8304   23.0544 O   0  0  0  0  0  0  0  0  0  0  0  0
   13.4232  -17.1802   24.8464 O   0  0  0  0  0  0  0  0  0  0  0  0
  2  3  1  0
  2  1  1  1
  4  8  1  0
  4  3  1  0
  5  4  2  0
  6  5  1  0
  6  7  1  0
  7  8  2  0
  9  2  1  0
 10  9  2  0
 11  9  1  0
 12 11  1  0
 13 14  1  0
 12 13  1  6
 14 15  2  0
 15 16  1  0
 17 16  1  0
 18 14  1  0
 18 17  2  0
 19 12  1  0
 19 26  1  0
 20 19  2  0
 22 21  1  0
 23 22  2  0
 24 22  1  0
 25 24  1  6
 25 27  1  0
 25 26  1  0
 27 29  1  0
 28 27  2  0
M  END
$$$$
