HHN.pdb
     RDKit          3D

 29 30  0  0  1  0  0  0  0  0999 V2000
   10.5904  -14.5540   15.6472 N   0  0  0  0  0  0  0  0  0  0  0  0
   10.6411  -15.6819   16.5256 C   0  0  1  0  0  0  0  0  0  0  0  0
   11.8789  -16.5388   16.2227 C   0  0  0  0  0  0  0  0  0  0  0  0
   11.7800  -17.1736   14.9010 C   0  0  0  0  0  0  0  0  0  0  0  0
   10.6910  -17.0808   14.0625 C   0  0  0  0  0  0  0  0  0  0  0  0
   10.9582  -17.7940   12.9313 N   0  0  0  0  0  0  0  0  0  0  0  0
   12.2025  -18.3234   13.0696 C   0  0  0  0  0  0  0  0  0  0  0  0
   12.6809  -17.9395   14.2604 N   0  0  0  0  0  0  0  0  0  0  0  0
   10.6971  -15.3061   17.9548 C   0  0  0  0  0  0  0  0  0  0  0  0
   11.4892  -14.4181   18.3202 O   0  0  0  0  0  0  0  0  0  0  0  0
    9.8978  -15.8943   18.9658 N   0  0  0  0  0  0  0  0  0  0  0  0
    9.9409  -15.5408   20.3333 C   0  0  1  0  0  0  0  0  0  0  0  0
    8.6362  -15.4328   21.0462 C   0  0  0  0  0  0  0  0  0  0  0  0
    7.8026  -14.3462   20.4611 C   0  0  0  0  0  0  0  0  0  0  0  0
    8.1372  -13.4335   19.4797 C   0  0  0  0  0  0  0  0  0  0  0  0
    7.0988  -12.6087   19.2275 N   0  0  0  0  0  0  0  0  0  0  0  0
    6.1085  -12.9982   20.0475 C   0  0  0  0  0  0  0  0  0  0  0  0
    6.5147  -14.0361   20.7910 N   0  0  0  0  0  0  0  0  0  0  0  0
   10.8532  -16.4691   21.0575 C   0  0  0  0  0  0  0  0  0  0  0  0
   11.1867  -17.5727   20.5556 O   0  0  0  0  0  0  0  0  0  0  0  0
   15.6638  -17.8720   22.7013 N   0  0  0  0  0  0  0  0  0  0  0  0
   14.7326  -17.2088   23.5772 C   0  0  0  0  0  0  0  0  0  0  0  0
   14.8614  -17.2706   24.8069 O   0  0  0  0  0  0  0  0  0  0  0  0
   13.6465  -16.4722   22.9302 C   0  0  0  0  0  0  0  0  0  0  0  0
   12.2742  -17.0494   23.0748 C   0  0  2  0  0  0  0  0  0  0  0  0
   11.3777  -16.1425   22.3369 N   0  0  0  0  0  0  0  0  0  0  0  0
   11.8081  -17.2586   24.4427 C   0  0  0  0  0  0  0  0  0  0  0  0
   11.1843  -16.3897   25.0918 O   0  0  0  0  0  0  0  0  0  0  0  0
   12.0903  -18.5129   25.0347 O   0  0  0  0  0  0  0  0  0  0  0  0
  2  3  1  0
  2  1  1  6
  4  8  1  0
  4  3  1  0
  5  4  2  0
  6  5  1  0
  6  7  1  0
  7  8  2  0
  9  2  1  0
 10  9  2  0
 11  9  1  0
 12 11  1  0
 13 14  1  0
 12 13  1  1
 14 15  2  0
 15 16  1  0
 17 16  1  0
 18 14  1  0
 18 17  2  0
 19 12  1  0
 19 26  1  0
 20 19  2  0
 22 21  1  0
 23 22  2  0
 24 22  1  0
 25 24  1  1
 25 27  1  0
 25 26  1  0
 27 29  1  0
 28 27  2  0
M  END
$$$$
