HHN.pdb
     RDKit          3D

 29 30  0  0  1  0  0  0  0  0999 V2000
   10.2577  -15.6095   14.6116 N   0  0  0  0  0  0  0  0  0  0  0  0
   10.9408  -16.3376   15.6360 C   0  0  1  0  0  0  0  0  0  0  0  0
   12.2772  -16.8775   15.1060 C   0  0  0  0  0  0  0  0  0  0  0  0
   12.0708  -17.8400   14.0149 C   0  0  0  0  0  0  0  0  0  0  0  0
   12.1960  -19.2065   14.1362 C   0  0  0  0  0  0  0  0  0  0  0  0
   11.9315  -19.7712   12.9235 N   0  0  0  0  0  0  0  0  0  0  0  0
   11.6450  -18.7617   12.0595 C   0  0  0  0  0  0  0  0  0  0  0  0
   11.7338  -17.6078   12.7338 N   0  0  0  0  0  0  0  0  0  0  0  0
   11.2324  -15.5229   16.8352 C   0  0  0  0  0  0  0  0  0  0  0  0
   12.0588  -14.5956   16.7550 O   0  0  0  0  0  0  0  0  0  0  0  0
   10.6278  -15.7222   18.1008 N   0  0  0  0  0  0  0  0  0  0  0  0
   10.9817  -15.0285   19.2799 C   0  0  1  0  0  0  0  0  0  0  0  0
    9.8975  -14.7851   20.2737 C   0  0  0  0  0  0  0  0  0  0  0  0
    8.7444  -14.0894   19.6379 C   0  0  0  0  0  0  0  0  0  0  0  0
    8.3604  -12.7678   19.7562 C   0  0  0  0  0  0  0  0  0  0  0  0
    7.2559  -12.5287   19.0178 N   0  0  0  0  0  0  0  0  0  0  0  0
    6.9410  -13.6965   18.4331 C   0  0  0  0  0  0  0  0  0  0  0  0
    7.8221  -14.6389   18.7946 N   0  0  0  0  0  0  0  0  0  0  0  0
   12.1373  -15.7087   19.9283 C   0  0  0  0  0  0  0  0  0  0  0  0
   12.1995  -16.9630   19.9902 O   0  0  0  0  0  0  0  0  0  0  0  0
   15.7373  -13.3251   18.7865 N   0  0  0  0  0  0  0  0  0  0  0  0
   15.8655  -14.6424   19.3541 C   0  0  0  0  0  0  0  0  0  0  0  0
   16.2237  -15.6024   18.6594 O   0  0  0  0  0  0  0  0  0  0  0  0
   15.5505  -14.7681   20.7774 C   0  0  0  0  0  0  0  0  0  0  0  0
   14.3708  -15.6200   21.1238 C   0  0  2  0  0  0  0  0  0  0  0  0
   13.2074  -14.9677   20.4981 N   0  0  0  0  0  0  0  0  0  0  0  0
   14.1455  -15.8540   22.5474 C   0  0  0  0  0  0  0  0  0  0  0  0
   13.1207  -15.4634   23.1497 O   0  0  0  0  0  0  0  0  0  0  0  0
   15.1513  -16.5582   23.2517 O   0  0  0  0  0  0  0  0  0  0  0  0
  2  3  1  0
  2  1  1  6
  4  8  1  0
  4  3  1  0
  5  4  2  0
  6  5  1  0
  6  7  1  0
  7  8  2  0
  9  2  1  0
 10  9  2  0
 11  9  1  0
 12 11  1  0
 13 14  1  0
 12 13  1  1
 14 15  2  0
 15 16  1  0
 17 16  1  0
 18 14  1  0
 18 17  2  0
 19 12  1  0
 19 26  1  0
 20 19  2  0
 22 21  1  0
 23 22  2  0
 24 22  1  0
 25 24  1  1
 25 27  1  0
 25 26  1  0
 27 29  1  0
 28 27  2  0
M  END
$$$$
