HHN.pdb
     RDKit          3D

 29 30  0  0  1  0  0  0  0  0999 V2000
   12.0344  -16.7573   20.1789 N   0  0  0  0  0  0  0  0  0  0  0  0
   12.0142  -15.3682   20.5201 C   0  0  1  0  0  0  0  0  0  0  0  0
   11.7523  -14.5155   19.2702 C   0  0  0  0  0  0  0  0  0  0  0  0
   12.4711  -15.0430   18.1020 C   0  0  0  0  0  0  0  0  0  0  0  0
   13.8131  -14.8566   17.8532 C   0  0  0  0  0  0  0  0  0  0  0  0
   14.1246  -15.4868   16.6847 N   0  0  0  0  0  0  0  0  0  0  0  0
   12.9842  -16.0581   16.2150 C   0  0  0  0  0  0  0  0  0  0  0  0
   12.0004  -15.7805   17.0807 N   0  0  0  0  0  0  0  0  0  0  0  0
   10.9775  -15.0278   21.5183 C   0  0  0  0  0  0  0  0  0  0  0  0
   10.8440  -13.8435   21.8776 O   0  0  0  0  0  0  0  0  0  0  0  0
   10.1023  -15.9703   22.1121 N   0  0  0  0  0  0  0  0  0  0  0  0
    9.2258  -15.6903   23.1845 C   0  0  1  0  0  0  0  0  0  0  0  0
    7.9102  -16.3913   23.1844 C   0  0  0  0  0  0  0  0  0  0  0  0
    7.1191  -16.0303   21.9753 C   0  0  0  0  0  0  0  0  0  0  0  0
    6.6699  -14.7865   21.5761 C   0  0  0  0  0  0  0  0  0  0  0  0
    5.9851  -14.8811   20.4166 N   0  0  0  0  0  0  0  0  0  0  0  0
    6.0005  -16.1821   20.0823 C   0  0  0  0  0  0  0  0  0  0  0  0
    6.6749  -16.8815   21.0049 N   0  0  0  0  0  0  0  0  0  0  0  0
    9.9336  -15.9145   24.4757 C   0  0  0  0  0  0  0  0  0  0  0  0
   10.8986  -16.7166   24.5550 O   0  0  0  0  0  0  0  0  0  0  0  0
   11.1844  -15.4571   29.5415 N   0  0  0  0  0  0  0  0  0  0  0  0
   10.2925  -14.3746   29.2148 C   0  0  0  0  0  0  0  0  0  0  0  0
   10.0141  -13.5052   30.0511 O   0  0  0  0  0  0  0  0  0  0  0  0
    9.7484  -14.3707   27.8566 C   0  0  0  0  0  0  0  0  0  0  0  0
   10.1924  -15.4827   26.9601 C   0  0  2  0  0  0  0  0  0  0  0  0
    9.5454  -15.2327   25.6602 N   0  0  0  0  0  0  0  0  0  0  0  0
    9.9211  -16.8363   27.4359 C   0  0  0  0  0  0  0  0  0  0  0  0
    8.8470  -17.4368   27.2101 O   0  0  0  0  0  0  0  0  0  0  0  0
   10.9402  -17.4723   28.1845 O   0  0  0  0  0  0  0  0  0  0  0  0
  2  3  1  0
  2  1  1  6
  4  8  1  0
  4  3  1  0
  5  4  2  0
  6  5  1  0
  6  7  1  0
  7  8  2  0
  9  2  1  0
 10  9  2  0
 11  9  1  0
 12 11  1  0
 13 14  1  0
 12 13  1  1
 14 15  2  0
 15 16  1  0
 17 16  1  0
 18 14  1  0
 18 17  2  0
 19 12  1  0
 19 26  1  0
 20 19  2  0
 22 21  1  0
 23 22  2  0
 24 22  1  0
 25 24  1  1
 25 27  1  0
 25 26  1  0
 27 29  1  0
 28 27  2  0
M  END
$$$$
