HHN.pdb
     RDKit          3D

 29 30  0  0  1  0  0  0  0  0999 V2000
   11.6391  -15.1957   15.2075 N   0  0  0  0  0  0  0  0  0  0  0  0
   11.6314  -16.1652   16.2593 C   0  0  1  0  0  0  0  0  0  0  0  0
   12.7753  -17.1712   16.0661 C   0  0  0  0  0  0  0  0  0  0  0  0
   12.4262  -18.1939   15.0702 C   0  0  0  0  0  0  0  0  0  0  0  0
   12.3710  -17.9820   13.7102 C   0  0  0  0  0  0  0  0  0  0  0  0
   12.0152  -19.1524   13.1074 N   0  0  0  0  0  0  0  0  0  0  0  0
   11.8519  -20.0803   14.0872 C   0  0  0  0  0  0  0  0  0  0  0  0
   12.1033  -19.4855   15.2607 N   0  0  0  0  0  0  0  0  0  0  0  0
   11.7839  -15.5684   17.6038 C   0  0  0  0  0  0  0  0  0  0  0  0
   12.7086  -14.7610   17.8101 O   0  0  0  0  0  0  0  0  0  0  0  0
   10.9367  -15.8525   18.7031 N   0  0  0  0  0  0  0  0  0  0  0  0
   11.0602  -15.2719   19.9854 C   0  0  1  0  0  0  0  0  0  0  0  0
    9.8201  -15.1744   20.8069 C   0  0  0  0  0  0  0  0  0  0  0  0
    8.7825  -14.3699   20.1040 C   0  0  0  0  0  0  0  0  0  0  0  0
    7.7212  -14.8092   19.3366 C   0  0  0  0  0  0  0  0  0  0  0  0
    7.0079  -13.7614   18.8725 N   0  0  0  0  0  0  0  0  0  0  0  0
    7.6161  -12.6606   19.3450 C   0  0  0  0  0  0  0  0  0  0  0  0
    8.6787  -13.0088   20.0830 N   0  0  0  0  0  0  0  0  0  0  0  0
   12.1332  -15.9712   20.7458 C   0  0  0  0  0  0  0  0  0  0  0  0
   12.2623  -17.2204   20.6842 O   0  0  0  0  0  0  0  0  0  0  0  0
   17.0959  -14.5300   23.7823 N   0  0  0  0  0  0  0  0  0  0  0  0
   16.5808  -15.3988   22.7558 C   0  0  0  0  0  0  0  0  0  0  0  0
   17.1759  -16.4388   22.4447 O   0  0  0  0  0  0  0  0  0  0  0  0
   15.3326  -14.9791   22.1178 C   0  0  0  0  0  0  0  0  0  0  0  0
   14.1719  -15.9131   22.2511 C   0  0  2  0  0  0  0  0  0  0  0  0
   13.0464  -15.2547   21.5652 N   0  0  0  0  0  0  0  0  0  0  0  0
   13.8116  -16.2969   23.6131 C   0  0  0  0  0  0  0  0  0  0  0  0
   14.5490  -16.9961   24.3430 O   0  0  0  0  0  0  0  0  0  0  0  0
   12.5638  -15.8415   24.1020 O   0  0  0  0  0  0  0  0  0  0  0  0
  2  3  1  0
  2  1  1  6
  4  8  1  0
  4  3  1  0
  5  4  2  0
  6  5  1  0
  6  7  1  0
  7  8  2  0
  9  2  1  0
 10  9  2  0
 11  9  1  0
 12 11  1  0
 13 14  1  0
 12 13  1  1
 14 15  2  0
 15 16  1  0
 17 16  1  0
 18 14  1  0
 18 17  2  0
 19 12  1  0
 19 26  1  0
 20 19  2  0
 22 21  1  0
 23 22  2  0
 24 22  1  0
 25 24  1  1
 25 27  1  0
 25 26  1  0
 27 29  1  0
 28 27  2  0
M  END
$$$$
