SYE.pdb
     RDKit          3D

 28 28  0  0  1  0  0  0  0  0999 V2000
    5.8459  -17.1422   20.5777 O   0  0  0  0  0  0  0  0  0  0  0  0
    7.2145  -16.8911   20.4166 C   0  0  0  0  0  0  0  0  0  0  0  0
    7.4721  -15.3956   20.5098 C   0  0  2  0  0  0  0  0  0  0  0  0
    8.0894  -14.9338   19.3035 N   0  0  0  0  0  0  0  0  0  0  0  0
    8.3327  -15.1903   21.7068 C   0  0  0  0  0  0  0  0  0  0  0  0
    9.5808  -15.2557   21.5625 O   0  0  0  0  0  0  0  0  0  0  0  0
   10.7675  -14.6715   30.1906 O   0  0  0  0  0  0  0  0  0  0  0  0
   10.0489  -14.6453   29.0017 C   0  0  0  0  0  0  0  0  0  0  0  0
   10.0463  -13.4907   28.2491 C   0  0  0  0  0  0  0  0  0  0  0  0
    9.3378  -13.4142   27.0440 C   0  0  0  0  0  0  0  0  0  0  0  0
    8.6253  -14.4882   26.5786 C   0  0  0  0  0  0  0  0  0  0  0  0
    7.8622  -14.4399   25.3171 C   0  0  0  0  0  0  0  0  0  0  0  0
    8.6912  -14.9636   24.1740 C   0  0  2  0  0  0  0  0  0  0  0  0
    7.8198  -14.9250   23.0011 N   0  0  0  0  0  0  0  0  0  0  0  0
    9.0996  -16.3410   24.4401 C   0  0  0  0  0  0  0  0  0  0  0  0
    8.3107  -17.3171   24.5131 O   0  0  0  0  0  0  0  0  0  0  0  0
    8.6368  -15.6417   27.3448 C   0  0  0  0  0  0  0  0  0  0  0  0
    9.3340  -15.7215   28.5334 C   0  0  0  0  0  0  0  0  0  0  0  0
   10.4774  -16.6180   24.6325 N   0  0  0  0  0  0  0  0  0  0  0  0
   10.9093  -17.9792   24.8703 C   0  0  1  0  0  0  0  0  0  0  0  0
   11.7572  -18.3648   23.6905 C   0  0  0  0  0  0  0  0  0  0  0  0
   12.9163  -17.4634   23.4489 C   0  0  0  0  0  0  0  0  0  0  0  0
   13.6516  -17.9047   22.2424 C   0  0  0  0  0  0  0  0  0  0  0  0
   14.5754  -18.7414   22.3444 O   0  0  0  0  0  0  0  0  0  0  0  0
   11.6127  -18.0167   26.1660 C   0  0  0  0  0  0  0  0  0  0  0  0
   12.0071  -19.1241   26.5986 O   0  0  0  0  0  0  0  0  0  0  0  0
   13.3566  -17.4206   20.9666 O   0  0  0  0  0  0  0  0  0  0  0  0
   11.8800  -16.9119   26.9603 O   0  0  0  0  0  0  0  0  0  0  0  0
  2  1  1  0
  3  4  1  6
  3  2  1  0
  5  3  1  0
  6  5  2  0
  8  7  1  0
  9  8  2  0
 10  9  1  0
 11 17  1  0
 11 10  2  0
 12 11  1  0
 13 12  1  1
 13 15  1  0
 13 14  1  0
 14  5  1  0
 15 16  2  0
 17 18  2  0
 18  8  1  0
 19 20  1  0
 19 15  1  0
 20 25  1  0
 20 21  1  6
 22 21  1  0
 23 24  2  0
 23 22  1  0
 25 26  2  0
 25 28  1  0
 27 23  1  0
M  END
$$$$
