SYE.pdb
     RDKit          3D

 28 28  0  0  1  0  0  0  0  0999 V2000
    7.5134  -15.8172   19.7667 O   0  0  0  0  0  0  0  0  0  0  0  0
    6.5527  -14.8600   20.1173 C   0  0  0  0  0  0  0  0  0  0  0  0
    7.2460  -13.5892   20.5820 C   0  0  2  0  0  0  0  0  0  0  0  0
    8.0503  -13.0605   19.5222 N   0  0  0  0  0  0  0  0  0  0  0  0
    8.0499  -13.9613   21.7782 C   0  0  0  0  0  0  0  0  0  0  0  0
    9.2742  -14.2050   21.6219 O   0  0  0  0  0  0  0  0  0  0  0  0
   10.6331  -14.7200   30.1690 O   0  0  0  0  0  0  0  0  0  0  0  0
    9.8729  -14.5894   29.0134 C   0  0  0  0  0  0  0  0  0  0  0  0
    9.7193  -13.3393   28.4536 C   0  0  0  0  0  0  0  0  0  0  0  0
    8.9631  -13.1557   27.2898 C   0  0  0  0  0  0  0  0  0  0  0  0
    8.3530  -14.2168   26.6737 C   0  0  0  0  0  0  0  0  0  0  0  0
    7.5435  -14.0581   25.4509 C   0  0  0  0  0  0  0  0  0  0  0  0
    8.3611  -14.3775   24.2270 C   0  0  2  0  0  0  0  0  0  0  0  0
    7.5082  -14.0556   23.0845 N   0  0  0  0  0  0  0  0  0  0  0  0
    8.6987  -15.7989   24.2059 C   0  0  0  0  0  0  0  0  0  0  0  0
    7.8603  -16.7292   24.0950 O   0  0  0  0  0  0  0  0  0  0  0  0
    8.5157  -15.4669   27.2469 C   0  0  0  0  0  0  0  0  0  0  0  0
    9.2605  -15.6524   28.3942 C   0  0  0  0  0  0  0  0  0  0  0  0
   10.0612  -16.1773   24.3169 N   0  0  0  0  0  0  0  0  0  0  0  0
   10.4253  -17.5768   24.2467 C   0  0  1  0  0  0  0  0  0  0  0  0
   11.2121  -17.7447   22.9769 C   0  0  0  0  0  0  0  0  0  0  0  0
   12.3836  -16.8350   22.8579 C   0  0  0  0  0  0  0  0  0  0  0  0
   13.1028  -17.1066   21.5929 C   0  0  0  0  0  0  0  0  0  0  0  0
   12.4970  -17.6209   20.6273 O   0  0  0  0  0  0  0  0  0  0  0  0
   11.1671  -17.9191   25.4745 C   0  0  0  0  0  0  0  0  0  0  0  0
   11.5456  -19.1027   25.6322 O   0  0  0  0  0  0  0  0  0  0  0  0
   14.4562  -16.8093   21.4221 O   0  0  0  0  0  0  0  0  0  0  0  0
   11.4877  -17.0274   26.4871 O   0  0  0  0  0  0  0  0  0  0  0  0
  2  1  1  0
  3  4  1  6
  3  2  1  0
  5  3  1  0
  6  5  2  0
  8  7  1  0
  9  8  2  0
 10  9  1  0
 11 17  1  0
 11 10  2  0
 12 11  1  0
 13 12  1  1
 13 15  1  0
 13 14  1  0
 14  5  1  0
 15 16  2  0
 17 18  2  0
 18  8  1  0
 19 20  1  0
 19 15  1  0
 20 25  1  0
 20 21  1  6
 22 21  1  0
 23 24  2  0
 23 22  1  0
 25 26  2  0
 25 28  1  0
 27 23  1  0
M  END
$$$$
