SYE.pdb
     RDKit          3D

 28 28  0  0  1  0  0  0  0  0999 V2000
    9.6013  -18.7459   19.8351 O   0  0  0  0  0  0  0  0  0  0  0  0
    8.4511  -18.0969   19.3685 C   0  0  0  0  0  0  0  0  0  0  0  0
    8.7521  -16.6229   19.1483 C   0  0  2  0  0  0  0  0  0  0  0  0
    9.9296  -16.4831   18.3461 N   0  0  0  0  0  0  0  0  0  0  0  0
    8.9063  -16.0182   20.4996 C   0  0  0  0  0  0  0  0  0  0  0  0
   10.0602  -15.9549   20.9968 O   0  0  0  0  0  0  0  0  0  0  0  0
    7.0017  -12.2823   28.2713 O   0  0  0  0  0  0  0  0  0  0  0  0
    6.9457  -12.7500   26.9642 C   0  0  0  0  0  0  0  0  0  0  0  0
    6.3999  -13.9924   26.7229 C   0  0  0  0  0  0  0  0  0  0  0  0
    6.3208  -14.5079   25.4236 C   0  0  0  0  0  0  0  0  0  0  0  0
    6.7853  -13.7894   24.3533 C   0  0  0  0  0  0  0  0  0  0  0  0
    6.7240  -14.3050   22.9726 C   0  0  0  0  0  0  0  0  0  0  0  0
    8.0385  -14.9253   22.5780 C   0  0  2  0  0  0  0  0  0  0  0  0
    7.8208  -15.5097   21.2560 N   0  0  0  0  0  0  0  0  0  0  0  0
    8.4033  -15.9744   23.5273 C   0  0  0  0  0  0  0  0  0  0  0  0
    7.8411  -17.0965   23.6006 O   0  0  0  0  0  0  0  0  0  0  0  0
    7.3310  -12.5428   24.6103 C   0  0  0  0  0  0  0  0  0  0  0  0
    7.4109  -12.0307   25.8896 C   0  0  0  0  0  0  0  0  0  0  0  0
    9.4628  -15.7304   24.4384 N   0  0  0  0  0  0  0  0  0  0  0  0
    9.9660  -16.8112   25.2597 C   0  0  1  0  0  0  0  0  0  0  0  0
   11.2888  -17.2102   24.6675 C   0  0  0  0  0  0  0  0  0  0  0  0
   12.4708  -16.6456   25.3734 C   0  0  0  0  0  0  0  0  0  0  0  0
   13.7132  -17.0732   24.6918 C   0  0  0  0  0  0  0  0  0  0  0  0
   14.5014  -17.8583   25.2630 O   0  0  0  0  0  0  0  0  0  0  0  0
   10.0403  -16.3316   26.6524 C   0  0  0  0  0  0  0  0  0  0  0  0
   10.0927  -15.0967   26.8559 O   0  0  0  0  0  0  0  0  0  0  0  0
   14.0554  -16.6319   23.4122 O   0  0  0  0  0  0  0  0  0  0  0  0
   10.0569  -17.1445   27.7757 O   0  0  0  0  0  0  0  0  0  0  0  0
  2  1  1  0
  3  4  1  6
  3  2  1  0
  5  3  1  0
  6  5  2  0
  8  7  1  0
  9  8  2  0
 10  9  1  0
 11 17  1  0
 11 10  2  0
 12 11  1  0
 13 12  1  1
 13 15  1  0
 13 14  1  0
 14  5  1  0
 15 16  2  0
 17 18  2  0
 18  8  1  0
 19 20  1  0
 19 15  1  0
 20 25  1  0
 20 21  1  6
 22 21  1  0
 23 24  2  0
 23 22  1  0
 25 26  2  0
 25 28  1  0
 27 23  1  0
M  END
$$$$
