SYE.pdb
     RDKit          3D

 28 28  0  0  1  0  0  0  0  0999 V2000
    9.6063  -18.8482   19.8533 O   0  0  0  0  0  0  0  0  0  0  0  0
    8.4109  -18.2848   19.3891 C   0  0  0  0  0  0  0  0  0  0  0  0
    8.6252  -16.8092   19.0919 C   0  0  2  0  0  0  0  0  0  0  0  0
    9.7310  -16.6506   18.1966 N   0  0  0  0  0  0  0  0  0  0  0  0
    8.8525  -16.1440   20.4040 C   0  0  0  0  0  0  0  0  0  0  0  0
   10.0381  -15.9402   20.7721 O   0  0  0  0  0  0  0  0  0  0  0  0
    7.4222  -11.8031   27.9661 O   0  0  0  0  0  0  0  0  0  0  0  0
    7.2514  -12.4939   26.7727 C   0  0  0  0  0  0  0  0  0  0  0  0
    7.7497  -11.9487   25.6091 C   0  0  0  0  0  0  0  0  0  0  0  0
    7.6032  -12.6058   24.3816 C   0  0  0  0  0  0  0  0  0  0  0  0
    6.9583  -13.8123   24.3031 C   0  0  0  0  0  0  0  0  0  0  0  0
    6.7801  -14.5283   23.0258 C   0  0  0  0  0  0  0  0  0  0  0  0
    8.0922  -15.0878   22.5425 C   0  0  2  0  0  0  0  0  0  0  0  0
    7.8029  -15.7280   21.2607 N   0  0  0  0  0  0  0  0  0  0  0  0
    8.5927  -16.0822   23.4888 C   0  0  0  0  0  0  0  0  0  0  0  0
    8.0773  -17.2140   23.6730 O   0  0  0  0  0  0  0  0  0  0  0  0
    6.4628  -14.3484   25.4800 C   0  0  0  0  0  0  0  0  0  0  0  0
    6.6051  -13.7040   26.6923 C   0  0  0  0  0  0  0  0  0  0  0  0
    9.7389  -15.7690   24.2636 N   0  0  0  0  0  0  0  0  0  0  0  0
   10.2411  -16.7300   25.2229 C   0  0  1  0  0  0  0  0  0  0  0  0
   11.7270  -16.8034   25.0078 C   0  0  0  0  0  0  0  0  0  0  0  0
   12.1271  -17.2707   23.6528 C   0  0  0  0  0  0  0  0  0  0  0  0
   12.6021  -18.6708   23.7253 C   0  0  0  0  0  0  0  0  0  0  0  0
   11.7859  -19.6136   23.6313 O   0  0  0  0  0  0  0  0  0  0  0  0
    9.8405  -16.2841   26.5704 C   0  0  0  0  0  0  0  0  0  0  0  0
    9.9722  -17.0827   27.5264 O   0  0  0  0  0  0  0  0  0  0  0  0
   13.9486  -18.9969   23.8976 O   0  0  0  0  0  0  0  0  0  0  0  0
    9.3219  -15.0347   26.8754 O   0  0  0  0  0  0  0  0  0  0  0  0
  2  1  1  0
  3  4  1  6
  3  2  1  0
  5  3  1  0
  6  5  2  0
  8  7  1  0
  9  8  2  0
 10  9  1  0
 11 17  1  0
 11 10  2  0
 12 11  1  0
 13 12  1  1
 13 15  1  0
 13 14  1  0
 14  5  1  0
 15 16  2  0
 17 18  2  0
 18  8  1  0
 19 20  1  0
 19 15  1  0
 20 25  1  0
 20 21  1  1
 22 21  1  0
 23 24  2  0
 23 22  1  0
 25 26  2  0
 25 28  1  0
 27 23  1  0
M  END
$$$$
