SYE.pdb
     RDKit          3D

 28 28  0  0  1  0  0  0  0  0999 V2000
    7.8764  -17.5137   20.3251 O   0  0  0  0  0  0  0  0  0  0  0  0
    6.7962  -16.6457   20.5296 C   0  0  0  0  0  0  0  0  0  0  0  0
    7.3069  -15.2197   20.6618 C   0  0  2  0  0  0  0  0  0  0  0  0
    7.9709  -14.8287   19.4553 N   0  0  0  0  0  0  0  0  0  0  0  0
    8.2125  -15.2046   21.8430 C   0  0  0  0  0  0  0  0  0  0  0  0
    9.4443  -15.3748   21.6526 O   0  0  0  0  0  0  0  0  0  0  0  0
   11.2099  -14.5492   30.1165 O   0  0  0  0  0  0  0  0  0  0  0  0
   10.4025  -14.5551   28.9858 C   0  0  0  0  0  0  0  0  0  0  0  0
    9.7338  -15.7125   28.6495 C   0  0  0  0  0  0  0  0  0  0  0  0
    8.9085  -15.7691   27.5200 C   0  0  0  0  0  0  0  0  0  0  0  0
    8.7425  -14.6723   26.7155 C   0  0  0  0  0  0  0  0  0  0  0  0
    7.8865  -14.6990   25.5146 C   0  0  0  0  0  0  0  0  0  0  0  0
    8.6907  -15.0710   24.2967 C   0  0  2  0  0  0  0  0  0  0  0  0
    7.7596  -15.0085   23.1717 N   0  0  0  0  0  0  0  0  0  0  0  0
    9.2087  -16.4303   24.4334 C   0  0  0  0  0  0  0  0  0  0  0  0
    8.5094  -17.4717   24.3494 O   0  0  0  0  0  0  0  0  0  0  0  0
    9.4201  -13.5163   27.0653 C   0  0  0  0  0  0  0  0  0  0  0  0
   10.2347  -13.4560   28.1780 C   0  0  0  0  0  0  0  0  0  0  0  0
   10.5943  -16.6099   24.6784 N   0  0  0  0  0  0  0  0  0  0  0  0
   11.1185  -17.9425   24.8916 C   0  0  1  0  0  0  0  0  0  0  0  0
   12.2736  -18.0982   23.9423 C   0  0  0  0  0  0  0  0  0  0  0  0
   12.2082  -17.2127   22.7482 C   0  0  0  0  0  0  0  0  0  0  0  0
   13.4346  -17.3757   21.9355 C   0  0  0  0  0  0  0  0  0  0  0  0
   14.3266  -16.4998   21.9669 O   0  0  0  0  0  0  0  0  0  0  0  0
   11.4774  -18.0708   26.3163 C   0  0  0  0  0  0  0  0  0  0  0  0
   11.8920  -19.1784   26.7294 O   0  0  0  0  0  0  0  0  0  0  0  0
   13.6482  -18.4860   21.1165 O   0  0  0  0  0  0  0  0  0  0  0  0
   11.3944  -17.0528   27.2542 O   0  0  0  0  0  0  0  0  0  0  0  0
  2  1  1  0
  3  4  1  6
  3  2  1  0
  5  3  1  0
  6  5  2  0
  8  7  1  0
  9  8  2  0
 10  9  1  0
 11 17  1  0
 11 10  2  0
 12 11  1  0
 13 12  1  1
 13 15  1  0
 13 14  1  0
 14  5  1  0
 15 16  2  0
 17 18  2  0
 18  8  1  0
 19 20  1  0
 19 15  1  0
 20 25  1  0
 20 21  1  6
 22 21  1  0
 23 24  2  0
 23 22  1  0
 25 26  2  0
 25 28  1  0
 27 23  1  0
M  END
$$$$
