SYE.pdb
     RDKit          3D

 28 28  0  0  1  0  0  0  0  0999 V2000
    7.7576  -18.5657   18.2505 O   0  0  0  0  0  0  0  0  0  0  0  0
    8.1266  -17.9207   19.4379 C   0  0  0  0  0  0  0  0  0  0  0  0
    8.5259  -16.4854   19.1348 C   0  0  2  0  0  0  0  0  0  0  0  0
    9.6409  -16.4717   18.2369 N   0  0  0  0  0  0  0  0  0  0  0  0
    8.8387  -15.8499   20.4439 C   0  0  0  0  0  0  0  0  0  0  0  0
    9.9944  -15.9986   20.9182 O   0  0  0  0  0  0  0  0  0  0  0  0
    7.5671  -12.4059   28.4648 O   0  0  0  0  0  0  0  0  0  0  0  0
    7.4409  -12.7675   27.1292 C   0  0  0  0  0  0  0  0  0  0  0  0
    6.4212  -13.6189   26.7620 C   0  0  0  0  0  0  0  0  0  0  0  0
    6.2521  -14.0127   25.4292 C   0  0  0  0  0  0  0  0  0  0  0  0
    7.0983  -13.5614   24.4505 C   0  0  0  0  0  0  0  0  0  0  0  0
    6.9534  -13.9615   23.0381 C   0  0  0  0  0  0  0  0  0  0  0  0
    8.1833  -14.6895   22.5631 C   0  0  2  0  0  0  0  0  0  0  0  0
    7.9025  -15.0856   21.1844 N   0  0  0  0  0  0  0  0  0  0  0  0
    8.4103  -15.8784   23.3815 C   0  0  0  0  0  0  0  0  0  0  0  0
    7.8737  -16.9970   23.1781 O   0  0  0  0  0  0  0  0  0  0  0  0
    8.1183  -12.7065   24.8336 C   0  0  0  0  0  0  0  0  0  0  0  0
    8.2886  -12.3156   26.1464 C   0  0  0  0  0  0  0  0  0  0  0  0
    9.2938  -15.7857   24.4873 N   0  0  0  0  0  0  0  0  0  0  0  0
    9.8178  -16.9931   25.0903 C   0  0  1  0  0  0  0  0  0  0  0  0
   11.0018  -17.4003   24.2585 C   0  0  0  0  0  0  0  0  0  0  0  0
   11.7603  -18.5605   24.7997 C   0  0  0  0  0  0  0  0  0  0  0  0
   12.8702  -18.9054   23.8831 C   0  0  0  0  0  0  0  0  0  0  0  0
   12.7476  -19.8594   23.0839 O   0  0  0  0  0  0  0  0  0  0  0  0
   10.1340  -16.7006   26.5007 C   0  0  0  0  0  0  0  0  0  0  0  0
   10.5321  -15.5502   26.7964 O   0  0  0  0  0  0  0  0  0  0  0  0
   14.0753  -18.2007   23.8677 O   0  0  0  0  0  0  0  0  0  0  0  0
   10.0263  -17.6053   27.5462 O   0  0  0  0  0  0  0  0  0  0  0  0
  2  1  1  0
  3  4  1  6
  3  2  1  0
  5  3  1  0
  6  5  2  0
  8  7  1  0
  9  8  2  0
 10  9  1  0
 11 17  1  0
 11 10  2  0
 12 11  1  0
 13 12  1  1
 13 15  1  0
 13 14  1  0
 14  5  1  0
 15 16  2  0
 17 18  2  0
 18  8  1  0
 19 20  1  0
 19 15  1  0
 20 25  1  0
 20 21  1  6
 22 21  1  0
 23 24  2  0
 23 22  1  0
 25 26  2  0
 25 28  1  0
 27 23  1  0
M  END
$$$$
