TEH.pdb
     RDKit          3D

 27 27  0  0  1  0  0  0  0  0999 V2000
   24.5001  -26.3286  -18.1643 C   0  0  0  0  0  0  0  0  0  0  0  0
   24.5892  -25.1685  -17.1948 C   0  0  1  0  0  0  0  0  0  0  0  0
   23.5763  -25.2506  -16.2488 O   0  0  0  0  0  0  0  0  0  0  0  0
   25.9266  -25.1955  -16.4474 C   0  0  2  0  0  0  0  0  0  0  0  0
   25.9512  -24.1147  -15.4598 N   0  0  0  0  0  0  0  0  0  0  0  0
   27.0761  -25.0222  -17.3460 C   0  0  0  0  0  0  0  0  0  0  0  0
   27.0908  -25.5775  -18.5017 O   0  0  0  0  0  0  0  0  0  0  0  0
   28.2006  -24.2408  -16.9721 N   0  0  0  0  0  0  0  0  0  0  0  0
   29.3100  -24.0653  -17.9132 C   0  0  1  0  0  0  0  0  0  0  0  0
   29.7342  -22.6000  -17.9473 C   0  0  0  0  0  0  0  0  0  0  0  0
   28.8153  -21.7920  -18.8310 C   0  0  0  0  0  0  0  0  0  0  0  0
   29.2621  -20.4105  -19.0092 C   0  0  0  0  0  0  0  0  0  0  0  0
   30.4917  -20.1655  -19.1060 O   0  0  0  0  0  0  0  0  0  0  0  0
   30.4195  -24.9242  -17.4631 C   0  0  0  0  0  0  0  0  0  0  0  0
   30.6769  -25.0144  -16.2445 O   0  0  0  0  0  0  0  0  0  0  0  0
   28.3974  -19.3186  -19.0811 O   0  0  0  0  0  0  0  0  0  0  0  0
   31.2484  -25.6868  -18.3603 N   0  0  0  0  0  0  0  0  0  0  0  0
   32.3190  -26.5099  -17.9085 C   0  0  1  0  0  0  0  0  0  0  0  0
   32.6398  -27.6352  -18.8332 C   0  0  0  0  0  0  0  0  0  0  0  0
   33.7691  -28.4879  -18.4967 C   0  0  0  0  0  0  0  0  0  0  0  0
   34.3287  -28.8095  -17.2955 C   0  0  0  0  0  0  0  0  0  0  0  0
   35.3634  -29.6822  -17.4864 N   0  0  0  0  0  0  0  0  0  0  0  0
   35.4327  -29.8898  -18.7852 C   0  0  0  0  0  0  0  0  0  0  0  0
   34.4949  -29.1925  -19.4225 N   0  0  0  0  0  0  0  0  0  0  0  0
   33.5836  -25.7416  -17.6354 C   0  0  0  0  0  0  0  0  0  0  0  0
   34.5083  -26.3791  -17.0728 O   0  0  0  0  0  0  0  0  0  0  0  0
   33.7777  -24.4279  -17.9539 O   0  0  0  0  0  0  0  0  0  0  0  0
  2  1  1  6
  2  3  1  0
  4  2  1  0
  4  5  1  1
  6  7  2  0
  6  4  1  0
  8  6  1  0
  9 10  1  1
  9  8  1  0
 11 12  1  0
 11 10  1  0
 12 13  2  0
 14  9  1  0
 15 14  2  0
 16 12  1  0
 17 14  1  0
 18 17  1  0
 18 19  1  6
 20 19  1  0
 20 21  2  0
 22 21  1  0
 23 22  1  0
 24 23  2  0
 24 20  1  0
 25 18  1  0
 25 27  1  0
 26 25  2  0
M  END
$$$$
