TEH.pdb
     RDKit          3D

 27 27  0  0  1  0  0  0  0  0999 V2000
   10.7300  -11.9701  -11.2518 C   0  0  0  0  0  0  0  0  0  0  0  0
   12.0758  -11.2787  -11.3195 C   0  0  1  0  0  0  0  0  0  0  0  0
   12.3858  -10.7038  -10.0944 O   0  0  0  0  0  0  0  0  0  0  0  0
   13.1806  -12.2868  -11.6528 C   0  0  2  0  0  0  0  0  0  0  0  0
   13.2648  -13.2837  -10.5835 N   0  0  0  0  0  0  0  0  0  0  0  0
   14.4979  -11.6512  -11.7923 C   0  0  0  0  0  0  0  0  0  0  0  0
   15.3616  -11.7247  -10.8474 O   0  0  0  0  0  0  0  0  0  0  0  0
   14.8596  -10.9405  -12.9666 N   0  0  0  0  0  0  0  0  0  0  0  0
   16.1991  -10.3574  -13.0806 C   0  0  1  0  0  0  0  0  0  0  0  0
   16.7266  -10.5437  -14.5002 C   0  0  0  0  0  0  0  0  0  0  0  0
   18.0685   -9.8739  -14.6701 C   0  0  0  0  0  0  0  0  0  0  0  0
   18.6185  -10.0288  -16.0167 C   0  0  0  0  0  0  0  0  0  0  0  0
   18.6172   -9.0470  -16.8024 O   0  0  0  0  0  0  0  0  0  0  0  0
   16.0956   -8.9273  -12.7408 C   0  0  0  0  0  0  0  0  0  0  0  0
   15.0739   -8.2868  -13.0651 O   0  0  0  0  0  0  0  0  0  0  0  0
   19.1580  -11.2198  -16.5022 O   0  0  0  0  0  0  0  0  0  0  0  0
   17.1229   -8.2007  -12.0405 N   0  0  0  0  0  0  0  0  0  0  0  0
   16.9904   -6.8279  -11.6857 C   0  0  1  0  0  0  0  0  0  0  0  0
   17.1927   -6.5635  -10.2320 C   0  0  0  0  0  0  0  0  0  0  0  0
   16.1119   -6.9120   -9.3230 C   0  0  0  0  0  0  0  0  0  0  0  0
   14.8797   -7.4492   -9.5523 C   0  0  0  0  0  0  0  0  0  0  0  0
   14.2247   -7.6265   -8.3657 N   0  0  0  0  0  0  0  0  0  0  0  0
   15.0462   -7.2041   -7.4269 C   0  0  0  0  0  0  0  0  0  0  0  0
   16.1853   -6.7694   -7.9611 N   0  0  0  0  0  0  0  0  0  0  0  0
   17.9036   -5.9225  -12.4669 C   0  0  0  0  0  0  0  0  0  0  0  0
   18.7929   -6.4885  -13.1501 O   0  0  0  0  0  0  0  0  0  0  0  0
   17.8241   -4.5592  -12.4745 O   0  0  0  0  0  0  0  0  0  0  0  0
  2  1  1  1
  2  3  1  0
  4  2  1  0
  4  5  1  1
  6  7  2  0
  6  4  1  0
  8  6  1  0
  9 10  1  6
  9  8  1  0
 11 12  1  0
 11 10  1  0
 12 13  2  0
 14  9  1  0
 15 14  2  0
 16 12  1  0
 17 14  1  0
 18 17  1  0
 18 19  1  1
 20 19  1  0
 20 21  2  0
 22 21  1  0
 23 22  1  0
 24 23  2  0
 24 20  1  0
 25 18  1  0
 25 27  1  0
 26 25  2  0
M  END
$$$$
