TEH.pdb
     RDKit          3D

 27 27  0  0  1  0  0  0  0  0999 V2000
   36.9680  -35.5693   -1.6755 C   0  0  0  0  0  0  0  0  0  0  0  0
   37.2992  -34.3073   -0.9064 C   0  0  1  0  0  0  0  0  0  0  0  0
   38.5676  -33.8548   -1.2438 O   0  0  0  0  0  0  0  0  0  0  0  0
   36.3027  -33.1944   -1.2473 C   0  0  2  0  0  0  0  0  0  0  0  0
   36.6416  -31.9909   -0.4851 N   0  0  0  0  0  0  0  0  0  0  0  0
   34.9167  -33.5640   -0.9287 C   0  0  0  0  0  0  0  0  0  0  0  0
   34.3894  -33.2194    0.1882 O   0  0  0  0  0  0  0  0  0  0  0  0
   34.1185  -34.3078   -1.8367 N   0  0  0  0  0  0  0  0  0  0  0  0
   32.7177  -34.5896   -1.5117 C   0  0  1  0  0  0  0  0  0  0  0  0
   32.0061  -35.1597   -2.7351 C   0  0  0  0  0  0  0  0  0  0  0  0
   31.6362  -34.0636   -3.7046 C   0  0  0  0  0  0  0  0  0  0  0  0
   30.8530  -34.5462   -4.8419 C   0  0  0  0  0  0  0  0  0  0  0  0
   30.4506  -33.7280   -5.7078 O   0  0  0  0  0  0  0  0  0  0  0  0
   32.7015  -35.5529   -0.3968 C   0  0  0  0  0  0  0  0  0  0  0  0
   33.5506  -36.4677   -0.3572 O   0  0  0  0  0  0  0  0  0  0  0  0
   30.5129  -35.8845   -5.0377 O   0  0  0  0  0  0  0  0  0  0  0  0
   31.7451  -35.5074    0.6789 N   0  0  0  0  0  0  0  0  0  0  0  0
   31.7588  -36.4319    1.7619 C   0  0  1  0  0  0  0  0  0  0  0  0
   32.5244  -35.9521    2.9484 C   0  0  0  0  0  0  0  0  0  0  0  0
   33.9752  -36.0462    2.9021 C   0  0  0  0  0  0  0  0  0  0  0  0
   34.8207  -36.4481    1.9106 C   0  0  0  0  0  0  0  0  0  0  0  0
   36.1159  -36.3302    2.3316 N   0  0  0  0  0  0  0  0  0  0  0  0
   36.0603  -35.8626    3.5616 C   0  0  0  0  0  0  0  0  0  0  0  0
   34.7964  -35.6800    3.9374 N   0  0  0  0  0  0  0  0  0  0  0  0
   30.3818  -36.8360    2.2143 C   0  0  0  0  0  0  0  0  0  0  0  0
   30.1975  -38.0651    2.3972 O   0  0  0  0  0  0  0  0  0  0  0  0
   29.3499  -35.9680    2.4303 O   0  0  0  0  0  0  0  0  0  0  0  0
  2  1  1  6
  2  3  1  0
  4  2  1  0
  4  5  1  1
  6  7  2  0
  6  4  1  0
  8  6  1  0
  9 10  1  6
  9  8  1  0
 11 12  1  0
 11 10  1  0
 12 13  2  0
 14  9  1  0
 15 14  2  0
 16 12  1  0
 17 14  1  0
 18 17  1  0
 18 19  1  1
 20 19  1  0
 20 21  2  0
 22 21  1  0
 23 22  1  0
 24 23  2  0
 24 20  1  0
 25 18  1  0
 25 27  1  0
 26 25  2  0
M  END
$$$$
