TEH.pdb
     RDKit          3D

 27 27  0  0  1  0  0  0  0  0999 V2000
   17.2465  -14.9801  -15.4060 C   0  0  0  0  0  0  0  0  0  0  0  0
   18.3056  -14.2428  -16.1988 C   0  0  1  0  0  0  0  0  0  0  0  0
   18.1421  -14.4767  -17.5576 O   0  0  0  0  0  0  0  0  0  0  0  0
   18.1919  -12.7319  -15.9704 C   0  0  2  0  0  0  0  0  0  0  0  0
   16.9098  -12.2581  -16.4954 N   0  0  0  0  0  0  0  0  0  0  0  0
   19.2657  -11.9807  -16.6349 C   0  0  0  0  0  0  0  0  0  0  0  0
   20.4711  -12.0439  -16.2021 O   0  0  0  0  0  0  0  0  0  0  0  0
   19.0110  -11.1666  -17.7694 N   0  0  0  0  0  0  0  0  0  0  0  0
   20.1061  -10.4108  -18.3832 C   0  0  1  0  0  0  0  0  0  0  0  0
   19.9472  -10.4074  -19.9007 C   0  0  0  0  0  0  0  0  0  0  0  0
   21.0366   -9.5941  -20.5562 C   0  0  0  0  0  0  0  0  0  0  0  0
   20.9420   -9.5825  -22.0159 C   0  0  0  0  0  0  0  0  0  0  0  0
   21.9048   -9.1428  -22.6949 O   0  0  0  0  0  0  0  0  0  0  0  0
   20.0601   -9.0394  -17.8459 C   0  0  0  0  0  0  0  0  0  0  0  0
   18.9706   -8.4314  -17.7944 O   0  0  0  0  0  0  0  0  0  0  0  0
   19.8302  -10.0367  -22.7250 O   0  0  0  0  0  0  0  0  0  0  0  0
   21.2202   -8.3356  -17.3637 N   0  0  0  0  0  0  0  0  0  0  0  0
   21.1687   -6.9889  -16.9037 C   0  0  1  0  0  0  0  0  0  0  0  0
   22.4360   -6.5245  -16.2693 C   0  0  0  0  0  0  0  0  0  0  0  0
   22.4529   -5.1925  -15.6851 C   0  0  0  0  0  0  0  0  0  0  0  0
   21.4690   -4.2596  -15.5406 C   0  0  0  0  0  0  0  0  0  0  0  0
   21.9641   -3.1619  -14.8937 N   0  0  0  0  0  0  0  0  0  0  0  0
   23.2314   -3.4226  -14.6470 C   0  0  0  0  0  0  0  0  0  0  0  0
   23.5602   -4.6283  -15.1056 N   0  0  0  0  0  0  0  0  0  0  0  0
   20.7868   -6.0088  -17.9796 C   0  0  0  0  0  0  0  0  0  0  0  0
   21.4335   -6.0856  -19.0537 O   0  0  0  0  0  0  0  0  0  0  0  0
   19.8059   -5.0664  -17.8583 O   0  0  0  0  0  0  0  0  0  0  0  0
  2  1  1  1
  2  3  1  0
  4  2  1  0
  4  5  1  6
  6  7  2  0
  6  4  1  0
  8  6  1  0
  9 10  1  6
  9  8  1  0
 11 12  1  0
 11 10  1  0
 12 13  2  0
 14  9  1  0
 15 14  2  0
 16 12  1  0
 17 14  1  0
 18 17  1  0
 18 19  1  6
 20 19  1  0
 20 21  2  0
 22 21  1  0
 23 22  1  0
 24 23  2  0
 24 20  1  0
 25 18  1  0
 25 27  1  0
 26 25  2  0
M  END
$$$$
