TEH.pdb
     RDKit          3D

 27 27  0  0  1  0  0  0  0  0999 V2000
   17.0431  -10.1812  -16.2337 C   0  0  0  0  0  0  0  0  0  0  0  0
   18.0851  -11.2801  -16.2097 C   0  0  1  0  0  0  0  0  0  0  0  0
   18.1774  -11.8856  -17.4556 O   0  0  0  0  0  0  0  0  0  0  0  0
   19.4638  -10.7046  -15.8693 C   0  0  2  0  0  0  0  0  0  0  0  0
   20.4447  -11.7908  -15.8266 N   0  0  0  0  0  0  0  0  0  0  0  0
   19.4813  -10.0191  -14.5698 C   0  0  0  0  0  0  0  0  0  0  0  0
   19.5663  -10.6888  -13.4796 O   0  0  0  0  0  0  0  0  0  0  0  0
   19.4066   -8.6048  -14.4744 N   0  0  0  0  0  0  0  0  0  0  0  0
   19.5081   -7.9577  -13.1636 C   0  0  1  0  0  0  0  0  0  0  0  0
   20.1065   -6.5627  -13.3189 C   0  0  0  0  0  0  0  0  0  0  0  0
   21.5760   -6.6395  -13.6546 C   0  0  0  0  0  0  0  0  0  0  0  0
   22.2360   -5.3342  -13.6352 C   0  0  0  0  0  0  0  0  0  0  0  0
   22.6347   -4.8585  -12.5415 O   0  0  0  0  0  0  0  0  0  0  0  0
   18.1516   -7.8881  -12.5922 C   0  0  0  0  0  0  0  0  0  0  0  0
   17.1700   -7.7265  -13.3469 O   0  0  0  0  0  0  0  0  0  0  0  0
   22.4596   -4.5608  -14.7741 O   0  0  0  0  0  0  0  0  0  0  0  0
   17.8765   -7.9971  -11.1829 N   0  0  0  0  0  0  0  0  0  0  0  0
   16.5583   -7.9344  -10.6479 C   0  0  1  0  0  0  0  0  0  0  0  0
   15.9919   -9.2681  -10.2950 C   0  0  0  0  0  0  0  0  0  0  0  0
   14.6410   -9.3098   -9.7572 C   0  0  0  0  0  0  0  0  0  0  0  0
   13.7703   -8.3127   -9.4302 C   0  0  0  0  0  0  0  0  0  0  0  0
   12.5945   -8.8522   -8.9885 N   0  0  0  0  0  0  0  0  0  0  0  0
   12.7464  -10.1592   -9.0464 C   0  0  0  0  0  0  0  0  0  0  0  0
   13.9578  -10.4710   -9.5016 N   0  0  0  0  0  0  0  0  0  0  0  0
   16.4480   -7.0361   -9.4458 C   0  0  0  0  0  0  0  0  0  0  0  0
   17.4646   -6.9668   -8.7111 O   0  0  0  0  0  0  0  0  0  0  0  0
   15.3372   -6.3132   -9.1164 O   0  0  0  0  0  0  0  0  0  0  0  0
  2  1  1  6
  2  3  1  0
  4  2  1  0
  4  5  1  1
  6  7  2  0
  6  4  1  0
  8  6  1  0
  9 10  1  6
  9  8  1  0
 11 12  1  0
 11 10  1  0
 12 13  2  0
 14  9  1  0
 15 14  2  0
 16 12  1  0
 17 14  1  0
 18 17  1  0
 18 19  1  1
 20 19  1  0
 20 21  2  0
 22 21  1  0
 23 22  1  0
 24 23  2  0
 24 20  1  0
 25 18  1  0
 25 27  1  0
 26 25  2  0
M  END
$$$$
