TEH.pdb
     RDKit          3D

 27 27  0  0  1  0  0  0  0  0999 V2000
   12.5185   -9.8218  -14.6111 C   0  0  0  0  0  0  0  0  0  0  0  0
   12.8617  -11.2968  -14.5918 C   0  0  1  0  0  0  0  0  0  0  0  0
   11.7107  -12.0586  -14.4423 O   0  0  0  0  0  0  0  0  0  0  0  0
   13.5249  -11.7103  -15.9098 C   0  0  2  0  0  0  0  0  0  0  0  0
   13.7741  -13.1532  -15.8944 N   0  0  0  0  0  0  0  0  0  0  0  0
   14.8056  -11.0258  -16.1334 C   0  0  0  0  0  0  0  0  0  0  0  0
   15.8485  -11.3574  -15.4652 O   0  0  0  0  0  0  0  0  0  0  0  0
   14.9345   -9.9836  -17.0885 N   0  0  0  0  0  0  0  0  0  0  0  0
   16.2220   -9.3039  -17.2543 C   0  0  1  0  0  0  0  0  0  0  0  0
   16.2736   -8.6157  -18.6152 C   0  0  0  0  0  0  0  0  0  0  0  0
   15.1883   -7.5737  -18.7352 C   0  0  0  0  0  0  0  0  0  0  0  0
   15.4339   -6.6134  -19.8110 C   0  0  0  0  0  0  0  0  0  0  0  0
   15.0490   -6.8799  -20.9781 O   0  0  0  0  0  0  0  0  0  0  0  0
   16.3544   -8.3227  -16.1629 C   0  0  0  0  0  0  0  0  0  0  0  0
   15.3298   -7.8325  -15.6440 O   0  0  0  0  0  0  0  0  0  0  0  0
   16.0817   -5.3920  -19.6278 O   0  0  0  0  0  0  0  0  0  0  0  0
   17.6218   -7.8803  -15.6416 N   0  0  0  0  0  0  0  0  0  0  0  0
   17.7318   -6.9332  -14.5839 C   0  0  1  0  0  0  0  0  0  0  0  0
   18.3250   -7.4955  -13.3365 C   0  0  0  0  0  0  0  0  0  0  0  0
   17.5569   -8.4960  -12.6121 C   0  0  0  0  0  0  0  0  0  0  0  0
   16.3529   -9.0767  -12.8816 C   0  0  0  0  0  0  0  0  0  0  0  0
   16.0550   -9.9942  -11.9131 N   0  0  0  0  0  0  0  0  0  0  0  0
   17.0634   -9.9733  -11.0660 C   0  0  0  0  0  0  0  0  0  0  0  0
   17.9813   -9.0895  -11.4510 N   0  0  0  0  0  0  0  0  0  0  0  0
   18.5072   -5.7023  -14.9681 C   0  0  0  0  0  0  0  0  0  0  0  0
   19.0189   -5.7057  -16.1153 O   0  0  0  0  0  0  0  0  0  0  0  0
   18.6827   -4.6129  -14.1634 O   0  0  0  0  0  0  0  0  0  0  0  0
  2  1  1  6
  2  3  1  0
  4  2  1  0
  4  5  1  1
  6  7  2  0
  6  4  1  0
  8  6  1  0
  9 10  1  6
  9  8  1  0
 11 12  1  0
 11 10  1  0
 12 13  2  0
 14  9  1  0
 15 14  2  0
 16 12  1  0
 17 14  1  0
 18 17  1  0
 18 19  1  1
 20 19  1  0
 20 21  2  0
 22 21  1  0
 23 22  1  0
 24 23  2  0
 24 20  1  0
 25 18  1  0
 25 27  1  0
 26 25  2  0
M  END
$$$$
