TEH.pdb
     RDKit          3D

 27 27  0  0  1  0  0  0  0  0999 V2000
   25.7152  -21.2134  -18.9680 C   0  0  0  0  0  0  0  0  0  0  0  0
   24.6878  -20.7233  -17.9689 C   0  0  1  0  0  0  0  0  0  0  0  0
   25.2904  -20.4591  -16.7464 O   0  0  0  0  0  0  0  0  0  0  0  0
   24.0408  -19.4235  -18.4588 C   0  0  2  0  0  0  0  0  0  0  0  0
   25.0834  -18.4228  -18.6946 N   0  0  0  0  0  0  0  0  0  0  0  0
   23.0855  -18.8710  -17.4887 C   0  0  0  0  0  0  0  0  0  0  0  0
   23.4902  -18.1317  -16.5224 O   0  0  0  0  0  0  0  0  0  0  0  0
   21.6935  -19.1320  -17.5852 N   0  0  0  0  0  0  0  0  0  0  0  0
   20.7817  -18.6017  -16.5681 C   0  0  1  0  0  0  0  0  0  0  0  0
   19.3739  -18.4836  -17.1446 C   0  0  0  0  0  0  0  0  0  0  0  0
   18.4037  -17.9823  -16.1027 C   0  0  0  0  0  0  0  0  0  0  0  0
   17.0211  -17.9458  -16.5792 C   0  0  0  0  0  0  0  0  0  0  0  0
   16.6962  -17.1229  -17.4729 O   0  0  0  0  0  0  0  0  0  0  0  0
   20.8047  -19.5256  -15.4203 C   0  0  0  0  0  0  0  0  0  0  0  0
   20.9087  -20.7543  -15.6173 O   0  0  0  0  0  0  0  0  0  0  0  0
   16.0128  -18.7813  -16.0993 O   0  0  0  0  0  0  0  0  0  0  0  0
   20.7128  -19.0928  -14.0499 N   0  0  0  0  0  0  0  0  0  0  0  0
   20.7786  -19.9955  -12.9506 C   0  0  1  0  0  0  0  0  0  0  0  0
   21.4225  -19.4146  -11.7372 C   0  0  0  0  0  0  0  0  0  0  0  0
   21.4576  -20.2295  -10.5328 C   0  0  0  0  0  0  0  0  0  0  0  0
   21.0323  -21.5029  -10.2939 C   0  0  0  0  0  0  0  0  0  0  0  0
   21.3126  -21.8490   -9.0015 N   0  0  0  0  0  0  0  0  0  0  0  0
   21.9007  -20.8018   -8.4610 C   0  0  0  0  0  0  0  0  0  0  0  0
   22.0053  -19.8134   -9.3465 N   0  0  0  0  0  0  0  0  0  0  0  0
   19.4366  -20.5516  -12.5585 C   0  0  0  0  0  0  0  0  0  0  0  0
   18.4705  -19.7499  -12.6030 O   0  0  0  0  0  0  0  0  0  0  0  0
   19.2151  -21.8410  -12.1670 O   0  0  0  0  0  0  0  0  0  0  0  0
  2  1  1  6
  2  3  1  0
  4  2  1  0
  4  5  1  1
  6  7  2  0
  6  4  1  0
  8  6  1  0
  9 10  1  6
  9  8  1  0
 11 12  1  0
 11 10  1  0
 12 13  2  0
 14  9  1  0
 15 14  2  0
 16 12  1  0
 17 14  1  0
 18 17  1  0
 18 19  1  1
 20 19  1  0
 20 21  2  0
 22 21  1  0
 23 22  1  0
 24 23  2  0
 24 20  1  0
 25 18  1  0
 25 27  1  0
 26 25  2  0
M  END
$$$$
