TEH.pdb
     RDKit          3D

 27 27  0  0  1  0  0  0  0  0999 V2000
   17.9113  -13.7284  -15.9012 C   0  0  0  0  0  0  0  0  0  0  0  0
   19.1179  -12.8133  -15.9213 C   0  0  1  0  0  0  0  0  0  0  0  0
   19.9226  -13.0988  -17.0161 O   0  0  0  0  0  0  0  0  0  0  0  0
   18.6792  -11.3497  -16.0360 C   0  0  2  0  0  0  0  0  0  0  0  0
   18.0635  -11.1301  -17.3463 N   0  0  0  0  0  0  0  0  0  0  0  0
   19.8028  -10.4135  -15.8943 C   0  0  0  0  0  0  0  0  0  0  0  0
   20.4891  -10.3764  -14.8118 O   0  0  0  0  0  0  0  0  0  0  0  0
   20.1667   -9.5255  -16.9402 N   0  0  0  0  0  0  0  0  0  0  0  0
   21.2151   -8.5268  -16.7149 C   0  0  1  0  0  0  0  0  0  0  0  0
   21.6466   -7.9186  -18.0461 C   0  0  0  0  0  0  0  0  0  0  0  0
   22.5607   -8.8557  -18.7972 C   0  0  0  0  0  0  0  0  0  0  0  0
   23.0193   -8.3067  -20.0732 C   0  0  0  0  0  0  0  0  0  0  0  0
   23.0788   -7.0598  -20.2247 O   0  0  0  0  0  0  0  0  0  0  0  0
   20.6655   -7.4949  -15.8180 C   0  0  0  0  0  0  0  0  0  0  0  0
   19.5848   -6.9384  -16.1041 O   0  0  0  0  0  0  0  0  0  0  0  0
   23.4049   -9.0898  -21.1610 O   0  0  0  0  0  0  0  0  0  0  0  0
   21.3102   -7.0748  -14.6008 N   0  0  0  0  0  0  0  0  0  0  0  0
   20.7581   -6.0855  -13.7380 C   0  0  1  0  0  0  0  0  0  0  0  0
   20.2748   -6.6295  -12.4362 C   0  0  0  0  0  0  0  0  0  0  0  0
   19.7038   -5.6932  -11.4807 C   0  0  0  0  0  0  0  0  0  0  0  0
   19.5208   -4.3433  -11.5413 C   0  0  0  0  0  0  0  0  0  0  0  0
   18.9077   -3.9082  -10.3996 N   0  0  0  0  0  0  0  0  0  0  0  0
   18.7193   -4.9777   -9.6544 C   0  0  0  0  0  0  0  0  0  0  0  0
   19.1824   -6.0645  -10.2679 N   0  0  0  0  0  0  0  0  0  0  0  0
   21.7027   -4.9481  -13.4586 C   0  0  0  0  0  0  0  0  0  0  0  0
   21.1993   -3.9289  -12.9239 O   0  0  0  0  0  0  0  0  0  0  0  0
   23.0377   -4.9595  -13.7458 O   0  0  0  0  0  0  0  0  0  0  0  0
  2  1  1  6
  2  3  1  0
  4  2  1  0
  4  5  1  6
  6  7  2  0
  6  4  1  0
  8  6  1  0
  9 10  1  6
  9  8  1  0
 11 12  1  0
 11 10  1  0
 12 13  2  0
 14  9  1  0
 15 14  2  0
 16 12  1  0
 17 14  1  0
 18 17  1  0
 18 19  1  1
 20 19  1  0
 20 21  2  0
 22 21  1  0
 23 22  1  0
 24 23  2  0
 24 20  1  0
 25 18  1  0
 25 27  1  0
 26 25  2  0
M  END
$$$$
