TEH.pdb
     RDKit          3D

 27 27  0  0  1  0  0  0  0  0999 V2000
   36.6167  -10.3884  -16.4602 C   0  0  0  0  0  0  0  0  0  0  0  0
   37.0448  -10.2215  -15.0170 C   0  0  1  0  0  0  0  0  0  0  0  0
   38.3832  -10.5594  -14.8680 O   0  0  0  0  0  0  0  0  0  0  0  0
   36.8815   -8.7637  -14.5743 C   0  0  2  0  0  0  0  0  0  0  0  0
   37.3294   -8.6260  -13.1870 N   0  0  0  0  0  0  0  0  0  0  0  0
   35.4879   -8.3050  -14.6541 C   0  0  0  0  0  0  0  0  0  0  0  0
   34.8142   -8.0748  -13.5876 O   0  0  0  0  0  0  0  0  0  0  0  0
   34.8429   -8.1009  -15.9020 N   0  0  0  0  0  0  0  0  0  0  0  0
   33.4982   -7.5199  -15.9396 C   0  0  1  0  0  0  0  0  0  0  0  0
   33.5763   -6.0157  -15.6962 C   0  0  0  0  0  0  0  0  0  0  0  0
   32.2020   -5.3922  -15.7214 C   0  0  0  0  0  0  0  0  0  0  0  0
   32.2214   -3.9540  -15.4548 C   0  0  0  0  0  0  0  0  0  0  0  0
   33.0680   -3.4849  -14.6520 O   0  0  0  0  0  0  0  0  0  0  0  0
   32.9218   -7.8096  -17.2645 C   0  0  0  0  0  0  0  0  0  0  0  0
   33.6770   -7.9711  -18.2458 O   0  0  0  0  0  0  0  0  0  0  0  0
   31.3441   -3.0438  -16.0438 O   0  0  0  0  0  0  0  0  0  0  0  0
   31.5070   -7.9218  -17.5082 N   0  0  0  0  0  0  0  0  0  0  0  0
   30.9447   -8.9408  -18.3288 C   0  0  1  0  0  0  0  0  0  0  0  0
   31.2312  -10.3228  -17.8470 C   0  0  0  0  0  0  0  0  0  0  0  0
   32.3801  -11.0129  -18.4121 C   0  0  0  0  0  0  0  0  0  0  0  0
   33.2834  -10.6319  -19.3599 C   0  0  0  0  0  0  0  0  0  0  0  0
   34.2126  -11.6188  -19.5361 N   0  0  0  0  0  0  0  0  0  0  0  0
   33.8807  -12.5869  -18.7072 C   0  0  0  0  0  0  0  0  0  0  0  0
   32.7897  -12.2608  -18.0177 N   0  0  0  0  0  0  0  0  0  0  0  0
   29.4584   -8.7992  -18.5157 C   0  0  0  0  0  0  0  0  0  0  0  0
   28.8987   -7.8990  -17.8416 O   0  0  0  0  0  0  0  0  0  0  0  0
   28.7042   -9.5722  -19.3515 O   0  0  0  0  0  0  0  0  0  0  0  0
  2  1  1  6
  2  3  1  0
  4  2  1  0
  4  5  1  1
  6  7  2  0
  6  4  1  0
  8  6  1  0
  9 10  1  6
  9  8  1  0
 11 12  1  0
 11 10  1  0
 12 13  2  0
 14  9  1  0
 15 14  2  0
 16 12  1  0
 17 14  1  0
 18 17  1  0
 18 19  1  1
 20 19  1  0
 20 21  2  0
 22 21  1  0
 23 22  1  0
 24 23  2  0
 24 20  1  0
 25 18  1  0
 25 27  1  0
 26 25  2  0
M  END
$$$$
