TYG.pdb
     RDKit          3D

 24 24  0  0  1  0  0  0  0  0999 V2000
   27.1782  -33.4782  -16.6934 C   0  0  0  0  0  0  0  0  0  0  0  0
   28.3196  -32.4862  -16.6285 C   0  0  1  0  0  0  0  0  0  0  0  0
   29.5107  -33.1196  -16.9292 O   0  0  0  0  0  0  0  0  0  0  0  0
   28.0410  -31.2954  -17.5208 C   0  0  2  0  0  0  0  0  0  0  0  0
   29.1913  -30.4737  -17.7302 N   0  0  0  0  0  0  0  0  0  0  0  0
   26.8447  -30.5434  -17.0803 C   0  0  0  0  0  0  0  0  0  0  0  0
   27.0546  -29.4435  -16.4921 O   0  0  0  0  0  0  0  0  0  0  0  0
   25.5819  -25.7087  -21.4603 O   0  0  0  0  0  0  0  0  0  0  0  0
   25.0785  -26.7026  -20.6139 C   0  0  0  0  0  0  0  0  0  0  0  0
   24.4108  -26.3672  -19.4568 C   0  0  0  0  0  0  0  0  0  0  0  0
   23.9121  -27.3373  -18.6177 C   0  0  0  0  0  0  0  0  0  0  0  0
   24.0544  -28.6824  -18.8905 C   0  0  0  0  0  0  0  0  0  0  0  0
   23.5415  -29.7530  -18.0420 C   0  0  0  0  0  0  0  0  0  0  0  0
   24.4125  -30.1200  -16.8658 C   0  0  2  0  0  0  0  0  0  0  0  0
   25.5232  -30.9684  -17.2720 N   0  0  0  0  0  0  0  0  0  0  0  0
   23.6245  -30.7675  -15.7959 C   0  0  0  0  0  0  0  0  0  0  0  0
   22.6613  -30.1456  -15.2940 O   0  0  0  0  0  0  0  0  0  0  0  0
   24.7230  -29.0100  -20.0492 C   0  0  0  0  0  0  0  0  0  0  0  0
   25.2339  -28.0355  -20.9091 C   0  0  0  0  0  0  0  0  0  0  0  0
   23.9318  -32.0650  -15.3291 N   0  0  0  0  0  0  0  0  0  0  0  0
   23.0988  -32.6861  -14.3103 C   0  0  0  0  0  0  0  0  0  0  0  0
   23.4729  -34.1063  -14.1306 C   0  0  0  0  0  0  0  0  0  0  0  0
   22.7695  -34.8307  -13.1662 O   0  0  0  0  0  0  0  0  0  0  0  0
   24.3592  -34.6988  -14.7685 O   0  0  0  0  0  0  0  0  0  0  0  0
  2  1  1  6
  2  3  1  0
  4  6  1  0
  4  2  1  0
  4  5  1  1
  6  7  2  0
  8  9  1  0
  9 10  2  0
 10 11  1  0
 12 11  2  0
 12 13  1  0
 14 13  1  6
 14 16  1  0
 15 14  1  0
 15  6  1  0
 16 17  2  0
 16 20  1  0
 18 12  1  0
 19  9  1  0
 19 18  2  0
 20 21  1  0
 21 22  1  0
 22 23  1  0
 24 22  2  0
M  END
$$$$
