TYG.pdb
     RDKit          3D

 24 24  0  0  1  0  0  0  0  0999 V2000
   25.2968  -37.5892   -9.0410 C   0  0  0  0  0  0  0  0  0  0  0  0
   26.4198  -37.4523  -10.0465 C   0  0  1  0  0  0  0  0  0  0  0  0
   26.8413  -38.7040  -10.4538 O   0  0  0  0  0  0  0  0  0  0  0  0
   25.9970  -36.5663  -11.1990 C   0  0  2  0  0  0  0  0  0  0  0  0
   26.9885  -36.4725  -12.2238 N   0  0  0  0  0  0  0  0  0  0  0  0
   25.4979  -35.2535  -10.7318 C   0  0  0  0  0  0  0  0  0  0  0  0
   26.2991  -34.2794  -10.8256 O   0  0  0  0  0  0  0  0  0  0  0  0
   20.8339  -27.9696   -9.4241 O   0  0  0  0  0  0  0  0  0  0  0  0
   21.3250  -29.2358   -9.7606 C   0  0  0  0  0  0  0  0  0  0  0  0
   20.5238  -30.3510   -9.6527 C   0  0  0  0  0  0  0  0  0  0  0  0
   20.9975  -31.6006   -9.9811 C   0  0  0  0  0  0  0  0  0  0  0  0
   22.2870  -31.7978  -10.4309 C   0  0  0  0  0  0  0  0  0  0  0  0
   22.8406  -33.0967  -10.7993 C   0  0  0  0  0  0  0  0  0  0  0  0
   23.8104  -33.6914   -9.8081 C   0  0  2  0  0  0  0  0  0  0  0  0
   24.2191  -35.0311  -10.2036 N   0  0  0  0  0  0  0  0  0  0  0  0
   23.2449  -33.6994   -8.4425 C   0  0  0  0  0  0  0  0  0  0  0  0
   22.3950  -34.5689   -8.1454 O   0  0  0  0  0  0  0  0  0  0  0  0
   23.0821  -30.6781  -10.5364 C   0  0  0  0  0  0  0  0  0  0  0  0
   22.6137  -29.4047  -10.2063 C   0  0  0  0  0  0  0  0  0  0  0  0
   23.6393  -32.7535   -7.4700 N   0  0  0  0  0  0  0  0  0  0  0  0
   22.9614  -32.7099   -6.1831 C   0  0  0  0  0  0  0  0  0  0  0  0
   23.5637  -33.6849   -5.2473 C   0  0  0  0  0  0  0  0  0  0  0  0
   24.6186  -34.4610   -5.7314 O   0  0  0  0  0  0  0  0  0  0  0  0
   23.2042  -33.8641   -4.0716 O   0  0  0  0  0  0  0  0  0  0  0  0
  2  1  1  1
  2  3  1  0
  4  6  1  0
  4  2  1  0
  4  5  1  6
  6  7  2  0
  8  9  1  0
  9 10  2  0
 10 11  1  0
 12 11  2  0
 12 13  1  0
 14 13  1  6
 14 16  1  0
 15 14  1  0
 15  6  1  0
 16 17  2  0
 16 20  1  0
 18 12  1  0
 19  9  1  0
 19 18  2  0
 20 21  1  0
 21 22  1  0
 22 23  1  0
 24 22  2  0
M  END
$$$$
