TYG.pdb
     RDKit          3D

 24 24  0  0  1  0  0  0  0  0999 V2000
   22.0456   -8.0856  -20.4746 C   0  0  0  0  0  0  0  0  0  0  0  0
   21.5709   -7.8826  -19.0518 C   0  0  1  0  0  0  0  0  0  0  0  0
   20.5021   -7.0065  -19.0332 O   0  0  0  0  0  0  0  0  0  0  0  0
   21.2570   -9.2128  -18.4007 C   0  0  2  0  0  0  0  0  0  0  0  0
   20.2629   -9.9586  -19.1061 N   0  0  0  0  0  0  0  0  0  0  0  0
   20.9771   -9.0672  -16.9546 C   0  0  0  0  0  0  0  0  0  0  0  0
   19.7891   -9.2936  -16.5843 O   0  0  0  0  0  0  0  0  0  0  0  0
   22.0120  -15.0073  -15.3673 O   0  0  0  0  0  0  0  0  0  0  0  0
   22.1041  -13.6694  -14.9685 C   0  0  0  0  0  0  0  0  0  0  0  0
   23.2687  -12.9589  -15.1586 C   0  0  0  0  0  0  0  0  0  0  0  0
   23.3694  -11.6426  -14.7698 C   0  0  0  0  0  0  0  0  0  0  0  0
   22.3185  -10.9743  -14.1754 C   0  0  0  0  0  0  0  0  0  0  0  0
   22.3659   -9.5795  -13.7493 C   0  0  0  0  0  0  0  0  0  0  0  0
   21.5594   -8.6190  -14.5880 C   0  0  2  0  0  0  0  0  0  0  0  0
   21.9289   -8.7017  -15.9933 N   0  0  0  0  0  0  0  0  0  0  0  0
   21.6925   -7.2324  -14.0935 C   0  0  0  0  0  0  0  0  0  0  0  0
   21.5181   -7.0060  -12.8749 O   0  0  0  0  0  0  0  0  0  0  0  0
   21.1574  -11.6912  -13.9888 C   0  0  0  0  0  0  0  0  0  0  0  0
   21.0423  -13.0272  -14.3787 C   0  0  0  0  0  0  0  0  0  0  0  0
   22.0103   -6.1625  -14.9596 N   0  0  0  0  0  0  0  0  0  0  0  0
   22.1447   -4.8142  -14.4289 C   0  0  0  0  0  0  0  0  0  0  0  0
   20.8786   -4.0658  -14.5901 C   0  0  0  0  0  0  0  0  0  0  0  0
   20.8810   -2.7240  -14.2038 O   0  0  0  0  0  0  0  0  0  0  0  0
   19.8210   -4.5375  -15.0398 O   0  0  0  0  0  0  0  0  0  0  0  0
  2  1  1  6
  2  3  1  0
  4  6  1  0
  4  2  1  0
  4  5  1  6
  6  7  2  0
  8  9  1  0
  9 10  2  0
 10 11  1  0
 12 11  2  0
 12 13  1  0
 14 13  1  1
 14 16  1  0
 15 14  1  0
 15  6  1  0
 16 17  2  0
 16 20  1  0
 18 12  1  0
 19  9  1  0
 19 18  2  0
 20 21  1  0
 21 22  1  0
 22 23  1  0
 24 22  2  0
M  END
$$$$
