TYG.pdb
     RDKit          3D

 24 24  0  0  1  0  0  0  0  0999 V2000
   23.6279  -11.5259  -14.6758 C   0  0  0  0  0  0  0  0  0  0  0  0
   23.1598  -10.1923  -15.2176 C   0  0  1  0  0  0  0  0  0  0  0  0
   23.2941  -10.1703  -16.5930 O   0  0  0  0  0  0  0  0  0  0  0  0
   21.7487   -9.8963  -14.7560 C   0  0  2  0  0  0  0  0  0  0  0  0
   20.7890  -10.8255  -15.2636 N   0  0  0  0  0  0  0  0  0  0  0  0
   21.3809   -8.4799  -14.9783 C   0  0  0  0  0  0  0  0  0  0  0  0
   20.5890   -8.2462  -15.9365 O   0  0  0  0  0  0  0  0  0  0  0  0
   18.4465   -0.3115  -14.0860 O   0  0  0  0  0  0  0  0  0  0  0  0
   19.0533   -1.5554  -13.8813 C   0  0  0  0  0  0  0  0  0  0  0  0
   20.3937   -1.6407  -13.5754 C   0  0  0  0  0  0  0  0  0  0  0  0
   20.9998   -2.8594  -13.3723 C   0  0  0  0  0  0  0  0  0  0  0  0
   20.3021   -4.0464  -13.4639 C   0  0  0  0  0  0  0  0  0  0  0  0
   20.8901   -5.3650  -13.2526 C   0  0  0  0  0  0  0  0  0  0  0  0
   21.4066   -6.0497  -14.4940 C   0  0  2  0  0  0  0  0  0  0  0  0
   21.8476   -7.4068  -14.2074 N   0  0  0  0  0  0  0  0  0  0  0  0
   22.4921   -5.2697  -15.1249 C   0  0  0  0  0  0  0  0  0  0  0  0
   23.6283   -5.2811  -14.5999 O   0  0  0  0  0  0  0  0  0  0  0  0
   18.9625   -3.9531  -13.7698 C   0  0  0  0  0  0  0  0  0  0  0  0
   18.3354   -2.7229  -13.9783 C   0  0  0  0  0  0  0  0  0  0  0  0
   22.2783   -4.5157  -16.3004 N   0  0  0  0  0  0  0  0  0  0  0  0
   23.3553   -3.7055  -16.8490 C   0  0  0  0  0  0  0  0  0  0  0  0
   24.1071   -4.4669  -17.8708 C   0  0  0  0  0  0  0  0  0  0  0  0
   25.0297   -3.7558  -18.6408 O   0  0  0  0  0  0  0  0  0  0  0  0
   23.9806   -5.6825  -18.0940 O   0  0  0  0  0  0  0  0  0  0  0  0
  2  1  1  6
  2  3  1  0
  4  6  1  0
  4  2  1  0
  4  5  1  6
  6  7  2  0
  8  9  1  0
  9 10  2  0
 10 11  1  0
 12 11  2  0
 12 13  1  0
 14 13  1  1
 14 16  1  0
 15 14  1  0
 15  6  1  0
 16 17  2  0
 16 20  1  0
 18 12  1  0
 19  9  1  0
 19 18  2  0
 20 21  1  0
 21 22  1  0
 22 23  1  0
 24 22  2  0
M  END
$$$$
