TYG.pdb
     RDKit          3D

 24 24  0  0  1  0  0  0  0  0999 V2000
   17.0236   -7.7375  -15.1608 C   0  0  0  0  0  0  0  0  0  0  0  0
   16.9697   -9.2496  -15.1190 C   0  0  1  0  0  0  0  0  0  0  0  0
   15.7511   -9.6900  -15.5999 O   0  0  0  0  0  0  0  0  0  0  0  0
   18.1483   -9.8447  -15.8598 C   0  0  2  0  0  0  0  0  0  0  0  0
   18.1098  -11.2721  -15.9149 N   0  0  0  0  0  0  0  0  0  0  0  0
   19.4368   -9.3024  -15.3735 C   0  0  0  0  0  0  0  0  0  0  0  0
   19.9748   -9.9105  -14.4037 O   0  0  0  0  0  0  0  0  0  0  0  0
   22.7648  -12.5225  -19.4422 O   0  0  0  0  0  0  0  0  0  0  0  0
   22.6888  -11.3514  -18.6803 C   0  0  0  0  0  0  0  0  0  0  0  0
   23.3337  -11.2605  -17.4666 C   0  0  0  0  0  0  0  0  0  0  0  0
   23.2649  -10.1132  -16.7097 C   0  0  0  0  0  0  0  0  0  0  0  0
   22.5532   -9.0062  -17.1246 C   0  0  0  0  0  0  0  0  0  0  0  0
   22.4508   -7.7627  -16.3680 C   0  0  0  0  0  0  0  0  0  0  0  0
   21.3399   -7.7154  -15.3481 C   0  0  2  0  0  0  0  0  0  0  0  0
   20.0813   -8.1806  -15.9119 N   0  0  0  0  0  0  0  0  0  0  0  0
   21.1889   -6.3586  -14.7815 C   0  0  0  0  0  0  0  0  0  0  0  0
   20.4071   -5.5550  -15.3378 O   0  0  0  0  0  0  0  0  0  0  0  0
   21.9112   -9.1045  -18.3391 C   0  0  0  0  0  0  0  0  0  0  0  0
   21.9730  -10.2629  -19.1167 C   0  0  0  0  0  0  0  0  0  0  0  0
   21.9026   -5.9499  -13.6328 N   0  0  0  0  0  0  0  0  0  0  0  0
   21.6052   -4.6683  -13.0112 C   0  0  0  0  0  0  0  0  0  0  0  0
   22.0894   -3.5567  -13.8593 C   0  0  0  0  0  0  0  0  0  0  0  0
   21.8720   -2.2596  -13.3904 O   0  0  0  0  0  0  0  0  0  0  0  0
   22.6706   -3.6893  -14.9493 O   0  0  0  0  0  0  0  0  0  0  0  0
  2  1  1  6
  2  3  1  0
  4  6  1  0
  4  2  1  0
  4  5  1  1
  6  7  2  0
  8  9  1  0
  9 10  2  0
 10 11  1  0
 12 11  2  0
 12 13  1  0
 14 13  1  6
 14 16  1  0
 15 14  1  0
 15  6  1  0
 16 17  2  0
 16 20  1  0
 18 12  1  0
 19  9  1  0
 19 18  2  0
 20 21  1  0
 21 22  1  0
 22 23  1  0
 24 22  2  0
M  END
$$$$
