TYG.pdb
     RDKit          3D

 24 24  0  0  1  0  0  0  0  0999 V2000
   21.0451  -20.7596  -12.8759 C   0  0  0  0  0  0  0  0  0  0  0  0
   21.2081  -21.1373  -14.3325 C   0  0  1  0  0  0  0  0  0  0  0  0
   20.4791  -22.2791  -14.6066 O   0  0  0  0  0  0  0  0  0  0  0  0
   20.8428  -19.9728  -15.2283 C   0  0  2  0  0  0  0  0  0  0  0  0
   20.5977  -20.3643  -16.5805 N   0  0  0  0  0  0  0  0  0  0  0  0
   21.8024  -18.8535  -15.0974 C   0  0  0  0  0  0  0  0  0  0  0  0
   21.8305  -18.2622  -13.9797 O   0  0  0  0  0  0  0  0  0  0  0  0
   28.1053  -12.7453  -16.1655 O   0  0  0  0  0  0  0  0  0  0  0  0
   27.3142  -13.8991  -16.1831 C   0  0  0  0  0  0  0  0  0  0  0  0
   27.1241  -14.6021  -17.3522 C   0  0  0  0  0  0  0  0  0  0  0  0
   26.3477  -15.7380  -17.3800 C   0  0  0  0  0  0  0  0  0  0  0  0
   25.7263  -16.2257  -16.2485 C   0  0  0  0  0  0  0  0  0  0  0  0
   24.8983  -17.4268  -16.2173 C   0  0  0  0  0  0  0  0  0  0  0  0
   23.4306  -17.1943  -15.9560 C   0  0  2  0  0  0  0  0  0  0  0  0
   22.6622  -18.4200  -16.1156 N   0  0  0  0  0  0  0  0  0  0  0  0
   22.8939  -16.1245  -16.8234 C   0  0  0  0  0  0  0  0  0  0  0  0
   22.6601  -16.3817  -18.0258 O   0  0  0  0  0  0  0  0  0  0  0  0
   25.9211  -15.5176  -15.0834 C   0  0  0  0  0  0  0  0  0  0  0  0
   26.7064  -14.3636  -15.0418 C   0  0  0  0  0  0  0  0  0  0  0  0
   22.6400  -14.8254  -16.3295 N   0  0  0  0  0  0  0  0  0  0  0  0
   22.3099  -13.7497  -17.2522 C   0  0  0  0  0  0  0  0  0  0  0  0
   22.0435  -12.4964  -16.5123 C   0  0  0  0  0  0  0  0  0  0  0  0
   20.7667  -11.9453  -16.6365 O   0  0  0  0  0  0  0  0  0  0  0  0
   22.8642  -11.9015  -15.7940 O   0  0  0  0  0  0  0  0  0  0  0  0
  2  1  1  1
  2  3  1  0
  4  6  1  0
  4  2  1  0
  4  5  1  6
  6  7  2  0
  8  9  1  0
  9 10  2  0
 10 11  1  0
 12 11  2  0
 12 13  1  0
 14 13  1  6
 14 16  1  0
 15 14  1  0
 15  6  1  0
 16 17  2  0
 16 20  1  0
 18 12  1  0
 19  9  1  0
 19 18  2  0
 20 21  1  0
 21 22  1  0
 22 23  1  0
 24 22  2  0
M  END
$$$$
