ARK.pdb
     RDKit          3D

 26 25  0  0  1  0  0  0  0  0999 V2000
   15.7545  -25.3174  -12.9671 C   0  0  0  0  0  0  0  0  0  0  0  0
   16.5416  -24.3104  -12.1371 C   0  0  2  0  0  0  0  0  0  0  0  0
   15.6743  -23.2116  -11.8520 N   0  0  0  0  0  0  0  0  0  0  0  0
   17.7239  -23.9210  -12.9449 C   0  0  0  0  0  0  0  0  0  0  0  0
   18.1143  -22.7304  -12.8736 O   0  0  0  0  0  0  0  0  0  0  0  0
   25.1073  -24.4290  -14.2750 N   0  0  0  0  0  0  0  0  0  0  0  0
   25.1674  -25.1552  -15.4909 C   0  0  0  0  0  0  0  0  0  0  0  0
   26.1974  -25.0728  -16.2841 N   0  0  0  0  0  0  0  0  0  0  0  0
   24.1101  -26.0150  -15.9105 N   0  0  0  0  0  0  0  0  0  0  0  0
   22.9196  -26.1690  -15.1507 C   0  0  0  0  0  0  0  0  0  0  0  0
   21.8955  -25.0714  -15.3306 C   0  0  0  0  0  0  0  0  0  0  0  0
   20.6912  -25.4808  -14.5149 C   0  0  0  0  0  0  0  0  0  0  0  0
   19.5772  -24.4771  -14.5707 C   0  0  2  0  0  0  0  0  0  0  0  0
   18.4309  -24.8111  -13.7852 N   0  0  0  0  0  0  0  0  0  0  0  0
   19.1706  -24.2468  -15.9846 C   0  0  0  0  0  0  0  0  0  0  0  0
   18.4567  -25.0878  -16.5946 O   0  0  0  0  0  0  0  0  0  0  0  0
   26.1561  -25.6285  -17.1592 N   0  0  0  0  0  0  0  0  0  0  0  0
   19.5553  -23.0978  -16.7020 C   0  0  2  0  0  0  0  0  0  0  0  0
   19.2221  -22.8510  -18.0987 C   0  0  0  0  0  0  0  0  0  0  0  0
   19.2074  -21.3930  -18.4118 C   0  0  0  0  0  0  0  0  0  0  0  0
   18.9073  -21.0592  -19.8390 C   0  0  0  0  0  0  0  0  0  0  0  0
   18.8006  -19.5498  -20.0527 C   0  0  0  0  0  0  0  0  0  0  0  0
   18.4588  -19.2902  -21.5233 N   0  0  0  0  0  0  0  0  0  0  0  0
   18.2514  -17.8972  -21.7742 C   0  0  0  0  0  0  0  0  0  0  0  0
   20.2417  -23.5346  -18.9236 O   0  0  0  0  0  0  0  0  0  0  0  0
   19.9676  -24.1977  -20.1059 O   0  0  0  0  0  0  0  0  0  0  0  0
  2  1  1  6
  2  3  1  0
  4  2  1  0
  4  5  2  0
  6  7  1  0
  7  8  2  0
  7  9  1  0
  9 10  1  0
 11 10  1  0
 12 11  1  0
 13 14  1  0
 13 12  1  6
 14  4  1  0
 15 13  1  0
 16 15  2  0
 17 15  1  0
 18 19  1  1
 18 17  1  0
 19 20  1  0
 20 21  1  0
 21 22  1  0
 23 22  1  0
 24 18  1  0
 25 24  1  0
 26 24  2  0
M  END
$$$$
