ARK.pdb
     RDKit          3D

 26 25  0  0  1  0  0  0  0  0999 V2000
   27.1623  -21.3939  -18.7266 C   0  0  0  0  0  0  0  0  0  0  0  0
   27.8537  -22.1875  -17.6244 C   0  0  2  0  0  0  0  0  0  0  0  0
   28.0523  -23.5174  -18.1072 N   0  0  0  0  0  0  0  0  0  0  0  0
   26.9682  -22.1289  -16.4351 C   0  0  0  0  0  0  0  0  0  0  0  0
   26.1353  -23.0549  -16.2801 O   0  0  0  0  0  0  0  0  0  0  0  0
   23.9577  -19.4648  -10.4183 N   0  0  0  0  0  0  0  0  0  0  0  0
   24.5632  -20.3610   -9.5019 C   0  0  0  0  0  0  0  0  0  0  0  0
   24.3212  -20.2959   -8.2236 N   0  0  0  0  0  0  0  0  0  0  0  0
   25.4645  -21.3811   -9.9264 N   0  0  0  0  0  0  0  0  0  0  0  0
   26.2442  -21.2523  -11.1069 C   0  0  0  0  0  0  0  0  0  0  0  0
   25.8909  -20.0737  -11.9854 C   0  0  0  0  0  0  0  0  0  0  0  0
   26.7897  -20.1664  -13.1966 C   0  0  0  0  0  0  0  0  0  0  0  0
   26.2257  -21.0388  -14.2793 C   0  0  2  0  0  0  0  0  0  0  0  0
   27.0102  -21.0945  -15.4726 N   0  0  0  0  0  0  0  0  0  0  0  0
   24.8380  -20.6094  -14.6071 C   0  0  0  0  0  0  0  0  0  0  0  0
   24.6284  -19.5498  -15.2569 O   0  0  0  0  0  0  0  0  0  0  0  0
   24.8387  -20.9604   -7.6179 N   0  0  0  0  0  0  0  0  0  0  0  0
   23.7070  -21.3512  -14.2155 C   0  0  2  0  0  0  0  0  0  0  0  0
   22.3304  -20.9181  -14.4155 C   0  0  0  0  0  0  0  0  0  0  0  0
   21.3593  -22.0017  -14.0886 C   0  0  0  0  0  0  0  0  0  0  0  0
   20.6289  -22.5677  -15.2653 C   0  0  0  0  0  0  0  0  0  0  0  0
   19.6425  -23.6563  -14.8439 C   0  0  0  0  0  0  0  0  0  0  0  0
   18.9880  -24.2328  -16.1033 N   0  0  0  0  0  0  0  0  0  0  0  0
   18.0208  -25.2355  -15.7781 C   0  0  0  0  0  0  0  0  0  0  0  0
   22.1017  -19.7522  -13.5348 O   0  0  0  0  0  0  0  0  0  0  0  0
   21.5256  -18.5655  -13.9505 O   0  0  0  0  0  0  0  0  0  0  0  0
  2  1  1  6
  2  3  1  0
  4  2  1  0
  4  5  2  0
  6  7  1  0
  7  8  2  0
  7  9  1  0
  9 10  1  0
 11 10  1  0
 12 11  1  0
 13 14  1  0
 13 12  1  1
 14  4  1  0
 15 13  1  0
 16 15  2  0
 17 15  1  0
 18 19  1  6
 18 17  1  0
 19 20  1  0
 20 21  1  0
 21 22  1  0
 23 22  1  0
 24 18  1  0
 25 24  1  0
 26 24  2  0
M  END
$$$$
