ARK.pdb
     RDKit          3D

 26 25  0  0  1  0  0  0  0  0999 V2000
   28.6075  -24.3487  -17.5226 C   0  0  0  0  0  0  0  0  0  0  0  0
   27.9651  -22.9767  -17.6874 C   0  0  2  0  0  0  0  0  0  0  0  0
   28.9589  -21.9942  -17.3908 N   0  0  0  0  0  0  0  0  0  0  0  0
   26.8094  -22.9309  -16.7576 C   0  0  0  0  0  0  0  0  0  0  0  0
   25.8716  -23.7424  -16.9501 O   0  0  0  0  0  0  0  0  0  0  0  0
   25.9428  -20.5090   -8.3185 N   0  0  0  0  0  0  0  0  0  0  0  0
   24.6098  -20.7772   -8.7191 C   0  0  0  0  0  0  0  0  0  0  0  0
   23.6264  -20.7691   -7.8648 N   0  0  0  0  0  0  0  0  0  0  0  0
   24.2716  -21.0665  -10.0738 N   0  0  0  0  0  0  0  0  0  0  0  0
   25.2580  -21.1587  -11.0920 C   0  0  0  0  0  0  0  0  0  0  0  0
   24.7319  -21.4992  -12.4679 C   0  0  0  0  0  0  0  0  0  0  0  0
   25.9352  -21.5405  -13.3809 C   0  0  0  0  0  0  0  0  0  0  0  0
   25.5878  -21.9167  -14.7913 C   0  0  2  0  0  0  0  0  0  0  0  0
   26.7066  -22.0296  -15.6735 N   0  0  0  0  0  0  0  0  0  0  0  0
   24.6021  -20.9490  -15.3475 C   0  0  0  0  0  0  0  0  0  0  0  0
   24.9288  -19.7516  -15.5677 O   0  0  0  0  0  0  0  0  0  0  0  0
   22.6790  -20.9545   -8.2445 N   0  0  0  0  0  0  0  0  0  0  0  0
   23.2765  -21.3140  -15.6516 C   0  0  2  0  0  0  0  0  0  0  0  0
   22.2839  -20.4094  -16.2165 C   0  0  0  0  0  0  0  0  0  0  0  0
   21.5763  -21.0238  -17.3767 C   0  0  0  0  0  0  0  0  0  0  0  0
   21.4603  -20.1433  -18.5807 C   0  0  0  0  0  0  0  0  0  0  0  0
   20.6461  -20.8106  -19.6886 C   0  0  0  0  0  0  0  0  0  0  0  0
   20.5899  -19.8610  -20.8894 N   0  0  0  0  0  0  0  0  0  0  0  0
   19.9357  -20.4690  -22.0069 C   0  0  0  0  0  0  0  0  0  0  0  0
   21.3155  -20.0912  -15.1450 O   0  0  0  0  0  0  0  0  0  0  0  0
   20.6581  -18.8802  -15.0262 O   0  0  0  0  0  0  0  0  0  0  0  0
  2  1  1  1
  2  3  1  0
  4  2  1  0
  4  5  2  0
  6  7  1  0
  7  8  2  0
  7  9  1  0
  9 10  1  0
 11 10  1  0
 12 11  1  0
 13 14  1  0
 13 12  1  1
 14  4  1  0
 15 13  1  0
 16 15  2  0
 17 15  1  0
 18 19  1  1
 18 17  1  0
 19 20  1  0
 20 21  1  0
 21 22  1  0
 23 22  1  0
 24 18  1  0
 25 24  1  0
 26 24  2  0
M  END
$$$$
