ARK.pdb
     RDKit          3D

 26 25  0  0  1  0  0  0  0  0999 V2000
   24.1774  -12.6719  -14.7080 C   0  0  0  0  0  0  0  0  0  0  0  0
   24.0727  -12.5963  -16.2265 C   0  0  2  0  0  0  0  0  0  0  0  0
   25.3180  -13.0384  -16.7694 N   0  0  0  0  0  0  0  0  0  0  0  0
   23.7616  -11.1852  -16.5643 C   0  0  0  0  0  0  0  0  0  0  0  0
   24.7248  -10.4045  -16.7585 O   0  0  0  0  0  0  0  0  0  0  0  0
   21.7570  -11.6315  -22.7435 N   0  0  0  0  0  0  0  0  0  0  0  0
   20.4251  -11.6077  -22.2588 C   0  0  0  0  0  0  0  0  0  0  0  0
   19.5483  -12.4965  -22.6304 N   0  0  0  0  0  0  0  0  0  0  0  0
   19.9734  -10.6160  -21.3392 N   0  0  0  0  0  0  0  0  0  0  0  0
   20.8782   -9.8178  -20.5892 C   0  0  0  0  0  0  0  0  0  0  0  0
   20.9385  -10.1304  -19.1112 C   0  0  0  0  0  0  0  0  0  0  0  0
   21.8772   -9.1141  -18.5035 C   0  0  0  0  0  0  0  0  0  0  0  0
   22.1081   -9.3333  -17.0371 C   0  0  2  0  0  0  0  0  0  0  0  0
   22.4485  -10.6743  -16.6788 N   0  0  0  0  0  0  0  0  0  0  0  0
   20.9153   -8.8913  -16.2629 C   0  0  0  0  0  0  0  0  0  0  0  0
   19.8826   -9.6116  -16.2041 O   0  0  0  0  0  0  0  0  0  0  0  0
   18.6206  -12.4563  -22.1679 N   0  0  0  0  0  0  0  0  0  0  0  0
   20.8790   -7.6671  -15.5679 C   0  0  1  0  0  0  0  0  0  0  0  0
   19.7101   -7.1559  -14.8643 C   0  0  0  0  0  0  0  0  0  0  0  0
   19.4252   -7.9400  -13.6282 C   0  0  0  0  0  0  0  0  0  0  0  0
   18.2950   -7.4176  -12.7985 C   0  0  0  0  0  0  0  0  0  0  0  0
   18.0084   -8.3260  -11.6034 C   0  0  0  0  0  0  0  0  0  0  0  0
   16.7023   -7.8676  -10.9470 N   0  0  0  0  0  0  0  0  0  0  0  0
   16.4055   -8.6380   -9.7787 C   0  0  0  0  0  0  0  0  0  0  0  0
   19.9862   -5.7455  -14.5154 O   0  0  0  0  0  0  0  0  0  0  0  0
   21.2127   -5.1291  -14.6843 O   0  0  0  0  0  0  0  0  0  0  0  0
  2  1  1  1
  2  3  1  0
  4  2  1  0
  4  5  2  0
  6  7  1  0
  7  8  2  0
  7  9  1  0
  9 10  1  0
 11 10  1  0
 12 11  1  0
 13 14  1  0
 13 12  1  6
 14  4  1  0
 15 13  1  0
 16 15  2  0
 17 15  1  0
 18 19  1  6
 18 17  1  0
 19 20  1  0
 20 21  1  0
 21 22  1  0
 23 22  1  0
 24 18  1  0
 25 24  1  0
 26 24  2  0
M  END
$$$$
