ARK.pdb
     RDKit          3D

 26 25  0  0  1  0  0  0  0  0999 V2000
   29.3702  -16.3721  -20.5586 C   0  0  0  0  0  0  0  0  0  0  0  0
   28.5939  -17.0991  -19.4671 C   0  0  2  0  0  0  0  0  0  0  0  0
   29.2194  -16.8004  -18.2180 N   0  0  0  0  0  0  0  0  0  0  0  0
   28.6332  -18.5438  -19.8041 C   0  0  0  0  0  0  0  0  0  0  0  0
   28.1232  -18.9043  -20.8927 O   0  0  0  0  0  0  0  0  0  0  0  0
   29.6243  -23.7934  -15.7193 N   0  0  0  0  0  0  0  0  0  0  0  0
   30.0589  -24.9735  -16.3735 C   0  0  0  0  0  0  0  0  0  0  0  0
   29.5502  -26.1382  -16.0878 N   0  0  0  0  0  0  0  0  0  0  0  0
   31.0702  -24.9515  -17.3784 N   0  0  0  0  0  0  0  0  0  0  0  0
   31.4756  -23.7459  -18.0113 C   0  0  0  0  0  0  0  0  0  0  0  0
   30.4455  -23.1213  -18.9247 C   0  0  0  0  0  0  0  0  0  0  0  0
   30.2714  -21.6967  -18.4517 C   0  0  0  0  0  0  0  0  0  0  0  0
   29.2682  -20.9291  -19.2616 C   0  0  2  0  0  0  0  0  0  0  0  0
   29.2095  -19.5307  -18.9722 N   0  0  0  0  0  0  0  0  0  0  0  0
   27.9169  -21.5344  -19.1036 C   0  0  0  0  0  0  0  0  0  0  0  0
   27.2428  -21.3405  -18.0562 O   0  0  0  0  0  0  0  0  0  0  0  0
   29.9630  -26.9574  -16.5722 N   0  0  0  0  0  0  0  0  0  0  0  0
   27.3312  -22.3409  -20.0982 C   0  0  1  0  0  0  0  0  0  0  0  0
   26.0537  -23.0264  -19.9537 C   0  0  0  0  0  0  0  0  0  0  0  0
   24.9640  -22.3201  -20.6870 C   0  0  0  0  0  0  0  0  0  0  0  0
   24.4366  -21.0974  -20.0048 C   0  0  0  0  0  0  0  0  0  0  0  0
   23.3055  -21.4384  -19.0354 C   0  0  0  0  0  0  0  0  0  0  0  0
   22.7779  -20.1354  -18.4266 N   0  0  0  0  0  0  0  0  0  0  0  0
   21.6629  -20.3753  -17.5630 C   0  0  0  0  0  0  0  0  0  0  0  0
   26.2222  -24.3931  -20.4930 O   0  0  0  0  0  0  0  0  0  0  0  0
   25.3826  -25.4526  -20.2009 O   0  0  0  0  0  0  0  0  0  0  0  0
  2  1  1  6
  2  3  1  0
  4  2  1  0
  4  5  2  0
  6  7  1  0
  7  8  2  0
  7  9  1  0
  9 10  1  0
 11 10  1  0
 12 11  1  0
 13 14  1  0
 13 12  1  1
 14  4  1  0
 15 13  1  0
 16 15  2  0
 17 15  1  0
 18 19  1  6
 18 17  1  0
 19 20  1  0
 20 21  1  0
 21 22  1  0
 23 22  1  0
 24 18  1  0
 25 24  1  0
 26 24  2  0
M  END
$$$$
