ARK.pdb
     RDKit          3D

 26 25  0  0  1  0  0  0  0  0999 V2000
   20.6601  -22.4568   -8.5874 C   0  0  0  0  0  0  0  0  0  0  0  0
   21.9403  -21.6909   -8.2757 C   0  0  2  0  0  0  0  0  0  0  0  0
   21.6396  -20.7435   -7.2496 N   0  0  0  0  0  0  0  0  0  0  0  0
   22.3771  -21.0539   -9.5427 C   0  0  0  0  0  0  0  0  0  0  0  0
   21.6189  -20.1965  -10.0578 O   0  0  0  0  0  0  0  0  0  0  0  0
   27.3850  -21.6837  -15.7942 N   0  0  0  0  0  0  0  0  0  0  0  0
   27.8412  -20.3627  -15.5571 C   0  0  0  0  0  0  0  0  0  0  0  0
   28.1346  -19.5565  -16.5373 N   0  0  0  0  0  0  0  0  0  0  0  0
   28.0009  -19.8437  -14.2387 N   0  0  0  0  0  0  0  0  0  0  0  0
   27.4019  -20.4628  -13.1090 C   0  0  0  0  0  0  0  0  0  0  0  0
   25.8908  -20.4237  -13.0803 C   0  0  0  0  0  0  0  0  0  0  0  0
   25.4792  -21.0128  -11.7510 C   0  0  0  0  0  0  0  0  0  0  0  0
   24.0267  -20.7998  -11.4405 C   0  0  2  0  0  0  0  0  0  0  0  0
   23.5924  -21.3569  -10.1981 N   0  0  0  0  0  0  0  0  0  0  0  0
   23.1867  -21.3271  -12.5512 C   0  0  0  0  0  0  0  0  0  0  0  0
   22.5824  -22.4273  -12.4354 O   0  0  0  0  0  0  0  0  0  0  0  0
   28.5827  -18.6566  -16.2811 N   0  0  0  0  0  0  0  0  0  0  0  0
   23.0259  -20.6368  -13.7680 C   0  0  2  0  0  0  0  0  0  0  0  0
   21.9233  -20.8522  -14.6957 C   0  0  0  0  0  0  0  0  0  0  0  0
   20.6010  -20.6667  -14.0316 C   0  0  0  0  0  0  0  0  0  0  0  0
   19.7814  -21.9119  -13.9035 C   0  0  0  0  0  0  0  0  0  0  0  0
   18.4128  -21.6230  -13.2878 C   0  0  0  0  0  0  0  0  0  0  0  0
   17.6421  -22.9423  -13.1759 N   0  0  0  0  0  0  0  0  0  0  0  0
   16.3720  -22.7543  -12.5450 C   0  0  0  0  0  0  0  0  0  0  0  0
   22.0763  -19.8778  -15.7977 O   0  0  0  0  0  0  0  0  0  0  0  0
   22.0132  -20.2062  -17.1396 O   0  0  0  0  0  0  0  0  0  0  0  0
  2  1  1  6
  2  3  1  0
  4  2  1  0
  4  5  2  0
  6  7  1  0
  7  8  2  0
  7  9  1  0
  9 10  1  0
 11 10  1  0
 12 11  1  0
 13 14  1  0
 13 12  1  6
 14  4  1  0
 15 13  1  0
 16 15  2  0
 17 15  1  0
 18 19  1  1
 18 17  1  0
 19 20  1  0
 20 21  1  0
 21 22  1  0
 23 22  1  0
 24 18  1  0
 25 24  1  0
 26 24  2  0
M  END
$$$$
