ARK.pdb
     RDKit          3D

 26 25  0  0  1  0  0  0  0  0999 V2000
   25.7763  -19.7701   -9.5825 C   0  0  0  0  0  0  0  0  0  0  0  0
   25.4155  -21.0461  -10.3337 C   0  0  2  0  0  0  0  0  0  0  0  0
   26.6203  -21.7878  -10.5318 N   0  0  0  0  0  0  0  0  0  0  0  0
   24.7769  -20.6275  -11.6061 C   0  0  0  0  0  0  0  0  0  0  0  0
   23.7196  -19.9549  -11.5360 O   0  0  0  0  0  0  0  0  0  0  0  0
   29.5657  -22.0779  -15.8771 N   0  0  0  0  0  0  0  0  0  0  0  0
   28.5410  -22.0903  -16.8566 C   0  0  0  0  0  0  0  0  0  0  0  0
   28.4109  -23.0790  -17.6947 N   0  0  0  0  0  0  0  0  0  0  0  0
   27.5979  -21.0276  -16.9769 N   0  0  0  0  0  0  0  0  0  0  0  0
   27.7337  -19.8155  -16.2485 C   0  0  0  0  0  0  0  0  0  0  0  0
   26.8631  -19.7042  -15.0174 C   0  0  0  0  0  0  0  0  0  0  0  0
   25.6322  -20.5356  -15.2951 C   0  0  0  0  0  0  0  0  0  0  0  0
   24.6863  -20.5886  -14.1315 C   0  0  2  0  0  0  0  0  0  0  0  0
   25.2900  -20.9421  -12.8851 N   0  0  0  0  0  0  0  0  0  0  0  0
   23.5637  -21.5199  -14.4308 C   0  0  0  0  0  0  0  0  0  0  0  0
   23.6275  -22.7338  -14.0971 O   0  0  0  0  0  0  0  0  0  0  0  0
   27.5871  -23.0493  -18.3246 N   0  0  0  0  0  0  0  0  0  0  0  0
   22.3922  -21.1011  -15.0905 C   0  0  1  0  0  0  0  0  0  0  0  0
   21.1039  -21.7730  -14.9836 C   0  0  0  0  0  0  0  0  0  0  0  0
   20.6033  -21.7832  -13.5787 C   0  0  0  0  0  0  0  0  0  0  0  0
   19.3325  -22.5445  -13.3694 C   0  0  0  0  0  0  0  0  0  0  0  0
   18.9269  -22.5669  -11.8962 C   0  0  0  0  0  0  0  0  0  0  0  0
   17.6760  -23.4390  -11.7498 N   0  0  0  0  0  0  0  0  0  0  0  0
   17.2273  -23.4865  -10.3922 C   0  0  0  0  0  0  0  0  0  0  0  0
   20.1534  -21.0468  -15.8533 O   0  0  0  0  0  0  0  0  0  0  0  0
   20.1361  -19.6726  -16.0083 O   0  0  0  0  0  0  0  0  0  0  0  0
  2  1  1  1
  2  3  1  0
  4  2  1  0
  4  5  2  0
  6  7  1  0
  7  8  2  0
  7  9  1  0
  9 10  1  0
 11 10  1  0
 12 11  1  0
 13 14  1  0
 13 12  1  6
 14  4  1  0
 15 13  1  0
 16 15  2  0
 17 15  1  0
 18 19  1  6
 18 17  1  0
 19 20  1  0
 20 21  1  0
 21 22  1  0
 23 22  1  0
 24 18  1  0
 25 24  1  0
 26 24  2  0
M  END
$$$$
