ARK.pdb
     RDKit          3D

 26 25  0  0  1  0  0  0  0  0999 V2000
   16.1072  -22.3495  -15.6826 C   0  0  0  0  0  0  0  0  0  0  0  0
   17.0552  -22.7667  -14.5647 C   0  0  2  0  0  0  0  0  0  0  0  0
   16.2877  -22.8797  -13.3651 N   0  0  0  0  0  0  0  0  0  0  0  0
   18.1069  -21.7230  -14.4836 C   0  0  0  0  0  0  0  0  0  0  0  0
   17.7525  -20.5583  -14.1785 O   0  0  0  0  0  0  0  0  0  0  0  0
   25.0534  -23.0756  -12.2256 N   0  0  0  0  0  0  0  0  0  0  0  0
   25.4507  -22.3162  -13.3547 C   0  0  0  0  0  0  0  0  0  0  0  0
   26.1818  -22.8329  -14.3009 N   0  0  0  0  0  0  0  0  0  0  0  0
   25.0715  -20.9515  -13.5188 N   0  0  0  0  0  0  0  0  0  0  0  0
   23.7256  -20.5218  -13.3702 C   0  0  0  0  0  0  0  0  0  0  0  0
   22.9430  -20.4018  -14.6583 C   0  0  0  0  0  0  0  0  0  0  0  0
   21.8969  -21.4915  -14.6189 C   0  0  0  0  0  0  0  0  0  0  0  0
   20.5002  -20.9689  -14.7851 C   0  0  2  0  0  0  0  0  0  0  0  0
   19.4776  -21.9659  -14.7293 N   0  0  0  0  0  0  0  0  0  0  0  0
   20.3913  -20.2050  -16.0587 C   0  0  0  0  0  0  0  0  0  0  0  0
   20.1070  -20.7901  -17.1384 O   0  0  0  0  0  0  0  0  0  0  0  0
   26.5180  -22.1829  -15.0363 N   0  0  0  0  0  0  0  0  0  0  0  0
   20.5966  -18.8134  -16.1229 C   0  0  1  0  0  0  0  0  0  0  0  0
   20.5179  -18.0266  -17.3466 C   0  0  0  0  0  0  0  0  0  0  0  0
   21.4113  -18.5711  -18.4095 C   0  0  0  0  0  0  0  0  0  0  0  0
   21.4287  -17.7829  -19.6811 C   0  0  0  0  0  0  0  0  0  0  0  0
   22.3183  -18.4387  -20.7366 C   0  0  0  0  0  0  0  0  0  0  0  0
   22.2775  -17.5825  -22.0063 N   0  0  0  0  0  0  0  0  0  0  0  0
   23.0798  -18.1500  -23.0459 C   0  0  0  0  0  0  0  0  0  0  0  0
   19.1116  -18.0591  -17.8032 O   0  0  0  0  0  0  0  0  0  0  0  0
   18.3590  -16.9329  -18.0822 O   0  0  0  0  0  0  0  0  0  0  0  0
  2  1  1  6
  2  3  1  0
  4  2  1  0
  4  5  2  0
  6  7  1  0
  7  8  2  0
  7  9  1  0
  9 10  1  0
 11 10  1  0
 12 11  1  0
 13 14  1  0
 13 12  1  6
 14  4  1  0
 15 13  1  0
 16 15  2  0
 17 15  1  0
 18 19  1  1
 18 17  1  0
 19 20  1  0
 20 21  1  0
 21 22  1  0
 23 22  1  0
 24 18  1  0
 25 24  1  0
 26 24  2  0
M  END
$$$$
