SGH.pdb
     RDKit          3D

 21 21  0  0  1  0  0  0  0  0999 V2000
   13.7463  -18.9887   16.9958 O   0  0  0  0  0  0  0  0  0  0  0  0
   12.8088  -17.9700   16.7717 C   0  0  0  0  0  0  0  0  0  0  0  0
   11.5165  -18.6236   16.2801 C   0  0  2  0  0  0  0  0  0  0  0  0
   11.3897  -18.3057   14.8867 N   0  0  0  0  0  0  0  0  0  0  0  0
   10.4018  -18.0675   17.0908 C   0  0  0  0  0  0  0  0  0  0  0  0
    9.7219  -17.1234   16.6127 O   0  0  0  0  0  0  0  0  0  0  0  0
   10.1532  -18.6292   18.3743 N   0  0  0  0  0  0  0  0  0  0  0  0
    8.9166  -18.3791   19.0479 C   0  0  0  0  0  0  0  0  0  0  0  0
    9.0281  -17.2965   20.0632 C   0  0  0  0  0  0  0  0  0  0  0  0
    7.9910  -16.8743   20.6340 O   0  0  0  0  0  0  0  0  0  0  0  0
   10.2672  -16.7081   20.4245 N   0  0  0  0  0  0  0  0  0  0  0  0
   10.3989  -15.7006   21.4593 C   0  0  1  0  0  0  0  0  0  0  0  0
    9.0701  -15.0740   21.8178 C   0  0  0  0  0  0  0  0  0  0  0  0
    8.5847  -14.2043   20.7204 C   0  0  0  0  0  0  0  0  0  0  0  0
    9.2925  -13.6701   19.6674 C   0  0  0  0  0  0  0  0  0  0  0  0
    8.4393  -12.9355   18.9077 N   0  0  0  0  0  0  0  0  0  0  0  0
    7.2126  -13.0077   19.4763 C   0  0  0  0  0  0  0  0  0  0  0  0
    7.3200  -13.7834   20.5777 N   0  0  0  0  0  0  0  0  0  0  0  0
   11.1244  -16.2037   22.6242 C   0  0  0  0  0  0  0  0  0  0  0  0
   12.1592  -15.6474   23.0674 O   0  0  0  0  0  0  0  0  0  0  0  0
   10.6695  -17.3363   23.2787 O   0  0  0  0  0  0  0  0  0  0  0  0
  2  1  1  0
  3  2  1  0
  3  4  1  6
  5  7  1  0
  5  3  1  0
  6  5  2  0
  8  9  1  0
  8  7  1  0
  9 11  1  0
 10  9  2  0
 11 12  1  0
 12 13  1  1
 13 14  1  0
 14 18  1  0
 15 14  2  0
 15 16  1  0
 16 17  1  0
 18 17  2  0
 19 12  1  0
 19 21  1  0
 20 19  2  0
M  END
$$$$
