SGH.pdb
     RDKit          3D

 21 21  0  0  1  0  0  0  0  0999 V2000
    8.2549  -20.8440   17.4693 O   0  0  0  0  0  0  0  0  0  0  0  0
    7.7552  -20.2980   18.6606 C   0  0  0  0  0  0  0  0  0  0  0  0
    7.4106  -18.8318   18.3946 C   0  0  2  0  0  0  0  0  0  0  0  0
    6.4167  -18.8160   17.3598 N   0  0  0  0  0  0  0  0  0  0  0  0
    8.6652  -18.1487   17.9843 C   0  0  0  0  0  0  0  0  0  0  0  0
    8.6509  -17.4334   16.9497 O   0  0  0  0  0  0  0  0  0  0  0  0
    9.8287  -18.3349   18.7820 N   0  0  0  0  0  0  0  0  0  0  0  0
   10.8941  -17.3816   18.7434 C   0  0  0  0  0  0  0  0  0  0  0  0
   10.8165  -16.3930   19.8533 C   0  0  0  0  0  0  0  0  0  0  0  0
   11.6756  -15.4788   19.9290 O   0  0  0  0  0  0  0  0  0  0  0  0
    9.8042  -16.4322   20.8463 N   0  0  0  0  0  0  0  0  0  0  0  0
    9.6836  -15.4434   21.9003 C   0  0  1  0  0  0  0  0  0  0  0  0
    8.3492  -14.7328   21.8659 C   0  0  0  0  0  0  0  0  0  0  0  0
    8.1016  -14.1416   20.5297 C   0  0  0  0  0  0  0  0  0  0  0  0
    8.3487  -12.8585   20.0963 C   0  0  0  0  0  0  0  0  0  0  0  0
    7.9637  -12.7646   18.7972 N   0  0  0  0  0  0  0  0  0  0  0  0
    7.4814  -13.9724   18.4204 C   0  0  0  0  0  0  0  0  0  0  0  0
    7.5730  -14.7974   19.4868 N   0  0  0  0  0  0  0  0  0  0  0  0
    9.9979  -16.0022   23.2139 C   0  0  0  0  0  0  0  0  0  0  0  0
   10.1618  -17.2326   23.4028 O   0  0  0  0  0  0  0  0  0  0  0  0
   10.1240  -15.1590   24.3054 O   0  0  0  0  0  0  0  0  0  0  0  0
  2  1  1  0
  3  2  1  0
  3  4  1  6
  5  7  1  0
  5  3  1  0
  6  5  2  0
  8  9  1  0
  8  7  1  0
  9 11  1  0
 10  9  2  0
 11 12  1  0
 12 13  1  1
 13 14  1  0
 14 18  1  0
 15 14  2  0
 15 16  1  0
 16 17  1  0
 18 17  2  0
 19 12  1  0
 19 21  1  0
 20 19  2  0
M  END
$$$$
