SGH.pdb
     RDKit          3D

 21 21  0  0  1  0  0  0  0  0999 V2000
   12.1996  -16.0244   15.6258 O   0  0  0  0  0  0  0  0  0  0  0  0
   11.7053  -17.2295   15.1058 C   0  0  0  0  0  0  0  0  0  0  0  0
   10.5426  -17.6790   15.9917 C   0  0  2  0  0  0  0  0  0  0  0  0
    9.5115  -16.6894   15.8642 N   0  0  0  0  0  0  0  0  0  0  0  0
   11.0583  -17.7827   17.3818 C   0  0  0  0  0  0  0  0  0  0  0  0
   12.0122  -18.5692   17.6132 O   0  0  0  0  0  0  0  0  0  0  0  0
   10.4485  -16.9857   18.3906 N   0  0  0  0  0  0  0  0  0  0  0  0
   10.8711  -17.0924   19.7528 C   0  0  0  0  0  0  0  0  0  0  0  0
    9.9816  -16.3495   20.6866 C   0  0  0  0  0  0  0  0  0  0  0  0
    8.7683  -16.6665   20.7695 O   0  0  0  0  0  0  0  0  0  0  0  0
   10.4432  -15.2838   21.5012 N   0  0  0  0  0  0  0  0  0  0  0  0
    9.5937  -14.5687   22.4341 C   0  0  1  0  0  0  0  0  0  0  0  0
    8.1973  -14.3628   21.8915 C   0  0  0  0  0  0  0  0  0  0  0  0
    8.2421  -13.7847   20.5277 C   0  0  0  0  0  0  0  0  0  0  0  0
    9.1549  -12.9021   19.9958 C   0  0  0  0  0  0  0  0  0  0  0  0
    8.8026  -12.6463   18.7092 N   0  0  0  0  0  0  0  0  0  0  0  0
    7.6838  -13.3588   18.4374 C   0  0  0  0  0  0  0  0  0  0  0  0
    7.3573  -14.0451   19.5548 N   0  0  0  0  0  0  0  0  0  0  0  0
    9.6047  -15.1783   23.7626 C   0  0  0  0  0  0  0  0  0  0  0  0
   10.2638  -16.2144   24.0248 O   0  0  0  0  0  0  0  0  0  0  0  0
    8.8663  -14.6067   24.7854 O   0  0  0  0  0  0  0  0  0  0  0  0
  2  1  1  0
  3  2  1  0
  3  4  1  1
  5  7  1  0
  5  3  1  0
  6  5  2  0
  8  9  1  0
  8  7  1  0
  9 11  1  0
 10  9  2  0
 11 12  1  0
 12 13  1  6
 13 14  1  0
 14 18  1  0
 15 14  2  0
 15 16  1  0
 16 17  1  0
 18 17  2  0
 19 12  1  0
 19 21  1  0
 20 19  2  0
M  END
$$$$
