SGH.pdb
     RDKit          3D

 21 21  0  0  1  0  0  0  0  0999 V2000
    9.9428  -15.3050   17.1604 O   0  0  0  0  0  0  0  0  0  0  0  0
    9.2578  -14.1652   16.7146 C   0  0  0  0  0  0  0  0  0  0  0  0
    7.8642  -14.1811   17.3445 C   0  0  2  0  0  0  0  0  0  0  0  0
    7.1045  -13.1438   16.7075 N   0  0  0  0  0  0  0  0  0  0  0  0
    8.0336  -13.9443   18.8020 C   0  0  0  0  0  0  0  0  0  0  0  0
    8.0444  -12.7589   19.2224 O   0  0  0  0  0  0  0  0  0  0  0  0
    8.1761  -15.0718   19.6583 N   0  0  0  0  0  0  0  0  0  0  0  0
    8.2994  -14.8970   21.0724 C   0  0  0  0  0  0  0  0  0  0  0  0
    9.3886  -15.7256   21.6576 C   0  0  0  0  0  0  0  0  0  0  0  0
    9.1533  -16.9165   21.9831 O   0  0  0  0  0  0  0  0  0  0  0  0
   10.7005  -15.2295   21.8695 N   0  0  0  0  0  0  0  0  0  0  0  0
   11.7788  -16.0347   22.4102 C   0  0  1  0  0  0  0  0  0  0  0  0
   13.1328  -15.4001   22.1848 C   0  0  0  0  0  0  0  0  0  0  0  0
   13.3535  -15.1270   20.7450 C   0  0  0  0  0  0  0  0  0  0  0  0
   12.6301  -15.5745   19.6626 C   0  0  0  0  0  0  0  0  0  0  0  0
   13.1950  -15.0728   18.5339 N   0  0  0  0  0  0  0  0  0  0  0  0
   14.2587  -14.3207   18.9030 C   0  0  0  0  0  0  0  0  0  0  0  0
   14.3398  -14.3651   20.2512 N   0  0  0  0  0  0  0  0  0  0  0  0
   11.5446  -16.3969   23.8067 C   0  0  0  0  0  0  0  0  0  0  0  0
   10.5640  -15.9649   24.4612 O   0  0  0  0  0  0  0  0  0  0  0  0
   12.4266  -17.2481   24.4515 O   0  0  0  0  0  0  0  0  0  0  0  0
  2  1  1  0
  3  2  1  0
  3  4  1  6
  5  7  1  0
  5  3  1  0
  6  5  2  0
  8  9  1  0
  8  7  1  0
  9 11  1  0
 10  9  2  0
 11 12  1  0
 12 13  1  1
 13 14  1  0
 14 18  1  0
 15 14  2  0
 15 16  1  0
 16 17  1  0
 18 17  2  0
 19 12  1  0
 19 21  1  0
 20 19  2  0
M  END
$$$$
