SGH.pdb
     RDKit          3D

 21 21  0  0  1  0  0  0  0  0999 V2000
   12.0250  -16.9448   13.8728 O   0  0  0  0  0  0  0  0  0  0  0  0
   11.8285  -18.1215   14.6102 C   0  0  0  0  0  0  0  0  0  0  0  0
   11.2747  -17.7277   15.9803 C   0  0  2  0  0  0  0  0  0  0  0  0
   10.1346  -16.8886   15.7462 N   0  0  0  0  0  0  0  0  0  0  0  0
   12.3584  -17.0190   16.7098 C   0  0  0  0  0  0  0  0  0  0  0  0
   13.4162  -17.6460   16.9748 O   0  0  0  0  0  0  0  0  0  0  0  0
   12.1503  -15.6600   17.0766 N   0  0  0  0  0  0  0  0  0  0  0  0
   13.1262  -14.9616   17.8547 C   0  0  0  0  0  0  0  0  0  0  0  0
   12.6977  -14.7661   19.2665 C   0  0  0  0  0  0  0  0  0  0  0  0
   13.3522  -13.9931   20.0105 O   0  0  0  0  0  0  0  0  0  0  0  0
   11.5684  -15.4199   19.8231 N   0  0  0  0  0  0  0  0  0  0  0  0
   11.0905  -15.1756   21.1704 C   0  0  1  0  0  0  0  0  0  0  0  0
    9.5895  -14.9985   21.2198 C   0  0  0  0  0  0  0  0  0  0  0  0
    9.1434  -14.0021   20.2175 C   0  0  0  0  0  0  0  0  0  0  0  0
    9.9076  -13.2209   19.3804 C   0  0  0  0  0  0  0  0  0  0  0  0
    9.0734  -12.4540   18.6316 N   0  0  0  0  0  0  0  0  0  0  0  0
    7.8028  -12.7499   18.9940 C   0  0  0  0  0  0  0  0  0  0  0  0
    7.8646  -13.6933   19.9596 N   0  0  0  0  0  0  0  0  0  0  0  0
   11.5771  -16.1798   22.1145 C   0  0  0  0  0  0  0  0  0  0  0  0
   11.3251  -16.1295   23.3435 O   0  0  0  0  0  0  0  0  0  0  0  0
   12.3475  -17.2355   21.6561 O   0  0  0  0  0  0  0  0  0  0  0  0
  2  1  1  0
  3  2  1  0
  3  4  1  6
  5  7  1  0
  5  3  1  0
  6  5  2  0
  8  9  1  0
  8  7  1  0
  9 11  1  0
 10  9  2  0
 11 12  1  0
 12 13  1  6
 13 14  1  0
 14 18  1  0
 15 14  2  0
 15 16  1  0
 16 17  1  0
 18 17  2  0
 19 12  1  0
 19 21  1  0
 20 19  2  0
M  END
$$$$
