SGH.pdb
     RDKit          3D

 21 21  0  0  1  0  0  0  0  0999 V2000
    9.9159  -17.6078   17.6034 O   0  0  0  0  0  0  0  0  0  0  0  0
    9.8414  -16.6876   16.5476 C   0  0  0  0  0  0  0  0  0  0  0  0
   11.1959  -16.6800   15.8375 C   0  0  2  0  0  0  0  0  0  0  0  0
   11.3937  -17.9948   15.2981 N   0  0  0  0  0  0  0  0  0  0  0  0
   12.2249  -16.3227   16.8487 C   0  0  0  0  0  0  0  0  0  0  0  0
   12.9532  -17.2358   17.3154 O   0  0  0  0  0  0  0  0  0  0  0  0
   12.3402  -14.9607   17.2443 N   0  0  0  0  0  0  0  0  0  0  0  0
   13.3409  -14.5613   18.1847 C   0  0  0  0  0  0  0  0  0  0  0  0
   12.8466  -14.5825   19.5884 C   0  0  0  0  0  0  0  0  0  0  0  0
   13.5486  -14.0758   20.4994 O   0  0  0  0  0  0  0  0  0  0  0  0
   11.6018  -15.1558   19.9549 N   0  0  0  0  0  0  0  0  0  0  0  0
   11.0742  -15.1179   21.3052 C   0  0  1  0  0  0  0  0  0  0  0  0
    9.5628  -15.0746   21.3261 C   0  0  0  0  0  0  0  0  0  0  0  0
    9.0484  -14.1394   20.2979 C   0  0  0  0  0  0  0  0  0  0  0  0
    9.7503  -13.2588   19.5061 C   0  0  0  0  0  0  0  0  0  0  0  0
    8.8673  -12.6040   18.7084 N   0  0  0  0  0  0  0  0  0  0  0  0
    7.6280  -13.0673   18.9958 C   0  0  0  0  0  0  0  0  0  0  0  0
    7.7573  -14.0005   19.9647 N   0  0  0  0  0  0  0  0  0  0  0  0
   11.6252  -16.1849   22.1385 C   0  0  0  0  0  0  0  0  0  0  0  0
   11.3431  -16.3048   23.3562 O   0  0  0  0  0  0  0  0  0  0  0  0
   12.4938  -17.1095   21.5830 O   0  0  0  0  0  0  0  0  0  0  0  0
  2  1  1  0
  3  2  1  0
  3  4  1  1
  5  7  1  0
  5  3  1  0
  6  5  2  0
  8  9  1  0
  8  7  1  0
  9 11  1  0
 10  9  2  0
 11 12  1  0
 12 13  1  6
 13 14  1  0
 14 18  1  0
 15 14  2  0
 15 16  1  0
 16 17  1  0
 18 17  2  0
 19 12  1  0
 19 21  1  0
 20 19  2  0
M  END
$$$$
