SGH.pdb
     RDKit          3D

 21 21  0  0  1  0  0  0  0  0999 V2000
    8.4438  -14.2392   17.8611 O   0  0  0  0  0  0  0  0  0  0  0  0
    7.7540  -13.0802   18.2456 C   0  0  0  0  0  0  0  0  0  0  0  0
    8.3021  -12.6386   19.6034 C   0  0  2  0  0  0  0  0  0  0  0  0
    9.7220  -12.4945   19.4554 N   0  0  0  0  0  0  0  0  0  0  0  0
    7.9401  -13.6889   20.5908 C   0  0  0  0  0  0  0  0  0  0  0  0
    6.7282  -13.8407   20.8917 O   0  0  0  0  0  0  0  0  0  0  0  0
    8.9829  -14.4774   21.1525 N   0  0  0  0  0  0  0  0  0  0  0  0
    8.7006  -15.4183   22.1920 C   0  0  0  0  0  0  0  0  0  0  0  0
    9.2802  -15.0135   23.5017 C   0  0  0  0  0  0  0  0  0  0  0  0
    9.4667  -13.7948   23.7457 O   0  0  0  0  0  0  0  0  0  0  0  0
    9.6386  -15.9506   24.5046 N   0  0  0  0  0  0  0  0  0  0  0  0
    9.1101  -15.9135   25.8547 C   0  0  1  0  0  0  0  0  0  0  0  0
    7.6074  -15.7454   25.8746 C   0  0  0  0  0  0  0  0  0  0  0  0
    7.2385  -14.3373   26.1529 C   0  0  0  0  0  0  0  0  0  0  0  0
    7.7391  -13.4898   27.1153 C   0  0  0  0  0  0  0  0  0  0  0  0
    7.1071  -12.2930   27.0016 N   0  0  0  0  0  0  0  0  0  0  0  0
    6.2218  -12.3881   25.9816 C   0  0  0  0  0  0  0  0  0  0  0  0
    6.3155  -13.6383   25.4771 N   0  0  0  0  0  0  0  0  0  0  0  0
    9.5670  -17.0494   26.6529 C   0  0  0  0  0  0  0  0  0  0  0  0
    9.5772  -18.2248   26.2113 O   0  0  0  0  0  0  0  0  0  0  0  0
   10.0098  -16.8429   27.9489 O   0  0  0  0  0  0  0  0  0  0  0  0
  2  1  1  0
  3  2  1  0
  3  4  1  6
  5  7  1  0
  5  3  1  0
  6  5  2  0
  8  9  1  0
  8  7  1  0
  9 11  1  0
 10  9  2  0
 11 12  1  0
 12 13  1  6
 13 14  1  0
 14 18  1  0
 15 14  2  0
 15 16  1  0
 16 17  1  0
 18 17  2  0
 19 12  1  0
 19 21  1  0
 20 19  2  0
M  END
$$$$
