SGH.pdb
     RDKit          3D

 21 21  0  0  1  0  0  0  0  0999 V2000
    8.2092  -12.5313   16.8448 O   0  0  0  0  0  0  0  0  0  0  0  0
    8.1526  -12.8666   18.2055 C   0  0  0  0  0  0  0  0  0  0  0  0
    8.6855  -14.2920   18.3584 C   0  0  2  0  0  0  0  0  0  0  0  0
    8.4945  -14.9483   17.0968 N   0  0  0  0  0  0  0  0  0  0  0  0
    7.9166  -14.9379   19.4541 C   0  0  0  0  0  0  0  0  0  0  0  0
    6.7790  -15.4082   19.1956 O   0  0  0  0  0  0  0  0  0  0  0  0
    8.5031  -14.9953   20.7492 N   0  0  0  0  0  0  0  0  0  0  0  0
    7.8436  -15.6864   21.8136 C   0  0  0  0  0  0  0  0  0  0  0  0
    8.5788  -15.5833   23.1036 C   0  0  0  0  0  0  0  0  0  0  0  0
    9.7337  -15.0877   23.1198 O   0  0  0  0  0  0  0  0  0  0  0  0
    8.0315  -16.0238   24.3359 N   0  0  0  0  0  0  0  0  0  0  0  0
    8.7296  -15.9134   25.6023 C   0  0  1  0  0  0  0  0  0  0  0  0
    7.8011  -15.5348   26.7344 C   0  0  0  0  0  0  0  0  0  0  0  0
    7.2802  -14.1596   26.5508 C   0  0  0  0  0  0  0  0  0  0  0  0
    7.8755  -13.0899   25.9212 C   0  0  0  0  0  0  0  0  0  0  0  0
    7.0322  -12.0276   25.9940 N   0  0  0  0  0  0  0  0  0  0  0  0
    5.9227  -12.4254   26.6604 C   0  0  0  0  0  0  0  0  0  0  0  0
    6.0911  -13.7248   26.9914 N   0  0  0  0  0  0  0  0  0  0  0  0
    9.5274  -17.1031   25.8933 C   0  0  0  0  0  0  0  0  0  0  0  0
    9.4374  -18.1582   25.2188 O   0  0  0  0  0  0  0  0  0  0  0  0
   10.4230  -17.0865   26.9496 O   0  0  0  0  0  0  0  0  0  0  0  0
  2  1  1  0
  3  2  1  0
  3  4  1  6
  5  7  1  0
  5  3  1  0
  6  5  2  0
  8  9  1  0
  8  7  1  0
  9 11  1  0
 10  9  2  0
 11 12  1  0
 12 13  1  1
 13 14  1  0
 14 18  1  0
 15 14  2  0
 15 16  1  0
 16 17  1  0
 18 17  2  0
 19 12  1  0
 19 21  1  0
 20 19  2  0
M  END
$$$$
