SGH.pdb
     RDKit          3D

 21 21  0  0  1  0  0  0  0  0999 V2000
    9.0876  -17.7660   15.3705 O   0  0  0  0  0  0  0  0  0  0  0  0
    9.8354  -16.5808   15.3137 C   0  0  0  0  0  0  0  0  0  0  0  0
   11.3140  -16.9641   15.2364 C   0  0  2  0  0  0  0  0  0  0  0  0
   11.4487  -17.8986   14.1559 N   0  0  0  0  0  0  0  0  0  0  0  0
   11.6876  -17.5571   16.5470 C   0  0  0  0  0  0  0  0  0  0  0  0
   12.0330  -18.7659   16.5847 O   0  0  0  0  0  0  0  0  0  0  0  0
   11.6378  -16.7287   17.7029 N   0  0  0  0  0  0  0  0  0  0  0  0
   12.0780  -17.2252   18.9699 C   0  0  0  0  0  0  0  0  0  0  0  0
   11.8393  -16.2587   20.0763 C   0  0  0  0  0  0  0  0  0  0  0  0
   12.6864  -15.3590   20.3056 O   0  0  0  0  0  0  0  0  0  0  0  0
   10.6841  -16.3035   20.8983 N   0  0  0  0  0  0  0  0  0  0  0  0
   10.4303  -15.3574   21.9679 C   0  0  1  0  0  0  0  0  0  0  0  0
    9.0278  -14.7947   21.9109 C   0  0  0  0  0  0  0  0  0  0  0  0
    8.8147  -14.0376   20.6548 C   0  0  0  0  0  0  0  0  0  0  0  0
    9.7192  -13.7521   19.6571 C   0  0  0  0  0  0  0  0  0  0  0  0
    9.0829  -13.0335   18.6961 N   0  0  0  0  0  0  0  0  0  0  0  0
    7.7965  -12.8702   19.0855 C   0  0  0  0  0  0  0  0  0  0  0  0
    7.6515  -13.4874   20.2789 N   0  0  0  0  0  0  0  0  0  0  0  0
   10.7704  -15.9083   23.2783 C   0  0  0  0  0  0  0  0  0  0  0  0
   10.7107  -15.2290   24.3327 O   0  0  0  0  0  0  0  0  0  0  0  0
   11.1765  -17.2282   23.3829 O   0  0  0  0  0  0  0  0  0  0  0  0
  2  1  1  0
  3  2  1  0
  3  4  1  6
  5  7  1  0
  5  3  1  0
  6  5  2  0
  8  9  1  0
  8  7  1  0
  9 11  1  0
 10  9  2  0
 11 12  1  0
 12 13  1  1
 13 14  1  0
 14 18  1  0
 15 14  2  0
 15 16  1  0
 16 17  1  0
 18 17  2  0
 19 12  1  0
 19 21  1  0
 20 19  2  0
M  END
$$$$
