SGH.pdb
     RDKit          3D

 21 21  0  0  1  0  0  0  0  0999 V2000
   13.6749  -19.0361   16.4248 O   0  0  0  0  0  0  0  0  0  0  0  0
   14.0154  -20.2827   16.9698 C   0  0  0  0  0  0  0  0  0  0  0  0
   13.3104  -20.4107   18.3210 C   0  0  2  0  0  0  0  0  0  0  0  0
   12.1661  -19.5459   18.2802 N   0  0  0  0  0  0  0  0  0  0  0  0
   14.2848  -20.0103   19.3694 C   0  0  0  0  0  0  0  0  0  0  0  0
   15.2950  -20.7348   19.5610 O   0  0  0  0  0  0  0  0  0  0  0  0
   14.0305  -18.8229   20.1110 N   0  0  0  0  0  0  0  0  0  0  0  0
   14.9633  -18.3698   21.0960 C   0  0  0  0  0  0  0  0  0  0  0  0
   14.5509  -17.0855   21.7252 C   0  0  0  0  0  0  0  0  0  0  0  0
   14.2071  -16.1215   20.9959 O   0  0  0  0  0  0  0  0  0  0  0  0
   14.5263  -16.8927   23.1303 N   0  0  0  0  0  0  0  0  0  0  0  0
   13.3019  -16.7336   23.8911 C   0  0  1  0  0  0  0  0  0  0  0  0
   12.2940  -17.8181   23.5832 C   0  0  0  0  0  0  0  0  0  0  0  0
   11.3615  -17.3833   22.5166 C   0  0  0  0  0  0  0  0  0  0  0  0
   11.3404  -16.1943   21.8230 C   0  0  0  0  0  0  0  0  0  0  0  0
   10.3098  -16.2333   20.9391 N   0  0  0  0  0  0  0  0  0  0  0  0
    9.6926  -17.4306   21.0762 C   0  0  0  0  0  0  0  0  0  0  0  0
   10.3457  -18.1168   22.0400 N   0  0  0  0  0  0  0  0  0  0  0  0
   13.5614  -16.5865   25.3220 C   0  0  0  0  0  0  0  0  0  0  0  0
   12.6462  -16.3823   26.1570 O   0  0  0  0  0  0  0  0  0  0  0  0
   14.8601  -16.6724   25.7957 O   0  0  0  0  0  0  0  0  0  0  0  0
  2  1  1  0
  3  2  1  0
  3  4  1  6
  5  7  1  0
  5  3  1  0
  6  5  2  0
  8  9  1  0
  8  7  1  0
  9 11  1  0
 10  9  2  0
 11 12  1  0
 12 13  1  1
 13 14  1  0
 14 18  1  0
 15 14  2  0
 15 16  1  0
 16 17  1  0
 18 17  2  0
 19 12  1  0
 19 21  1  0
 20 19  2  0
M  END
$$$$
