SGH.pdb
     RDKit          3D

 21 21  0  0  1  0  0  0  0  0999 V2000
   10.0709  -17.7998   13.8821 O   0  0  0  0  0  0  0  0  0  0  0  0
   11.0577  -17.4547   14.8171 C   0  0  0  0  0  0  0  0  0  0  0  0
   10.3559  -16.8664   16.0420 C   0  0  2  0  0  0  0  0  0  0  0  0
    9.2849  -16.0440   15.5567 N   0  0  0  0  0  0  0  0  0  0  0  0
   11.3682  -16.0869   16.8013 C   0  0  0  0  0  0  0  0  0  0  0  0
   11.3815  -14.8352   16.6776 O   0  0  0  0  0  0  0  0  0  0  0  0
   12.2789  -16.7930   17.6360 N   0  0  0  0  0  0  0  0  0  0  0  0
   13.2355  -16.0837   18.4280 C   0  0  0  0  0  0  0  0  0  0  0  0
   12.6663  -15.6027   19.7163 C   0  0  0  0  0  0  0  0  0  0  0  0
   13.3938  -14.9556   20.5110 O   0  0  0  0  0  0  0  0  0  0  0  0
   11.3212  -15.8423   20.0978 N   0  0  0  0  0  0  0  0  0  0  0  0
   10.7645  -15.4132   21.3663 C   0  0  1  0  0  0  0  0  0  0  0  0
    9.2825  -15.1277   21.2715 C   0  0  0  0  0  0  0  0  0  0  0  0
    9.0248  -13.9709   20.3817 C   0  0  0  0  0  0  0  0  0  0  0  0
    9.9320  -13.1708   19.7244 C   0  0  0  0  0  0  0  0  0  0  0  0
    9.2448  -12.2333   19.0218 N   0  0  0  0  0  0  0  0  0  0  0  0
    7.9242  -12.4422   19.2354 C   0  0  0  0  0  0  0  0  0  0  0  0
    7.8092  -13.5029   20.0648 N   0  0  0  0  0  0  0  0  0  0  0  0
   11.0991  -16.3343   22.4508 C   0  0  0  0  0  0  0  0  0  0  0  0
   11.4356  -17.5263   22.2448 O   0  0  0  0  0  0  0  0  0  0  0  0
   11.0492  -15.8951   23.7634 O   0  0  0  0  0  0  0  0  0  0  0  0
  2  1  1  0
  3  2  1  0
  3  4  1  6
  5  7  1  0
  5  3  1  0
  6  5  2  0
  8  9  1  0
  8  7  1  0
  9 11  1  0
 10  9  2  0
 11 12  1  0
 12 13  1  6
 13 14  1  0
 14 18  1  0
 15 14  2  0
 15 16  1  0
 16 17  1  0
 18 17  2  0
 19 12  1  0
 19 21  1  0
 20 19  2  0
M  END
$$$$
