RAH.pdb
     RDKit          3D

 27 27  0  0  1  0  0  0  0  0999 V2000
    8.4482  -11.2581   19.7931 N   0  0  0  0  0  0  0  0  0  0  0  0
    8.0672  -12.5666   19.4081 C   0  0  0  0  0  0  0  0  0  0  0  0
    6.8806  -13.0444   19.5751 N   0  0  0  0  0  0  0  0  0  0  0  0
    9.0224  -13.4546   18.7906 N   0  0  0  0  0  0  0  0  0  0  0  0
    8.6611  -14.8175   18.4651 C   0  0  0  0  0  0  0  0  0  0  0  0
    7.8629  -15.4100   19.5980 C   0  0  0  0  0  0  0  0  0  0  0  0
    8.1235  -16.8697   19.6779 C   0  0  0  0  0  0  0  0  0  0  0  0
    8.9531  -17.3113   20.8563 C   0  0  2  0  0  0  0  0  0  0  0  0
    8.8032  -18.7766   20.9064 N   0  0  0  0  0  0  0  0  0  0  0  0
    8.5130  -16.7441   22.1334 C   0  0  0  0  0  0  0  0  0  0  0  0
    8.5305  -15.4863   22.3132 O   0  0  0  0  0  0  0  0  0  0  0  0
    6.7129  -14.0052   19.2020 C   0  0  0  0  0  0  0  0  0  0  0  0
    6.7712  -18.0229   25.1625 C   0  0  2  0  0  0  0  0  0  0  0  0
    7.7020  -16.9932   24.5206 N   0  0  0  0  0  0  0  0  0  0  0  0
    8.0525  -17.5088   23.2246 C   0  0  0  0  0  0  0  0  0  0  0  0
    8.8649  -16.7096   25.3904 O   0  0  0  0  0  0  0  0  0  0  0  0
    8.7904  -15.6643   26.0779 N   0  0  0  0  0  0  0  0  0  0  0  0
   10.0038  -17.5075   25.4903 C   0  0  1  0  0  0  0  0  0  0  0  0
   11.2182  -17.2582   26.2246 C   0  0  0  0  0  0  0  0  0  0  0  0
   10.8475  -17.0395   27.6665 C   0  0  0  0  0  0  0  0  0  0  0  0
   10.4345  -15.6913   28.0194 C   0  0  0  0  0  0  0  0  0  0  0  0
   10.2131  -14.6316   27.1719 N   0  0  0  0  0  0  0  0  0  0  0  0
    9.8456  -13.5414   27.9087 C   0  0  0  0  0  0  0  0  0  0  0  0
    9.8404  -13.9271   29.2047 N   0  0  0  0  0  0  0  0  0  0  0  0
   10.1975  -15.2253   29.2539 C   0  0  0  0  0  0  0  0  0  0  0  0
   12.2660  -18.2915   26.0411 O   0  0  0  0  0  0  0  0  0  0  0  0
   12.1504  -19.3927   25.2234 O   0  0  0  0  0  0  0  0  0  0  0  0
  2  1  1  0
  2  4  1  0
  3  2  2  0
  5  4  1  0
  6  5  1  0
  7  6  1  0
  8  9  1  1
  8  7  1  0
 10 11  2  0
 10  8  1  0
 13 12  1  6
 13 14  1  0
 13 15  1  0
 14 10  1  0
 15 17  1  0
 16 15  2  0
 17 18  1  0
 18 25  1  0
 18 19  1  6
 20 19  1  0
 21 20  2  0
 22 21  1  0
 23 22  1  0
 23 24  2  0
 24 20  1  0
 25 27  2  0
 25 26  1  0
M  END
$$$$
