RAH.pdb
     RDKit          3D

 27 27  0  0  1  0  0  0  0  0999 V2000
    8.6059  -13.6943   17.1815 N   0  0  0  0  0  0  0  0  0  0  0  0
    9.2511  -13.2004   18.3414 C   0  0  0  0  0  0  0  0  0  0  0  0
   10.5191  -13.3060   18.5543 N   0  0  0  0  0  0  0  0  0  0  0  0
    8.4928  -12.5342   19.3725 N   0  0  0  0  0  0  0  0  0  0  0  0
    7.9795  -13.2726   20.5061 C   0  0  0  0  0  0  0  0  0  0  0  0
    7.1023  -14.3968   20.0180 C   0  0  0  0  0  0  0  0  0  0  0  0
    6.5532  -15.1383   21.1815 C   0  0  0  0  0  0  0  0  0  0  0  0
    7.1427  -16.5068   21.4082 C   0  0  2  0  0  0  0  0  0  0  0  0
    6.4620  -17.3855   20.4403 N   0  0  0  0  0  0  0  0  0  0  0  0
    6.9229  -17.0275   22.7598 C   0  0  0  0  0  0  0  0  0  0  0  0
    5.7648  -16.9826   23.2809 O   0  0  0  0  0  0  0  0  0  0  0  0
   10.8765  -12.8769   19.4368 C   0  0  0  0  0  0  0  0  0  0  0  0
    6.6524  -19.4198   24.4060 C   0  0  1  0  0  0  0  0  0  0  0  0
    7.7131  -18.3746   24.7547 N   0  0  0  0  0  0  0  0  0  0  0  0
    7.9307  -17.5981   23.5639 C   0  0  0  0  0  0  0  0  0  0  0  0
    8.9362  -19.0132   25.2891 O   0  0  0  0  0  0  0  0  0  0  0  0
    8.7616  -19.8322   26.2216 N   0  0  0  0  0  0  0  0  0  0  0  0
   10.2313  -18.7686   24.8345 C   0  0  2  0  0  0  0  0  0  0  0  0
   11.2628  -17.9647   25.4395 C   0  0  0  0  0  0  0  0  0  0  0  0
   11.0279  -16.5343   25.0356 C   0  0  0  0  0  0  0  0  0  0  0  0
   11.1612  -16.2440   23.6176 C   0  0  0  0  0  0  0  0  0  0  0  0
   11.4616  -17.1236   22.6046 N   0  0  0  0  0  0  0  0  0  0  0  0
   11.4982  -16.4435   21.4204 C   0  0  0  0  0  0  0  0  0  0  0  0
   11.2217  -15.1501   21.7018 N   0  0  0  0  0  0  0  0  0  0  0  0
   11.0212  -15.0470   23.0302 C   0  0  0  0  0  0  0  0  0  0  0  0
   11.3951  -18.1434   26.9057 O   0  0  0  0  0  0  0  0  0  0  0  0
   10.4755  -17.7165   27.8367 O   0  0  0  0  0  0  0  0  0  0  0  0
  2  1  1  0
  2  4  1  0
  3  2  2  0
  5  4  1  0
  6  5  1  0
  7  6  1  0
  8  9  1  6
  8  7  1  0
 10 11  2  0
 10  8  1  0
 13 12  1  1
 13 14  1  0
 13 15  1  0
 14 10  1  0
 15 17  1  0
 16 15  2  0
 17 18  1  0
 18 25  1  0
 18 19  1  6
 20 19  1  0
 21 20  2  0
 22 21  1  0
 23 22  1  0
 23 24  2  0
 24 20  1  0
 25 27  2  0
 25 26  1  0
M  END
$$$$
