RAH.pdb
     RDKit          3D

 27 27  0  0  1  0  0  0  0  0999 V2000
    7.7757  -12.4207   15.7408 N   0  0  0  0  0  0  0  0  0  0  0  0
    7.9646  -13.8231   15.7967 C   0  0  0  0  0  0  0  0  0  0  0  0
    7.9665  -14.5866   14.7569 N   0  0  0  0  0  0  0  0  0  0  0  0
    8.1704  -14.4835   17.0631 N   0  0  0  0  0  0  0  0  0  0  0  0
    8.5007  -13.7220   18.2484 C   0  0  0  0  0  0  0  0  0  0  0  0
    7.2874  -13.6242   19.1371 C   0  0  0  0  0  0  0  0  0  0  0  0
    6.9733  -14.9634   19.6965 C   0  0  0  0  0  0  0  0  0  0  0  0
    8.0572  -15.5757   20.5463 C   0  0  2  0  0  0  0  0  0  0  0  0
    7.8190  -17.0290   20.4877 N   0  0  0  0  0  0  0  0  0  0  0  0
    8.0242  -15.1442   21.9459 C   0  0  0  0  0  0  0  0  0  0  0  0
    8.3638  -13.9599   22.2571 O   0  0  0  0  0  0  0  0  0  0  0  0
    8.1705  -15.5968   14.9261 C   0  0  0  0  0  0  0  0  0  0  0  0
    6.6448  -16.5538   25.1054 C   0  0  2  0  0  0  0  0  0  0  0  0
    7.5882  -15.5756   24.4040 N   0  0  0  0  0  0  0  0  0  0  0  0
    7.6307  -15.9672   23.0209 C   0  0  0  0  0  0  0  0  0  0  0  0
    8.9129  -15.5465   25.0626 O   0  0  0  0  0  0  0  0  0  0  0  0
    9.1184  -14.5795   25.8330 N   0  0  0  0  0  0  0  0  0  0  0  0
    9.9163  -16.4981   24.8855 C   0  0  1  0  0  0  0  0  0  0  0  0
   11.2179  -16.5615   25.5005 C   0  0  0  0  0  0  0  0  0  0  0  0
   11.0201  -16.8024   26.9726 C   0  0  0  0  0  0  0  0  0  0  0  0
   10.5290  -15.6710   27.7417 C   0  0  0  0  0  0  0  0  0  0  0  0
   10.2710  -14.3977   27.2916 N   0  0  0  0  0  0  0  0  0  0  0  0
    9.8304  -13.6366   28.3371 C   0  0  0  0  0  0  0  0  0  0  0  0
    9.8167  -14.4368   29.4269 N   0  0  0  0  0  0  0  0  0  0  0  0
   10.2404  -15.6593   29.0509 C   0  0  0  0  0  0  0  0  0  0  0  0
   12.1450  -17.5315   24.8692 O   0  0  0  0  0  0  0  0  0  0  0  0
   13.4749  -17.6748   25.1941 O   0  0  0  0  0  0  0  0  0  0  0  0
  2  1  1  0
  2  4  1  0
  3  2  2  0
  5  4  1  0
  6  5  1  0
  7  6  1  0
  8  9  1  1
  8  7  1  0
 10 11  2  0
 10  8  1  0
 13 12  1  6
 13 14  1  0
 13 15  1  0
 14 10  1  0
 15 17  1  0
 16 15  2  0
 17 18  1  0
 18 25  1  0
 18 19  1  6
 20 19  1  0
 21 20  2  0
 22 21  1  0
 23 22  1  0
 23 24  2  0
 24 20  1  0
 25 27  2  0
 25 26  1  0
M  END
$$$$
