RAH.pdb
     RDKit          3D

 27 27  0  0  1  0  0  0  0  0999 V2000
    7.5597  -15.9687   14.1633 N   0  0  0  0  0  0  0  0  0  0  0  0
    7.9543  -14.6171   14.3156 C   0  0  0  0  0  0  0  0  0  0  0  0
    7.9464  -13.7570   13.3542 N   0  0  0  0  0  0  0  0  0  0  0  0
    8.3982  -14.1248   15.5973 N   0  0  0  0  0  0  0  0  0  0  0  0
    9.2059  -14.9523   16.4673 C   0  0  0  0  0  0  0  0  0  0  0  0
    8.6611  -16.3576   16.4720 C   0  0  0  0  0  0  0  0  0  0  0  0
    9.5233  -17.2206   17.3188 C   0  0  0  0  0  0  0  0  0  0  0  0
   10.9876  -17.2147   16.9616 C   0  0  2  0  0  0  0  0  0  0  0  0
   11.2622  -18.5641   16.4364 N   0  0  0  0  0  0  0  0  0  0  0  0
   11.8719  -16.9586   18.1011 C   0  0  0  0  0  0  0  0  0  0  0  0
   12.1387  -17.8894   18.9241 O   0  0  0  0  0  0  0  0  0  0  0  0
    8.2609  -12.7910   13.5962 C   0  0  0  0  0  0  0  0  0  0  0  0
   13.9442  -14.0448   19.2215 C   0  0  1  0  0  0  0  0  0  0  0  0
   13.3514  -15.4311   19.4782 N   0  0  0  0  0  0  0  0  0  0  0  0
   12.4771  -15.7144   18.3720 C   0  0  0  0  0  0  0  0  0  0  0  0
   12.6894  -15.4920   20.8000 O   0  0  0  0  0  0  0  0  0  0  0  0
   13.4334  -15.3106   21.7921 N   0  0  0  0  0  0  0  0  0  0  0  0
   11.3313  -15.7314   21.0052 C   0  0  1  0  0  0  0  0  0  0  0  0
   10.5893  -15.7162   22.2404 C   0  0  0  0  0  0  0  0  0  0  0  0
    9.1388  -15.5000   21.9034 C   0  0  0  0  0  0  0  0  0  0  0  0
    8.8492  -14.3694   21.0369 C   0  0  0  0  0  0  0  0  0  0  0  0
    9.6474  -13.2792   20.7832 N   0  0  0  0  0  0  0  0  0  0  0  0
    8.9988  -12.4439   19.9183 C   0  0  0  0  0  0  0  0  0  0  0  0
    7.8058  -13.0165   19.6399 N   0  0  0  0  0  0  0  0  0  0  0  0
    7.7316  -14.1761   20.3220 C   0  0  0  0  0  0  0  0  0  0  0  0
   10.8181  -16.8993   23.1048 O   0  0  0  0  0  0  0  0  0  0  0  0
   10.3644  -17.0285   24.3979 O   0  0  0  0  0  0  0  0  0  0  0  0
  2  1  1  0
  2  4  1  0
  3  2  2  0
  5  4  1  0
  6  5  1  0
  7  6  1  0
  8  9  1  1
  8  7  1  0
 10 11  2  0
 10  8  1  0
 13 12  1  6
 13 14  1  0
 13 15  1  0
 14 10  1  0
 15 17  1  0
 16 15  2  0
 17 18  1  0
 18 25  1  0
 18 19  1  1
 20 19  1  0
 21 20  2  0
 22 21  1  0
 23 22  1  0
 23 24  2  0
 24 20  1  0
 25 27  2  0
 25 26  1  0
M  END
$$$$
