RAH.pdb
     RDKit          3D

 27 27  0  0  1  0  0  0  0  0999 V2000
    8.8518  -14.2986   18.8674 N   0  0  0  0  0  0  0  0  0  0  0  0
    8.7680  -13.0247   19.4804 C   0  0  0  0  0  0  0  0  0  0  0  0
    8.9928  -11.9162   18.8600 N   0  0  0  0  0  0  0  0  0  0  0  0
    8.4152  -12.9057   20.8745 N   0  0  0  0  0  0  0  0  0  0  0  0
    7.8046  -14.0122   21.5792 C   0  0  0  0  0  0  0  0  0  0  0  0
    6.7406  -14.6345   20.7119 C   0  0  0  0  0  0  0  0  0  0  0  0
    6.0554  -15.7148   21.4659 C   0  0  0  0  0  0  0  0  0  0  0  0
    6.9297  -16.8773   21.8611 C   0  0  2  0  0  0  0  0  0  0  0  0
    6.6167  -17.9427   20.8920 N   0  0  0  0  0  0  0  0  0  0  0  0
    6.6732  -17.3751   23.2148 C   0  0  0  0  0  0  0  0  0  0  0  0
    5.4855  -17.4192   23.6645 O   0  0  0  0  0  0  0  0  0  0  0  0
    8.9008  -11.0434   19.4260 C   0  0  0  0  0  0  0  0  0  0  0  0
    6.5359  -19.6423   25.1324 C   0  0  2  0  0  0  0  0  0  0  0  0
    7.4494  -18.4407   25.3783 N   0  0  0  0  0  0  0  0  0  0  0  0
    7.6754  -17.8283   24.0968 C   0  0  0  0  0  0  0  0  0  0  0  0
    8.6880  -18.8463   26.0787 O   0  0  0  0  0  0  0  0  0  0  0  0
    8.6919  -20.0062   26.5534 N   0  0  0  0  0  0  0  0  0  0  0  0
    9.8168  -18.0438   26.2390 C   0  0  1  0  0  0  0  0  0  0  0  0
   11.0401  -18.3379   26.9415 C   0  0  0  0  0  0  0  0  0  0  0  0
   12.0972  -17.3911   26.4411 C   0  0  0  0  0  0  0  0  0  0  0  0
   12.1735  -17.2281   24.9988 C   0  0  0  0  0  0  0  0  0  0  0  0
   11.3998  -17.8413   24.0419 N   0  0  0  0  0  0  0  0  0  0  0  0
   11.8009  -17.4181   22.8064 C   0  0  0  0  0  0  0  0  0  0  0  0
   12.8175  -16.5479   23.0006 N   0  0  0  0  0  0  0  0  0  0  0  0
   13.0294  -16.4447   24.3272 C   0  0  0  0  0  0  0  0  0  0  0  0
   10.9104  -18.3409   28.4188 O   0  0  0  0  0  0  0  0  0  0  0  0
   11.8979  -18.7315   29.2945 O   0  0  0  0  0  0  0  0  0  0  0  0
  2  1  1  0
  2  4  1  0
  3  2  2  0
  5  4  1  0
  6  5  1  0
  7  6  1  0
  8  9  1  6
  8  7  1  0
 10 11  2  0
 10  8  1  0
 13 12  1  1
 13 14  1  0
 13 15  1  0
 14 10  1  0
 15 17  1  0
 16 15  2  0
 17 18  1  0
 18 25  1  0
 18 19  1  1
 20 19  1  0
 21 20  2  0
 22 21  1  0
 23 22  1  0
 23 24  2  0
 24 20  1  0
 25 27  2  0
 25 26  1  0
M  END
$$$$
