RAH.pdb
     RDKit          3D

 27 27  0  0  1  0  0  0  0  0999 V2000
   10.3634  -13.2072   20.1427 N   0  0  0  0  0  0  0  0  0  0  0  0
    9.3652  -13.0774   19.1466 C   0  0  0  0  0  0  0  0  0  0  0  0
    9.0813  -11.9644   18.5593 N   0  0  0  0  0  0  0  0  0  0  0  0
    8.5945  -14.2238   18.7298 N   0  0  0  0  0  0  0  0  0  0  0  0
    7.6004  -14.8042   19.6066 C   0  0  0  0  0  0  0  0  0  0  0  0
    7.9869  -14.5516   21.0413 C   0  0  0  0  0  0  0  0  0  0  0  0
    6.9784  -15.1654   21.9419 C   0  0  0  0  0  0  0  0  0  0  0  0
    7.0077  -16.6709   22.0089 C   0  0  2  0  0  0  0  0  0  0  0  0
    5.8337  -17.1146   21.2362 N   0  0  0  0  0  0  0  0  0  0  0  0
    6.9100  -17.2031   23.3703 C   0  0  0  0  0  0  0  0  0  0  0  0
    5.7919  -17.2106   23.9742 O   0  0  0  0  0  0  0  0  0  0  0  0
    8.3137  -11.9983   17.8520 C   0  0  0  0  0  0  0  0  0  0  0  0
    8.5578  -19.6618   25.3668 C   0  0  1  0  0  0  0  0  0  0  0  0
    7.9342  -18.2668   25.4290 N   0  0  0  0  0  0  0  0  0  0  0  0
    7.9978  -17.7294   24.0965 C   0  0  0  0  0  0  0  0  0  0  0  0
    8.6023  -17.4285   26.4489 O   0  0  0  0  0  0  0  0  0  0  0  0
    8.5679  -17.8657   27.6229 N   0  0  0  0  0  0  0  0  0  0  0  0
    9.2480  -16.2194   26.1939 C   0  0  2  0  0  0  0  0  0  0  0  0
   10.0682  -15.4309   27.0781 C   0  0  0  0  0  0  0  0  0  0  0  0
    9.2004  -14.3561   27.6748 C   0  0  0  0  0  0  0  0  0  0  0  0
    8.1981  -13.7845   26.7908 C   0  0  0  0  0  0  0  0  0  0  0  0
    8.0114  -14.0437   25.4536 N   0  0  0  0  0  0  0  0  0  0  0  0
    6.9661  -13.2924   24.9960 C   0  0  0  0  0  0  0  0  0  0  0  0
    6.5103  -12.5731   26.0464 N   0  0  0  0  0  0  0  0  0  0  0  0
    7.2636  -12.8814   27.1201 C   0  0  0  0  0  0  0  0  0  0  0  0
   10.8029  -16.2205   28.0959 O   0  0  0  0  0  0  0  0  0  0  0  0
   11.7029  -15.6990   28.9974 O   0  0  0  0  0  0  0  0  0  0  0  0
  2  1  1  0
  2  4  1  0
  3  2  2  0
  5  4  1  0
  6  5  1  0
  7  6  1  0
  8  9  1  6
  8  7  1  0
 10 11  2  0
 10  8  1  0
 13 12  1  6
 13 14  1  0
 13 15  1  0
 14 10  1  0
 15 17  1  0
 16 15  2  0
 17 18  1  0
 18 25  1  0
 18 19  1  6
 20 19  1  0
 21 20  2  0
 22 21  1  0
 23 22  1  0
 23 24  2  0
 24 20  1  0
 25 27  2  0
 25 26  1  0
M  END
$$$$
