RVY.pdb
     RDKit          3D

 31 31  0  0  1  0  0  0  0  0999 V2000
   25.3345  -21.3470  -22.1785 N   0  0  0  0  0  0  0  0  0  0  0  0
   26.3027  -20.3489  -21.8876 C   0  0  0  0  0  0  0  0  0  0  0  0
   26.2445  -19.2505  -22.5251 N   0  0  0  0  0  0  0  0  0  0  0  0
   27.3180  -20.5543  -20.9126 N   0  0  0  0  0  0  0  0  0  0  0  0
   28.2270  -21.6572  -21.0340 C   0  0  0  0  0  0  0  0  0  0  0  0
   27.5649  -22.9431  -20.6106 C   0  0  0  0  0  0  0  0  0  0  0  0
   27.1031  -22.8875  -19.1629 C   0  0  0  0  0  0  0  0  0  0  0  0
   28.3354  -22.9205  -18.2963 C   0  0  2  0  0  0  0  0  0  0  0  0
   28.7575  -24.3036  -18.1753 N   0  0  0  0  0  0  0  0  0  0  0  0
   28.0285  -22.4370  -16.9208 C   0  0  0  0  0  0  0  0  0  0  0  0
   27.7651  -23.3053  -16.0497 O   0  0  0  0  0  0  0  0  0  0  0  0
   26.8867  -18.4411  -22.3803 C   0  0  0  0  0  0  0  0  0  0  0  0
   27.6073  -18.2910  -15.9770 C   0  0  2  0  0  0  0  0  0  0  0  0
   28.1768  -19.2707  -14.9948 C   0  0  0  0  0  0  0  0  0  0  0  0
   28.0413  -18.7741  -13.5949 C   0  0  1  0  0  0  0  0  0  0  0  0
   27.7079  -20.6863  -15.2035 N   0  0  0  0  0  0  0  0  0  0  0  0
   28.0242  -21.0635  -16.5719 C   0  0  0  0  0  0  0  0  0  0  0  0
   26.2824  -20.8279  -14.9088 O   0  0  0  0  0  0  0  0  0  0  0  0
   25.4343  -20.4163  -15.7811 O   0  0  0  0  0  0  0  0  0  0  0  0
   18.5651  -20.8459  -10.6932 C   0  0  0  0  0  0  0  0  0  0  0  0
   19.8953  -21.0904  -11.0308 C   0  0  0  0  0  0  0  0  0  0  0  0
   20.2276  -22.1966  -11.7684 C   0  0  0  0  0  0  0  0  0  0  0  0
   21.5404  -22.4234  -12.0926 C   0  0  0  0  0  0  0  0  0  0  0  0
   22.5636  -21.5787  -11.7066 C   0  0  0  0  0  0  0  0  0  0  0  0
   23.9643  -21.8727  -12.0880 C   0  0  1  0  0  0  0  0  0  0  0  0
   24.2829  -21.2229  -13.4250 N   0  0  0  0  0  0  0  0  0  0  0  0
   25.6851  -21.3759  -13.7575 C   0  0  0  0  0  0  0  0  0  0  0  0
   23.9891  -19.7747  -13.3886 O   0  0  0  0  0  0  0  0  0  0  0  0
   22.8631  -19.2101  -13.9871 C   0  0  0  0  0  0  0  0  0  0  0  0
   22.2344  -20.4767  -10.9721 C   0  0  0  0  0  0  0  0  0  0  0  0
   20.9084  -20.2309  -10.6342 O   0  0  0  0  0  0  0  0  0  0  0  0
  1  2  1  0
  2  4  1  0
  2  3  2  0
  4  5  1  0
  6  5  1  0
  7  6  1  0
  8  7  1  0
  8  9  1  1
 10  8  1  0
 10 16  1  0
 11 10  2  0
 13 12  1  6
 13 14  1  0
 13 15  1  0
 15 17  1  0
 15 16  1  6
 17 18  2  0
 19 20  1  0
 20 30  2  0
 21 22  2  0
 21 20  1  0
 22 23  1  0
 23 24  1  0
 23 29  2  0
 25 24  1  6
 26 25  1  0
 26 17  1  0
 27 25  1  0
 28 27  1  0
 30 29  1  0
 31 27  2  0
M  END
$$$$
