RVY.pdb
     RDKit          3D

 31 31  0  0  1  0  0  0  0  0999 V2000
   17.5827  -23.9110  -12.1892 N   0  0  0  0  0  0  0  0  0  0  0  0
   17.9585  -24.4215  -10.9178 C   0  0  0  0  0  0  0  0  0  0  0  0
   17.0420  -24.6516  -10.0671 N   0  0  0  0  0  0  0  0  0  0  0  0
   19.3185  -24.6750  -10.5864 N   0  0  0  0  0  0  0  0  0  0  0  0
   20.3244  -23.6860  -10.8466 C   0  0  0  0  0  0  0  0  0  0  0  0
   19.8610  -22.3236  -10.3991 C   0  0  0  0  0  0  0  0  0  0  0  0
   20.8363  -21.2335  -10.8148 C   0  0  0  0  0  0  0  0  0  0  0  0
   22.2040  -21.8608  -10.8953 C   0  0  2  0  0  0  0  0  0  0  0  0
   22.9112  -21.5456   -9.6679 N   0  0  0  0  0  0  0  0  0  0  0  0
   22.9914  -21.2723  -12.0149 C   0  0  0  0  0  0  0  0  0  0  0  0
   23.5287  -20.1525  -11.8159 O   0  0  0  0  0  0  0  0  0  0  0  0
   17.2009  -25.0084   -9.0998 C   0  0  0  0  0  0  0  0  0  0  0  0
   25.7874  -22.9240  -14.2560 C   0  0  2  0  0  0  0  0  0  0  0  0
   24.6873  -22.2978  -15.0599 C   0  0  0  0  0  0  0  0  0  0  0  0
   23.8488  -23.3343  -15.7288 C   0  0  2  0  0  0  0  0  0  0  0  0
   23.9064  -21.2495  -14.3126 N   0  0  0  0  0  0  0  0  0  0  0  0
   23.1501  -21.9186  -13.2661 C   0  0  0  0  0  0  0  0  0  0  0  0
   23.0439  -20.4818  -15.2102 O   0  0  0  0  0  0  0  0  0  0  0  0
   21.8267  -20.8628  -15.3618 O   0  0  0  0  0  0  0  0  0  0  0  0
   18.7882  -14.8044  -20.3106 C   0  0  0  0  0  0  0  0  0  0  0  0
   19.5798  -15.4320  -19.3501 C   0  0  0  0  0  0  0  0  0  0  0  0
   20.9095  -15.1193  -19.2405 C   0  0  0  0  0  0  0  0  0  0  0  0
   21.6751  -15.7453  -18.2907 C   0  0  0  0  0  0  0  0  0  0  0  0
   21.1652  -16.6922  -17.4231 C   0  0  0  0  0  0  0  0  0  0  0  0
   22.0392  -17.3344  -16.4144 C   0  0  1  0  0  0  0  0  0  0  0  0
   22.4749  -18.7054  -16.9061 N   0  0  0  0  0  0  0  0  0  0  0  0
   23.3733  -19.3368  -15.9604 C   0  0  0  0  0  0  0  0  0  0  0  0
   23.1889  -18.5984  -18.1958 O   0  0  0  0  0  0  0  0  0  0  0  0
   24.5787  -18.5401  -18.2952 C   0  0  0  0  0  0  0  0  0  0  0  0
   19.8412  -17.0047  -17.5308 C   0  0  0  0  0  0  0  0  0  0  0  0
   19.0499  -16.3800  -18.4880 O   0  0  0  0  0  0  0  0  0  0  0  0
  1  2  1  0
  2  4  1  0
  2  3  2  0
  4  5  1  0
  6  5  1  0
  7  6  1  0
  8  7  1  0
  8  9  1  1
 10  8  1  0
 10 16  1  0
 11 10  2  0
 13 12  1  6
 13 14  1  0
 13 15  1  0
 15 17  1  0
 15 16  1  6
 17 18  2  0
 19 20  1  0
 20 30  2  0
 21 22  2  0
 21 20  1  0
 22 23  1  0
 23 24  1  0
 23 29  2  0
 25 24  1  1
 26 25  1  0
 26 17  1  0
 27 25  1  0
 28 27  1  0
 30 29  1  0
 31 27  2  0
M  END
$$$$
