RVY.pdb
     RDKit          3D

 31 31  0  0  1  0  0  0  0  0999 V2000
   23.4035  -24.3939  -18.6888 N   0  0  0  0  0  0  0  0  0  0  0  0
   22.5458  -25.1776  -17.8712 C   0  0  0  0  0  0  0  0  0  0  0  0
   21.5114  -25.6909  -18.4031 N   0  0  0  0  0  0  0  0  0  0  0  0
   22.8201  -25.3938  -16.4921 N   0  0  0  0  0  0  0  0  0  0  0  0
   23.5204  -24.4020  -15.7283 C   0  0  0  0  0  0  0  0  0  0  0  0
   22.6804  -23.1612  -15.5676 C   0  0  0  0  0  0  0  0  0  0  0  0
   23.4133  -22.0836  -14.7841 C   0  0  0  0  0  0  0  0  0  0  0  0
   24.8882  -22.3717  -14.8952 C   0  0  2  0  0  0  0  0  0  0  0  0
   25.3995  -22.5985  -13.5562 N   0  0  0  0  0  0  0  0  0  0  0  0
   25.6175  -21.1951  -15.4463 C   0  0  0  0  0  0  0  0  0  0  0  0
   25.6645  -20.1600  -14.7331 O   0  0  0  0  0  0  0  0  0  0  0  0
   20.8537  -26.3427  -17.9225 C   0  0  0  0  0  0  0  0  0  0  0  0
   28.6401  -19.2679  -18.8631 C   0  0  1  0  0  0  0  0  0  0  0  0
   27.9927  -20.4151  -18.1466 C   0  0  0  0  0  0  0  0  0  0  0  0
   29.0129  -21.3409  -17.5748 C   0  0  1  0  0  0  0  0  0  0  0  0
   26.9143  -20.0008  -17.1809 N   0  0  0  0  0  0  0  0  0  0  0  0
   26.2443  -21.2053  -16.7172 C   0  0  0  0  0  0  0  0  0  0  0  0
   25.9828  -19.0530  -17.7916 O   0  0  0  0  0  0  0  0  0  0  0  0
   25.1130  -19.5012  -18.6236 O   0  0  0  0  0  0  0  0  0  0  0  0
   21.4492  -12.0404  -20.5905 C   0  0  0  0  0  0  0  0  0  0  0  0
   22.2242  -12.9133  -19.8287 C   0  0  0  0  0  0  0  0  0  0  0  0
   23.5807  -12.7373  -19.7447 C   0  0  0  0  0  0  0  0  0  0  0  0
   24.3295  -13.6043  -18.9914 C   0  0  0  0  0  0  0  0  0  0  0  0
   23.7764  -14.6653  -18.3002 C   0  0  0  0  0  0  0  0  0  0  0  0
   24.6344  -15.5689  -17.4995 C   0  0  1  0  0  0  0  0  0  0  0  0
   25.0130  -16.7880  -18.3252 N   0  0  0  0  0  0  0  0  0  0  0  0
   25.9011  -17.6625  -17.5860 C   0  0  0  0  0  0  0  0  0  0  0  0
   25.7121  -16.3868  -19.5642 O   0  0  0  0  0  0  0  0  0  0  0  0
   27.0550  -16.0117  -19.5944 C   0  0  0  0  0  0  0  0  0  0  0  0
   22.4257  -14.8421  -18.3826 C   0  0  0  0  0  0  0  0  0  0  0  0
   21.6508  -13.9727  -19.1419 O   0  0  0  0  0  0  0  0  0  0  0  0
  1  2  1  0
  2  4  1  0
  2  3  2  0
  4  5  1  0
  6  5  1  0
  7  6  1  0
  8  7  1  0
  8  9  1  1
 10  8  1  0
 10 16  1  0
 11 10  2  0
 13 12  1  6
 13 14  1  0
 13 15  1  0
 15 17  1  0
 15 16  1  6
 17 18  2  0
 19 20  1  0
 20 30  2  0
 21 22  2  0
 21 20  1  0
 22 23  1  0
 23 24  1  0
 23 29  2  0
 25 24  1  1
 26 25  1  0
 26 17  1  0
 27 25  1  0
 28 27  1  0
 30 29  1  0
 31 27  2  0
M  END
$$$$
