RVY.pdb
     RDKit          3D

 31 31  0  0  1  0  0  0  0  0999 V2000
   27.6473  -26.4370  -16.1781 N   0  0  0  0  0  0  0  0  0  0  0  0
   28.1994  -26.3495  -17.4842 C   0  0  0  0  0  0  0  0  0  0  0  0
   27.7948  -27.1724  -18.3647 N   0  0  0  0  0  0  0  0  0  0  0  0
   29.1798  -25.3739  -17.8172 N   0  0  0  0  0  0  0  0  0  0  0  0
   29.1137  -24.0574  -17.2514 C   0  0  0  0  0  0  0  0  0  0  0  0
   27.8909  -23.9110  -16.3828 C   0  0  0  0  0  0  0  0  0  0  0  0
   27.7653  -22.5033  -15.8215 C   0  0  0  0  0  0  0  0  0  0  0  0
   27.6163  -21.5648  -16.9909 C   0  0  2  0  0  0  0  0  0  0  0  0
   28.8369  -20.7869  -17.0957 N   0  0  0  0  0  0  0  0  0  0  0  0
   26.5043  -20.6009  -16.7579 C   0  0  0  0  0  0  0  0  0  0  0  0
   26.7494  -19.6018  -16.0339 O   0  0  0  0  0  0  0  0  0  0  0  0
   28.2027  -27.2740  -19.3195 C   0  0  0  0  0  0  0  0  0  0  0  0
   22.3795  -18.5080  -18.2681 C   0  0  1  0  0  0  0  0  0  0  0  0
   23.6331  -19.3232  -18.3803 C   0  0  0  0  0  0  0  0  0  0  0  0
   24.6212  -18.6737  -19.2894 C   0  0  1  0  0  0  0  0  0  0  0  0
   24.1974  -19.7601  -17.0544 N   0  0  0  0  0  0  0  0  0  0  0  0
   25.2113  -20.7701  -17.3125 C   0  0  0  0  0  0  0  0  0  0  0  0
   23.1485  -20.2487  -16.1600 O   0  0  0  0  0  0  0  0  0  0  0  0
   22.5602  -21.3520  -16.4538 O   0  0  0  0  0  0  0  0  0  0  0  0
   17.4944  -22.1150   -9.7336 C   0  0  0  0  0  0  0  0  0  0  0  0
   18.5573  -21.5811  -10.4605 C   0  0  0  0  0  0  0  0  0  0  0  0
   19.5211  -22.4055  -10.9797 C   0  0  0  0  0  0  0  0  0  0  0  0
   20.5604  -21.8653  -11.6924 C   0  0  0  0  0  0  0  0  0  0  0  0
   20.6879  -20.5080  -11.9178 C   0  0  0  0  0  0  0  0  0  0  0  0
   21.8313  -19.9806  -12.6979 C   0  0  1  0  0  0  0  0  0  0  0  0
   21.5852  -20.1925  -14.1831 N   0  0  0  0  0  0  0  0  0  0  0  0
   22.6753  -19.6567  -14.9734 C   0  0  0  0  0  0  0  0  0  0  0  0
   20.3461  -19.5105  -14.6127 O   0  0  0  0  0  0  0  0  0  0  0  0
   19.1100  -20.1518  -14.6883 C   0  0  0  0  0  0  0  0  0  0  0  0
   19.7291  -19.6856  -11.4016 C   0  0  0  0  0  0  0  0  0  0  0  0
   18.6682  -20.2159  -10.6763 O   0  0  0  0  0  0  0  0  0  0  0  0
  1  2  1  0
  2  4  1  0
  2  3  2  0
  4  5  1  0
  6  5  1  0
  7  6  1  0
  8  7  1  0
  8  9  1  1
 10  8  1  0
 10 16  1  0
 11 10  2  0
 13 12  1  6
 13 14  1  0
 13 15  1  0
 15 17  1  0
 15 16  1  6
 17 18  2  0
 19 20  1  0
 20 30  2  0
 21 22  2  0
 21 20  1  0
 22 23  1  0
 23 24  1  0
 23 29  2  0
 25 24  1  1
 26 25  1  0
 26 17  1  0
 27 25  1  0
 28 27  1  0
 30 29  1  0
 31 27  2  0
M  END
$$$$
