RVY.pdb
     RDKit          3D

 31 31  0  0  1  0  0  0  0  0999 V2000
   18.8297  -19.2786  -16.5808 N   0  0  0  0  0  0  0  0  0  0  0  0
   19.6694  -18.4311  -15.8095 C   0  0  0  0  0  0  0  0  0  0  0  0
   19.8662  -17.2441  -16.2199 N   0  0  0  0  0  0  0  0  0  0  0  0
   20.2827  -18.8805  -14.6071 N   0  0  0  0  0  0  0  0  0  0  0  0
   20.1375  -20.2437  -14.1850 C   0  0  0  0  0  0  0  0  0  0  0  0
   21.2610  -21.0914  -14.7238 C   0  0  0  0  0  0  0  0  0  0  0  0
   22.3160  -21.3664  -13.6638 C   0  0  0  0  0  0  0  0  0  0  0  0
   23.6571  -21.3556  -14.3509 C   0  0  2  0  0  0  0  0  0  0  0  0
   23.6760  -22.4469  -15.3072 N   0  0  0  0  0  0  0  0  0  0  0  0
   24.7538  -21.6122  -13.3756 C   0  0  0  0  0  0  0  0  0  0  0  0
   24.8751  -22.7859  -12.9399 O   0  0  0  0  0  0  0  0  0  0  0  0
   20.4747  -16.5415  -15.7461 C   0  0  0  0  0  0  0  0  0  0  0  0
   28.3514  -21.5390  -13.5837 C   0  0  2  0  0  0  0  0  0  0  0  0
   27.9803  -20.6576  -12.4287 C   0  0  0  0  0  0  0  0  0  0  0  0
   28.2731  -19.2255  -12.7252 C   0  0  2  0  0  0  0  0  0  0  0  0
   26.5996  -20.9133  -11.8851 N   0  0  0  0  0  0  0  0  0  0  0  0
   25.6425  -20.6004  -12.9343 C   0  0  0  0  0  0  0  0  0  0  0  0
   26.3520  -20.1435  -10.6664 O   0  0  0  0  0  0  0  0  0  0  0  0
   25.2789  -19.4414  -10.5948 O   0  0  0  0  0  0  0  0  0  0  0  0
   23.4570  -20.8408   -2.7175 C   0  0  0  0  0  0  0  0  0  0  0  0
   24.0601  -20.9524   -3.9693 C   0  0  0  0  0  0  0  0  0  0  0  0
   23.2959  -20.9408   -5.1068 C   0  0  0  0  0  0  0  0  0  0  0  0
   23.9038  -21.0515   -6.3308 C   0  0  0  0  0  0  0  0  0  0  0  0
   25.2719  -21.1763   -6.4786 C   0  0  0  0  0  0  0  0  0  0  0  0
   25.8743  -21.2898   -7.8269 C   0  0  2  0  0  0  0  0  0  0  0  0
   26.6302  -20.0146   -8.1642 N   0  0  0  0  0  0  0  0  0  0  0  0
   27.1563  -20.0622   -9.5136 C   0  0  0  0  0  0  0  0  0  0  0  0
   27.7733  -19.8233   -7.2468 O   0  0  0  0  0  0  0  0  0  0  0  0
   28.9416  -20.5816   -7.3161 C   0  0  0  0  0  0  0  0  0  0  0  0
   26.0346  -21.1879   -5.3469 C   0  0  0  0  0  0  0  0  0  0  0  0
   25.4352  -21.0768   -4.0974 O   0  0  0  0  0  0  0  0  0  0  0  0
  1  2  1  0
  2  4  1  0
  2  3  2  0
  4  5  1  0
  6  5  1  0
  7  6  1  0
  8  7  1  0
  8  9  1  6
 10  8  1  0
 10 16  1  0
 11 10  2  0
 13 12  1  1
 13 14  1  0
 13 15  1  0
 15 17  1  0
 15 16  1  1
 17 18  2  0
 19 20  1  0
 20 30  2  0
 21 22  2  0
 21 20  1  0
 22 23  1  0
 23 24  1  0
 23 29  2  0
 25 24  1  6
 26 25  1  0
 26 17  1  0
 27 25  1  0
 28 27  1  0
 30 29  1  0
 31 27  2  0
M  END
$$$$
