RVY.pdb
     RDKit          3D

 31 31  0  0  1  0  0  0  0  0999 V2000
   27.1749  -29.6505  -17.0818 N   0  0  0  0  0  0  0  0  0  0  0  0
   27.2334  -29.2529  -18.4445 C   0  0  0  0  0  0  0  0  0  0  0  0
   26.9851  -30.1241  -19.3365 N   0  0  0  0  0  0  0  0  0  0  0  0
   27.5593  -27.9202  -18.8208 N   0  0  0  0  0  0  0  0  0  0  0  0
   27.7737  -26.9161  -17.8192 C   0  0  0  0  0  0  0  0  0  0  0  0
   26.4598  -26.3929  -17.2985 C   0  0  0  0  0  0  0  0  0  0  0  0
   26.6552  -25.1976  -16.3791 C   0  0  0  0  0  0  0  0  0  0  0  0
   27.7939  -24.3832  -16.9365 C   0  0  2  0  0  0  0  0  0  0  0  0
   29.0246  -25.1114  -16.6897 N   0  0  0  0  0  0  0  0  0  0  0  0
   27.9097  -23.0789  -16.2255 C   0  0  0  0  0  0  0  0  0  0  0  0
   28.5976  -23.0552  -15.1727 O   0  0  0  0  0  0  0  0  0  0  0  0
   27.0151  -29.9512  -20.3649 C   0  0  0  0  0  0  0  0  0  0  0  0
   26.9149  -18.2360  -15.9323 C   0  0  2  0  0  0  0  0  0  0  0  0
   27.1840  -19.5033  -16.6875 C   0  0  0  0  0  0  0  0  0  0  0  0
   28.3342  -19.3416  -17.6233 C   0  0  1  0  0  0  0  0  0  0  0  0
   27.2551  -20.7292  -15.8163 N   0  0  0  0  0  0  0  0  0  0  0  0
   27.2846  -21.8937  -16.6868 C   0  0  0  0  0  0  0  0  0  0  0  0
   26.1427  -20.7786  -14.8681 O   0  0  0  0  0  0  0  0  0  0  0  0
   25.0048  -21.2058  -15.2831 O   0  0  0  0  0  0  0  0  0  0  0  0
   20.5979  -20.2297   -8.0789 C   0  0  0  0  0  0  0  0  0  0  0  0
   21.7522  -20.1636   -8.8577 C   0  0  0  0  0  0  0  0  0  0  0  0
   21.7832  -19.3774   -9.9798 C   0  0  0  0  0  0  0  0  0  0  0  0
   22.9259  -19.3228  -10.7356 C   0  0  0  0  0  0  0  0  0  0  0  0
   24.0681  -20.0327  -10.4180 C   0  0  0  0  0  0  0  0  0  0  0  0
   25.2753  -19.9333  -11.2703 C   0  0  1  0  0  0  0  0  0  0  0  0
   24.9940  -20.5367  -12.6371 N   0  0  0  0  0  0  0  0  0  0  0  0
   26.1446  -20.4105  -13.5091 C   0  0  0  0  0  0  0  0  0  0  0  0
   23.8611  -19.8491  -13.2918 O   0  0  0  0  0  0  0  0  0  0  0  0
   22.5810  -20.3964  -13.3724 C   0  0  0  0  0  0  0  0  0  0  0  0
   24.0390  -20.8161   -9.3010 C   0  0  0  0  0  0  0  0  0  0  0  0
   22.8889  -20.8835   -8.5228 O   0  0  0  0  0  0  0  0  0  0  0  0
  1  2  1  0
  2  4  1  0
  2  3  2  0
  4  5  1  0
  6  5  1  0
  7  6  1  0
  8  7  1  0
  8  9  1  1
 10  8  1  0
 10 16  1  0
 11 10  2  0
 13 12  1  6
 13 14  1  0
 13 15  1  0
 15 17  1  0
 15 16  1  6
 17 18  2  0
 19 20  1  0
 20 30  2  0
 21 22  2  0
 21 20  1  0
 22 23  1  0
 23 24  1  0
 23 29  2  0
 25 24  1  1
 26 25  1  0
 26 17  1  0
 27 25  1  0
 28 27  1  0
 30 29  1  0
 31 27  2  0
M  END
$$$$
