RVY.pdb
     RDKit          3D

 31 31  0  0  1  0  0  0  0  0999 V2000
   26.6540  -18.4232  -20.4868 N   0  0  0  0  0  0  0  0  0  0  0  0
   25.4191  -19.1202  -20.5736 C   0  0  0  0  0  0  0  0  0  0  0  0
   25.1693  -19.7714  -21.6366 N   0  0  0  0  0  0  0  0  0  0  0  0
   24.4744  -19.1020  -19.5102 N   0  0  0  0  0  0  0  0  0  0  0  0
   24.7853  -18.4410  -18.2757 C   0  0  0  0  0  0  0  0  0  0  0  0
   25.8194  -19.2166  -17.5010 C   0  0  0  0  0  0  0  0  0  0  0  0
   25.1982  -19.9778  -16.3404 C   0  0  0  0  0  0  0  0  0  0  0  0
   26.3219  -20.6332  -15.5799 C   0  0  2  0  0  0  0  0  0  0  0  0
   26.8705  -21.6854  -16.4153 N   0  0  0  0  0  0  0  0  0  0  0  0
   25.8134  -21.2829  -14.3392 C   0  0  0  0  0  0  0  0  0  0  0  0
   25.3468  -22.4460  -14.4471 O   0  0  0  0  0  0  0  0  0  0  0  0
   24.2740  -20.2682  -21.8361 C   0  0  0  0  0  0  0  0  0  0  0  0
   25.0028  -21.1143   -9.4391 C   0  0  2  0  0  0  0  0  0  0  0  0
   25.6823  -20.6310  -10.6855 C   0  0  0  0  0  0  0  0  0  0  0  0
   27.1647  -20.6136  -10.5215 C   0  0  1  0  0  0  0  0  0  0  0  0
   25.2009  -21.3046  -11.9432 N   0  0  0  0  0  0  0  0  0  0  0  0
   25.8382  -20.6472  -13.0729 C   0  0  0  0  0  0  0  0  0  0  0  0
   23.7419  -21.2771  -12.0415 O   0  0  0  0  0  0  0  0  0  0  0  0
   23.0541  -21.6783  -11.0337 O   0  0  0  0  0  0  0  0  0  0  0  0
   15.3468  -19.4580  -12.3408 C   0  0  0  0  0  0  0  0  0  0  0  0
   16.7362  -19.5486  -12.2748 C   0  0  0  0  0  0  0  0  0  0  0  0
   17.5185  -18.7229  -13.0393 C   0  0  0  0  0  0  0  0  0  0  0  0
   18.8838  -18.8241  -12.9633 C   0  0  0  0  0  0  0  0  0  0  0  0
   19.5225  -19.7321  -12.1407 C   0  0  0  0  0  0  0  0  0  0  0  0
   21.0017  -19.7951  -12.0974 C   0  0  1  0  0  0  0  0  0  0  0  0
   21.5054  -20.8130  -13.1081 N   0  0  0  0  0  0  0  0  0  0  0  0
   22.9538  -20.8539  -13.1287 C   0  0  0  0  0  0  0  0  0  0  0  0
   21.0498  -20.4691  -14.4716 O   0  0  0  0  0  0  0  0  0  0  0  0
   19.8731  -20.9670  -15.0304 C   0  0  0  0  0  0  0  0  0  0  0  0
   18.7451  -20.5551  -11.3786 C   0  0  0  0  0  0  0  0  0  0  0  0
   17.3592  -20.4665  -11.4429 O   0  0  0  0  0  0  0  0  0  0  0  0
  1  2  1  0
  2  4  1  0
  2  3  2  0
  4  5  1  0
  6  5  1  0
  7  6  1  0
  8  7  1  0
  8  9  1  6
 10  8  1  0
 10 16  1  0
 11 10  2  0
 13 12  1  1
 13 14  1  0
 13 15  1  0
 15 17  1  0
 15 16  1  1
 17 18  2  0
 19 20  1  0
 20 30  2  0
 21 22  2  0
 21 20  1  0
 22 23  1  0
 23 24  1  0
 23 29  2  0
 25 24  1  1
 26 25  1  0
 26 17  1  0
 27 25  1  0
 28 27  1  0
 30 29  1  0
 31 27  2  0
M  END
$$$$
