KYW.pdb
     RDKit          3D

 36 38  0  0  1  0  0  0  0  0999 V2000
   10.6780  -17.4655   18.1819 N   0  0  0  0  0  0  0  0  0  0  0  0
   10.7408  -18.1703   19.4112 C   0  0  1  0  0  0  0  0  0  0  0  0
   12.2050  -18.6154   19.6314 C   0  0  0  0  0  0  0  0  0  0  0  0
   12.5425  -19.5067   18.5040 C   0  0  0  0  0  0  0  0  0  0  0  0
   13.8451  -20.2068   18.5074 C   0  0  0  0  0  0  0  0  0  0  0  0
   14.0978  -20.9453   17.2314 C   0  0  0  0  0  0  0  0  0  0  0  0
   15.3752  -21.5630   17.2499 N   0  0  0  0  0  0  0  0  0  0  0  0
   10.3481  -17.3934   20.6099 C   0  0  0  0  0  0  0  0  0  0  0  0
   11.2037  -16.6333   21.1858 O   0  0  0  0  0  0  0  0  0  0  0  0
    5.8882  -13.7231   27.3413 O   0  0  0  0  0  0  0  0  0  0  0  0
    6.2350  -14.3845   26.1753 C   0  0  0  0  0  0  0  0  0  0  0  0
    6.1153  -15.7412   26.0832 C   0  0  0  0  0  0  0  0  0  0  0  0
    6.4588  -16.4042   24.9256 C   0  0  0  0  0  0  0  0  0  0  0  0
    6.9285  -15.7356   23.8340 C   0  0  0  0  0  0  0  0  0  0  0  0
    7.3066  -16.3647   22.5753 C   0  0  0  0  0  0  0  0  0  0  0  0
    8.7637  -16.6814   22.4102 C   0  0  2  0  0  0  0  0  0  0  0  0
    9.0581  -17.4171   21.2006 N   0  0  0  0  0  0  0  0  0  0  0  0
    9.4174  -17.2700   23.5970 C   0  0  0  0  0  0  0  0  0  0  0  0
    9.2814  -18.4950   23.8209 O   0  0  0  0  0  0  0  0  0  0  0  0
    7.0397  -14.3463   23.9598 C   0  0  0  0  0  0  0  0  0  0  0  0
    6.7013  -13.6765   25.1057 C   0  0  0  0  0  0  0  0  0  0  0  0
   10.1989  -16.4874   24.5035 N   0  0  0  0  0  0  0  0  0  0  0  0
   10.8467  -17.0957   25.6369 C   0  0  1  0  0  0  0  0  0  0  0  0
   11.7030  -16.0787   26.3524 C   0  0  0  0  0  0  0  0  0  0  0  0
   10.9303  -15.2202   27.2565 C   0  0  0  0  0  0  0  0  0  0  0  0
   10.7363  -15.4549   28.5992 C   0  0  0  0  0  0  0  0  0  0  0  0
    9.9817  -14.4629   29.1000 N   0  0  0  0  0  0  0  0  0  0  0  0
    9.6901  -13.6037   28.1140 C   0  0  0  0  0  0  0  0  0  0  0  0
    8.9558  -12.4334   28.0921 C   0  0  0  0  0  0  0  0  0  0  0  0
    8.7923  -11.7063   26.9303 C   0  0  0  0  0  0  0  0  0  0  0  0
    9.3740  -12.1545   25.7595 C   0  0  0  0  0  0  0  0  0  0  0  0
   10.1076  -13.3205   25.7732 C   0  0  0  0  0  0  0  0  0  0  0  0
   10.2713  -14.0521   26.9459 C   0  0  0  0  0  0  0  0  0  0  0  0
    9.8732  -17.7523   26.5090 C   0  0  0  0  0  0  0  0  0  0  0  0
   10.2958  -18.6663   27.4504 O   0  0  0  0  0  0  0  0  0  0  0  0
    8.6358  -17.5278   26.4528 O   0  0  0  0  0  0  0  0  0  0  0  0
  2  3  1  0
  2  1  1  6
  4  3  1  0
  5  4  1  0
  5  6  1  0
  6  7  1  0
  8  2  1  0
  8 17  1  0
  9  8  2  0
 10 11  1  0
 11 21  2  0
 12 11  1  0
 12 13  2  0
 13 14  1  0
 14 20  2  0
 14 15  1  0
 16 15  1  1
 16 17  1  0
 18 16  1  0
 19 18  2  0
 21 20  1  0
 22 18  1  0
 23 34  1  0
 23 22  1  0
 23 24  1  1
 25 24  1  0
 26 25  2  0
 27 26  1  0
 28 27  1  0
 28 33  2  0
 29 28  1  0
 30 29  2  0
 30 31  1  0
 31 32  2  0
 32 33  1  0
 33 25  1  0
 34 35  1  0
 36 34  2  0
M  END
$$$$
