KYW.pdb
     RDKit          3D

 36 38  0  0  1  0  0  0  0  0999 V2000
    6.2786  -16.4211   19.1538 N   0  0  0  0  0  0  0  0  0  0  0  0
    7.2709  -15.9268   20.0385 C   0  0  1  0  0  0  0  0  0  0  0  0
    7.1541  -14.3855   20.0731 C   0  0  0  0  0  0  0  0  0  0  0  0
    7.3213  -13.9247   18.6806 C   0  0  0  0  0  0  0  0  0  0  0  0
    8.5935  -14.2039   17.9800 C   0  0  0  0  0  0  0  0  0  0  0  0
    8.6082  -13.6579   16.5875 C   0  0  0  0  0  0  0  0  0  0  0  0
    9.7844  -14.0565   15.9011 N   0  0  0  0  0  0  0  0  0  0  0  0
    7.1613  -16.3927   21.4405 C   0  0  0  0  0  0  0  0  0  0  0  0
    6.8629  -15.5604   22.3677 O   0  0  0  0  0  0  0  0  0  0  0  0
    7.4035  -21.6150   28.7043 O   0  0  0  0  0  0  0  0  0  0  0  0
    7.2937  -21.0905   27.4276 C   0  0  0  0  0  0  0  0  0  0  0  0
    7.4915  -19.7585   27.2033 C   0  0  0  0  0  0  0  0  0  0  0  0
    7.3835  -19.2314   25.9351 C   0  0  0  0  0  0  0  0  0  0  0  0
    7.0771  -20.0144   24.8618 C   0  0  0  0  0  0  0  0  0  0  0  0
    6.9508  -19.5323   23.4925 C   0  0  0  0  0  0  0  0  0  0  0  0
    7.3273  -18.0983   23.2631 C   0  0  2  0  0  0  0  0  0  0  0  0
    7.3656  -17.7313   21.8649 N   0  0  0  0  0  0  0  0  0  0  0  0
    8.5241  -17.6376   23.9962 C   0  0  0  0  0  0  0  0  0  0  0  0
    9.6522  -18.0462   23.6361 O   0  0  0  0  0  0  0  0  0  0  0  0
    6.8802  -21.3748   25.1242 C   0  0  0  0  0  0  0  0  0  0  0  0
    6.9849  -21.9100   26.3807 C   0  0  0  0  0  0  0  0  0  0  0  0
    8.4392  -16.7421   25.1080 N   0  0  0  0  0  0  0  0  0  0  0  0
    9.6290  -16.2384   25.7444 C   0  0  1  0  0  0  0  0  0  0  0  0
    9.5230  -14.7442   25.9336 C   0  0  0  0  0  0  0  0  0  0  0  0
    8.1381  -14.2883   26.0933 C   0  0  0  0  0  0  0  0  0  0  0  0
    7.0513  -15.1099   26.2925 C   0  0  0  0  0  0  0  0  0  0  0  0
    5.9521  -14.3445   26.3937 N   0  0  0  0  0  0  0  0  0  0  0  0
    6.3086  -13.0594   26.2646 C   0  0  0  0  0  0  0  0  0  0  0  0
    5.5764  -11.8878   26.2903 C   0  0  0  0  0  0  0  0  0  0  0  0
    6.1798  -10.6567   26.1308 C   0  0  0  0  0  0  0  0  0  0  0  0
    7.5470  -10.5884   25.9408 C   0  0  0  0  0  0  0  0  0  0  0  0
    8.2839  -11.7521   25.9140 C   0  0  0  0  0  0  0  0  0  0  0  0
    7.6735  -12.9926   26.0751 C   0  0  0  0  0  0  0  0  0  0  0  0
    9.9092  -16.9627   26.9838 C   0  0  0  0  0  0  0  0  0  0  0  0
    8.9813  -17.8465   27.4919 O   0  0  0  0  0  0  0  0  0  0  0  0
   10.9777  -16.8262   27.6353 O   0  0  0  0  0  0  0  0  0  0  0  0
  2  3  1  0
  2  1  1  6
  4  3  1  0
  5  4  1  0
  5  6  1  0
  6  7  1  0
  8  2  1  0
  8 17  1  0
  9  8  2  0
 10 11  1  0
 11 21  2  0
 12 11  1  0
 12 13  2  0
 13 14  1  0
 14 20  2  0
 14 15  1  0
 16 15  1  6
 16 17  1  0
 18 16  1  0
 19 18  2  0
 21 20  1  0
 22 18  1  0
 23 34  1  0
 23 22  1  0
 23 24  1  1
 25 24  1  0
 26 25  2  0
 27 26  1  0
 28 27  1  0
 28 33  2  0
 29 28  1  0
 30 29  2  0
 30 31  1  0
 31 32  2  0
 32 33  1  0
 33 25  1  0
 34 35  1  0
 36 34  2  0
M  END
$$$$
