KYW.pdb
     RDKit          3D

 36 38  0  0  1  0  0  0  0  0999 V2000
    9.0259  -18.7483   20.0994 N   0  0  0  0  0  0  0  0  0  0  0  0
   10.2371  -18.0252   19.9512 C   0  0  1  0  0  0  0  0  0  0  0  0
   10.2871  -17.4688   18.5096 C   0  0  0  0  0  0  0  0  0  0  0  0
   10.2699  -18.6402   17.6113 C   0  0  0  0  0  0  0  0  0  0  0  0
   10.4201  -18.4303   16.1551 C   0  0  0  0  0  0  0  0  0  0  0  0
   10.3778  -19.7136   15.3877 C   0  0  0  0  0  0  0  0  0  0  0  0
   10.4428  -19.4693   13.9914 N   0  0  0  0  0  0  0  0  0  0  0  0
   10.4005  -16.8665   20.8597 C   0  0  0  0  0  0  0  0  0  0  0  0
   11.4523  -16.1389   20.7825 O   0  0  0  0  0  0  0  0  0  0  0  0
    6.8442  -13.1069   17.2636 O   0  0  0  0  0  0  0  0  0  0  0  0
    7.2617  -13.3915   18.5527 C   0  0  0  0  0  0  0  0  0  0  0  0
    8.1921  -12.6073   19.1716 C   0  0  0  0  0  0  0  0  0  0  0  0
    8.6111  -12.8860   20.4540 C   0  0  0  0  0  0  0  0  0  0  0  0
    8.1159  -13.9485   21.1505 C   0  0  0  0  0  0  0  0  0  0  0  0
    8.5048  -14.3036   22.5090 C   0  0  0  0  0  0  0  0  0  0  0  0
    9.6400  -15.2763   22.6350 C   0  0  2  0  0  0  0  0  0  0  0  0
    9.4592  -16.4752   21.8469 N   0  0  0  0  0  0  0  0  0  0  0  0
   10.0621  -15.5741   24.0190 C   0  0  0  0  0  0  0  0  0  0  0  0
   11.0100  -14.9248   24.5183 O   0  0  0  0  0  0  0  0  0  0  0  0
    7.1643  -14.7327   20.4890 C   0  0  0  0  0  0  0  0  0  0  0  0
    6.7403  -14.4655   19.2142 C   0  0  0  0  0  0  0  0  0  0  0  0
    9.4273  -16.5828   24.8092 N   0  0  0  0  0  0  0  0  0  0  0  0
    9.8927  -16.8825   26.1388 C   0  0  1  0  0  0  0  0  0  0  0  0
    9.3211  -15.8915   27.1241 C   0  0  0  0  0  0  0  0  0  0  0  0
    8.0041  -15.3860   26.7227 C   0  0  0  0  0  0  0  0  0  0  0  0
    6.9650  -16.1616   26.2596 C   0  0  0  0  0  0  0  0  0  0  0  0
    5.9216  -15.3593   25.9914 N   0  0  0  0  0  0  0  0  0  0  0  0
    6.2672  -14.0952   26.2708 C   0  0  0  0  0  0  0  0  0  0  0  0
    5.5755  -12.9030   26.1751 C   0  0  0  0  0  0  0  0  0  0  0  0
    6.1561  -11.7019   26.5293 C   0  0  0  0  0  0  0  0  0  0  0  0
    7.4587  -11.6857   26.9909 C   0  0  0  0  0  0  0  0  0  0  0  0
    8.1550  -12.8703   27.0891 C   0  0  0  0  0  0  0  0  0  0  0  0
    7.5677  -14.0804   26.7314 C   0  0  0  0  0  0  0  0  0  0  0  0
    9.6184  -18.2755   26.4904 C   0  0  0  0  0  0  0  0  0  0  0  0
   10.0933  -18.7947   27.6757 O   0  0  0  0  0  0  0  0  0  0  0  0
    8.9549  -19.0538   25.7564 O   0  0  0  0  0  0  0  0  0  0  0  0
  2  3  1  0
  2  1  1  1
  4  3  1  0
  5  4  1  0
  5  6  1  0
  6  7  1  0
  8  2  1  0
  8 17  1  0
  9  8  2  0
 10 11  1  0
 11 21  2  0
 12 11  1  0
 12 13  2  0
 13 14  1  0
 14 20  2  0
 14 15  1  0
 16 15  1  1
 16 17  1  0
 18 16  1  0
 19 18  2  0
 21 20  1  0
 22 18  1  0
 23 34  1  0
 23 22  1  0
 23 24  1  1
 25 24  1  0
 26 25  2  0
 27 26  1  0
 28 27  1  0
 28 33  2  0
 29 28  1  0
 30 29  2  0
 30 31  1  0
 31 32  2  0
 32 33  1  0
 33 25  1  0
 34 35  1  0
 36 34  2  0
M  END
$$$$
