KYW.pdb
     RDKit          3D

 36 38  0  0  1  0  0  0  0  0999 V2000
    9.4807  -17.5542   17.0661 N   0  0  0  0  0  0  0  0  0  0  0  0
    9.7573  -16.4991   17.9728 C   0  0  1  0  0  0  0  0  0  0  0  0
    8.5769  -15.5020   17.9189 C   0  0  0  0  0  0  0  0  0  0  0  0
    8.5283  -14.9900   16.5352 C   0  0  0  0  0  0  0  0  0  0  0  0
    7.5270  -13.9593   16.1859 C   0  0  0  0  0  0  0  0  0  0  0  0
    7.6188  -13.5389   14.7534 C   0  0  0  0  0  0  0  0  0  0  0  0
    6.6537  -12.5416   14.4569 N   0  0  0  0  0  0  0  0  0  0  0  0
    9.9082  -16.9027   19.3903 C   0  0  0  0  0  0  0  0  0  0  0  0
    9.2179  -17.8781   19.8526 O   0  0  0  0  0  0  0  0  0  0  0  0
   14.5767  -20.3494   25.8325 O   0  0  0  0  0  0  0  0  0  0  0  0
   14.1011  -19.6534   24.7340 C   0  0  0  0  0  0  0  0  0  0  0  0
   14.5505  -18.3936   24.4608 C   0  0  0  0  0  0  0  0  0  0  0  0
   14.0807  -17.6967   23.3693 C   0  0  0  0  0  0  0  0  0  0  0  0
   13.1550  -18.2346   22.5249 C   0  0  0  0  0  0  0  0  0  0  0  0
   12.6152  -17.5633   21.3497 C   0  0  0  0  0  0  0  0  0  0  0  0
   11.2465  -16.9685   21.5029 C   0  0  2  0  0  0  0  0  0  0  0  0
   10.7832  -16.2807   20.3183 N   0  0  0  0  0  0  0  0  0  0  0  0
   11.0411  -16.1716   22.7297 C   0  0  0  0  0  0  0  0  0  0  0  0
   11.0935  -14.9220   22.6586 O   0  0  0  0  0  0  0  0  0  0  0  0
   12.7143  -19.5268   22.8318 C   0  0  0  0  0  0  0  0  0  0  0  0
   13.1741  -20.2291   23.9142 C   0  0  0  0  0  0  0  0  0  0  0  0
   10.7877  -16.7785   23.9995 N   0  0  0  0  0  0  0  0  0  0  0  0
    9.8009  -16.2337   24.8959 C   0  0  1  0  0  0  0  0  0  0  0  0
    8.5020  -16.0058   24.1607 C   0  0  0  0  0  0  0  0  0  0  0  0
    7.5213  -15.2605   24.9571 C   0  0  0  0  0  0  0  0  0  0  0  0
    6.4137  -15.8076   25.5648 C   0  0  0  0  0  0  0  0  0  0  0  0
    5.7509  -14.8287   26.2025 N   0  0  0  0  0  0  0  0  0  0  0  0
    6.4054  -13.6742   26.0178 C   0  0  0  0  0  0  0  0  0  0  0  0
    6.1535  -12.3868   26.4519 C   0  0  0  0  0  0  0  0  0  0  0  0
    6.9907  -11.3390   26.1254 C   0  0  0  0  0  0  0  0  0  0  0  0
    8.1074  -11.5772   25.3470 C   0  0  0  0  0  0  0  0  0  0  0  0
    8.3653  -12.8581   24.9103 C   0  0  0  0  0  0  0  0  0  0  0  0
    7.5200  -13.9133   25.2406 C   0  0  0  0  0  0  0  0  0  0  0  0
    9.6552  -17.0687   26.0878 C   0  0  0  0  0  0  0  0  0  0  0  0
    9.4267  -16.4854   27.3157 O   0  0  0  0  0  0  0  0  0  0  0  0
    9.7269  -18.3253   26.0621 O   0  0  0  0  0  0  0  0  0  0  0  0
  2  3  1  0
  2  1  1  6
  4  3  1  0
  5  4  1  0
  5  6  1  0
  6  7  1  0
  8  2  1  0
  8 17  1  0
  9  8  2  0
 10 11  1  0
 11 21  2  0
 12 11  1  0
 12 13  2  0
 13 14  1  0
 14 20  2  0
 14 15  1  0
 16 15  1  6
 16 17  1  0
 18 16  1  0
 19 18  2  0
 21 20  1  0
 22 18  1  0
 23 34  1  0
 23 22  1  0
 23 24  1  6
 25 24  1  0
 26 25  2  0
 27 26  1  0
 28 27  1  0
 28 33  2  0
 29 28  1  0
 30 29  2  0
 30 31  1  0
 31 32  2  0
 32 33  1  0
 33 25  1  0
 34 35  1  0
 36 34  2  0
M  END
$$$$
