KYW.pdb
     RDKit          3D

 36 38  0  0  1  0  0  0  0  0999 V2000
   10.4708  -18.0754   18.2411 N   0  0  0  0  0  0  0  0  0  0  0  0
   10.2766  -18.5675   19.5572 C   0  0  1  0  0  0  0  0  0  0  0  0
   11.4584  -19.5055   19.8949 C   0  0  0  0  0  0  0  0  0  0  0  0
   11.3013  -20.6970   19.0377 C   0  0  0  0  0  0  0  0  0  0  0  0
   12.2480  -21.8226   19.1925 C   0  0  0  0  0  0  0  0  0  0  0  0
   11.9953  -22.9187   18.2066 C   0  0  0  0  0  0  0  0  0  0  0  0
   12.9205  -23.9800   18.3831 N   0  0  0  0  0  0  0  0  0  0  0  0
   10.2344  -17.5374   20.6210 C   0  0  0  0  0  0  0  0  0  0  0  0
   11.3197  -16.9807   21.0131 O   0  0  0  0  0  0  0  0  0  0  0  0
    7.4952  -12.3948   17.3491 O   0  0  0  0  0  0  0  0  0  0  0  0
    7.6056  -13.0699   18.5530 C   0  0  0  0  0  0  0  0  0  0  0  0
    6.8497  -14.1795   18.8001 C   0  0  0  0  0  0  0  0  0  0  0  0
    6.9556  -14.8549   19.9960 C   0  0  0  0  0  0  0  0  0  0  0  0
    7.8137  -14.4443   20.9728 C   0  0  0  0  0  0  0  0  0  0  0  0
    7.9854  -15.1078   22.2587 C   0  0  0  0  0  0  0  0  0  0  0  0
    9.0925  -16.1174   22.3351 C   0  0  2  0  0  0  0  0  0  0  0  0
    9.0527  -17.0949   21.2703 N   0  0  0  0  0  0  0  0  0  0  0  0
    9.2847  -16.7404   23.6606 C   0  0  0  0  0  0  0  0  0  0  0  0
    9.7283  -17.9102   23.7238 O   0  0  0  0  0  0  0  0  0  0  0  0
    8.5742  -13.3043   20.6894 C   0  0  0  0  0  0  0  0  0  0  0  0
    8.4774  -12.6247   19.5041 C   0  0  0  0  0  0  0  0  0  0  0  0
    8.9777  -16.0543   24.8772 N   0  0  0  0  0  0  0  0  0  0  0  0
    9.7651  -16.2657   26.0644 C   0  0  1  0  0  0  0  0  0  0  0  0
    9.3744  -15.2699   27.1300 C   0  0  0  0  0  0  0  0  0  0  0  0
    8.1717  -14.5064   26.7810 C   0  0  0  0  0  0  0  0  0  0  0  0
    6.9712  -15.0545   26.3884 C   0  0  0  0  0  0  0  0  0  0  0  0
    6.1045  -14.0560   26.1517 N   0  0  0  0  0  0  0  0  0  0  0  0
    6.7194  -12.8881   26.3826 C   0  0  0  0  0  0  0  0  0  0  0  0
    6.2862  -11.5791   26.2913 C   0  0  0  0  0  0  0  0  0  0  0  0
    7.1216  -10.5209   26.5870 C   0  0  0  0  0  0  0  0  0  0  0  0
    8.4216  -10.7703   26.9839 C   0  0  0  0  0  0  0  0  0  0  0  0
    8.8610  -12.0727   27.0773 C   0  0  0  0  0  0  0  0  0  0  0  0
    8.0170  -13.1385   26.7787 C   0  0  0  0  0  0  0  0  0  0  0  0
    9.6817  -17.6563   26.5099 C   0  0  0  0  0  0  0  0  0  0  0  0
   10.5191  -18.1140   27.5046 O   0  0  0  0  0  0  0  0  0  0  0  0
    8.8677  -18.4868   26.0279 O   0  0  0  0  0  0  0  0  0  0  0  0
  2  3  1  0
  2  1  1  6
  4  3  1  0
  5  4  1  0
  5  6  1  0
  6  7  1  0
  8  2  1  0
  8 17  1  0
  9  8  2  0
 10 11  1  0
 11 21  2  0
 12 11  1  0
 12 13  2  0
 13 14  1  0
 14 20  2  0
 14 15  1  0
 16 15  1  1
 16 17  1  0
 18 16  1  0
 19 18  2  0
 21 20  1  0
 22 18  1  0
 23 34  1  0
 23 22  1  0
 23 24  1  1
 25 24  1  0
 26 25  2  0
 27 26  1  0
 28 27  1  0
 28 33  2  0
 29 28  1  0
 30 29  2  0
 30 31  1  0
 31 32  2  0
 32 33  1  0
 33 25  1  0
 34 35  1  0
 36 34  2  0
M  END
$$$$
