KYW.pdb
     RDKit          3D

 36 38  0  0  1  0  0  0  0  0999 V2000
    9.9028  -18.5310   18.2594 N   0  0  0  0  0  0  0  0  0  0  0  0
    9.2521  -18.8363   19.4822 C   0  0  1  0  0  0  0  0  0  0  0  0
    9.6868  -20.2563   19.9123 C   0  0  0  0  0  0  0  0  0  0  0  0
    9.9991  -20.9896   18.6697 C   0  0  0  0  0  0  0  0  0  0  0  0
   11.3091  -21.6642   18.5443 C   0  0  0  0  0  0  0  0  0  0  0  0
   11.4061  -22.4929   17.3027 C   0  0  0  0  0  0  0  0  0  0  0  0
   12.7009  -23.0588   17.1732 N   0  0  0  0  0  0  0  0  0  0  0  0
    9.5694  -17.9339   20.6134 C   0  0  0  0  0  0  0  0  0  0  0  0
   10.7907  -17.6610   20.8883 O   0  0  0  0  0  0  0  0  0  0  0  0
    7.3383  -12.5640   17.5956 O   0  0  0  0  0  0  0  0  0  0  0  0
    7.5635  -13.2065   18.8012 C   0  0  0  0  0  0  0  0  0  0  0  0
    8.2786  -14.3684   18.8473 C   0  0  0  0  0  0  0  0  0  0  0  0
    8.5056  -15.0118   20.0441 C   0  0  0  0  0  0  0  0  0  0  0  0
    8.0283  -14.5163   21.2213 C   0  0  0  0  0  0  0  0  0  0  0  0
    8.2311  -15.1351   22.5247 C   0  0  0  0  0  0  0  0  0  0  0  0
    8.9864  -16.4314   22.5267 C   0  0  2  0  0  0  0  0  0  0  0  0
    8.6035  -17.3209   21.4529 N   0  0  0  0  0  0  0  0  0  0  0  0
    9.0469  -17.1216   23.8314 C   0  0  0  0  0  0  0  0  0  0  0  0
    7.9786  -17.4720   24.3837 O   0  0  0  0  0  0  0  0  0  0  0  0
    7.2994  -13.3244   21.1408 C   0  0  0  0  0  0  0  0  0  0  0  0
    7.0673  -12.6761   19.9568 C   0  0  0  0  0  0  0  0  0  0  0  0
   10.2855  -17.4011   24.4893 N   0  0  0  0  0  0  0  0  0  0  0  0
   10.6551  -16.7071   25.6959 C   0  0  1  0  0  0  0  0  0  0  0  0
   10.5883  -15.2147   25.4770 C   0  0  0  0  0  0  0  0  0  0  0  0
    9.6932  -14.5409   26.4237 C   0  0  0  0  0  0  0  0  0  0  0  0
    9.6533  -14.7744   27.7800 C   0  0  0  0  0  0  0  0  0  0  0  0
    8.7161  -13.9790   28.3215 N   0  0  0  0  0  0  0  0  0  0  0  0
    8.1586  -13.2459   27.3483 C   0  0  0  0  0  0  0  0  0  0  0  0
    7.1624  -12.2885   27.3647 C   0  0  0  0  0  0  0  0  0  0  0  0
    6.7491  -11.6581   26.2084 C   0  0  0  0  0  0  0  0  0  0  0  0
    7.3416  -11.9881   25.0043 C   0  0  0  0  0  0  0  0  0  0  0  0
    8.3355  -12.9417   24.9797 C   0  0  0  0  0  0  0  0  0  0  0  0
    8.7509  -13.5762   26.1468 C   0  0  0  0  0  0  0  0  0  0  0  0
    9.8548  -17.1642   26.8316 C   0  0  0  0  0  0  0  0  0  0  0  0
   10.4037  -17.1935   28.0957 O   0  0  0  0  0  0  0  0  0  0  0  0
    8.6593  -17.5436   26.7241 O   0  0  0  0  0  0  0  0  0  0  0  0
  2  3  1  0
  2  1  1  6
  4  3  1  0
  5  4  1  0
  5  6  1  0
  6  7  1  0
  8  2  1  0
  8 17  1  0
  9  8  2  0
 10 11  1  0
 11 21  2  0
 12 11  1  0
 12 13  2  0
 13 14  1  0
 14 20  2  0
 14 15  1  0
 16 15  1  1
 16 17  1  0
 18 16  1  0
 19 18  2  0
 21 20  1  0
 22 18  1  0
 23 34  1  0
 23 22  1  0
 23 24  1  6
 25 24  1  0
 26 25  2  0
 27 26  1  0
 28 27  1  0
 28 33  2  0
 29 28  1  0
 30 29  2  0
 30 31  1  0
 31 32  2  0
 32 33  1  0
 33 25  1  0
 34 35  1  0
 36 34  2  0
M  END
$$$$
