KYW.pdb
     RDKit          3D

 36 38  0  0  1  0  0  0  0  0999 V2000
    8.8231  -18.8507   20.4890 N   0  0  0  0  0  0  0  0  0  0  0  0
   10.0543  -18.1812   20.2706 C   0  0  1  0  0  0  0  0  0  0  0  0
   10.1202  -17.7782   18.7794 C   0  0  0  0  0  0  0  0  0  0  0  0
    9.7634  -18.9845   18.0068 C   0  0  0  0  0  0  0  0  0  0  0  0
    9.8190  -18.9335   16.5299 C   0  0  0  0  0  0  0  0  0  0  0  0
    9.3545  -20.2074   15.8984 C   0  0  0  0  0  0  0  0  0  0  0  0
    9.5507  -20.1755   14.4934 N   0  0  0  0  0  0  0  0  0  0  0  0
   10.2506  -16.9399   21.0552 C   0  0  0  0  0  0  0  0  0  0  0  0
   11.3241  -16.2560   20.9088 O   0  0  0  0  0  0  0  0  0  0  0  0
    7.2028  -13.2160   17.0340 O   0  0  0  0  0  0  0  0  0  0  0  0
    7.5110  -13.4521   18.3631 C   0  0  0  0  0  0  0  0  0  0  0  0
    6.8391  -14.4038   19.0746 C   0  0  0  0  0  0  0  0  0  0  0  0
    7.1417  -14.6428   20.3971 C   0  0  0  0  0  0  0  0  0  0  0  0
    8.1178  -13.9429   21.0425 C   0  0  0  0  0  0  0  0  0  0  0  0
    8.4981  -14.1416   22.4350 C   0  0  0  0  0  0  0  0  0  0  0  0
    9.5563  -15.1749   22.6865 C   0  0  2  0  0  0  0  0  0  0  0  0
    9.3193  -16.4206   21.9914 N   0  0  0  0  0  0  0  0  0  0  0  0
    9.9064  -15.3835   24.1064 C   0  0  0  0  0  0  0  0  0  0  0  0
   10.5630  -14.5014   24.7064 O   0  0  0  0  0  0  0  0  0  0  0  0
    8.7879  -12.9747   20.2864 C   0  0  0  0  0  0  0  0  0  0  0  0
    8.4956  -12.7283   18.9711 C   0  0  0  0  0  0  0  0  0  0  0  0
    9.5242  -16.5619   24.8206 N   0  0  0  0  0  0  0  0  0  0  0  0
    9.8062  -16.6989   26.2263 C   0  0  1  0  0  0  0  0  0  0  0  0
    8.5201  -16.8667   26.9993 C   0  0  0  0  0  0  0  0  0  0  0  0
    7.4633  -15.9547   26.5494 C   0  0  0  0  0  0  0  0  0  0  0  0
    6.3626  -16.3214   25.8079 C   0  0  0  0  0  0  0  0  0  0  0  0
    5.6168  -15.2271   25.5835 N   0  0  0  0  0  0  0  0  0  0  0  0
    6.2115  -14.1745   26.1611 C   0  0  0  0  0  0  0  0  0  0  0  0
    5.8672  -12.8381   26.2292 C   0  0  0  0  0  0  0  0  0  0  0  0
    6.6567  -11.9230   26.8959 C   0  0  0  0  0  0  0  0  0  0  0  0
    7.8192  -12.3476   27.5109 C   0  0  0  0  0  0  0  0  0  0  0  0
    8.1694  -13.6785   27.4473 C   0  0  0  0  0  0  0  0  0  0  0  0
    7.3718  -14.5997   26.7746 C   0  0  0  0  0  0  0  0  0  0  0  0
   10.7727  -17.7700   26.4667 C   0  0  0  0  0  0  0  0  0  0  0  0
   11.2462  -18.5221   25.4130 O   0  0  0  0  0  0  0  0  0  0  0  0
   11.2136  -18.0565   27.6105 O   0  0  0  0  0  0  0  0  0  0  0  0
  2  3  1  0
  2  1  1  6
  4  3  1  0
  5  4  1  0
  5  6  1  0
  6  7  1  0
  8  2  1  0
  8 17  1  0
  9  8  2  0
 10 11  1  0
 11 21  2  0
 12 11  1  0
 12 13  2  0
 13 14  1  0
 14 20  2  0
 14 15  1  0
 16 15  1  1
 16 17  1  0
 18 16  1  0
 19 18  2  0
 21 20  1  0
 22 18  1  0
 23 34  1  0
 23 22  1  0
 23 24  1  1
 25 24  1  0
 26 25  2  0
 27 26  1  0
 28 27  1  0
 28 33  2  0
 29 28  1  0
 30 29  2  0
 30 31  1  0
 31 32  2  0
 32 33  1  0
 33 25  1  0
 34 35  1  0
 36 34  2  0
M  END
$$$$
