KYW.pdb
     RDKit          3D

 36 38  0  0  1  0  0  0  0  0999 V2000
    7.9864  -16.1598   18.0879 N   0  0  0  0  0  0  0  0  0  0  0  0
    8.0722  -15.0258   18.9356 C   0  0  1  0  0  0  0  0  0  0  0  0
    6.9106  -14.0714   18.5747 C   0  0  0  0  0  0  0  0  0  0  0  0
    7.0645  -13.7530   17.1415 C   0  0  0  0  0  0  0  0  0  0  0  0
    8.2991  -13.0794   16.6844 C   0  0  0  0  0  0  0  0  0  0  0  0
    8.2176  -12.6512   15.2535 C   0  0  0  0  0  0  0  0  0  0  0  0
    8.2640  -13.7740   14.3870 N   0  0  0  0  0  0  0  0  0  0  0  0
    7.9567  -15.3063   20.3857 C   0  0  0  0  0  0  0  0  0  0  0  0
    7.9891  -14.3403   21.2267 O   0  0  0  0  0  0  0  0  0  0  0  0
    7.2548  -19.6922   28.0981 O   0  0  0  0  0  0  0  0  0  0  0  0
    7.1395  -19.2574   26.7886 C   0  0  0  0  0  0  0  0  0  0  0  0
    6.2024  -18.3262   26.4447 C   0  0  0  0  0  0  0  0  0  0  0  0
    6.0834  -17.8901   25.1434 C   0  0  0  0  0  0  0  0  0  0  0  0
    6.8917  -18.3683   24.1549 C   0  0  0  0  0  0  0  0  0  0  0  0
    6.8302  -17.9530   22.7596 C   0  0  0  0  0  0  0  0  0  0  0  0
    7.7107  -16.7999   22.3775 C   0  0  2  0  0  0  0  0  0  0  0  0
    7.8078  -16.6004   20.9486 N   0  0  0  0  0  0  0  0  0  0  0  0
    9.0317  -16.7717   23.0381 C   0  0  0  0  0  0  0  0  0  0  0  0
    9.9428  -17.5156   22.6072 O   0  0  0  0  0  0  0  0  0  0  0  0
    7.8416  -19.3214   24.5390 C   0  0  0  0  0  0  0  0  0  0  0  0
    7.9690  -19.7624   25.8296 C   0  0  0  0  0  0  0  0  0  0  0  0
    9.3061  -15.9256   24.1578 N   0  0  0  0  0  0  0  0  0  0  0  0
   10.6328  -15.8384   24.7113 C   0  0  1  0  0  0  0  0  0  0  0  0
   10.7904  -14.5486   25.4802 C   0  0  0  0  0  0  0  0  0  0  0  0
    9.5546  -14.1328   26.1521 C   0  0  0  0  0  0  0  0  0  0  0  0
    9.1379  -14.5733   27.3882 C   0  0  0  0  0  0  0  0  0  0  0  0
    7.9678  -13.9812   27.6788 N   0  0  0  0  0  0  0  0  0  0  0  0
    7.6282  -13.1764   26.6628 C   0  0  0  0  0  0  0  0  0  0  0  0
    6.5384  -12.3519   26.4584 C   0  0  0  0  0  0  0  0  0  0  0  0
    6.4063  -11.6036   25.3061 C   0  0  0  0  0  0  0  0  0  0  0  0
    7.3832  -11.6769   24.3313 C   0  0  0  0  0  0  0  0  0  0  0  0
    8.4728  -12.4967   24.5277 C   0  0  0  0  0  0  0  0  0  0  0  0
    8.6042  -13.2504   25.6904 C   0  0  0  0  0  0  0  0  0  0  0  0
   10.9527  -17.0279   25.5000 C   0  0  0  0  0  0  0  0  0  0  0  0
    9.9784  -17.9685   25.7570 O   0  0  0  0  0  0  0  0  0  0  0  0
   12.0973  -17.2541   25.9727 O   0  0  0  0  0  0  0  0  0  0  0  0
  2  3  1  0
  2  1  1  6
  4  3  1  0
  5  4  1  0
  5  6  1  0
  6  7  1  0
  8  2  1  0
  8 17  1  0
  9  8  2  0
 10 11  1  0
 11 21  2  0
 12 11  1  0
 12 13  2  0
 13 14  1  0
 14 20  2  0
 14 15  1  0
 16 15  1  6
 16 17  1  0
 18 16  1  0
 19 18  2  0
 21 20  1  0
 22 18  1  0
 23 34  1  0
 23 22  1  0
 23 24  1  1
 25 24  1  0
 26 25  2  0
 27 26  1  0
 28 27  1  0
 28 33  2  0
 29 28  1  0
 30 29  2  0
 30 31  1  0
 31 32  2  0
 32 33  1  0
 33 25  1  0
 34 35  1  0
 36 34  2  0
M  END
$$$$
