KYW.pdb
     RDKit          3D

 36 38  0  0  1  0  0  0  0  0999 V2000
   10.2510  -17.8805   17.8147 N   0  0  0  0  0  0  0  0  0  0  0  0
   11.1890  -18.0120   18.8705 C   0  0  1  0  0  0  0  0  0  0  0  0
   12.5959  -17.7249   18.2971 C   0  0  0  0  0  0  0  0  0  0  0  0
   12.8270  -18.7296   17.2406 C   0  0  0  0  0  0  0  0  0  0  0  0
   13.7210  -18.3919   16.1120 C   0  0  0  0  0  0  0  0  0  0  0  0
   15.0384  -19.0950   16.1993 C   0  0  0  0  0  0  0  0  0  0  0  0
   14.9739  -20.3679   15.5755 N   0  0  0  0  0  0  0  0  0  0  0  0
   10.9973  -17.0848   20.0100 C   0  0  0  0  0  0  0  0  0  0  0  0
   11.8275  -16.1276   20.2000 O   0  0  0  0  0  0  0  0  0  0  0  0
    6.9444  -13.1230   17.1802 O   0  0  0  0  0  0  0  0  0  0  0  0
    7.3337  -13.6950   18.3795 C   0  0  0  0  0  0  0  0  0  0  0  0
    8.0581  -12.9795   19.2888 C   0  0  0  0  0  0  0  0  0  0  0  0
    8.4480  -13.5437   20.4835 C   0  0  0  0  0  0  0  0  0  0  0  0
    8.1275  -14.8301   20.8022 C   0  0  0  0  0  0  0  0  0  0  0  0
    8.4984  -15.4936   22.0454 C   0  0  0  0  0  0  0  0  0  0  0  0
    9.8096  -16.2225   22.0359 C   0  0  2  0  0  0  0  0  0  0  0  0
    9.9346  -17.1656   20.9468 N   0  0  0  0  0  0  0  0  0  0  0  0
   10.2139  -16.8060   23.3314 C   0  0  0  0  0  0  0  0  0  0  0  0
   10.0871  -18.0396   23.5084 O   0  0  0  0  0  0  0  0  0  0  0  0
    7.3848  -15.5370   19.8499 C   0  0  0  0  0  0  0  0  0  0  0  0
    6.9917  -14.9865   18.6589 C   0  0  0  0  0  0  0  0  0  0  0  0
   10.7426  -16.0091   24.3945 N   0  0  0  0  0  0  0  0  0  0  0  0
   10.0972  -15.9707   25.6815 C   0  0  1  0  0  0  0  0  0  0  0  0
    8.6636  -15.5222   25.5297 C   0  0  0  0  0  0  0  0  0  0  0  0
    8.2613  -14.5490   26.5506 C   0  0  0  0  0  0  0  0  0  0  0  0
    8.1159  -14.8222   27.8922 C   0  0  0  0  0  0  0  0  0  0  0  0
    7.7381  -13.6951   28.5176 N   0  0  0  0  0  0  0  0  0  0  0  0
    7.6390  -12.7125   27.6121 C   0  0  0  0  0  0  0  0  0  0  0  0
    7.2916  -11.3799   27.7253 C   0  0  0  0  0  0  0  0  0  0  0  0
    7.2602  -10.5469   26.6252 C   0  0  0  0  0  0  0  0  0  0  0  0
    7.5826  -11.0518   25.3798 C   0  0  0  0  0  0  0  0  0  0  0  0
    7.9300  -12.3794   25.2588 C   0  0  0  0  0  0  0  0  0  0  0  0
    7.9611  -13.2178   26.3694 C   0  0  0  0  0  0  0  0  0  0  0  0
   10.2354  -17.2498   26.3773 C   0  0  0  0  0  0  0  0  0  0  0  0
    9.4289  -18.3135   26.0334 O   0  0  0  0  0  0  0  0  0  0  0  0
   11.0707  -17.4467   27.2983 O   0  0  0  0  0  0  0  0  0  0  0  0
  2  3  1  0
  2  1  1  6
  4  3  1  0
  5  4  1  0
  5  6  1  0
  6  7  1  0
  8  2  1  0
  8 17  1  0
  9  8  2  0
 10 11  1  0
 11 21  2  0
 12 11  1  0
 12 13  2  0
 13 14  1  0
 14 20  2  0
 14 15  1  0
 16 15  1  1
 16 17  1  0
 18 16  1  0
 19 18  2  0
 21 20  1  0
 22 18  1  0
 23 34  1  0
 23 22  1  0
 23 24  1  6
 25 24  1  0
 26 25  2  0
 27 26  1  0
 28 27  1  0
 28 33  2  0
 29 28  1  0
 30 29  2  0
 30 31  1  0
 31 32  2  0
 32 33  1  0
 33 25  1  0
 34 35  1  0
 36 34  2  0
M  END
$$$$
