VDD.pdb
     RDKit          3D

 24 23  0  0  1  0  0  0  0  0999 V2000
    9.2799  -13.4926   19.5591 C   0  0  0  0  0  0  0  0  0  0  0  0
    7.8786  -13.8920   19.9462 C   0  0  2  0  0  0  0  0  0  0  0  0
    7.0258  -12.6688   20.0400 C   0  0  0  0  0  0  0  0  0  0  0  0
    7.9596  -14.6769   21.2370 C   0  0  2  0  0  0  0  0  0  0  0  0
    8.5449  -13.7551   22.2229 N   0  0  0  0  0  0  0  0  0  0  0  0
    8.7963  -15.8884   21.0990 C   0  0  0  0  0  0  0  0  0  0  0  0
    8.3613  -16.8582   20.4450 O   0  0  0  0  0  0  0  0  0  0  0  0
   10.0726  -15.9464   21.7007 N   0  0  0  0  0  0  0  0  0  0  0  0
   10.9909  -17.1165   21.4545 C   0  0  1  0  0  0  0  0  0  0  0  0
   12.0811  -16.5111   20.5833 C   0  0  0  0  0  0  0  0  0  0  0  0
   13.1182  -17.3884   20.0937 C   0  0  0  0  0  0  0  0  0  0  0  0
   12.9388  -18.5073   19.6024 O   0  0  0  0  0  0  0  0  0  0  0  0
   11.5313  -17.4098   22.7971 C   0  0  0  0  0  0  0  0  0  0  0  0
   12.5033  -18.2432   22.8573 O   0  0  0  0  0  0  0  0  0  0  0  0
   14.4711  -16.9789   20.1591 O   0  0  0  0  0  0  0  0  0  0  0  0
   11.0553  -16.8352   23.9943 N   0  0  0  0  0  0  0  0  0  0  0  0
   10.6447  -17.7588   25.0667 C   0  0  1  0  0  0  0  0  0  0  0  0
    9.7946  -18.8732   24.5048 C   0  0  0  0  0  0  0  0  0  0  0  0
    9.9712  -20.1179   25.2963 C   0  0  0  0  0  0  0  0  0  0  0  0
   10.5988  -20.1378   26.4011 O   0  0  0  0  0  0  0  0  0  0  0  0
   11.8653  -18.3196   25.6853 C   0  0  0  0  0  0  0  0  0  0  0  0
   12.0028  -18.4163   26.9341 O   0  0  0  0  0  0  0  0  0  0  0  0
    9.4474  -21.3439   24.8563 O   0  0  0  0  0  0  0  0  0  0  0  0
   12.9117  -18.7624   24.8875 O   0  0  0  0  0  0  0  0  0  0  0  0
  2  1  1  1
  2  3  1  0
  4  6  1  0
  4  2  1  0
  4  5  1  1
  6  7  2  0
  8  6  1  0
  8  9  1  0
  9 10  1  6
 11 10  1  0
 11 15  1  0
 12 11  2  0
 13 16  1  0
 13  9  1  0
 14 13  2  0
 17 21  1  0
 17 18  1  6
 17 16  1  0
 19 18  1  0
 19 23  1  0
 20 19  2  0
 21 24  1  0
 22 21  2  0
M  END
$$$$
