VDD.pdb
     RDKit          3D

 24 23  0  0  1  0  0  0  0  0999 V2000
    7.9522  -14.3712   18.4338 C   0  0  0  0  0  0  0  0  0  0  0  0
    8.0826  -13.5066   19.6621 C   0  0  2  0  0  0  0  0  0  0  0  0
    7.4376  -12.1838   19.4041 C   0  0  0  0  0  0  0  0  0  0  0  0
    9.5524  -13.4091   20.0070 C   0  0  2  0  0  0  0  0  0  0  0  0
   10.1968  -12.8184   18.8238 N   0  0  0  0  0  0  0  0  0  0  0  0
   10.1404  -14.7313   20.3121 C   0  0  0  0  0  0  0  0  0  0  0  0
    9.6583  -15.4133   21.2394 O   0  0  0  0  0  0  0  0  0  0  0  0
   11.2345  -15.2158   19.5622 N   0  0  0  0  0  0  0  0  0  0  0  0
   11.9648  -16.4668   19.9801 C   0  0  1  0  0  0  0  0  0  0  0  0
   12.7956  -16.7983   18.7497 C   0  0  0  0  0  0  0  0  0  0  0  0
   12.1164  -16.8747   17.4778 C   0  0  0  0  0  0  0  0  0  0  0  0
   12.2994  -16.1168   16.5199 O   0  0  0  0  0  0  0  0  0  0  0  0
   12.8482  -15.9952   21.0655 C   0  0  0  0  0  0  0  0  0  0  0  0
   12.7448  -14.7613   21.3972 O   0  0  0  0  0  0  0  0  0  0  0  0
   11.1502  -17.8852   17.2590 O   0  0  0  0  0  0  0  0  0  0  0  0
   13.7775  -16.8060   21.7502 N   0  0  0  0  0  0  0  0  0  0  0  0
   13.6101  -16.9365   23.2086 C   0  0  1  0  0  0  0  0  0  0  0  0
   12.2401  -17.4818   23.5344 C   0  0  0  0  0  0  0  0  0  0  0  0
   11.7852  -16.9975   24.8631 C   0  0  0  0  0  0  0  0  0  0  0  0
   12.4398  -16.1402   25.5350 O   0  0  0  0  0  0  0  0  0  0  0  0
   14.6516  -17.8579   23.7120 C   0  0  0  0  0  0  0  0  0  0  0  0
   15.4350  -17.5409   24.6466 O   0  0  0  0  0  0  0  0  0  0  0  0
   10.5977  -17.4690   25.4451 O   0  0  0  0  0  0  0  0  0  0  0  0
   14.7942  -19.1214   23.1547 O   0  0  0  0  0  0  0  0  0  0  0  0
  2  1  1  6
  2  3  1  0
  4  6  1  0
  4  2  1  0
  4  5  1  6
  6  7  2  0
  8  6  1  0
  8  9  1  0
  9 10  1  6
 11 10  1  0
 11 15  1  0
 12 11  2  0
 13 16  1  0
 13  9  1  0
 14 13  2  0
 17 21  1  0
 17 18  1  6
 17 16  1  0
 19 18  1  0
 19 23  1  0
 20 19  2  0
 21 24  1  0
 22 21  2  0
M  END
$$$$
