VDD.pdb
     RDKit          3D

 24 23  0  0  1  0  0  0  0  0999 V2000
    8.2998  -13.8676   20.5185 C   0  0  0  0  0  0  0  0  0  0  0  0
    8.7654  -12.9466   19.4195 C   0  0  2  0  0  0  0  0  0  0  0  0
    7.6709  -11.9862   19.0847 C   0  0  0  0  0  0  0  0  0  0  0  0
    9.2016  -13.8023   18.2506 C   0  0  2  0  0  0  0  0  0  0  0  0
    7.9939  -14.5209   17.8155 N   0  0  0  0  0  0  0  0  0  0  0  0
   10.2658  -14.7574   18.6278 C   0  0  0  0  0  0  0  0  0  0  0  0
    9.9579  -15.9349   18.9038 O   0  0  0  0  0  0  0  0  0  0  0  0
   11.6144  -14.3411   18.6749 N   0  0  0  0  0  0  0  0  0  0  0  0
   12.7195  -15.3295   18.9485 C   0  0  1  0  0  0  0  0  0  0  0  0
   13.9543  -14.6041   18.4355 C   0  0  0  0  0  0  0  0  0  0  0  0
   15.2182  -15.2998   18.4938 C   0  0  0  0  0  0  0  0  0  0  0  0
   15.3928  -16.4334   18.9522 O   0  0  0  0  0  0  0  0  0  0  0  0
   12.7566  -15.3944   20.4234 C   0  0  0  0  0  0  0  0  0  0  0  0
   13.2036  -14.3600   21.0344 O   0  0  0  0  0  0  0  0  0  0  0  0
   16.3860  -14.6741   17.9969 O   0  0  0  0  0  0  0  0  0  0  0  0
   12.3330  -16.5026   21.1866 N   0  0  0  0  0  0  0  0  0  0  0  0
   12.4404  -16.3905   22.6521 C   0  0  1  0  0  0  0  0  0  0  0  0
   11.1445  -16.8037   23.3079 C   0  0  0  0  0  0  0  0  0  0  0  0
   10.7013  -18.1294   22.8048 C   0  0  0  0  0  0  0  0  0  0  0  0
   11.4483  -18.8707   22.0925 O   0  0  0  0  0  0  0  0  0  0  0  0
   13.5372  -17.2740   23.1033 C   0  0  0  0  0  0  0  0  0  0  0  0
   14.1506  -18.0412   22.3141 O   0  0  0  0  0  0  0  0  0  0  0  0
    9.4227  -18.6310   23.0957 O   0  0  0  0  0  0  0  0  0  0  0  0
   13.9255  -17.2794   24.4363 O   0  0  0  0  0  0  0  0  0  0  0  0
  2  1  1  1
  2  3  1  0
  4  6  1  0
  4  2  1  0
  4  5  1  1
  6  7  2  0
  8  6  1  0
  8  9  1  0
  9 10  1  1
 11 10  1  0
 11 15  1  0
 12 11  2  0
 13 16  1  0
 13  9  1  0
 14 13  2  0
 17 21  1  0
 17 18  1  1
 17 16  1  0
 19 18  1  0
 19 23  1  0
 20 19  2  0
 21 24  1  0
 22 21  2  0
M  END
$$$$
