VDD.pdb
     RDKit          3D

 24 23  0  0  1  0  0  0  0  0999 V2000
    7.0057  -13.4447   20.1163 C   0  0  0  0  0  0  0  0  0  0  0  0
    8.2631  -12.9438   19.4522 C   0  0  2  0  0  0  0  0  0  0  0  0
    7.9521  -12.5439   18.0465 C   0  0  0  0  0  0  0  0  0  0  0  0
    9.3086  -14.0323   19.5571 C   0  0  2  0  0  0  0  0  0  0  0  0
    8.8557  -15.1023   18.6547 N   0  0  0  0  0  0  0  0  0  0  0  0
    9.4436  -14.5416   20.9389 C   0  0  0  0  0  0  0  0  0  0  0  0
    9.7608  -13.7514   21.8512 O   0  0  0  0  0  0  0  0  0  0  0  0
    9.2162  -15.9063   21.2217 N   0  0  0  0  0  0  0  0  0  0  0  0
    9.4015  -16.4481   22.6164 C   0  0  1  0  0  0  0  0  0  0  0  0
    8.5193  -17.6873   22.6159 C   0  0  0  0  0  0  0  0  0  0  0  0
    7.6980  -17.9310   23.7783 C   0  0  0  0  0  0  0  0  0  0  0  0
    7.7468  -17.2969   24.8371 O   0  0  0  0  0  0  0  0  0  0  0  0
   10.8229  -16.8484   22.6368 C   0  0  0  0  0  0  0  0  0  0  0  0
   11.1252  -17.9313   22.0211 O   0  0  0  0  0  0  0  0  0  0  0  0
    6.7407  -18.9728   23.7539 O   0  0  0  0  0  0  0  0  0  0  0  0
   11.8496  -16.1224   23.2762 N   0  0  0  0  0  0  0  0  0  0  0  0
   13.1848  -16.7444   23.3221 C   0  0  1  0  0  0  0  0  0  0  0  0
   14.2542  -15.7170   23.0369 C   0  0  0  0  0  0  0  0  0  0  0  0
   14.3850  -15.4879   21.5750 C   0  0  0  0  0  0  0  0  0  0  0  0
   14.4113  -16.4427   20.7368 O   0  0  0  0  0  0  0  0  0  0  0  0
   13.3819  -17.3149   24.6721 C   0  0  0  0  0  0  0  0  0  0  0  0
   14.4277  -17.9412   24.9914 O   0  0  0  0  0  0  0  0  0  0  0  0
   14.4865  -14.1918   21.0449 O   0  0  0  0  0  0  0  0  0  0  0  0
   12.3980  -17.1711   25.6410 O   0  0  0  0  0  0  0  0  0  0  0  0
  2  1  1  6
  2  3  1  0
  4  6  1  0
  4  2  1  0
  4  5  1  6
  6  7  2  0
  8  6  1  0
  8  9  1  0
  9 10  1  6
 11 10  1  0
 11 15  1  0
 12 11  2  0
 13 16  1  0
 13  9  1  0
 14 13  2  0
 17 21  1  0
 17 18  1  1
 17 16  1  0
 19 18  1  0
 19 23  1  0
 20 19  2  0
 21 24  1  0
 22 21  2  0
M  END
$$$$
