VDD.pdb
     RDKit          3D

 24 23  0  0  1  0  0  0  0  0999 V2000
    7.9604  -13.6821   21.1037 C   0  0  0  0  0  0  0  0  0  0  0  0
    8.6129  -13.1014   19.8749 C   0  0  2  0  0  0  0  0  0  0  0  0
    7.8942  -11.8528   19.4789 C   0  0  0  0  0  0  0  0  0  0  0  0
    8.6141  -14.1681   18.8021 C   0  0  2  0  0  0  0  0  0  0  0  0
    7.1970  -14.4502   18.5248 N   0  0  0  0  0  0  0  0  0  0  0  0
    9.3112  -15.3964   19.2406 C   0  0  0  0  0  0  0  0  0  0  0  0
    8.6385  -16.3729   19.6297 O   0  0  0  0  0  0  0  0  0  0  0  0
   10.7216  -15.4627   19.2191 N   0  0  0  0  0  0  0  0  0  0  0  0
   11.4405  -16.7453   19.5526 C   0  0  1  0  0  0  0  0  0  0  0  0
   12.6835  -16.6713   18.6789 C   0  0  0  0  0  0  0  0  0  0  0  0
   13.6417  -17.7470   18.7766 C   0  0  0  0  0  0  0  0  0  0  0  0
   14.8659  -17.6303   18.6604 O   0  0  0  0  0  0  0  0  0  0  0  0
   11.8157  -16.5633   20.9693 C   0  0  0  0  0  0  0  0  0  0  0  0
   12.2633  -15.4094   21.3029 O   0  0  0  0  0  0  0  0  0  0  0  0
   13.1921  -19.0654   19.0258 O   0  0  0  0  0  0  0  0  0  0  0  0
   11.7084  -17.5617   21.9601 N   0  0  0  0  0  0  0  0  0  0  0  0
   12.0477  -17.1771   23.3417 C   0  0  1  0  0  0  0  0  0  0  0  0
   11.0605  -17.7790   24.3132 C   0  0  0  0  0  0  0  0  0  0  0  0
   11.4784  -17.5182   25.7147 C   0  0  0  0  0  0  0  0  0  0  0  0
   11.8538  -16.3703   26.1098 O   0  0  0  0  0  0  0  0  0  0  0  0
   13.4099  -17.6715   23.6369 C   0  0  0  0  0  0  0  0  0  0  0  0
   14.0233  -17.3621   24.6932 O   0  0  0  0  0  0  0  0  0  0  0  0
   11.4779  -18.5386   26.6790 O   0  0  0  0  0  0  0  0  0  0  0  0
   14.0594  -18.5064   22.7377 O   0  0  0  0  0  0  0  0  0  0  0  0
  2  1  1  1
  2  3  1  0
  4  6  1  0
  4  2  1  0
  4  5  1  1
  6  7  2  0
  8  6  1  0
  8  9  1  0
  9 10  1  6
 11 10  1  0
 11 15  1  0
 12 11  2  0
 13 16  1  0
 13  9  1  0
 14 13  2  0
 17 21  1  0
 17 18  1  1
 17 16  1  0
 19 18  1  0
 19 23  1  0
 20 19  2  0
 21 24  1  0
 22 21  2  0
M  END
$$$$
