YPL.pdb
     RDKit          3D

 28 29  0  0  1  0  0  0  0  0999 V2000
    7.7477  -12.6332   27.7551 O   0  0  0  0  0  0  0  0  0  0  0  0
    7.1269  -13.4853   26.8400 C   0  0  0  0  0  0  0  0  0  0  0  0
    6.0672  -13.0995   26.0695 C   0  0  0  0  0  0  0  0  0  0  0  0
    5.4734  -13.9594   25.1749 C   0  0  0  0  0  0  0  0  0  0  0  0
    5.9426  -15.2404   25.0382 C   0  0  0  0  0  0  0  0  0  0  0  0
    5.3419  -16.1969   24.0890 C   0  0  0  0  0  0  0  0  0  0  0  0
    6.0969  -17.4857   24.0686 C   0  0  2  0  0  0  0  0  0  0  0  0
    5.9852  -18.2482   25.2692 N   0  0  0  0  0  0  0  0  0  0  0  0
    7.5071  -17.2966   23.6132 C   0  0  0  0  0  0  0  0  0  0  0  0
    8.3629  -18.2190   23.8298 O   0  0  0  0  0  0  0  0  0  0  0  0
    7.0094  -15.6473   25.8061 C   0  0  0  0  0  0  0  0  0  0  0  0
    7.5897  -14.7718   26.6956 C   0  0  0  0  0  0  0  0  0  0  0  0
    7.9678  -16.1412   22.9446 N   0  0  0  0  0  0  0  0  0  0  0  0
    7.1775  -14.9288   22.7741 C   0  0  0  0  0  0  0  0  0  0  0  0
    8.1649  -13.9237   22.1673 C   0  0  0  0  0  0  0  0  0  0  0  0
    8.9968  -14.8665   21.2969 C   0  0  0  0  0  0  0  0  0  0  0  0
    9.2739  -15.9651   22.3261 C   0  0  1  0  0  0  0  0  0  0  0  0
   10.1871  -15.3786   23.3451 C   0  0  0  0  0  0  0  0  0  0  0  0
   10.2278  -14.1210   23.5656 O   0  0  0  0  0  0  0  0  0  0  0  0
    9.4442  -15.4108   28.6728 C   0  0  0  0  0  0  0  0  0  0  0  0
   10.6450  -15.2342   27.7658 C   0  0  2  0  0  0  0  0  0  0  0  0
   11.4877  -14.0670   28.1474 C   0  0  0  0  0  0  0  0  0  0  0  0
   10.3924  -15.4749   26.3341 C   0  0  0  0  0  0  0  0  0  0  0  0
   11.5560  -15.7248   25.4539 C   0  0  2  0  0  0  0  0  0  0  0  0
   11.0635  -16.1699   24.1302 N   0  0  0  0  0  0  0  0  0  0  0  0
   12.4565  -16.7691   25.9237 C   0  0  0  0  0  0  0  0  0  0  0  0
   12.1170  -18.0948   26.0665 O   0  0  0  0  0  0  0  0  0  0  0  0
   13.6541  -16.4776   26.2412 O   0  0  0  0  0  0  0  0  0  0  0  0
  2 12  2  0
  2  1  1  0
  3  2  1  0
  4  5  1  0
  4  3  2  0
  5 11  2  0
  6  5  1  0
  7  6  1  0
  7  9  1  0
  7  8  1  1
  9 10  2  0
  9 13  1  0
 11 12  1  0
 13 14  1  0
 14 15  1  0
 16 15  1  0
 17 13  1  0
 17 16  1  0
 17 18  1  1
 19 18  2  0
 21 20  1  1
 21 22  1  0
 23 21  1  0
 24 23  1  1
 24 25  1  0
 25 18  1  0
 26 27  1  0
 26 24  1  0
 28 26  2  0
M  END
$$$$
