YPL.pdb
     RDKit          3D

 28 29  0  0  1  0  0  0  0  0999 V2000
    0.1934  -20.7727   19.8177 O   0  0  0  0  0  0  0  0  0  0  0  0
    1.3003  -20.1187   20.3616 C   0  0  0  0  0  0  0  0  0  0  0  0
    1.7132  -20.3077   21.6497 C   0  0  0  0  0  0  0  0  0  0  0  0
    2.8080  -19.6503   22.1613 C   0  0  0  0  0  0  0  0  0  0  0  0
    3.5161  -18.7792   21.3741 C   0  0  0  0  0  0  0  0  0  0  0  0
    4.6994  -18.0552   21.8764 C   0  0  0  0  0  0  0  0  0  0  0  0
    5.9073  -18.3526   21.0494 C   0  0  2  0  0  0  0  0  0  0  0  0
    6.1511  -19.7439   20.8491 N   0  0  0  0  0  0  0  0  0  0  0  0
    7.1069  -17.6013   21.5274 C   0  0  0  0  0  0  0  0  0  0  0  0
    8.0846  -18.2445   22.0379 O   0  0  0  0  0  0  0  0  0  0  0  0
    3.1150  -18.5758   20.0736 C   0  0  0  0  0  0  0  0  0  0  0  0
    2.0168  -19.2432   19.5806 C   0  0  0  0  0  0  0  0  0  0  0  0
    7.2353  -16.1971   21.4514 N   0  0  0  0  0  0  0  0  0  0  0  0
    6.2085  -15.3128   20.9156 C   0  0  0  0  0  0  0  0  0  0  0  0
    6.7342  -13.9044   21.2216 C   0  0  0  0  0  0  0  0  0  0  0  0
    8.2344  -14.1398   21.0412 C   0  0  0  0  0  0  0  0  0  0  0  0
    8.3828  -15.4109   21.8811 C   0  0  1  0  0  0  0  0  0  0  0  0
    8.1618  -15.0168   23.2995 C   0  0  0  0  0  0  0  0  0  0  0  0
    6.9921  -14.9796   23.8115 O   0  0  0  0  0  0  0  0  0  0  0  0
    5.9928  -12.3363   27.0657 C   0  0  0  0  0  0  0  0  0  0  0  0
    7.4087  -12.8637   26.9514 C   0  0  2  0  0  0  0  0  0  0  0  0
    8.4147  -11.9475   27.5568 C   0  0  0  0  0  0  0  0  0  0  0  0
    7.7366  -13.5117   25.6692 C   0  0  0  0  0  0  0  0  0  0  0  0
    8.9971  -14.2827   25.5807 C   0  0  2  0  0  0  0  0  0  0  0  0
    9.2251  -14.6601   24.1671 N   0  0  0  0  0  0  0  0  0  0  0  0
    8.9993  -15.5271   26.3381 C   0  0  0  0  0  0  0  0  0  0  0  0
    8.0588  -16.5239   26.2161 O   0  0  0  0  0  0  0  0  0  0  0  0
    9.9184  -15.7486   27.1904 O   0  0  0  0  0  0  0  0  0  0  0  0
  2 12  2  0
  2  1  1  0
  3  2  1  0
  4  5  1  0
  4  3  2  0
  5 11  2  0
  6  5  1  0
  7  6  1  0
  7  9  1  0
  7  8  1  1
  9 10  2  0
  9 13  1  0
 11 12  1  0
 13 14  1  0
 14 15  1  0
 16 15  1  0
 17 13  1  0
 17 16  1  0
 17 18  1  1
 19 18  2  0
 21 20  1  6
 21 22  1  0
 23 21  1  0
 24 23  1  6
 24 25  1  0
 25 18  1  0
 26 27  1  0
 26 24  1  0
 28 26  2  0
M  END
$$$$
