YPL.pdb
     RDKit          3D

 28 29  0  0  1  0  0  0  0  0999 V2000
    7.0361  -12.0677   27.1610 O   0  0  0  0  0  0  0  0  0  0  0  0
    6.7677  -13.3574   26.6989 C   0  0  0  0  0  0  0  0  0  0  0  0
    7.5977  -14.4163   26.9342 C   0  0  0  0  0  0  0  0  0  0  0  0
    7.3095  -15.6778   26.4673 C   0  0  0  0  0  0  0  0  0  0  0  0
    6.1649  -15.8984   25.7455 C   0  0  0  0  0  0  0  0  0  0  0  0
    5.8108  -17.2341   25.2284 C   0  0  0  0  0  0  0  0  0  0  0  0
    6.0014  -17.3097   23.7488 C   0  0  2  0  0  0  0  0  0  0  0  0
    5.3369  -18.4094   23.1287 N   0  0  0  0  0  0  0  0  0  0  0  0
    7.4411  -17.1928   23.3671 C   0  0  0  0  0  0  0  0  0  0  0  0
    8.2117  -18.1994   23.5190 O   0  0  0  0  0  0  0  0  0  0  0  0
    5.3164  -14.8437   25.4983 C   0  0  0  0  0  0  0  0  0  0  0  0
    5.6227  -13.5890   25.9742 C   0  0  0  0  0  0  0  0  0  0  0  0
    8.0200  -16.0184   22.8382 N   0  0  0  0  0  0  0  0  0  0  0  0
    7.3507  -14.7245   22.8030 C   0  0  0  0  0  0  0  0  0  0  0  0
    8.4387  -13.7561   22.3213 C   0  0  0  0  0  0  0  0  0  0  0  0
    9.1925  -14.6693   21.3536 C   0  0  0  0  0  0  0  0  0  0  0  0
    9.3472  -15.8991   22.2519 C   0  0  1  0  0  0  0  0  0  0  0  0
   10.2943  -15.5221   23.3368 C   0  0  0  0  0  0  0  0  0  0  0  0
   10.9746  -14.4419   23.2889 O   0  0  0  0  0  0  0  0  0  0  0  0
   11.5630  -14.9024   28.4723 C   0  0  0  0  0  0  0  0  0  0  0  0
   11.4250  -13.9662   27.2889 C   0  0  2  0  0  0  0  0  0  0  0  0
   11.0030  -12.5944   27.6866 C   0  0  0  0  0  0  0  0  0  0  0  0
   10.8206  -14.5609   26.0837 C   0  0  0  0  0  0  0  0  0  0  0  0
   11.3233  -15.8770   25.6294 C   0  0  2  0  0  0  0  0  0  0  0  0
   10.5016  -16.3297   24.4837 N   0  0  0  0  0  0  0  0  0  0  0  0
   11.2421  -16.9333   26.6293 C   0  0  0  0  0  0  0  0  0  0  0  0
   12.2939  -17.3659   27.4037 O   0  0  0  0  0  0  0  0  0  0  0  0
   10.1366  -17.5310   26.8314 O   0  0  0  0  0  0  0  0  0  0  0  0
  2 12  2  0
  2  1  1  0
  3  2  1  0
  4  5  1  0
  4  3  2  0
  5 11  2  0
  6  5  1  0
  7  6  1  0
  7  9  1  0
  7  8  1  1
  9 10  2  0
  9 13  1  0
 11 12  1  0
 13 14  1  0
 14 15  1  0
 16 15  1  0
 17 13  1  0
 17 16  1  0
 17 18  1  1
 19 18  2  0
 21 20  1  1
 21 22  1  0
 23 21  1  0
 24 23  1  1
 24 25  1  0
 25 18  1  0
 26 27  1  0
 26 24  1  0
 28 26  2  0
M  END
$$$$
