YPL.pdb
     RDKit          3D

 28 29  0  0  1  0  0  0  0  0999 V2000
    8.2359  -19.7016   28.5824 O   0  0  0  0  0  0  0  0  0  0  0  0
    7.6065  -19.3501   27.3869 C   0  0  0  0  0  0  0  0  0  0  0  0
    6.7516  -18.2899   27.2838 C   0  0  0  0  0  0  0  0  0  0  0  0
    6.1442  -17.9648   26.0930 C   0  0  0  0  0  0  0  0  0  0  0  0
    6.3904  -18.7116   24.9698 C   0  0  0  0  0  0  0  0  0  0  0  0
    5.7666  -18.3990   23.6698 C   0  0  0  0  0  0  0  0  0  0  0  0
    6.6798  -18.7351   22.5365 C   0  0  2  0  0  0  0  0  0  0  0  0
    7.1406  -20.0854   22.5371 N   0  0  0  0  0  0  0  0  0  0  0  0
    7.7775  -17.7322   22.3910 C   0  0  0  0  0  0  0  0  0  0  0  0
    8.9915  -18.1157   22.4880 O   0  0  0  0  0  0  0  0  0  0  0  0
    7.2488  -19.7836   25.0544 C   0  0  0  0  0  0  0  0  0  0  0  0
    7.8465  -20.0926   26.2551 C   0  0  0  0  0  0  0  0  0  0  0  0
    7.5584  -16.3584   22.1482 N   0  0  0  0  0  0  0  0  0  0  0  0
    6.2865  -15.6839   22.3734 C   0  0  0  0  0  0  0  0  0  0  0  0
    6.6074  -14.2007   22.1480 C   0  0  0  0  0  0  0  0  0  0  0  0
    7.6430  -14.3236   21.0296 C   0  0  0  0  0  0  0  0  0  0  0  0
    8.5359  -15.4045   21.6440 C   0  0  1  0  0  0  0  0  0  0  0  0
    9.2164  -14.7855   22.8144 C   0  0  0  0  0  0  0  0  0  0  0  0
    9.9084  -13.7177   22.7012 O   0  0  0  0  0  0  0  0  0  0  0  0
    8.0689  -13.1548   27.6915 C   0  0  0  0  0  0  0  0  0  0  0  0
    7.4136  -12.8273   26.3652 C   0  0  2  0  0  0  0  0  0  0  0  0
    6.0003  -12.3824   26.5159 C   0  0  0  0  0  0  0  0  0  0  0  0
    7.7436  -13.7421   25.2580 C   0  0  0  0  0  0  0  0  0  0  0  0
    9.0208  -14.4871   25.3271 C   0  0  2  0  0  0  0  0  0  0  0  0
    9.1420  -15.3352   24.1193 N   0  0  0  0  0  0  0  0  0  0  0  0
    9.1355  -15.3863   26.4674 C   0  0  0  0  0  0  0  0  0  0  0  0
   10.1235  -15.3231   27.4228 O   0  0  0  0  0  0  0  0  0  0  0  0
    8.2825  -16.3173   26.6286 O   0  0  0  0  0  0  0  0  0  0  0  0
  2 12  2  0
  2  1  1  0
  3  2  1  0
  4  5  1  0
  4  3  2  0
  5 11  2  0
  6  5  1  0
  7  6  1  0
  7  9  1  0
  7  8  1  1
  9 10  2  0
  9 13  1  0
 11 12  1  0
 13 14  1  0
 14 15  1  0
 16 15  1  0
 17 13  1  0
 17 16  1  0
 17 18  1  1
 19 18  2  0
 21 20  1  1
 21 22  1  0
 23 21  1  0
 24 23  1  6
 24 25  1  0
 25 18  1  0
 26 27  1  0
 26 24  1  0
 28 26  2  0
M  END
$$$$
