YPL.pdb
     RDKit          3D

 28 29  0  0  1  0  0  0  0  0999 V2000
    8.1260  -19.9442   28.4668 O   0  0  0  0  0  0  0  0  0  0  0  0
    7.8474  -19.7411   27.1140 C   0  0  0  0  0  0  0  0  0  0  0  0
    6.9969  -18.7688   26.6707 C   0  0  0  0  0  0  0  0  0  0  0  0
    6.7396  -18.5896   25.3312 C   0  0  0  0  0  0  0  0  0  0  0  0
    7.3426  -19.3974   24.4018 C   0  0  0  0  0  0  0  0  0  0  0  0
    7.1019  -19.2405   22.9546 C   0  0  0  0  0  0  0  0  0  0  0  0
    8.3024  -18.6811   22.2638 C   0  0  2  0  0  0  0  0  0  0  0  0
    9.4022  -19.5858   22.1773 N   0  0  0  0  0  0  0  0  0  0  0  0
    8.6776  -17.3385   22.8010 C   0  0  0  0  0  0  0  0  0  0  0  0
    9.6918  -17.2339   23.5695 O   0  0  0  0  0  0  0  0  0  0  0  0
    8.2026  -20.3826   24.8295 C   0  0  0  0  0  0  0  0  0  0  0  0
    8.4468  -20.5458   26.1742 C   0  0  0  0  0  0  0  0  0  0  0  0
    7.9707  -16.1512   22.5100 N   0  0  0  0  0  0  0  0  0  0  0  0
    6.7662  -16.0997   21.6914 C   0  0  0  0  0  0  0  0  0  0  0  0
    6.2846  -14.6498   21.8295 C   0  0  0  0  0  0  0  0  0  0  0  0
    7.6326  -13.9322   21.9092 C   0  0  0  0  0  0  0  0  0  0  0  0
    8.3125  -14.8104   22.9626 C   0  0  1  0  0  0  0  0  0  0  0  0
    7.6023  -14.5668   24.2481 C   0  0  0  0  0  0  0  0  0  0  0  0
    6.4700  -15.1012   24.5013 O   0  0  0  0  0  0  0  0  0  0  0  0
    9.0059  -15.2813   28.2078 C   0  0  0  0  0  0  0  0  0  0  0  0
    9.4160  -13.8524   27.9147 C   0  0  2  0  0  0  0  0  0  0  0  0
   10.4513  -13.3459   28.8579 C   0  0  0  0  0  0  0  0  0  0  0  0
    8.3166  -12.9483   27.5333 C   0  0  0  0  0  0  0  0  0  0  0  0
    7.3684  -13.4052   26.4924 C   0  0  2  0  0  0  0  0  0  0  0  0
    8.1310  -13.7333   25.2662 N   0  0  0  0  0  0  0  0  0  0  0  0
    6.3769  -12.4127   26.1000 C   0  0  0  0  0  0  0  0  0  0  0  0
    5.2534  -12.0931   26.8271 O   0  0  0  0  0  0  0  0  0  0  0  0
    6.5180  -11.7730   25.0087 O   0  0  0  0  0  0  0  0  0  0  0  0
  2 12  2  0
  2  1  1  0
  3  2  1  0
  4  5  1  0
  4  3  2  0
  5 11  2  0
  6  5  1  0
  7  6  1  0
  7  9  1  0
  7  8  1  1
  9 10  2  0
  9 13  1  0
 11 12  1  0
 13 14  1  0
 14 15  1  0
 16 15  1  0
 17 13  1  0
 17 16  1  0
 17 18  1  1
 19 18  2  0
 21 20  1  1
 21 22  1  0
 23 21  1  0
 24 23  1  1
 24 25  1  0
 25 18  1  0
 26 27  1  0
 26 24  1  0
 28 26  2  0
M  END
$$$$
