YPL.pdb
     RDKit          3D

 28 29  0  0  1  0  0  0  0  0999 V2000
   11.8078  -20.1110   26.0367 O   0  0  0  0  0  0  0  0  0  0  0  0
   11.3819  -19.8123   24.7412 C   0  0  0  0  0  0  0  0  0  0  0  0
   10.0672  -19.8287   24.3714 C   0  0  0  0  0  0  0  0  0  0  0  0
    9.6741  -19.5301   23.0874 C   0  0  0  0  0  0  0  0  0  0  0  0
   10.6107  -19.2052   22.1401 C   0  0  0  0  0  0  0  0  0  0  0  0
   10.2373  -18.8729   20.7520 C   0  0  0  0  0  0  0  0  0  0  0  0
   10.8697  -17.5928   20.3131 C   0  0  2  0  0  0  0  0  0  0  0  0
   12.2799  -17.6754   20.1129 N   0  0  0  0  0  0  0  0  0  0  0  0
   10.4577  -16.4448   21.1759 C   0  0  0  0  0  0  0  0  0  0  0  0
   11.3244  -15.8863   21.9289 O   0  0  0  0  0  0  0  0  0  0  0  0
   11.9402  -19.1836   22.4941 C   0  0  0  0  0  0  0  0  0  0  0  0
   12.3131  -19.4855   23.7841 C   0  0  0  0  0  0  0  0  0  0  0  0
    9.1456  -15.9243   21.2159 N   0  0  0  0  0  0  0  0  0  0  0  0
    8.0423  -16.4331   20.4114 C   0  0  0  0  0  0  0  0  0  0  0  0
    6.8160  -15.6808   20.9440 C   0  0  0  0  0  0  0  0  0  0  0  0
    7.4564  -14.3296   21.2648 C   0  0  0  0  0  0  0  0  0  0  0  0
    8.6801  -14.8202   22.0427 C   0  0  1  0  0  0  0  0  0  0  0  0
    8.1758  -15.3885   23.3228 C   0  0  0  0  0  0  0  0  0  0  0  0
    8.3127  -16.6261   23.6081 O   0  0  0  0  0  0  0  0  0  0  0  0
    6.8402  -10.9543   26.3972 C   0  0  0  0  0  0  0  0  0  0  0  0
    6.6888  -12.4493   26.2027 C   0  0  2  0  0  0  0  0  0  0  0  0
    5.5116  -13.0072   26.9244 C   0  0  0  0  0  0  0  0  0  0  0  0
    7.9470  -13.2164   26.2209 C   0  0  0  0  0  0  0  0  0  0  0  0
    7.9198  -14.6108   25.7251 C   0  0  2  0  0  0  0  0  0  0  0  0
    7.5164  -14.6008   24.3003 N   0  0  0  0  0  0  0  0  0  0  0  0
    6.9698  -15.4776   26.4095 C   0  0  0  0  0  0  0  0  0  0  0  0
    7.1781  -16.0559   27.6404 O   0  0  0  0  0  0  0  0  0  0  0  0
    5.8534  -15.7509   25.8626 O   0  0  0  0  0  0  0  0  0  0  0  0
  2 12  2  0
  2  1  1  0
  3  2  1  0
  4  5  1  0
  4  3  2  0
  5 11  2  0
  6  5  1  0
  7  6  1  0
  7  9  1  0
  7  8  1  1
  9 10  2  0
  9 13  1  0
 11 12  1  0
 13 14  1  0
 14 15  1  0
 16 15  1  0
 17 13  1  0
 17 16  1  0
 17 18  1  1
 19 18  2  0
 21 20  1  1
 21 22  1  0
 23 21  1  0
 24 23  1  1
 24 25  1  0
 25 18  1  0
 26 27  1  0
 26 24  1  0
 28 26  2  0
M  END
$$$$
