DCC.pdb
     RDKit          3D

 21 20  0  0  1  0  0  0  0  0999 V2000
    8.4307  -18.3626   18.1395 N   0  0  0  0  0  0  0  0  0  0  0  0
    9.7639  -17.8101   18.2913 C   0  0  1  0  0  0  0  0  0  0  0  0
   10.0697  -17.0122   17.0473 C   0  0  0  0  0  0  0  0  0  0  0  0
   10.3593  -17.8806   15.9052 C   0  0  0  0  0  0  0  0  0  0  0  0
   10.2385  -19.1287   15.9060 O   0  0  0  0  0  0  0  0  0  0  0  0
    9.8253  -16.9628   19.5101 C   0  0  0  0  0  0  0  0  0  0  0  0
   10.9622  -16.4526   19.7946 O   0  0  0  0  0  0  0  0  0  0  0  0
   10.8086  -17.3186   14.6982 O   0  0  0  0  0  0  0  0  0  0  0  0
    8.7047  -16.7024   20.3507 N   0  0  0  0  0  0  0  0  0  0  0  0
    8.8903  -15.9209   21.5303 C   0  0  1  0  0  0  0  0  0  0  0  0
    7.5343  -15.7349   22.2317 C   0  0  0  0  0  0  0  0  0  0  0  0
    6.4836  -14.8428   21.0371 S   0  0  0  0  0  0  0  0  0  0  0  0
    9.7638  -16.5791   22.5330 C   0  0  0  0  0  0  0  0  0  0  0  0
    9.6795  -17.8202   22.6342 O   0  0  0  0  0  0  0  0  0  0  0  0
   10.6672  -15.8746   23.3591 N   0  0  0  0  0  0  0  0  0  0  0  0
   11.5418  -16.5140   24.2792 C   0  0  1  0  0  0  0  0  0  0  0  0
   12.9766  -16.0599   24.1303 C   0  0  0  0  0  0  0  0  0  0  0  0
   13.5284  -15.9792   22.4289 S   0  0  0  0  0  0  0  0  0  0  0  0
   11.0858  -16.5321   25.6888 C   0  0  0  0  0  0  0  0  0  0  0  0
   11.8010  -17.1902   26.6723 O   0  0  0  0  0  0  0  0  0  0  0  0
   10.0382  -15.9475   26.0138 O   0  0  0  0  0  0  0  0  0  0  0  0
  2  3  1  0
  2  1  1  6
  3  4  1  0
  4  8  1  0
  4  5  2  0
  6  2  1  0
  7  6  2  0
  9  6  1  0
 10  9  1  0
 10 11  1  1
 12 11  1  0
 13 10  1  0
 13 15  1  0
 14 13  2  0
 16 15  1  0
 16 19  1  0
 16 17  1  1
 18 17  1  0
 19 21  2  0
 19 20  1  0
M  END
$$$$
