DCC.pdb
     RDKit          3D

 21 20  0  0  1  0  0  0  0  0999 V2000
    7.7812  -18.7035   18.1688 N   0  0  0  0  0  0  0  0  0  0  0  0
    9.0968  -18.1563   17.8948 C   0  0  1  0  0  0  0  0  0  0  0  0
    9.0422  -17.4993   16.5373 C   0  0  0  0  0  0  0  0  0  0  0  0
    9.4327  -18.4244   15.4724 C   0  0  0  0  0  0  0  0  0  0  0  0
    9.4719  -19.6725   15.5869 O   0  0  0  0  0  0  0  0  0  0  0  0
    9.4722  -17.1852   18.9547 C   0  0  0  0  0  0  0  0  0  0  0  0
   10.6516  -16.6966   18.8902 O   0  0  0  0  0  0  0  0  0  0  0  0
    9.7989  -17.9224   14.2120 O   0  0  0  0  0  0  0  0  0  0  0  0
    8.6002  -16.7873   20.0089 N   0  0  0  0  0  0  0  0  0  0  0  0
    9.1021  -15.9370   21.0394 C   0  0  1  0  0  0  0  0  0  0  0  0
    7.9324  -15.4655   21.9197 C   0  0  0  0  0  0  0  0  0  0  0  0
    7.2125  -16.9829   22.6311 S   0  0  0  0  0  0  0  0  0  0  0  0
   10.0340  -16.6298   21.9631 C   0  0  0  0  0  0  0  0  0  0  0  0
    9.9925  -17.8770   21.9841 O   0  0  0  0  0  0  0  0  0  0  0  0
   10.9463  -15.9510   22.8008 N   0  0  0  0  0  0  0  0  0  0  0  0
   11.8402  -16.6189   23.6814 C   0  0  1  0  0  0  0  0  0  0  0  0
   13.2656  -16.1335   23.5423 C   0  0  0  0  0  0  0  0  0  0  0  0
   14.4276  -17.0214   24.5754 S   0  0  0  0  0  0  0  0  0  0  0  0
   11.3977  -16.7127   25.0923 C   0  0  0  0  0  0  0  0  0  0  0  0
   11.8787  -17.6956   25.9375 O   0  0  0  0  0  0  0  0  0  0  0  0
   10.5756  -15.8977   25.5445 O   0  0  0  0  0  0  0  0  0  0  0  0
  2  3  1  0
  2  1  1  1
  3  4  1  0
  4  8  1  0
  4  5  2  0
  6  2  1  0
  7  6  2  0
  9  6  1  0
 10  9  1  0
 10 11  1  1
 12 11  1  0
 13 10  1  0
 13 15  1  0
 14 13  2  0
 16 15  1  0
 16 19  1  0
 16 17  1  1
 18 17  1  0
 19 21  2  0
 19 20  1  0
M  END
$$$$
