DCC.pdb
     RDKit          3D

 21 20  0  0  1  0  0  0  0  0999 V2000
   10.1045  -16.5880   21.2472 N   0  0  0  0  0  0  0  0  0  0  0  0
    8.9434  -16.5199   22.1147 C   0  0  1  0  0  0  0  0  0  0  0  0
    8.4517  -17.9307   22.3278 C   0  0  0  0  0  0  0  0  0  0  0  0
    7.9886  -18.5367   21.0785 C   0  0  0  0  0  0  0  0  0  0  0  0
    8.1236  -18.0253   19.9415 O   0  0  0  0  0  0  0  0  0  0  0  0
    9.3089  -15.8710   23.4002 C   0  0  0  0  0  0  0  0  0  0  0  0
   10.4846  -16.1045   23.8441 O   0  0  0  0  0  0  0  0  0  0  0  0
    7.3395  -19.7827   21.1065 O   0  0  0  0  0  0  0  0  0  0  0  0
    8.4313  -15.0249   24.1378 N   0  0  0  0  0  0  0  0  0  0  0  0
    8.8476  -14.5384   25.4133 C   0  0  1  0  0  0  0  0  0  0  0  0
    7.7606  -13.6087   25.9786 C   0  0  0  0  0  0  0  0  0  0  0  0
    8.4140  -13.0028   27.5701 S   0  0  0  0  0  0  0  0  0  0  0  0
    9.0077  -15.6142   26.4225 C   0  0  0  0  0  0  0  0  0  0  0  0
    8.1342  -16.5053   26.4483 O   0  0  0  0  0  0  0  0  0  0  0  0
   10.0844  -15.6703   27.3349 N   0  0  0  0  0  0  0  0  0  0  0  0
   10.3108  -16.7710   28.2053 C   0  0  1  0  0  0  0  0  0  0  0  0
   11.1333  -17.8639   27.5602 C   0  0  0  0  0  0  0  0  0  0  0  0
   11.5253  -19.2135   28.6695 S   0  0  0  0  0  0  0  0  0  0  0  0
   10.7796  -16.4239   29.5673 C   0  0  0  0  0  0  0  0  0  0  0  0
   11.0779  -15.1205   29.9195 O   0  0  0  0  0  0  0  0  0  0  0  0
   10.9140  -17.3117   30.4266 O   0  0  0  0  0  0  0  0  0  0  0  0
  2  3  1  0
  2  1  1  6
  3  4  1  0
  4  8  1  0
  4  5  2  0
  6  2  1  0
  7  6  2  0
  9  6  1  0
 10  9  1  0
 10 11  1  1
 12 11  1  0
 13 10  1  0
 13 15  1  0
 14 13  2  0
 16 15  1  0
 16 19  1  0
 16 17  1  6
 18 17  1  0
 19 21  2  0
 19 20  1  0
M  END
$$$$
