DCC.pdb
     RDKit          3D

 21 20  0  0  1  0  0  0  0  0999 V2000
    8.4863  -15.2393   20.5053 N   0  0  0  0  0  0  0  0  0  0  0  0
    7.3658  -15.2554   21.4270 C   0  0  1  0  0  0  0  0  0  0  0  0
    6.8224  -16.6630   21.4574 C   0  0  0  0  0  0  0  0  0  0  0  0
    6.3621  -17.0939   20.1365 C   0  0  0  0  0  0  0  0  0  0  0  0
    6.4445  -18.2653   19.6966 O   0  0  0  0  0  0  0  0  0  0  0  0
    7.8115  -14.8149   22.7740 C   0  0  0  0  0  0  0  0  0  0  0  0
    8.9995  -15.1387   23.1169 O   0  0  0  0  0  0  0  0  0  0  0  0
    5.7786  -16.1609   19.2627 O   0  0  0  0  0  0  0  0  0  0  0  0
    6.9958  -14.0695   23.6735 N   0  0  0  0  0  0  0  0  0  0  0  0
    7.4791  -13.8052   24.9901 C   0  0  1  0  0  0  0  0  0  0  0  0
    6.5983  -12.7275   25.6446 C   0  0  0  0  0  0  0  0  0  0  0  0
    7.2586  -12.5137   27.3313 S   0  0  0  0  0  0  0  0  0  0  0  0
    7.3920  -14.9824   25.8891 C   0  0  0  0  0  0  0  0  0  0  0  0
    6.2813  -15.5431   25.9871 O   0  0  0  0  0  0  0  0  0  0  0  0
    8.4903  -15.4838   26.6221 N   0  0  0  0  0  0  0  0  0  0  0  0
    8.5199  -16.7884   27.1856 C   0  0  1  0  0  0  0  0  0  0  0  0
    8.2498  -17.8702   26.1639 C   0  0  0  0  0  0  0  0  0  0  0  0
    6.5112  -18.0889   25.7964 S   0  0  0  0  0  0  0  0  0  0  0  0
    9.6878  -17.0871   28.0469 C   0  0  0  0  0  0  0  0  0  0  0  0
    9.8241  -18.3068   28.6838 O   0  0  0  0  0  0  0  0  0  0  0  0
   10.5760  -16.2337   28.2128 O   0  0  0  0  0  0  0  0  0  0  0  0
  2  3  1  0
  2  1  1  6
  3  4  1  0
  4  8  1  0
  4  5  2  0
  6  2  1  0
  7  6  2  0
  9  6  1  0
 10  9  1  0
 10 11  1  1
 12 11  1  0
 13 10  1  0
 13 15  1  0
 14 13  2  0
 16 15  1  0
 16 19  1  0
 16 17  1  6
 18 17  1  0
 19 21  2  0
 19 20  1  0
M  END
$$$$
