DCC.pdb
     RDKit          3D

 21 20  0  0  1  0  0  0  0  0999 V2000
   10.3448  -16.0327   20.0103 N   0  0  0  0  0  0  0  0  0  0  0  0
   10.2333  -16.8176   21.2256 C   0  0  1  0  0  0  0  0  0  0  0  0
   11.5551  -17.5136   21.4402 C   0  0  0  0  0  0  0  0  0  0  0  0
   11.6622  -18.7315   20.6356 C   0  0  0  0  0  0  0  0  0  0  0  0
   10.7123  -19.5119   20.3880 O   0  0  0  0  0  0  0  0  0  0  0  0
    9.8914  -15.9338   22.3698 C   0  0  0  0  0  0  0  0  0  0  0  0
   10.6805  -14.9526   22.5895 O   0  0  0  0  0  0  0  0  0  0  0  0
   12.9009  -19.0932   20.0794 O   0  0  0  0  0  0  0  0  0  0  0  0
    8.7557  -16.1275   23.2082 N   0  0  0  0  0  0  0  0  0  0  0  0
    8.5107  -15.2027   24.2672 C   0  0  1  0  0  0  0  0  0  0  0  0
    7.0119  -15.2153   24.6121 C   0  0  0  0  0  0  0  0  0  0  0  0
    6.8086  -13.9986   25.9556 S   0  0  0  0  0  0  0  0  0  0  0  0
    9.2064  -15.5632   25.5272 C   0  0  0  0  0  0  0  0  0  0  0  0
    9.4648  -16.7705   25.7096 O   0  0  0  0  0  0  0  0  0  0  0  0
    9.5806  -14.6171   26.5069 N   0  0  0  0  0  0  0  0  0  0  0  0
   10.2002  -14.9723   27.7359 C   0  0  1  0  0  0  0  0  0  0  0  0
   10.1139  -13.8728   28.7706 C   0  0  0  0  0  0  0  0  0  0  0  0
   11.3588  -13.9967   30.0514 S   0  0  0  0  0  0  0  0  0  0  0  0
    9.8343  -16.3026   28.2759 C   0  0  0  0  0  0  0  0  0  0  0  0
   10.7761  -17.1315   28.8571 O   0  0  0  0  0  0  0  0  0  0  0  0
    8.6583  -16.6999   28.2139 O   0  0  0  0  0  0  0  0  0  0  0  0
  2  3  1  0
  2  1  1  6
  3  4  1  0
  4  8  1  0
  4  5  2  0
  6  2  1  0
  7  6  2  0
  9  6  1  0
 10  9  1  0
 10 11  1  1
 12 11  1  0
 13 10  1  0
 13 15  1  0
 14 13  2  0
 16 15  1  0
 16 19  1  0
 16 17  1  1
 18 17  1  0
 19 21  2  0
 19 20  1  0
M  END
$$$$
