NNM.pdb
     RDKit          3D

 25 24  0  0  1  0  0  0  0  0999 V2000
    7.8547  -12.5325   17.3862 N   0  0  0  0  0  0  0  0  0  0  0  0
    8.2763  -13.8495   17.7568 C   0  0  0  0  0  0  0  0  0  0  0  0
    9.2921  -14.3101   17.2170 O   0  0  0  0  0  0  0  0  0  0  0  0
    7.5064  -14.5818   18.7375 C   0  0  0  0  0  0  0  0  0  0  0  0
    7.5676  -14.0924   20.1618 C   0  0  2  0  0  0  0  0  0  0  0  0
    8.9088  -13.5066   20.2746 N   0  0  0  0  0  0  0  0  0  0  0  0
    7.4597  -15.2746   21.0502 C   0  0  0  0  0  0  0  0  0  0  0  0
    6.8385  -16.2819   20.6648 O   0  0  0  0  0  0  0  0  0  0  0  0
   12.3848  -16.9233   22.5804 N   0  0  0  0  0  0  0  0  0  0  0  0
   11.1797  -17.1902   21.8812 C   0  0  0  0  0  0  0  0  0  0  0  0
   10.9349  -18.3556   21.4837 O   0  0  0  0  0  0  0  0  0  0  0  0
   10.2082  -16.1253   21.6116 C   0  0  0  0  0  0  0  0  0  0  0  0
    9.0690  -16.2722   22.6274 C   0  0  2  0  0  0  0  0  0  0  0  0
    8.0378  -15.3270   22.3476 N   0  0  0  0  0  0  0  0  0  0  0  0
    9.6709  -16.1035   23.9734 C   0  0  0  0  0  0  0  0  0  0  0  0
   10.5808  -16.8384   24.4284 O   0  0  0  0  0  0  0  0  0  0  0  0
    6.9532  -10.6833   26.6552 C   0  0  0  0  0  0  0  0  0  0  0  0
    7.3331  -12.3935   26.9021 S   0  0  0  0  0  0  0  0  0  0  0  0
    6.7357  -13.5523   25.6934 C   0  0  0  0  0  0  0  0  0  0  0  0
    7.0876  -14.9655   25.9819 C   0  0  0  0  0  0  0  0  0  0  0  0
    8.5410  -15.2862   26.0831 C   0  0  2  0  0  0  0  0  0  0  0  0
    9.1804  -15.0478   24.7803 N   0  0  0  0  0  0  0  0  0  0  0  0
    8.8082  -16.6717   26.4911 C   0  0  0  0  0  0  0  0  0  0  0  0
    8.8036  -17.6108   25.6761 O   0  0  0  0  0  0  0  0  0  0  0  0
    9.0765  -16.9792   27.8112 O   0  0  0  0  0  0  0  0  0  0  0  0
  2  1  1  0
  2  3  2  0
  4  2  1  0
  5  4  1  0
  5  6  1  6
  7  8  2  0
  7  5  1  0
  9 10  1  0
 10 11  2  0
 10 12  1  0
 13 12  1  6
 13 15  1  0
 13 14  1  0
 14  7  1  0
 15 22  1  0
 16 15  2  0
 18 17  1  0
 19 18  1  0
 21 20  1  6
 20 19  1  0
 21 23  1  0
 22 21  1  0
 23 24  2  0
 23 25  1  0
M  END
$$$$
