NNM.pdb
     RDKit          3D

 25 24  0  0  1  0  0  0  0  0999 V2000
    7.1056  -15.4170   15.5519 N   0  0  0  0  0  0  0  0  0  0  0  0
    7.8649  -14.2631   15.9279 C   0  0  0  0  0  0  0  0  0  0  0  0
    8.7370  -13.8588   15.1460 O   0  0  0  0  0  0  0  0  0  0  0  0
    7.5855  -13.6222   17.1935 C   0  0  0  0  0  0  0  0  0  0  0  0
    8.7154  -13.5476   18.1884 C   0  0  2  0  0  0  0  0  0  0  0  0
    9.8267  -14.2246   17.5092 N   0  0  0  0  0  0  0  0  0  0  0  0
    8.3130  -14.3221   19.3871 C   0  0  0  0  0  0  0  0  0  0  0  0
    7.3121  -13.9738   20.0398 O   0  0  0  0  0  0  0  0  0  0  0  0
   11.0618  -17.6546   19.4642 N   0  0  0  0  0  0  0  0  0  0  0  0
   10.5337  -17.5577   20.7774 C   0  0  0  0  0  0  0  0  0  0  0  0
   11.3124  -17.4413   21.7551 O   0  0  0  0  0  0  0  0  0  0  0  0
    9.0874  -17.5913   21.0169 C   0  0  0  0  0  0  0  0  0  0  0  0
    8.5875  -16.1417   21.0261 C   0  0  2  0  0  0  0  0  0  0  0  0
    9.0198  -15.4667   19.8461 N   0  0  0  0  0  0  0  0  0  0  0  0
    9.0938  -15.5221   22.2760 C   0  0  0  0  0  0  0  0  0  0  0  0
   10.1551  -14.8558   22.3449 O   0  0  0  0  0  0  0  0  0  0  0  0
    6.3695  -10.9880   27.8114 C   0  0  0  0  0  0  0  0  0  0  0  0
    6.1626  -12.3522   26.7040 S   0  0  0  0  0  0  0  0  0  0  0  0
    7.6041  -13.3116   26.3014 C   0  0  0  0  0  0  0  0  0  0  0  0
    7.4609  -14.1366   25.0754 C   0  0  0  0  0  0  0  0  0  0  0  0
    8.6258  -14.9912   24.7039 C   0  0  2  0  0  0  0  0  0  0  0  0
    8.3245  -15.7012   23.4516 N   0  0  0  0  0  0  0  0  0  0  0  0
    8.9784  -15.9799   25.7313 C   0  0  0  0  0  0  0  0  0  0  0  0
    8.8209  -17.2003   25.5527 O   0  0  0  0  0  0  0  0  0  0  0  0
    9.5033  -15.5795   26.9452 O   0  0  0  0  0  0  0  0  0  0  0  0
  2  1  1  0
  2  3  2  0
  4  2  1  0
  5  4  1  0
  5  6  1  6
  7  8  2  0
  7  5  1  0
  9 10  1  0
 10 11  2  0
 10 12  1  0
 13 12  1  6
 13 15  1  0
 13 14  1  0
 14  7  1  0
 15 22  1  0
 16 15  2  0
 18 17  1  0
 19 18  1  0
 21 20  1  1
 20 19  1  0
 21 23  1  0
 22 21  1  0
 23 24  2  0
 23 25  1  0
M  END
$$$$
