NNM.pdb
     RDKit          3D

 25 24  0  0  1  0  0  0  0  0999 V2000
   14.5367  -18.0520   18.3865 N   0  0  0  0  0  0  0  0  0  0  0  0
   13.4295  -17.4796   17.6824 C   0  0  0  0  0  0  0  0  0  0  0  0
   13.6304  -17.0333   16.5440 O   0  0  0  0  0  0  0  0  0  0  0  0
   12.1335  -17.4461   18.3226 C   0  0  0  0  0  0  0  0  0  0  0  0
   12.0562  -17.9509   19.7408 C   0  0  2  0  0  0  0  0  0  0  0  0
   11.7991  -19.3880   19.5886 N   0  0  0  0  0  0  0  0  0  0  0  0
   10.8932  -17.2985   20.3892 C   0  0  0  0  0  0  0  0  0  0  0  0
   10.8477  -16.0574   20.4709 O   0  0  0  0  0  0  0  0  0  0  0  0
    7.3115  -20.0774   20.1164 N   0  0  0  0  0  0  0  0  0  0  0  0
    7.0476  -18.7621   20.5778 C   0  0  0  0  0  0  0  0  0  0  0  0
    6.3530  -17.9843   19.8789 O   0  0  0  0  0  0  0  0  0  0  0  0
    7.5732  -18.2900   21.8628 C   0  0  0  0  0  0  0  0  0  0  0  0
    8.7266  -17.3250   21.5629 C   0  0  2  0  0  0  0  0  0  0  0  0
    9.8004  -18.0243   20.9363 N   0  0  0  0  0  0  0  0  0  0  0  0
    9.1073  -16.6985   22.8533 C   0  0  0  0  0  0  0  0  0  0  0  0
   10.1136  -17.0357   23.5230 O   0  0  0  0  0  0  0  0  0  0  0  0
    6.3930  -10.9421   27.7804 C   0  0  0  0  0  0  0  0  0  0  0  0
    6.4161  -11.8560   26.2657 S   0  0  0  0  0  0  0  0  0  0  0  0
    7.5115  -13.2524   26.1634 C   0  0  0  0  0  0  0  0  0  0  0  0
    7.5232  -13.9186   24.8367 C   0  0  0  0  0  0  0  0  0  0  0  0
    8.5041  -15.0273   24.6530 C   0  0  2  0  0  0  0  0  0  0  0  0
    8.2777  -15.6614   23.3454 N   0  0  0  0  0  0  0  0  0  0  0  0
    8.4242  -16.0589   25.6954 C   0  0  0  0  0  0  0  0  0  0  0  0
    7.6450  -17.0240   25.6087 O   0  0  0  0  0  0  0  0  0  0  0  0
    9.2230  -15.9884   26.8206 O   0  0  0  0  0  0  0  0  0  0  0  0
  2  1  1  0
  2  3  2  0
  4  2  1  0
  5  4  1  0
  5  6  1  6
  7  8  2  0
  7  5  1  0
  9 10  1  0
 10 11  2  0
 10 12  1  0
 13 12  1  1
 13 15  1  0
 13 14  1  0
 14  7  1  0
 15 22  1  0
 16 15  2  0
 18 17  1  0
 19 18  1  0
 21 20  1  1
 20 19  1  0
 21 23  1  0
 22 21  1  0
 23 24  2  0
 23 25  1  0
M  END
$$$$
