NNM.pdb
     RDKit          3D

 25 24  0  0  1  0  0  0  0  0999 V2000
    8.3777  -12.3813   17.6741 N   0  0  0  0  0  0  0  0  0  0  0  0
    7.7530  -13.6650   17.7808 C   0  0  0  0  0  0  0  0  0  0  0  0
    7.4488  -14.2542   16.7341 O   0  0  0  0  0  0  0  0  0  0  0  0
    7.5048  -14.2167   19.0941 C   0  0  0  0  0  0  0  0  0  0  0  0
    8.6511  -14.9273   19.7670 C   0  0  2  0  0  0  0  0  0  0  0  0
    8.7869  -16.1746   19.0052 N   0  0  0  0  0  0  0  0  0  0  0  0
    8.2393  -15.2311   21.1586 C   0  0  0  0  0  0  0  0  0  0  0  0
    7.6939  -14.3495   21.8475 O   0  0  0  0  0  0  0  0  0  0  0  0
   12.0619  -17.7118   23.1973 N   0  0  0  0  0  0  0  0  0  0  0  0
   12.0821  -16.8154   22.0979 C   0  0  0  0  0  0  0  0  0  0  0  0
   13.1784  -16.4859   21.5827 O   0  0  0  0  0  0  0  0  0  0  0  0
   10.8402  -16.2625   21.5480 C   0  0  0  0  0  0  0  0  0  0  0  0
    9.6806  -16.8027   22.3936 C   0  0  2  0  0  0  0  0  0  0  0  0
    8.4350  -16.5004   21.7675 N   0  0  0  0  0  0  0  0  0  0  0  0
    9.8198  -16.2032   23.7440 C   0  0  0  0  0  0  0  0  0  0  0  0
   10.8607  -16.2851   24.4404 O   0  0  0  0  0  0  0  0  0  0  0  0
    6.8779  -10.4655   25.9244 C   0  0  0  0  0  0  0  0  0  0  0  0
    7.1898  -12.1115   26.4930 S   0  0  0  0  0  0  0  0  0  0  0  0
    6.8304  -13.4494   25.3789 C   0  0  0  0  0  0  0  0  0  0  0  0
    7.1123  -14.7960   25.9367 C   0  0  0  0  0  0  0  0  0  0  0  0
    8.4822  -15.3413   25.7096 C   0  0  2  0  0  0  0  0  0  0  0  0
    8.7054  -15.5010   24.2647 N   0  0  0  0  0  0  0  0  0  0  0  0
    8.7144  -16.6342   26.3666 C   0  0  0  0  0  0  0  0  0  0  0  0
    9.1292  -16.7137   27.5361 O   0  0  0  0  0  0  0  0  0  0  0  0
    8.4763  -17.8190   25.6966 O   0  0  0  0  0  0  0  0  0  0  0  0
  2  1  1  0
  2  3  2  0
  4  2  1  0
  5  4  1  0
  5  6  1  6
  7  8  2  0
  7  5  1  0
  9 10  1  0
 10 11  2  0
 10 12  1  0
 13 12  1  6
 13 15  1  0
 13 14  1  0
 14  7  1  0
 15 22  1  0
 16 15  2  0
 18 17  1  0
 19 18  1  0
 21 20  1  6
 20 19  1  0
 21 23  1  0
 22 21  1  0
 23 24  2  0
 23 25  1  0
M  END
$$$$
