NNM.pdb
     RDKit          3D

 25 24  0  0  1  0  0  0  0  0999 V2000
   12.9532  -19.6004   18.1572 N   0  0  0  0  0  0  0  0  0  0  0  0
   13.0751  -18.1863   17.9701 C   0  0  0  0  0  0  0  0  0  0  0  0
   13.9695  -17.7725   17.2190 O   0  0  0  0  0  0  0  0  0  0  0  0
   12.1574  -17.3065   18.6590 C   0  0  0  0  0  0  0  0  0  0  0  0
   11.2166  -17.9391   19.6523 C   0  0  2  0  0  0  0  0  0  0  0  0
   10.0047  -18.2051   18.8680 N   0  0  0  0  0  0  0  0  0  0  0  0
   10.9248  -16.9327   20.7015 C   0  0  0  0  0  0  0  0  0  0  0  0
   11.8599  -16.4260   21.3480 O   0  0  0  0  0  0  0  0  0  0  0  0
    6.8235  -14.5552   20.0434 N   0  0  0  0  0  0  0  0  0  0  0  0
    7.7479  -14.2767   21.0829 C   0  0  0  0  0  0  0  0  0  0  0  0
    8.4230  -13.2188   21.0495 O   0  0  0  0  0  0  0  0  0  0  0  0
    7.9317  -15.2056   22.2026 C   0  0  0  0  0  0  0  0  0  0  0  0
    9.3876  -15.6858   22.1694 C   0  0  2  0  0  0  0  0  0  0  0  0
    9.6084  -16.5019   21.0205 N   0  0  0  0  0  0  0  0  0  0  0  0
    9.6341  -16.3948   23.4496 C   0  0  0  0  0  0  0  0  0  0  0  0
    9.0479  -17.4522   23.7862 O   0  0  0  0  0  0  0  0  0  0  0  0
   10.7894  -12.7809   29.1103 C   0  0  0  0  0  0  0  0  0  0  0  0
    9.4260  -12.7784   27.9827 S   0  0  0  0  0  0  0  0  0  0  0  0
    8.8673  -14.3481   27.3630 C   0  0  0  0  0  0  0  0  0  0  0  0
    9.2779  -14.6293   25.9642 C   0  0  0  0  0  0  0  0  0  0  0  0
   10.3280  -15.6712   25.7714 C   0  0  2  0  0  0  0  0  0  0  0  0
   10.5887  -15.8342   24.3331 N   0  0  0  0  0  0  0  0  0  0  0  0
    9.9664  -16.9786   26.3345 C   0  0  0  0  0  0  0  0  0  0  0  0
    9.1068  -17.7073   25.8088 O   0  0  0  0  0  0  0  0  0  0  0  0
   10.5782  -17.4463   27.4817 O   0  0  0  0  0  0  0  0  0  0  0  0
  2  1  1  0
  2  3  2  0
  4  2  1  0
  5  4  1  0
  5  6  1  6
  7  8  2  0
  7  5  1  0
  9 10  1  0
 10 11  2  0
 10 12  1  0
 13 12  1  1
 13 15  1  0
 13 14  1  0
 14  7  1  0
 15 22  1  0
 16 15  2  0
 18 17  1  0
 19 18  1  0
 21 20  1  6
 20 19  1  0
 21 23  1  0
 22 21  1  0
 23 24  2  0
 23 25  1  0
M  END
$$$$
