NNM.pdb
     RDKit          3D

 25 24  0  0  1  0  0  0  0  0999 V2000
   11.8047  -22.3724   22.3175 N   0  0  0  0  0  0  0  0  0  0  0  0
   13.0830  -21.7462   22.4697 C   0  0  0  0  0  0  0  0  0  0  0  0
   14.0443  -22.2256   21.8522 O   0  0  0  0  0  0  0  0  0  0  0  0
   13.1989  -20.5899   23.3301 C   0  0  0  0  0  0  0  0  0  0  0  0
   11.9360  -20.0953   23.9877 C   0  0  2  0  0  0  0  0  0  0  0  0
   10.8710  -20.5363   23.0789 N   0  0  0  0  0  0  0  0  0  0  0  0
   11.9917  -18.6138   24.0146 C   0  0  0  0  0  0  0  0  0  0  0  0
   12.7410  -18.0388   24.8251 O   0  0  0  0  0  0  0  0  0  0  0  0
   11.0879  -17.0124   19.9339 N   0  0  0  0  0  0  0  0  0  0  0  0
   11.5746  -16.1234   20.9266 C   0  0  0  0  0  0  0  0  0  0  0  0
   12.7529  -15.6962   20.8567 O   0  0  0  0  0  0  0  0  0  0  0  0
   10.7233  -15.6909   22.0396 C   0  0  0  0  0  0  0  0  0  0  0  0
   11.2428  -16.3743   23.3102 C   0  0  2  0  0  0  0  0  0  0  0  0
   11.2212  -17.7914   23.1484 N   0  0  0  0  0  0  0  0  0  0  0  0
   10.3938  -15.8980   24.4303 C   0  0  0  0  0  0  0  0  0  0  0  0
   10.8310  -15.2464   25.4097 O   0  0  0  0  0  0  0  0  0  0  0  0
    5.5652  -10.9279   26.7665 C   0  0  0  0  0  0  0  0  0  0  0  0
    6.5508  -11.8686   25.6379 S   0  0  0  0  0  0  0  0  0  0  0  0
    6.8136  -13.5871   26.0094 C   0  0  0  0  0  0  0  0  0  0  0  0
    7.8321  -14.2444   25.1522 C   0  0  0  0  0  0  0  0  0  0  0  0
    8.0572  -15.7017   25.3777 C   0  0  2  0  0  0  0  0  0  0  0  0
    9.0118  -16.2038   24.3778 N   0  0  0  0  0  0  0  0  0  0  0  0
    6.8291  -16.5034   25.2987 C   0  0  0  0  0  0  0  0  0  0  0  0
    6.5895  -17.2479   24.3321 O   0  0  0  0  0  0  0  0  0  0  0  0
    5.8884  -16.4547   26.3096 O   0  0  0  0  0  0  0  0  0  0  0  0
  2  1  1  0
  2  3  2  0
  4  2  1  0
  5  4  1  0
  5  6  1  6
  7  8  2  0
  7  5  1  0
  9 10  1  0
 10 11  2  0
 10 12  1  0
 13 12  1  6
 13 15  1  0
 13 14  1  0
 14  7  1  0
 15 22  1  0
 16 15  2  0
 18 17  1  0
 19 18  1  0
 21 20  1  6
 20 19  1  0
 21 23  1  0
 22 21  1  0
 23 24  2  0
 23 25  1  0
M  END
$$$$
