NNM.pdb
     RDKit          3D

 25 24  0  0  1  0  0  0  0  0999 V2000
    8.9611  -14.1185   16.1670 N   0  0  0  0  0  0  0  0  0  0  0  0
    8.1620  -13.6112   17.2410 C   0  0  0  0  0  0  0  0  0  0  0  0
    7.4520  -12.6197   17.0216 O   0  0  0  0  0  0  0  0  0  0  0  0
    8.2155  -14.2709   18.5266 C   0  0  0  0  0  0  0  0  0  0  0  0
    9.1985  -15.4038   18.6753 C   0  0  2  0  0  0  0  0  0  0  0  0
    8.6955  -16.4287   17.7528 N   0  0  0  0  0  0  0  0  0  0  0  0
    9.1103  -15.8974   20.0707 C   0  0  0  0  0  0  0  0  0  0  0  0
    8.0179  -15.8726   20.6666 O   0  0  0  0  0  0  0  0  0  0  0  0
   10.1349  -20.1578   21.3958 N   0  0  0  0  0  0  0  0  0  0  0  0
   11.0206  -19.0557   21.2791 C   0  0  0  0  0  0  0  0  0  0  0  0
   11.7349  -18.9363   20.2538 O   0  0  0  0  0  0  0  0  0  0  0  0
   11.1190  -18.0471   22.3390 C   0  0  0  0  0  0  0  0  0  0  0  0
   10.0378  -16.9925   22.0740 C   0  0  2  0  0  0  0  0  0  0  0  0
   10.2268  -16.4098   20.7857 N   0  0  0  0  0  0  0  0  0  0  0  0
   10.1192  -16.0080   23.1816 C   0  0  0  0  0  0  0  0  0  0  0  0
   11.0827  -15.2209   23.3467 O   0  0  0  0  0  0  0  0  0  0  0  0
    6.1997  -10.8370   25.3138 C   0  0  0  0  0  0  0  0  0  0  0  0
    6.0610  -12.3485   26.2228 S   0  0  0  0  0  0  0  0  0  0  0  0
    7.5201  -13.3520   26.3790 C   0  0  0  0  0  0  0  0  0  0  0  0
    7.7525  -14.2674   25.2335 C   0  0  0  0  0  0  0  0  0  0  0  0
    9.0222  -15.0504   25.2492 C   0  0  2  0  0  0  0  0  0  0  0  0
    9.0401  -15.9654   24.0979 N   0  0  0  0  0  0  0  0  0  0  0  0
    9.2113  -15.8353   26.4761 C   0  0  0  0  0  0  0  0  0  0  0  0
    9.0652  -17.0700   26.4972 O   0  0  0  0  0  0  0  0  0  0  0  0
    9.5621  -15.2182   27.6615 O   0  0  0  0  0  0  0  0  0  0  0  0
  2  1  1  0
  2  3  2  0
  4  2  1  0
  5  4  1  0
  5  6  1  6
  7  8  2  0
  7  5  1  0
  9 10  1  0
 10 11  2  0
 10 12  1  0
 13 12  1  1
 13 15  1  0
 13 14  1  0
 14  7  1  0
 15 22  1  0
 16 15  2  0
 18 17  1  0
 19 18  1  0
 21 20  1  1
 20 19  1  0
 21 23  1  0
 22 21  1  0
 23 24  2  0
 23 25  1  0
M  END
$$$$
