NNM.pdb
     RDKit          3D

 25 24  0  0  1  0  0  0  0  0999 V2000
    7.9747  -12.4255   17.1230 N   0  0  0  0  0  0  0  0  0  0  0  0
    7.8114  -13.8474   17.1538 C   0  0  0  0  0  0  0  0  0  0  0  0
    7.7564  -14.4516   16.0734 O   0  0  0  0  0  0  0  0  0  0  0  0
    7.7181  -14.5146   18.4333 C   0  0  0  0  0  0  0  0  0  0  0  0
    8.9189  -14.4287   19.3403 C   0  0  2  0  0  0  0  0  0  0  0  0
    9.9987  -15.0345   18.5519 N   0  0  0  0  0  0  0  0  0  0  0  0
    8.6420  -15.2612   20.5357 C   0  0  0  0  0  0  0  0  0  0  0  0
    7.6322  -15.0329   21.2266 O   0  0  0  0  0  0  0  0  0  0  0  0
   10.0472  -19.9612   20.5378 N   0  0  0  0  0  0  0  0  0  0  0  0
    9.4458  -19.2982   21.6385 C   0  0  0  0  0  0  0  0  0  0  0  0
    8.3028  -19.6440   22.0253 O   0  0  0  0  0  0  0  0  0  0  0  0
   10.1372  -18.2102   22.3376 C   0  0  0  0  0  0  0  0  0  0  0  0
    9.2653  -16.9548   22.2136 C   0  0  2  0  0  0  0  0  0  0  0  0
    9.4818  -16.3306   20.9493 N   0  0  0  0  0  0  0  0  0  0  0  0
    9.6046  -16.0823   23.3651 C   0  0  0  0  0  0  0  0  0  0  0  0
   10.7474  -15.6038   23.5657 O   0  0  0  0  0  0  0  0  0  0  0  0
    6.4588  -10.4784   26.1512 C   0  0  0  0  0  0  0  0  0  0  0  0
    6.2870  -12.0356   26.9732 S   0  0  0  0  0  0  0  0  0  0  0  0
    7.6482  -13.1746   26.8718 C   0  0  0  0  0  0  0  0  0  0  0  0
    7.6426  -14.0197   25.6512 C   0  0  0  0  0  0  0  0  0  0  0  0
    8.7940  -14.9521   25.4773 C   0  0  2  0  0  0  0  0  0  0  0  0
    8.5690  -15.7805   24.2830 N   0  0  0  0  0  0  0  0  0  0  0  0
    9.0103  -15.8373   26.6291 C   0  0  0  0  0  0  0  0  0  0  0  0
    8.6595  -17.0302   26.6182 O   0  0  0  0  0  0  0  0  0  0  0  0
    9.6185  -15.3660   27.7768 O   0  0  0  0  0  0  0  0  0  0  0  0
  2  1  1  0
  2  3  2  0
  4  2  1  0
  5  4  1  0
  5  6  1  6
  7  8  2  0
  7  5  1  0
  9 10  1  0
 10 11  2  0
 10 12  1  0
 13 12  1  6
 13 15  1  0
 13 14  1  0
 14  7  1  0
 15 22  1  0
 16 15  2  0
 18 17  1  0
 19 18  1  0
 21 20  1  1
 20 19  1  0
 21 23  1  0
 22 21  1  0
 23 24  2  0
 23 25  1  0
M  END
$$$$
