NNM.pdb
     RDKit          3D

 25 24  0  0  1  0  0  0  0  0999 V2000
    7.8261  -12.0596   17.9126 N   0  0  0  0  0  0  0  0  0  0  0  0
    7.6565  -13.4035   17.4492 C   0  0  0  0  0  0  0  0  0  0  0  0
    7.4866  -13.5846   16.2353 O   0  0  0  0  0  0  0  0  0  0  0  0
    7.6900  -14.4850   18.4084 C   0  0  0  0  0  0  0  0  0  0  0  0
    7.8057  -14.1078   19.8631 C   0  0  2  0  0  0  0  0  0  0  0  0
    8.7175  -12.9575   19.8563 N   0  0  0  0  0  0  0  0  0  0  0  0
    8.4370  -15.2448   20.5753 C   0  0  0  0  0  0  0  0  0  0  0  0
    7.8583  -16.3460   20.6156 O   0  0  0  0  0  0  0  0  0  0  0  0
   12.5167  -14.6111   20.2369 N   0  0  0  0  0  0  0  0  0  0  0  0
   12.4167  -15.4325   21.3892 C   0  0  0  0  0  0  0  0  0  0  0  0
   13.0379  -15.1186   22.4340 O   0  0  0  0  0  0  0  0  0  0  0  0
   11.5970  -16.6484   21.3843 C   0  0  0  0  0  0  0  0  0  0  0  0
   10.2152  -16.2755   21.9348 C   0  0  2  0  0  0  0  0  0  0  0  0
    9.6946  -15.1495   21.2306 N   0  0  0  0  0  0  0  0  0  0  0  0
   10.3850  -16.0318   23.3888 C   0  0  0  0  0  0  0  0  0  0  0  0
   10.9341  -16.8431   24.1732 O   0  0  0  0  0  0  0  0  0  0  0  0
    6.0071  -11.1053   26.5769 C   0  0  0  0  0  0  0  0  0  0  0  0
    7.0959  -12.3955   27.1063 S   0  0  0  0  0  0  0  0  0  0  0  0
    7.0316  -13.9393   26.2273 C   0  0  0  0  0  0  0  0  0  0  0  0
    7.9213  -13.9993   25.0403 C   0  0  0  0  0  0  0  0  0  0  0  0
    9.2147  -14.7232   25.2090 C   0  0  2  0  0  0  0  0  0  0  0  0
    9.8941  -14.8087   23.9075 N   0  0  0  0  0  0  0  0  0  0  0  0
    9.0603  -16.0806   25.7484 C   0  0  0  0  0  0  0  0  0  0  0  0
    8.7583  -17.0462   25.0256 O   0  0  0  0  0  0  0  0  0  0  0  0
    9.2481  -16.3306   27.0943 O   0  0  0  0  0  0  0  0  0  0  0  0
  2  1  1  0
  2  3  2  0
  4  2  1  0
  5  4  1  0
  5  6  1  6
  7  8  2  0
  7  5  1  0
  9 10  1  0
 10 11  2  0
 10 12  1  0
 13 12  1  6
 13 15  1  0
 13 14  1  0
 14  7  1  0
 15 22  1  0
 16 15  2  0
 18 17  1  0
 19 18  1  0
 21 20  1  6
 20 19  1  0
 21 23  1  0
 22 21  1  0
 23 24  2  0
 23 25  1  0
M  END
$$$$
