NNM.pdb
     RDKit          3D

 25 24  0  0  1  0  0  0  0  0999 V2000
    8.0704  -12.3372   16.4980 N   0  0  0  0  0  0  0  0  0  0  0  0
    7.9394  -13.7562   16.6348 C   0  0  0  0  0  0  0  0  0  0  0  0
    8.0636  -14.4539   15.6183 O   0  0  0  0  0  0  0  0  0  0  0  0
    7.6698  -14.3124   17.9420 C   0  0  0  0  0  0  0  0  0  0  0  0
    8.8220  -14.3733   18.9119 C   0  0  2  0  0  0  0  0  0  0  0  0
    9.8810  -15.0537   18.1570 N   0  0  0  0  0  0  0  0  0  0  0  0
    8.4026  -15.2148   20.0585 C   0  0  0  0  0  0  0  0  0  0  0  0
    7.4406  -14.8611   20.7646 O   0  0  0  0  0  0  0  0  0  0  0  0
    7.5335  -19.8852   21.1194 N   0  0  0  0  0  0  0  0  0  0  0  0
    8.7819  -19.2918   20.7999 C   0  0  0  0  0  0  0  0  0  0  0  0
    9.3146  -19.5223   19.6868 O   0  0  0  0  0  0  0  0  0  0  0  0
    9.4668  -18.4093   21.7500 C   0  0  0  0  0  0  0  0  0  0  0  0
    8.7902  -17.0353   21.6733 C   0  0  2  0  0  0  0  0  0  0  0  0
    9.0499  -16.4311   20.4075 N   0  0  0  0  0  0  0  0  0  0  0  0
    9.3011  -16.2420   22.8187 C   0  0  0  0  0  0  0  0  0  0  0  0
   10.4684  -15.7863   22.8871 O   0  0  0  0  0  0  0  0  0  0  0  0
    6.4080  -11.0887   28.0647 C   0  0  0  0  0  0  0  0  0  0  0  0
    6.3286  -12.2378   26.7218 S   0  0  0  0  0  0  0  0  0  0  0  0
    7.7294  -13.3018   26.4649 C   0  0  0  0  0  0  0  0  0  0  0  0
    7.6142  -14.1796   25.2731 C   0  0  0  0  0  0  0  0  0  0  0  0
    8.7545  -15.1050   25.0105 C   0  0  2  0  0  0  0  0  0  0  0  0
    8.4086  -15.9924   23.8898 N   0  0  0  0  0  0  0  0  0  0  0  0
    9.1173  -15.9313   26.1693 C   0  0  0  0  0  0  0  0  0  0  0  0
    8.7664  -17.1202   26.2663 O   0  0  0  0  0  0  0  0  0  0  0  0
    9.8699  -15.4063   27.2024 O   0  0  0  0  0  0  0  0  0  0  0  0
  2  1  1  0
  2  3  2  0
  4  2  1  0
  5  4  1  0
  5  6  1  6
  7  8  2  0
  7  5  1  0
  9 10  1  0
 10 11  2  0
 10 12  1  0
 13 12  1  6
 13 15  1  0
 13 14  1  0
 14  7  1  0
 15 22  1  0
 16 15  2  0
 18 17  1  0
 19 18  1  0
 21 20  1  1
 20 19  1  0
 21 23  1  0
 22 21  1  0
 23 24  2  0
 23 25  1  0
M  END
$$$$
