NNM.pdb
     RDKit          3D

 25 24  0  0  1  0  0  0  0  0999 V2000
    6.7001  -19.2411   16.5894 N   0  0  0  0  0  0  0  0  0  0  0  0
    7.3141  -19.4460   17.8663 C   0  0  0  0  0  0  0  0  0  0  0  0
    7.0697  -20.5011   18.4682 O   0  0  0  0  0  0  0  0  0  0  0  0
    8.1867  -18.4222   18.3967 C   0  0  0  0  0  0  0  0  0  0  0  0
    7.9272  -17.9646   19.8092 C   0  0  2  0  0  0  0  0  0  0  0  0
    6.4968  -17.6352   19.8145 N   0  0  0  0  0  0  0  0  0  0  0  0
    8.7261  -16.7370   20.0398 C   0  0  0  0  0  0  0  0  0  0  0  0
    9.9674  -16.8096   20.0952 O   0  0  0  0  0  0  0  0  0  0  0  0
    7.2900  -13.5782   17.6019 N   0  0  0  0  0  0  0  0  0  0  0  0
    8.5208  -13.5468   18.3067 C   0  0  0  0  0  0  0  0  0  0  0  0
    9.5796  -13.8922   17.7274 O   0  0  0  0  0  0  0  0  0  0  0  0
    8.5813  -13.1162   19.7072 C   0  0  0  0  0  0  0  0  0  0  0  0
    8.9680  -14.3381   20.5491 C   0  0  2  0  0  0  0  0  0  0  0  0
    8.1443  -15.4508   20.2053 N   0  0  0  0  0  0  0  0  0  0  0  0
    8.8455  -13.9341   21.9718 C   0  0  0  0  0  0  0  0  0  0  0  0
    8.4361  -12.8080   22.3451 O   0  0  0  0  0  0  0  0  0  0  0  0
    5.8447  -12.4444   28.2457 C   0  0  0  0  0  0  0  0  0  0  0  0
    6.0731  -13.1219   26.6275 S   0  0  0  0  0  0  0  0  0  0  0  0
    7.6690  -13.8010   26.2371 C   0  0  0  0  0  0  0  0  0  0  0  0
    7.8768  -14.0705   24.7920 C   0  0  0  0  0  0  0  0  0  0  0  0
    9.2250  -14.5670   24.3907 C   0  0  2  0  0  0  0  0  0  0  0  0
    9.2156  -14.8844   22.9547 N   0  0  0  0  0  0  0  0  0  0  0  0
    9.6549  -15.7595   25.1326 C   0  0  0  0  0  0  0  0  0  0  0  0
    9.8635  -15.7332   26.3581 O   0  0  0  0  0  0  0  0  0  0  0  0
    9.8437  -16.9645   24.4833 O   0  0  0  0  0  0  0  0  0  0  0  0
  2  1  1  0
  2  3  2  0
  4  2  1  0
  5  4  1  0
  5  6  1  6
  7  8  2  0
  7  5  1  0
  9 10  1  0
 10 11  2  0
 10 12  1  0
 13 12  1  6
 13 15  1  0
 13 14  1  0
 14  7  1  0
 15 22  1  0
 16 15  2  0
 18 17  1  0
 19 18  1  0
 21 20  1  1
 20 19  1  0
 21 23  1  0
 22 21  1  0
 23 24  2  0
 23 25  1  0
M  END
$$$$
