TPA.pdb
     RDKit          3D

 20 20  0  0  1  0  0  0  0  0999 V2000
   20.8429   -9.2504  -19.0766 C   0  0  0  0  0  0  0  0  0  0  0  0
   19.6792  -10.1685  -18.8349 C   0  0  1  0  0  0  0  0  0  0  0  0
   19.4342  -10.8721  -19.9920 O   0  0  0  0  0  0  0  0  0  0  0  0
   19.9824  -11.1190  -17.6691 C   0  0  2  0  0  0  0  0  0  0  0  0
   18.8017  -11.9956  -17.5338 N   0  0  0  0  0  0  0  0  0  0  0  0
   20.1347  -10.3216  -16.4245 C   0  0  0  0  0  0  0  0  0  0  0  0
   19.1032   -9.7125  -16.0136 O   0  0  0  0  0  0  0  0  0  0  0  0
   21.3235  -10.1967  -15.6781 N   0  0  0  0  0  0  0  0  0  0  0  0
   22.5509  -10.9152  -15.9131 C   0  0  0  0  0  0  0  0  0  0  0  0
   22.9592  -11.1772  -14.4465 C   0  0  0  0  0  0  0  0  0  0  0  0
   22.8462   -9.7688  -13.9201 C   0  0  0  0  0  0  0  0  0  0  0  0
   21.5108   -9.3402  -14.5329 C   0  0  1  0  0  0  0  0  0  0  0  0
   21.6131   -7.9093  -14.9766 C   0  0  0  0  0  0  0  0  0  0  0  0
   22.1990   -7.5741  -16.0359 O   0  0  0  0  0  0  0  0  0  0  0  0
   19.8284   -4.7448  -14.1417 C   0  0  0  0  0  0  0  0  0  0  0  0
   21.0723   -5.4758  -14.5546 C   0  0  2  0  0  0  0  0  0  0  0  0
   21.0386   -6.8813  -14.1939 N   0  0  0  0  0  0  0  0  0  0  0  0
   22.2589   -4.8749  -13.8916 C   0  0  0  0  0  0  0  0  0  0  0  0
   22.7400   -5.4241  -12.8675 O   0  0  0  0  0  0  0  0  0  0  0  0
   22.8648   -3.7185  -14.3625 O   0  0  0  0  0  0  0  0  0  0  0  0
  2  1  1  6
  2  3  1  0
  4  6  1  0
  4  2  1  0
  4  5  1  1
  6  7  2  0
  8 12  1  0
  8  6  1  0
  9  8  1  0
 10  9  1  0
 10 11  1  0
 11 12  1  0
 12 13  1  6
 13 14  2  0
 13 17  1  0
 16 15  1  1
 16 18  1  0
 17 16  1  0
 18 20  1  0
 19 18  2  0
M  END
$$$$
