TPA.pdb
     RDKit          3D

 20 20  0  0  1  0  0  0  0  0999 V2000
   16.9895   -9.2071  -16.6628 C   0  0  0  0  0  0  0  0  0  0  0  0
   17.2649  -10.5350  -16.0178 C   0  0  1  0  0  0  0  0  0  0  0  0
   16.2324  -11.3904  -16.3278 O   0  0  0  0  0  0  0  0  0  0  0  0
   18.6072  -11.0969  -16.5050 C   0  0  2  0  0  0  0  0  0  0  0  0
   18.7599  -12.4171  -15.8611 N   0  0  0  0  0  0  0  0  0  0  0  0
   19.7004  -10.2050  -16.0388 C   0  0  0  0  0  0  0  0  0  0  0  0
   19.9214  -10.1856  -14.7920 O   0  0  0  0  0  0  0  0  0  0  0  0
   20.4985   -9.3929  -16.8694 N   0  0  0  0  0  0  0  0  0  0  0  0
   20.3760   -9.2654  -18.3000 C   0  0  0  0  0  0  0  0  0  0  0  0
   21.8760   -9.2065  -18.6641 C   0  0  0  0  0  0  0  0  0  0  0  0
   22.3021   -8.1171  -17.7127 C   0  0  0  0  0  0  0  0  0  0  0  0
   21.5932   -8.5622  -16.4314 C   0  0  1  0  0  0  0  0  0  0  0  0
   21.0624   -7.3511  -15.7200 C   0  0  0  0  0  0  0  0  0  0  0  0
   19.9223   -6.8792  -15.9548 O   0  0  0  0  0  0  0  0  0  0  0  0
   22.0303   -5.5374  -12.5887 C   0  0  0  0  0  0  0  0  0  0  0  0
   21.3871   -5.5812  -13.9439 C   0  0  2  0  0  0  0  0  0  0  0  0
   21.8524   -6.6979  -14.7459 N   0  0  0  0  0  0  0  0  0  0  0  0
   21.6961   -4.3359  -14.6939 C   0  0  0  0  0  0  0  0  0  0  0  0
   22.4952   -4.3798  -15.6641 O   0  0  0  0  0  0  0  0  0  0  0  0
   21.1318   -3.1119  -14.3628 O   0  0  0  0  0  0  0  0  0  0  0  0
  2  1  1  6
  2  3  1  0
  4  6  1  0
  4  2  1  0
  4  5  1  1
  6  7  2  0
  8 12  1  0
  8  6  1  0
  9  8  1  0
 10  9  1  0
 10 11  1  0
 11 12  1  0
 12 13  1  6
 13 14  2  0
 13 17  1  0
 16 15  1  1
 16 18  1  0
 17 16  1  0
 18 20  1  0
 19 18  2  0
M  END
$$$$
