TPA.pdb
     RDKit          3D

 20 20  0  0  1  0  0  0  0  0999 V2000
   17.0338   -9.0465  -19.8300 C   0  0  0  0  0  0  0  0  0  0  0  0
   17.9888   -8.6701  -18.7338 C   0  0  1  0  0  0  0  0  0  0  0  0
   17.2578   -8.2358  -17.6518 O   0  0  0  0  0  0  0  0  0  0  0  0
   18.8673   -9.8701  -18.3559 C   0  0  2  0  0  0  0  0  0  0  0  0
   17.9510  -10.9036  -17.8330 N   0  0  0  0  0  0  0  0  0  0  0  0
   19.8002   -9.4623  -17.2736 C   0  0  0  0  0  0  0  0  0  0  0  0
   19.4683   -9.7770  -16.0926 O   0  0  0  0  0  0  0  0  0  0  0  0
   21.0095   -8.7635  -17.4617 N   0  0  0  0  0  0  0  0  0  0  0  0
   21.5612   -8.3504  -18.7277 C   0  0  0  0  0  0  0  0  0  0  0  0
   23.0519   -8.6399  -18.4450 C   0  0  0  0  0  0  0  0  0  0  0  0
   23.1871   -7.9001  -17.1381 C   0  0  0  0  0  0  0  0  0  0  0  0
   21.9174   -8.3584  -16.4168 C   0  0  1  0  0  0  0  0  0  0  0  0
   21.3391   -7.1979  -15.6595 C   0  0  0  0  0  0  0  0  0  0  0  0
   20.5585   -6.3698  -16.1912 O   0  0  0  0  0  0  0  0  0  0  0  0
   21.2450   -6.1905  -12.0195 C   0  0  0  0  0  0  0  0  0  0  0  0
   21.1623   -5.9093  -13.4914 C   0  0  2  0  0  0  0  0  0  0  0  0
   21.6674   -7.0053  -14.2976 N   0  0  0  0  0  0  0  0  0  0  0  0
   21.9663   -4.7047  -13.8248 C   0  0  0  0  0  0  0  0  0  0  0  0
   23.0894   -4.8427  -14.3739 O   0  0  0  0  0  0  0  0  0  0  0  0
   21.5228   -3.4183  -13.5514 O   0  0  0  0  0  0  0  0  0  0  0  0
  2  1  1  6
  2  3  1  0
  4  6  1  0
  4  2  1  0
  4  5  1  1
  6  7  2  0
  8 12  1  0
  8  6  1  0
  9  8  1  0
 10  9  1  0
 10 11  1  0
 11 12  1  0
 12 13  1  6
 13 14  2  0
 13 17  1  0
 16 15  1  1
 16 18  1  0
 17 16  1  0
 18 20  1  0
 19 18  2  0
M  END
$$$$
