TPA.pdb
     RDKit          3D

 20 20  0  0  1  0  0  0  0  0999 V2000
   28.5596  -18.1868  -15.6365 C   0  0  0  0  0  0  0  0  0  0  0  0
   27.2998  -18.9495  -15.3424 C   0  0  1  0  0  0  0  0  0  0  0  0
   26.5021  -18.9183  -16.4633 O   0  0  0  0  0  0  0  0  0  0  0  0
   27.6310  -20.3943  -14.9454 C   0  0  2  0  0  0  0  0  0  0  0  0
   28.0599  -21.0745  -16.1840 N   0  0  0  0  0  0  0  0  0  0  0  0
   26.3971  -21.0496  -14.4393 C   0  0  0  0  0  0  0  0  0  0  0  0
   25.7869  -21.8083  -15.2492 O   0  0  0  0  0  0  0  0  0  0  0  0
   25.8650  -20.8930  -13.1437 N   0  0  0  0  0  0  0  0  0  0  0  0
   26.4476  -20.1190  -12.0764 C   0  0  0  0  0  0  0  0  0  0  0  0
   26.1346  -21.0652  -10.8963 C   0  0  0  0  0  0  0  0  0  0  0  0
   24.6602  -21.2620  -11.1426 C   0  0  0  0  0  0  0  0  0  0  0  0
   24.6516  -21.5001  -12.6545 C   0  0  1  0  0  0  0  0  0  0  0  0
   23.4588  -20.8105  -13.2515 C   0  0  0  0  0  0  0  0  0  0  0  0
   23.4045  -19.5637  -13.3940 O   0  0  0  0  0  0  0  0  0  0  0  0
   20.4558  -21.9439  -15.2042 C   0  0  0  0  0  0  0  0  0  0  0  0
   21.1586  -20.9873  -14.2859 C   0  0  2  0  0  0  0  0  0  0  0  0
   22.3423  -21.5664  -13.6776 N   0  0  0  0  0  0  0  0  0  0  0  0
   20.2481  -20.5775  -13.1851 C   0  0  0  0  0  0  0  0  0  0  0  0
   20.3915  -21.0835  -12.0426 O   0  0  0  0  0  0  0  0  0  0  0  0
   19.2340  -19.6481  -13.3690 O   0  0  0  0  0  0  0  0  0  0  0  0
  2  1  1  6
  2  3  1  0
  4  6  1  0
  4  2  1  0
  4  5  1  6
  6  7  2  0
  8 12  1  0
  8  6  1  0
  9  8  1  0
 10  9  1  0
 10 11  1  0
 11 12  1  0
 12 13  1  6
 13 14  2  0
 13 17  1  0
 16 15  1  6
 16 18  1  0
 17 16  1  0
 18 20  1  0
 19 18  2  0
M  END
$$$$
