TPA.pdb
     RDKit          3D

 20 20  0  0  1  0  0  0  0  0999 V2000
   19.1852  -17.8055    3.3219 C   0  0  0  0  0  0  0  0  0  0  0  0
   17.9262  -18.5857    3.0735 C   0  0  1  0  0  0  0  0  0  0  0  0
   17.6819  -18.5953    1.7192 O   0  0  0  0  0  0  0  0  0  0  0  0
   18.0681  -20.0144    3.6151 C   0  0  2  0  0  0  0  0  0  0  0  0
   16.8250  -20.7210    3.2456 N   0  0  0  0  0  0  0  0  0  0  0  0
   18.1683  -19.9603    5.0966 C   0  0  0  0  0  0  0  0  0  0  0  0
   17.0864  -20.0912    5.7417 O   0  0  0  0  0  0  0  0  0  0  0  0
   19.3606  -19.7786    5.8257 N   0  0  0  0  0  0  0  0  0  0  0  0
   20.6891  -19.7015    5.2716 C   0  0  0  0  0  0  0  0  0  0  0  0
   21.4466  -20.5014    6.3544 C   0  0  0  0  0  0  0  0  0  0  0  0
   20.9532  -19.7644    7.5737 C   0  0  0  0  0  0  0  0  0  0  0  0
   19.4590  -19.6591    7.2597 C   0  0  1  0  0  0  0  0  0  0  0  0
   18.9614  -18.3109    7.6951 C   0  0  0  0  0  0  0  0  0  0  0  0
   19.0398  -17.2956    6.9597 O   0  0  0  0  0  0  0  0  0  0  0  0
   16.9145  -17.0408   10.6041 C   0  0  0  0  0  0  0  0  0  0  0  0
   17.9094  -16.8774    9.4924 C   0  0  2  0  0  0  0  0  0  0  0  0
   18.3791  -18.1488    8.9735 N   0  0  0  0  0  0  0  0  0  0  0  0
   19.0977  -16.1296    9.9796 C   0  0  0  0  0  0  0  0  0  0  0  0
   19.0089  -14.8919   10.1845 O   0  0  0  0  0  0  0  0  0  0  0  0
   20.3161  -16.7492   10.2203 O   0  0  0  0  0  0  0  0  0  0  0  0
  2  1  1  6
  2  3  1  0
  4  6  1  0
  4  2  1  0
  4  5  1  1
  6  7  2  0
  8 12  1  0
  8  6  1  0
  9  8  1  0
 10  9  1  0
 10 11  1  0
 11 12  1  0
 12 13  1  6
 13 14  2  0
 13 17  1  0
 16 15  1  1
 16 18  1  0
 17 16  1  0
 18 20  1  0
 19 18  2  0
M  END
$$$$
