TPA.pdb
     RDKit          3D

 20 20  0  0  1  0  0  0  0  0999 V2000
   19.9009   -9.5710  -17.7010 C   0  0  0  0  0  0  0  0  0  0  0  0
   19.6329   -8.3106  -16.9296 C   0  0  1  0  0  0  0  0  0  0  0  0
   18.4121   -7.8123  -17.3234 O   0  0  0  0  0  0  0  0  0  0  0  0
   19.6486   -8.5941  -15.4216 C   0  0  2  0  0  0  0  0  0  0  0  0
   18.5027   -9.4876  -15.1579 N   0  0  0  0  0  0  0  0  0  0  0  0
   19.4419   -7.3178  -14.6893 C   0  0  0  0  0  0  0  0  0  0  0  0
   18.2741   -7.1007  -14.2500 O   0  0  0  0  0  0  0  0  0  0  0  0
   20.4348   -6.3468  -14.4496 N   0  0  0  0  0  0  0  0  0  0  0  0
   21.8306   -6.4601  -14.7913 C   0  0  0  0  0  0  0  0  0  0  0  0
   22.4389   -5.7988  -13.5348 C   0  0  0  0  0  0  0  0  0  0  0  0
   21.6306   -4.5260  -13.5293 C   0  0  0  0  0  0  0  0  0  0  0  0
   20.2281   -5.0761  -13.7994 C   0  0  1  0  0  0  0  0  0  0  0  0
   19.5055   -4.1404  -14.7250 C   0  0  0  0  0  0  0  0  0  0  0  0
   19.6515   -4.1821  -15.9719 O   0  0  0  0  0  0  0  0  0  0  0  0
   16.6304   -1.7373  -14.3370 C   0  0  0  0  0  0  0  0  0  0  0  0
   17.8689   -2.2362  -15.0221 C   0  0  2  0  0  0  0  0  0  0  0  0
   18.6226   -3.1672  -14.2025 N   0  0  0  0  0  0  0  0  0  0  0  0
   18.7676   -1.0964  -15.3412 C   0  0  0  0  0  0  0  0  0  0  0  0
   19.8232   -0.9356  -14.6765 O   0  0  0  0  0  0  0  0  0  0  0  0
   18.4858   -0.1915  -16.3551 O   0  0  0  0  0  0  0  0  0  0  0  0
  2  1  1  6
  2  3  1  0
  4  6  1  0
  4  2  1  0
  4  5  1  6
  6  7  2  0
  8 12  1  0
  8  6  1  0
  9  8  1  0
 10  9  1  0
 10 11  1  0
 11 12  1  0
 12 13  1  6
 13 14  2  0
 13 17  1  0
 16 15  1  1
 16 18  1  0
 17 16  1  0
 18 20  1  0
 19 18  2  0
M  END
$$$$
