EIH.pdb
     RDKit          3D

 28 28  0  0  1  0  0  0  0  0999 V2000
    8.8194  -18.8051   19.3030 N   0  0  0  0  0  0  0  0  0  0  0  0
   10.2171  -18.4493   19.3698 C   0  0  1  0  0  0  0  0  0  0  0  0
   10.7895  -18.1672   17.9823 C   0  0  0  0  0  0  0  0  0  0  0  0
   10.4417  -19.3525   17.1174 C   0  0  0  0  0  0  0  0  0  0  0  0
   10.9858  -19.2076   15.7423 C   0  0  0  0  0  0  0  0  0  0  0  0
   12.0028  -18.4846   15.5803 O   0  0  0  0  0  0  0  0  0  0  0  0
   10.3418  -17.2179   20.1902 C   0  0  0  0  0  0  0  0  0  0  0  0
   11.4517  -16.6209   20.2952 O   0  0  0  0  0  0  0  0  0  0  0  0
   10.3853  -19.8532   14.6730 O   0  0  0  0  0  0  0  0  0  0  0  0
    6.9161  -13.2982   19.7914 C   0  0  0  0  0  0  0  0  0  0  0  0
    8.1886  -14.0287   20.0431 C   0  0  0  0  0  0  0  0  0  0  0  0
    8.2428  -14.5971   21.4158 C   0  0  2  0  0  0  0  0  0  0  0  0
    8.0897  -13.4848   22.4721 C   0  0  0  0  0  0  0  0  0  0  0  0
    9.4365  -15.4423   21.7544 C   0  0  2  0  0  0  0  0  0  0  0  0
    9.2541  -16.6453   20.8912 N   0  0  0  0  0  0  0  0  0  0  0  0
    9.6374  -15.8448   23.1269 C   0  0  0  0  0  0  0  0  0  0  0  0
    8.6141  -16.3289   23.7486 O   0  0  0  0  0  0  0  0  0  0  0  0
   10.8005  -15.7827   23.8830 N   0  0  0  0  0  0  0  0  0  0  0  0
   10.8230  -15.6023   25.3393 C   0  0  1  0  0  0  0  0  0  0  0  0
    9.6638  -14.8141   25.8130 C   0  0  0  0  0  0  0  0  0  0  0  0
    9.7001  -14.6322   27.2819 C   0  0  0  0  0  0  0  0  0  0  0  0
   10.7470  -14.4445   28.1366 C   0  0  0  0  0  0  0  0  0  0  0  0
   10.2597  -14.2493   29.3786 N   0  0  0  0  0  0  0  0  0  0  0  0
    8.9253  -14.3050   29.3456 C   0  0  0  0  0  0  0  0  0  0  0  0
    8.5869  -14.5352   28.0831 N   0  0  0  0  0  0  0  0  0  0  0  0
   10.7057  -17.0147   25.8611 C   0  0  0  0  0  0  0  0  0  0  0  0
   10.7635  -17.1813   27.1056 O   0  0  0  0  0  0  0  0  0  0  0  0
   10.5469  -18.0889   25.0540 O   0  0  0  0  0  0  0  0  0  0  0  0
  2  3  1  0
  2  1  1  6
  4  5  1  0
  4  3  1  0
  5  6  2  0
  7  2  1  0
  8  7  2  0
  9  5  1  0
 11 12  1  0
 11 10  1  0
 12 13  1  1
 12 14  1  0
 14 15  1  6
 15  7  1  0
 16 17  2  0
 16 14  1  0
 18 16  1  0
 19 18  1  0
 19 20  1  1
 20 21  1  0
 21 25  1  0
 21 22  2  0
 22 23  1  0
 24 23  1  0
 25 24  2  0
 26 19  1  0
 27 26  2  0
 28 26  1  0
M  END
$$$$
