EIH.pdb
     RDKit          3D

 28 28  0  0  1  0  0  0  0  0999 V2000
    8.7246  -14.7613   19.9077 N   0  0  0  0  0  0  0  0  0  0  0  0
    7.9573  -15.3535   20.9778 C   0  0  1  0  0  0  0  0  0  0  0  0
    8.0063  -16.8789   20.9236 C   0  0  0  0  0  0  0  0  0  0  0  0
    7.3059  -17.2933   19.6541 C   0  0  0  0  0  0  0  0  0  0  0  0
    7.3454  -18.7661   19.4605 C   0  0  0  0  0  0  0  0  0  0  0  0
    6.7754  -19.2462   18.4468 O   0  0  0  0  0  0  0  0  0  0  0  0
    8.5434  -14.9088   22.2676 C   0  0  0  0  0  0  0  0  0  0  0  0
    9.7927  -14.7553   22.3910 O   0  0  0  0  0  0  0  0  0  0  0  0
    7.9935  -19.5818   20.3745 O   0  0  0  0  0  0  0  0  0  0  0  0
    6.8857  -11.6548   27.0684 C   0  0  0  0  0  0  0  0  0  0  0  0
    7.8728  -12.6657   26.5995 C   0  0  0  0  0  0  0  0  0  0  0  0
    7.4854  -13.2584   25.2924 C   0  0  2  0  0  0  0  0  0  0  0  0
    6.0480  -13.8123   25.3502 C   0  0  0  0  0  0  0  0  0  0  0  0
    8.3986  -14.3059   24.7241 C   0  0  2  0  0  0  0  0  0  0  0  0
    7.7625  -14.6343   23.4153 N   0  0  0  0  0  0  0  0  0  0  0  0
    8.6259  -15.5154   25.4804 C   0  0  0  0  0  0  0  0  0  0  0  0
    7.6486  -16.3575   25.5414 O   0  0  0  0  0  0  0  0  0  0  0  0
    9.7714  -15.9044   26.1620 N   0  0  0  0  0  0  0  0  0  0  0  0
    9.9439  -17.2187   26.7921 C   0  0  1  0  0  0  0  0  0  0  0  0
   11.2377  -17.8370   26.4273 C   0  0  0  0  0  0  0  0  0  0  0  0
   11.2895  -18.1668   24.9849 C   0  0  0  0  0  0  0  0  0  0  0  0
   10.3040  -18.5211   24.1102 C   0  0  0  0  0  0  0  0  0  0  0  0
   10.8429  -18.6425   22.8801 N   0  0  0  0  0  0  0  0  0  0  0  0
   12.1502  -18.3739   22.9398 C   0  0  0  0  0  0  0  0  0  0  0  0
   12.4205  -18.0869   24.2071 N   0  0  0  0  0  0  0  0  0  0  0  0
    9.9510  -16.8930   28.2668 C   0  0  0  0  0  0  0  0  0  0  0  0
   10.0703  -17.8500   29.0729 O   0  0  0  0  0  0  0  0  0  0  0  0
    9.8326  -15.6329   28.7451 O   0  0  0  0  0  0  0  0  0  0  0  0
  2  3  1  0
  2  1  1  6
  4  5  1  0
  4  3  1  0
  5  6  2  0
  7  2  1  0
  8  7  2  0
  9  5  1  0
 11 12  1  0
 11 10  1  0
 12 13  1  1
 12 14  1  0
 14 15  1  6
 15  7  1  0
 16 17  2  0
 16 14  1  0
 18 16  1  0
 19 18  1  0
 19 20  1  6
 20 21  1  0
 21 25  1  0
 21 22  2  0
 22 23  1  0
 24 23  1  0
 25 24  2  0
 26 19  1  0
 27 26  2  0
 28 26  1  0
M  END
$$$$
