EIH.pdb
     RDKit          3D

 28 28  0  0  1  0  0  0  0  0999 V2000
    8.9486  -15.2855   20.4728 N   0  0  0  0  0  0  0  0  0  0  0  0
    8.1632  -15.8916   21.5218 C   0  0  1  0  0  0  0  0  0  0  0  0
    8.1895  -17.4158   21.4309 C   0  0  0  0  0  0  0  0  0  0  0  0
    7.3281  -17.7979   20.2537 C   0  0  0  0  0  0  0  0  0  0  0  0
    6.1182  -18.5485   20.6790 C   0  0  0  0  0  0  0  0  0  0  0  0
    6.2661  -19.5044   21.4836 O   0  0  0  0  0  0  0  0  0  0  0  0
    8.7447  -15.4873   22.8269 C   0  0  0  0  0  0  0  0  0  0  0  0
    9.9958  -15.3673   22.9676 O   0  0  0  0  0  0  0  0  0  0  0  0
    4.8655  -18.2003   20.1991 O   0  0  0  0  0  0  0  0  0  0  0  0
    6.5660  -11.6680   25.6874 C   0  0  0  0  0  0  0  0  0  0  0  0
    7.5171  -12.6208   25.0519 C   0  0  0  0  0  0  0  0  0  0  0  0
    7.6930  -13.8556   25.8609 C   0  0  2  0  0  0  0  0  0  0  0  0
    8.1600  -13.5093   27.2886 C   0  0  0  0  0  0  0  0  0  0  0  0
    8.5857  -14.9197   25.2909 C   0  0  2  0  0  0  0  0  0  0  0  0
    7.9572  -15.2162   23.9708 N   0  0  0  0  0  0  0  0  0  0  0  0
    8.7728  -16.1433   26.0352 C   0  0  0  0  0  0  0  0  0  0  0  0
    7.7072  -16.7945   26.3644 O   0  0  0  0  0  0  0  0  0  0  0  0
    9.9620  -16.7267   26.4519 N   0  0  0  0  0  0  0  0  0  0  0  0
   10.0373  -17.9672   27.2325 C   0  0  1  0  0  0  0  0  0  0  0  0
   11.1625  -18.8232   26.7961 C   0  0  0  0  0  0  0  0  0  0  0  0
   10.9864  -19.2726   25.3964 C   0  0  0  0  0  0  0  0  0  0  0  0
    9.9643  -19.0769   24.5138 C   0  0  0  0  0  0  0  0  0  0  0  0
   10.3089  -19.6195   23.3285 N   0  0  0  0  0  0  0  0  0  0  0  0
   11.5276  -20.1584   23.4245 C   0  0  0  0  0  0  0  0  0  0  0  0
   11.9369  -19.9498   24.6696 N   0  0  0  0  0  0  0  0  0  0  0  0
   10.3072  -17.4739   28.6341 C   0  0  0  0  0  0  0  0  0  0  0  0
   10.4829  -16.2393   28.7921 O   0  0  0  0  0  0  0  0  0  0  0  0
   10.3693  -18.2961   29.7069 O   0  0  0  0  0  0  0  0  0  0  0  0
  2  3  1  0
  2  1  1  6
  4  5  1  0
  4  3  1  0
  5  6  2  0
  7  2  1  0
  8  7  2  0
  9  5  1  0
 11 12  1  0
 11 10  1  0
 12 13  1  1
 12 14  1  0
 14 15  1  6
 15  7  1  0
 16 17  2  0
 16 14  1  0
 18 16  1  0
 19 18  1  0
 19 20  1  6
 20 21  1  0
 21 25  1  0
 21 22  2  0
 22 23  1  0
 24 23  1  0
 25 24  2  0
 26 19  1  0
 27 26  2  0
 28 26  1  0
M  END
$$$$
