EIH.pdb
     RDKit          3D

 28 28  0  0  1  0  0  0  0  0999 V2000
   10.1972  -17.4997   16.5078 N   0  0  0  0  0  0  0  0  0  0  0  0
    9.1695  -17.6410   17.5120 C   0  0  1  0  0  0  0  0  0  0  0  0
    9.0409  -19.0886   17.9811 C   0  0  0  0  0  0  0  0  0  0  0  0
   10.4117  -19.7069   17.8700 C   0  0  0  0  0  0  0  0  0  0  0  0
   10.4535  -21.0628   18.4764 C   0  0  0  0  0  0  0  0  0  0  0  0
   11.5537  -21.6732   18.4884 O   0  0  0  0  0  0  0  0  0  0  0  0
    9.5430  -16.7995   18.6770 C   0  0  0  0  0  0  0  0  0  0  0  0
   10.7575  -16.5790   18.9521 O   0  0  0  0  0  0  0  0  0  0  0  0
    9.3094  -21.6332   19.0117 O   0  0  0  0  0  0  0  0  0  0  0  0
    6.5049  -12.5452   19.6783 C   0  0  0  0  0  0  0  0  0  0  0  0
    7.7261  -13.3884   19.5606 C   0  0  0  0  0  0  0  0  0  0  0  0
    7.8825  -14.3077   20.7184 C   0  0  2  0  0  0  0  0  0  0  0  0
    7.9870  -13.5125   22.0349 C   0  0  0  0  0  0  0  0  0  0  0  0
    9.0045  -15.3028   20.6490 C   0  0  2  0  0  0  0  0  0  0  0  0
    8.5885  -16.2036   19.5350 N   0  0  0  0  0  0  0  0  0  0  0  0
    9.3172  -16.0821   21.8242 C   0  0  0  0  0  0  0  0  0  0  0  0
    8.4254  -16.9302   22.2160 O   0  0  0  0  0  0  0  0  0  0  0  0
   10.4656  -16.0449   22.6040 N   0  0  0  0  0  0  0  0  0  0  0  0
   10.6896  -16.9007   23.7751 C   0  0  1  0  0  0  0  0  0  0  0  0
   12.1270  -17.0110   24.1078 C   0  0  0  0  0  0  0  0  0  0  0  0
   12.8448  -17.8527   23.1237 C   0  0  0  0  0  0  0  0  0  0  0  0
   12.3831  -18.7516   22.2069 C   0  0  0  0  0  0  0  0  0  0  0  0
   13.4274  -19.2051   21.4844 N   0  0  0  0  0  0  0  0  0  0  0  0
   14.5500  -18.6200   21.9114 C   0  0  0  0  0  0  0  0  0  0  0  0
   14.2003  -17.8048   22.8986 N   0  0  0  0  0  0  0  0  0  0  0  0
    9.9823  -16.1569   24.8829 C   0  0  0  0  0  0  0  0  0  0  0  0
    9.6595  -14.9614   24.6667 O   0  0  0  0  0  0  0  0  0  0  0  0
    9.6908  -16.7174   26.0794 O   0  0  0  0  0  0  0  0  0  0  0  0
  2  3  1  0
  2  1  1  6
  4  5  1  0
  4  3  1  0
  5  6  2  0
  7  2  1  0
  8  7  2  0
  9  5  1  0
 11 12  1  0
 11 10  1  0
 12 13  1  1
 12 14  1  0
 14 15  1  6
 15  7  1  0
 16 17  2  0
 16 14  1  0
 18 16  1  0
 19 18  1  0
 19 20  1  1
 20 21  1  0
 21 25  1  0
 21 22  2  0
 22 23  1  0
 24 23  1  0
 25 24  2  0
 26 19  1  0
 27 26  2  0
 28 26  1  0
M  END
$$$$
