EIH.pdb
     RDKit          3D

 28 28  0  0  1  0  0  0  0  0999 V2000
    8.5309  -14.8526   20.3671 N   0  0  0  0  0  0  0  0  0  0  0  0
    7.5911  -15.1617   21.4187 C   0  0  1  0  0  0  0  0  0  0  0  0
    7.1681  -16.6285   21.3778 C   0  0  0  0  0  0  0  0  0  0  0  0
    8.4338  -17.4465   21.3248 C   0  0  0  0  0  0  0  0  0  0  0  0
    8.1444  -18.8989   21.2026 C   0  0  0  0  0  0  0  0  0  0  0  0
    7.5473  -19.2996   20.1702 O   0  0  0  0  0  0  0  0  0  0  0  0
    8.2527  -14.8983   22.7217 C   0  0  0  0  0  0  0  0  0  0  0  0
    9.5102  -14.9717   22.8347 O   0  0  0  0  0  0  0  0  0  0  0  0
    8.5243  -19.7816   22.2013 O   0  0  0  0  0  0  0  0  0  0  0  0
    5.7367  -11.3926   25.7439 C   0  0  0  0  0  0  0  0  0  0  0  0
    6.9031  -12.0730   25.1171 C   0  0  0  0  0  0  0  0  0  0  0  0
    7.2968  -13.3002   25.8581 C   0  0  2  0  0  0  0  0  0  0  0  0
    7.8569  -12.9406   27.2485 C   0  0  0  0  0  0  0  0  0  0  0  0
    8.2462  -14.2357   25.1671 C   0  0  2  0  0  0  0  0  0  0  0  0
    7.5377  -14.5563   23.8940 N   0  0  0  0  0  0  0  0  0  0  0  0
    8.6334  -15.4550   25.8378 C   0  0  0  0  0  0  0  0  0  0  0  0
    7.7941  -16.4357   25.7955 O   0  0  0  0  0  0  0  0  0  0  0  0
    9.8051  -15.7227   26.5332 N   0  0  0  0  0  0  0  0  0  0  0  0
   10.3961  -17.0601   26.6597 C   0  0  1  0  0  0  0  0  0  0  0  0
   11.6283  -17.1946   25.8518 C   0  0  0  0  0  0  0  0  0  0  0  0
   12.3283  -18.4661   26.1444 C   0  0  0  0  0  0  0  0  0  0  0  0
   12.0047  -19.4964   26.9783 C   0  0  0  0  0  0  0  0  0  0  0  0
   12.9250  -20.4715   26.8357 N   0  0  0  0  0  0  0  0  0  0  0  0
   13.8325  -20.0962   25.9299 C   0  0  0  0  0  0  0  0  0  0  0  0
   13.4739  -18.8885   25.5124 N   0  0  0  0  0  0  0  0  0  0  0  0
   10.7552  -17.1386   28.1245 C   0  0  0  0  0  0  0  0  0  0  0  0
   11.3078  -18.1915   28.5319 O   0  0  0  0  0  0  0  0  0  0  0  0
   10.5063  -16.1377   29.0002 O   0  0  0  0  0  0  0  0  0  0  0  0
  2  3  1  0
  2  1  1  6
  4  5  1  0
  4  3  1  0
  5  6  2  0
  7  2  1  0
  8  7  2  0
  9  5  1  0
 11 12  1  0
 11 10  1  0
 12 13  1  1
 12 14  1  0
 14 15  1  6
 15  7  1  0
 16 17  2  0
 16 14  1  0
 18 16  1  0
 19 18  1  0
 19 20  1  6
 20 21  1  0
 21 25  1  0
 21 22  2  0
 22 23  1  0
 24 23  1  0
 25 24  2  0
 26 19  1  0
 27 26  2  0
 28 26  1  0
M  END
$$$$
