EIH.pdb
     RDKit          3D

 28 28  0  0  1  0  0  0  0  0999 V2000
    8.1841  -15.1278   19.9247 N   0  0  0  0  0  0  0  0  0  0  0  0
    7.4137  -15.4413   21.1048 C   0  0  1  0  0  0  0  0  0  0  0  0
    7.3976  -16.9434   21.3797 C   0  0  0  0  0  0  0  0  0  0  0  0
    8.8359  -17.3927   21.4345 C   0  0  0  0  0  0  0  0  0  0  0  0
    8.9455  -18.8648   21.6045 C   0  0  0  0  0  0  0  0  0  0  0  0
    7.9101  -19.5597   21.4367 O   0  0  0  0  0  0  0  0  0  0  0  0
    8.0431  -14.7571   22.2627 C   0  0  0  0  0  0  0  0  0  0  0  0
    9.2543  -14.3957   22.2196 O   0  0  0  0  0  0  0  0  0  0  0  0
   10.1570  -19.4494   21.9384 O   0  0  0  0  0  0  0  0  0  0  0  0
    5.9114  -11.3659   26.8206 C   0  0  0  0  0  0  0  0  0  0  0  0
    7.1424  -11.9715   26.2424 C   0  0  0  0  0  0  0  0  0  0  0  0
    6.8330  -12.9106   25.1323 C   0  0  2  0  0  0  0  0  0  0  0  0
    5.7136  -13.8881   25.5420 C   0  0  0  0  0  0  0  0  0  0  0  0
    7.9833  -13.6858   24.5578 C   0  0  2  0  0  0  0  0  0  0  0  0
    7.3467  -14.4714   23.4609 N   0  0  0  0  0  0  0  0  0  0  0  0
    8.7321  -14.5652   25.4252 C   0  0  0  0  0  0  0  0  0  0  0  0
    9.1396  -14.0705   26.5464 O   0  0  0  0  0  0  0  0  0  0  0  0
    9.0793  -15.8933   25.2159 N   0  0  0  0  0  0  0  0  0  0  0  0
    9.5973  -16.7803   26.2642 C   0  0  1  0  0  0  0  0  0  0  0  0
    8.5156  -17.5536   26.9131 C   0  0  0  0  0  0  0  0  0  0  0  0
    9.0626  -18.5934   27.8142 C   0  0  0  0  0  0  0  0  0  0  0  0
    9.6789  -19.7803   27.5436 C   0  0  0  0  0  0  0  0  0  0  0  0
   10.0688  -20.3384   28.7075 N   0  0  0  0  0  0  0  0  0  0  0  0
    9.7208  -19.5405   29.7209 C   0  0  0  0  0  0  0  0  0  0  0  0
    9.1149  -18.4888   29.1841 N   0  0  0  0  0  0  0  0  0  0  0  0
   10.4913  -17.7278   25.5001 C   0  0  0  0  0  0  0  0  0  0  0  0
   11.3497  -18.3721   26.1543 O   0  0  0  0  0  0  0  0  0  0  0  0
   10.4073  -17.9039   24.1612 O   0  0  0  0  0  0  0  0  0  0  0  0
  2  3  1  0
  2  1  1  6
  4  5  1  0
  4  3  1  0
  5  6  2  0
  7  2  1  0
  8  7  2  0
  9  5  1  0
 11 12  1  0
 11 10  1  0
 12 13  1  1
 12 14  1  0
 14 15  1  6
 15  7  1  0
 16 17  2  0
 16 14  1  0
 18 16  1  0
 19 18  1  0
 19 20  1  6
 20 21  1  0
 21 25  1  0
 21 22  2  0
 22 23  1  0
 24 23  1  0
 25 24  2  0
 26 19  1  0
 27 26  2  0
 28 26  1  0
M  END
$$$$
