EIH.pdb
     RDKit          3D

 28 28  0  0  1  0  0  0  0  0999 V2000
   11.1056  -16.6578   16.2139 N   0  0  0  0  0  0  0  0  0  0  0  0
   10.0004  -17.0787   17.0422 C   0  0  1  0  0  0  0  0  0  0  0  0
   10.0373  -18.5832   17.3019 C   0  0  0  0  0  0  0  0  0  0  0  0
    9.7521  -19.2606   15.9853 C   0  0  0  0  0  0  0  0  0  0  0  0
    9.7098  -20.7393   16.1261 C   0  0  0  0  0  0  0  0  0  0  0  0
    9.7655  -21.4362   15.0801 O   0  0  0  0  0  0  0  0  0  0  0  0
   10.1040  -16.3730   18.3445 C   0  0  0  0  0  0  0  0  0  0  0  0
   11.2334  -16.0907   18.8386 O   0  0  0  0  0  0  0  0  0  0  0  0
    9.6117  -21.3275   17.3772 O   0  0  0  0  0  0  0  0  0  0  0  0
    6.8925  -12.3658   19.5235 C   0  0  0  0  0  0  0  0  0  0  0  0
    8.0969  -13.2398   19.4825 C   0  0  0  0  0  0  0  0  0  0  0  0
    8.0205  -14.3411   20.4783 C   0  0  2  0  0  0  0  0  0  0  0  0
    7.8865  -13.7758   21.9062 C   0  0  0  0  0  0  0  0  0  0  0  0
    9.1221  -15.3607   20.4493 C   0  0  2  0  0  0  0  0  0  0  0  0
    8.9740  -15.9795   19.1000 N   0  0  0  0  0  0  0  0  0  0  0  0
    9.1463  -16.3881   21.4642 C   0  0  0  0  0  0  0  0  0  0  0  0
    8.6400  -17.5332   21.1472 O   0  0  0  0  0  0  0  0  0  0  0  0
    9.6489  -16.3129   22.7565 N   0  0  0  0  0  0  0  0  0  0  0  0
   10.7584  -17.1350   23.2538 C   0  0  1  0  0  0  0  0  0  0  0  0
   11.9958  -16.9183   22.4721 C   0  0  0  0  0  0  0  0  0  0  0  0
   12.3091  -18.0904   21.6234 C   0  0  0  0  0  0  0  0  0  0  0  0
   11.6358  -19.2608   21.4271 C   0  0  0  0  0  0  0  0  0  0  0  0
   12.2887  -19.9821   20.4934 N   0  0  0  0  0  0  0  0  0  0  0  0
   13.3647  -19.3054   20.0822 C   0  0  0  0  0  0  0  0  0  0  0  0
   13.3780  -18.1655   20.7619 N   0  0  0  0  0  0  0  0  0  0  0  0
   10.9648  -16.6182   24.6578 C   0  0  0  0  0  0  0  0  0  0  0  0
   10.6412  -15.4263   24.8919 O   0  0  0  0  0  0  0  0  0  0  0  0
   11.4787  -17.3749   25.6548 O   0  0  0  0  0  0  0  0  0  0  0  0
  2  3  1  0
  2  1  1  6
  4  5  1  0
  4  3  1  0
  5  6  2  0
  7  2  1  0
  8  7  2  0
  9  5  1  0
 11 12  1  0
 11 10  1  0
 12 13  1  1
 12 14  1  0
 14 15  1  6
 15  7  1  0
 16 17  2  0
 16 14  1  0
 18 16  1  0
 19 18  1  0
 19 20  1  6
 20 21  1  0
 21 25  1  0
 21 22  2  0
 22 23  1  0
 24 23  1  0
 25 24  2  0
 26 19  1  0
 27 26  2  0
 28 26  1  0
M  END
$$$$
