EIH.pdb
     RDKit          3D

 28 28  0  0  1  0  0  0  0  0999 V2000
    9.3874  -15.8731   20.5445 N   0  0  0  0  0  0  0  0  0  0  0  0
    8.5641  -16.2947   21.6531 C   0  0  1  0  0  0  0  0  0  0  0  0
    8.6232  -17.8080   21.8501 C   0  0  0  0  0  0  0  0  0  0  0  0
    7.4545  -18.3922   21.0973 C   0  0  0  0  0  0  0  0  0  0  0  0
    6.7979  -19.4833   21.8630 C   0  0  0  0  0  0  0  0  0  0  0  0
    6.4094  -20.4999   21.2317 O   0  0  0  0  0  0  0  0  0  0  0  0
    9.0749  -15.6390   22.8836 C   0  0  0  0  0  0  0  0  0  0  0  0
   10.3177  -15.5082   23.0779 O   0  0  0  0  0  0  0  0  0  0  0  0
    6.6215  -19.3777   23.2336 O   0  0  0  0  0  0  0  0  0  0  0  0
    7.0809  -11.5155   26.8296 C   0  0  0  0  0  0  0  0  0  0  0  0
    8.1365  -12.5388   26.5954 C   0  0  0  0  0  0  0  0  0  0  0  0
    7.8062  -13.4286   25.4513 C   0  0  2  0  0  0  0  0  0  0  0  0
    6.3972  -14.0311   25.6191 C   0  0  0  0  0  0  0  0  0  0  0  0
    8.7818  -14.5268   25.1410 C   0  0  2  0  0  0  0  0  0  0  0  0
    8.2261  -15.1300   23.8949 N   0  0  0  0  0  0  0  0  0  0  0  0
    9.0092  -15.5554   26.1291 C   0  0  0  0  0  0  0  0  0  0  0  0
    8.0571  -16.4085   26.3128 O   0  0  0  0  0  0  0  0  0  0  0  0
   10.1311  -15.7573   26.9222 N   0  0  0  0  0  0  0  0  0  0  0  0
   10.3196  -16.9225   27.7944 C   0  0  1  0  0  0  0  0  0  0  0  0
   11.6506  -17.5406   27.6050 C   0  0  0  0  0  0  0  0  0  0  0  0
   11.7472  -18.2205   26.2933 C   0  0  0  0  0  0  0  0  0  0  0  0
   10.7866  -18.5545   25.3836 C   0  0  0  0  0  0  0  0  0  0  0  0
   11.3858  -19.0923   24.3020 N   0  0  0  0  0  0  0  0  0  0  0  0
   12.7082  -19.1118   24.4911 C   0  0  0  0  0  0  0  0  0  0  0  0
   12.9272  -18.5866   25.6901 N   0  0  0  0  0  0  0  0  0  0  0  0
   10.2443  -16.3282   29.1807 C   0  0  0  0  0  0  0  0  0  0  0  0
   10.2547  -15.0749   29.2772 O   0  0  0  0  0  0  0  0  0  0  0  0
   10.1706  -17.0800   30.3032 O   0  0  0  0  0  0  0  0  0  0  0  0
  2  3  1  0
  2  1  1  6
  4  5  1  0
  4  3  1  0
  5  6  2  0
  7  2  1  0
  8  7  2  0
  9  5  1  0
 11 12  1  0
 11 10  1  0
 12 13  1  1
 12 14  1  0
 14 15  1  6
 15  7  1  0
 16 17  2  0
 16 14  1  0
 18 16  1  0
 19 18  1  0
 19 20  1  6
 20 21  1  0
 21 25  1  0
 21 22  2  0
 22 23  1  0
 24 23  1  0
 25 24  2  0
 26 19  1  0
 27 26  2  0
 28 26  1  0
M  END
$$$$
