IRC.pdb
     RDKit          3D

 26 25  0  0  1  0  0  0  0  0999 V2000
    6.7188  -11.5891   27.7098 C   0  0  0  0  0  0  0  0  0  0  0  0
    6.0556  -12.7142   26.9684 C   0  0  0  0  0  0  0  0  0  0  0  0
    6.9429  -13.4466   26.0251 C   0  0  2  0  0  0  0  0  0  0  0  0
    7.4746  -12.4322   25.0157 C   0  0  0  0  0  0  0  0  0  0  0  0
    6.3015  -14.6087   25.3029 C   0  0  2  0  0  0  0  0  0  0  0  0
    5.9025  -15.5729   26.3580 N   0  0  0  0  0  0  0  0  0  0  0  0
    7.2416  -15.2914   24.3870 C   0  0  0  0  0  0  0  0  0  0  0  0
    8.0819  -16.1531   24.8384 O   0  0  0  0  0  0  0  0  0  0  0  0
    7.4970  -13.8584   16.0431 N   0  0  0  0  0  0  0  0  0  0  0  0
    8.0072  -13.8794   17.3820 C   0  0  0  0  0  0  0  0  0  0  0  0
    8.6945  -12.8893   17.8182 N   0  0  0  0  0  0  0  0  0  0  0  0
    7.7363  -15.0070   18.1969 N   0  0  0  0  0  0  0  0  0  0  0  0
    8.6699  -16.1308   18.3064 C   0  0  0  0  0  0  0  0  0  0  0  0
    8.9285  -16.3309   19.7646 C   0  0  0  0  0  0  0  0  0  0  0  0
    8.1768  -15.5199   20.7287 C   0  0  0  0  0  0  0  0  0  0  0  0
    8.2536  -15.7840   22.1838 C   0  0  2  0  0  0  0  0  0  0  0  0
    7.3006  -15.0740   22.9990 N   0  0  0  0  0  0  0  0  0  0  0  0
    9.6365  -15.6623   22.7351 C   0  0  0  0  0  0  0  0  0  0  0  0
   10.2058  -14.5380   22.7513 O   0  0  0  0  0  0  0  0  0  0  0  0
    9.1568  -12.7711   18.7122 N   0  0  0  0  0  0  0  0  0  0  0  0
   10.3337  -16.7784   23.2443 C   0  0  1  0  0  0  0  0  0  0  0  0
   11.6864  -16.7219   23.7692 C   0  0  0  0  0  0  0  0  0  0  0  0
   11.8350  -17.5584   25.0214 S   0  0  0  0  0  0  0  0  0  0  0  0
   10.6795  -16.8988   26.2566 C   0  0  0  0  0  0  0  0  0  0  0  0
   12.6841  -17.1438   22.7534 O   0  0  0  0  0  0  0  0  0  0  0  0
   14.0628  -17.0476   23.0203 O   0  0  0  0  0  0  0  0  0  0  0  0
  2  1  1  0
  3  2  1  0
  3  4  1  6
  5  3  1  0
  5  6  1  1
  7  5  1  0
  8  7  2  0
 10  9  1  0
 10 12  1  0
 11 10  2  0
 13 12  1  0
 13 14  1  0
 15 14  1  0
 16 17  1  0
 16 15  1  6
 17  7  1  0
 18 16  1  0
 19 18  2  0
 20 18  1  0
 21 20  1  0
 21 22  1  6
 23 22  1  0
 24 25  1  0
 24 21  1  0
 26 24  2  0
M  END
$$$$
