IRC.pdb
     RDKit          3D

 26 25  0  0  1  0  0  0  0  0999 V2000
    6.3005  -10.8391   27.3838 C   0  0  0  0  0  0  0  0  0  0  0  0
    5.7614  -12.0109   26.6147 C   0  0  0  0  0  0  0  0  0  0  0  0
    6.7965  -12.9499   26.1043 C   0  0  2  0  0  0  0  0  0  0  0  0
    7.7854  -12.1344   25.2751 C   0  0  0  0  0  0  0  0  0  0  0  0
    6.2730  -14.1113   25.2916 C   0  0  2  0  0  0  0  0  0  0  0  0
    5.4015  -14.8884   26.2075 N   0  0  0  0  0  0  0  0  0  0  0  0
    7.3554  -15.0025   24.8195 C   0  0  0  0  0  0  0  0  0  0  0  0
    7.8929  -15.8550   25.6174 O   0  0  0  0  0  0  0  0  0  0  0  0
    7.5673  -19.4249   19.8635 N   0  0  0  0  0  0  0  0  0  0  0  0
    7.5107  -18.5207   18.7533 C   0  0  0  0  0  0  0  0  0  0  0  0
    8.0112  -18.8647   17.6245 N   0  0  0  0  0  0  0  0  0  0  0  0
    6.8972  -17.2560   18.9349 N   0  0  0  0  0  0  0  0  0  0  0  0
    7.5258  -16.1914   19.7210 C   0  0  0  0  0  0  0  0  0  0  0  0
    8.3508  -16.8647   20.7694 C   0  0  0  0  0  0  0  0  0  0  0  0
    9.1600  -16.0334   21.6674 C   0  0  0  0  0  0  0  0  0  0  0  0
    8.8742  -15.9621   23.1186 C   0  0  2  0  0  0  0  0  0  0  0  0
    7.8734  -15.0028   23.5122 N   0  0  0  0  0  0  0  0  0  0  0  0
   10.1034  -15.8396   23.9584 C   0  0  0  0  0  0  0  0  0  0  0  0
   10.8610  -14.8427   23.8152 O   0  0  0  0  0  0  0  0  0  0  0  0
    8.1341  -18.3162   16.7812 N   0  0  0  0  0  0  0  0  0  0  0  0
   10.4473  -16.8153   24.9180 C   0  0  1  0  0  0  0  0  0  0  0  0
   11.7161  -16.8504   25.6232 C   0  0  0  0  0  0  0  0  0  0  0  0
   11.5304  -16.6821   27.1156 S   0  0  0  0  0  0  0  0  0  0  0  0
   10.1986  -15.4740   27.3653 C   0  0  0  0  0  0  0  0  0  0  0  0
   12.4631  -18.1024   25.3408 O   0  0  0  0  0  0  0  0  0  0  0  0
   13.7522  -18.3023   25.8696 O   0  0  0  0  0  0  0  0  0  0  0  0
  2  1  1  0
  3  2  1  0
  3  4  1  6
  5  3  1  0
  5  6  1  1
  7  5  1  0
  8  7  2  0
 10  9  1  0
 10 12  1  0
 11 10  2  0
 13 12  1  0
 13 14  1  0
 15 14  1  0
 16 17  1  0
 16 15  1  6
 17  7  1  0
 18 16  1  0
 19 18  2  0
 20 18  1  0
 21 20  1  0
 21 22  1  6
 23 22  1  0
 24 25  1  0
 24 21  1  0
 26 24  2  0
M  END
$$$$
