IRC.pdb
     RDKit          3D

 26 25  0  0  1  0  0  0  0  0999 V2000
    7.4714  -11.9350   18.4044 C   0  0  0  0  0  0  0  0  0  0  0  0
    7.8048  -13.3930   18.5402 C   0  0  0  0  0  0  0  0  0  0  0  0
    7.7469  -13.9179   19.9311 C   0  0  2  0  0  0  0  0  0  0  0  0
    8.6892  -13.0687   20.7805 C   0  0  0  0  0  0  0  0  0  0  0  0
    8.0878  -15.3819   20.0854 C   0  0  2  0  0  0  0  0  0  0  0  0
    7.0427  -16.1238   19.3373 N   0  0  0  0  0  0  0  0  0  0  0  0
    8.0460  -15.8249   21.4963 C   0  0  0  0  0  0  0  0  0  0  0  0
    6.9206  -15.9884   22.0955 O   0  0  0  0  0  0  0  0  0  0  0  0
   12.8132  -20.4777   24.1051 N   0  0  0  0  0  0  0  0  0  0  0  0
   12.7808  -19.6500   25.2744 C   0  0  0  0  0  0  0  0  0  0  0  0
   13.8260  -18.9935   25.6201 N   0  0  0  0  0  0  0  0  0  0  0  0
   11.5814  -19.5790   26.0262 N   0  0  0  0  0  0  0  0  0  0  0  0
   10.2709  -19.8475   25.4286 C   0  0  0  0  0  0  0  0  0  0  0  0
    9.6137  -18.5208   25.2264 C   0  0  0  0  0  0  0  0  0  0  0  0
    9.6283  -17.9272   23.8848 C   0  0  0  0  0  0  0  0  0  0  0  0
    9.0441  -16.5912   23.6264 C   0  0  2  0  0  0  0  0  0  0  0  0
    9.1816  -16.0989   22.2790 N   0  0  0  0  0  0  0  0  0  0  0  0
    9.4583  -15.5610   24.6256 C   0  0  0  0  0  0  0  0  0  0  0  0
   10.6478  -15.1447   24.6371 O   0  0  0  0  0  0  0  0  0  0  0  0
   13.9767  -18.4038   26.4305 N   0  0  0  0  0  0  0  0  0  0  0  0
    8.5501  -15.0329   25.5676 C   0  0  1  0  0  0  0  0  0  0  0  0
    8.9160  -14.0907   26.6101 C   0  0  0  0  0  0  0  0  0  0  0  0
    7.7854  -13.1337   26.9199 S   0  0  0  0  0  0  0  0  0  0  0  0
    6.9759  -12.7209   25.3482 C   0  0  0  0  0  0  0  0  0  0  0  0
    9.3476  -14.7874   27.8485 O   0  0  0  0  0  0  0  0  0  0  0  0
    9.3177  -16.1924   27.9275 O   0  0  0  0  0  0  0  0  0  0  0  0
  2  1  1  0
  3  2  1  0
  3  4  1  1
  5  3  1  0
  5  6  1  6
  7  5  1  0
  8  7  2  0
 10  9  1  0
 10 12  1  0
 11 10  2  0
 13 12  1  0
 13 14  1  0
 15 14  1  0
 16 17  1  0
 16 15  1  6
 17  7  1  0
 18 16  1  0
 19 18  2  0
 20 18  1  0
 21 20  1  0
 21 22  1  1
 23 22  1  0
 24 25  1  0
 24 21  1  0
 26 24  2  0
M  END
$$$$
