IRC.pdb
     RDKit          3D

 26 25  0  0  1  0  0  0  0  0999 V2000
    6.7371  -12.2980   28.5135 C   0  0  0  0  0  0  0  0  0  0  0  0
    6.1249  -13.3526   27.6369 C   0  0  0  0  0  0  0  0  0  0  0  0
    6.9464  -13.7352   26.4570 C   0  0  2  0  0  0  0  0  0  0  0  0
    7.1821  -12.4713   25.6339 C   0  0  0  0  0  0  0  0  0  0  0  0
    6.3598  -14.8201   25.5839 C   0  0  2  0  0  0  0  0  0  0  0  0
    6.3285  -16.0442   26.4223 N   0  0  0  0  0  0  0  0  0  0  0  0
    7.1934  -15.0984   24.3938 C   0  0  0  0  0  0  0  0  0  0  0  0
    7.9324  -16.1491   24.3464 O   0  0  0  0  0  0  0  0  0  0  0  0
    7.5964  -13.6763   15.3827 N   0  0  0  0  0  0  0  0  0  0  0  0
    8.6671  -14.3371   16.0686 C   0  0  0  0  0  0  0  0  0  0  0  0
    9.2671  -15.3243   15.5133 N   0  0  0  0  0  0  0  0  0  0  0  0
    9.0377  -13.8772   17.3570 N   0  0  0  0  0  0  0  0  0  0  0  0
    8.0437  -13.4907   18.3615 C   0  0  0  0  0  0  0  0  0  0  0  0
    8.2933  -14.3464   19.5609 C   0  0  0  0  0  0  0  0  0  0  0  0
    7.7123  -13.9413   20.8457 C   0  0  0  0  0  0  0  0  0  0  0  0
    8.0014  -14.6869   22.0919 C   0  0  2  0  0  0  0  0  0  0  0  0
    7.2517  -14.2785   23.2529 N   0  0  0  0  0  0  0  0  0  0  0  0
    9.4604  -14.7880   22.3961 C   0  0  0  0  0  0  0  0  0  0  0  0
   10.0073  -13.9205   23.1286 O   0  0  0  0  0  0  0  0  0  0  0  0
   10.0029  -15.9178   15.8783 N   0  0  0  0  0  0  0  0  0  0  0  0
   10.2548  -15.8357   21.8838 C   0  0  2  0  0  0  0  0  0  0  0  0
   11.4413  -16.3529   22.5419 C   0  0  0  0  0  0  0  0  0  0  0  0
   11.0870  -17.2833   23.6815 S   0  0  0  0  0  0  0  0  0  0  0  0
   12.3235  -17.0387   24.9881 C   0  0  0  0  0  0  0  0  0  0  0  0
   12.3410  -17.0421   21.5824 O   0  0  0  0  0  0  0  0  0  0  0  0
   11.9033  -17.3419   20.2786 O   0  0  0  0  0  0  0  0  0  0  0  0
  2  1  1  0
  3  2  1  0
  3  4  1  6
  5  3  1  0
  5  6  1  1
  7  5  1  0
  8  7  2  0
 10  9  1  0
 10 12  1  0
 11 10  2  0
 13 12  1  0
 13 14  1  0
 15 14  1  0
 16 17  1  0
 16 15  1  6
 17  7  1  0
 18 16  1  0
 19 18  2  0
 20 18  1  0
 21 20  1  0
 21 22  1  1
 23 22  1  0
 24 25  1  0
 24 21  1  0
 26 24  2  0
M  END
$$$$
