IRC.pdb
     RDKit          3D

 26 25  0  0  1  0  0  0  0  0999 V2000
    6.4090  -11.5971   27.4580 C   0  0  0  0  0  0  0  0  0  0  0  0
    5.9349  -12.6179   26.4638 C   0  0  0  0  0  0  0  0  0  0  0  0
    7.0032  -13.4973   25.9170 C   0  0  2  0  0  0  0  0  0  0  0  0
    8.0134  -12.6015   25.2047 C   0  0  0  0  0  0  0  0  0  0  0  0
    6.5298  -14.5879   24.9843 C   0  0  2  0  0  0  0  0  0  0  0  0
    5.6070  -15.4330   25.7821 N   0  0  0  0  0  0  0  0  0  0  0  0
    7.6392  -15.4420   24.5063 C   0  0  0  0  0  0  0  0  0  0  0  0
    8.0197  -16.4608   25.1916 O   0  0  0  0  0  0  0  0  0  0  0  0
    8.4060  -12.7020   19.1550 N   0  0  0  0  0  0  0  0  0  0  0  0
    7.9437  -13.6208   18.1572 C   0  0  0  0  0  0  0  0  0  0  0  0
    7.1180  -13.2257   17.2600 N   0  0  0  0  0  0  0  0  0  0  0  0
    8.4160  -14.9567   18.1898 N   0  0  0  0  0  0  0  0  0  0  0  0
    9.5273  -15.3688   19.0511 C   0  0  0  0  0  0  0  0  0  0  0  0
    8.9612  -15.5483   20.4224 C   0  0  0  0  0  0  0  0  0  0  0  0
    9.8560  -15.9852   21.4998 C   0  0  0  0  0  0  0  0  0  0  0  0
    9.3659  -16.1593   22.8862 C   0  0  2  0  0  0  0  0  0  0  0  0
    8.3485  -15.2310   23.3107 N   0  0  0  0  0  0  0  0  0  0  0  0
   10.4640  -16.2591   23.8938 C   0  0  0  0  0  0  0  0  0  0  0  0
   11.0986  -15.2236   24.2308 O   0  0  0  0  0  0  0  0  0  0  0  0
    6.7476  -13.7269   16.4609 N   0  0  0  0  0  0  0  0  0  0  0  0
   10.8176  -17.4894   24.4874 C   0  0  2  0  0  0  0  0  0  0  0  0
   12.0494  -17.7131   25.2230 C   0  0  0  0  0  0  0  0  0  0  0  0
   11.7795  -18.2167   26.6243 S   0  0  0  0  0  0  0  0  0  0  0  0
   10.0601  -18.7974   26.6720 C   0  0  0  0  0  0  0  0  0  0  0  0
   12.9489  -18.6538   24.5080 O   0  0  0  0  0  0  0  0  0  0  0  0
   14.2405  -18.9224   24.9987 O   0  0  0  0  0  0  0  0  0  0  0  0
  2  1  1  0
  3  2  1  0
  3  4  1  6
  5  3  1  0
  5  6  1  1
  7  5  1  0
  8  7  2  0
 10  9  1  0
 10 12  1  0
 11 10  2  0
 13 12  1  0
 13 14  1  0
 15 14  1  0
 16 17  1  0
 16 15  1  6
 17  7  1  0
 18 16  1  0
 19 18  2  0
 20 18  1  0
 21 20  1  0
 21 22  1  1
 23 22  1  0
 24 25  1  0
 24 21  1  0
 26 24  2  0
M  END
$$$$
