KLD.pdb
     RDKit          3D

 26 25  0  0  1  0  0  0  0  0999 V2000
    7.2401  -15.8350   21.4877 N   0  0  0  0  0  0  0  0  0  0  0  0
    8.4323  -15.0497   21.4079 C   0  0  1  0  0  0  0  0  0  0  0  0
    8.2553  -13.7827   20.6112 C   0  0  0  0  0  0  0  0  0  0  0  0
    7.6913  -14.0947   19.2467 C   0  0  0  0  0  0  0  0  0  0  0  0
    8.4625  -13.4146   18.1473 C   0  0  0  0  0  0  0  0  0  0  0  0
    7.9870  -13.8357   16.7735 C   0  0  0  0  0  0  0  0  0  0  0  0
    8.8326  -13.1137   15.8110 N   0  0  0  0  0  0  0  0  0  0  0  0
    8.9373  -14.6604   22.7671 C   0  0  0  0  0  0  0  0  0  0  0  0
   10.0366  -14.0952   22.7907 O   0  0  0  0  0  0  0  0  0  0  0  0
    5.6168  -12.5149   26.5193 C   0  0  0  0  0  0  0  0  0  0  0  0
    6.8259  -12.8683   25.6635 C   0  0  1  0  0  0  0  0  0  0  0  0
    7.7873  -11.6665   25.8616 C   0  0  0  0  0  0  0  0  0  0  0  0
    7.4932  -14.1218   26.1755 C   0  0  0  0  0  0  0  0  0  0  0  0
    8.6307  -14.5848   25.2755 C   0  0  2  0  0  0  0  0  0  0  0  0
    8.2213  -14.9143   23.9382 N   0  0  0  0  0  0  0  0  0  0  0  0
    9.4784  -15.6151   25.8651 C   0  0  0  0  0  0  0  0  0  0  0  0
    9.9470  -15.5028   27.0484 O   0  0  0  0  0  0  0  0  0  0  0  0
    9.8575  -16.8168   25.1969 N   0  0  0  0  0  0  0  0  0  0  0  0
   10.7465  -17.7855   25.7323 C   0  0  1  0  0  0  0  0  0  0  0  0
   10.3216  -19.2059   25.6288 C   0  0  0  0  0  0  0  0  0  0  0  0
    9.2108  -19.5761   26.5269 C   0  0  0  0  0  0  0  0  0  0  0  0
    8.1401  -19.9898   26.0402 O   0  0  0  0  0  0  0  0  0  0  0  0
   12.0539  -17.6510   25.0017 C   0  0  0  0  0  0  0  0  0  0  0  0
   13.1651  -18.3801   25.4028 O   0  0  0  0  0  0  0  0  0  0  0  0
    9.3393  -19.4715   27.8944 O   0  0  0  0  0  0  0  0  0  0  0  0
   12.1963  -16.8887   24.0162 O   0  0  0  0  0  0  0  0  0  0  0  0
  2  1  1  1
  3  2  1  0
  4  3  1  0
  5  4  1  0
  5  6  1  0
  7  6  1  0
  8  9  2  0
  8  2  1  0
 11 10  1  1
 11 12  1  0
 13 11  1  0
 14 13  1  1
 14 15  1  0
 15  8  1  0
 16 18  1  0
 16 14  1  0
 17 16  2  0
 19 18  1  0
 19 20  1  6
 20 21  1  0
 21 22  2  0
 23 19  1  0
 24 23  1  0
 25 21  1  0
 26 23  2  0
M  END
$$$$
