KLD.pdb
     RDKit          3D

 26 25  0  0  1  0  0  0  0  0999 V2000
    9.6987  -15.6490   19.9404 N   0  0  0  0  0  0  0  0  0  0  0  0
    8.4478  -15.5025   20.6175 C   0  0  1  0  0  0  0  0  0  0  0  0
    7.5837  -16.7347   20.5394 C   0  0  0  0  0  0  0  0  0  0  0  0
    8.0543  -17.6366   19.4247 C   0  0  0  0  0  0  0  0  0  0  0  0
    7.1621  -18.8370   19.2540 C   0  0  0  0  0  0  0  0  0  0  0  0
    7.6052  -19.7171   18.1051 C   0  0  0  0  0  0  0  0  0  0  0  0
    6.5825  -20.7663   17.9782 N   0  0  0  0  0  0  0  0  0  0  0  0
    8.6338  -15.1739   22.0705 C   0  0  0  0  0  0  0  0  0  0  0  0
    9.7137  -15.5168   22.5653 O   0  0  0  0  0  0  0  0  0  0  0  0
    7.9101  -12.0059   26.5517 C   0  0  0  0  0  0  0  0  0  0  0  0
    6.7520  -12.9137   26.1589 C   0  0  1  0  0  0  0  0  0  0  0  0
    5.4908  -12.1074   26.5675 C   0  0  0  0  0  0  0  0  0  0  0  0
    6.7317  -13.1360   24.6660 C   0  0  0  0  0  0  0  0  0  0  0  0
    7.7479  -14.1777   24.2187 C   0  0  2  0  0  0  0  0  0  0  0  0
    7.6577  -14.5229   22.8269 N   0  0  0  0  0  0  0  0  0  0  0  0
    7.8160  -15.3544   25.0781 C   0  0  0  0  0  0  0  0  0  0  0  0
    6.8253  -16.1509   25.2055 O   0  0  0  0  0  0  0  0  0  0  0  0
    8.9643  -15.7218   25.8403 N   0  0  0  0  0  0  0  0  0  0  0  0
    9.4131  -17.0564   26.0211 C   0  0  1  0  0  0  0  0  0  0  0  0
    9.8941  -17.7656   24.8068 C   0  0  0  0  0  0  0  0  0  0  0  0
   10.3876  -19.1338   25.0561 C   0  0  0  0  0  0  0  0  0  0  0  0
    9.6578  -19.9501   25.6523 O   0  0  0  0  0  0  0  0  0  0  0  0
   10.5508  -17.0208   27.0037 C   0  0  0  0  0  0  0  0  0  0  0  0
   10.8100  -18.1109   27.8234 O   0  0  0  0  0  0  0  0  0  0  0  0
   11.6419  -19.5222   24.6400 O   0  0  0  0  0  0  0  0  0  0  0  0
   11.3020  -16.0241   27.1244 O   0  0  0  0  0  0  0  0  0  0  0  0
  2  1  1  1
  3  2  1  0
  4  3  1  0
  5  4  1  0
  5  6  1  0
  7  6  1  0
  8  9  2  0
  8  2  1  0
 11 10  1  6
 11 12  1  0
 13 11  1  0
 14 13  1  1
 14 15  1  0
 15  8  1  0
 16 18  1  0
 16 14  1  0
 17 16  2  0
 19 18  1  0
 19 20  1  6
 20 21  1  0
 21 22  2  0
 23 19  1  0
 24 23  1  0
 25 21  1  0
 26 23  2  0
M  END
$$$$
