KLD.pdb
     RDKit          3D

 26 25  0  0  1  0  0  0  0  0999 V2000
    7.9944  -15.8664   19.9028 N   0  0  0  0  0  0  0  0  0  0  0  0
    7.5581  -16.2861   21.1982 C   0  0  1  0  0  0  0  0  0  0  0  0
    7.9390  -17.7084   21.5198 C   0  0  0  0  0  0  0  0  0  0  0  0
    8.2181  -18.4771   20.2515 C   0  0  0  0  0  0  0  0  0  0  0  0
    7.6839  -19.8831   20.3135 C   0  0  0  0  0  0  0  0  0  0  0  0
    7.9131  -20.6369   19.0212 C   0  0  0  0  0  0  0  0  0  0  0  0
    7.3741  -21.9880   19.2370 N   0  0  0  0  0  0  0  0  0  0  0  0
    8.1152  -15.4137   22.2856 C   0  0  0  0  0  0  0  0  0  0  0  0
    9.3151  -15.1320   22.1872 O   0  0  0  0  0  0  0  0  0  0  0  0
    7.6698  -11.2920   25.8275 C   0  0  0  0  0  0  0  0  0  0  0  0
    7.1719  -12.6256   26.3688 C   0  0  1  0  0  0  0  0  0  0  0  0
    5.9836  -12.2352   27.2872 C   0  0  0  0  0  0  0  0  0  0  0  0
    6.6615  -13.4986   25.2481 C   0  0  0  0  0  0  0  0  0  0  0  0
    7.7885  -14.1090   24.4263 C   0  0  2  0  0  0  0  0  0  0  0  0
    7.3392  -14.9433   23.3463 N   0  0  0  0  0  0  0  0  0  0  0  0
    8.8314  -14.7468   25.2222 C   0  0  0  0  0  0  0  0  0  0  0  0
    9.4829  -14.1042   26.1137 O   0  0  0  0  0  0  0  0  0  0  0  0
    9.2160  -16.1136   25.0872 N   0  0  0  0  0  0  0  0  0  0  0  0
   10.1741  -16.7618   25.9102 C   0  0  1  0  0  0  0  0  0  0  0  0
    9.9146  -18.1889   26.2339 C   0  0  0  0  0  0  0  0  0  0  0  0
   10.3136  -18.5862   27.5980 C   0  0  0  0  0  0  0  0  0  0  0  0
   11.5240  -18.6984   27.8750 O   0  0  0  0  0  0  0  0  0  0  0  0
   11.4983  -16.6932   25.2012 C   0  0  0  0  0  0  0  0  0  0  0  0
   12.6657  -17.0776   25.8469 O   0  0  0  0  0  0  0  0  0  0  0  0
    9.3690  -18.8348   28.5692 O   0  0  0  0  0  0  0  0  0  0  0  0
   11.6056  -16.2934   24.0175 O   0  0  0  0  0  0  0  0  0  0  0  0
  2  1  1  6
  3  2  1  0
  4  3  1  0
  5  4  1  0
  5  6  1  0
  7  6  1  0
  8  9  2  0
  8  2  1  0
 11 10  1  6
 11 12  1  0
 13 11  1  0
 14 13  1  1
 14 15  1  0
 15  8  1  0
 16 18  1  0
 16 14  1  0
 17 16  2  0
 19 18  1  0
 19 20  1  6
 20 21  1  0
 21 22  2  0
 23 19  1  0
 24 23  1  0
 25 21  1  0
 26 23  2  0
M  END
$$$$
