KLD.pdb
     RDKit          3D

 26 25  0  0  1  0  0  0  0  0999 V2000
    7.0574  -15.8727   22.0300 N   0  0  0  0  0  0  0  0  0  0  0  0
    8.3647  -15.3094   21.8955 C   0  0  1  0  0  0  0  0  0  0  0  0
    8.4147  -14.1506   20.9333 C   0  0  0  0  0  0  0  0  0  0  0  0
    7.8355  -14.5508   19.5985 C   0  0  0  0  0  0  0  0  0  0  0  0
    8.2507  -13.6117   18.4977 C   0  0  0  0  0  0  0  0  0  0  0  0
    7.7035  -14.0349   17.1515 C   0  0  0  0  0  0  0  0  0  0  0  0
    8.1740  -13.0296   16.1866 N   0  0  0  0  0  0  0  0  0  0  0  0
    8.9032  -14.8263   23.2110 C   0  0  0  0  0  0  0  0  0  0  0  0
   10.0665  -14.4078   23.1948 O   0  0  0  0  0  0  0  0  0  0  0  0
    5.5246  -12.2552   26.5148 C   0  0  0  0  0  0  0  0  0  0  0  0
    6.7252  -12.7482   25.7180 C   0  0  1  0  0  0  0  0  0  0  0  0
    7.5778  -11.4702   25.4989 C   0  0  0  0  0  0  0  0  0  0  0  0
    7.5269  -13.7425   26.5225 C   0  0  0  0  0  0  0  0  0  0  0  0
    8.5954  -14.4379   25.6902 C   0  0  2  0  0  0  0  0  0  0  0  0
    8.1493  -14.8428   24.3858 N   0  0  0  0  0  0  0  0  0  0  0  0
    9.2986  -15.5064   26.3916 C   0  0  0  0  0  0  0  0  0  0  0  0
    9.2789  -15.5995   27.6656 O   0  0  0  0  0  0  0  0  0  0  0  0
   10.0569  -16.5247   25.7418 N   0  0  0  0  0  0  0  0  0  0  0  0
   10.6874  -17.6057   26.4121 C   0  0  1  0  0  0  0  0  0  0  0  0
    9.7965  -18.6769   26.9292 C   0  0  0  0  0  0  0  0  0  0  0  0
   10.4990  -19.7635   27.6389 C   0  0  0  0  0  0  0  0  0  0  0  0
   11.7278  -19.6766   27.8312 O   0  0  0  0  0  0  0  0  0  0  0  0
   11.6433  -18.2426   25.4417 C   0  0  0  0  0  0  0  0  0  0  0  0
   11.6481  -17.8662   24.1054 O   0  0  0  0  0  0  0  0  0  0  0  0
    9.8176  -20.8716   28.0917 O   0  0  0  0  0  0  0  0  0  0  0  0
   12.4632  -19.1254   25.7892 O   0  0  0  0  0  0  0  0  0  0  0  0
  2  1  1  1
  3  2  1  0
  4  3  1  0
  5  4  1  0
  5  6  1  0
  7  6  1  0
  8  9  2  0
  8  2  1  0
 11 10  1  1
 11 12  1  0
 13 11  1  0
 14 13  1  1
 14 15  1  0
 15  8  1  0
 16 18  1  0
 16 14  1  0
 17 16  2  0
 19 18  1  0
 19 20  1  6
 20 21  1  0
 21 22  2  0
 23 19  1  0
 24 23  1  0
 25 21  1  0
 26 23  2  0
M  END
$$$$
