KLD.pdb
     RDKit          3D

 26 25  0  0  1  0  0  0  0  0999 V2000
    7.4449  -15.8273   20.6920 N   0  0  0  0  0  0  0  0  0  0  0  0
    8.5784  -14.9590   20.7684 C   0  0  1  0  0  0  0  0  0  0  0  0
    8.4805  -13.7737   19.8429 C   0  0  0  0  0  0  0  0  0  0  0  0
    8.0196  -14.2124   18.4744 C   0  0  0  0  0  0  0  0  0  0  0  0
    7.9829  -13.0684   17.4967 C   0  0  0  0  0  0  0  0  0  0  0  0
    7.5150  -13.5060   16.1255 C   0  0  0  0  0  0  0  0  0  0  0  0
    8.4551  -14.5491   15.6883 N   0  0  0  0  0  0  0  0  0  0  0  0
    8.7843  -14.4297   22.1581 C   0  0  0  0  0  0  0  0  0  0  0  0
    9.7850  -13.7221   22.3211 O   0  0  0  0  0  0  0  0  0  0  0  0
    7.7465  -11.7798   26.4630 C   0  0  0  0  0  0  0  0  0  0  0  0
    6.9770  -13.0923   26.5305 C   0  0  1  0  0  0  0  0  0  0  0  0
    5.6014  -12.6882   27.1241 C   0  0  0  0  0  0  0  0  0  0  0  0
    6.7685  -13.6596   25.1473 C   0  0  0  0  0  0  0  0  0  0  0  0
    8.0401  -14.2649   24.5686 C   0  0  2  0  0  0  0  0  0  0  0  0
    7.9095  -14.7106   23.2090 N   0  0  0  0  0  0  0  0  0  0  0  0
    8.6675  -15.2675   25.4225 C   0  0  0  0  0  0  0  0  0  0  0  0
    8.9461  -15.0277   26.6461 O   0  0  0  0  0  0  0  0  0  0  0  0
    9.0221  -16.5787   24.9873 N   0  0  0  0  0  0  0  0  0  0  0  0
    9.5969  -17.5724   25.8225 C   0  0  1  0  0  0  0  0  0  0  0  0
    9.0655  -18.9524   25.6750 C   0  0  0  0  0  0  0  0  0  0  0  0
    7.6482  -19.1033   26.0573 C   0  0  0  0  0  0  0  0  0  0  0  0
    7.1280  -18.2707   26.8257 O   0  0  0  0  0  0  0  0  0  0  0  0
   11.0689  -17.6205   25.5193 C   0  0  0  0  0  0  0  0  0  0  0  0
   11.9273  -18.3772   26.3055 O   0  0  0  0  0  0  0  0  0  0  0  0
    6.8919  -20.1501   25.5779 O   0  0  0  0  0  0  0  0  0  0  0  0
   11.5774  -16.9913   24.5612 O   0  0  0  0  0  0  0  0  0  0  0  0
  2  1  1  1
  3  2  1  0
  4  3  1  0
  5  4  1  0
  5  6  1  0
  7  6  1  0
  8  9  2  0
  8  2  1  0
 11 10  1  6
 11 12  1  0
 13 11  1  0
 14 13  1  1
 14 15  1  0
 15  8  1  0
 16 18  1  0
 16 14  1  0
 17 16  2  0
 19 18  1  0
 19 20  1  6
 20 21  1  0
 21 22  2  0
 23 19  1  0
 24 23  1  0
 25 21  1  0
 26 23  2  0
M  END
$$$$
