KLD.pdb
     RDKit          3D

 26 25  0  0  1  0  0  0  0  0999 V2000
    8.5457  -17.4113   21.2688 N   0  0  0  0  0  0  0  0  0  0  0  0
    8.2724  -16.0323   21.5299 C   0  0  1  0  0  0  0  0  0  0  0  0
    7.0550  -15.5215   20.8033 C   0  0  0  0  0  0  0  0  0  0  0  0
    7.1895  -14.0440   20.5269 C   0  0  0  0  0  0  0  0  0  0  0  0
    7.9789  -13.7728   19.2742 C   0  0  0  0  0  0  0  0  0  0  0  0
    8.2079  -12.2928   19.0547 C   0  0  0  0  0  0  0  0  0  0  0  0
    8.8860  -12.1743   17.7550 N   0  0  0  0  0  0  0  0  0  0  0  0
    8.0662  -15.7707   22.9937 C   0  0  0  0  0  0  0  0  0  0  0  0
    7.2844  -16.5346   23.5715 O   0  0  0  0  0  0  0  0  0  0  0  0
    7.9950  -12.0242   27.0318 C   0  0  0  0  0  0  0  0  0  0  0  0
    7.1145  -13.2442   26.7956 C   0  0  1  0  0  0  0  0  0  0  0  0
    5.6773  -12.7250   27.0655 C   0  0  0  0  0  0  0  0  0  0  0  0
    7.2111  -13.7014   25.3603 C   0  0  0  0  0  0  0  0  0  0  0  0
    8.5371  -14.3845   25.0549 C   0  0  2  0  0  0  0  0  0  0  0  0
    8.7099  -14.7344   23.6721 N   0  0  0  0  0  0  0  0  0  0  0  0
    8.8609  -15.4893   25.9507 C   0  0  0  0  0  0  0  0  0  0  0  0
    8.6367  -15.4230   27.2067 O   0  0  0  0  0  0  0  0  0  0  0  0
    9.4441  -16.7191   25.5241 N   0  0  0  0  0  0  0  0  0  0  0  0
    9.8564  -17.7572   26.4002 C   0  0  1  0  0  0  0  0  0  0  0  0
    9.8963  -19.1296   25.8313 C   0  0  0  0  0  0  0  0  0  0  0  0
    8.6134  -19.5930   25.2682 C   0  0  0  0  0  0  0  0  0  0  0  0
    7.5801  -19.5308   25.9631 O   0  0  0  0  0  0  0  0  0  0  0  0
   11.2442  -17.4240   26.8734 C   0  0  0  0  0  0  0  0  0  0  0  0
   11.9670  -16.4002   26.2759 O   0  0  0  0  0  0  0  0  0  0  0  0
    8.5407  -20.0928   23.9867 O   0  0  0  0  0  0  0  0  0  0  0  0
   11.8003  -18.0439   27.8109 O   0  0  0  0  0  0  0  0  0  0  0  0
  2  1  1  1
  3  2  1  0
  4  3  1  0
  5  4  1  0
  5  6  1  0
  7  6  1  0
  8  9  2  0
  8  2  1  0
 11 10  1  6
 11 12  1  0
 13 11  1  0
 14 13  1  6
 14 15  1  0
 15  8  1  0
 16 18  1  0
 16 14  1  0
 17 16  2  0
 19 18  1  0
 19 20  1  6
 20 21  1  0
 21 22  2  0
 23 19  1  0
 24 23  1  0
 25 21  1  0
 26 23  2  0
M  END
$$$$
