KLD.pdb
     RDKit          3D

 26 25  0  0  1  0  0  0  0  0999 V2000
    9.3839  -18.3176   18.1861 N   0  0  0  0  0  0  0  0  0  0  0  0
   10.4965  -17.4418   17.9864 C   0  0  1  0  0  0  0  0  0  0  0  0
   10.4079  -16.6540   16.7047 C   0  0  0  0  0  0  0  0  0  0  0  0
   10.2174  -17.5817   15.5298 C   0  0  0  0  0  0  0  0  0  0  0  0
    9.2913  -17.0005   14.4951 C   0  0  0  0  0  0  0  0  0  0  0  0
   10.0360  -16.1937   13.4533 C   0  0  0  0  0  0  0  0  0  0  0  0
    9.0158  -15.6949   12.5189 N   0  0  0  0  0  0  0  0  0  0  0  0
   10.6423  -16.4580   19.1109 C   0  0  0  0  0  0  0  0  0  0  0  0
   11.7415  -15.8986   19.1968 O   0  0  0  0  0  0  0  0  0  0  0  0
    6.3430  -13.3760   20.2049 C   0  0  0  0  0  0  0  0  0  0  0  0
    7.7482  -13.9208   19.9854 C   0  0  1  0  0  0  0  0  0  0  0  0
    8.5739  -12.6710   19.5804 C   0  0  0  0  0  0  0  0  0  0  0  0
    8.3074  -14.4853   21.2689 C   0  0  0  0  0  0  0  0  0  0  0  0
    9.6343  -15.2021   21.0600 C   0  0  2  0  0  0  0  0  0  0  0  0
    9.6104  -16.1825   20.0098 N   0  0  0  0  0  0  0  0  0  0  0  0
   10.2352  -15.7173   22.2853 C   0  0  0  0  0  0  0  0  0  0  0  0
   10.2858  -15.0183   23.3535 O   0  0  0  0  0  0  0  0  0  0  0  0
   10.8100  -17.0168   22.4082 N   0  0  0  0  0  0  0  0  0  0  0  0
   11.3757  -17.5334   23.6034 C   0  0  1  0  0  0  0  0  0  0  0  0
   11.1937  -18.9877   23.8498 C   0  0  0  0  0  0  0  0  0  0  0  0
    9.8053  -19.3848   24.1536 C   0  0  0  0  0  0  0  0  0  0  0  0
    9.1882  -18.8064   25.0696 O   0  0  0  0  0  0  0  0  0  0  0  0
   12.8544  -17.2651   23.5557 C   0  0  0  0  0  0  0  0  0  0  0  0
   13.4382  -16.7285   22.4160 O   0  0  0  0  0  0  0  0  0  0  0  0
    9.1813  -20.3845   23.4404 O   0  0  0  0  0  0  0  0  0  0  0  0
   13.6122  -17.5092   24.5245 O   0  0  0  0  0  0  0  0  0  0  0  0
  2  1  1  1
  3  2  1  0
  4  3  1  0
  5  4  1  0
  5  6  1  0
  7  6  1  0
  8  9  2  0
  8  2  1  0
 11 10  1  1
 11 12  1  0
 13 11  1  0
 14 13  1  1
 14 15  1  0
 15  8  1  0
 16 18  1  0
 16 14  1  0
 17 16  2  0
 19 18  1  0
 19 20  1  6
 20 21  1  0
 21 22  2  0
 23 19  1  0
 24 23  1  0
 25 21  1  0
 26 23  2  0
M  END
$$$$
