KLD.pdb
     RDKit          3D

 26 25  0  0  1  0  0  0  0  0999 V2000
    7.4130  -16.0361   21.8414 N   0  0  0  0  0  0  0  0  0  0  0  0
    8.5889  -15.2239   21.7974 C   0  0  1  0  0  0  0  0  0  0  0  0
    8.4335  -14.0027   20.9281 C   0  0  0  0  0  0  0  0  0  0  0  0
    7.6838  -14.3489   19.6650 C   0  0  0  0  0  0  0  0  0  0  0  0
    8.2811  -13.6852   18.4531 C   0  0  0  0  0  0  0  0  0  0  0  0
    7.5016  -13.9931   17.1928 C   0  0  0  0  0  0  0  0  0  0  0  0
    8.1786  -13.2670   16.1078 N   0  0  0  0  0  0  0  0  0  0  0  0
    8.9960  -14.7550   23.1642 C   0  0  0  0  0  0  0  0  0  0  0  0
   10.0647  -14.1363   23.2243 O   0  0  0  0  0  0  0  0  0  0  0  0
    5.4262  -12.7624   26.7067 C   0  0  0  0  0  0  0  0  0  0  0  0
    6.6901  -13.0678   25.9139 C   0  0  1  0  0  0  0  0  0  0  0  0
    7.5431  -11.7799   26.0610 C   0  0  0  0  0  0  0  0  0  0  0  0
    7.4379  -14.2261   26.5286 C   0  0  0  0  0  0  0  0  0  0  0  0
    8.5959  -14.6980   25.6599 C   0  0  2  0  0  0  0  0  0  0  0  0
    8.2263  -14.9954   24.3037 N   0  0  0  0  0  0  0  0  0  0  0  0
    9.4009  -15.7564   26.2597 C   0  0  0  0  0  0  0  0  0  0  0  0
    9.8244  -15.6779   27.4625 O   0  0  0  0  0  0  0  0  0  0  0  0
    9.7840  -16.9509   25.5808 N   0  0  0  0  0  0  0  0  0  0  0  0
   10.5849  -17.9751   26.1507 C   0  0  1  0  0  0  0  0  0  0  0  0
   10.0376  -19.3557   26.0929 C   0  0  0  0  0  0  0  0  0  0  0  0
    9.5556  -19.8743   27.3876 C   0  0  0  0  0  0  0  0  0  0  0  0
    9.7029  -19.1868   28.4172 O   0  0  0  0  0  0  0  0  0  0  0  0
   11.8992  -17.9794   25.4203 C   0  0  0  0  0  0  0  0  0  0  0  0
   12.9420  -18.7900   25.8480 O   0  0  0  0  0  0  0  0  0  0  0  0
    8.9456  -21.1063   27.4753 O   0  0  0  0  0  0  0  0  0  0  0  0
   12.1083  -17.2648   24.4113 O   0  0  0  0  0  0  0  0  0  0  0  0
  2  1  1  1
  3  2  1  0
  4  3  1  0
  5  4  1  0
  5  6  1  0
  7  6  1  0
  8  9  2  0
  8  2  1  0
 11 10  1  1
 11 12  1  0
 13 11  1  0
 14 13  1  1
 14 15  1  0
 15  8  1  0
 16 18  1  0
 16 14  1  0
 17 16  2  0
 19 18  1  0
 19 20  1  6
 20 21  1  0
 21 22  2  0
 23 19  1  0
 24 23  1  0
 25 21  1  0
 26 23  2  0
M  END
$$$$
