KLD.pdb
     RDKit          3D

 26 25  0  0  1  0  0  0  0  0999 V2000
    6.9184  -15.7501   21.5357 N   0  0  0  0  0  0  0  0  0  0  0  0
    8.1272  -14.9874   21.4942 C   0  0  1  0  0  0  0  0  0  0  0  0
    7.9778  -13.6792   20.7610 C   0  0  0  0  0  0  0  0  0  0  0  0
    7.3969  -13.9102   19.3875 C   0  0  0  0  0  0  0  0  0  0  0  0
    8.3384  -13.4775   18.2955 C   0  0  0  0  0  0  0  0  0  0  0  0
    7.7496  -13.6921   16.9178 C   0  0  0  0  0  0  0  0  0  0  0  0
    8.7702  -13.2339   15.9631 N   0  0  0  0  0  0  0  0  0  0  0  0
    8.6394  -14.6764   22.8707 C   0  0  0  0  0  0  0  0  0  0  0  0
    9.7735  -14.1869   22.9245 O   0  0  0  0  0  0  0  0  0  0  0  0
    5.3812  -12.4381   26.5368 C   0  0  0  0  0  0  0  0  0  0  0  0
    6.6106  -12.8390   25.7324 C   0  0  1  0  0  0  0  0  0  0  0  0
    7.6081  -11.6744   25.9702 C   0  0  0  0  0  0  0  0  0  0  0  0
    7.2075  -14.1161   26.2720 C   0  0  0  0  0  0  0  0  0  0  0  0
    8.3092  -14.6673   25.3773 C   0  0  2  0  0  0  0  0  0  0  0  0
    7.8933  -14.9193   24.0252 N   0  0  0  0  0  0  0  0  0  0  0  0
    9.0391  -15.7923   25.9512 C   0  0  0  0  0  0  0  0  0  0  0  0
    9.4616  -15.7736   27.1568 O   0  0  0  0  0  0  0  0  0  0  0  0
    9.3448  -16.9916   25.2423 N   0  0  0  0  0  0  0  0  0  0  0  0
   10.0376  -18.0981   25.8000 C   0  0  1  0  0  0  0  0  0  0  0  0
    9.3404  -19.4098   25.7540 C   0  0  0  0  0  0  0  0  0  0  0  0
    8.2685  -19.5652   26.7564 C   0  0  0  0  0  0  0  0  0  0  0  0
    8.5146  -19.3402   27.9577 O   0  0  0  0  0  0  0  0  0  0  0  0
   11.3305  -18.2473   25.0470 C   0  0  0  0  0  0  0  0  0  0  0  0
   12.2600  -19.2075   25.4234 O   0  0  0  0  0  0  0  0  0  0  0  0
    7.0007  -19.9549   26.3844 O   0  0  0  0  0  0  0  0  0  0  0  0
   11.6217  -17.5250   24.0642 O   0  0  0  0  0  0  0  0  0  0  0  0
  2  1  1  1
  3  2  1  0
  4  3  1  0
  5  4  1  0
  5  6  1  0
  7  6  1  0
  8  9  2  0
  8  2  1  0
 11 10  1  1
 11 12  1  0
 13 11  1  0
 14 13  1  1
 14 15  1  0
 15  8  1  0
 16 18  1  0
 16 14  1  0
 17 16  2  0
 19 18  1  0
 19 20  1  6
 20 21  1  0
 21 22  2  0
 23 19  1  0
 24 23  1  0
 25 21  1  0
 26 23  2  0
M  END
$$$$
