KLD.pdb
     RDKit          3D

 26 25  0  0  1  0  0  0  0  0999 V2000
    7.3030  -16.0002   21.8237 N   0  0  0  0  0  0  0  0  0  0  0  0
    8.5243  -15.2574   21.7886 C   0  0  1  0  0  0  0  0  0  0  0  0
    8.4120  -13.9683   21.0160 C   0  0  0  0  0  0  0  0  0  0  0  0
    7.8679  -14.2304   19.6330 C   0  0  0  0  0  0  0  0  0  0  0  0
    8.3735  -13.2304   18.6278 C   0  0  0  0  0  0  0  0  0  0  0  0
    7.8948  -13.5404   17.2259 C   0  0  0  0  0  0  0  0  0  0  0  0
    8.4242  -12.4690   16.3687 N   0  0  0  0  0  0  0  0  0  0  0  0
    9.0103  -14.9155   23.1673 C   0  0  0  0  0  0  0  0  0  0  0  0
   10.1698  -14.4922   23.2390 O   0  0  0  0  0  0  0  0  0  0  0  0
    5.8192  -12.3329   26.6390 C   0  0  0  0  0  0  0  0  0  0  0  0
    6.9863  -12.8945   25.8378 C   0  0  1  0  0  0  0  0  0  0  0  0
    8.0490  -11.7648   25.8849 C   0  0  0  0  0  0  0  0  0  0  0  0
    7.5476  -14.1263   26.5058 C   0  0  0  0  0  0  0  0  0  0  0  0
    8.6139  -14.8112   25.6621 C   0  0  2  0  0  0  0  0  0  0  0  0
    8.2144  -15.0613   24.3048 N   0  0  0  0  0  0  0  0  0  0  0  0
    9.2102  -15.9854   26.2894 C   0  0  0  0  0  0  0  0  0  0  0  0
    9.5282  -15.9968   27.5268 O   0  0  0  0  0  0  0  0  0  0  0  0
    9.4893  -17.2035   25.6020 N   0  0  0  0  0  0  0  0  0  0  0  0
   10.0065  -18.3723   26.2198 C   0  0  1  0  0  0  0  0  0  0  0  0
    9.7260  -19.6631   25.5388 C   0  0  0  0  0  0  0  0  0  0  0  0
   10.1364  -19.7059   24.1219 C   0  0  0  0  0  0  0  0  0  0  0  0
   10.6825  -18.7084   23.6109 O   0  0  0  0  0  0  0  0  0  0  0  0
   11.5003  -18.2183   26.2979 C   0  0  0  0  0  0  0  0  0  0  0  0
   12.2572  -19.0689   27.0921 O   0  0  0  0  0  0  0  0  0  0  0  0
    9.9253  -20.8312   23.3560 O   0  0  0  0  0  0  0  0  0  0  0  0
   12.1174  -17.3315   25.6612 O   0  0  0  0  0  0  0  0  0  0  0  0
  2  1  1  1
  3  2  1  0
  4  3  1  0
  5  4  1  0
  5  6  1  0
  7  6  1  0
  8  9  2  0
  8  2  1  0
 11 10  1  1
 11 12  1  0
 13 11  1  0
 14 13  1  1
 14 15  1  0
 15  8  1  0
 16 18  1  0
 16 14  1  0
 17 16  2  0
 19 18  1  0
 19 20  1  6
 20 21  1  0
 21 22  2  0
 23 19  1  0
 24 23  1  0
 25 21  1  0
 26 23  2  0
M  END
$$$$
