KLD.pdb
     RDKit          3D

 26 25  0  0  1  0  0  0  0  0999 V2000
    7.0445  -15.6620   21.4000 N   0  0  0  0  0  0  0  0  0  0  0  0
    8.1863  -14.8107   21.2729 C   0  0  1  0  0  0  0  0  0  0  0  0
    7.9033  -13.5518   20.4944 C   0  0  0  0  0  0  0  0  0  0  0  0
    7.3064  -13.8885   19.1499 C   0  0  0  0  0  0  0  0  0  0  0  0
    8.2278  -13.5269   18.0158 C   0  0  0  0  0  0  0  0  0  0  0  0
    7.6525  -13.9118   16.6698 C   0  0  0  0  0  0  0  0  0  0  0  0
    8.6669  -13.5396   15.6721 N   0  0  0  0  0  0  0  0  0  0  0  0
    8.7294  -14.4005   22.6111 C   0  0  0  0  0  0  0  0  0  0  0  0
    9.7799  -13.7490   22.5882 O   0  0  0  0  0  0  0  0  0  0  0  0
    5.6053  -12.6466   26.7385 C   0  0  0  0  0  0  0  0  0  0  0  0
    6.7697  -12.8731   25.7833 C   0  0  1  0  0  0  0  0  0  0  0  0
    7.6865  -11.6427   26.0143 C   0  0  0  0  0  0  0  0  0  0  0  0
    7.5258  -14.1263   26.1525 C   0  0  0  0  0  0  0  0  0  0  0  0
    8.6025  -14.4776   25.1349 C   0  0  2  0  0  0  0  0  0  0  0  0
    8.0986  -14.7271   23.8128 N   0  0  0  0  0  0  0  0  0  0  0  0
    9.5302  -15.5122   25.5787 C   0  0  0  0  0  0  0  0  0  0  0  0
   10.0274  -15.5081   26.7556 O   0  0  0  0  0  0  0  0  0  0  0  0
    9.9620  -16.6007   24.7645 N   0  0  0  0  0  0  0  0  0  0  0  0
   10.8685  -17.6080   25.1876 C   0  0  1  0  0  0  0  0  0  0  0  0
   10.2910  -18.9505   25.4574 C   0  0  0  0  0  0  0  0  0  0  0  0
    9.6874  -19.0959   26.7962 C   0  0  0  0  0  0  0  0  0  0  0  0
    9.7687  -18.1559   27.6112 O   0  0  0  0  0  0  0  0  0  0  0  0
   11.9007  -17.7695   24.1061 C   0  0  0  0  0  0  0  0  0  0  0  0
   13.2492  -17.8558   24.4244 O   0  0  0  0  0  0  0  0  0  0  0  0
    9.0359  -20.2542   27.1584 O   0  0  0  0  0  0  0  0  0  0  0  0
   11.5954  -17.8322   22.8914 O   0  0  0  0  0  0  0  0  0  0  0  0
  2  1  1  1
  3  2  1  0
  4  3  1  0
  5  4  1  0
  5  6  1  0
  7  6  1  0
  8  9  2  0
  8  2  1  0
 11 10  1  1
 11 12  1  0
 13 11  1  0
 14 13  1  1
 14 15  1  0
 15  8  1  0
 16 18  1  0
 16 14  1  0
 17 16  2  0
 19 18  1  0
 19 20  1  6
 20 21  1  0
 21 22  2  0
 23 19  1  0
 24 23  1  0
 25 21  1  0
 26 23  2  0
M  END
$$$$
