GFM.pdb
     RDKit          3D

 24 24  0  0  1  0  0  0  0  0999 V2000
   25.7179  -24.7788  -16.0957 N   0  0  0  0  0  0  0  0  0  0  0  0
   25.6905  -23.4160  -15.6534 C   0  0  0  0  0  0  0  0  0  0  0  0
   25.5285  -23.2871  -14.1852 C   0  0  0  0  0  0  0  0  0  0  0  0
   25.1954  -24.2255  -13.4296 O   0  0  0  0  0  0  0  0  0  0  0  0
   25.7667  -22.0163  -13.5974 N   0  0  0  0  0  0  0  0  0  0  0  0
   25.5730  -21.7630  -12.1801 C   0  0  1  0  0  0  0  0  0  0  0  0
   26.6018  -20.7277  -11.8072 C   0  0  0  0  0  0  0  0  0  0  0  0
   26.6539  -20.3877  -10.3791 C   0  0  0  0  0  0  0  0  0  0  0  0
   25.7879  -19.4950   -9.7887 C   0  0  0  0  0  0  0  0  0  0  0  0
   25.8461  -19.1936   -8.4353 C   0  0  0  0  0  0  0  0  0  0  0  0
   26.7875  -19.7853   -7.6194 C   0  0  0  0  0  0  0  0  0  0  0  0
   27.6600  -20.6810   -8.2023 C   0  0  0  0  0  0  0  0  0  0  0  0
   27.6009  -20.9797   -9.5475 C   0  0  0  0  0  0  0  0  0  0  0  0
   24.2352  -21.1684  -11.9976 C   0  0  0  0  0  0  0  0  0  0  0  0
   23.7667  -20.2783  -12.7591 O   0  0  0  0  0  0  0  0  0  0  0  0
   17.5796  -23.4899   -8.4179 C   0  0  0  0  0  0  0  0  0  0  0  0
   19.3902  -23.4815   -8.5421 S   0  0  0  0  0  0  0  0  0  0  0  0
   19.9322  -22.1475   -9.6793 C   0  0  0  0  0  0  0  0  0  0  0  0
   21.4224  -22.2146   -9.7731 C   0  0  0  0  0  0  0  0  0  0  0  0
   22.0071  -21.3089  -10.8347 C   0  0  2  0  0  0  0  0  0  0  0  0
   23.4289  -21.6065  -10.9225 N   0  0  0  0  0  0  0  0  0  0  0  0
   21.8838  -19.8991  -10.3881 C   0  0  0  0  0  0  0  0  0  0  0  0
   21.0725  -19.0173  -11.1256 O   0  0  0  0  0  0  0  0  0  0  0  0
   22.4826  -19.4619   -9.3674 O   0  0  0  0  0  0  0  0  0  0  0  0
  1  2  1  0
  3  2  1  0
  3  4  2  0
  5  3  1  0
  6  5  1  0
  6 14  1  0
  6  7  1  6
  8 13  2  0
  8  7  1  0
  9  8  1  0
 10  9  2  0
 10 11  1  0
 11 12  2  0
 12 13  1  0
 14 21  1  0
 14 15  2  0
 17 16  1  0
 18 17  1  0
 18 19  1  0
 20 19  1  1
 20 22  1  0
 21 20  1  0
 22 24  2  0
 22 23  1  0
M  END
$$$$
