GFM.pdb
     RDKit          3D

 24 24  0  0  1  0  0  0  0  0999 V2000
   30.8875  -22.1472  -11.1852 N   0  0  0  0  0  0  0  0  0  0  0  0
   30.3425  -20.9207  -10.6827 C   0  0  0  0  0  0  0  0  0  0  0  0
   28.9914  -21.0858  -10.0944 C   0  0  0  0  0  0  0  0  0  0  0  0
   28.3117  -22.1316  -10.1770 O   0  0  0  0  0  0  0  0  0  0  0  0
   28.4317  -19.9860   -9.3915 N   0  0  0  0  0  0  0  0  0  0  0  0
   27.1463  -20.0619   -8.7190 C   0  0  1  0  0  0  0  0  0  0  0  0
   27.1774  -18.9917   -7.6592 C   0  0  0  0  0  0  0  0  0  0  0  0
   27.6704  -19.4292   -6.3465 C   0  0  0  0  0  0  0  0  0  0  0  0
   28.0070  -20.7350   -6.0690 C   0  0  0  0  0  0  0  0  0  0  0  0
   28.4806  -21.1280   -4.8251 C   0  0  0  0  0  0  0  0  0  0  0  0
   28.6338  -20.2119   -3.8056 C   0  0  0  0  0  0  0  0  0  0  0  0
   28.2986  -18.9009   -4.0743 C   0  0  0  0  0  0  0  0  0  0  0  0
   27.8281  -18.5117   -5.3110 C   0  0  0  0  0  0  0  0  0  0  0  0
   26.0955  -19.7131   -9.6940 C   0  0  0  0  0  0  0  0  0  0  0  0
   26.1541  -18.6942  -10.4356 O   0  0  0  0  0  0  0  0  0  0  0  0
   25.9602  -21.9587  -14.5613 C   0  0  0  0  0  0  0  0  0  0  0  0
   24.1898  -22.3491  -14.4773 S   0  0  0  0  0  0  0  0  0  0  0  0
   23.4032  -21.3940  -13.1224 C   0  0  0  0  0  0  0  0  0  0  0  0
   24.3476  -21.3961  -11.9638 C   0  0  0  0  0  0  0  0  0  0  0  0
   23.9858  -20.4024  -10.8817 C   0  0  2  0  0  0  0  0  0  0  0  0
   24.9632  -20.5506   -9.8137 N   0  0  0  0  0  0  0  0  0  0  0  0
   22.6631  -20.7654  -10.3153 C   0  0  0  0  0  0  0  0  0  0  0  0
   21.5001  -20.4607  -11.0463 O   0  0  0  0  0  0  0  0  0  0  0  0
   22.5442  -21.3393   -9.1982 O   0  0  0  0  0  0  0  0  0  0  0  0
  1  2  1  0
  3  2  1  0
  3  4  2  0
  5  3  1  0
  6  5  1  0
  6 14  1  0
  6  7  1  1
  8 13  2  0
  8  7  1  0
  9  8  1  0
 10  9  2  0
 10 11  1  0
 11 12  2  0
 12 13  1  0
 14 21  1  0
 14 15  2  0
 17 16  1  0
 18 17  1  0
 18 19  1  0
 20 19  1  6
 20 22  1  0
 21 20  1  0
 22 24  2  0
 22 23  1  0
M  END
$$$$
