GFM.pdb
     RDKit          3D

 24 24  0  0  1  0  0  0  0  0999 V2000
   31.4202  -22.2710  -10.4369 N   0  0  0  0  0  0  0  0  0  0  0  0
   30.6505  -21.1066  -10.1123 C   0  0  0  0  0  0  0  0  0  0  0  0
   29.2742  -21.4288   -9.6644 C   0  0  0  0  0  0  0  0  0  0  0  0
   28.8609  -22.5870   -9.4405 O   0  0  0  0  0  0  0  0  0  0  0  0
   28.3654  -20.3536   -9.4770 N   0  0  0  0  0  0  0  0  0  0  0  0
   26.9892  -20.5584   -9.0592 C   0  0  1  0  0  0  0  0  0  0  0  0
   26.7228  -19.5123   -8.0084 C   0  0  0  0  0  0  0  0  0  0  0  0
   27.3723  -19.7513   -6.7128 C   0  0  0  0  0  0  0  0  0  0  0  0
   26.9577  -20.7274   -5.8349 C   0  0  0  0  0  0  0  0  0  0  0  0
   27.5902  -20.9452   -4.6189 C   0  0  0  0  0  0  0  0  0  0  0  0
   28.6734  -20.1806   -4.2390 C   0  0  0  0  0  0  0  0  0  0  0  0
   29.0959  -19.1997   -5.1123 C   0  0  0  0  0  0  0  0  0  0  0  0
   28.4664  -18.9845   -6.3204 C   0  0  0  0  0  0  0  0  0  0  0  0
   26.1122  -20.2844  -10.2135 C   0  0  0  0  0  0  0  0  0  0  0  0
   26.1729  -19.2201  -10.8880 O   0  0  0  0  0  0  0  0  0  0  0  0
   24.4079  -25.0957  -13.8629 C   0  0  0  0  0  0  0  0  0  0  0  0
   22.8018  -24.2530  -13.9261 S   0  0  0  0  0  0  0  0  0  0  0  0
   22.9904  -22.5080  -13.3913 C   0  0  0  0  0  0  0  0  0  0  0  0
   23.9222  -22.4942  -12.2227 C   0  0  0  0  0  0  0  0  0  0  0  0
   24.3140  -21.1037  -11.7728 C   0  0  2  0  0  0  0  0  0  0  0  0
   25.1533  -21.2510  -10.5930 N   0  0  0  0  0  0  0  0  0  0  0  0
   23.0943  -20.3711  -11.3511 C   0  0  0  0  0  0  0  0  0  0  0  0
   22.4364  -19.5468  -12.2823 O   0  0  0  0  0  0  0  0  0  0  0  0
   22.6251  -20.4615  -10.1835 O   0  0  0  0  0  0  0  0  0  0  0  0
  1  2  1  0
  3  2  1  0
  3  4  2  0
  5  3  1  0
  6  5  1  0
  6 14  1  0
  6  7  1  1
  8 13  2  0
  8  7  1  0
  9  8  1  0
 10  9  2  0
 10 11  1  0
 11 12  2  0
 12 13  1  0
 14 21  1  0
 14 15  2  0
 17 16  1  0
 18 17  1  0
 18 19  1  0
 20 19  1  1
 20 22  1  0
 21 20  1  0
 22 24  2  0
 22 23  1  0
M  END
$$$$
