GFM.pdb
     RDKit          3D

 24 24  0  0  1  0  0  0  0  0999 V2000
   22.3840  -18.7499  -16.4474 N   0  0  0  0  0  0  0  0  0  0  0  0
   23.0628  -18.2557  -15.2861 C   0  0  0  0  0  0  0  0  0  0  0  0
   24.2359  -19.0795  -14.9069 C   0  0  0  0  0  0  0  0  0  0  0  0
   24.5683  -20.1372  -15.4843 O   0  0  0  0  0  0  0  0  0  0  0  0
   25.0346  -18.6405  -13.8177 N   0  0  0  0  0  0  0  0  0  0  0  0
   26.1701  -19.4013  -13.3257 C   0  0  1  0  0  0  0  0  0  0  0  0
   27.3421  -18.4556  -13.3661 C   0  0  0  0  0  0  0  0  0  0  0  0
   27.7002  -17.9643  -14.7033 C   0  0  0  0  0  0  0  0  0  0  0  0
   27.2313  -16.7758  -15.2159 C   0  0  0  0  0  0  0  0  0  0  0  0
   27.5886  -16.3229  -16.4782 C   0  0  0  0  0  0  0  0  0  0  0  0
   28.4389  -17.0575  -17.2779 C   0  0  0  0  0  0  0  0  0  0  0  0
   28.9137  -18.2502  -16.7727 C   0  0  0  0  0  0  0  0  0  0  0  0
   28.5578  -18.6990  -15.5180 C   0  0  0  0  0  0  0  0  0  0  0  0
   25.9121  -19.7538  -11.9166 C   0  0  0  0  0  0  0  0  0  0  0  0
   25.2864  -19.0007  -11.1211 O   0  0  0  0  0  0  0  0  0  0  0  0
   27.6161  -18.1905   -7.2974 C   0  0  0  0  0  0  0  0  0  0  0  0
   27.7041  -19.8872   -6.6593 S   0  0  0  0  0  0  0  0  0  0  0  0
   26.6506  -20.9927   -7.6765 C   0  0  0  0  0  0  0  0  0  0  0  0
   26.9231  -20.6777   -9.1120 C   0  0  0  0  0  0  0  0  0  0  0  0
   26.0723  -21.4689  -10.0811 C   0  0  2  0  0  0  0  0  0  0  0  0
   26.3829  -20.9906  -11.4200 N   0  0  0  0  0  0  0  0  0  0  0  0
   24.6423  -21.1624   -9.8298 C   0  0  0  0  0  0  0  0  0  0  0  0
   23.8104  -20.8431  -10.9187 O   0  0  0  0  0  0  0  0  0  0  0  0
   24.1444  -21.1781   -8.6707 O   0  0  0  0  0  0  0  0  0  0  0  0
  1  2  1  0
  3  2  1  0
  3  4  2  0
  5  3  1  0
  6  5  1  0
  6 14  1  0
  6  7  1  1
  8 13  2  0
  8  7  1  0
  9  8  1  0
 10  9  2  0
 10 11  1  0
 11 12  2  0
 12 13  1  0
 14 21  1  0
 14 15  2  0
 17 16  1  0
 18 17  1  0
 18 19  1  0
 20 19  1  1
 20 22  1  0
 21 20  1  0
 22 24  2  0
 22 23  1  0
M  END
$$$$
