ETI.pdb
     RDKit          3D

 25 24  0  0  1  0  0  0  0  0999 V2000
   16.6113  -10.9766  -16.7322 N   0  0  0  0  0  0  0  0  0  0  0  0
   17.7957  -10.2163  -16.9686 C   0  0  1  0  0  0  0  0  0  0  0  0
   17.4669   -9.2126  -18.0438 C   0  0  0  0  0  0  0  0  0  0  0  0
   17.2872   -9.8035  -19.4033 C   0  0  0  0  0  0  0  0  0  0  0  0
   16.9416   -8.7488  -20.3729 C   0  0  0  0  0  0  0  0  0  0  0  0
   15.7045   -8.5379  -20.6167 O   0  0  0  0  0  0  0  0  0  0  0  0
   18.2788   -9.4630  -15.7912 C   0  0  0  0  0  0  0  0  0  0  0  0
   17.4714   -9.2919  -14.8421 O   0  0  0  0  0  0  0  0  0  0  0  0
   17.8900   -7.9811  -21.0250 O   0  0  0  0  0  0  0  0  0  0  0  0
   21.6413   -8.2723  -12.5709 C   0  0  0  0  0  0  0  0  0  0  0  0
   21.0049   -9.0672  -13.6942 C   0  0  1  0  0  0  0  0  0  0  0  0
   20.3314  -10.1845  -13.1576 O   0  0  0  0  0  0  0  0  0  0  0  0
   20.0594   -8.2188  -14.5152 C   0  0  2  0  0  0  0  0  0  0  0  0
   19.5883   -8.9337  -15.6848 N   0  0  0  0  0  0  0  0  0  0  0  0
   20.8221   -6.9907  -14.9343 C   0  0  0  0  0  0  0  0  0  0  0  0
   21.7458   -7.1910  -15.7505 O   0  0  0  0  0  0  0  0  0  0  0  0
   18.3382   -2.6871  -16.6116 C   0  0  0  0  0  0  0  0  0  0  0  0
   19.3409   -3.8074  -16.3297 C   0  0  0  0  0  0  0  0  0  0  0  0
   20.2356   -3.4357  -15.1841 C   0  0  2  0  0  0  0  0  0  0  0  0
   20.8823   -2.0893  -15.4258 C   0  0  0  0  0  0  0  0  0  0  0  0
   21.1765   -4.5245  -14.8398 C   0  0  2  0  0  0  0  0  0  0  0  0
   20.5111   -5.7204  -14.4399 N   0  0  0  0  0  0  0  0  0  0  0  0
   22.3319   -4.1607  -13.9954 C   0  0  0  0  0  0  0  0  0  0  0  0
   23.5845   -3.8107  -14.5342 O   0  0  0  0  0  0  0  0  0  0  0  0
   22.3043   -4.1257  -12.7314 O   0  0  0  0  0  0  0  0  0  0  0  0
  2  1  1  1
  2  7  1  0
  3  2  1  0
  4  3  1  0
  5  4  1  0
  5  6  2  0
  7  8  2  0
  9  5  1  0
 11 10  1  1
 12 11  1  0
 13 11  1  0
 14  7  1  0
 13 14  1  6
 15 13  1  0
 15 22  1  0
 16 15  2  0
 18 19  1  0
 18 17  1  0
 19 20  1  6
 21 23  1  0
 21 22  1  1
 21 19  1  0
 23 24  1  0
 25 23  2  0
M  END
$$$$
