ETI.pdb
     RDKit          3D

 25 24  0  0  1  0  0  0  0  0999 V2000
   16.6000  -12.9405  -17.4885 N   0  0  0  0  0  0  0  0  0  0  0  0
   18.0037  -13.0802  -17.7049 C   0  0  1  0  0  0  0  0  0  0  0  0
   18.1763  -13.8600  -18.9831 C   0  0  0  0  0  0  0  0  0  0  0  0
   17.5093  -15.1960  -18.9837 C   0  0  0  0  0  0  0  0  0  0  0  0
   16.1024  -15.0601  -19.4009 C   0  0  0  0  0  0  0  0  0  0  0  0
   15.7864  -15.4340  -20.5819 O   0  0  0  0  0  0  0  0  0  0  0  0
   18.7236  -11.7984  -17.8666 C   0  0  0  0  0  0  0  0  0  0  0  0
   19.9389  -11.8532  -18.1859 O   0  0  0  0  0  0  0  0  0  0  0  0
   15.1150  -14.5510  -18.5762 O   0  0  0  0  0  0  0  0  0  0  0  0
   17.5230   -8.7321  -19.9740 C   0  0  0  0  0  0  0  0  0  0  0  0
   17.9327   -8.2677  -18.5900 C   0  0  1  0  0  0  0  0  0  0  0  0
   16.7797   -8.0060  -17.8205 O   0  0  0  0  0  0  0  0  0  0  0  0
   18.8166   -9.2811  -17.8978 C   0  0  2  0  0  0  0  0  0  0  0  0
   18.1170  -10.5320  -17.6813 N   0  0  0  0  0  0  0  0  0  0  0  0
   19.2217   -8.6820  -16.5777 C   0  0  0  0  0  0  0  0  0  0  0  0
   18.4118   -8.8568  -15.6433 O   0  0  0  0  0  0  0  0  0  0  0  0
   23.2421  -10.1207  -13.9398 C   0  0  0  0  0  0  0  0  0  0  0  0
   21.9248   -9.5023  -14.4111 C   0  0  0  0  0  0  0  0  0  0  0  0
   22.0978   -8.0357  -14.6760 C   0  0  2  0  0  0  0  0  0  0  0  0
   22.7101   -7.3445  -13.4774 C   0  0  0  0  0  0  0  0  0  0  0  0
   20.8552   -7.4140  -15.1847 C   0  0  2  0  0  0  0  0  0  0  0  0
   20.4213   -7.9817  -16.4184 N   0  0  0  0  0  0  0  0  0  0  0  0
   20.7825   -5.9400  -15.1353 C   0  0  0  0  0  0  0  0  0  0  0  0
   20.8835   -5.1368  -16.2870 O   0  0  0  0  0  0  0  0  0  0  0  0
   20.6212   -5.2724  -14.0731 O   0  0  0  0  0  0  0  0  0  0  0  0
  2  1  1  6
  2  7  1  0
  3  2  1  0
  4  3  1  0
  5  4  1  0
  5  6  2  0
  7  8  2  0
  9  5  1  0
 11 10  1  6
 12 11  1  0
 13 11  1  0
 14  7  1  0
 13 14  1  1
 15 13  1  0
 15 22  1  0
 16 15  2  0
 18 19  1  0
 18 17  1  0
 19 20  1  1
 21 23  1  0
 21 22  1  6
 21 19  1  0
 23 24  1  0
 25 23  2  0
M  END
$$$$
