ETI.pdb
     RDKit          3D

 25 24  0  0  1  0  0  0  0  0999 V2000
   18.1738  -11.9192  -18.2640 N   0  0  0  0  0  0  0  0  0  0  0  0
   17.8313  -10.6418  -17.7277 C   0  0  1  0  0  0  0  0  0  0  0  0
   17.2630  -10.8802  -16.3522 C   0  0  0  0  0  0  0  0  0  0  0  0
   15.9758  -11.6369  -16.3408 C   0  0  0  0  0  0  0  0  0  0  0  0
   16.1494  -12.9219  -15.6403 C   0  0  0  0  0  0  0  0  0  0  0  0
   17.0507  -12.9975  -14.7369 O   0  0  0  0  0  0  0  0  0  0  0  0
   18.9768   -9.7181  -17.5806 C   0  0  0  0  0  0  0  0  0  0  0  0
   20.1310  -10.2164  -17.6188 O   0  0  0  0  0  0  0  0  0  0  0  0
   15.3841  -14.0416  -15.9140 O   0  0  0  0  0  0  0  0  0  0  0  0
   20.9092   -5.2063  -18.0088 C   0  0  0  0  0  0  0  0  0  0  0  0
   19.7987   -6.2195  -18.2062 C   0  0  1  0  0  0  0  0  0  0  0  0
   19.7617   -6.6202  -19.5583 O   0  0  0  0  0  0  0  0  0  0  0  0
   19.9665   -7.4185  -17.2996 C   0  0  2  0  0  0  0  0  0  0  0  0
   18.8361   -8.3201  -17.4014 N   0  0  0  0  0  0  0  0  0  0  0  0
   20.0821   -6.8936  -15.8936 C   0  0  0  0  0  0  0  0  0  0  0  0
   19.0344   -6.4064  -15.4198 O   0  0  0  0  0  0  0  0  0  0  0  0
   22.3953  -10.0522  -12.6511 C   0  0  0  0  0  0  0  0  0  0  0  0
   21.7417   -8.9831  -13.5285 C   0  0  0  0  0  0  0  0  0  0  0  0
   21.9859   -7.6160  -12.9606 C   0  0  2  0  0  0  0  0  0  0  0  0
   21.5663   -7.5578  -11.5080 C   0  0  0  0  0  0  0  0  0  0  0  0
   21.4164   -6.5509  -13.8154 C   0  0  2  0  0  0  0  0  0  0  0  0
   21.2812   -6.9519  -15.1769 N   0  0  0  0  0  0  0  0  0  0  0  0
   21.9630   -5.1913  -13.6339 C   0  0  0  0  0  0  0  0  0  0  0  0
   22.8201   -4.5870  -14.5732 O   0  0  0  0  0  0  0  0  0  0  0  0
   21.7139   -4.4532  -12.6375 O   0  0  0  0  0  0  0  0  0  0  0  0
  2  1  1  1
  2  7  1  0
  3  2  1  0
  4  3  1  0
  5  4  1  0
  5  6  2  0
  7  8  2  0
  9  5  1  0
 11 10  1  6
 12 11  1  0
 13 11  1  0
 14  7  1  0
 13 14  1  1
 15 13  1  0
 15 22  1  0
 16 15  2  0
 18 19  1  0
 18 17  1  0
 19 20  1  1
 21 23  1  0
 21 22  1  6
 21 19  1  0
 23 24  1  0
 25 23  2  0
M  END
$$$$
