ETI.pdb
     RDKit          3D

 25 24  0  0  1  0  0  0  0  0999 V2000
   18.6400  -12.4278  -17.5216 N   0  0  0  0  0  0  0  0  0  0  0  0
   18.4741  -11.0218  -17.3423 C   0  0  1  0  0  0  0  0  0  0  0  0
   17.1727  -10.8224  -16.6085 C   0  0  0  0  0  0  0  0  0  0  0  0
   15.9649  -11.2677  -17.3653 C   0  0  0  0  0  0  0  0  0  0  0  0
   14.7628  -11.1397  -16.5224 C   0  0  0  0  0  0  0  0  0  0  0  0
   14.3498  -12.1784  -15.9021 O   0  0  0  0  0  0  0  0  0  0  0  0
   19.5387  -10.3822  -16.5394 C   0  0  0  0  0  0  0  0  0  0  0  0
   20.0773  -11.0730  -15.6368 O   0  0  0  0  0  0  0  0  0  0  0  0
   14.0674   -9.9531  -16.3723 O   0  0  0  0  0  0  0  0  0  0  0  0
   22.8975   -9.3950  -17.3698 C   0  0  0  0  0  0  0  0  0  0  0  0
   22.2393   -8.1331  -16.8470 C   0  0  1  0  0  0  0  0  0  0  0  0
   21.8597   -7.3157  -17.9322 O   0  0  0  0  0  0  0  0  0  0  0  0
   21.0459   -8.4450  -15.9718 C   0  0  2  0  0  0  0  0  0  0  0  0
   19.9728   -9.0485  -16.7369 N   0  0  0  0  0  0  0  0  0  0  0  0
   20.5846   -7.1416  -15.3768 C   0  0  0  0  0  0  0  0  0  0  0  0
   19.6237   -6.5999  -15.9624 O   0  0  0  0  0  0  0  0  0  0  0  0
   19.8490   -6.0144   -9.9875 C   0  0  0  0  0  0  0  0  0  0  0  0
   20.7466   -5.9026  -11.2210 C   0  0  0  0  0  0  0  0  0  0  0  0
   19.9281   -5.5964  -12.4405 C   0  0  2  0  0  0  0  0  0  0  0  0
   18.8349   -6.6264  -12.6231 C   0  0  0  0  0  0  0  0  0  0  0  0
   20.7739   -5.3693  -13.6332 C   0  0  2  0  0  0  0  0  0  0  0  0
   21.1944   -6.5848  -14.2485 N   0  0  0  0  0  0  0  0  0  0  0  0
   21.8367   -4.3519  -13.5088 C   0  0  0  0  0  0  0  0  0  0  0  0
   21.5596   -2.9872  -13.3018 O   0  0  0  0  0  0  0  0  0  0  0  0
   23.0741   -4.6065  -13.5713 O   0  0  0  0  0  0  0  0  0  0  0  0
  2  1  1  1
  2  7  1  0
  3  2  1  0
  4  3  1  0
  5  4  1  0
  5  6  2  0
  7  8  2  0
  9  5  1  0
 11 10  1  6
 12 11  1  0
 13 11  1  0
 14  7  1  0
 13 14  1  6
 15 13  1  0
 15 22  1  0
 16 15  2  0
 18 19  1  0
 18 17  1  0
 19 20  1  6
 21 23  1  0
 21 22  1  1
 21 19  1  0
 23 24  1  0
 25 23  2  0
M  END
$$$$
