ETI.pdb
     RDKit          3D

 25 24  0  0  1  0  0  0  0  0999 V2000
   15.9262  -14.6228  -17.9383 N   0  0  0  0  0  0  0  0  0  0  0  0
   16.3686  -13.9125  -16.7822 C   0  0  1  0  0  0  0  0  0  0  0  0
   17.2306  -14.8594  -15.9873 C   0  0  0  0  0  0  0  0  0  0  0  0
   16.5197  -16.0801  -15.5034 C   0  0  0  0  0  0  0  0  0  0  0  0
   17.4512  -16.9489  -14.7621 C   0  0  0  0  0  0  0  0  0  0  0  0
   18.6666  -16.5691  -14.6486 O   0  0  0  0  0  0  0  0  0  0  0  0
   17.1833  -12.7148  -17.0804 C   0  0  0  0  0  0  0  0  0  0  0  0
   17.7261  -12.6511  -18.2131 O   0  0  0  0  0  0  0  0  0  0  0  0
   17.0708  -18.1479  -14.1862 O   0  0  0  0  0  0  0  0  0  0  0  0
   16.1283   -9.2459  -17.5360 C   0  0  0  0  0  0  0  0  0  0  0  0
   17.1666   -9.2300  -16.4313 C   0  0  1  0  0  0  0  0  0  0  0  0
   16.5206   -9.1724  -15.1786 O   0  0  0  0  0  0  0  0  0  0  0  0
   18.0811  -10.4325  -16.5045 C   0  0  2  0  0  0  0  0  0  0  0  0
   17.3774  -11.6530  -16.1633 N   0  0  0  0  0  0  0  0  0  0  0  0
   19.2010  -10.1931  -15.5277 C   0  0  0  0  0  0  0  0  0  0  0  0
   18.9803  -10.5784  -14.3605 O   0  0  0  0  0  0  0  0  0  0  0  0
   24.7314  -11.0349  -14.5045 C   0  0  0  0  0  0  0  0  0  0  0  0
   23.8774   -9.7660  -14.5327 C   0  0  0  0  0  0  0  0  0  0  0  0
   22.7671   -9.9021  -15.5325 C   0  0  2  0  0  0  0  0  0  0  0  0
   23.1960   -9.3722  -16.8832 C   0  0  0  0  0  0  0  0  0  0  0  0
   21.4924   -9.3490  -15.0238 C   0  0  2  0  0  0  0  0  0  0  0  0
   20.3995   -9.5824  -15.9092 N   0  0  0  0  0  0  0  0  0  0  0  0
   21.5385   -7.9842  -14.4623 C   0  0  0  0  0  0  0  0  0  0  0  0
   20.9151   -6.8864  -15.0853 O   0  0  0  0  0  0  0  0  0  0  0  0
   22.1283   -7.6791  -13.3857 O   0  0  0  0  0  0  0  0  0  0  0  0
  2  1  1  6
  2  7  1  0
  3  2  1  0
  4  3  1  0
  5  4  1  0
  5  6  2  0
  7  8  2  0
  9  5  1  0
 11 10  1  6
 12 11  1  0
 13 11  1  0
 14  7  1  0
 13 14  1  1
 15 13  1  0
 15 22  1  0
 16 15  2  0
 18 19  1  0
 18 17  1  0
 19 20  1  6
 21 23  1  0
 21 22  1  6
 21 19  1  0
 23 24  1  0
 25 23  2  0
M  END
$$$$
