ETI.pdb
     RDKit          3D

 25 24  0  0  1  0  0  0  0  0999 V2000
   16.6109  -13.9194  -19.0856 N   0  0  0  0  0  0  0  0  0  0  0  0
   16.5618  -12.7576  -18.2582 C   0  0  1  0  0  0  0  0  0  0  0  0
   16.4750  -13.2368  -16.8318 C   0  0  0  0  0  0  0  0  0  0  0  0
   15.2645  -14.0578  -16.5310 C   0  0  0  0  0  0  0  0  0  0  0  0
   15.3303  -14.5711  -15.1510 C   0  0  0  0  0  0  0  0  0  0  0  0
   16.2471  -15.4153  -14.8664 O   0  0  0  0  0  0  0  0  0  0  0  0
   17.7531  -11.8874  -18.3622 C   0  0  0  0  0  0  0  0  0  0  0  0
   18.8033  -12.3970  -18.8306 O   0  0  0  0  0  0  0  0  0  0  0  0
   14.4510  -14.1811  -14.1566 O   0  0  0  0  0  0  0  0  0  0  0  0
   18.1756   -8.8046  -20.3905 C   0  0  0  0  0  0  0  0  0  0  0  0
   18.5507   -8.4388  -18.9678 C   0  0  1  0  0  0  0  0  0  0  0  0
   17.4861   -7.7358  -18.3659 O   0  0  0  0  0  0  0  0  0  0  0  0
   18.9114   -9.6602  -18.1518 C   0  0  2  0  0  0  0  0  0  0  0  0
   17.7656  -10.5280  -17.9648 N   0  0  0  0  0  0  0  0  0  0  0  0
   19.4077   -9.1675  -16.8189 C   0  0  0  0  0  0  0  0  0  0  0  0
   18.5389   -9.0832  -15.9258 O   0  0  0  0  0  0  0  0  0  0  0  0
   23.5800  -11.2861  -14.6074 C   0  0  0  0  0  0  0  0  0  0  0  0
   22.3116  -10.5655  -15.0679 C   0  0  0  0  0  0  0  0  0  0  0  0
   22.4700   -9.0804  -14.9256 C   0  0  2  0  0  0  0  0  0  0  0  0
   22.9584   -8.7253  -13.5383 C   0  0  0  0  0  0  0  0  0  0  0  0
   21.2609   -8.3494  -15.3652 C   0  0  2  0  0  0  0  0  0  0  0  0
   20.7478   -8.8307  -16.6053 N   0  0  0  0  0  0  0  0  0  0  0  0
   21.2981   -6.8776  -15.2533 C   0  0  0  0  0  0  0  0  0  0  0  0
   21.5091   -6.0378  -16.3633 O   0  0  0  0  0  0  0  0  0  0  0  0
   21.1425   -6.2438  -14.1698 O   0  0  0  0  0  0  0  0  0  0  0  0
  2  1  1  6
  2  7  1  0
  3  2  1  0
  4  3  1  0
  5  4  1  0
  5  6  2  0
  7  8  2  0
  9  5  1  0
 11 10  1  6
 12 11  1  0
 13 11  1  0
 14  7  1  0
 13 14  1  1
 15 13  1  0
 15 22  1  0
 16 15  2  0
 18 19  1  0
 18 17  1  0
 19 20  1  1
 21 23  1  0
 21 22  1  6
 21 19  1  0
 23 24  1  0
 25 23  2  0
M  END
$$$$
