ETI.pdb
     RDKit          3D

 25 24  0  0  1  0  0  0  0  0999 V2000
   28.9080  -22.6735  -17.8873 N   0  0  0  0  0  0  0  0  0  0  0  0
   27.8185  -22.8729  -16.9873 C   0  0  1  0  0  0  0  0  0  0  0  0
   27.9690  -24.2590  -16.4148 C   0  0  0  0  0  0  0  0  0  0  0  0
   26.7081  -25.0587  -16.3991 C   0  0  0  0  0  0  0  0  0  0  0  0
   26.8012  -26.1711  -17.3613 C   0  0  0  0  0  0  0  0  0  0  0  0
   27.8870  -26.3050  -18.0227 O   0  0  0  0  0  0  0  0  0  0  0  0
   27.7872  -21.9251  -15.8524 C   0  0  0  0  0  0  0  0  0  0  0  0
   28.8822  -21.4303  -15.4810 O   0  0  0  0  0  0  0  0  0  0  0  0
   25.7734  -27.0716  -17.5777 O   0  0  0  0  0  0  0  0  0  0  0  0
   27.0931  -18.6378  -15.6712 C   0  0  0  0  0  0  0  0  0  0  0  0
   26.1040  -19.2115  -14.6755 C   0  0  1  0  0  0  0  0  0  0  0  0
   24.8379  -19.3324  -15.2857 O   0  0  0  0  0  0  0  0  0  0  0  0
   26.5644  -20.5468  -14.1344 C   0  0  2  0  0  0  0  0  0  0  0  0
   26.5995  -21.5550  -15.1753 N   0  0  0  0  0  0  0  0  0  0  0  0
   25.5871  -20.9470  -13.0619 C   0  0  0  0  0  0  0  0  0  0  0  0
   24.7278  -21.7835  -13.4106 O   0  0  0  0  0  0  0  0  0  0  0  0
   26.9521  -19.8226   -7.8175 C   0  0  0  0  0  0  0  0  0  0  0  0
   26.5032  -20.5273   -9.0989 C   0  0  0  0  0  0  0  0  0  0  0  0
   25.0864  -20.1618   -9.4307 C   0  0  2  0  0  0  0  0  0  0  0  0
   24.1591  -20.5284   -8.2926 C   0  0  0  0  0  0  0  0  0  0  0  0
   24.6772  -20.6763  -10.7564 C   0  0  2  0  0  0  0  0  0  0  0  0
   25.6451  -20.4151  -11.7702 N   0  0  0  0  0  0  0  0  0  0  0  0
   23.2826  -20.4177  -11.1668 C   0  0  0  0  0  0  0  0  0  0  0  0
   22.9189  -19.3170  -11.9656 O   0  0  0  0  0  0  0  0  0  0  0  0
   22.3016  -21.1500  -10.8486 O   0  0  0  0  0  0  0  0  0  0  0  0
  2  1  1  6
  2  7  1  0
  3  2  1  0
  4  3  1  0
  5  4  1  0
  5  6  2  0
  7  8  2  0
  9  5  1  0
 11 10  1  6
 12 11  1  0
 13 11  1  0
 14  7  1  0
 13 14  1  6
 15 13  1  0
 15 22  1  0
 16 15  2  0
 18 19  1  0
 18 17  1  0
 19 20  1  1
 21 23  1  0
 21 22  1  6
 21 19  1  0
 23 24  1  0
 25 23  2  0
M  END
$$$$
