ETI.pdb
     RDKit          3D

 25 24  0  0  1  0  0  0  0  0999 V2000
   17.8708  -14.1792  -18.3280 N   0  0  0  0  0  0  0  0  0  0  0  0
   17.3202  -12.9493  -17.8579 C   0  0  1  0  0  0  0  0  0  0  0  0
   16.8422  -13.1913  -16.4491 C   0  0  0  0  0  0  0  0  0  0  0  0
   15.6546  -14.0908  -16.3481 C   0  0  0  0  0  0  0  0  0  0  0  0
   16.0795  -15.4513  -15.9733 C   0  0  0  0  0  0  0  0  0  0  0  0
   15.4385  -16.4398  -16.4697 O   0  0  0  0  0  0  0  0  0  0  0  0
   18.2855  -11.8298  -17.8128 C   0  0  0  0  0  0  0  0  0  0  0  0
   19.5044  -12.1203  -17.7044 O   0  0  0  0  0  0  0  0  0  0  0  0
   17.1351  -15.7044  -15.1155 O   0  0  0  0  0  0  0  0  0  0  0  0
   19.2310   -7.0876  -18.9715 C   0  0  0  0  0  0  0  0  0  0  0  0
   18.3071   -8.2888  -18.9252 C   0  0  1  0  0  0  0  0  0  0  0  0
   18.0854   -8.7633  -20.2350 O   0  0  0  0  0  0  0  0  0  0  0  0
   18.8612   -9.3884  -18.0468 C   0  0  2  0  0  0  0  0  0  0  0  0
   17.9064  -10.4670  -17.8848 N   0  0  0  0  0  0  0  0  0  0  0  0
   19.1709   -8.7693  -16.7102 C   0  0  0  0  0  0  0  0  0  0  0  0
   18.1754   -8.4152  -16.0445 O   0  0  0  0  0  0  0  0  0  0  0  0
   23.7550   -9.9799  -13.5614 C   0  0  0  0  0  0  0  0  0  0  0  0
   22.9908   -9.1084  -14.5596 C   0  0  0  0  0  0  0  0  0  0  0  0
   21.5686   -8.9269  -14.1176 C   0  0  2  0  0  0  0  0  0  0  0  0
   20.9044  -10.2671  -13.8898 C   0  0  0  0  0  0  0  0  0  0  0  0
   20.8248   -8.0076  -15.0070 C   0  0  2  0  0  0  0  0  0  0  0  0
   20.4827   -8.6065  -16.2548 N   0  0  0  0  0  0  0  0  0  0  0  0
   21.3404   -6.6283  -15.1163 C   0  0  0  0  0  0  0  0  0  0  0  0
   21.3513   -5.7344  -14.0287 O   0  0  0  0  0  0  0  0  0  0  0  0
   21.8163   -6.1302  -16.1771 O   0  0  0  0  0  0  0  0  0  0  0  0
  2  1  1  1
  2  7  1  0
  3  2  1  0
  4  3  1  0
  5  4  1  0
  5  6  2  0
  7  8  2  0
  9  5  1  0
 11 10  1  6
 12 11  1  0
 13 11  1  0
 14  7  1  0
 13 14  1  1
 15 13  1  0
 15 22  1  0
 16 15  2  0
 18 19  1  0
 18 17  1  0
 19 20  1  6
 21 23  1  0
 21 22  1  6
 21 19  1  0
 23 24  1  0
 25 23  2  0
M  END
$$$$
