ETI.pdb
     RDKit          3D

 25 24  0  0  1  0  0  0  0  0999 V2000
   14.7766  -10.3266  -15.0847 N   0  0  0  0  0  0  0  0  0  0  0  0
   15.3075  -11.1152  -14.0202 C   0  0  1  0  0  0  0  0  0  0  0  0
   16.3448  -12.0271  -14.6235 C   0  0  0  0  0  0  0  0  0  0  0  0
   17.4717  -11.3165  -15.2979 C   0  0  0  0  0  0  0  0  0  0  0  0
   18.4391  -12.2917  -15.8317 C   0  0  0  0  0  0  0  0  0  0  0  0
   18.1330  -12.9175  -16.9036 O   0  0  0  0  0  0  0  0  0  0  0  0
   15.9710  -10.3310  -12.9562 C   0  0  0  0  0  0  0  0  0  0  0  0
   16.4301  -10.9642  -11.9712 O   0  0  0  0  0  0  0  0  0  0  0  0
   19.6561  -12.5568  -15.2293 O   0  0  0  0  0  0  0  0  0  0  0  0
   19.0230   -8.1348  -13.0694 C   0  0  0  0  0  0  0  0  0  0  0  0
   17.8814   -7.3007  -12.5220 C   0  0  1  0  0  0  0  0  0  0  0  0
   17.3812   -6.4614  -13.5395 O   0  0  0  0  0  0  0  0  0  0  0  0
   16.7780   -8.1652  -11.9539 C   0  0  2  0  0  0  0  0  0  0  0  0
   16.1109   -8.9221  -12.9947 N   0  0  0  0  0  0  0  0  0  0  0  0
   15.7987   -7.2417  -11.2803 C   0  0  0  0  0  0  0  0  0  0  0  0
   14.8265   -6.8933  -11.9824 O   0  0  0  0  0  0  0  0  0  0  0  0
   12.4456   -6.2330   -6.6072 C   0  0  0  0  0  0  0  0  0  0  0  0
   13.3271   -5.5307   -7.6415 C   0  0  0  0  0  0  0  0  0  0  0  0
   14.3191   -6.4924   -8.2263 C   0  0  2  0  0  0  0  0  0  0  0  0
   15.1322   -7.1519   -7.1339 C   0  0  0  0  0  0  0  0  0  0  0  0
   15.1170   -5.8756   -9.3090 C   0  0  2  0  0  0  0  0  0  0  0  0
   15.9732   -6.8102   -9.9619 N   0  0  0  0  0  0  0  0  0  0  0  0
   15.7523   -4.5771   -9.0079 C   0  0  0  0  0  0  0  0  0  0  0  0
   15.0254   -3.3730   -8.9484 O   0  0  0  0  0  0  0  0  0  0  0  0
   16.9865   -4.4277   -8.7750 O   0  0  0  0  0  0  0  0  0  0  0  0
  2  1  1  6
  2  7  1  0
  3  2  1  0
  4  3  1  0
  5  4  1  0
  5  6  2  0
  7  8  2  0
  9  5  1  0
 11 10  1  6
 12 11  1  0
 13 11  1  0
 14  7  1  0
 13 14  1  6
 15 13  1  0
 15 22  1  0
 16 15  2  0
 18 19  1  0
 18 17  1  0
 19 20  1  1
 21 23  1  0
 21 22  1  1
 21 19  1  0
 23 24  1  0
 25 23  2  0
M  END
$$$$
