ECN.pdb
     RDKit          3D

 24 23  0  0  1  0  0  0  0  0999 V2000
   16.4150   -9.6820  -10.5764 N   0  0  0  0  0  0  0  0  0  0  0  0
   16.6838   -9.4404  -12.0041 C   0  0  1  0  0  0  0  0  0  0  0  0
   15.5410   -8.6316  -12.6013 C   0  0  0  0  0  0  0  0  0  0  0  0
   14.3550   -9.4968  -12.8313 C   0  0  0  0  0  0  0  0  0  0  0  0
   14.5283  -10.4373  -13.9362 C   0  0  0  0  0  0  0  0  0  0  0  0
   14.8481   -9.9959  -15.0815 O   0  0  0  0  0  0  0  0  0  0  0  0
   17.8760   -8.5608  -12.0662 C   0  0  0  0  0  0  0  0  0  0  0  0
   18.0975   -7.8178  -11.0841 O   0  0  0  0  0  0  0  0  0  0  0  0
   14.3628  -11.7945  -13.7997 O   0  0  0  0  0  0  0  0  0  0  0  0
   18.7480   -8.5301  -13.1622 N   0  0  0  0  0  0  0  0  0  0  0  0
   19.9508   -7.7034  -13.1960 C   0  0  1  0  0  0  0  0  0  0  0  0
   21.1360   -8.5247  -13.6440 C   0  0  0  0  0  0  0  0  0  0  0  0
   22.6004   -7.5167  -13.8579 S   0  0  0  0  0  0  0  0  0  0  0  0
   19.6913   -6.6624  -14.2188 C   0  0  0  0  0  0  0  0  0  0  0  0
   19.2713   -6.9900  -15.3638 O   0  0  0  0  0  0  0  0  0  0  0  0
   17.8552   -1.2428  -15.5289 N   0  0  0  0  0  0  0  0  0  0  0  0
   18.3016   -2.5418  -15.9336 C   0  0  0  0  0  0  0  0  0  0  0  0
   18.4450   -2.7622  -17.1647 O   0  0  0  0  0  0  0  0  0  0  0  0
   18.5643   -3.5356  -14.8947 C   0  0  0  0  0  0  0  0  0  0  0  0
   19.7938   -4.3848  -15.1406 C   0  0  2  0  0  0  0  0  0  0  0  0
   19.8820   -5.2770  -14.0049 N   0  0  0  0  0  0  0  0  0  0  0  0
   20.9657   -3.4776  -15.2217 C   0  0  0  0  0  0  0  0  0  0  0  0
   21.0763   -2.6672  -16.3609 O   0  0  0  0  0  0  0  0  0  0  0  0
   21.8544   -3.3814  -14.3600 O   0  0  0  0  0  0  0  0  0  0  0  0
  2  1  1  1
  2  7  1  0
  3  2  1  0
  3  4  1  0
  5  4  1  0
  5  9  1  0
  6  5  2  0
  7  8  2  0
 10 11  1  0
 10  7  1  0
 11 14  1  0
 11 12  1  6
 13 12  1  0
 14 21  1  0
 15 14  2  0
 17 16  1  0
 18 17  2  0
 19 17  1  0
 20 19  1  1
 21 20  1  0
 22 23  1  0
 22 20  1  0
 24 22  2  0
M  END
$$$$
