ECN.pdb
     RDKit          3D

 24 23  0  0  1  0  0  0  0  0999 V2000
   18.3897  -11.3375  -17.4965 N   0  0  0  0  0  0  0  0  0  0  0  0
   17.5107  -11.0189  -16.3587 C   0  0  1  0  0  0  0  0  0  0  0  0
   17.5189  -12.1812  -15.3759 C   0  0  0  0  0  0  0  0  0  0  0  0
   17.1112  -13.4393  -16.0534 C   0  0  0  0  0  0  0  0  0  0  0  0
   17.0646  -14.5923  -15.1568 C   0  0  0  0  0  0  0  0  0  0  0  0
   17.4631  -15.7207  -15.5770 O   0  0  0  0  0  0  0  0  0  0  0  0
   18.1405   -9.8821  -15.6443 C   0  0  0  0  0  0  0  0  0  0  0  0
   17.6256   -9.5236  -14.5618 O   0  0  0  0  0  0  0  0  0  0  0  0
   16.6070  -14.5193  -13.8633 O   0  0  0  0  0  0  0  0  0  0  0  0
   19.2691   -9.2064  -16.1262 N   0  0  0  0  0  0  0  0  0  0  0  0
   19.9822   -8.1980  -15.3478 C   0  0  1  0  0  0  0  0  0  0  0  0
   21.4410   -8.5685  -15.2258 C   0  0  0  0  0  0  0  0  0  0  0  0
   22.1140   -8.1025  -13.6333 S   0  0  0  0  0  0  0  0  0  0  0  0
   19.8834   -6.9443  -16.1324 C   0  0  0  0  0  0  0  0  0  0  0  0
   20.2912   -6.9109  -17.3272 O   0  0  0  0  0  0  0  0  0  0  0  0
   17.5064   -1.3278  -16.1059 N   0  0  0  0  0  0  0  0  0  0  0  0
   18.0346   -2.4730  -16.7842 C   0  0  0  0  0  0  0  0  0  0  0  0
   18.3217   -2.3587  -18.0045 O   0  0  0  0  0  0  0  0  0  0  0  0
   18.2095   -3.7069  -16.0209 C   0  0  0  0  0  0  0  0  0  0  0  0
   19.3710   -4.5641  -16.4786 C   0  0  2  0  0  0  0  0  0  0  0  0
   19.3457   -5.7360  -15.6302 N   0  0  0  0  0  0  0  0  0  0  0  0
   20.6170   -3.7785  -16.2969 C   0  0  0  0  0  0  0  0  0  0  0  0
   21.2788   -3.3424  -17.4538 O   0  0  0  0  0  0  0  0  0  0  0  0
   21.1176   -3.4783  -15.2011 O   0  0  0  0  0  0  0  0  0  0  0  0
  2  1  1  6
  2  7  1  0
  3  2  1  0
  3  4  1  0
  5  4  1  0
  5  9  1  0
  6  5  2  0
  7  8  2  0
 10 11  1  0
 10  7  1  0
 11 14  1  0
 11 12  1  6
 13 12  1  0
 14 21  1  0
 15 14  2  0
 17 16  1  0
 18 17  2  0
 19 17  1  0
 20 19  1  1
 21 20  1  0
 22 23  1  0
 22 20  1  0
 24 22  2  0
M  END
$$$$
