ECN.pdb
     RDKit          3D

 24 23  0  0  1  0  0  0  0  0999 V2000
   24.3620  -13.4237  -20.0159 N   0  0  0  0  0  0  0  0  0  0  0  0
   23.1035  -13.4760  -19.2529 C   0  0  1  0  0  0  0  0  0  0  0  0
   22.8486  -14.9068  -18.8005 C   0  0  0  0  0  0  0  0  0  0  0  0
   23.3131  -15.8701  -19.8322 C   0  0  0  0  0  0  0  0  0  0  0  0
   24.6627  -16.3750  -19.5888 C   0  0  0  0  0  0  0  0  0  0  0  0
   24.9120  -16.9784  -18.5014 O   0  0  0  0  0  0  0  0  0  0  0  0
   23.3290  -12.6949  -18.0128 C   0  0  0  0  0  0  0  0  0  0  0  0
   22.3977  -12.6542  -17.1782 O   0  0  0  0  0  0  0  0  0  0  0  0
   25.6916  -16.2308  -20.4879 O   0  0  0  0  0  0  0  0  0  0  0  0
   24.5231  -12.0131  -17.7445 N   0  0  0  0  0  0  0  0  0  0  0  0
   24.7167  -11.1909  -16.5538 C   0  0  1  0  0  0  0  0  0  0  0  0
   26.1469  -10.7127  -16.4769 C   0  0  0  0  0  0  0  0  0  0  0  0
   26.3805   -9.5251  -15.1573 S   0  0  0  0  0  0  0  0  0  0  0  0
   23.8393  -10.0103  -16.7367 C   0  0  0  0  0  0  0  0  0  0  0  0
   23.9050   -9.3305  -17.7989 O   0  0  0  0  0  0  0  0  0  0  0  0
   20.4001   -6.3017  -16.5976 N   0  0  0  0  0  0  0  0  0  0  0  0
   19.9761   -7.6229  -16.9515 C   0  0  0  0  0  0  0  0  0  0  0  0
   18.8300   -7.7629  -17.4531 O   0  0  0  0  0  0  0  0  0  0  0  0
   20.8977   -8.7310  -16.7100 C   0  0  0  0  0  0  0  0  0  0  0  0
   22.1888   -8.3309  -16.0271 C   0  0  2  0  0  0  0  0  0  0  0  0
   22.8959   -9.5688  -15.7793 N   0  0  0  0  0  0  0  0  0  0  0  0
   21.8396   -7.6329  -14.7647 C   0  0  0  0  0  0  0  0  0  0  0  0
   21.3002   -6.3426  -14.8692 O   0  0  0  0  0  0  0  0  0  0  0  0
   21.9884   -8.1027  -13.6252 O   0  0  0  0  0  0  0  0  0  0  0  0
  2  1  1  6
  2  7  1  0
  3  2  1  0
  3  4  1  0
  5  4  1  0
  5  9  1  0
  6  5  2  0
  7  8  2  0
 10 11  1  0
 10  7  1  0
 11 14  1  0
 11 12  1  6
 13 12  1  0
 14 21  1  0
 15 14  2  0
 17 16  1  0
 18 17  2  0
 19 17  1  0
 20 19  1  1
 21 20  1  0
 22 23  1  0
 22 20  1  0
 24 22  2  0
M  END
$$$$
