ECN.pdb
     RDKit          3D

 24 23  0  0  1  0  0  0  0  0999 V2000
   18.0922  -11.8695  -15.0486 N   0  0  0  0  0  0  0  0  0  0  0  0
   19.2474  -12.2155  -15.8940 C   0  0  1  0  0  0  0  0  0  0  0  0
   18.8366  -13.2884  -16.8925 C   0  0  0  0  0  0  0  0  0  0  0  0
   18.3692  -14.5080  -16.1839 C   0  0  0  0  0  0  0  0  0  0  0  0
   18.0416  -15.6121  -17.0835 C   0  0  0  0  0  0  0  0  0  0  0  0
   18.1676  -15.4501  -18.3351 O   0  0  0  0  0  0  0  0  0  0  0  0
   19.5558  -11.0103  -16.7011 C   0  0  0  0  0  0  0  0  0  0  0  0
   20.5045  -11.0862  -17.5134 O   0  0  0  0  0  0  0  0  0  0  0  0
   17.5992  -16.8353  -16.6405 O   0  0  0  0  0  0  0  0  0  0  0  0
   18.8389   -9.8117  -16.5911 N   0  0  0  0  0  0  0  0  0  0  0  0
   19.1783   -8.6119  -17.3504 C   0  0  1  0  0  0  0  0  0  0  0  0
   17.9624   -8.0966  -18.0827 C   0  0  0  0  0  0  0  0  0  0  0  0
   17.4790   -9.1874  -19.4179 S   0  0  0  0  0  0  0  0  0  0  0  0
   19.5789   -7.6014  -16.3426 C   0  0  0  0  0  0  0  0  0  0  0  0
   19.4151   -7.8342  -15.1123 O   0  0  0  0  0  0  0  0  0  0  0  0
   21.9076   -5.6182  -12.4694 N   0  0  0  0  0  0  0  0  0  0  0  0
   22.3406   -5.4374  -13.8223 C   0  0  0  0  0  0  0  0  0  0  0  0
   23.2697   -4.6171  -14.0424 O   0  0  0  0  0  0  0  0  0  0  0  0
   21.6790   -6.2149  -14.8681 C   0  0  0  0  0  0  0  0  0  0  0  0
   20.5618   -5.4804  -15.5791 C   0  0  2  0  0  0  0  0  0  0  0  0
   20.1545   -6.3492  -16.6621 N   0  0  0  0  0  0  0  0  0  0  0  0
   21.1078   -4.1941  -16.0793 C   0  0  0  0  0  0  0  0  0  0  0  0
   21.2756   -3.1591  -15.1480 O   0  0  0  0  0  0  0  0  0  0  0  0
   21.4266   -3.9644  -17.2570 O   0  0  0  0  0  0  0  0  0  0  0  0
  2  1  1  1
  2  7  1  0
  3  2  1  0
  3  4  1  0
  5  4  1  0
  5  9  1  0
  6  5  2  0
  7  8  2  0
 10 11  1  0
 10  7  1  0
 11 14  1  0
 11 12  1  1
 13 12  1  0
 14 21  1  0
 15 14  2  0
 17 16  1  0
 18 17  2  0
 19 17  1  0
 20 19  1  6
 21 20  1  0
 22 23  1  0
 22 20  1  0
 24 22  2  0
M  END
$$$$
