DQQ.pdb
     RDKit          3D

 27 26  0  0  1  0  0  0  0  0999 V2000
   18.5407  -13.9911  -16.6609 N   0  0  0  0  0  0  0  0  0  0  0  0
   17.4334  -13.1572  -16.3309 C   0  0  1  0  0  0  0  0  0  0  0  0
   17.0835  -13.2385  -14.8400 C   0  0  0  0  0  0  0  0  0  0  0  0
   16.5293  -14.5580  -14.5134 C   0  0  0  0  0  0  0  0  0  0  0  0
   16.3734  -15.4011  -15.4210 O   0  0  0  0  0  0  0  0  0  0  0  0
   17.7126  -11.7087  -16.5988 C   0  0  0  0  0  0  0  0  0  0  0  0
   18.8798  -11.2462  -16.5012 O   0  0  0  0  0  0  0  0  0  0  0  0
   16.1877  -14.8519  -13.2131 O   0  0  0  0  0  0  0  0  0  0  0  0
   13.8961   -7.9943  -19.8296 N   0  0  0  0  0  0  0  0  0  0  0  0
   14.7925   -7.0113  -19.3379 C   0  0  0  0  0  0  0  0  0  0  0  0
   14.5506   -5.8047  -19.6716 O   0  0  0  0  0  0  0  0  0  0  0  0
   15.9344   -7.3930  -18.4811 C   0  0  0  0  0  0  0  0  0  0  0  0
   15.9169   -8.8184  -18.1339 C   0  0  0  0  0  0  0  0  0  0  0  0
   16.9694   -9.3765  -17.2446 C   0  0  2  0  0  0  0  0  0  0  0  0
   16.7008  -10.7938  -16.9701 N   0  0  0  0  0  0  0  0  0  0  0  0
   17.4114   -8.6391  -16.0900 C   0  0  0  0  0  0  0  0  0  0  0  0
   16.9238   -8.8588  -14.9519 O   0  0  0  0  0  0  0  0  0  0  0  0
   23.0424   -6.0386  -14.8743 N   0  0  0  0  0  0  0  0  0  0  0  0
   22.2568   -5.5734  -13.7809 C   0  0  0  0  0  0  0  0  0  0  0  0
   22.8093   -4.9650  -12.8227 O   0  0  0  0  0  0  0  0  0  0  0  0
   20.7877   -5.8053  -13.7708 C   0  0  0  0  0  0  0  0  0  0  0  0
   20.2946   -6.5514  -14.9620 C   0  0  0  0  0  0  0  0  0  0  0  0
   18.8437   -6.8993  -14.9592 C   0  0  2  0  0  0  0  0  0  0  0  0
   18.4178   -7.6183  -16.1443 N   0  0  0  0  0  0  0  0  0  0  0  0
   18.1048   -5.5811  -14.9992 C   0  0  0  0  0  0  0  0  0  0  0  0
   17.8545   -5.0359  -16.0999 O   0  0  0  0  0  0  0  0  0  0  0  0
   17.6803   -4.9295  -13.8538 O   0  0  0  0  0  0  0  0  0  0  0  0
  2  1  1  1
  2  3  1  0
  3  4  1  0
  4  8  1  0
  5  4  2  0
  6  2  1  0
  7  6  2  0
  9 10  1  0
 10 12  1  0
 10 11  2  0
 12 13  1  0
 14 13  1  1
 14 15  1  0
 15  6  1  0
 16 17  2  0
 16 14  1  0
 18 19  1  0
 19 20  2  0
 21 19  1  0
 21 22  1  0
 23 22  1  6
 23 24  1  0
 24 16  1  0
 25 23  1  0
 26 25  2  0
 27 25  1  0
M  END
$$$$
