DQQ.pdb
     RDKit          3D

 27 26  0  0  1  0  0  0  0  0999 V2000
   15.5169  -11.4647  -15.1006 N   0  0  0  0  0  0  0  0  0  0  0  0
   16.3301  -11.3976  -13.9325 C   0  0  1  0  0  0  0  0  0  0  0  0
   17.8145  -11.2330  -14.2806 C   0  0  0  0  0  0  0  0  0  0  0  0
   18.3131  -12.4226  -14.9814 C   0  0  0  0  0  0  0  0  0  0  0  0
   18.1280  -13.5523  -14.4830 O   0  0  0  0  0  0  0  0  0  0  0  0
   15.9881  -10.2212  -13.0682 C   0  0  0  0  0  0  0  0  0  0  0  0
   15.8698   -9.0688  -13.5618 O   0  0  0  0  0  0  0  0  0  0  0  0
   18.9780  -12.2812  -16.1780 O   0  0  0  0  0  0  0  0  0  0  0  0
   11.7876  -10.4998   -8.8460 N   0  0  0  0  0  0  0  0  0  0  0  0
   12.3612   -9.2840   -8.3939 C   0  0  0  0  0  0  0  0  0  0  0  0
   11.8076   -8.7358   -7.3846 O   0  0  0  0  0  0  0  0  0  0  0  0
   13.5417   -8.7090   -9.0719 C   0  0  0  0  0  0  0  0  0  0  0  0
   14.1265   -9.6337  -10.0495 C   0  0  0  0  0  0  0  0  0  0  0  0
   15.3117   -9.2176  -10.8447 C   0  0  2  0  0  0  0  0  0  0  0  0
   15.7820  -10.3344  -11.6741 N   0  0  0  0  0  0  0  0  0  0  0  0
   16.3754   -8.4701  -10.2269 C   0  0  0  0  0  0  0  0  0  0  0  0
   17.3065   -9.0502   -9.6123 O   0  0  0  0  0  0  0  0  0  0  0  0
   20.9338   -6.9961  -12.6052 N   0  0  0  0  0  0  0  0  0  0  0  0
   21.1350   -6.0606  -11.5499 C   0  0  0  0  0  0  0  0  0  0  0  0
   22.2612   -5.5093  -11.4036 O   0  0  0  0  0  0  0  0  0  0  0  0
   20.0179   -5.7355  -10.6233 C   0  0  0  0  0  0  0  0  0  0  0  0
   18.7902   -6.5440  -10.8642 C   0  0  0  0  0  0  0  0  0  0  0  0
   17.6697   -6.3308   -9.9024 C   0  0  2  0  0  0  0  0  0  0  0  0
   16.4557   -7.0382  -10.2607 N   0  0  0  0  0  0  0  0  0  0  0  0
   17.3233   -4.8622   -9.9938 C   0  0  0  0  0  0  0  0  0  0  0  0
   18.0271   -4.0136   -9.3971 O   0  0  0  0  0  0  0  0  0  0  0  0
   16.2416   -4.3954  -10.7210 O   0  0  0  0  0  0  0  0  0  0  0  0
  2  1  1  6
  2  3  1  0
  3  4  1  0
  4  8  1  0
  5  4  2  0
  6  2  1  0
  7  6  2  0
  9 10  1  0
 10 12  1  0
 10 11  2  0
 12 13  1  0
 14 13  1  1
 14 15  1  0
 15  6  1  0
 16 17  2  0
 16 14  1  0
 18 19  1  0
 19 20  2  0
 21 19  1  0
 21 22  1  0
 23 22  1  6
 23 24  1  0
 24 16  1  0
 25 23  1  0
 26 25  2  0
 27 25  1  0
M  END
$$$$
