DQQ.pdb
     RDKit          3D

 27 26  0  0  1  0  0  0  0  0999 V2000
   21.3779  -28.4005  -11.2445 N   0  0  0  0  0  0  0  0  0  0  0  0
   19.9754  -28.1653  -11.1544 C   0  0  1  0  0  0  0  0  0  0  0  0
   19.2098  -29.4325  -10.7547 C   0  0  0  0  0  0  0  0  0  0  0  0
   19.3427  -30.4622  -11.7925 C   0  0  0  0  0  0  0  0  0  0  0  0
   18.9351  -30.2257  -12.9487 O   0  0  0  0  0  0  0  0  0  0  0  0
   19.6357  -27.1452  -10.1094 C   0  0  0  0  0  0  0  0  0  0  0  0
   20.2635  -27.1031   -9.0186 O   0  0  0  0  0  0  0  0  0  0  0  0
   19.9138  -31.6750  -11.4815 O   0  0  0  0  0  0  0  0  0  0  0  0
   17.4693  -21.5790  -11.4273 N   0  0  0  0  0  0  0  0  0  0  0  0
   17.2983  -21.5210  -10.0205 C   0  0  0  0  0  0  0  0  0  0  0  0
   16.9447  -20.3952   -9.5376 O   0  0  0  0  0  0  0  0  0  0  0  0
   17.5191  -22.7189   -9.1839 C   0  0  0  0  0  0  0  0  0  0  0  0
   17.9333  -23.8820   -9.9766 C   0  0  0  0  0  0  0  0  0  0  0  0
   18.3156  -25.1455   -9.2928 C   0  0  2  0  0  0  0  0  0  0  0  0
   18.6098  -26.1883  -10.2839 N   0  0  0  0  0  0  0  0  0  0  0  0
   17.5575  -25.6194   -8.1647 C   0  0  0  0  0  0  0  0  0  0  0  0
   16.5467  -26.3511   -8.3211 O   0  0  0  0  0  0  0  0  0  0  0  0
   18.9137  -28.5680   -2.4868 N   0  0  0  0  0  0  0  0  0  0  0  0
   18.2521  -27.3196   -2.3047 C   0  0  0  0  0  0  0  0  0  0  0  0
   18.4559  -26.6462   -1.2565 O   0  0  0  0  0  0  0  0  0  0  0  0
   17.3233  -26.8124   -3.3497 C   0  0  0  0  0  0  0  0  0  0  0  0
   18.0176  -26.2034   -4.5185 C   0  0  0  0  0  0  0  0  0  0  0  0
   17.1542  -25.8687   -5.6883 C   0  0  2  0  0  0  0  0  0  0  0  0
   17.8853  -25.3015   -6.8048 N   0  0  0  0  0  0  0  0  0  0  0  0
   16.2267  -24.7730   -5.2146 C   0  0  0  0  0  0  0  0  0  0  0  0
   16.3955  -23.5949   -5.6082 O   0  0  0  0  0  0  0  0  0  0  0  0
   15.1745  -25.0106   -4.3467 O   0  0  0  0  0  0  0  0  0  0  0  0
  2  1  1  1
  2  3  1  0
  3  4  1  0
  4  8  1  0
  5  4  2  0
  6  2  1  0
  7  6  2  0
  9 10  1  0
 10 12  1  0
 10 11  2  0
 12 13  1  0
 14 13  1  6
 14 15  1  0
 15  6  1  0
 16 17  2  0
 16 14  1  0
 18 19  1  0
 19 20  2  0
 21 19  1  0
 21 22  1  0
 23 22  1  1
 23 24  1  0
 24 16  1  0
 25 23  1  0
 26 25  2  0
 27 25  1  0
M  END
$$$$
