DQQ.pdb
     RDKit          3D

 27 26  0  0  1  0  0  0  0  0999 V2000
   19.5111  -11.8701  -15.7625 N   0  0  0  0  0  0  0  0  0  0  0  0
   18.6293  -10.7682  -15.5659 C   0  0  1  0  0  0  0  0  0  0  0  0
   17.1584  -11.1939  -15.6491 C   0  0  0  0  0  0  0  0  0  0  0  0
   16.8449  -11.7003  -16.9907 C   0  0  0  0  0  0  0  0  0  0  0  0
   17.1451  -11.0167  -17.9914 O   0  0  0  0  0  0  0  0  0  0  0  0
   18.7905  -10.1453  -14.2116 C   0  0  0  0  0  0  0  0  0  0  0  0
   18.7195  -10.8436  -13.1661 O   0  0  0  0  0  0  0  0  0  0  0  0
   16.2247  -12.9206  -17.1320 O   0  0  0  0  0  0  0  0  0  0  0  0
   21.2943   -5.0142  -12.1684 N   0  0  0  0  0  0  0  0  0  0  0  0
   21.5423   -5.4822  -13.4840 C   0  0  0  0  0  0  0  0  0  0  0  0
   22.0380   -4.6395  -14.3024 O   0  0  0  0  0  0  0  0  0  0  0  0
   21.2385   -6.8794  -13.8573 C   0  0  0  0  0  0  0  0  0  0  0  0
   20.7424   -7.6632  -12.7205 C   0  0  0  0  0  0  0  0  0  0  0  0
   19.3456   -8.1722  -12.7260 C   0  0  2  0  0  0  0  0  0  0  0  0
   19.0275   -8.7632  -14.0321 N   0  0  0  0  0  0  0  0  0  0  0  0
   18.2794   -7.3749  -12.1787 C   0  0  0  0  0  0  0  0  0  0  0  0
   17.6018   -6.6060  -12.9074 O   0  0  0  0  0  0  0  0  0  0  0  0
   14.0963   -8.6464   -7.7939 N   0  0  0  0  0  0  0  0  0  0  0  0
   13.8570   -8.6415   -9.1982 C   0  0  0  0  0  0  0  0  0  0  0  0
   12.8642   -9.2624   -9.6698 O   0  0  0  0  0  0  0  0  0  0  0  0
   14.7771   -7.9047  -10.1053 C   0  0  0  0  0  0  0  0  0  0  0  0
   15.8950   -7.2237   -9.3943 C   0  0  0  0  0  0  0  0  0  0  0  0
   16.8854   -6.5194  -10.2598 C   0  0  2  0  0  0  0  0  0  0  0  0
   17.9144   -7.3919  -10.7915 N   0  0  0  0  0  0  0  0  0  0  0  0
   17.6076   -5.5494   -9.3526 C   0  0  0  0  0  0  0  0  0  0  0  0
   16.9745   -4.6218   -8.7957 O   0  0  0  0  0  0  0  0  0  0  0  0
   18.9660   -5.6358   -9.0995 O   0  0  0  0  0  0  0  0  0  0  0  0
  2  1  1  1
  2  3  1  0
  3  4  1  0
  4  8  1  0
  5  4  2  0
  6  2  1  0
  7  6  2  0
  9 10  1  0
 10 12  1  0
 10 11  2  0
 12 13  1  0
 14 13  1  6
 14 15  1  0
 15  6  1  0
 16 17  2  0
 16 14  1  0
 18 19  1  0
 19 20  2  0
 21 19  1  0
 21 22  1  0
 23 22  1  1
 23 24  1  0
 24 16  1  0
 25 23  1  0
 26 25  2  0
 27 25  1  0
M  END
$$$$
