DQQ.pdb
     RDKit          3D

 27 26  0  0  1  0  0  0  0  0999 V2000
   16.1943  -12.2223  -14.1927 N   0  0  0  0  0  0  0  0  0  0  0  0
   17.5499  -11.9436  -14.5317 C   0  0  1  0  0  0  0  0  0  0  0  0
   17.8414  -12.2439  -16.0070 C   0  0  0  0  0  0  0  0  0  0  0  0
   17.5135  -13.6396  -16.3220 C   0  0  0  0  0  0  0  0  0  0  0  0
   17.6585  -14.5178  -15.4464 O   0  0  0  0  0  0  0  0  0  0  0  0
   17.8984  -10.4979  -14.3403 C   0  0  0  0  0  0  0  0  0  0  0  0
   18.9895  -10.0341  -14.7648 O   0  0  0  0  0  0  0  0  0  0  0  0
   17.0506  -13.9657  -17.5763 O   0  0  0  0  0  0  0  0  0  0  0  0
   18.2642   -8.2432  -17.4679 N   0  0  0  0  0  0  0  0  0  0  0  0
   19.3948   -8.0645  -16.6303 C   0  0  0  0  0  0  0  0  0  0  0  0
   20.5362   -8.2252  -17.1754 O   0  0  0  0  0  0  0  0  0  0  0  0
   19.2293   -7.7053  -15.2065 C   0  0  0  0  0  0  0  0  0  0  0  0
   17.8178   -7.5947  -14.8214 C   0  0  0  0  0  0  0  0  0  0  0  0
   17.3572   -8.1626  -13.5270 C   0  0  2  0  0  0  0  0  0  0  0  0
   17.0387   -9.5874  -13.6843 N   0  0  0  0  0  0  0  0  0  0  0  0
   16.4088   -7.4458  -12.7154 C   0  0  0  0  0  0  0  0  0  0  0  0
   15.2388   -7.8756  -12.5489 O   0  0  0  0  0  0  0  0  0  0  0  0
   14.7547   -7.6857   -7.6312 N   0  0  0  0  0  0  0  0  0  0  0  0
   14.2208   -6.3729   -7.7745 C   0  0  0  0  0  0  0  0  0  0  0  0
   13.4805   -5.8924   -6.8718 O   0  0  0  0  0  0  0  0  0  0  0  0
   14.5368   -5.5713   -8.9868 C   0  0  0  0  0  0  0  0  0  0  0  0
   15.4599   -6.2598   -9.9317 C   0  0  0  0  0  0  0  0  0  0  0  0
   15.7469   -5.5380  -11.2056 C   0  0  2  0  0  0  0  0  0  0  0  0
   16.7145   -6.2128  -12.0488 N   0  0  0  0  0  0  0  0  0  0  0  0
   16.4012   -4.2363  -10.8021 C   0  0  0  0  0  0  0  0  0  0  0  0
   17.6506   -4.1339  -10.8094 O   0  0  0  0  0  0  0  0  0  0  0  0
   15.6726   -3.1244  -10.4154 O   0  0  0  0  0  0  0  0  0  0  0  0
  2  1  1  6
  2  3  1  0
  3  4  1  0
  4  8  1  0
  5  4  2  0
  6  2  1  0
  7  6  2  0
  9 10  1  0
 10 12  1  0
 10 11  2  0
 12 13  1  0
 14 13  1  6
 14 15  1  0
 15  6  1  0
 16 17  2  0
 16 14  1  0
 18 19  1  0
 19 20  2  0
 21 19  1  0
 21 22  1  0
 23 22  1  1
 23 24  1  0
 24 16  1  0
 25 23  1  0
 26 25  2  0
 27 25  1  0
M  END
$$$$
