DQQ.pdb
     RDKit          3D

 27 26  0  0  1  0  0  0  0  0999 V2000
   16.3057  -14.2805  -16.2404 N   0  0  0  0  0  0  0  0  0  0  0  0
   15.6730  -13.3628  -15.3529 C   0  0  1  0  0  0  0  0  0  0  0  0
   16.2135  -13.4884  -13.9232 C   0  0  0  0  0  0  0  0  0  0  0  0
   15.9700  -14.8375  -13.3984 C   0  0  0  0  0  0  0  0  0  0  0  0
   14.8371  -15.3485  -13.5182 O   0  0  0  0  0  0  0  0  0  0  0  0
   15.9093  -11.9356  -15.7469 C   0  0  0  0  0  0  0  0  0  0  0  0
   16.9763  -11.5913  -16.3205 O   0  0  0  0  0  0  0  0  0  0  0  0
   16.9903  -15.5241  -12.7809 O   0  0  0  0  0  0  0  0  0  0  0  0
   11.3721   -7.8206  -16.6758 N   0  0  0  0  0  0  0  0  0  0  0  0
   12.4838   -6.9510  -16.8149 C   0  0  0  0  0  0  0  0  0  0  0  0
   12.2233   -5.7412  -17.1218 O   0  0  0  0  0  0  0  0  0  0  0  0
   13.8599   -7.4463  -16.6035 C   0  0  0  0  0  0  0  0  0  0  0  0
   13.8866   -8.8525  -16.1857 C   0  0  0  0  0  0  0  0  0  0  0  0
   15.1861   -9.5143  -15.8969 C   0  0  2  0  0  0  0  0  0  0  0  0
   14.9659  -10.9115  -15.5025 N   0  0  0  0  0  0  0  0  0  0  0  0
   16.1841   -8.8423  -15.1066 C   0  0  0  0  0  0  0  0  0  0  0  0
   16.5829   -9.3240  -14.0156 O   0  0  0  0  0  0  0  0  0  0  0  0
   21.4422   -9.3616  -14.5949 N   0  0  0  0  0  0  0  0  0  0  0  0
   21.4085   -8.1704  -13.8145 C   0  0  0  0  0  0  0  0  0  0  0  0
   22.3728   -7.8920  -13.0488 O   0  0  0  0  0  0  0  0  0  0  0  0
   20.2377   -7.2575  -13.9036 C   0  0  0  0  0  0  0  0  0  0  0  0
   19.1111   -7.8108  -14.7060 C   0  0  0  0  0  0  0  0  0  0  0  0
   17.8598   -6.9985  -14.7201 C   0  0  2  0  0  0  0  0  0  0  0  0
   16.7877   -7.5988  -15.4901 N   0  0  0  0  0  0  0  0  0  0  0  0
   18.2090   -5.7181  -15.4439 C   0  0  0  0  0  0  0  0  0  0  0  0
   17.7945   -5.5247  -16.6111 O   0  0  0  0  0  0  0  0  0  0  0  0
   18.9822   -4.7240  -14.8690 O   0  0  0  0  0  0  0  0  0  0  0  0
  2  1  1  6
  2  3  1  0
  3  4  1  0
  4  8  1  0
  5  4  2  0
  6  2  1  0
  7  6  2  0
  9 10  1  0
 10 12  1  0
 10 11  2  0
 12 13  1  0
 14 13  1  1
 14 15  1  0
 15  6  1  0
 16 17  2  0
 16 14  1  0
 18 19  1  0
 19 20  2  0
 21 19  1  0
 21 22  1  0
 23 22  1  6
 23 24  1  0
 24 16  1  0
 25 23  1  0
 26 25  2  0
 27 25  1  0
M  END
$$$$
