DQQ.pdb
     RDKit          3D

 27 26  0  0  1  0  0  0  0  0999 V2000
   18.8806  -12.1343  -14.7060 N   0  0  0  0  0  0  0  0  0  0  0  0
   17.8396  -11.3618  -15.2974 C   0  0  1  0  0  0  0  0  0  0  0  0
   16.4544  -11.9461  -14.9949 C   0  0  0  0  0  0  0  0  0  0  0  0
   16.3891  -13.3535  -15.4068 C   0  0  0  0  0  0  0  0  0  0  0  0
   16.9477  -13.7109  -16.4647 O   0  0  0  0  0  0  0  0  0  0  0  0
   17.8056   -9.9574  -14.7734 C   0  0  0  0  0  0  0  0  0  0  0  0
   16.9604   -9.1278  -15.2014 O   0  0  0  0  0  0  0  0  0  0  0  0
   15.7144  -14.2630  -14.6249 O   0  0  0  0  0  0  0  0  0  0  0  0
   16.5777   -8.2790   -9.5608 N   0  0  0  0  0  0  0  0  0  0  0  0
   17.4485   -7.1742   -9.7415 C   0  0  0  0  0  0  0  0  0  0  0  0
   17.5381   -6.3567   -8.7672 O   0  0  0  0  0  0  0  0  0  0  0  0
   18.2041   -7.0075  -11.0005 C   0  0  0  0  0  0  0  0  0  0  0  0
   17.9577   -8.1021  -11.9459 C   0  0  0  0  0  0  0  0  0  0  0  0
   18.6626   -8.1224  -13.2547 C   0  0  2  0  0  0  0  0  0  0  0  0
   18.7035   -9.4906  -13.7863 N   0  0  0  0  0  0  0  0  0  0  0  0
   19.8952   -7.3994  -13.4275 C   0  0  0  0  0  0  0  0  0  0  0  0
   21.0036   -7.9296  -13.1593 O   0  0  0  0  0  0  0  0  0  0  0  0
   21.2489   -3.1593  -17.8419 N   0  0  0  0  0  0  0  0  0  0  0  0
   22.4243   -3.1139  -17.0384 C   0  0  0  0  0  0  0  0  0  0  0  0
   23.4268   -2.4521  -17.4264 O   0  0  0  0  0  0  0  0  0  0  0  0
   22.4675   -3.8460  -15.7445 C   0  0  0  0  0  0  0  0  0  0  0  0
   21.2076   -4.5765  -15.4314 C   0  0  0  0  0  0  0  0  0  0  0  0
   21.2189   -5.3900  -14.1808 C   0  0  2  0  0  0  0  0  0  0  0  0
   19.9565   -6.0485  -13.9063 N   0  0  0  0  0  0  0  0  0  0  0  0
   21.4144   -4.4046  -13.0511 C   0  0  0  0  0  0  0  0  0  0  0  0
   20.4190   -3.9026  -12.4778 O   0  0  0  0  0  0  0  0  0  0  0  0
   22.6677   -4.0191  -12.6068 O   0  0  0  0  0  0  0  0  0  0  0  0
  2  1  1  1
  2  3  1  0
  3  4  1  0
  4  8  1  0
  5  4  2  0
  6  2  1  0
  7  6  2  0
  9 10  1  0
 10 12  1  0
 10 11  2  0
 12 13  1  0
 14 13  1  1
 14 15  1  0
 15  6  1  0
 16 17  2  0
 16 14  1  0
 18 19  1  0
 19 20  2  0
 21 19  1  0
 21 22  1  0
 23 22  1  6
 23 24  1  0
 24 16  1  0
 25 23  1  0
 26 25  2  0
 27 25  1  0
M  END
$$$$
