DQQ.pdb
     RDKit          3D

 27 26  0  0  1  0  0  0  0  0999 V2000
   13.2843  -10.2554   -9.8158 N   0  0  0  0  0  0  0  0  0  0  0  0
   14.6763  -10.1827  -10.1113 C   0  0  1  0  0  0  0  0  0  0  0  0
   15.0397  -11.0106  -11.3499 C   0  0  0  0  0  0  0  0  0  0  0  0
   14.7635  -12.4333  -11.1163 C   0  0  0  0  0  0  0  0  0  0  0  0
   14.9712  -12.9223   -9.9864 O   0  0  0  0  0  0  0  0  0  0  0  0
   15.1200   -8.7841  -10.4195 C   0  0  0  0  0  0  0  0  0  0  0  0
   14.2800   -7.8776  -10.6612 O   0  0  0  0  0  0  0  0  0  0  0  0
   14.2795  -13.2121  -12.1425 O   0  0  0  0  0  0  0  0  0  0  0  0
   14.6185   -4.6840   -7.9029 N   0  0  0  0  0  0  0  0  0  0  0  0
   15.6577   -4.0037   -8.5876 C   0  0  0  0  0  0  0  0  0  0  0  0
   15.8095   -2.7693   -8.3068 O   0  0  0  0  0  0  0  0  0  0  0  0
   16.5083   -4.7144   -9.5650 C   0  0  0  0  0  0  0  0  0  0  0  0
   16.1758   -6.1404   -9.6580 C   0  0  0  0  0  0  0  0  0  0  0  0
   16.9202   -7.0137  -10.6032 C   0  0  2  0  0  0  0  0  0  0  0  0
   16.4822   -8.4076  -10.4562 N   0  0  0  0  0  0  0  0  0  0  0  0
   18.3440   -6.8699  -10.7579 C   0  0  0  0  0  0  0  0  0  0  0  0
   19.1359   -7.2146   -9.8438 O   0  0  0  0  0  0  0  0  0  0  0  0
   21.5056   -8.6142  -15.5997 N   0  0  0  0  0  0  0  0  0  0  0  0
   20.7998   -9.3005  -14.5702 C   0  0  0  0  0  0  0  0  0  0  0  0
   20.5243  -10.5252  -14.7045 O   0  0  0  0  0  0  0  0  0  0  0  0
   20.3893   -8.5729  -13.3396 C   0  0  0  0  0  0  0  0  0  0  0  0
   20.8279   -7.1496  -13.3153 C   0  0  0  0  0  0  0  0  0  0  0  0
   20.3959   -6.3541  -12.1294 C   0  0  2  0  0  0  0  0  0  0  0  0
   18.9587   -6.3332  -11.9377 N   0  0  0  0  0  0  0  0  0  0  0  0
   20.7840   -4.9243  -12.4299 C   0  0  0  0  0  0  0  0  0  0  0  0
   21.9899   -4.5829  -12.4024 O   0  0  0  0  0  0  0  0  0  0  0  0
   19.8523   -3.9488  -12.7416 O   0  0  0  0  0  0  0  0  0  0  0  0
  2  1  1  6
  2  3  1  0
  3  4  1  0
  4  8  1  0
  5  4  2  0
  6  2  1  0
  7  6  2  0
  9 10  1  0
 10 12  1  0
 10 11  2  0
 12 13  1  0
 14 13  1  1
 14 15  1  0
 15  6  1  0
 16 17  2  0
 16 14  1  0
 18 19  1  0
 19 20  2  0
 21 19  1  0
 21 22  1  0
 23 22  1  6
 23 24  1  0
 24 16  1  0
 25 23  1  0
 26 25  2  0
 27 25  1  0
M  END
$$$$
