DQQ.pdb
     RDKit          3D

 27 26  0  0  1  0  0  0  0  0999 V2000
   14.7864  -11.6461  -13.9720 N   0  0  0  0  0  0  0  0  0  0  0  0
   14.7848  -10.3097  -14.4664 C   0  0  1  0  0  0  0  0  0  0  0  0
   13.3603   -9.7762  -14.6614 C   0  0  0  0  0  0  0  0  0  0  0  0
   12.6462  -10.5727  -15.6665 C   0  0  0  0  0  0  0  0  0  0  0  0
   13.0425  -10.5667  -16.8505 O   0  0  0  0  0  0  0  0  0  0  0  0
   15.4455   -9.3524  -13.5203 C   0  0  0  0  0  0  0  0  0  0  0  0
   15.1043   -9.3010  -12.3093 O   0  0  0  0  0  0  0  0  0  0  0  0
   11.5495  -11.3164  -15.2949 O   0  0  0  0  0  0  0  0  0  0  0  0
   21.1347   -7.1848  -14.5291 N   0  0  0  0  0  0  0  0  0  0  0  0
   20.8659   -6.5088  -13.3116 C   0  0  0  0  0  0  0  0  0  0  0  0
   21.8246   -5.8305  -12.8153 O   0  0  0  0  0  0  0  0  0  0  0  0
   19.5342   -6.5984  -12.6773 C   0  0  0  0  0  0  0  0  0  0  0  0
   18.6271   -7.4874  -13.4120 C   0  0  0  0  0  0  0  0  0  0  0  0
   17.2106   -7.6200  -12.9806 C   0  0  2  0  0  0  0  0  0  0  0  0
   16.4715   -8.4678  -13.9246 N   0  0  0  0  0  0  0  0  0  0  0  0
   16.4727   -6.4638  -12.5439 C   0  0  0  0  0  0  0  0  0  0  0  0
   15.9274   -5.6894  -13.3711 O   0  0  0  0  0  0  0  0  0  0  0  0
   13.0217   -2.9573   -6.8657 N   0  0  0  0  0  0  0  0  0  0  0  0
   13.6829   -4.0428   -7.5087 C   0  0  0  0  0  0  0  0  0  0  0  0
   13.7980   -5.1507   -6.9146 O   0  0  0  0  0  0  0  0  0  0  0  0
   14.2358   -3.8686   -8.8785 C   0  0  0  0  0  0  0  0  0  0  0  0
   14.9774   -5.0604   -9.3771 C   0  0  0  0  0  0  0  0  0  0  0  0
   15.5315   -4.9530  -10.7582 C   0  0  2  0  0  0  0  0  0  0  0  0
   16.3055   -6.1102  -11.1638 N   0  0  0  0  0  0  0  0  0  0  0  0
   16.5133   -3.8041  -10.7189 C   0  0  0  0  0  0  0  0  0  0  0  0
   16.1026   -2.6346  -10.5317 O   0  0  0  0  0  0  0  0  0  0  0  0
   17.8763   -3.9825  -10.8834 O   0  0  0  0  0  0  0  0  0  0  0  0
  2  1  1  1
  2  3  1  0
  3  4  1  0
  4  8  1  0
  5  4  2  0
  6  2  1  0
  7  6  2  0
  9 10  1  0
 10 12  1  0
 10 11  2  0
 12 13  1  0
 14 13  1  6
 14 15  1  0
 15  6  1  0
 16 17  2  0
 16 14  1  0
 18 19  1  0
 19 20  2  0
 21 19  1  0
 21 22  1  0
 23 22  1  1
 23 24  1  0
 24 16  1  0
 25 23  1  0
 26 25  2  0
 27 25  1  0
M  END
$$$$
