ENL.pdb
     RDKit          3D

 26 25  0  0  1  0  0  0  0  0999 V2000
   17.1246  -11.9774  -14.4610 N   0  0  0  0  0  0  0  0  0  0  0  0
   17.4731  -11.6745  -15.8368 C   0  0  1  0  0  0  0  0  0  0  0  0
   16.4349  -12.1198  -16.8219 C   0  0  0  0  0  0  0  0  0  0  0  0
   15.9943  -13.5356  -16.6893 C   0  0  0  0  0  0  0  0  0  0  0  0
   15.2613  -13.8444  -15.4425 C   0  0  0  0  0  0  0  0  0  0  0  0
   14.2305  -13.2335  -15.0548 O   0  0  0  0  0  0  0  0  0  0  0  0
   17.7799  -10.2343  -15.9545 C   0  0  0  0  0  0  0  0  0  0  0  0
   18.2020   -9.7771  -17.0441 O   0  0  0  0  0  0  0  0  0  0  0  0
   15.6892  -14.8765  -14.5864 O   0  0  0  0  0  0  0  0  0  0  0  0
   15.9979   -6.7657  -16.7551 N   0  0  0  0  0  0  0  0  0  0  0  0
   15.8880   -6.5336  -15.3584 C   0  0  0  0  0  0  0  0  0  0  0  0
   14.9074   -5.8464  -14.9543 O   0  0  0  0  0  0  0  0  0  0  0  0
   16.8678   -7.0648  -14.4074 C   0  0  0  0  0  0  0  0  0  0  0  0
   17.9542   -7.9060  -15.0331 C   0  0  2  0  0  0  0  0  0  0  0  0
   17.6233   -9.3051  -14.8826 N   0  0  0  0  0  0  0  0  0  0  0  0
   19.2179   -7.5743  -14.3239 C   0  0  0  0  0  0  0  0  0  0  0  0
   19.3738   -7.7310  -13.0910 O   0  0  0  0  0  0  0  0  0  0  0  0
   24.1364   -9.3125  -15.6504 C   0  0  0  0  0  0  0  0  0  0  0  0
   22.8725   -8.8904  -14.8837 C   0  0  1  0  0  0  0  0  0  0  0  0
   22.9354   -9.4836  -13.5254 C   0  0  0  0  0  0  0  0  0  0  0  0
   22.7729   -7.4277  -15.0015 C   0  0  0  0  0  0  0  0  0  0  0  0
   21.5942   -6.7455  -14.4124 C   0  0  2  0  0  0  0  0  0  0  0  0
   20.3298   -7.0489  -15.0520 N   0  0  0  0  0  0  0  0  0  0  0  0
   21.7783   -5.2811  -14.2434 C   0  0  0  0  0  0  0  0  0  0  0  0
   22.5056   -4.7451  -13.1938 O   0  0  0  0  0  0  0  0  0  0  0  0
   21.2653   -4.4853  -15.0689 O   0  0  0  0  0  0  0  0  0  0  0  0
  2  1  1  1
  3  2  1  0
  4  3  1  0
  5  4  1  0
  5  6  2  0
  7  2  1  0
  7  8  2  0
  9  5  1  0
 10 11  1  0
 11 12  2  0
 14 13  1  1
 13 11  1  0
 14 15  1  0
 15  7  1  0
 16 14  1  0
 17 16  2  0
 19 18  1  6
 19 21  1  0
 20 19  1  0
 22 21  1  6
 22 24  1  0
 22 23  1  0
 23 16  1  0
 24 25  1  0
 26 24  2  0
M  END
$$$$
