ENL.pdb
     RDKit          3D

 26 25  0  0  1  0  0  0  0  0999 V2000
   25.6358  -22.0138  -12.9355 N   0  0  0  0  0  0  0  0  0  0  0  0
   26.1261  -21.4865  -14.1955 C   0  0  1  0  0  0  0  0  0  0  0  0
   26.9974  -22.4512  -14.9417 C   0  0  0  0  0  0  0  0  0  0  0  0
   26.4968  -23.8522  -14.9976 C   0  0  0  0  0  0  0  0  0  0  0  0
   27.3895  -24.8040  -15.6934 C   0  0  0  0  0  0  0  0  0  0  0  0
   28.4742  -24.4848  -16.2479 O   0  0  0  0  0  0  0  0  0  0  0  0
   24.9821  -21.0191  -15.0047 C   0  0  0  0  0  0  0  0  0  0  0  0
   25.1826  -20.5592  -16.1549 O   0  0  0  0  0  0  0  0  0  0  0  0
   27.0662  -26.1713  -15.7789 O   0  0  0  0  0  0  0  0  0  0  0  0
   22.5849  -23.3720  -15.0174 N   0  0  0  0  0  0  0  0  0  0  0  0
   21.3663  -22.6807  -14.7846 C   0  0  0  0  0  0  0  0  0  0  0  0
   20.3658  -23.3629  -14.4234 O   0  0  0  0  0  0  0  0  0  0  0  0
   21.2571  -21.2294  -14.9526 C   0  0  0  0  0  0  0  0  0  0  0  0
   22.5420  -20.5482  -15.3578 C   0  0  2  0  0  0  0  0  0  0  0  0
   23.6290  -21.0576  -14.5524 N   0  0  0  0  0  0  0  0  0  0  0  0
   22.3460  -19.0915  -15.1348 C   0  0  0  0  0  0  0  0  0  0  0  0
   21.5419  -18.6287  -14.2933 O   0  0  0  0  0  0  0  0  0  0  0  0
   25.2770  -14.0598  -15.0295 C   0  0  0  0  0  0  0  0  0  0  0  0
   24.1232  -14.4622  -15.9624 C   0  0  1  0  0  0  0  0  0  0  0  0
   24.2196  -13.6447  -17.1967 C   0  0  0  0  0  0  0  0  0  0  0  0
   24.1717  -15.9266  -16.0908 C   0  0  0  0  0  0  0  0  0  0  0  0
   22.9870  -16.7166  -15.6737 C   0  0  2  0  0  0  0  0  0  0  0  0
   23.0940  -18.1439  -15.8997 N   0  0  0  0  0  0  0  0  0  0  0  0
   21.7025  -16.1807  -16.1933 C   0  0  0  0  0  0  0  0  0  0  0  0
   20.9760  -15.2173  -15.5136 O   0  0  0  0  0  0  0  0  0  0  0  0
   21.2426  -16.6020  -17.2837 O   0  0  0  0  0  0  0  0  0  0  0  0
  2  1  1  1
  3  2  1  0
  4  3  1  0
  5  4  1  0
  5  6  2  0
  7  2  1  0
  7  8  2  0
  9  5  1  0
 10 11  1  0
 11 12  2  0
 14 13  1  1
 13 11  1  0
 14 15  1  0
 15  7  1  0
 16 14  1  0
 17 16  2  0
 19 18  1  1
 19 21  1  0
 20 19  1  0
 22 21  1  6
 22 24  1  0
 22 23  1  0
 23 16  1  0
 24 25  1  0
 26 24  2  0
M  END
$$$$
