ENL.pdb
     RDKit          3D

 26 25  0  0  1  0  0  0  0  0999 V2000
   18.0999  -12.2319  -14.9983 N   0  0  0  0  0  0  0  0  0  0  0  0
   17.7962  -11.1119  -15.8697 C   0  0  1  0  0  0  0  0  0  0  0  0
   16.4258  -11.1858  -16.4724 C   0  0  0  0  0  0  0  0  0  0  0  0
   15.9682  -12.5504  -16.8530 C   0  0  0  0  0  0  0  0  0  0  0  0
   14.5990  -12.6147  -17.4081 C   0  0  0  0  0  0  0  0  0  0  0  0
   14.0275  -13.6779  -17.7671 O   0  0  0  0  0  0  0  0  0  0  0  0
   18.0208   -9.8500  -15.1353 C   0  0  0  0  0  0  0  0  0  0  0  0
   17.9320   -8.7552  -15.7417 O   0  0  0  0  0  0  0  0  0  0  0  0
   13.8280  -11.4488  -17.5732 O   0  0  0  0  0  0  0  0  0  0  0  0
   15.8027   -9.0035  -12.1999 N   0  0  0  0  0  0  0  0  0  0  0  0
   16.8356   -9.0270  -11.2254 C   0  0  0  0  0  0  0  0  0  0  0  0
   16.5106   -9.2955  -10.0341 O   0  0  0  0  0  0  0  0  0  0  0  0
   18.2320   -8.7521  -11.5729 C   0  0  0  0  0  0  0  0  0  0  0  0
   18.4789   -8.5357  -13.0465 C   0  0  2  0  0  0  0  0  0  0  0  0
   18.3403   -9.7934  -13.7454 N   0  0  0  0  0  0  0  0  0  0  0  0
   19.8589   -7.9984  -13.1775 C   0  0  0  0  0  0  0  0  0  0  0  0
   20.8704   -8.7277  -13.2946 O   0  0  0  0  0  0  0  0  0  0  0  0
   23.5163   -7.1153  -16.5226 C   0  0  0  0  0  0  0  0  0  0  0  0
   22.9134   -5.9867  -15.6705 C   0  0  1  0  0  0  0  0  0  0  0  0
   22.7785   -4.7823  -16.5262 C   0  0  0  0  0  0  0  0  0  0  0  0
   21.7022   -6.5321  -15.0389 C   0  0  0  0  0  0  0  0  0  0  0  0
   21.2842   -5.9946  -13.7206 C   0  0  2  0  0  0  0  0  0  0  0  0
   20.0799   -6.5864  -13.1735 N   0  0  0  0  0  0  0  0  0  0  0  0
   21.2277   -4.5108  -13.6746 C   0  0  0  0  0  0  0  0  0  0  0  0
   22.3446   -3.7379  -13.4045 O   0  0  0  0  0  0  0  0  0  0  0  0
   20.1404   -3.9179  -13.8849 O   0  0  0  0  0  0  0  0  0  0  0  0
  2  1  1  1
  3  2  1  0
  4  3  1  0
  5  4  1  0
  5  6  2  0
  7  2  1  0
  7  8  2  0
  9  5  1  0
 10 11  1  0
 11 12  2  0
 14 13  1  1
 13 11  1  0
 14 15  1  0
 15  7  1  0
 16 14  1  0
 17 16  2  0
 19 18  1  6
 19 21  1  0
 20 19  1  0
 22 21  1  6
 22 24  1  0
 22 23  1  0
 23 16  1  0
 24 25  1  0
 26 24  2  0
M  END
$$$$
