ENL.pdb
     RDKit          3D

 26 25  0  0  1  0  0  0  0  0999 V2000
   16.1364  -25.0642   -7.5816 N   0  0  0  0  0  0  0  0  0  0  0  0
   14.7948  -24.9744   -7.0356 C   0  0  1  0  0  0  0  0  0  0  0  0
   14.1739  -26.3123   -6.7686 C   0  0  0  0  0  0  0  0  0  0  0  0
   12.7859  -26.2764   -6.2316 C   0  0  0  0  0  0  0  0  0  0  0  0
   11.7212  -26.3712   -7.2537 C   0  0  0  0  0  0  0  0  0  0  0  0
   10.5355  -25.9829   -7.0822 O   0  0  0  0  0  0  0  0  0  0  0  0
   14.8153  -24.1138   -5.8352 C   0  0  0  0  0  0  0  0  0  0  0  0
   15.8714  -24.0078   -5.1660 O   0  0  0  0  0  0  0  0  0  0  0  0
   11.9815  -26.9209   -8.5231 O   0  0  0  0  0  0  0  0  0  0  0  0
   11.7263  -19.5284   -5.7257 N   0  0  0  0  0  0  0  0  0  0  0  0
   12.7997  -20.3802   -5.3525 C   0  0  0  0  0  0  0  0  0  0  0  0
   13.9218  -20.1821   -5.8991 O   0  0  0  0  0  0  0  0  0  0  0  0
   12.6284  -21.4540   -4.3707 C   0  0  0  0  0  0  0  0  0  0  0  0
   13.7847  -22.4217   -4.2941 C   0  0  2  0  0  0  0  0  0  0  0  0
   13.6836  -23.3759   -5.3752 N   0  0  0  0  0  0  0  0  0  0  0  0
   13.6944  -23.0967   -2.9726 C   0  0  0  0  0  0  0  0  0  0  0  0
   13.0046  -24.1228   -2.7725 O   0  0  0  0  0  0  0  0  0  0  0  0
   16.2864  -25.0229    1.4352 C   0  0  0  0  0  0  0  0  0  0  0  0
   15.5853  -23.6672    1.6197 C   0  0  1  0  0  0  0  0  0  0  0  0
   16.2518  -22.9494    2.7339 C   0  0  0  0  0  0  0  0  0  0  0  0
   15.5509  -23.0234    0.2977 C   0  0  0  0  0  0  0  0  0  0  0  0
   14.3356  -23.1815   -0.5388 C   0  0  2  0  0  0  0  0  0  0  0  0
   14.4161  -22.5776   -1.8535 N   0  0  0  0  0  0  0  0  0  0  0  0
   13.0808  -22.7978    0.1577 C   0  0  0  0  0  0  0  0  0  0  0  0
   12.3116  -23.7167    0.8519 O   0  0  0  0  0  0  0  0  0  0  0  0
   12.6867  -21.6054    0.1283 O   0  0  0  0  0  0  0  0  0  0  0  0
  2  1  1  1
  3  2  1  0
  4  3  1  0
  5  4  1  0
  5  6  2  0
  7  2  1  0
  7  8  2  0
  9  5  1  0
 10 11  1  0
 11 12  2  0
 14 13  1  6
 13 11  1  0
 14 15  1  0
 15  7  1  0
 16 14  1  0
 17 16  2  0
 19 18  1  6
 19 21  1  0
 20 19  1  0
 22 21  1  1
 22 24  1  0
 22 23  1  0
 23 16  1  0
 24 25  1  0
 26 24  2  0
M  END
$$$$
