ENL.pdb
     RDKit          3D

 26 25  0  0  1  0  0  0  0  0999 V2000
   21.2296  -15.7403  -16.9806 N   0  0  0  0  0  0  0  0  0  0  0  0
   22.5740  -15.2385  -17.1965 C   0  0  1  0  0  0  0  0  0  0  0  0
   23.3223  -15.9883  -18.2569 C   0  0  0  0  0  0  0  0  0  0  0  0
   22.5434  -16.3043  -19.4856 C   0  0  0  0  0  0  0  0  0  0  0  0
   23.3248  -16.9329  -20.5725 C   0  0  0  0  0  0  0  0  0  0  0  0
   23.2539  -18.1507  -20.8855 O   0  0  0  0  0  0  0  0  0  0  0  0
   22.5132  -13.7879  -17.4693 C   0  0  0  0  0  0  0  0  0  0  0  0
   23.5649  -13.1659  -17.7549 O   0  0  0  0  0  0  0  0  0  0  0  0
   24.2255  -16.1787  -21.3478 O   0  0  0  0  0  0  0  0  0  0  0  0
   18.0846  -12.3176  -19.6324 N   0  0  0  0  0  0  0  0  0  0  0  0
   19.4100  -11.8372  -19.4613 C   0  0  0  0  0  0  0  0  0  0  0  0
   20.1975  -11.9282  -20.4456 O   0  0  0  0  0  0  0  0  0  0  0  0
   19.8634  -11.2545  -18.1959 C   0  0  0  0  0  0  0  0  0  0  0  0
   21.2710  -11.6324  -17.8020 C   0  0  2  0  0  0  0  0  0  0  0  0
   21.3056  -13.0284  -17.4285 N   0  0  0  0  0  0  0  0  0  0  0  0
   21.6463  -10.7613  -16.6573 C   0  0  0  0  0  0  0  0  0  0  0  0
   21.2376  -10.9506  -15.4886 O   0  0  0  0  0  0  0  0  0  0  0  0
   26.7067   -9.9739  -15.6062 C   0  0  0  0  0  0  0  0  0  0  0  0
   25.1950  -10.2219  -15.4768 C   0  0  1  0  0  0  0  0  0  0  0  0
   24.9559  -10.9800  -14.2242 C   0  0  0  0  0  0  0  0  0  0  0  0
   24.5352   -8.9173  -15.6385 C   0  0  0  0  0  0  0  0  0  0  0  0
   23.0569   -8.8782  -15.7595 C   0  0  2  0  0  0  0  0  0  0  0  0
   22.5138   -9.6442  -16.8631 N   0  0  0  0  0  0  0  0  0  0  0  0
   22.4940   -7.5039  -15.7251 C   0  0  0  0  0  0  0  0  0  0  0  0
   22.4939   -6.7351  -14.5732 O   0  0  0  0  0  0  0  0  0  0  0  0
   21.9967   -7.0038  -16.7647 O   0  0  0  0  0  0  0  0  0  0  0  0
  2  1  1  6
  3  2  1  0
  4  3  1  0
  5  4  1  0
  5  6  2  0
  7  2  1  0
  7  8  2  0
  9  5  1  0
 10 11  1  0
 11 12  2  0
 14 13  1  1
 13 11  1  0
 14 15  1  0
 15  7  1  0
 16 14  1  0
 17 16  2  0
 19 18  1  1
 19 21  1  0
 20 19  1  0
 22 21  1  6
 22 24  1  0
 22 23  1  0
 23 16  1  0
 24 25  1  0
 26 24  2  0
M  END
$$$$
