ENL.pdb
     RDKit          3D

 26 25  0  0  1  0  0  0  0  0999 V2000
   26.7457  -18.8319  -15.7617 N   0  0  0  0  0  0  0  0  0  0  0  0
   27.1013  -19.8065  -14.7469 C   0  0  1  0  0  0  0  0  0  0  0  0
   28.5714  -19.8500  -14.4576 C   0  0  0  0  0  0  0  0  0  0  0  0
   29.3932  -20.6096  -15.4394 C   0  0  0  0  0  0  0  0  0  0  0  0
   28.8853  -21.9605  -15.7620 C   0  0  0  0  0  0  0  0  0  0  0  0
   27.7936  -22.1877  -16.3474 O   0  0  0  0  0  0  0  0  0  0  0  0
   26.2958  -19.5603  -13.5334 C   0  0  0  0  0  0  0  0  0  0  0  0
   26.2836  -18.4160  -13.0186 O   0  0  0  0  0  0  0  0  0  0  0  0
   29.6196  -23.1119  -15.4210 O   0  0  0  0  0  0  0  0  0  0  0  0
   22.9604  -19.2768  -13.6750 N   0  0  0  0  0  0  0  0  0  0  0  0
   22.5213  -20.3460  -12.8497 C   0  0  0  0  0  0  0  0  0  0  0  0
   21.3509  -20.7855  -13.0341 O   0  0  0  0  0  0  0  0  0  0  0  0
   23.3822  -20.9293  -11.8177 C   0  0  0  0  0  0  0  0  0  0  0  0
   24.7422  -20.2844  -11.6998 C   0  0  2  0  0  0  0  0  0  0  0  0
   25.5104  -20.5645  -12.8918 N   0  0  0  0  0  0  0  0  0  0  0  0
   25.3909  -20.8649  -10.4947 C   0  0  0  0  0  0  0  0  0  0  0  0
   25.8948  -22.0114  -10.4724 O   0  0  0  0  0  0  0  0  0  0  0  0
   28.2721  -18.3837   -6.1604 C   0  0  0  0  0  0  0  0  0  0  0  0
   27.9142  -19.3819   -7.2734 C   0  0  1  0  0  0  0  0  0  0  0  0
   28.9345  -20.4589   -7.2749 C   0  0  0  0  0  0  0  0  0  0  0  0
   26.5061  -19.7563   -7.0716 C   0  0  0  0  0  0  0  0  0  0  0  0
   25.8766  -20.6986   -8.0293 C   0  0  2  0  0  0  0  0  0  0  0  0
   25.4613  -20.1069   -9.2852 N   0  0  0  0  0  0  0  0  0  0  0  0
   24.7909  -21.5172   -7.4309 C   0  0  0  0  0  0  0  0  0  0  0  0
   25.0434  -22.5100   -6.4990 O   0  0  0  0  0  0  0  0  0  0  0  0
   23.5972  -21.3181   -7.7677 O   0  0  0  0  0  0  0  0  0  0  0  0
  2  1  1  6
  3  2  1  0
  4  3  1  0
  5  4  1  0
  5  6  2  0
  7  2  1  0
  7  8  2  0
  9  5  1  0
 10 11  1  0
 11 12  2  0
 14 13  1  6
 13 11  1  0
 14 15  1  0
 15  7  1  0
 16 14  1  0
 17 16  2  0
 19 18  1  1
 19 21  1  0
 20 19  1  0
 22 21  1  1
 22 24  1  0
 22 23  1  0
 23 16  1  0
 24 25  1  0
 26 24  2  0
M  END
$$$$
