ENL.pdb
     RDKit          3D

 26 25  0  0  1  0  0  0  0  0999 V2000
   16.9008  -12.9040  -18.3309 N   0  0  0  0  0  0  0  0  0  0  0  0
   16.5039  -11.5096  -18.3957 C   0  0  1  0  0  0  0  0  0  0  0  0
   15.4677  -11.1415  -17.3772 C   0  0  0  0  0  0  0  0  0  0  0  0
   15.8459  -11.3974  -15.9602 C   0  0  0  0  0  0  0  0  0  0  0  0
   16.0681  -10.1823  -15.1469 C   0  0  0  0  0  0  0  0  0  0  0  0
   17.1972   -9.6664  -14.9349 O   0  0  0  0  0  0  0  0  0  0  0  0
   17.7072  -10.6573  -18.3080 C   0  0  0  0  0  0  0  0  0  0  0  0
   18.8450  -11.1812  -18.3810 O   0  0  0  0  0  0  0  0  0  0  0  0
   14.9911   -9.5082  -14.5412 O   0  0  0  0  0  0  0  0  0  0  0  0
   19.4767   -4.8722  -19.3065 N   0  0  0  0  0  0  0  0  0  0  0  0
   19.5713   -6.0439  -18.5096 C   0  0  0  0  0  0  0  0  0  0  0  0
   20.6677   -6.2651  -17.9213 O   0  0  0  0  0  0  0  0  0  0  0  0
   18.4474   -6.9725  -18.3647 C   0  0  0  0  0  0  0  0  0  0  0  0
   18.8471   -8.4223  -18.2319 C   0  0  2  0  0  0  0  0  0  0  0  0
   17.6589   -9.2406  -18.1417 N   0  0  0  0  0  0  0  0  0  0  0  0
   19.6684   -8.5311  -16.9975 C   0  0  0  0  0  0  0  0  0  0  0  0
   19.1794   -8.5106  -15.8445 O   0  0  0  0  0  0  0  0  0  0  0  0
   23.3713  -10.4564  -13.7974 C   0  0  0  0  0  0  0  0  0  0  0  0
   24.0722   -9.7010  -14.9382 C   0  0  1  0  0  0  0  0  0  0  0  0
   25.3859  -10.3458  -15.1817 C   0  0  0  0  0  0  0  0  0  0  0  0
   23.1140   -9.6294  -16.0518 C   0  0  0  0  0  0  0  0  0  0  0  0
   21.9344   -8.7391  -15.9187 C   0  0  2  0  0  0  0  0  0  0  0  0
   21.0879   -8.6669  -17.0926 N   0  0  0  0  0  0  0  0  0  0  0  0
   22.2668   -7.3849  -15.4064 C   0  0  0  0  0  0  0  0  0  0  0  0
   22.7240   -6.3740  -16.2353 O   0  0  0  0  0  0  0  0  0  0  0  0
   22.1357   -7.1274  -14.1839 O   0  0  0  0  0  0  0  0  0  0  0  0
  2  1  1  1
  3  2  1  0
  4  3  1  0
  5  4  1  0
  5  6  2  0
  7  2  1  0
  7  8  2  0
  9  5  1  0
 10 11  1  0
 11 12  2  0
 14 13  1  1
 13 11  1  0
 14 15  1  0
 15  7  1  0
 16 14  1  0
 17 16  2  0
 19 18  1  1
 19 21  1  0
 20 19  1  0
 22 21  1  6
 22 24  1  0
 22 23  1  0
 23 16  1  0
 24 25  1  0
 26 24  2  0
M  END
$$$$
