ENL.pdb
     RDKit          3D

 26 25  0  0  1  0  0  0  0  0999 V2000
   15.8617  -13.0615  -18.7028 N   0  0  0  0  0  0  0  0  0  0  0  0
   16.0302  -12.3002  -17.4789 C   0  0  1  0  0  0  0  0  0  0  0  0
   16.2975  -13.1590  -16.2799 C   0  0  0  0  0  0  0  0  0  0  0  0
   15.2081  -14.1068  -15.9177 C   0  0  0  0  0  0  0  0  0  0  0  0
   15.4312  -14.8612  -14.6654 C   0  0  0  0  0  0  0  0  0  0  0  0
   15.0395  -14.4838  -13.5296 O   0  0  0  0  0  0  0  0  0  0  0  0
   17.0762  -11.2772  -17.6831 C   0  0  0  0  0  0  0  0  0  0  0  0
   18.0068  -11.4954  -18.4960 O   0  0  0  0  0  0  0  0  0  0  0  0
   16.1194  -16.0890  -14.6713 O   0  0  0  0  0  0  0  0  0  0  0  0
   15.3262   -6.8215  -18.2088 N   0  0  0  0  0  0  0  0  0  0  0  0
   16.6153   -7.3914  -18.3834 C   0  0  0  0  0  0  0  0  0  0  0  0
   16.9807   -7.6632  -19.5623 O   0  0  0  0  0  0  0  0  0  0  0  0
   17.5013   -7.6605  -17.2481 C   0  0  0  0  0  0  0  0  0  0  0  0
   18.1221   -9.0367  -17.2516 C   0  0  2  0  0  0  0  0  0  0  0  0
   17.0979  -10.0250  -16.9988 N   0  0  0  0  0  0  0  0  0  0  0  0
   19.1532   -9.0466  -16.1807 C   0  0  0  0  0  0  0  0  0  0  0  0
   18.8742   -9.0215  -14.9599 O   0  0  0  0  0  0  0  0  0  0  0  0
   23.6004  -10.6203  -13.8227 C   0  0  0  0  0  0  0  0  0  0  0  0
   23.9908   -9.7133  -15.0010 C   0  0  1  0  0  0  0  0  0  0  0  0
   25.3182  -10.1489  -15.5003 C   0  0  0  0  0  0  0  0  0  0  0  0
   22.8568   -9.7219  -15.9376 C   0  0  0  0  0  0  0  0  0  0  0  0
   21.5819   -9.0904  -15.5165 C   0  0  2  0  0  0  0  0  0  0  0  0
   20.5400   -9.0865  -16.5236 N   0  0  0  0  0  0  0  0  0  0  0  0
   21.7565   -7.7444  -14.9125 C   0  0  0  0  0  0  0  0  0  0  0  0
   21.8122   -6.5928  -15.6798 O   0  0  0  0  0  0  0  0  0  0  0  0
   21.8590   -7.6249  -13.6662 O   0  0  0  0  0  0  0  0  0  0  0  0
  2  1  1  6
  3  2  1  0
  4  3  1  0
  5  4  1  0
  5  6  2  0
  7  2  1  0
  7  8  2  0
  9  5  1  0
 10 11  1  0
 11 12  2  0
 14 13  1  1
 13 11  1  0
 14 15  1  0
 15  7  1  0
 16 14  1  0
 17 16  2  0
 19 18  1  1
 19 21  1  0
 20 19  1  0
 22 21  1  6
 22 24  1  0
 22 23  1  0
 23 16  1  0
 24 25  1  0
 26 24  2  0
M  END
$$$$
