ENL.pdb
     RDKit          3D

 26 25  0  0  1  0  0  0  0  0999 V2000
   16.3316  -10.5883  -14.4664 N   0  0  0  0  0  0  0  0  0  0  0  0
   16.9313   -9.7926  -15.5215 C   0  0  1  0  0  0  0  0  0  0  0  0
   16.0038   -8.7565  -16.0810 C   0  0  0  0  0  0  0  0  0  0  0  0
   14.7720   -9.2851  -16.7287 C   0  0  0  0  0  0  0  0  0  0  0  0
   13.5547   -9.2257  -15.8911 C   0  0  0  0  0  0  0  0  0  0  0  0
   13.2344  -10.0977  -15.0409 O   0  0  0  0  0  0  0  0  0  0  0  0
   18.1966   -9.2092  -15.0306 C   0  0  0  0  0  0  0  0  0  0  0  0
   18.2978   -8.8713  -13.8265 O   0  0  0  0  0  0  0  0  0  0  0  0
   12.6513   -8.1517  -16.0000 O   0  0  0  0  0  0  0  0  0  0  0  0
   22.5022   -9.8354  -13.7989 N   0  0  0  0  0  0  0  0  0  0  0  0
   22.6436   -9.8059  -15.2117 C   0  0  0  0  0  0  0  0  0  0  0  0
   23.5808  -10.4838  -15.7207 O   0  0  0  0  0  0  0  0  0  0  0  0
   21.7435   -9.0228  -16.0620 C   0  0  0  0  0  0  0  0  0  0  0  0
   20.5612   -8.4253  -15.3379 C   0  0  2  0  0  0  0  0  0  0  0  0
   19.3407   -8.9998  -15.8577 N   0  0  0  0  0  0  0  0  0  0  0  0
   20.6073   -6.9585  -15.5753 C   0  0  0  0  0  0  0  0  0  0  0  0
   20.0216   -6.3998  -16.5312 O   0  0  0  0  0  0  0  0  0  0  0  0
   20.2543   -2.2619  -16.4221 C   0  0  0  0  0  0  0  0  0  0  0  0
   19.7600   -2.6498  -15.0190 C   0  0  1  0  0  0  0  0  0  0  0  0
   18.4079   -2.0698  -14.8280 C   0  0  0  0  0  0  0  0  0  0  0  0
   19.9160   -4.1076  -14.9017 C   0  0  0  0  0  0  0  0  0  0  0  0
   21.2838   -4.6685  -14.7754 C   0  0  2  0  0  0  0  0  0  0  0  0
   21.3461   -6.1137  -14.6904 N   0  0  0  0  0  0  0  0  0  0  0  0
   22.0925   -4.0276  -13.7066 C   0  0  0  0  0  0  0  0  0  0  0  0
   22.6761   -2.7823  -13.8692 O   0  0  0  0  0  0  0  0  0  0  0  0
   22.2649   -4.6182  -12.6113 O   0  0  0  0  0  0  0  0  0  0  0  0
  2  1  1  1
  3  2  1  0
  4  3  1  0
  5  4  1  0
  5  6  2  0
  7  2  1  0
  7  8  2  0
  9  5  1  0
 10 11  1  0
 11 12  2  0
 14 13  1  6
 13 11  1  0
 14 15  1  0
 15  7  1  0
 16 14  1  0
 17 16  2  0
 19 18  1  6
 19 21  1  0
 20 19  1  0
 22 21  1  1
 22 24  1  0
 22 23  1  0
 23 16  1  0
 24 25  1  0
 26 24  2  0
M  END
$$$$
