ENL.pdb
     RDKit          3D

 26 25  0  0  1  0  0  0  0  0999 V2000
   28.5011  -21.3505  -14.5211 N   0  0  0  0  0  0  0  0  0  0  0  0
   28.3725  -19.9191  -14.3194 C   0  0  1  0  0  0  0  0  0  0  0  0
   28.1212  -19.1629  -15.5889 C   0  0  0  0  0  0  0  0  0  0  0  0
   27.0676  -19.7321  -16.4734 C   0  0  0  0  0  0  0  0  0  0  0  0
   26.8445  -18.9889  -17.7324 C   0  0  0  0  0  0  0  0  0  0  0  0
   27.4949  -17.9677  -18.0790 O   0  0  0  0  0  0  0  0  0  0  0  0
   27.3368  -19.6635  -13.2976 C   0  0  0  0  0  0  0  0  0  0  0  0
   27.0946  -18.4851  -12.9412 O   0  0  0  0  0  0  0  0  0  0  0  0
   25.8565  -19.3952  -18.6489 O   0  0  0  0  0  0  0  0  0  0  0  0
   22.1018  -19.8635  -12.8632 N   0  0  0  0  0  0  0  0  0  0  0  0
   23.4816  -20.1361  -13.0603 C   0  0  0  0  0  0  0  0  0  0  0  0
   24.0434  -19.6164  -14.0659 O   0  0  0  0  0  0  0  0  0  0  0  0
   24.2402  -20.9869  -12.1399 C   0  0  0  0  0  0  0  0  0  0  0  0
   25.5570  -20.4020  -11.6890 C   0  0  2  0  0  0  0  0  0  0  0  0
   26.5740  -20.6958  -12.6735 N   0  0  0  0  0  0  0  0  0  0  0  0
   25.8806  -21.0281  -10.3801 C   0  0  0  0  0  0  0  0  0  0  0  0
   26.0913  -22.2549  -10.2402 O   0  0  0  0  0  0  0  0  0  0  0  0
   28.3096  -18.4679   -5.9274 C   0  0  0  0  0  0  0  0  0  0  0  0
   28.0439  -19.5909   -6.9431 C   0  0  1  0  0  0  0  0  0  0  0  0
   29.0423  -20.6648   -6.7174 C   0  0  0  0  0  0  0  0  0  0  0  0
   26.6172  -19.9319   -6.8357 C   0  0  0  0  0  0  0  0  0  0  0  0
   26.0137  -20.8015   -7.8756 C   0  0  2  0  0  0  0  0  0  0  0  0
   25.9636  -20.2221   -9.2028 N   0  0  0  0  0  0  0  0  0  0  0  0
   24.6992  -21.3720   -7.4836 C   0  0  0  0  0  0  0  0  0  0  0  0
   24.5713  -22.2944   -6.4585 O   0  0  0  0  0  0  0  0  0  0  0  0
   23.6569  -21.0193   -8.0894 O   0  0  0  0  0  0  0  0  0  0  0  0
  2  1  1  6
  3  2  1  0
  4  3  1  0
  5  4  1  0
  5  6  2  0
  7  2  1  0
  7  8  2  0
  9  5  1  0
 10 11  1  0
 11 12  2  0
 14 13  1  6
 13 11  1  0
 14 15  1  0
 15  7  1  0
 16 14  1  0
 17 16  2  0
 19 18  1  1
 19 21  1  0
 20 19  1  0
 22 21  1  1
 22 24  1  0
 22 23  1  0
 23 16  1  0
 24 25  1  0
 26 24  2  0
M  END
$$$$
