GTD.pdb
     RDKit          3D

 20 19  0  0  1  0  0  0  0  0999 V2000
    8.4466  -15.3502   13.8687 N   0  0  0  0  0  0  0  0  0  0  0  0
    8.0770  -15.6206   15.2171 C   0  0  0  0  0  0  0  0  0  0  0  0
    8.9059  -14.7495   16.1162 C   0  0  0  0  0  0  0  0  0  0  0  0
    9.8682  -14.0718   15.6707 O   0  0  0  0  0  0  0  0  0  0  0  0
    7.4487  -12.5656   19.0328 C   0  0  0  0  0  0  0  0  0  0  0  0
    8.6195  -13.3557   19.5830 C   0  0  1  0  0  0  0  0  0  0  0  0
    8.0743  -14.3992   20.3452 O   0  0  0  0  0  0  0  0  0  0  0  0
    9.4360  -13.9041   18.4294 C   0  0  2  0  0  0  0  0  0  0  0  0
    8.6351  -14.6559   17.5091 N   0  0  0  0  0  0  0  0  0  0  0  0
   10.5593  -14.7378   18.9254 C   0  0  0  0  0  0  0  0  0  0  0  0
   10.5542  -16.0058   18.7723 O   0  0  0  0  0  0  0  0  0  0  0  0
   11.6853  -14.1970   19.5864 N   0  0  0  0  0  0  0  0  0  0  0  0
   12.7911  -15.0678   20.0761 C   0  0  1  0  0  0  0  0  0  0  0  0
   14.0361  -14.2539   19.9720 C   0  0  0  0  0  0  0  0  0  0  0  0
   15.2207  -14.9477   20.4859 C   0  0  0  0  0  0  0  0  0  0  0  0
   16.0235  -14.3689   21.2379 O   0  0  0  0  0  0  0  0  0  0  0  0
   12.4519  -15.5002   21.4580 C   0  0  0  0  0  0  0  0  0  0  0  0
   11.2868  -14.9707   22.0352 O   0  0  0  0  0  0  0  0  0  0  0  0
   15.4953  -16.2686   20.1582 O   0  0  0  0  0  0  0  0  0  0  0  0
   13.1317  -16.2961   22.1288 O   0  0  0  0  0  0  0  0  0  0  0  0
  2  1  1  0
  3  2  1  0
  4  3  2  0
  6  5  1  6
  6  8  1  0
  7  6  1  0
  8  9  1  6
  9  3  1  0
 10 11  2  0
 10  8  1  0
 12 10  1  0
 13 12  1  0
 13 14  1  1
 15 16  2  0
 15 14  1  0
 17 13  1  0
 18 17  1  0
 19 15  1  0
 20 17  2  0
M  END
$$$$
