GTD.pdb
     RDKit          3D

 20 19  0  0  1  0  0  0  0  0999 V2000
   -0.9931  -29.2971   26.4996 N   0  0  0  0  0  0  0  0  0  0  0  0
   -2.3766  -29.1216   26.2110 C   0  0  0  0  0  0  0  0  0  0  0  0
   -2.6733  -27.6498   26.2057 C   0  0  0  0  0  0  0  0  0  0  0  0
   -1.8615  -26.8134   26.6803 O   0  0  0  0  0  0  0  0  0  0  0  0
   -3.2678  -25.5766   23.3150 C   0  0  0  0  0  0  0  0  0  0  0  0
   -4.4845  -25.2940   24.1739 C   0  0  1  0  0  0  0  0  0  0  0  0
   -5.5447  -26.0242   23.6174 O   0  0  0  0  0  0  0  0  0  0  0  0
   -4.2077  -25.7478   25.5938 C   0  0  2  0  0  0  0  0  0  0  0  0
   -3.8859  -27.1425   25.6628 N   0  0  0  0  0  0  0  0  0  0  0  0
   -5.3599  -25.4468   26.4795 C   0  0  0  0  0  0  0  0  0  0  0  0
   -6.2354  -26.3382   26.7448 O   0  0  0  0  0  0  0  0  0  0  0  0
   -5.5622  -24.1816   27.0756 N   0  0  0  0  0  0  0  0  0  0  0  0
   -6.7375  -23.9147   27.9523 C   0  0  1  0  0  0  0  0  0  0  0  0
   -6.3405  -22.7890   28.8458 C   0  0  0  0  0  0  0  0  0  0  0  0
   -7.4186  -22.3579   29.7404 C   0  0  0  0  0  0  0  0  0  0  0  0
   -7.9981  -23.1716   30.4802 O   0  0  0  0  0  0  0  0  0  0  0  0
   -7.9026  -23.6232   27.0751 C   0  0  0  0  0  0  0  0  0  0  0  0
   -9.1807  -23.6892   27.6520 O   0  0  0  0  0  0  0  0  0  0  0  0
   -7.8359  -21.0350   29.7999 O   0  0  0  0  0  0  0  0  0  0  0  0
   -7.8148  -23.3268   25.8710 O   0  0  0  0  0  0  0  0  0  0  0  0
  2  1  1  0
  3  2  1  0
  4  3  2  0
  6  5  1  6
  6  8  1  0
  7  6  1  0
  8  9  1  6
  9  3  1  0
 10 11  2  0
 10  8  1  0
 12 10  1  0
 13 12  1  0
 13 14  1  1
 15 16  2  0
 15 14  1  0
 17 13  1  0
 18 17  1  0
 19 15  1  0
 20 17  2  0
M  END
$$$$
