GTD.pdb
     RDKit          3D

 20 19  0  0  1  0  0  0  0  0999 V2000
    8.3318  -16.4889   14.1915 N   0  0  0  0  0  0  0  0  0  0  0  0
    7.4885  -15.9355   15.1968 C   0  0  0  0  0  0  0  0  0  0  0  0
    8.3527  -15.4730   16.3341 C   0  0  0  0  0  0  0  0  0  0  0  0
    9.5894  -15.7046   16.3568 O   0  0  0  0  0  0  0  0  0  0  0  0
    6.5791  -13.6297   19.8298 C   0  0  0  0  0  0  0  0  0  0  0  0
    7.8907  -13.1271   19.2597 C   0  0  1  0  0  0  0  0  0  0  0  0
    8.6602  -12.6942   20.3495 O   0  0  0  0  0  0  0  0  0  0  0  0
    8.5837  -14.2615   18.5307 C   0  0  2  0  0  0  0  0  0  0  0  0
    7.8061  -14.7535   17.4323 N   0  0  0  0  0  0  0  0  0  0  0  0
    8.9066  -15.3704   19.4628 C   0  0  0  0  0  0  0  0  0  0  0  0
    8.0873  -16.3325   19.6486 O   0  0  0  0  0  0  0  0  0  0  0  0
   10.1153  -15.4351   20.1923 N   0  0  0  0  0  0  0  0  0  0  0  0
   10.4314  -16.5967   21.0707 C   0  0  1  0  0  0  0  0  0  0  0  0
   11.6388  -17.2443   20.4824 C   0  0  0  0  0  0  0  0  0  0  0  0
   12.1119  -18.3924   21.2611 C   0  0  0  0  0  0  0  0  0  0  0  0
   11.3116  -19.2233   21.7241 O   0  0  0  0  0  0  0  0  0  0  0  0
   10.6203  -16.0832   22.4536 C   0  0  0  0  0  0  0  0  0  0  0  0
   10.8011  -17.0276   23.4766 O   0  0  0  0  0  0  0  0  0  0  0  0
   13.4613  -18.6001   21.5136 O   0  0  0  0  0  0  0  0  0  0  0  0
   10.6276  -14.8778   22.7574 O   0  0  0  0  0  0  0  0  0  0  0  0
  2  1  1  0
  3  2  1  0
  4  3  2  0
  6  5  1  1
  6  8  1  0
  7  6  1  0
  8  9  1  6
  9  3  1  0
 10 11  2  0
 10  8  1  0
 12 10  1  0
 13 12  1  0
 13 14  1  6
 15 16  2  0
 15 14  1  0
 17 13  1  0
 18 17  1  0
 19 15  1  0
 20 17  2  0
M  END
$$$$
