GTD.pdb
     RDKit          3D

 20 19  0  0  1  0  0  0  0  0999 V2000
    8.7515  -15.5956   14.7912 N   0  0  0  0  0  0  0  0  0  0  0  0
    8.1356  -15.8829   16.0427 C   0  0  0  0  0  0  0  0  0  0  0  0
    8.8694  -15.1276   17.1128 C   0  0  0  0  0  0  0  0  0  0  0  0
    9.9367  -14.5080   16.8664 O   0  0  0  0  0  0  0  0  0  0  0  0
    7.2637  -12.7466   19.6572 C   0  0  0  0  0  0  0  0  0  0  0  0
    8.1148  -13.7114   20.4589 C   0  0  1  0  0  0  0  0  0  0  0  0
    7.2310  -14.6213   21.0573 O   0  0  0  0  0  0  0  0  0  0  0  0
    9.0702  -14.4272   19.5244 C   0  0  2  0  0  0  0  0  0  0  0  0
    8.3859  -15.0828   18.4494 N   0  0  0  0  0  0  0  0  0  0  0  0
    9.9046  -15.4040   20.2674 C   0  0  0  0  0  0  0  0  0  0  0  0
    9.7230  -16.6610   20.1318 O   0  0  0  0  0  0  0  0  0  0  0  0
   10.9336  -15.0181   21.1560 N   0  0  0  0  0  0  0  0  0  0  0  0
   11.7271  -16.0282   21.9116 C   0  0  1  0  0  0  0  0  0  0  0  0
   13.1174  -15.4939   21.9825 C   0  0  0  0  0  0  0  0  0  0  0  0
   14.0387  -16.3828   22.6963 C   0  0  0  0  0  0  0  0  0  0  0  0
   14.0610  -17.6028   22.4593 O   0  0  0  0  0  0  0  0  0  0  0  0
   11.0743  -16.2237   23.2334 C   0  0  0  0  0  0  0  0  0  0  0  0
   11.4479  -17.3522   23.9803 O   0  0  0  0  0  0  0  0  0  0  0  0
   14.9181  -15.9058   23.6591 O   0  0  0  0  0  0  0  0  0  0  0  0
   10.2241  -15.4547   23.7143 O   0  0  0  0  0  0  0  0  0  0  0  0
  2  1  1  0
  3  2  1  0
  4  3  2  0
  6  5  1  6
  6  8  1  0
  7  6  1  0
  8  9  1  6
  9  3  1  0
 10 11  2  0
 10  8  1  0
 12 10  1  0
 13 12  1  0
 13 14  1  1
 15 16  2  0
 15 14  1  0
 17 13  1  0
 18 17  1  0
 19 15  1  0
 20 17  2  0
M  END
$$$$
