GTD.pdb
     RDKit          3D

 20 19  0  0  1  0  0  0  0  0999 V2000
    6.0039  -18.7020   18.6442 N   0  0  0  0  0  0  0  0  0  0  0  0
    5.9191  -18.1532   19.9556 C   0  0  0  0  0  0  0  0  0  0  0  0
    7.1389  -17.3107   20.1930 C   0  0  0  0  0  0  0  0  0  0  0  0
    8.0632  -17.2370   19.3421 O   0  0  0  0  0  0  0  0  0  0  0  0
    7.1153  -13.7289   20.9793 C   0  0  0  0  0  0  0  0  0  0  0  0
    7.9983  -14.3145   22.0634 C   0  0  1  0  0  0  0  0  0  0  0  0
    7.2254  -14.3480   23.2333 O   0  0  0  0  0  0  0  0  0  0  0  0
    8.4211  -15.7133   21.6596 C   0  0  2  0  0  0  0  0  0  0  0  0
    7.2977  -16.5616   21.3913 N   0  0  0  0  0  0  0  0  0  0  0  0
    9.2847  -16.3259   22.6995 C   0  0  0  0  0  0  0  0  0  0  0  0
    8.7812  -17.0164   23.6488 O   0  0  0  0  0  0  0  0  0  0  0  0
   10.6912  -16.1894   22.7099 N   0  0  0  0  0  0  0  0  0  0  0  0
   11.5333  -16.8986   23.7144 C   0  0  1  0  0  0  0  0  0  0  0  0
   11.3935  -18.3534   23.4188 C   0  0  0  0  0  0  0  0  0  0  0  0
   12.2550  -19.1948   24.2544 C   0  0  0  0  0  0  0  0  0  0  0  0
   11.9867  -19.3925   25.4520 O   0  0  0  0  0  0  0  0  0  0  0  0
   12.9207  -16.3765   23.5950 C   0  0  0  0  0  0  0  0  0  0  0  0
   13.7952  -16.6088   24.6685 O   0  0  0  0  0  0  0  0  0  0  0  0
   13.3974  -19.8016   23.7501 O   0  0  0  0  0  0  0  0  0  0  0  0
   13.3507  -15.7514   22.6102 O   0  0  0  0  0  0  0  0  0  0  0  0
  2  1  1  0
  3  2  1  0
  4  3  2  0
  6  5  1  6
  6  8  1  0
  7  6  1  0
  8  9  1  1
  9  3  1  0
 10 11  2  0
 10  8  1  0
 12 10  1  0
 13 12  1  0
 13 14  1  6
 15 16  2  0
 15 14  1  0
 17 13  1  0
 18 17  1  0
 19 15  1  0
 20 17  2  0
M  END
$$$$
