GTD.pdb
     RDKit          3D

 20 19  0  0  1  0  0  0  0  0999 V2000
    8.7123  -15.3590   14.2561 N   0  0  0  0  0  0  0  0  0  0  0  0
    8.2383  -15.6795   15.5602 C   0  0  0  0  0  0  0  0  0  0  0  0
    9.0670  -14.9267   16.5605 C   0  0  0  0  0  0  0  0  0  0  0  0
   10.1533  -14.3802   16.2365 O   0  0  0  0  0  0  0  0  0  0  0  0
    7.6834  -12.3735   19.1623 C   0  0  0  0  0  0  0  0  0  0  0  0
    8.5294  -13.3857   19.9089 C   0  0  1  0  0  0  0  0  0  0  0  0
    7.6370  -14.2727   20.5285 O   0  0  0  0  0  0  0  0  0  0  0  0
    9.4155  -14.1190   18.9212 C   0  0  2  0  0  0  0  0  0  0  0  0
    8.6556  -14.8016   17.9161 N   0  0  0  0  0  0  0  0  0  0  0  0
   10.3090  -15.0755   19.6208 C   0  0  0  0  0  0  0  0  0  0  0  0
   10.0974  -16.3338   19.5651 O   0  0  0  0  0  0  0  0  0  0  0  0
   11.4294  -14.6676   20.3795 N   0  0  0  0  0  0  0  0  0  0  0  0
   12.3228  -15.6602   21.0411 C   0  0  1  0  0  0  0  0  0  0  0  0
   13.6920  -15.0707   21.0092 C   0  0  0  0  0  0  0  0  0  0  0  0
   14.2262  -14.9319   19.6513 C   0  0  0  0  0  0  0  0  0  0  0  0
   14.2212  -15.8922   18.8620 O   0  0  0  0  0  0  0  0  0  0  0  0
   11.7918  -15.9106   22.4075 C   0  0  0  0  0  0  0  0  0  0  0  0
   12.4145  -16.9103   23.1716 O   0  0  0  0  0  0  0  0  0  0  0  0
   14.7563  -13.7338   19.1917 O   0  0  0  0  0  0  0  0  0  0  0  0
   10.8372  -15.2937   22.9110 O   0  0  0  0  0  0  0  0  0  0  0  0
  2  1  1  0
  3  2  1  0
  4  3  2  0
  6  5  1  6
  6  8  1  0
  7  6  1  0
  8  9  1  6
  9  3  1  0
 10 11  2  0
 10  8  1  0
 12 10  1  0
 13 12  1  0
 13 14  1  1
 15 16  2  0
 15 14  1  0
 17 13  1  0
 18 17  1  0
 19 15  1  0
 20 17  2  0
M  END
$$$$
