GTD.pdb
     RDKit          3D

 20 19  0  0  1  0  0  0  0  0999 V2000
    9.1944  -17.4277   17.4268 N   0  0  0  0  0  0  0  0  0  0  0  0
    8.4687  -17.5593   18.6450 C   0  0  0  0  0  0  0  0  0  0  0  0
    9.0760  -16.6317   19.6574 C   0  0  0  0  0  0  0  0  0  0  0  0
   10.1735  -16.0537   19.4448 O   0  0  0  0  0  0  0  0  0  0  0  0
    7.2557  -13.7896   21.5594 C   0  0  0  0  0  0  0  0  0  0  0  0
    7.9158  -14.6805   22.5930 C   0  0  1  0  0  0  0  0  0  0  0  0
    6.9037  -15.4927   23.1251 O   0  0  0  0  0  0  0  0  0  0  0  0
    8.9799  -15.5229   21.9174 C   0  0  2  0  0  0  0  0  0  0  0  0
    8.4333  -16.3695   20.8986 N   0  0  0  0  0  0  0  0  0  0  0  0
    9.7208  -16.3374   22.9126 C   0  0  0  0  0  0  0  0  0  0  0  0
    9.4340  -17.5679   23.0992 O   0  0  0  0  0  0  0  0  0  0  0  0
   10.7702  -15.8178   23.7039 N   0  0  0  0  0  0  0  0  0  0  0  0
   11.4969  -16.6699   24.6872 C   0  0  1  0  0  0  0  0  0  0  0  0
   12.8639  -16.0871   24.8094 C   0  0  0  0  0  0  0  0  0  0  0  0
   13.6585  -16.2246   23.5854 C   0  0  0  0  0  0  0  0  0  0  0  0
   13.5532  -17.2326   22.8656 O   0  0  0  0  0  0  0  0  0  0  0  0
   10.7140  -16.6742   25.9517 C   0  0  0  0  0  0  0  0  0  0  0  0
    9.6098  -15.8111   26.0333 O   0  0  0  0  0  0  0  0  0  0  0  0
   14.5549  -15.2448   23.1803 O   0  0  0  0  0  0  0  0  0  0  0  0
   10.9755  -17.3900   26.9339 O   0  0  0  0  0  0  0  0  0  0  0  0
  2  1  1  0
  3  2  1  0
  4  3  2  0
  6  5  1  6
  6  8  1  0
  7  6  1  0
  8  9  1  6
  9  3  1  0
 10 11  2  0
 10  8  1  0
 12 10  1  0
 13 12  1  0
 13 14  1  1
 15 16  2  0
 15 14  1  0
 17 13  1  0
 18 17  1  0
 19 15  1  0
 20 17  2  0
M  END
$$$$
