GTD.pdb
     RDKit          3D

 20 19  0  0  1  0  0  0  0  0999 V2000
   10.9094  -19.2679   17.2103 N   0  0  0  0  0  0  0  0  0  0  0  0
   11.3359  -19.6248   18.5213 C   0  0  0  0  0  0  0  0  0  0  0  0
   11.6718  -18.3652   19.2662 C   0  0  0  0  0  0  0  0  0  0  0  0
   12.1886  -17.3755   18.6854 O   0  0  0  0  0  0  0  0  0  0  0  0
    9.4447  -16.2295   21.4216 C   0  0  0  0  0  0  0  0  0  0  0  0
   10.6135  -16.6176   22.3055 C   0  0  1  0  0  0  0  0  0  0  0  0
   10.1617  -17.6571   23.1315 O   0  0  0  0  0  0  0  0  0  0  0  0
   11.7626  -17.0855   21.4343 C   0  0  2  0  0  0  0  0  0  0  0  0
   11.4185  -18.2412   20.6600 N   0  0  0  0  0  0  0  0  0  0  0  0
   12.9689  -17.3623   22.2533 C   0  0  0  0  0  0  0  0  0  0  0  0
   13.2882  -18.5577   22.5701 O   0  0  0  0  0  0  0  0  0  0  0  0
   13.8266  -16.3444   22.7282 N   0  0  0  0  0  0  0  0  0  0  0  0
   14.9677  -16.6509   23.6365 C   0  0  1  0  0  0  0  0  0  0  0  0
   15.8404  -15.4419   23.6274 C   0  0  0  0  0  0  0  0  0  0  0  0
   17.2391  -15.7407   23.9480 C   0  0  0  0  0  0  0  0  0  0  0  0
   17.5370  -16.3794   24.9720 O   0  0  0  0  0  0  0  0  0  0  0  0
   14.4076  -16.9961   24.9702 C   0  0  0  0  0  0  0  0  0  0  0  0
   15.0303  -18.0304   25.6867 O   0  0  0  0  0  0  0  0  0  0  0  0
   18.2823  -15.3274   23.1304 O   0  0  0  0  0  0  0  0  0  0  0  0
   13.4287  -16.4292   25.4859 O   0  0  0  0  0  0  0  0  0  0  0  0
  2  1  1  0
  3  2  1  0
  4  3  2  0
  6  5  1  6
  6  8  1  0
  7  6  1  0
  8  9  1  1
  9  3  1  0
 10 11  2  0
 10  8  1  0
 12 10  1  0
 13 12  1  0
 13 14  1  1
 15 16  2  0
 15 14  1  0
 17 13  1  0
 18 17  1  0
 19 15  1  0
 20 17  2  0
M  END
$$$$
