GAE.pdb
     RDKit          3D

 19 18  0  0  1  0  0  0  0  0999 V2000
    8.3513  -17.6883   16.6895 N   0  0  0  0  0  0  0  0  0  0  0  0
    7.8406  -16.8364   17.7516 C   0  0  0  0  0  0  0  0  0  0  0  0
    8.5353  -15.5207   17.7616 C   0  0  0  0  0  0  0  0  0  0  0  0
    9.5440  -15.4116   17.0117 O   0  0  0  0  0  0  0  0  0  0  0  0
    8.0080  -12.1390   19.3386 C   0  0  0  0  0  0  0  0  0  0  0  0
    8.7956  -13.2122   18.5750 C   0  0  2  0  0  0  0  0  0  0  0  0
    8.0782  -14.4557   18.5744 N   0  0  0  0  0  0  0  0  0  0  0  0
   10.0655  -13.4118   19.3516 C   0  0  0  0  0  0  0  0  0  0  0  0
   10.9184  -12.4843   19.2899 O   0  0  0  0  0  0  0  0  0  0  0  0
   10.3059  -14.5640   20.1110 N   0  0  0  0  0  0  0  0  0  0  0  0
   11.6096  -14.7083   20.7984 C   0  0  1  0  0  0  0  0  0  0  0  0
   11.4474  -15.6322   21.9471 C   0  0  0  0  0  0  0  0  0  0  0  0
   12.7009  -15.9418   22.6752 C   0  0  0  0  0  0  0  0  0  0  0  0
   12.4845  -16.8996   23.7745 C   0  0  0  0  0  0  0  0  0  0  0  0
   12.3613  -16.4803   24.9686 O   0  0  0  0  0  0  0  0  0  0  0  0
   12.6597  -15.0197   19.8517 C   0  0  0  0  0  0  0  0  0  0  0  0
   13.8605  -14.7209   20.0677 O   0  0  0  0  0  0  0  0  0  0  0  0
   12.4066  -18.2651   23.5698 O   0  0  0  0  0  0  0  0  0  0  0  0
   12.3708  -15.6671   18.6585 O   0  0  0  0  0  0  0  0  0  0  0  0
  2  1  1  0
  3  2  1  0
  4  3  2  0
  6  5  1  1
  6  7  1  0
  7  3  1  0
  8 10  1  0
  8  6  1  0
  9  8  2  0
 11 16  1  0
 11 10  1  0
 11 12  1  1
 12 13  1  0
 13 14  1  0
 14 18  1  0
 15 14  2  0
 16 19  1  0
 17 16  2  0
M  END
$$$$
