GAE.pdb
     RDKit          3D

 19 18  0  0  1  0  0  0  0  0999 V2000
    8.2684  -16.9475   16.6327 N   0  0  0  0  0  0  0  0  0  0  0  0
    7.3794  -16.0991   17.4102 C   0  0  0  0  0  0  0  0  0  0  0  0
    8.1081  -15.4481   18.5321 C   0  0  0  0  0  0  0  0  0  0  0  0
    9.2268  -15.9441   18.8391 O   0  0  0  0  0  0  0  0  0  0  0  0
    7.5917  -12.4634   20.7810 C   0  0  0  0  0  0  0  0  0  0  0  0
    8.3110  -13.7205   20.2737 C   0  0  2  0  0  0  0  0  0  0  0  0
    7.5637  -14.3316   19.2110 N   0  0  0  0  0  0  0  0  0  0  0  0
    8.3276  -14.6736   21.4341 C   0  0  0  0  0  0  0  0  0  0  0  0
    7.2946  -15.3776   21.6031 O   0  0  0  0  0  0  0  0  0  0  0  0
    9.4270  -14.7869   22.2948 N   0  0  0  0  0  0  0  0  0  0  0  0
    9.3925  -15.8061   23.3686 C   0  0  1  0  0  0  0  0  0  0  0  0
   10.7259  -16.4481   23.4646 C   0  0  0  0  0  0  0  0  0  0  0  0
   11.1819  -17.1181   22.2235 C   0  0  0  0  0  0  0  0  0  0  0  0
   12.6400  -17.3337   22.2105 C   0  0  0  0  0  0  0  0  0  0  0  0
   13.1376  -18.2756   21.5163 O   0  0  0  0  0  0  0  0  0  0  0  0
    8.8442  -15.2514   24.5882 C   0  0  0  0  0  0  0  0  0  0  0  0
    8.5878  -14.0273   24.7061 O   0  0  0  0  0  0  0  0  0  0  0  0
   13.5173  -16.5452   22.9324 O   0  0  0  0  0  0  0  0  0  0  0  0
    8.5802  -16.0641   25.6819 O   0  0  0  0  0  0  0  0  0  0  0  0
  2  1  1  0
  3  2  1  0
  4  3  2  0
  6  5  1  1
  6  7  1  0
  7  3  1  0
  8 10  1  0
  8  6  1  0
  9  8  2  0
 11 16  1  0
 11 10  1  0
 11 12  1  1
 12 13  1  0
 13 14  1  0
 14 18  1  0
 15 14  2  0
 16 19  1  0
 17 16  2  0
M  END
$$$$
