GAE.pdb
     RDKit          3D

 19 18  0  0  1  0  0  0  0  0999 V2000
    8.4627  -17.0109   16.7124 N   0  0  0  0  0  0  0  0  0  0  0  0
    7.4991  -16.2766   17.5168 C   0  0  0  0  0  0  0  0  0  0  0  0
    8.1625  -15.6130   18.6715 C   0  0  0  0  0  0  0  0  0  0  0  0
    9.2295  -16.1424   19.0873 O   0  0  0  0  0  0  0  0  0  0  0  0
    7.5385  -12.5843   20.8350 C   0  0  0  0  0  0  0  0  0  0  0  0
    8.2766  -13.8537   20.3892 C   0  0  2  0  0  0  0  0  0  0  0  0
    7.6148  -14.4495   19.2630 N   0  0  0  0  0  0  0  0  0  0  0  0
    8.1737  -14.8086   21.5437 C   0  0  0  0  0  0  0  0  0  0  0  0
    7.0566  -15.3683   21.7174 O   0  0  0  0  0  0  0  0  0  0  0  0
    9.2544  -15.0750   22.3941 N   0  0  0  0  0  0  0  0  0  0  0  0
    9.0676  -16.0303   23.5102 C   0  0  1  0  0  0  0  0  0  0  0  0
    9.7670  -17.2961   23.1812 C   0  0  0  0  0  0  0  0  0  0  0  0
   11.2296  -17.1621   22.9814 C   0  0  0  0  0  0  0  0  0  0  0  0
   11.9061  -18.4704   22.9244 C   0  0  0  0  0  0  0  0  0  0  0  0
   11.2296  -19.5416   23.0323 O   0  0  0  0  0  0  0  0  0  0  0  0
    9.3950  -15.4124   24.7778 C   0  0  0  0  0  0  0  0  0  0  0  0
    9.1707  -15.9832   25.8740 O   0  0  0  0  0  0  0  0  0  0  0  0
   13.2729  -18.5969   22.7558 O   0  0  0  0  0  0  0  0  0  0  0  0
    9.9751  -14.1524   24.8245 O   0  0  0  0  0  0  0  0  0  0  0  0
  2  1  1  0
  3  2  1  0
  4  3  2  0
  6  5  1  1
  6  7  1  0
  7  3  1  0
  8 10  1  0
  8  6  1  0
  9  8  2  0
 11 16  1  0
 11 10  1  0
 11 12  1  6
 12 13  1  0
 13 14  1  0
 14 18  1  0
 15 14  2  0
 16 19  1  0
 17 16  2  0
M  END
$$$$
