GAE.pdb
     RDKit          3D

 19 18  0  0  1  0  0  0  0  0999 V2000
    3.1061  -20.7436   22.5527 N   0  0  0  0  0  0  0  0  0  0  0  0
    3.8118  -19.5185   22.2127 C   0  0  0  0  0  0  0  0  0  0  0  0
    5.2852  -19.7160   22.2750 C   0  0  0  0  0  0  0  0  0  0  0  0
    5.6882  -20.7657   22.8473 O   0  0  0  0  0  0  0  0  0  0  0  0
    8.3397  -18.1594   20.7651 C   0  0  0  0  0  0  0  0  0  0  0  0
    7.5919  -18.9889   21.8176 C   0  0  2  0  0  0  0  0  0  0  0  0
    6.1768  -18.7684   21.7174 N   0  0  0  0  0  0  0  0  0  0  0  0
    8.0485  -18.4620   23.1477 C   0  0  0  0  0  0  0  0  0  0  0  0
    7.4213  -17.4693   23.6088 O   0  0  0  0  0  0  0  0  0  0  0  0
    9.1155  -19.0328   23.8533 N   0  0  0  0  0  0  0  0  0  0  0  0
    9.4247  -18.5306   25.2117 C   0  0  1  0  0  0  0  0  0  0  0  0
    8.2332  -18.7157   26.0752 C   0  0  0  0  0  0  0  0  0  0  0  0
    8.0129  -20.1068   26.5373 C   0  0  0  0  0  0  0  0  0  0  0  0
    8.2440  -20.2558   27.9854 C   0  0  0  0  0  0  0  0  0  0  0  0
    7.2947  -20.0489   28.8057 O   0  0  0  0  0  0  0  0  0  0  0  0
   10.6735  -19.0822   25.6932 C   0  0  0  0  0  0  0  0  0  0  0  0
   11.1136  -20.1865   25.2874 O   0  0  0  0  0  0  0  0  0  0  0  0
    9.4705  -20.6178   28.5119 O   0  0  0  0  0  0  0  0  0  0  0  0
   11.4359  -18.4005   26.6315 O   0  0  0  0  0  0  0  0  0  0  0  0
  2  1  1  0
  3  2  1  0
  4  3  2  0
  6  5  1  6
  6  7  1  0
  7  3  1  0
  8 10  1  0
  8  6  1  0
  9  8  2  0
 11 16  1  0
 11 10  1  0
 11 12  1  1
 12 13  1  0
 13 14  1  0
 14 18  1  0
 15 14  2  0
 16 19  1  0
 17 16  2  0
M  END
$$$$
