GAE.pdb
     RDKit          3D

 19 18  0  0  1  0  0  0  0  0999 V2000
    8.3729  -13.5665   17.5594 N   0  0  0  0  0  0  0  0  0  0  0  0
    7.5610  -14.1403   18.6206 C   0  0  0  0  0  0  0  0  0  0  0  0
    8.2268  -13.9908   19.9427 C   0  0  0  0  0  0  0  0  0  0  0  0
    9.4633  -13.7405   19.9246 O   0  0  0  0  0  0  0  0  0  0  0  0
    7.1518  -13.7899   23.5420 C   0  0  0  0  0  0  0  0  0  0  0  0
    8.1711  -13.9227   22.4026 C   0  0  2  0  0  0  0  0  0  0  0  0
    7.4997  -14.1248   21.1498 N   0  0  0  0  0  0  0  0  0  0  0  0
    8.9612  -15.1627   22.7086 C   0  0  0  0  0  0  0  0  0  0  0  0
    8.5116  -16.2481   22.2491 O   0  0  0  0  0  0  0  0  0  0  0  0
   10.1400  -15.1323   23.4647 N   0  0  0  0  0  0  0  0  0  0  0  0
   10.8904  -16.3923   23.6704 C   0  0  1  0  0  0  0  0  0  0  0  0
   12.2801  -16.2083   23.1864 C   0  0  0  0  0  0  0  0  0  0  0  0
   13.1615  -17.3857   23.3708 C   0  0  0  0  0  0  0  0  0  0  0  0
   14.5485  -17.1143   22.9519 C   0  0  0  0  0  0  0  0  0  0  0  0
   15.2540  -16.2737   23.5941 O   0  0  0  0  0  0  0  0  0  0  0  0
   10.7281  -16.8733   25.0262 C   0  0  0  0  0  0  0  0  0  0  0  0
   10.2214  -16.1615   25.9286 O   0  0  0  0  0  0  0  0  0  0  0  0
   15.1372  -17.7419   21.8693 O   0  0  0  0  0  0  0  0  0  0  0  0
   11.1324  -18.1535   25.3785 O   0  0  0  0  0  0  0  0  0  0  0  0
  2  1  1  0
  3  2  1  0
  4  3  2  0
  6  5  1  1
  6  7  1  0
  7  3  1  0
  8 10  1  0
  8  6  1  0
  9  8  2  0
 11 16  1  0
 11 10  1  0
 11 12  1  1
 12 13  1  0
 13 14  1  0
 14 18  1  0
 15 14  2  0
 16 19  1  0
 17 16  2  0
M  END
$$$$
