GAE.pdb
     RDKit          3D

 19 18  0  0  1  0  0  0  0  0999 V2000
    8.5252  -17.0711   17.6889 N   0  0  0  0  0  0  0  0  0  0  0  0
    7.6150  -17.0356   18.8224 C   0  0  0  0  0  0  0  0  0  0  0  0
    8.2347  -16.3416   19.9834 C   0  0  0  0  0  0  0  0  0  0  0  0
    9.4922  -16.4004   20.0681 O   0  0  0  0  0  0  0  0  0  0  0  0
    7.0529  -14.0802   22.7586 C   0  0  0  0  0  0  0  0  0  0  0  0
    8.0875  -14.8909   21.9665 C   0  0  2  0  0  0  0  0  0  0  0  0
    7.4437  -15.6551   20.9357 N   0  0  0  0  0  0  0  0  0  0  0  0
    8.6863  -15.8546   22.9504 C   0  0  0  0  0  0  0  0  0  0  0  0
    8.0316  -16.9080   23.1809 O   0  0  0  0  0  0  0  0  0  0  0  0
    9.9092  -15.6107   23.5885 N   0  0  0  0  0  0  0  0  0  0  0  0
   10.4030  -16.5880   24.5856 C   0  0  1  0  0  0  0  0  0  0  0  0
   11.8846  -16.6245   24.5296 C   0  0  0  0  0  0  0  0  0  0  0  0
   12.4470  -16.9175   23.1899 C   0  0  0  0  0  0  0  0  0  0  0  0
   13.7710  -16.2999   22.9945 C   0  0  0  0  0  0  0  0  0  0  0  0
   14.6233  -16.3102   23.9380 O   0  0  0  0  0  0  0  0  0  0  0  0
    9.8030  -16.3499   25.8814 C   0  0  0  0  0  0  0  0  0  0  0  0
    9.2064  -15.2780   26.1517 O   0  0  0  0  0  0  0  0  0  0  0  0
   14.1441  -15.6943   21.8085 O   0  0  0  0  0  0  0  0  0  0  0  0
    9.8678  -17.3105   26.8811 O   0  0  0  0  0  0  0  0  0  0  0  0
  2  1  1  0
  3  2  1  0
  4  3  2  0
  6  5  1  1
  6  7  1  0
  7  3  1  0
  8 10  1  0
  8  6  1  0
  9  8  2  0
 11 16  1  0
 11 10  1  0
 11 12  1  1
 12 13  1  0
 13 14  1  0
 14 18  1  0
 15 14  2  0
 16 19  1  0
 17 16  2  0
M  END
$$$$
