GAE.pdb
     RDKit          3D

 19 18  0  0  1  0  0  0  0  0999 V2000
    9.1021  -15.8836   15.4794 N   0  0  0  0  0  0  0  0  0  0  0  0
    8.0610  -15.6387   16.4646 C   0  0  0  0  0  0  0  0  0  0  0  0
    8.6331  -15.0776   17.7182 C   0  0  0  0  0  0  0  0  0  0  0  0
    9.8284  -15.3864   17.9784 O   0  0  0  0  0  0  0  0  0  0  0  0
    7.4759  -12.7979   20.4934 C   0  0  0  0  0  0  0  0  0  0  0  0
    8.4455  -13.7529   19.7843 C   0  0  2  0  0  0  0  0  0  0  0  0
    7.8660  -14.2424   18.5654 N   0  0  0  0  0  0  0  0  0  0  0  0
    8.6182  -14.9191   20.7146 C   0  0  0  0  0  0  0  0  0  0  0  0
    8.0167  -15.9839   20.4052 O   0  0  0  0  0  0  0  0  0  0  0  0
    9.4040  -14.8443   21.8717 N   0  0  0  0  0  0  0  0  0  0  0  0
   10.0793  -16.0694   22.3580 C   0  0  1  0  0  0  0  0  0  0  0  0
   11.2534  -16.3455   21.4949 C   0  0  0  0  0  0  0  0  0  0  0  0
   11.3807  -17.7550   21.0542 C   0  0  0  0  0  0  0  0  0  0  0  0
   12.7342  -18.0635   20.5586 C   0  0  0  0  0  0  0  0  0  0  0  0
   13.7439  -17.4718   21.0556 O   0  0  0  0  0  0  0  0  0  0  0  0
   10.3188  -15.9945   23.7838 C   0  0  0  0  0  0  0  0  0  0  0  0
   10.8519  -16.9376   24.4195 O   0  0  0  0  0  0  0  0  0  0  0  0
   12.9691  -18.9863   19.5557 O   0  0  0  0  0  0  0  0  0  0  0  0
    9.9626  -14.8634   24.5050 O   0  0  0  0  0  0  0  0  0  0  0  0
  2  1  1  0
  3  2  1  0
  4  3  2  0
  6  5  1  1
  6  7  1  0
  7  3  1  0
  8 10  1  0
  8  6  1  0
  9  8  2  0
 11 16  1  0
 11 10  1  0
 11 12  1  6
 12 13  1  0
 13 14  1  0
 14 18  1  0
 15 14  2  0
 16 19  1  0
 17 16  2  0
M  END
$$$$
