RCR.pdb
     RDKit          3D

 29 28  0  0  1  0  0  0  0  0999 V2000
   -0.6519  -20.0741   22.8219 N   0  0  0  0  0  0  0  0  0  0  0  0
   -0.3013  -20.3073   21.4667 C   0  0  0  0  0  0  0  0  0  0  0  0
   -1.1231  -20.8906   20.6784 N   0  0  0  0  0  0  0  0  0  0  0  0
    0.9643  -19.9063   20.9359 N   0  0  0  0  0  0  0  0  0  0  0  0
    2.2020  -20.1845   21.6313 C   0  0  0  0  0  0  0  0  0  0  0  0
    2.0462  -19.8438   23.0784 C   0  0  0  0  0  0  0  0  0  0  0  0
    3.0406  -18.8605   23.5725 C   0  0  0  0  0  0  0  0  0  0  0  0
    4.4728  -19.2234   23.4464 C   0  0  2  0  0  0  0  0  0  0  0  0
    4.9397  -20.2847   24.2739 N   0  0  0  0  0  0  0  0  0  0  0  0
    5.2937  -17.9770   23.6112 C   0  0  0  0  0  0  0  0  0  0  0  0
    4.9374  -16.9598   22.9913 O   0  0  0  0  0  0  0  0  0  0  0  0
   -0.9755  -20.9580   19.6440 N   0  0  0  0  0  0  0  0  0  0  0  0
    6.4407  -17.9158   24.4335 C   0  0  1  0  0  0  0  0  0  0  0  0
    7.2986  -16.7618   24.5577 C   0  0  0  0  0  0  0  0  0  0  0  0
    7.4883  -16.3840   26.0054 S   0  0  0  0  0  0  0  0  0  0  0  0
    8.2374  -17.7141   26.9597 C   0  0  0  0  0  0  0  0  0  0  0  0
    8.6266  -17.0479   23.9544 O   0  0  0  0  0  0  0  0  0  0  0  0
    9.1516  -18.2061   24.0265 N   0  0  0  0  0  0  0  0  0  0  0  0
    6.7357  -13.5736   18.3774 C   0  0  0  0  0  0  0  0  0  0  0  0
    8.0003  -13.1024   18.7999 N   0  0  0  0  0  0  0  0  0  0  0  0
    8.1078  -11.8908   19.2202 N   0  0  0  0  0  0  0  0  0  0  0  0
    9.1156  -13.9787   18.7485 C   0  0  0  0  0  0  0  0  0  0  0  0
   10.0363  -13.9898   19.8524 C   0  0  0  0  0  0  0  0  0  0  0  0
   10.0970  -15.3969   20.4877 C   0  0  0  0  0  0  0  0  0  0  0  0
   11.0679  -15.3957   21.6364 C   0  0  2  0  0  0  0  0  0  0  0  0
   10.7287  -16.3513   22.7238 N   0  0  0  0  0  0  0  0  0  0  0  0
    9.3929  -16.0809   23.2697 C   0  0  0  0  0  0  0  0  0  0  0  0
   11.6744  -16.2328   23.8319 O   0  0  0  0  0  0  0  0  0  0  0  0
   11.2795  -15.8929   24.9686 O   0  0  0  0  0  0  0  0  0  0  0  0
  1  2  1  0
  2  4  1  0
  2  3  2  0
  4  5  1  0
  6  5  1  0
  7  6  1  0
  8  7  1  0
  8  9  1  1
 10  8  1  0
 10 12  1  0
 11 10  2  0
 13 16  1  0
 13 12  1  0
 13 14  1  1
 15 14  1  0
 16 17  2  0
 18 19  1  0
 19 21  1  0
 20 19  2  0
 21 22  1  0
 23 24  1  0
 23 22  1  0
 25 24  1  6
 25 27  1  0
 26 25  1  0
 26 16  1  0
 27 28  2  0
 27 29  1  0
M  END
$$$$
