RCR.pdb
     RDKit          3D

 29 28  0  0  1  0  0  0  0  0999 V2000
    9.9255  -14.7507   17.4715 N   0  0  0  0  0  0  0  0  0  0  0  0
    8.8773  -14.1469   16.7295 C   0  0  0  0  0  0  0  0  0  0  0  0
    8.6619  -14.4934   15.5169 N   0  0  0  0  0  0  0  0  0  0  0  0
    8.0329  -13.1428   17.2980 N   0  0  0  0  0  0  0  0  0  0  0  0
    7.9304  -12.9580   18.7291 C   0  0  0  0  0  0  0  0  0  0  0  0
    7.5929  -14.2628   19.3757 C   0  0  0  0  0  0  0  0  0  0  0  0
    8.3120  -14.5031   20.6504 C   0  0  0  0  0  0  0  0  0  0  0  0
    7.5059  -14.9631   21.8069 C   0  0  2  0  0  0  0  0  0  0  0  0
    6.1054  -14.7088   21.7527 N   0  0  0  0  0  0  0  0  0  0  0  0
    8.1286  -14.4247   23.0626 C   0  0  0  0  0  0  0  0  0  0  0  0
    9.3659  -14.4841   23.1700 O   0  0  0  0  0  0  0  0  0  0  0  0
    7.9755  -14.0057   14.8946 N   0  0  0  0  0  0  0  0  0  0  0  0
    7.3726  -13.8598   24.1137 C   0  0  1  0  0  0  0  0  0  0  0  0
    7.9236  -13.4135   25.3708 C   0  0  0  0  0  0  0  0  0  0  0  0
    7.0676  -12.3325   25.9816 S   0  0  0  0  0  0  0  0  0  0  0  0
    5.3779  -12.8855   26.2640 C   0  0  0  0  0  0  0  0  0  0  0  0
    8.0136  -14.5536   26.3202 O   0  0  0  0  0  0  0  0  0  0  0  0
    7.2267  -15.5514   26.2341 N   0  0  0  0  0  0  0  0  0  0  0  0
   15.0571  -18.4663   25.0627 C   0  0  0  0  0  0  0  0  0  0  0  0
   14.2284  -19.4777   25.6013 N   0  0  0  0  0  0  0  0  0  0  0  0
   14.5283  -20.7110   25.3889 N   0  0  0  0  0  0  0  0  0  0  0  0
   13.0891  -19.1044   26.3611 C   0  0  0  0  0  0  0  0  0  0  0  0
   12.4715  -17.8329   26.0999 C   0  0  0  0  0  0  0  0  0  0  0  0
   11.3844  -17.5360   27.1569 C   0  0  0  0  0  0  0  0  0  0  0  0
   10.6968  -16.2390   26.8300 C   0  0  2  0  0  0  0  0  0  0  0  0
    9.6168  -15.8638   27.7804 N   0  0  0  0  0  0  0  0  0  0  0  0
    8.9565  -14.6190   27.3680 C   0  0  0  0  0  0  0  0  0  0  0  0
   10.1594  -15.6359   29.1183 O   0  0  0  0  0  0  0  0  0  0  0  0
   10.2029  -14.4813   29.5965 O   0  0  0  0  0  0  0  0  0  0  0  0
  1  2  1  0
  2  4  1  0
  2  3  2  0
  4  5  1  0
  6  5  1  0
  7  6  1  0
  8  7  1  0
  8  9  1  6
 10  8  1  0
 10 12  1  0
 11 10  2  0
 13 16  1  0
 13 12  1  0
 13 14  1  1
 15 14  1  0
 16 17  2  0
 18 19  1  0
 19 21  1  0
 20 19  2  0
 21 22  1  0
 23 24  1  0
 23 22  1  0
 25 24  1  6
 25 27  1  0
 26 25  1  0
 26 16  1  0
 27 28  2  0
 27 29  1  0
M  END
$$$$
