RCR.pdb
     RDKit          3D

 29 28  0  0  1  0  0  0  0  0999 V2000
   11.3522  -16.7050   17.6694 N   0  0  0  0  0  0  0  0  0  0  0  0
   11.3195  -16.5730   16.2568 C   0  0  0  0  0  0  0  0  0  0  0  0
   12.4083  -16.5481   15.5854 N   0  0  0  0  0  0  0  0  0  0  0  0
   10.0882  -16.4643   15.5384 N   0  0  0  0  0  0  0  0  0  0  0  0
    8.8225  -16.3043   16.2205 C   0  0  0  0  0  0  0  0  0  0  0  0
    8.8149  -15.0022   16.9547 C   0  0  0  0  0  0  0  0  0  0  0  0
    7.5184  -14.6878   17.6027 C   0  0  0  0  0  0  0  0  0  0  0  0
    7.4549  -13.4591   18.4305 C   0  0  2  0  0  0  0  0  0  0  0  0
    7.8832  -12.2487   17.8136 N   0  0  0  0  0  0  0  0  0  0  0  0
    8.1760  -13.7198   19.7214 C   0  0  0  0  0  0  0  0  0  0  0  0
    9.3896  -13.4546   19.7735 O   0  0  0  0  0  0  0  0  0  0  0  0
   12.4360  -16.5174   14.5392 N   0  0  0  0  0  0  0  0  0  0  0  0
    7.5369  -14.2480   20.8652 C   0  0  2  0  0  0  0  0  0  0  0  0
    8.2018  -14.5433   22.1117 C   0  0  0  0  0  0  0  0  0  0  0  0
    7.2206  -15.0473   23.1402 S   0  0  0  0  0  0  0  0  0  0  0  0
    8.0181  -15.4234   24.7097 C   0  0  0  0  0  0  0  0  0  0  0  0
    9.2503  -15.5748   21.8971 O   0  0  0  0  0  0  0  0  0  0  0  0
    9.1432  -16.4468   20.9749 N   0  0  0  0  0  0  0  0  0  0  0  0
   16.1092  -13.2417   18.4244 C   0  0  0  0  0  0  0  0  0  0  0  0
   16.4076  -14.6198   18.5324 N   0  0  0  0  0  0  0  0  0  0  0  0
   17.3626  -15.1104   17.8229 N   0  0  0  0  0  0  0  0  0  0  0  0
   15.6456  -15.4233   19.4203 C   0  0  0  0  0  0  0  0  0  0  0  0
   14.4750  -14.8562   20.0323 C   0  0  0  0  0  0  0  0  0  0  0  0
   13.8101  -15.8838   20.9753 C   0  0  0  0  0  0  0  0  0  0  0  0
   12.5551  -15.2989   21.5624 C   0  0  2  0  0  0  0  0  0  0  0  0
   11.6593  -16.2960   22.2057 N   0  0  0  0  0  0  0  0  0  0  0  0
   10.4204  -15.6672   22.6804 C   0  0  0  0  0  0  0  0  0  0  0  0
   12.3053  -16.8984   23.3702 O   0  0  0  0  0  0  0  0  0  0  0  0
   11.8656  -16.6835   24.5208 O   0  0  0  0  0  0  0  0  0  0  0  0
  1  2  1  0
  2  4  1  0
  2  3  2  0
  4  5  1  0
  6  5  1  0
  7  6  1  0
  8  7  1  0
  8  9  1  6
 10  8  1  0
 10 12  1  0
 11 10  2  0
 13 16  1  0
 13 12  1  0
 13 14  1  6
 15 14  1  0
 16 17  2  0
 18 19  1  0
 19 21  1  0
 20 19  2  0
 21 22  1  0
 23 24  1  0
 23 22  1  0
 25 24  1  6
 25 27  1  0
 26 25  1  0
 26 16  1  0
 27 28  2  0
 27 29  1  0
M  END
$$$$
