RCR.pdb
     RDKit          3D

 29 28  0  0  1  0  0  0  0  0999 V2000
    5.9166  -12.5359   13.5194 N   0  0  0  0  0  0  0  0  0  0  0  0
    6.8464  -13.3756   12.8528 C   0  0  0  0  0  0  0  0  0  0  0  0
    7.3622  -13.0120   11.7398 N   0  0  0  0  0  0  0  0  0  0  0  0
    7.2380  -14.6417   13.3894 N   0  0  0  0  0  0  0  0  0  0  0  0
    7.1890  -14.9125   14.8096 C   0  0  0  0  0  0  0  0  0  0  0  0
    8.4702  -14.4752   15.4433 C   0  0  0  0  0  0  0  0  0  0  0  0
    9.6003  -15.4082   15.2151 C   0  0  0  0  0  0  0  0  0  0  0  0
    9.8614  -16.4252   16.2621 C   0  0  2  0  0  0  0  0  0  0  0  0
    8.8516  -17.4093   16.4649 N   0  0  0  0  0  0  0  0  0  0  0  0
   10.2188  -15.7137   17.5351 C   0  0  0  0  0  0  0  0  0  0  0  0
   10.9882  -14.7398   17.4606 O   0  0  0  0  0  0  0  0  0  0  0  0
    8.0555  -13.5930   11.2124 N   0  0  0  0  0  0  0  0  0  0  0  0
    9.7210  -16.1028   18.7985 C   0  0  1  0  0  0  0  0  0  0  0  0
   10.1403  -15.5309   20.0555 C   0  0  0  0  0  0  0  0  0  0  0  0
    9.2637  -16.0100   21.1853 S   0  0  0  0  0  0  0  0  0  0  0  0
    9.7662  -15.3217   22.7710 C   0  0  0  0  0  0  0  0  0  0  0  0
   11.5488  -15.9097   20.3421 O   0  0  0  0  0  0  0  0  0  0  0  0
   11.9751  -17.0900   20.1241 N   0  0  0  0  0  0  0  0  0  0  0  0
   20.1558  -13.2485   17.4099 C   0  0  0  0  0  0  0  0  0  0  0  0
   18.8440  -12.8847   17.7929 N   0  0  0  0  0  0  0  0  0  0  0  0
   18.3417  -11.7893   17.3414 N   0  0  0  0  0  0  0  0  0  0  0  0
   18.1180  -13.7379   18.6645 C   0  0  0  0  0  0  0  0  0  0  0  0
   16.7591  -13.3991   18.9886 C   0  0  0  0  0  0  0  0  0  0  0  0
   16.1404  -14.4774   19.9060 C   0  0  0  0  0  0  0  0  0  0  0  0
   14.6678  -14.2208   20.0722 C   0  0  2  0  0  0  0  0  0  0  0  0
   13.9483  -15.2692   20.8428 N   0  0  0  0  0  0  0  0  0  0  0  0
   12.5031  -15.0120   20.8662 C   0  0  0  0  0  0  0  0  0  0  0  0
   14.4000  -15.2929   22.2327 O   0  0  0  0  0  0  0  0  0  0  0  0
   15.5979  -15.5249   22.5060 O   0  0  0  0  0  0  0  0  0  0  0  0
  1  2  1  0
  2  4  1  0
  2  3  2  0
  4  5  1  0
  6  5  1  0
  7  6  1  0
  8  7  1  0
  8  9  1  1
 10  8  1  0
 10 12  1  0
 11 10  2  0
 13 16  1  0
 13 12  1  0
 13 14  1  6
 15 14  1  0
 16 17  2  0
 18 19  1  0
 19 21  1  0
 20 19  2  0
 21 22  1  0
 23 24  1  0
 23 22  1  0
 25 24  1  6
 25 27  1  0
 26 25  1  0
 26 16  1  0
 27 28  2  0
 27 29  1  0
M  END
$$$$
