RCR.pdb
     RDKit          3D

 29 28  0  0  1  0  0  0  0  0999 V2000
    6.8047  -14.5362   16.4808 N   0  0  0  0  0  0  0  0  0  0  0  0
    8.1402  -14.0563   16.4700 C   0  0  0  0  0  0  0  0  0  0  0  0
    8.9760  -14.4924   15.6049 N   0  0  0  0  0  0  0  0  0  0  0  0
    8.5985  -13.0818   17.4105 N   0  0  0  0  0  0  0  0  0  0  0  0
    7.7257  -12.5404   18.4292 C   0  0  0  0  0  0  0  0  0  0  0  0
    7.3724  -13.6169   19.4042 C   0  0  0  0  0  0  0  0  0  0  0  0
    8.1901  -13.5963   20.6415 C   0  0  0  0  0  0  0  0  0  0  0  0
    7.8654  -14.5984   21.6851 C   0  0  2  0  0  0  0  0  0  0  0  0
    6.4962  -14.9703   21.8117 N   0  0  0  0  0  0  0  0  0  0  0  0
    8.4452  -14.1299   22.9885 C   0  0  0  0  0  0  0  0  0  0  0  0
    9.6703  -13.9236   23.0394 O   0  0  0  0  0  0  0  0  0  0  0  0
    9.9696  -14.1666   15.5529 N   0  0  0  0  0  0  0  0  0  0  0  0
    7.6624  -13.9167   24.1449 C   0  0  1  0  0  0  0  0  0  0  0  0
    8.1833  -13.4748   25.4164 C   0  0  0  0  0  0  0  0  0  0  0  0
    7.2516  -12.4824   26.0656 S   0  0  0  0  0  0  0  0  0  0  0  0
    5.6308  -13.1921   26.3975 C   0  0  0  0  0  0  0  0  0  0  0  0
    8.3610  -14.6376   26.3251 O   0  0  0  0  0  0  0  0  0  0  0  0
    7.5300  -15.6028   26.3365 N   0  0  0  0  0  0  0  0  0  0  0  0
   15.0192  -19.5618   25.6424 C   0  0  0  0  0  0  0  0  0  0  0  0
   14.1580  -20.3795   26.4104 N   0  0  0  0  0  0  0  0  0  0  0  0
   14.4198  -21.6347   26.5192 N   0  0  0  0  0  0  0  0  0  0  0  0
   13.0291  -19.7928   27.0397 C   0  0  0  0  0  0  0  0  0  0  0  0
   12.5554  -18.5222   26.5625 C   0  0  0  0  0  0  0  0  0  0  0  0
   11.4495  -17.9766   27.4934 C   0  0  0  0  0  0  0  0  0  0  0  0
   10.9304  -16.6710   26.9569 C   0  0  1  0  0  0  0  0  0  0  0  0
    9.8726  -16.0445   27.7929 N   0  0  0  0  0  0  0  0  0  0  0  0
    9.4397  -14.7611   27.2264 C   0  0  0  0  0  0  0  0  0  0  0  0
   10.3705  -15.7701   29.1395 O   0  0  0  0  0  0  0  0  0  0  0  0
   10.5229  -14.5925   29.5312 O   0  0  0  0  0  0  0  0  0  0  0  0
  1  2  1  0
  2  4  1  0
  2  3  2  0
  4  5  1  0
  6  5  1  0
  7  6  1  0
  8  7  1  0
  8  9  1  1
 10  8  1  0
 10 12  1  0
 11 10  2  0
 13 16  1  0
 13 12  1  0
 13 14  1  1
 15 14  1  0
 16 17  2  0
 18 19  1  0
 19 21  1  0
 20 19  2  0
 21 22  1  0
 23 24  1  0
 23 22  1  0
 25 24  1  6
 25 27  1  0
 26 25  1  0
 26 16  1  0
 27 28  2  0
 27 29  1  0
M  END
$$$$
