GGC.pdb
     RDKit          3D

 15 14  0  0  1  0  0  0  0  0999 V2000
    4.9513  -19.5635   22.1121 N   0  0  0  0  0  0  0  0  0  0  0  0
    5.6306  -18.7625   23.0835 C   0  0  0  0  0  0  0  0  0  0  0  0
    5.9563  -17.4246   22.5036 C   0  0  0  0  0  0  0  0  0  0  0  0
    5.7163  -17.1980   21.2960 O   0  0  0  0  0  0  0  0  0  0  0  0
    6.5338  -16.3914   23.2813 N   0  0  0  0  0  0  0  0  0  0  0  0
    7.4080  -15.3929   22.7235 C   0  0  0  0  0  0  0  0  0  0  0  0
    7.8532  -14.4047   23.7364 C   0  0  0  0  0  0  0  0  0  0  0  0
    8.6989  -13.5259   23.4318 O   0  0  0  0  0  0  0  0  0  0  0  0
    7.3444  -14.4230   25.0589 N   0  0  0  0  0  0  0  0  0  0  0  0
    8.0086  -13.7717   26.1683 C   0  0  1  0  0  0  0  0  0  0  0  0
    6.9751  -13.0964   27.0790 C   0  0  0  0  0  0  0  0  0  0  0  0
    5.9007  -12.0064   26.1292 S   0  0  0  0  0  0  0  0  0  0  0  0
    8.7436  -14.7602   26.9834 C   0  0  0  0  0  0  0  0  0  0  0  0
    8.6607  -15.9709   26.6869 O   0  0  0  0  0  0  0  0  0  0  0  0
    9.5085  -14.3717   28.0508 O   0  0  0  0  0  0  0  0  0  0  0  0
  2  1  1  0
  3  5  1  0
  3  2  1  0
  4  3  2  0
  6  5  1  0
  7  6  1  0
  8  7  2  0
  9  7  1  0
 10 13  1  0
 10  9  1  0
 10 11  1  1
 12 11  1  0
 13 15  1  0
 14 13  2  0
M  END
$$$$
