GGC.pdb
     RDKit          3D

 15 14  0  0  1  0  0  0  0  0999 V2000
    6.7492  -19.1160   24.8875 N   0  0  0  0  0  0  0  0  0  0  0  0
    7.4405  -18.6864   23.7110 C   0  0  0  0  0  0  0  0  0  0  0  0
    6.9752  -17.3229   23.3152 C   0  0  0  0  0  0  0  0  0  0  0  0
    5.8789  -16.8947   23.7418 O   0  0  0  0  0  0  0  0  0  0  0  0
    7.7399  -16.4879   22.4644 N   0  0  0  0  0  0  0  0  0  0  0  0
    7.2930  -15.1853   22.0450 C   0  0  0  0  0  0  0  0  0  0  0  0
    7.4855  -14.1577   23.0974 C   0  0  0  0  0  0  0  0  0  0  0  0
    7.6353  -12.9504   22.7810 O   0  0  0  0  0  0  0  0  0  0  0  0
    7.5059  -14.5035   24.4716 N   0  0  0  0  0  0  0  0  0  0  0  0
    7.6468  -13.5246   25.5289 C   0  0  1  0  0  0  0  0  0  0  0  0
    6.2650  -13.0416   25.9882 C   0  0  0  0  0  0  0  0  0  0  0  0
    6.4153  -11.8844   27.3603 S   0  0  0  0  0  0  0  0  0  0  0  0
    8.3229  -14.1210   26.6990 C   0  0  0  0  0  0  0  0  0  0  0  0
    8.4811  -15.3595   26.7405 O   0  0  0  0  0  0  0  0  0  0  0  0
    8.7752  -13.3421   27.7305 O   0  0  0  0  0  0  0  0  0  0  0  0
  2  1  1  0
  3  5  1  0
  3  2  1  0
  4  3  2  0
  6  5  1  0
  7  6  1  0
  8  7  2  0
  9  7  1  0
 10 13  1  0
 10  9  1  0
 10 11  1  1
 12 11  1  0
 13 15  1  0
 14 13  2  0
M  END
$$$$
