GGC.pdb
     RDKit          3D

 15 14  0  0  1  0  0  0  0  0999 V2000
    7.2606  -19.7573   23.0036 N   0  0  0  0  0  0  0  0  0  0  0  0
    6.2234  -18.7811   23.1369 C   0  0  0  0  0  0  0  0  0  0  0  0
    6.6639  -17.4842   22.5401 C   0  0  0  0  0  0  0  0  0  0  0  0
    7.5716  -17.4758   21.6780 O   0  0  0  0  0  0  0  0  0  0  0  0
    6.0836  -16.2493   22.9199 N   0  0  0  0  0  0  0  0  0  0  0  0
    6.6113  -14.9783   22.4970 C   0  0  0  0  0  0  0  0  0  0  0  0
    7.4837  -14.3603   23.5253 C   0  0  0  0  0  0  0  0  0  0  0  0
    8.6223  -13.9299   23.2112 O   0  0  0  0  0  0  0  0  0  0  0  0
    7.0639  -14.2390   24.8734 N   0  0  0  0  0  0  0  0  0  0  0  0
    7.9236  -13.7373   25.9247 C   0  0  1  0  0  0  0  0  0  0  0  0
    7.0812  -13.0858   27.0291 C   0  0  0  0  0  0  0  0  0  0  0  0
    5.9045  -11.9153   26.3295 S   0  0  0  0  0  0  0  0  0  0  0  0
    8.6876  -14.8421   26.5392 C   0  0  0  0  0  0  0  0  0  0  0  0
    8.4573  -16.0142   26.1734 O   0  0  0  0  0  0  0  0  0  0  0  0
    9.6371  -14.6020   27.4964 O   0  0  0  0  0  0  0  0  0  0  0  0
  2  1  1  0
  3  5  1  0
  3  2  1  0
  4  3  2  0
  6  5  1  0
  7  6  1  0
  8  7  2  0
  9  7  1  0
 10 13  1  0
 10  9  1  0
 10 11  1  1
 12 11  1  0
 13 15  1  0
 14 13  2  0
M  END
$$$$
