GGC.pdb
     RDKit          3D

 15 14  0  0  1  0  0  0  0  0999 V2000
    8.2475  -13.6581   17.5251 N   0  0  0  0  0  0  0  0  0  0  0  0
    8.6623  -14.3766   18.6906 C   0  0  0  0  0  0  0  0  0  0  0  0
    7.7672  -14.0447   19.8399 C   0  0  0  0  0  0  0  0  0  0  0  0
    7.0155  -13.0460   19.7711 O   0  0  0  0  0  0  0  0  0  0  0  0
    7.7388  -14.8297   21.0184 N   0  0  0  0  0  0  0  0  0  0  0  0
    6.8742  -14.5332   22.1307 C   0  0  0  0  0  0  0  0  0  0  0  0
    7.6241  -14.3773   23.4011 C   0  0  0  0  0  0  0  0  0  0  0  0
    8.8608  -14.6002   23.4356 O   0  0  0  0  0  0  0  0  0  0  0  0
    6.9760  -13.9778   24.5964 N   0  0  0  0  0  0  0  0  0  0  0  0
    7.6848  -13.7425   25.8368 C   0  0  1  0  0  0  0  0  0  0  0  0
    6.7267  -13.1758   26.8925 C   0  0  0  0  0  0  0  0  0  0  0  0
    5.9776  -11.6416   26.3186 S   0  0  0  0  0  0  0  0  0  0  0  0
    8.2346  -15.0073   26.3660 C   0  0  0  0  0  0  0  0  0  0  0  0
    7.7992  -16.0901   25.9204 O   0  0  0  0  0  0  0  0  0  0  0  0
    9.2070  -15.0099   27.3303 O   0  0  0  0  0  0  0  0  0  0  0  0
  2  1  1  0
  3  5  1  0
  3  2  1  0
  4  3  2  0
  6  5  1  0
  7  6  1  0
  8  7  2  0
  9  7  1  0
 10 13  1  0
 10  9  1  0
 10 11  1  1
 12 11  1  0
 13 15  1  0
 14 13  2  0
M  END
$$$$
