GGC.pdb
     RDKit          3D

 15 14  0  0  1  0  0  0  0  0999 V2000
    9.9253  -17.7745   18.9137 N   0  0  0  0  0  0  0  0  0  0  0  0
    9.9215  -17.5536   20.3272 C   0  0  0  0  0  0  0  0  0  0  0  0
    8.7847  -16.6590   20.7005 C   0  0  0  0  0  0  0  0  0  0  0  0
    7.6085  -17.0284   20.4826 O   0  0  0  0  0  0  0  0  0  0  0  0
    8.9933  -15.3926   21.2994 N   0  0  0  0  0  0  0  0  0  0  0  0
    7.9286  -14.6277   21.8943 C   0  0  0  0  0  0  0  0  0  0  0  0
    8.1863  -14.3191   23.3222 C   0  0  0  0  0  0  0  0  0  0  0  0
    9.2832  -14.6355   23.8483 O   0  0  0  0  0  0  0  0  0  0  0  0
    7.2158  -13.6674   24.1233 N   0  0  0  0  0  0  0  0  0  0  0  0
    7.4812  -13.2179   25.4737 C   0  0  1  0  0  0  0  0  0  0  0  0
    6.3574  -12.2887   25.9507 C   0  0  0  0  0  0  0  0  0  0  0  0
    6.8010  -11.4941   27.5051 S   0  0  0  0  0  0  0  0  0  0  0  0
    7.5337  -14.3670   26.4003 C   0  0  0  0  0  0  0  0  0  0  0  0
    6.7725  -15.3380   26.2043 O   0  0  0  0  0  0  0  0  0  0  0  0
    8.3980  -14.3832   27.4624 O   0  0  0  0  0  0  0  0  0  0  0  0
  2  1  1  0
  3  5  1  0
  3  2  1  0
  4  3  2  0
  6  5  1  0
  7  6  1  0
  8  7  2  0
  9  7  1  0
 10 13  1  0
 10  9  1  0
 10 11  1  1
 12 11  1  0
 13 15  1  0
 14 13  2  0
M  END
$$$$
