GGC.pdb
     RDKit          3D

 15 14  0  0  1  0  0  0  0  0999 V2000
    9.3678  -17.9338   19.8777 N   0  0  0  0  0  0  0  0  0  0  0  0
    9.3496  -16.5569   20.2657 C   0  0  0  0  0  0  0  0  0  0  0  0
    8.3537  -16.3485   21.3598 C   0  0  0  0  0  0  0  0  0  0  0  0
    7.9378  -17.3314   22.0142 O   0  0  0  0  0  0  0  0  0  0  0  0
    7.8578  -15.0627   21.6866 N   0  0  0  0  0  0  0  0  0  0  0  0
    7.0322  -14.8166   22.8400 C   0  0  0  0  0  0  0  0  0  0  0  0
    7.7818  -14.1622   23.9402 C   0  0  0  0  0  0  0  0  0  0  0  0
    9.0243  -13.9965   23.8461 O   0  0  0  0  0  0  0  0  0  0  0  0
    7.1269  -13.7111   25.1132 N   0  0  0  0  0  0  0  0  0  0  0  0
    7.8282  -13.0969   26.2209 C   0  0  1  0  0  0  0  0  0  0  0  0
    6.8290  -12.4178   27.1665 C   0  0  0  0  0  0  0  0  0  0  0  0
    5.5025  -11.6301   26.2368 S   0  0  0  0  0  0  0  0  0  0  0  0
    8.5578  -14.1175   27.0007 C   0  0  0  0  0  0  0  0  0  0  0  0
    9.3816  -13.7459   27.8631 O   0  0  0  0  0  0  0  0  0  0  0  0
    8.3457  -15.4545   26.7936 O   0  0  0  0  0  0  0  0  0  0  0  0
  2  1  1  0
  3  5  1  0
  3  2  1  0
  4  3  2  0
  6  5  1  0
  7  6  1  0
  8  7  2  0
  9  7  1  0
 10 13  1  0
 10  9  1  0
 10 11  1  1
 12 11  1  0
 13 15  1  0
 14 13  2  0
M  END
$$$$
