GGC.pdb
     RDKit          3D

 15 14  0  0  1  0  0  0  0  0999 V2000
    8.1899  -13.4115   17.3371 N   0  0  0  0  0  0  0  0  0  0  0  0
    8.1653  -13.0708   18.7263 C   0  0  0  0  0  0  0  0  0  0  0  0
    7.7219  -14.2480   19.5324 C   0  0  0  0  0  0  0  0  0  0  0  0
    7.8528  -15.4024   19.0662 O   0  0  0  0  0  0  0  0  0  0  0  0
    7.1519  -14.1020   20.8207 N   0  0  0  0  0  0  0  0  0  0  0  0
    7.2344  -15.1261   21.8292 C   0  0  0  0  0  0  0  0  0  0  0  0
    7.9924  -14.6803   23.0239 C   0  0  0  0  0  0  0  0  0  0  0  0
    9.2415  -14.5510   22.9669 O   0  0  0  0  0  0  0  0  0  0  0  0
    7.3384  -14.3915   24.2475 N   0  0  0  0  0  0  0  0  0  0  0  0
    8.0451  -13.9703   25.4389 C   0  0  1  0  0  0  0  0  0  0  0  0
    7.1102  -13.1633   26.3492 C   0  0  0  0  0  0  0  0  0  0  0  0
    8.0104  -12.4943   27.7586 S   0  0  0  0  0  0  0  0  0  0  0  0
    8.5112  -15.1437   26.2055 C   0  0  0  0  0  0  0  0  0  0  0  0
    9.4062  -14.9897   27.0634 O   0  0  0  0  0  0  0  0  0  0  0  0
    7.9808  -16.3879   25.9911 O   0  0  0  0  0  0  0  0  0  0  0  0
  2  1  1  0
  3  5  1  0
  3  2  1  0
  4  3  2  0
  6  5  1  0
  7  6  1  0
  8  7  2  0
  9  7  1  0
 10 13  1  0
 10  9  1  0
 10 11  1  1
 12 11  1  0
 13 15  1  0
 14 13  2  0
M  END
$$$$
