GGC.pdb
     RDKit          3D

 15 14  0  0  1  0  0  0  0  0999 V2000
    5.8815  -19.6677   22.4119 N   0  0  0  0  0  0  0  0  0  0  0  0
    6.2383  -18.6563   23.3587 C   0  0  0  0  0  0  0  0  0  0  0  0
    6.6856  -17.4232   22.6435 C   0  0  0  0  0  0  0  0  0  0  0  0
    7.4524  -17.5221   21.6588 O   0  0  0  0  0  0  0  0  0  0  0  0
    6.2677  -16.1309   23.0451 N   0  0  0  0  0  0  0  0  0  0  0  0
    6.9414  -14.9295   22.6263 C   0  0  0  0  0  0  0  0  0  0  0  0
    7.6946  -14.2909   23.7333 C   0  0  0  0  0  0  0  0  0  0  0  0
    8.8478  -13.8334   23.5307 O   0  0  0  0  0  0  0  0  0  0  0  0
    7.1426  -14.1798   25.0338 N   0  0  0  0  0  0  0  0  0  0  0  0
    7.8698  -13.6203   26.1538 C   0  0  1  0  0  0  0  0  0  0  0  0
    6.8913  -13.0154   27.1689 C   0  0  0  0  0  0  0  0  0  0  0  0
    5.8133  -11.8088   26.3775 S   0  0  0  0  0  0  0  0  0  0  0  0
    8.6395  -14.6726   26.8481 C   0  0  0  0  0  0  0  0  0  0  0  0
    8.5093  -15.8597   26.4813 O   0  0  0  0  0  0  0  0  0  0  0  0
    9.4870  -14.3681   27.8799 O   0  0  0  0  0  0  0  0  0  0  0  0
  2  1  1  0
  3  5  1  0
  3  2  1  0
  4  3  2  0
  6  5  1  0
  7  6  1  0
  8  7  2  0
  9  7  1  0
 10 13  1  0
 10  9  1  0
 10 11  1  1
 12 11  1  0
 13 15  1  0
 14 13  2  0
M  END
$$$$
