GGC.pdb
     RDKit          3D

 15 14  0  0  1  0  0  0  0  0999 V2000
    8.3525  -17.6225   18.8449 N   0  0  0  0  0  0  0  0  0  0  0  0
    8.9605  -17.2182   20.0751 C   0  0  0  0  0  0  0  0  0  0  0  0
    7.9762  -16.4611   20.9059 C   0  0  0  0  0  0  0  0  0  0  0  0
    6.7876  -16.3658   20.5245 O   0  0  0  0  0  0  0  0  0  0  0  0
    8.3449  -15.8400   22.1242 N   0  0  0  0  0  0  0  0  0  0  0  0
    7.3937  -15.1834   22.9825 C   0  0  0  0  0  0  0  0  0  0  0  0
    8.0409  -14.5383   24.1511 C   0  0  0  0  0  0  0  0  0  0  0  0
    9.2943  -14.5142   24.2449 O   0  0  0  0  0  0  0  0  0  0  0  0
    7.2746  -13.9386   25.1813 N   0  0  0  0  0  0  0  0  0  0  0  0
    7.8697  -13.2578   26.3121 C   0  0  1  0  0  0  0  0  0  0  0  0
    6.7896  -12.5133   27.1076 C   0  0  0  0  0  0  0  0  0  0  0  0
    5.6180  -11.7109   25.9996 S   0  0  0  0  0  0  0  0  0  0  0  0
    8.5059  -14.2297   27.2245 C   0  0  0  0  0  0  0  0  0  0  0  0
    8.2147  -15.4399   27.1185 O   0  0  0  0  0  0  0  0  0  0  0  0
    9.4031  -13.8264   28.1773 O   0  0  0  0  0  0  0  0  0  0  0  0
  2  1  1  0
  3  5  1  0
  3  2  1  0
  4  3  2  0
  6  5  1  0
  7  6  1  0
  8  7  2  0
  9  7  1  0
 10 13  1  0
 10  9  1  0
 10 11  1  1
 12 11  1  0
 13 15  1  0
 14 13  2  0
M  END
$$$$
