QLT.pdb
     RDKit          3D

 25 24  0  0  1  0  0  0  0  0999 V2000
   43.1631   -3.0150   -6.7570 N   0  0  0  0  0  0  0  0  0  0  0  0
   44.1645   -3.7279   -6.0173 C   0  0  0  0  0  0  0  0  0  0  0  0
   45.1735   -3.1099   -5.5923 O   0  0  0  0  0  0  0  0  0  0  0  0
   44.0447   -5.1573   -5.7414 C   0  0  0  0  0  0  0  0  0  0  0  0
   42.8886   -5.8583   -6.3489 C   0  0  0  0  0  0  0  0  0  0  0  0
   42.2004   -6.8620   -5.4775 C   0  0  2  0  0  0  0  0  0  0  0  0
   43.1811   -7.3563   -4.5262 N   0  0  0  0  0  0  0  0  0  0  0  0
   41.6740   -7.9780   -6.3274 C   0  0  0  0  0  0  0  0  0  0  0  0
   42.4216   -8.9594   -6.5451 O   0  0  0  0  0  0  0  0  0  0  0  0
   37.9602  -10.5739   -5.8824 C   0  0  0  0  0  0  0  0  0  0  0  0
   37.7001   -9.2807   -6.5680 C   0  0  2  0  0  0  0  0  0  0  0  0
   36.2204   -9.1247   -6.8618 C   0  0  0  0  0  0  0  0  0  0  0  0
   38.4616   -9.1686   -7.8912 C   0  0  0  0  0  0  0  0  0  0  0  0
   39.9467   -9.1113   -7.6619 C   0  0  2  0  0  0  0  0  0  0  0  0
   40.3924   -7.9994   -6.9000 N   0  0  0  0  0  0  0  0  0  0  0  0
   40.6171   -9.0277   -9.0055 C   0  0  0  0  0  0  0  0  0  0  0  0
   40.5796   -7.9067   -9.6010 O   0  0  0  0  0  0  0  0  0  0  0  0
   43.7668  -10.5438  -12.3962 C   0  0  0  0  0  0  0  0  0  0  0  0
   43.1610  -10.7009  -11.0362 C   0  0  1  0  0  0  0  0  0  0  0  0
   44.0253  -10.2636  -10.0475 O   0  0  0  0  0  0  0  0  0  0  0  0
   41.8110  -10.0210  -10.9183 C   0  0  2  0  0  0  0  0  0  0  0  0
   41.2628  -10.1181   -9.6021 N   0  0  0  0  0  0  0  0  0  0  0  0
   40.9472  -10.5699  -11.9684 C   0  0  0  0  0  0  0  0  0  0  0  0
   40.7329   -9.8315  -13.1174 O   0  0  0  0  0  0  0  0  0  0  0  0
   40.4018  -11.6858  -11.8499 O   0  0  0  0  0  0  0  0  0  0  0  0
  2  4  1  0
  2  1  1  0
  3  2  2  0
  5  6  1  0
  5  4  1  0
  6  7  1  1
  8  6  1  0
  9  8  2  0
 11 10  1  6
 11 12  1  0
 13 11  1  0
 14 13  1  6
 14 15  1  0
 15  8  1  0
 16 17  2  0
 16 14  1  0
 19 21  1  0
 19 18  1  6
 20 19  1  0
 21 22  1  1
 22 16  1  0
 23 21  1  0
 24 23  1  0
 25 23  2  0
M  END
$$$$
