QLT.pdb
     RDKit          3D

 25 24  0  0  1  0  0  0  0  0999 V2000
   17.6679  -13.6469  -18.9144 N   0  0  0  0  0  0  0  0  0  0  0  0
   17.7800  -12.2225  -18.7851 C   0  0  0  0  0  0  0  0  0  0  0  0
   16.8455  -11.5773  -18.2458 O   0  0  0  0  0  0  0  0  0  0  0  0
   18.9543  -11.4971  -19.2630 C   0  0  0  0  0  0  0  0  0  0  0  0
   19.6942  -10.6935  -18.2612 C   0  0  0  0  0  0  0  0  0  0  0  0
   20.8943  -11.3494  -17.6532 C   0  0  2  0  0  0  0  0  0  0  0  0
   20.4204  -12.4655  -16.8525 N   0  0  0  0  0  0  0  0  0  0  0  0
   21.6241  -10.3559  -16.8016 C   0  0  0  0  0  0  0  0  0  0  0  0
   21.1520  -10.0832  -15.6738 O   0  0  0  0  0  0  0  0  0  0  0  0
   25.1300  -10.1635  -14.2441 C   0  0  0  0  0  0  0  0  0  0  0  0
   25.4498  -10.0865  -15.6939 C   0  0  2  0  0  0  0  0  0  0  0  0
   26.9497  -10.1497  -15.9098 C   0  0  0  0  0  0  0  0  0  0  0  0
   24.9326   -8.7929  -16.3283 C   0  0  0  0  0  0  0  0  0  0  0  0
   23.4294   -8.7523  -16.3345 C   0  0  2  0  0  0  0  0  0  0  0  0
   22.8082   -9.7056  -17.1835 N   0  0  0  0  0  0  0  0  0  0  0  0
   23.0077   -7.3898  -16.8113 C   0  0  0  0  0  0  0  0  0  0  0  0
   23.5287   -6.9685  -17.8900 O   0  0  0  0  0  0  0  0  0  0  0  0
   19.9699   -6.0578  -18.2603 C   0  0  0  0  0  0  0  0  0  0  0  0
   20.2473   -5.2529  -17.0288 C   0  0  1  0  0  0  0  0  0  0  0  0
   19.4187   -5.6284  -15.9857 O   0  0  0  0  0  0  0  0  0  0  0  0
   21.7043   -5.3082  -16.6132 C   0  0  2  0  0  0  0  0  0  0  0  0
   22.0840   -6.5949  -16.1206 N   0  0  0  0  0  0  0  0  0  0  0  0
   21.9350   -4.2129  -15.6660 C   0  0  0  0  0  0  0  0  0  0  0  0
   21.8009   -2.9076  -16.1015 O   0  0  0  0  0  0  0  0  0  0  0  0
   22.2489   -4.4304  -14.4782 O   0  0  0  0  0  0  0  0  0  0  0  0
  2  4  1  0
  2  1  1  0
  3  2  2  0
  5  6  1  0
  5  4  1  0
  6  7  1  1
  8  6  1  0
  9  8  2  0
 11 10  1  1
 11 12  1  0
 13 11  1  0
 14 13  1  6
 14 15  1  0
 15  8  1  0
 16 17  2  0
 16 14  1  0
 19 21  1  0
 19 18  1  6
 20 19  1  0
 21 22  1  1
 22 16  1  0
 23 21  1  0
 24 23  1  0
 25 23  2  0
M  END
$$$$
