QLT.pdb
     RDKit          3D

 25 24  0  0  1  0  0  0  0  0999 V2000
   27.9404  -22.4365  -18.9628 N   0  0  0  0  0  0  0  0  0  0  0  0
   28.2337  -21.6391  -17.8067 C   0  0  0  0  0  0  0  0  0  0  0  0
   29.3409  -21.7774  -17.2275 O   0  0  0  0  0  0  0  0  0  0  0  0
   27.2792  -20.6662  -17.2815 C   0  0  0  0  0  0  0  0  0  0  0  0
   26.1557  -21.2026  -16.4769 C   0  0  0  0  0  0  0  0  0  0  0  0
   26.5379  -22.0043  -15.2723 C   0  0  2  0  0  0  0  0  0  0  0  0
   26.7196  -23.3794  -15.7053 N   0  0  0  0  0  0  0  0  0  0  0  0
   25.4491  -21.9089  -14.2475 C   0  0  0  0  0  0  0  0  0  0  0  0
   24.5157  -22.7430  -14.2961 O   0  0  0  0  0  0  0  0  0  0  0  0
   25.3076  -22.2344   -9.7345 C   0  0  0  0  0  0  0  0  0  0  0  0
   25.7414  -20.8893  -10.1955 C   0  0  2  0  0  0  0  0  0  0  0  0
   26.0903  -20.0098   -9.0101 C   0  0  0  0  0  0  0  0  0  0  0  0
   24.6538  -20.1820  -11.0080 C   0  0  0  0  0  0  0  0  0  0  0  0
   24.3502  -20.9284  -12.2777 C   0  0  2  0  0  0  0  0  0  0  0  0
   25.4029  -20.9425  -13.2302 N   0  0  0  0  0  0  0  0  0  0  0  0
   23.1684  -20.2656  -12.9300 C   0  0  0  0  0  0  0  0  0  0  0  0
   23.3843  -19.1762  -13.5458 O   0  0  0  0  0  0  0  0  0  0  0  0
   21.5024  -22.1765  -15.4572 C   0  0  0  0  0  0  0  0  0  0  0  0
   21.2479  -20.7164  -15.2463 C   0  0  1  0  0  0  0  0  0  0  0  0
   20.2953  -20.2394  -16.1299 O   0  0  0  0  0  0  0  0  0  0  0  0
   20.8719  -20.3921  -13.8137 C   0  0  2  0  0  0  0  0  0  0  0  0
   21.8741  -20.7989  -12.8798 N   0  0  0  0  0  0  0  0  0  0  0  0
   19.5490  -20.9725  -13.5625 C   0  0  0  0  0  0  0  0  0  0  0  0
   18.4713  -20.5403  -14.3130 O   0  0  0  0  0  0  0  0  0  0  0  0
   19.3728  -21.8458  -12.6889 O   0  0  0  0  0  0  0  0  0  0  0  0
  2  4  1  0
  2  1  1  0
  3  2  2  0
  5  6  1  0
  5  4  1  0
  6  7  1  6
  8  6  1  0
  9  8  2  0
 11 10  1  1
 11 12  1  0
 13 11  1  0
 14 13  1  1
 14 15  1  0
 15  8  1  0
 16 17  2  0
 16 14  1  0
 19 21  1  0
 19 18  1  1
 20 19  1  0
 21 22  1  1
 22 16  1  0
 23 21  1  0
 24 23  1  0
 25 23  2  0
M  END
$$$$
