QLT.pdb
     RDKit          3D

 25 24  0  0  1  0  0  0  0  0999 V2000
   17.4490   -8.0611  -19.4231 N   0  0  0  0  0  0  0  0  0  0  0  0
   16.0452   -8.3569  -19.4215 C   0  0  0  0  0  0  0  0  0  0  0  0
   15.4249   -8.4080  -20.5138 O   0  0  0  0  0  0  0  0  0  0  0  0
   15.3127   -8.6025  -18.1818 C   0  0  0  0  0  0  0  0  0  0  0  0
   16.1009   -8.5806  -16.9268 C   0  0  0  0  0  0  0  0  0  0  0  0
   16.7998   -9.8553  -16.5706 C   0  0  2  0  0  0  0  0  0  0  0  0
   15.8403  -10.6977  -15.8771 N   0  0  0  0  0  0  0  0  0  0  0  0
   17.9724   -9.5484  -15.6900 C   0  0  0  0  0  0  0  0  0  0  0  0
   17.7730   -9.4292  -14.4590 O   0  0  0  0  0  0  0  0  0  0  0  0
   23.8910  -10.4377  -14.6487 C   0  0  0  0  0  0  0  0  0  0  0  0
   22.6697   -9.6150  -14.4443 C   0  0  2  0  0  0  0  0  0  0  0  0
   22.1984   -9.7141  -13.0062 C   0  0  0  0  0  0  0  0  0  0  0  0
   21.5199  -10.0581  -15.3527 C   0  0  0  0  0  0  0  0  0  0  0  0
   20.3538   -9.1136  -15.2553 C   0  0  2  0  0  0  0  0  0  0  0  0
   19.2876   -9.3842  -16.1528 N   0  0  0  0  0  0  0  0  0  0  0  0
   20.8552   -7.7297  -15.5639 C   0  0  0  0  0  0  0  0  0  0  0  0
   21.3814   -7.5472  -16.7051 O   0  0  0  0  0  0  0  0  0  0  0  0
   19.0914   -4.5752  -16.1584 C   0  0  0  0  0  0  0  0  0  0  0  0
   20.0394   -4.3553  -15.0207 C   0  0  1  0  0  0  0  0  0  0  0  0
   19.3757   -4.3560  -13.8061 O   0  0  0  0  0  0  0  0  0  0  0  0
   21.1835   -5.3501  -15.0159 C   0  0  2  0  0  0  0  0  0  0  0  0
   20.7616   -6.6672  -14.6560 N   0  0  0  0  0  0  0  0  0  0  0  0
   22.2393   -4.8044  -14.1571 C   0  0  0  0  0  0  0  0  0  0  0  0
   22.5330   -5.4408  -12.9654 O   0  0  0  0  0  0  0  0  0  0  0  0
   22.8780   -3.7809  -14.4755 O   0  0  0  0  0  0  0  0  0  0  0  0
  2  4  1  0
  2  1  1  0
  3  2  2  0
  5  6  1  0
  5  4  1  0
  6  7  1  1
  8  6  1  0
  9  8  2  0
 11 10  1  1
 11 12  1  0
 13 11  1  0
 14 13  1  6
 14 15  1  0
 15  8  1  0
 16 17  2  0
 16 14  1  0
 19 21  1  0
 19 18  1  6
 20 19  1  0
 21 22  1  1
 22 16  1  0
 23 21  1  0
 24 23  1  0
 25 23  2  0
M  END
$$$$
