QLT.pdb
     RDKit          3D

 25 24  0  0  1  0  0  0  0  0999 V2000
   18.3702  -22.3868  -11.6920 N   0  0  0  0  0  0  0  0  0  0  0  0
   19.2611  -21.7991  -12.6507 C   0  0  0  0  0  0  0  0  0  0  0  0
   18.8830  -20.7982  -13.3108 O   0  0  0  0  0  0  0  0  0  0  0  0
   20.6013  -22.3319  -12.8825 C   0  0  0  0  0  0  0  0  0  0  0  0
   21.7353  -21.4052  -12.6536 C   0  0  0  0  0  0  0  0  0  0  0  0
   22.0450  -21.0908  -11.2235 C   0  0  2  0  0  0  0  0  0  0  0  0
   21.0306  -20.1630  -10.7531 N   0  0  0  0  0  0  0  0  0  0  0  0
   23.4090  -20.4773  -11.1351 C   0  0  0  0  0  0  0  0  0  0  0  0
   23.5622  -19.3104  -11.5642 O   0  0  0  0  0  0  0  0  0  0  0  0
   26.1795  -18.7110   -8.1170 C   0  0  0  0  0  0  0  0  0  0  0  0
   26.1092  -20.1947   -8.0559 C   0  0  2  0  0  0  0  0  0  0  0  0
   26.9298  -20.7166   -6.8921 C   0  0  0  0  0  0  0  0  0  0  0  0
   26.6331  -20.8479   -9.3374 C   0  0  0  0  0  0  0  0  0  0  0  0
   25.7916  -20.4696  -10.5249 C   0  0  2  0  0  0  0  0  0  0  0  0
   24.5344  -21.1247  -10.6008 N   0  0  0  0  0  0  0  0  0  0  0  0
   26.5584  -20.8323  -11.7667 C   0  0  0  0  0  0  0  0  0  0  0  0
   27.1876  -21.9353  -11.7555 O   0  0  0  0  0  0  0  0  0  0  0  0
   26.5481  -22.8933  -13.7441 C   0  0  0  0  0  0  0  0  0  0  0  0
   26.4100  -21.7135  -14.6554 C   0  0  1  0  0  0  0  0  0  0  0  0
   25.0799  -21.4288  -14.9110 O   0  0  0  0  0  0  0  0  0  0  0  0
   27.1384  -20.4891  -14.1366 C   0  0  2  0  0  0  0  0  0  0  0  0
   26.5979  -20.0132  -12.9023 N   0  0  0  0  0  0  0  0  0  0  0  0
   27.1451  -19.4913  -15.2111 C   0  0  0  0  0  0  0  0  0  0  0  0
   27.9175  -19.7184  -16.3350 O   0  0  0  0  0  0  0  0  0  0  0  0
   26.4713  -18.4439  -15.1355 O   0  0  0  0  0  0  0  0  0  0  0  0
  2  4  1  0
  2  1  1  0
  3  2  2  0
  5  6  1  0
  5  4  1  0
  6  7  1  6
  8  6  1  0
  9  8  2  0
 11 10  1  6
 11 12  1  0
 13 11  1  0
 14 13  1  1
 14 15  1  0
 15  8  1  0
 16 17  2  0
 16 14  1  0
 19 21  1  0
 19 18  1  1
 20 19  1  0
 21 22  1  1
 22 16  1  0
 23 21  1  0
 24 23  1  0
 25 23  2  0
M  END
$$$$
