QLT.pdb
     RDKit          3D

 25 24  0  0  1  0  0  0  0  0999 V2000
   15.3176  -20.1246    1.6825 N   0  0  0  0  0  0  0  0  0  0  0  0
   13.9582  -20.4006    1.3166 C   0  0  0  0  0  0  0  0  0  0  0  0
   13.3141  -19.5499    0.6517 O   0  0  0  0  0  0  0  0  0  0  0  0
   13.2980  -21.6474    1.6949 C   0  0  0  0  0  0  0  0  0  0  0  0
   14.1285  -22.6543    2.3975 C   0  0  0  0  0  0  0  0  0  0  0  0
   15.3326  -23.1427    1.6547 C   0  0  2  0  0  0  0  0  0  0  0  0
   14.8678  -24.0624    0.6303 N   0  0  0  0  0  0  0  0  0  0  0  0
   16.2575  -23.8335    2.6097 C   0  0  0  0  0  0  0  0  0  0  0  0
   15.8300  -24.8362    3.2271 O   0  0  0  0  0  0  0  0  0  0  0  0
   19.9953  -26.2734    2.1429 C   0  0  0  0  0  0  0  0  0  0  0  0
   20.1887  -24.8014    2.0649 C   0  0  2  0  0  0  0  0  0  0  0  0
   21.6183  -24.4745    1.6780 C   0  0  0  0  0  0  0  0  0  0  0  0
   19.8874  -24.1109    3.3974 C   0  0  0  0  0  0  0  0  0  0  0  0
   18.4216  -24.1781    3.7265 C   0  0  2  0  0  0  0  0  0  0  0  0
   17.5789  -23.4316    2.8616 N   0  0  0  0  0  0  0  0  0  0  0  0
   18.2355  -23.6276    5.1136 C   0  0  0  0  0  0  0  0  0  0  0  0
   18.1842  -22.3642    5.2315 O   0  0  0  0  0  0  0  0  0  0  0  0
   17.0705  -24.1758    9.8634 C   0  0  0  0  0  0  0  0  0  0  0  0
   17.2652  -24.7952    8.5144 C   0  0  1  0  0  0  0  0  0  0  0  0
   16.0620  -25.2200    7.9780 O   0  0  0  0  0  0  0  0  0  0  0  0
   17.9958  -23.8784    7.5530 C   0  0  2  0  0  0  0  0  0  0  0  0
   18.1205  -24.4435    6.2463 N   0  0  0  0  0  0  0  0  0  0  0  0
   19.2745  -23.5172    8.1732 C   0  0  0  0  0  0  0  0  0  0  0  0
   19.3337  -22.4070    8.9949 O   0  0  0  0  0  0  0  0  0  0  0  0
   20.3089  -24.1869    7.9774 O   0  0  0  0  0  0  0  0  0  0  0  0
  2  4  1  0
  2  1  1  0
  3  2  2  0
  5  6  1  0
  5  4  1  0
  6  7  1  6
  8  6  1  0
  9  8  2  0
 11 10  1  1
 11 12  1  0
 13 11  1  0
 14 13  1  6
 14 15  1  0
 15  8  1  0
 16 17  2  0
 16 14  1  0
 19 21  1  0
 19 18  1  1
 20 19  1  0
 21 22  1  6
 22 16  1  0
 23 21  1  0
 24 23  1  0
 25 23  2  0
M  END
$$$$
