QLT.pdb
     RDKit          3D

 25 24  0  0  1  0  0  0  0  0999 V2000
   18.9915  -15.5333  -18.0961 N   0  0  0  0  0  0  0  0  0  0  0  0
   18.0997  -14.4713  -17.7287 C   0  0  0  0  0  0  0  0  0  0  0  0
   17.0115  -14.7483  -17.1632 O   0  0  0  0  0  0  0  0  0  0  0  0
   18.4212  -13.0712  -17.9929 C   0  0  0  0  0  0  0  0  0  0  0  0
   19.2658  -12.3808  -16.9894 C   0  0  0  0  0  0  0  0  0  0  0  0
   19.5586  -10.9385  -17.2615 C   0  0  2  0  0  0  0  0  0  0  0  0
   20.3450  -10.8776  -18.4818 N   0  0  0  0  0  0  0  0  0  0  0  0
   20.3208  -10.3613  -16.1080 C   0  0  0  0  0  0  0  0  0  0  0  0
   19.7685  -10.3420  -14.9838 O   0  0  0  0  0  0  0  0  0  0  0  0
   25.7471  -10.9057  -14.9291 C   0  0  0  0  0  0  0  0  0  0  0  0
   24.2636  -10.8168  -14.9676 C   0  0  2  0  0  0  0  0  0  0  0  0
   23.7153  -11.6104  -16.1379 C   0  0  0  0  0  0  0  0  0  0  0  0
   23.7781   -9.3715  -15.1046 C   0  0  0  0  0  0  0  0  0  0  0  0
   22.2768   -9.2952  -15.0655 C   0  0  2  0  0  0  0  0  0  0  0  0
   21.6199   -9.8372  -16.2013 N   0  0  0  0  0  0  0  0  0  0  0  0
   21.8917   -7.8440  -14.9788 C   0  0  0  0  0  0  0  0  0  0  0  0
   22.2753   -7.2051  -13.9505 O   0  0  0  0  0  0  0  0  0  0  0  0
   20.7868   -5.5648  -18.3246 C   0  0  0  0  0  0  0  0  0  0  0  0
   21.2082   -4.9798  -17.0125 C   0  0  1  0  0  0  0  0  0  0  0  0
   20.7696   -3.6738  -16.8804 O   0  0  0  0  0  0  0  0  0  0  0  0
   20.7692   -5.8232  -15.8315 C   0  0  2  0  0  0  0  0  0  0  0  0
   21.1441   -7.1953  -15.9699 N   0  0  0  0  0  0  0  0  0  0  0  0
   19.3297   -5.6117  -15.6489 C   0  0  0  0  0  0  0  0  0  0  0  0
   18.8712   -4.3481  -15.3261 O   0  0  0  0  0  0  0  0  0  0  0  0
   18.5101   -6.5436  -15.7778 O   0  0  0  0  0  0  0  0  0  0  0  0
  2  4  1  0
  2  1  1  0
  3  2  2  0
  5  6  1  0
  5  4  1  0
  6  7  1  6
  8  6  1  0
  9  8  2  0
 11 10  1  6
 11 12  1  0
 13 11  1  0
 14 13  1  6
 14 15  1  0
 15  8  1  0
 16 17  2  0
 16 14  1  0
 19 21  1  0
 19 18  1  6
 20 19  1  0
 21 22  1  6
 22 16  1  0
 23 21  1  0
 24 23  1  0
 25 23  2  0
M  END
$$$$
