QLT.pdb
     RDKit          3D

 25 24  0  0  1  0  0  0  0  0999 V2000
   21.4572  -14.9817  -20.8056 N   0  0  0  0  0  0  0  0  0  0  0  0
   21.9851  -13.6701  -20.5620 C   0  0  0  0  0  0  0  0  0  0  0  0
   23.2014  -13.4440  -20.7857 O   0  0  0  0  0  0  0  0  0  0  0  0
   21.1462  -12.5846  -20.0604 C   0  0  0  0  0  0  0  0  0  0  0  0
   21.6192  -11.8860  -18.8417 C   0  0  0  0  0  0  0  0  0  0  0  0
   22.0903  -10.4786  -19.0355 C   0  0  2  0  0  0  0  0  0  0  0  0
   23.1348  -10.5052  -20.0452 N   0  0  0  0  0  0  0  0  0  0  0  0
   22.6189   -9.9497  -17.7372 C   0  0  0  0  0  0  0  0  0  0  0  0
   21.8552   -9.9471  -16.7442 O   0  0  0  0  0  0  0  0  0  0  0  0
   26.2120  -11.7448  -15.4343 C   0  0  0  0  0  0  0  0  0  0  0  0
   26.2608  -10.7346  -16.5240 C   0  0  2  0  0  0  0  0  0  0  0  0
   27.6610  -10.6431  -17.0995 C   0  0  0  0  0  0  0  0  0  0  0  0
   25.8562   -9.3417  -16.0346 C   0  0  0  0  0  0  0  0  0  0  0  0
   24.3931   -9.0856  -16.2693 C   0  0  2  0  0  0  0  0  0  0  0  0
   23.9197   -9.4536  -17.5561 N   0  0  0  0  0  0  0  0  0  0  0  0
   24.1531   -7.6094  -16.1120 C   0  0  0  0  0  0  0  0  0  0  0  0
   25.0682   -6.8289  -16.5195 O   0  0  0  0  0  0  0  0  0  0  0  0
   22.2420   -5.1526  -17.7837 C   0  0  0  0  0  0  0  0  0  0  0  0
   21.7755   -5.1173  -16.3615 C   0  0  1  0  0  0  0  0  0  0  0  0
   20.5583   -5.7598  -16.2157 O   0  0  0  0  0  0  0  0  0  0  0  0
   22.8042   -5.6753  -15.3976 C   0  0  2  0  0  0  0  0  0  0  0  0
   22.9842   -7.0852  -15.5457 N   0  0  0  0  0  0  0  0  0  0  0  0
   22.4135   -5.2606  -14.0465 C   0  0  0  0  0  0  0  0  0  0  0  0
   22.4030   -3.9141  -13.7329 O   0  0  0  0  0  0  0  0  0  0  0  0
   22.0909   -6.0925  -13.1744 O   0  0  0  0  0  0  0  0  0  0  0  0
  2  4  1  0
  2  1  1  0
  3  2  2  0
  5  6  1  0
  5  4  1  0
  6  7  1  6
  8  6  1  0
  9  8  2  0
 11 10  1  1
 11 12  1  0
 13 11  1  0
 14 13  1  6
 14 15  1  0
 15  8  1  0
 16 17  2  0
 16 14  1  0
 19 21  1  0
 19 18  1  6
 20 19  1  0
 21 22  1  1
 22 16  1  0
 23 21  1  0
 24 23  1  0
 25 23  2  0
M  END
$$$$
