QLT.pdb
     RDKit          3D

 25 24  0  0  1  0  0  0  0  0999 V2000
   18.2155   -7.2283  -21.9794 N   0  0  0  0  0  0  0  0  0  0  0  0
   18.0468   -8.5684  -22.4630 C   0  0  0  0  0  0  0  0  0  0  0  0
   17.5896   -8.7533  -23.6194 O   0  0  0  0  0  0  0  0  0  0  0  0
   18.3934   -9.7295  -21.6473 C   0  0  0  0  0  0  0  0  0  0  0  0
   18.8802   -9.4574  -20.2739 C   0  0  0  0  0  0  0  0  0  0  0  0
   19.9044  -10.4103  -19.7419 C   0  0  2  0  0  0  0  0  0  0  0  0
   19.3620  -11.7515  -19.8776 N   0  0  0  0  0  0  0  0  0  0  0  0
   20.1793  -10.0906  -18.3042 C   0  0  0  0  0  0  0  0  0  0  0  0
   19.4458  -10.6101  -17.4316 O   0  0  0  0  0  0  0  0  0  0  0  0
   24.0602  -10.2648  -13.9331 C   0  0  0  0  0  0  0  0  0  0  0  0
   22.8721   -9.5464  -14.4643 C   0  0  2  0  0  0  0  0  0  0  0  0
   21.6258   -9.9428  -13.6961 C   0  0  0  0  0  0  0  0  0  0  0  0
   22.6330   -9.8485  -15.9459 C   0  0  0  0  0  0  0  0  0  0  0  0
   21.4700   -9.0601  -16.4818 C   0  0  2  0  0  0  0  0  0  0  0  0
   21.2091   -9.2434  -17.8652 N   0  0  0  0  0  0  0  0  0  0  0  0
   21.7684   -7.6008  -16.2745 C   0  0  0  0  0  0  0  0  0  0  0  0
   22.7794   -7.1265  -16.8791 O   0  0  0  0  0  0  0  0  0  0  0  0
   20.3578   -3.0907  -14.9180 C   0  0  0  0  0  0  0  0  0  0  0  0
   20.0431   -4.5298  -15.1852 C   0  0  1  0  0  0  0  0  0  0  0  0
   19.2314   -4.6687  -16.2976 O   0  0  0  0  0  0  0  0  0  0  0  0
   21.2891   -5.3845  -15.3108 C   0  0  2  0  0  0  0  0  0  0  0  0
   20.9869   -6.7735  -15.4580 N   0  0  0  0  0  0  0  0  0  0  0  0
   22.1519   -5.0779  -14.1655 C   0  0  0  0  0  0  0  0  0  0  0  0
   21.9995   -5.7997  -12.9963 O   0  0  0  0  0  0  0  0  0  0  0  0
   23.0190   -4.1825  -14.2209 O   0  0  0  0  0  0  0  0  0  0  0  0
  2  4  1  0
  2  1  1  0
  3  2  2  0
  5  6  1  0
  5  4  1  0
  6  7  1  1
  8  6  1  0
  9  8  2  0
 11 10  1  1
 11 12  1  0
 13 11  1  0
 14 13  1  6
 14 15  1  0
 15  8  1  0
 16 17  2  0
 16 14  1  0
 19 21  1  0
 19 18  1  6
 20 19  1  0
 21 22  1  1
 22 16  1  0
 23 21  1  0
 24 23  1  0
 25 23  2  0
M  END
$$$$
