QLT.pdb
     RDKit          3D

 25 24  0  0  1  0  0  0  0  0999 V2000
   16.4492  -11.8164  -15.3122 N   0  0  0  0  0  0  0  0  0  0  0  0
   16.6056  -12.8293  -16.3160 C   0  0  0  0  0  0  0  0  0  0  0  0
   15.5836  -13.3614  -16.8190 O   0  0  0  0  0  0  0  0  0  0  0  0
   17.9238  -13.2614  -16.7735 C   0  0  0  0  0  0  0  0  0  0  0  0
   19.0944  -12.5820  -16.1692 C   0  0  0  0  0  0  0  0  0  0  0  0
   19.5353  -11.3183  -16.8392 C   0  0  2  0  0  0  0  0  0  0  0  0
   19.8808  -11.6514  -18.2107 N   0  0  0  0  0  0  0  0  0  0  0  0
   20.7207  -10.7598  -16.1127 C   0  0  0  0  0  0  0  0  0  0  0  0
   20.6335  -10.5990  -14.8734 O   0  0  0  0  0  0  0  0  0  0  0  0
   26.8041   -9.6440  -16.2081 C   0  0  0  0  0  0  0  0  0  0  0  0
   25.4404   -9.4291  -15.6564 C   0  0  2  0  0  0  0  0  0  0  0  0
   25.3633   -9.9257  -14.2254 C   0  0  0  0  0  0  0  0  0  0  0  0
   24.3696  -10.1593  -16.4710 C   0  0  0  0  0  0  0  0  0  0  0  0
   22.9881   -9.8152  -15.9869 C   0  0  2  0  0  0  0  0  0  0  0  0
   21.9300  -10.4020  -16.7296 N   0  0  0  0  0  0  0  0  0  0  0  0
   22.8251   -8.3233  -16.0824 C   0  0  0  0  0  0  0  0  0  0  0  0
   23.2257   -7.7657  -17.1507 O   0  0  0  0  0  0  0  0  0  0  0  0
   20.5031   -6.1543  -17.0952 C   0  0  0  0  0  0  0  0  0  0  0  0
   20.7564   -5.7242  -15.6837 C   0  0  1  0  0  0  0  0  0  0  0  0
   19.7636   -6.1794  -14.8336 O   0  0  0  0  0  0  0  0  0  0  0  0
   22.1286   -6.1359  -15.1872 C   0  0  2  0  0  0  0  0  0  0  0  0
   22.2608   -7.5530  -15.0576 N   0  0  0  0  0  0  0  0  0  0  0  0
   22.3908   -5.3947  -13.9495 C   0  0  0  0  0  0  0  0  0  0  0  0
   22.6434   -4.0373  -14.0191 O   0  0  0  0  0  0  0  0  0  0  0  0
   22.3914   -5.9590  -12.8367 O   0  0  0  0  0  0  0  0  0  0  0  0
  2  4  1  0
  2  1  1  0
  3  2  2  0
  5  6  1  0
  5  4  1  0
  6  7  1  6
  8  6  1  0
  9  8  2  0
 11 10  1  6
 11 12  1  0
 13 11  1  0
 14 13  1  6
 14 15  1  0
 15  8  1  0
 16 17  2  0
 16 14  1  0
 19 21  1  0
 19 18  1  6
 20 19  1  0
 21 22  1  1
 22 16  1  0
 23 21  1  0
 24 23  1  0
 25 23  2  0
M  END
$$$$
