QLT.pdb
     RDKit          3D

 25 24  0  0  1  0  0  0  0  0999 V2000
   21.6509  -24.2113  -13.4264 N   0  0  0  0  0  0  0  0  0  0  0  0
   20.5844  -23.4546  -14.0164 C   0  0  0  0  0  0  0  0  0  0  0  0
   19.5389  -24.0473  -14.3854 O   0  0  0  0  0  0  0  0  0  0  0  0
   20.6781  -22.0086  -14.2007 C   0  0  0  0  0  0  0  0  0  0  0  0
   21.9049  -21.3503  -13.6919 C   0  0  0  0  0  0  0  0  0  0  0  0
   21.8702  -20.9198  -12.2589 C   0  0  2  0  0  0  0  0  0  0  0  0
   20.8869  -19.8557  -12.1486 N   0  0  0  0  0  0  0  0  0  0  0  0
   23.2282  -20.4332  -11.8545 C   0  0  0  0  0  0  0  0  0  0  0  0
   23.5901  -19.2983  -12.2423 O   0  0  0  0  0  0  0  0  0  0  0  0
   25.7626  -19.0130   -8.4629 C   0  0  0  0  0  0  0  0  0  0  0  0
   25.5433  -20.4820   -8.3994 C   0  0  2  0  0  0  0  0  0  0  0  0
   26.1918  -21.0614   -7.1568 C   0  0  0  0  0  0  0  0  0  0  0  0
   26.1242  -21.2029   -9.6186 C   0  0  0  0  0  0  0  0  0  0  0  0
   25.4702  -20.7365  -10.8898 C   0  0  2  0  0  0  0  0  0  0  0  0
   24.1288  -21.1666  -11.0657 N   0  0  0  0  0  0  0  0  0  0  0  0
   26.2670  -21.2801  -12.0437 C   0  0  0  0  0  0  0  0  0  0  0  0
   26.8322  -22.4049  -11.8762 O   0  0  0  0  0  0  0  0  0  0  0  0
   26.0291  -23.4723  -14.2427 C   0  0  0  0  0  0  0  0  0  0  0  0
   26.2343  -22.2432  -15.0727 C   0  0  1  0  0  0  0  0  0  0  0  0
   25.0264  -21.7082  -15.4856 O   0  0  0  0  0  0  0  0  0  0  0  0
   27.0792  -21.1997  -14.3685 C   0  0  2  0  0  0  0  0  0  0  0  0
   26.4002  -20.6021  -13.2621 N   0  0  0  0  0  0  0  0  0  0  0  0
   27.5315  -20.2410  -15.3816 C   0  0  0  0  0  0  0  0  0  0  0  0
   28.4417  -20.6521  -16.3376 O   0  0  0  0  0  0  0  0  0  0  0  0
   27.1153  -19.0650  -15.4014 O   0  0  0  0  0  0  0  0  0  0  0  0
  2  4  1  0
  2  1  1  0
  3  2  2  0
  5  6  1  0
  5  4  1  0
  6  7  1  6
  8  6  1  0
  9  8  2  0
 11 10  1  6
 11 12  1  0
 13 11  1  0
 14 13  1  1
 14 15  1  0
 15  8  1  0
 16 17  2  0
 16 14  1  0
 19 21  1  0
 19 18  1  1
 20 19  1  0
 21 22  1  1
 22 16  1  0
 23 21  1  0
 24 23  1  0
 25 23  2  0
M  END
$$$$
