PEG.pdb
     RDKit          3D

 21 21  0  0  1  0  0  0  0  0999 V2000
    9.6371  -13.2800   19.3529 N   0  0  0  0  0  0  0  0  0  0  0  0
    8.6977  -12.5499   18.4998 C   0  0  0  0  0  0  0  0  0  0  0  0
    7.6344  -13.6333   18.2855 C   0  0  0  0  0  0  0  0  0  0  0  0
    7.4339  -14.0832   19.7384 C   0  0  0  0  0  0  0  0  0  0  0  0
    8.7829  -13.8720   20.3557 C   0  0  1  0  0  0  0  0  0  0  0  0
    9.4058  -15.1595   20.7921 C   0  0  0  0  0  0  0  0  0  0  0  0
    8.7456  -16.0243   21.4416 O   0  0  0  0  0  0  0  0  0  0  0  0
   10.7601  -15.4871   20.5081 N   0  0  0  0  0  0  0  0  0  0  0  0
   11.3872  -16.7112   20.8992 C   0  0  1  0  0  0  0  0  0  0  0  0
   12.6268  -16.9530   20.0886 C   0  0  0  0  0  0  0  0  0  0  0  0
   12.2684  -16.8523   18.6324 C   0  0  0  0  0  0  0  0  0  0  0  0
   13.4490  -17.1269   17.7787 C   0  0  0  0  0  0  0  0  0  0  0  0
   14.5792  -17.3592   18.2448 O   0  0  0  0  0  0  0  0  0  0  0  0
   11.6278  -16.7911   22.3626 C   0  0  0  0  0  0  0  0  0  0  0  0
   12.3017  -15.9000   22.9395 O   0  0  0  0  0  0  0  0  0  0  0  0
   13.2787  -17.1230   16.3981 O   0  0  0  0  0  0  0  0  0  0  0  0
   11.1233  -17.8493   23.1665 N   0  0  0  0  0  0  0  0  0  0  0  0
   11.9972  -18.6241   23.9923 C   0  0  0  0  0  0  0  0  0  0  0  0
   11.9460  -18.1984   25.4231 C   0  0  0  0  0  0  0  0  0  0  0  0
   11.0196  -17.4251   25.7596 O   0  0  0  0  0  0  0  0  0  0  0  0
   12.8565  -18.6155   26.3566 O   0  0  0  0  0  0  0  0  0  0  0  0
  1  5  1  0
  1  2  1  0
  2  3  1  0
  4  3  1  0
  5  4  1  0
  6  8  1  0
  5  6  1  6
  7  6  2  0
  9  8  1  0
  9 14  1  0
  9 10  1  6
 11 10  1  0
 12 11  1  0
 13 12  2  0
 14 17  1  0
 15 14  2  0
 16 12  1  0
 17 18  1  0
 18 19  1  0
 19 20  2  0
 19 21  1  0
M  END
$$$$
