PEG.pdb
     RDKit          3D

 21 21  0  0  1  0  0  0  0  0999 V2000
    8.2940  -13.2242   20.8564 N   0  0  0  0  0  0  0  0  0  0  0  0
    8.0209  -12.6831   19.5238 C   0  0  0  0  0  0  0  0  0  0  0  0
    7.8954  -13.9869   18.7270 C   0  0  0  0  0  0  0  0  0  0  0  0
    6.9376  -14.7552   19.6466 C   0  0  0  0  0  0  0  0  0  0  0  0
    7.2857  -14.2462   21.0123 C   0  0  1  0  0  0  0  0  0  0  0  0
    7.8495  -15.3230   21.8833 C   0  0  0  0  0  0  0  0  0  0  0  0
    7.2479  -16.4273   22.0392 O   0  0  0  0  0  0  0  0  0  0  0  0
    9.0798  -15.1747   22.5809 N   0  0  0  0  0  0  0  0  0  0  0  0
    9.6475  -16.1784   23.4265 C   0  0  1  0  0  0  0  0  0  0  0  0
   11.1008  -15.8996   23.6761 C   0  0  0  0  0  0  0  0  0  0  0  0
   11.9153  -16.8843   22.8848 C   0  0  0  0  0  0  0  0  0  0  0  0
   13.3656  -16.6424   23.0752 C   0  0  0  0  0  0  0  0  0  0  0  0
   14.2417  -17.2756   22.4587 O   0  0  0  0  0  0  0  0  0  0  0  0
    8.8734  -16.3798   24.6779 C   0  0  0  0  0  0  0  0  0  0  0  0
    8.6904  -15.4179   25.4668 O   0  0  0  0  0  0  0  0  0  0  0  0
   13.7565  -15.6641   23.9835 O   0  0  0  0  0  0  0  0  0  0  0  0
    8.3140  -17.6352   25.0404 N   0  0  0  0  0  0  0  0  0  0  0  0
    7.5827  -17.7878   26.2602 C   0  0  0  0  0  0  0  0  0  0  0  0
    8.2693  -18.7047   27.2187 C   0  0  0  0  0  0  0  0  0  0  0  0
    9.3641  -19.1963   26.8593 O   0  0  0  0  0  0  0  0  0  0  0  0
    7.7539  -19.0181   28.4477 O   0  0  0  0  0  0  0  0  0  0  0  0
  1  5  1  0
  1  2  1  0
  2  3  1  0
  4  3  1  0
  5  4  1  0
  6  8  1  0
  5  6  1  1
  7  6  2  0
  9  8  1  0
  9 14  1  0
  9 10  1  1
 11 10  1  0
 12 11  1  0
 13 12  2  0
 14 17  1  0
 15 14  2  0
 16 12  1  0
 17 18  1  0
 18 19  1  0
 19 20  2  0
 19 21  1  0
M  END
$$$$
