PEG.pdb
     RDKit          3D

 21 21  0  0  1  0  0  0  0  0999 V2000
    8.2584  -13.9910   18.1718 N   0  0  0  0  0  0  0  0  0  0  0  0
    7.1929  -13.0584   18.5437 C   0  0  0  0  0  0  0  0  0  0  0  0
    7.5319  -12.8420   20.0230 C   0  0  0  0  0  0  0  0  0  0  0  0
    9.0340  -12.5560   19.9001 C   0  0  0  0  0  0  0  0  0  0  0  0
    9.4455  -13.3701   18.7113 C   0  0  1  0  0  0  0  0  0  0  0  0
   10.4067  -14.4541   19.0816 C   0  0  0  0  0  0  0  0  0  0  0  0
   10.0190  -15.6480   19.2549 O   0  0  0  0  0  0  0  0  0  0  0  0
   11.7969  -14.2136   19.2596 N   0  0  0  0  0  0  0  0  0  0  0  0
   12.7379  -15.2127   19.6610 C   0  0  1  0  0  0  0  0  0  0  0  0
   13.9983  -15.1072   18.8533 C   0  0  0  0  0  0  0  0  0  0  0  0
   13.6445  -15.2586   17.4004 C   0  0  0  0  0  0  0  0  0  0  0  0
   14.8571  -15.1765   16.5512 C   0  0  0  0  0  0  0  0  0  0  0  0
   15.9247  -14.6739   16.9465 O   0  0  0  0  0  0  0  0  0  0  0  0
   12.9868  -15.2117   21.1252 C   0  0  0  0  0  0  0  0  0  0  0  0
   13.3608  -14.1574   21.6995 O   0  0  0  0  0  0  0  0  0  0  0  0
   14.7914  -15.6852   15.2582 O   0  0  0  0  0  0  0  0  0  0  0  0
   12.8203  -16.3695   21.9326 N   0  0  0  0  0  0  0  0  0  0  0  0
   13.0563  -16.3210   23.3426 C   0  0  0  0  0  0  0  0  0  0  0  0
   14.4576  -16.7007   23.6935 C   0  0  0  0  0  0  0  0  0  0  0  0
   15.2272  -16.9932   22.7492 O   0  0  0  0  0  0  0  0  0  0  0  0
   14.9177  -16.7387   24.9824 O   0  0  0  0  0  0  0  0  0  0  0  0
  1  5  1  0
  1  2  1  0
  2  3  1  0
  4  3  1  0
  5  4  1  0
  6  8  1  0
  5  6  1  1
  7  6  2  0
  9  8  1  0
  9 14  1  0
  9 10  1  6
 11 10  1  0
 12 11  1  0
 13 12  2  0
 14 17  1  0
 15 14  2  0
 16 12  1  0
 17 18  1  0
 18 19  1  0
 19 20  2  0
 19 21  1  0
M  END
$$$$
