PEG.pdb
     RDKit          3D

 21 21  0  0  1  0  0  0  0  0999 V2000
   11.2841  -19.9717   22.7654 N   0  0  0  0  0  0  0  0  0  0  0  0
   10.2153  -20.1724   21.7853 C   0  0  0  0  0  0  0  0  0  0  0  0
    9.0588  -19.4675   22.5034 C   0  0  0  0  0  0  0  0  0  0  0  0
    9.7567  -18.1546   22.8809 C   0  0  0  0  0  0  0  0  0  0  0  0
   11.1834  -18.5664   23.0825 C   0  0  1  0  0  0  0  0  0  0  0  0
   11.6244  -18.3792   24.4990 C   0  0  0  0  0  0  0  0  0  0  0  0
   11.5212  -17.2573   25.0788 O   0  0  0  0  0  0  0  0  0  0  0  0
   12.1797  -19.4361   25.2716 N   0  0  0  0  0  0  0  0  0  0  0  0
   12.5209  -19.3231   26.6557 C   0  0  1  0  0  0  0  0  0  0  0  0
   11.7110  -20.2805   27.4800 C   0  0  0  0  0  0  0  0  0  0  0  0
   12.0797  -20.0918   28.9248 C   0  0  0  0  0  0  0  0  0  0  0  0
   11.3413  -21.0461   29.7864 C   0  0  0  0  0  0  0  0  0  0  0  0
   11.2965  -22.2680   29.5553 O   0  0  0  0  0  0  0  0  0  0  0  0
   13.9812  -19.4421   26.8985 C   0  0  0  0  0  0  0  0  0  0  0  0
   14.4582  -19.1496   28.0246 O   0  0  0  0  0  0  0  0  0  0  0  0
   10.6721  -20.5470   30.8991 O   0  0  0  0  0  0  0  0  0  0  0  0
   14.8920  -19.8805   25.8992 N   0  0  0  0  0  0  0  0  0  0  0  0
   16.3044  -19.7567   26.0884 C   0  0  0  0  0  0  0  0  0  0  0  0
   16.8891  -18.6541   25.2678 C   0  0  0  0  0  0  0  0  0  0  0  0
   16.0989  -17.9733   24.5740 O   0  0  0  0  0  0  0  0  0  0  0  0
   18.2282  -18.3699   25.2495 O   0  0  0  0  0  0  0  0  0  0  0  0
  1  5  1  0
  1  2  1  0
  2  3  1  0
  4  3  1  0
  5  4  1  0
  6  8  1  0
  5  6  1  1
  7  6  2  0
  9  8  1  0
  9 14  1  0
  9 10  1  1
 11 10  1  0
 12 11  1  0
 13 12  2  0
 14 17  1  0
 15 14  2  0
 16 12  1  0
 17 18  1  0
 18 19  1  0
 19 20  2  0
 19 21  1  0
M  END
$$$$
