PEG.pdb
     RDKit          3D

 21 21  0  0  1  0  0  0  0  0999 V2000
    8.5604  -15.0073   20.4176 N   0  0  0  0  0  0  0  0  0  0  0  0
    8.0449  -14.5838   19.1144 C   0  0  0  0  0  0  0  0  0  0  0  0
    6.8373  -13.7525   19.5624 C   0  0  0  0  0  0  0  0  0  0  0  0
    7.5089  -12.8873   20.6365 C   0  0  0  0  0  0  0  0  0  0  0  0
    8.5821  -13.7809   21.1799 C   0  0  1  0  0  0  0  0  0  0  0  0
    8.3488  -14.1250   22.6163 C   0  0  0  0  0  0  0  0  0  0  0  0
    8.2517  -13.2246   23.5025 O   0  0  0  0  0  0  0  0  0  0  0  0
    8.2234  -15.4673   23.0690 N   0  0  0  0  0  0  0  0  0  0  0  0
    7.9201  -15.8329   24.4177 C   0  0  1  0  0  0  0  0  0  0  0  0
    7.7093  -17.3145   24.5294 C   0  0  0  0  0  0  0  0  0  0  0  0
    7.2945  -17.6295   25.9393 C   0  0  0  0  0  0  0  0  0  0  0  0
    7.1017  -19.0886   26.1186 C   0  0  0  0  0  0  0  0  0  0  0  0
    7.2466  -19.9070   25.1925 O   0  0  0  0  0  0  0  0  0  0  0  0
    8.9153  -15.3147   25.3907 C   0  0  0  0  0  0  0  0  0  0  0  0
   10.1404  -15.5394   25.2183 O   0  0  0  0  0  0  0  0  0  0  0  0
    6.7434  -19.5556   27.3790 O   0  0  0  0  0  0  0  0  0  0  0  0
    8.5465  -14.5585   26.5363 N   0  0  0  0  0  0  0  0  0  0  0  0
    9.5420  -13.9904   27.3921 C   0  0  0  0  0  0  0  0  0  0  0  0
    9.9068  -14.9031   28.5168 C   0  0  0  0  0  0  0  0  0  0  0  0
   10.3794  -14.3788   29.5518 O   0  0  0  0  0  0  0  0  0  0  0  0
    9.7453  -16.2612   28.4553 O   0  0  0  0  0  0  0  0  0  0  0  0
  1  5  1  0
  1  2  1  0
  2  3  1  0
  4  3  1  0
  5  4  1  0
  6  8  1  0
  5  6  1  1
  7  6  2  0
  9  8  1  0
  9 14  1  0
  9 10  1  6
 11 10  1  0
 12 11  1  0
 13 12  2  0
 14 17  1  0
 15 14  2  0
 16 12  1  0
 17 18  1  0
 18 19  1  0
 19 20  2  0
 19 21  1  0
M  END
$$$$
