PEG.pdb
     RDKit          3D

 21 21  0  0  1  0  0  0  0  0999 V2000
    7.8721  -14.8754   19.2400 N   0  0  0  0  0  0  0  0  0  0  0  0
    7.1890  -13.6066   18.9816 C   0  0  0  0  0  0  0  0  0  0  0  0
    7.3207  -12.9472   20.3594 C   0  0  0  0  0  0  0  0  0  0  0  0
    8.8165  -13.1782   20.6094 C   0  0  0  0  0  0  0  0  0  0  0  0
    9.0918  -14.4675   19.8969 C   0  0  1  0  0  0  0  0  0  0  0  0
    9.4935  -15.5541   20.8425 C   0  0  0  0  0  0  0  0  0  0  0  0
    8.6282  -16.2494   21.4535 O   0  0  0  0  0  0  0  0  0  0  0  0
   10.8543  -15.8689   21.1098 N   0  0  0  0  0  0  0  0  0  0  0  0
   11.2793  -16.9943   21.8828 C   0  0  1  0  0  0  0  0  0  0  0  0
   12.5799  -17.5325   21.3625 C   0  0  0  0  0  0  0  0  0  0  0  0
   12.3029  -18.3104   20.1066 C   0  0  0  0  0  0  0  0  0  0  0  0
   13.5610  -18.8338   19.5223 C   0  0  0  0  0  0  0  0  0  0  0  0
   14.2086  -19.7632   20.0376 O   0  0  0  0  0  0  0  0  0  0  0  0
   11.3119  -16.7104   23.3402 C   0  0  0  0  0  0  0  0  0  0  0  0
   11.6023  -15.5579   23.7508 O   0  0  0  0  0  0  0  0  0  0  0  0
   14.0318  -18.2566   18.3475 O   0  0  0  0  0  0  0  0  0  0  0  0
   11.0246  -17.6983   24.3209 N   0  0  0  0  0  0  0  0  0  0  0  0
   11.0219  -17.3708   25.7134 C   0  0  0  0  0  0  0  0  0  0  0  0
   10.6000  -18.5243   26.5634 C   0  0  0  0  0  0  0  0  0  0  0  0
   10.1817  -19.5483   25.9755 O   0  0  0  0  0  0  0  0  0  0  0  0
   10.6541  -18.4996   27.9312 O   0  0  0  0  0  0  0  0  0  0  0  0
  1  5  1  0
  1  2  1  0
  2  3  1  0
  4  3  1  0
  5  4  1  0
  6  8  1  0
  5  6  1  1
  7  6  2  0
  9  8  1  0
  9 14  1  0
  9 10  1  6
 11 10  1  0
 12 11  1  0
 13 12  2  0
 14 17  1  0
 15 14  2  0
 16 12  1  0
 17 18  1  0
 18 19  1  0
 19 20  2  0
 19 21  1  0
M  END
$$$$
