PEG.pdb
     RDKit          3D

 21 21  0  0  1  0  0  0  0  0999 V2000
    9.5005  -13.8148   19.2627 N   0  0  0  0  0  0  0  0  0  0  0  0
    8.6311  -13.2012   18.2573 C   0  0  0  0  0  0  0  0  0  0  0  0
    7.3428  -13.9970   18.4970 C   0  0  0  0  0  0  0  0  0  0  0  0
    7.2498  -13.8758   20.0234 C   0  0  0  0  0  0  0  0  0  0  0  0
    8.6838  -13.8112   20.4538 C   0  0  1  0  0  0  0  0  0  0  0  0
    9.0720  -14.9926   21.2842 C   0  0  0  0  0  0  0  0  0  0  0  0
    8.3223  -15.4216   22.2113 O   0  0  0  0  0  0  0  0  0  0  0  0
   10.2911  -15.6975   21.0861 N   0  0  0  0  0  0  0  0  0  0  0  0
   10.6970  -16.8294   21.8599 C   0  0  1  0  0  0  0  0  0  0  0  0
   11.9021  -17.4828   21.2494 C   0  0  0  0  0  0  0  0  0  0  0  0
   11.5246  -17.9966   19.8883 C   0  0  0  0  0  0  0  0  0  0  0  0
   12.6895  -18.6247   19.2201 C   0  0  0  0  0  0  0  0  0  0  0  0
   12.8135  -19.8568   19.0977 O   0  0  0  0  0  0  0  0  0  0  0  0
   10.8799  -16.5061   23.2979 C   0  0  0  0  0  0  0  0  0  0  0  0
   11.6111  -15.5414   23.6383 O   0  0  0  0  0  0  0  0  0  0  0  0
   13.6829  -17.7949   18.7104 O   0  0  0  0  0  0  0  0  0  0  0  0
   10.2557  -17.2487   24.3368 N   0  0  0  0  0  0  0  0  0  0  0  0
   10.4282  -16.8798   25.7080 C   0  0  0  0  0  0  0  0  0  0  0  0
   11.0724  -17.9646   26.5074 C   0  0  0  0  0  0  0  0  0  0  0  0
   11.4833  -18.9707   25.8842 O   0  0  0  0  0  0  0  0  0  0  0  0
   11.2249  -17.8973   27.8663 O   0  0  0  0  0  0  0  0  0  0  0  0
  1  5  1  0
  1  2  1  0
  2  3  1  0
  4  3  1  0
  5  4  1  0
  6  8  1  0
  5  6  1  1
  7  6  2  0
  9  8  1  0
  9 14  1  0
  9 10  1  6
 11 10  1  0
 12 11  1  0
 13 12  2  0
 14 17  1  0
 15 14  2  0
 16 12  1  0
 17 18  1  0
 18 19  1  0
 19 20  2  0
 19 21  1  0
M  END
$$$$
