PEG.pdb
     RDKit          3D

 21 21  0  0  1  0  0  0  0  0999 V2000
    8.4369  -14.9825   19.9762 N   0  0  0  0  0  0  0  0  0  0  0  0
    8.1127  -14.2837   18.7313 C   0  0  0  0  0  0  0  0  0  0  0  0
    7.0122  -13.3415   19.2329 C   0  0  0  0  0  0  0  0  0  0  0  0
    7.7095  -12.7761   20.4768 C   0  0  0  0  0  0  0  0  0  0  0  0
    8.5785  -13.9089   20.9318 C   0  0  1  0  0  0  0  0  0  0  0  0
    8.1662  -14.4261   22.2729 C   0  0  0  0  0  0  0  0  0  0  0  0
    7.9856  -13.6445   23.2537 O   0  0  0  0  0  0  0  0  0  0  0  0
    7.9546  -15.8094   22.5254 N   0  0  0  0  0  0  0  0  0  0  0  0
    7.4447  -16.3304   23.7556 C   0  0  1  0  0  0  0  0  0  0  0  0
    6.6815  -17.6002   23.5163 C   0  0  0  0  0  0  0  0  0  0  0  0
    5.7013  -17.3616   22.4021 C   0  0  0  0  0  0  0  0  0  0  0  0
    4.9966  -18.6154   22.0424 C   0  0  0  0  0  0  0  0  0  0  0  0
    5.1916  -19.6925   22.6344 O   0  0  0  0  0  0  0  0  0  0  0  0
    8.4937  -16.4731   24.7973 C   0  0  0  0  0  0  0  0  0  0  0  0
    9.6660  -16.7898   24.4711 O   0  0  0  0  0  0  0  0  0  0  0  0
    4.0795  -18.5789   20.9971 O   0  0  0  0  0  0  0  0  0  0  0  0
    8.2357  -16.2650   26.1795 N   0  0  0  0  0  0  0  0  0  0  0  0
    9.2925  -16.3309   27.1412 C   0  0  0  0  0  0  0  0  0  0  0  0
    9.4511  -17.7020   27.7121 C   0  0  0  0  0  0  0  0  0  0  0  0
    8.7707  -18.6202   27.1989 O   0  0  0  0  0  0  0  0  0  0  0  0
   10.2953  -17.9816   28.7530 O   0  0  0  0  0  0  0  0  0  0  0  0
  1  5  1  0
  1  2  1  0
  2  3  1  0
  4  3  1  0
  5  4  1  0
  6  8  1  0
  5  6  1  1
  7  6  2  0
  9  8  1  0
  9 14  1  0
  9 10  1  6
 11 10  1  0
 12 11  1  0
 13 12  2  0
 14 17  1  0
 15 14  2  0
 16 12  1  0
 17 18  1  0
 18 19  1  0
 19 20  2  0
 19 21  1  0
M  END
$$$$
