PEG.pdb
     RDKit          3D

 21 21  0  0  1  0  0  0  0  0999 V2000
    8.7161  -14.5804   18.9321 N   0  0  0  0  0  0  0  0  0  0  0  0
    8.2088  -13.8370   17.7775 C   0  0  0  0  0  0  0  0  0  0  0  0
    7.0809  -13.0426   18.4461 C   0  0  0  0  0  0  0  0  0  0  0  0
    7.8418  -12.4938   19.6599 C   0  0  0  0  0  0  0  0  0  0  0  0
    8.8515  -13.5629   19.9480 C   0  0  1  0  0  0  0  0  0  0  0  0
    8.6218  -14.2048   21.2789 C   0  0  0  0  0  0  0  0  0  0  0  0
    8.5200  -13.5130   22.3356 O   0  0  0  0  0  0  0  0  0  0  0  0
    8.5051  -15.6132   21.4372 N   0  0  0  0  0  0  0  0  0  0  0  0
    8.3600  -16.2683   22.6999 C   0  0  1  0  0  0  0  0  0  0  0  0
    7.6134  -17.5605   22.5427 C   0  0  0  0  0  0  0  0  0  0  0  0
    6.1460  -17.2511   22.4415 C   0  0  0  0  0  0  0  0  0  0  0  0
    5.3537  -18.4957   22.2950 C   0  0  0  0  0  0  0  0  0  0  0  0
    4.5603  -18.6835   21.3550 O   0  0  0  0  0  0  0  0  0  0  0  0
    9.6518  -16.4293   23.4149 C   0  0  0  0  0  0  0  0  0  0  0  0
   10.7030  -15.9332   22.9354 O   0  0  0  0  0  0  0  0  0  0  0  0
    5.5090  -19.4920   23.2533 O   0  0  0  0  0  0  0  0  0  0  0  0
    9.7656  -17.1329   24.6447 N   0  0  0  0  0  0  0  0  0  0  0  0
   11.0274  -17.2526   25.3075 C   0  0  0  0  0  0  0  0  0  0  0  0
   10.8946  -17.8494   26.6703 C   0  0  0  0  0  0  0  0  0  0  0  0
    9.7381  -18.1195   27.0689 O   0  0  0  0  0  0  0  0  0  0  0  0
   11.9695  -18.1049   27.4788 O   0  0  0  0  0  0  0  0  0  0  0  0
  1  5  1  0
  1  2  1  0
  2  3  1  0
  4  3  1  0
  5  4  1  0
  6  8  1  0
  5  6  1  1
  7  6  2  0
  9  8  1  0
  9 14  1  0
  9 10  1  6
 11 10  1  0
 12 11  1  0
 13 12  2  0
 14 17  1  0
 15 14  2  0
 16 12  1  0
 17 18  1  0
 18 19  1  0
 19 20  2  0
 19 21  1  0
M  END
$$$$
