SCA.pdb
     RDKit          3D

 18 17  0  0  1  0  0  0  0  0999 V2000
    7.5399  -17.2612   21.8584 O   0  0  0  0  0  0  0  0  0  0  0  0
    6.7263  -16.2165   21.4059 C   0  0  0  0  0  0  0  0  0  0  0  0
    7.4988  -14.9148   21.3674 C   0  0  2  0  0  0  0  0  0  0  0  0
    8.4516  -14.9897   20.3037 N   0  0  0  0  0  0  0  0  0  0  0  0
    8.0528  -14.5443   22.6715 C   0  0  0  0  0  0  0  0  0  0  0  0
    9.2445  -14.7507   22.9260 O   0  0  0  0  0  0  0  0  0  0  0  0
    7.2304  -13.9330   23.6883 N   0  0  0  0  0  0  0  0  0  0  0  0
    7.7528  -13.6572   25.0081 C   0  0  1  0  0  0  0  0  0  0  0  0
    6.7696  -12.8607   25.8423 C   0  0  0  0  0  0  0  0  0  0  0  0
    7.4384  -12.5910   27.5261 S   0  0  0  0  0  0  0  0  0  0  0  0
    8.2050  -14.8825   25.6976 C   0  0  0  0  0  0  0  0  0  0  0  0
    7.4214  -15.8500   25.8882 O   0  0  0  0  0  0  0  0  0  0  0  0
   11.2237  -16.7837   26.4341 C   0  0  0  0  0  0  0  0  0  0  0  0
    9.9406  -16.1948   26.9521 C   0  0  2  0  0  0  0  0  0  0  0  0
    9.5362  -15.0197   26.1718 N   0  0  0  0  0  0  0  0  0  0  0  0
   10.0842  -15.8330   28.3833 C   0  0  0  0  0  0  0  0  0  0  0  0
   10.4289  -16.6864   29.2244 O   0  0  0  0  0  0  0  0  0  0  0  0
    9.8334  -14.5222   28.8091 O   0  0  0  0  0  0  0  0  0  0  0  0
  2  1  1  0
  3  5  1  0
  3  2  1  0
  3  4  1  6
  5  6  2  0
  7  8  1  0
  7  5  1  0
  8  9  1  1
 10  9  1  0
 11 15  1  0
 11  8  1  0
 12 11  2  0
 14 13  1  6
 14 15  1  0
 16 14  1  0
 16 18  1  0
 17 16  2  0
M  END
$$$$
