SCA.pdb
     RDKit          3D

 18 17  0  0  1  0  0  0  0  0999 V2000
    7.3537  -17.3626   21.7270 O   0  0  0  0  0  0  0  0  0  0  0  0
    6.6772  -16.1909   21.3698 C   0  0  0  0  0  0  0  0  0  0  0  0
    7.6269  -15.0119   21.3423 C   0  0  2  0  0  0  0  0  0  0  0  0
    8.4767  -15.1467   20.2000 N   0  0  0  0  0  0  0  0  0  0  0  0
    8.3246  -14.8148   22.6148 C   0  0  0  0  0  0  0  0  0  0  0  0
    9.5089  -15.1465   22.7363 O   0  0  0  0  0  0  0  0  0  0  0  0
    7.6552  -14.2328   23.7537 N   0  0  0  0  0  0  0  0  0  0  0  0
    8.3129  -14.1309   25.0373 C   0  0  1  0  0  0  0  0  0  0  0  0
    7.5959  -13.1624   25.9565 C   0  0  0  0  0  0  0  0  0  0  0  0
    8.4614  -13.0573   27.5674 S   0  0  0  0  0  0  0  0  0  0  0  0
    8.5166  -15.4510   25.6675 C   0  0  0  0  0  0  0  0  0  0  0  0
    7.5672  -16.2702   25.7855 O   0  0  0  0  0  0  0  0  0  0  0  0
   11.0491  -17.9540   26.1235 C   0  0  0  0  0  0  0  0  0  0  0  0
    9.9684  -17.1581   26.8016 C   0  0  2  0  0  0  0  0  0  0  0  0
    9.7858  -15.8492   26.1639 N   0  0  0  0  0  0  0  0  0  0  0  0
   10.2853  -16.9856   28.2403 C   0  0  0  0  0  0  0  0  0  0  0  0
   10.4283  -15.8475   28.7290 O   0  0  0  0  0  0  0  0  0  0  0  0
   10.4281  -18.1045   29.0711 O   0  0  0  0  0  0  0  0  0  0  0  0
  2  1  1  0
  3  5  1  0
  3  2  1  0
  3  4  1  6
  5  6  2  0
  7  8  1  0
  7  5  1  0
  8  9  1  1
 10  9  1  0
 11 15  1  0
 11  8  1  0
 12 11  2  0
 14 13  1  6
 14 15  1  0
 16 14  1  0
 16 18  1  0
 17 16  2  0
M  END
$$$$
