SCA.pdb
     RDKit          3D

 18 17  0  0  1  0  0  0  0  0999 V2000
    8.5470  -15.8578   17.7384 O   0  0  0  0  0  0  0  0  0  0  0  0
    7.3666  -15.1170   17.8644 C   0  0  0  0  0  0  0  0  0  0  0  0
    7.6468  -13.7656   18.4872 C   0  0  2  0  0  0  0  0  0  0  0  0
    8.3621  -12.9727   17.5360 N   0  0  0  0  0  0  0  0  0  0  0  0
    8.2742  -13.8674   19.8066 C   0  0  0  0  0  0  0  0  0  0  0  0
    9.4995  -13.7598   19.9262 O   0  0  0  0  0  0  0  0  0  0  0  0
    7.4866  -14.0946   20.9950 N   0  0  0  0  0  0  0  0  0  0  0  0
    8.1135  -14.2808   22.2845 C   0  0  1  0  0  0  0  0  0  0  0  0
    7.1281  -14.0793   23.4184 C   0  0  0  0  0  0  0  0  0  0  0  0
    7.9544  -14.3434   25.0317 S   0  0  0  0  0  0  0  0  0  0  0  0
    8.8187  -15.5747   22.3817 C   0  0  0  0  0  0  0  0  0  0  0  0
    8.2720  -16.6448   22.0042 O   0  0  0  0  0  0  0  0  0  0  0  0
   12.2286  -16.9018   22.5534 C   0  0  0  0  0  0  0  0  0  0  0  0
   10.8059  -16.9642   23.0364 C   0  0  2  0  0  0  0  0  0  0  0  0
   10.1364  -15.6653   22.9024 N   0  0  0  0  0  0  0  0  0  0  0  0
   10.7637  -17.4174   24.4481 C   0  0  0  0  0  0  0  0  0  0  0  0
   10.2274  -16.7142   25.3270 O   0  0  0  0  0  0  0  0  0  0  0  0
   11.3280  -18.6468   24.8123 O   0  0  0  0  0  0  0  0  0  0  0  0
  2  1  1  0
  3  5  1  0
  3  2  1  0
  3  4  1  6
  5  6  2  0
  7  8  1  0
  7  5  1  0
  8  9  1  1
 10  9  1  0
 11 15  1  0
 11  8  1  0
 12 11  2  0
 14 13  1  1
 14 15  1  0
 16 14  1  0
 16 18  1  0
 17 16  2  0
M  END
$$$$
