SCA.pdb
     RDKit          3D

 18 17  0  0  1  0  0  0  0  0999 V2000
   -2.4146  -28.1248   27.2530 O   0  0  0  0  0  0  0  0  0  0  0  0
   -2.9324  -27.8859   28.5309 C   0  0  0  0  0  0  0  0  0  0  0  0
   -2.0584  -26.9086   29.2883 C   0  0  2  0  0  0  0  0  0  0  0  0
   -1.6557  -27.5240   30.5148 N   0  0  0  0  0  0  0  0  0  0  0  0
   -2.6745  -25.5876   29.4301 C   0  0  0  0  0  0  0  0  0  0  0  0
   -2.6353  -24.9924   30.5125 O   0  0  0  0  0  0  0  0  0  0  0  0
   -3.3395  -24.9482   28.3197 N   0  0  0  0  0  0  0  0  0  0  0  0
   -3.9339  -23.6373   28.4570 C   0  0  1  0  0  0  0  0  0  0  0  0
   -3.3547  -22.6546   27.4590 C   0  0  0  0  0  0  0  0  0  0  0  0
   -4.2740  -21.0715   27.5207 S   0  0  0  0  0  0  0  0  0  0  0  0
   -5.4090  -23.6837   28.4023 C   0  0  0  0  0  0  0  0  0  0  0  0
   -6.0098  -24.1307   27.3895 O   0  0  0  0  0  0  0  0  0  0  0  0
   -8.2367  -24.3032   30.3530 C   0  0  0  0  0  0  0  0  0  0  0  0
   -7.6721  -23.2751   29.4120 C   0  0  2  0  0  0  0  0  0  0  0  0
   -6.2073  -23.2285   29.4845 N   0  0  0  0  0  0  0  0  0  0  0  0
   -8.2413  -21.9387   29.7121 C   0  0  0  0  0  0  0  0  0  0  0  0
   -7.5535  -21.0659   30.2776 O   0  0  0  0  0  0  0  0  0  0  0  0
   -9.5643  -21.6396   29.3619 O   0  0  0  0  0  0  0  0  0  0  0  0
  2  1  1  0
  3  5  1  0
  3  2  1  0
  3  4  1  1
  5  6  2  0
  7  8  1  0
  7  5  1  0
  8  9  1  6
 10  9  1  0
 11 15  1  0
 11  8  1  0
 12 11  2  0
 14 13  1  1
 14 15  1  0
 16 14  1  0
 16 18  1  0
 17 16  2  0
M  END
$$$$
