SCA.pdb
     RDKit          3D

 18 17  0  0  1  0  0  0  0  0999 V2000
    6.5693  -16.6157   21.1044 O   0  0  0  0  0  0  0  0  0  0  0  0
    6.0449  -15.3208   21.0247 C   0  0  0  0  0  0  0  0  0  0  0  0
    7.1552  -14.2915   21.0459 C   0  0  2  0  0  0  0  0  0  0  0  0
    7.9056  -14.4159   19.8349 N   0  0  0  0  0  0  0  0  0  0  0  0
    7.9495  -14.3381   22.2754 C   0  0  0  0  0  0  0  0  0  0  0  0
    9.1196  -14.7351   22.2491 O   0  0  0  0  0  0  0  0  0  0  0  0
    7.3936  -13.9257   23.5422 N   0  0  0  0  0  0  0  0  0  0  0  0
    8.1567  -14.0340   24.7656 C   0  0  1  0  0  0  0  0  0  0  0  0
    7.5500  -13.2016   25.8774 C   0  0  0  0  0  0  0  0  0  0  0  0
    5.7843  -13.6337   26.1024 S   0  0  0  0  0  0  0  0  0  0  0  0
    8.3664  -15.4386   25.1712 C   0  0  0  0  0  0  0  0  0  0  0  0
    7.4119  -16.2601   25.1925 O   0  0  0  0  0  0  0  0  0  0  0  0
   10.9445  -17.9649   25.1556 C   0  0  0  0  0  0  0  0  0  0  0  0
    9.8403  -17.3188   25.9460 C   0  0  2  0  0  0  0  0  0  0  0  0
    9.6471  -15.9185   25.5521 N   0  0  0  0  0  0  0  0  0  0  0  0
   10.1312  -17.4056   27.3978 C   0  0  0  0  0  0  0  0  0  0  0  0
   10.2992  -18.5115   27.9486 O   0  0  0  0  0  0  0  0  0  0  0  0
   10.2213  -16.2410   28.1710 O   0  0  0  0  0  0  0  0  0  0  0  0
  2  1  1  0
  3  5  1  0
  3  2  1  0
  3  4  1  6
  5  6  2  0
  7  8  1  0
  7  5  1  0
  8  9  1  1
 10  9  1  0
 11 15  1  0
 11  8  1  0
 12 11  2  0
 14 13  1  6
 14 15  1  0
 16 14  1  0
 16 18  1  0
 17 16  2  0
M  END
$$$$
