SCA.pdb
     RDKit          3D

 18 17  0  0  1  0  0  0  0  0999 V2000
   10.2722  -17.7834   20.4193 O   0  0  0  0  0  0  0  0  0  0  0  0
    9.6895  -17.3279   21.6072 C   0  0  0  0  0  0  0  0  0  0  0  0
    8.9509  -16.0264   21.3763 C   0  0  2  0  0  0  0  0  0  0  0  0
    9.4407  -15.4409   20.1670 N   0  0  0  0  0  0  0  0  0  0  0  0
    8.9737  -15.1452   22.5458 C   0  0  0  0  0  0  0  0  0  0  0  0
    9.7503  -14.1849   22.5899 O   0  0  0  0  0  0  0  0  0  0  0  0
    8.0976  -15.3708   23.6708 N   0  0  0  0  0  0  0  0  0  0  0  0
    8.1518  -14.5263   24.8432 C   0  0  1  0  0  0  0  0  0  0  0  0
    6.7909  -14.3904   25.4965 C   0  0  0  0  0  0  0  0  0  0  0  0
    6.1992  -16.0243   26.0758 S   0  0  0  0  0  0  0  0  0  0  0  0
    9.1886  -14.9636   25.7998 C   0  0  0  0  0  0  0  0  0  0  0  0
    9.7083  -16.1081   25.7194 O   0  0  0  0  0  0  0  0  0  0  0  0
   10.9430  -13.5234   28.8400 C   0  0  0  0  0  0  0  0  0  0  0  0
   10.6214  -14.5883   27.8281 C   0  0  2  0  0  0  0  0  0  0  0  0
    9.6402  -14.1154   26.8449 N   0  0  0  0  0  0  0  0  0  0  0  0
   10.1166  -15.8057   28.5087 C   0  0  0  0  0  0  0  0  0  0  0  0
   10.8368  -16.4317   29.3111 O   0  0  0  0  0  0  0  0  0  0  0  0
    8.8186  -16.2687   28.2571 O   0  0  0  0  0  0  0  0  0  0  0  0
  2  1  1  0
  3  5  1  0
  3  2  1  0
  3  4  1  6
  5  6  2  0
  7  8  1  0
  7  5  1  0
  8  9  1  1
 10  9  1  0
 11 15  1  0
 11  8  1  0
 12 11  2  0
 14 13  1  1
 14 15  1  0
 16 14  1  0
 16 18  1  0
 17 16  2  0
M  END
$$$$
