SCA.pdb
     RDKit          3D

 18 17  0  0  1  0  0  0  0  0999 V2000
    6.7449  -16.5626   21.1169 O   0  0  0  0  0  0  0  0  0  0  0  0
    6.1418  -15.3015   21.0546 C   0  0  0  0  0  0  0  0  0  0  0  0
    7.1825  -14.2055   21.1462 C   0  0  2  0  0  0  0  0  0  0  0  0
    7.9684  -14.2319   19.9516 N   0  0  0  0  0  0  0  0  0  0  0  0
    7.9484  -14.2522   22.3936 C   0  0  0  0  0  0  0  0  0  0  0  0
    9.1235  -14.6348   22.3917 O   0  0  0  0  0  0  0  0  0  0  0  0
    7.3581  -13.8564   23.6501 N   0  0  0  0  0  0  0  0  0  0  0  0
    8.0808  -13.9979   24.8945 C   0  0  1  0  0  0  0  0  0  0  0  0
    7.3912  -13.2636   26.0269 C   0  0  0  0  0  0  0  0  0  0  0  0
    5.6704  -13.8621   26.2164 S   0  0  0  0  0  0  0  0  0  0  0  0
    8.3488  -15.4115   25.2277 C   0  0  0  0  0  0  0  0  0  0  0  0
    7.5090  -16.3131   24.9667 O   0  0  0  0  0  0  0  0  0  0  0  0
   10.8498  -17.8095   25.2473 C   0  0  0  0  0  0  0  0  0  0  0  0
    9.8158  -17.2208   26.1670 C   0  0  2  0  0  0  0  0  0  0  0  0
    9.5593  -15.8106   25.8532 N   0  0  0  0  0  0  0  0  0  0  0  0
   10.2479  -17.3597   27.5791 C   0  0  0  0  0  0  0  0  0  0  0  0
   10.3142  -16.3633   28.3257 O   0  0  0  0  0  0  0  0  0  0  0  0
   10.5877  -18.6176   28.0933 O   0  0  0  0  0  0  0  0  0  0  0  0
  2  1  1  0
  3  5  1  0
  3  2  1  0
  3  4  1  6
  5  6  2  0
  7  8  1  0
  7  5  1  0
  8  9  1  1
 10  9  1  0
 11 15  1  0
 11  8  1  0
 12 11  2  0
 14 13  1  6
 14 15  1  0
 16 14  1  0
 16 18  1  0
 17 16  2  0
M  END
$$$$
