SCA.pdb
     RDKit          3D

 18 17  0  0  1  0  0  0  0  0999 V2000
    9.5072  -18.5328   22.4384 O   0  0  0  0  0  0  0  0  0  0  0  0
    8.7622  -17.3843   22.1483 C   0  0  0  0  0  0  0  0  0  0  0  0
    9.6431  -16.1531   22.1786 C   0  0  2  0  0  0  0  0  0  0  0  0
   10.6724  -16.3136   21.1988 N   0  0  0  0  0  0  0  0  0  0  0  0
   10.1146  -15.8252   23.5257 C   0  0  0  0  0  0  0  0  0  0  0  0
   11.2712  -16.0964   23.8665 O   0  0  0  0  0  0  0  0  0  0  0  0
    9.2499  -15.1815   24.4859 N   0  0  0  0  0  0  0  0  0  0  0  0
    9.6851  -14.9436   25.8441 C   0  0  1  0  0  0  0  0  0  0  0  0
    8.8621  -13.8603   26.5122 C   0  0  0  0  0  0  0  0  0  0  0  0
    9.4639  -13.5666   28.2171 S   0  0  0  0  0  0  0  0  0  0  0  0
    9.7272  -16.1848   26.6433 C   0  0  0  0  0  0  0  0  0  0  0  0
    8.7333  -16.9563   26.7017 O   0  0  0  0  0  0  0  0  0  0  0  0
   12.1521  -18.5974   27.8885 C   0  0  0  0  0  0  0  0  0  0  0  0
   10.9109  -17.7946   28.1649 C   0  0  2  0  0  0  0  0  0  0  0  0
   10.8850  -16.5580   27.3754 N   0  0  0  0  0  0  0  0  0  0  0  0
   10.8162  -17.4795   29.6112 C   0  0  0  0  0  0  0  0  0  0  0  0
   10.8117  -16.2970   30.0064 O   0  0  0  0  0  0  0  0  0  0  0  0
   10.7300  -18.5114   30.5547 O   0  0  0  0  0  0  0  0  0  0  0  0
  2  1  1  0
  3  5  1  0
  3  2  1  0
  3  4  1  6
  5  6  2  0
  7  8  1  0
  7  5  1  0
  8  9  1  1
 10  9  1  0
 11 15  1  0
 11  8  1  0
 12 11  2  0
 14 13  1  1
 14 15  1  0
 16 14  1  0
 16 18  1  0
 17 16  2  0
M  END
$$$$
