SCA.pdb
     RDKit          3D

 18 17  0  0  1  0  0  0  0  0999 V2000
   -1.2558  -28.2346   31.5951 O   0  0  0  0  0  0  0  0  0  0  0  0
   -1.6021  -26.9085   31.3128 C   0  0  0  0  0  0  0  0  0  0  0  0
   -1.3838  -26.5989   29.8468 C   0  0  2  0  0  0  0  0  0  0  0  0
    0.0229  -26.4802   29.6179 N   0  0  0  0  0  0  0  0  0  0  0  0
   -2.1860  -25.4661   29.3800 C   0  0  0  0  0  0  0  0  0  0  0  0
   -1.6977  -24.3318   29.3321 O   0  0  0  0  0  0  0  0  0  0  0  0
   -3.5580  -25.6400   28.9661 N   0  0  0  0  0  0  0  0  0  0  0  0
   -4.3337  -24.5300   28.4592 C   0  0  1  0  0  0  0  0  0  0  0  0
   -4.9176  -24.8344   27.0941 C   0  0  0  0  0  0  0  0  0  0  0  0
   -6.0067  -26.3044   27.1833 S   0  0  0  0  0  0  0  0  0  0  0  0
   -5.3632  -24.0828   29.4191 C   0  0  0  0  0  0  0  0  0  0  0  0
   -5.9729  -24.9064   30.1515 O   0  0  0  0  0  0  0  0  0  0  0  0
   -6.5919  -20.8067   30.8257 C   0  0  0  0  0  0  0  0  0  0  0  0
   -6.7030  -22.2792   30.5414 C   0  0  2  0  0  0  0  0  0  0  0  0
   -5.7063  -22.7119   29.5553 N   0  0  0  0  0  0  0  0  0  0  0  0
   -8.0688  -22.6072   30.0651 C   0  0  0  0  0  0  0  0  0  0  0  0
   -8.2644  -22.9588   28.8849 O   0  0  0  0  0  0  0  0  0  0  0  0
   -9.1603  -22.5259   30.9394 O   0  0  0  0  0  0  0  0  0  0  0  0
  2  1  1  0
  3  5  1  0
  3  2  1  0
  3  4  1  1
  5  6  2  0
  7  8  1  0
  7  5  1  0
  8  9  1  6
 10  9  1  0
 11 15  1  0
 11  8  1  0
 12 11  2  0
 14 13  1  6
 14 15  1  0
 16 14  1  0
 16 18  1  0
 17 16  2  0
M  END
$$$$
