SCA.pdb
     RDKit          3D

 18 17  0  0  1  0  0  0  0  0999 V2000
    8.3148  -18.9168   19.5818 O   0  0  0  0  0  0  0  0  0  0  0  0
    7.4523  -17.8648   19.2536 C   0  0  0  0  0  0  0  0  0  0  0  0
    8.2337  -16.5957   18.9862 C   0  0  2  0  0  0  0  0  0  0  0  0
    8.9123  -16.7415   17.7358 N   0  0  0  0  0  0  0  0  0  0  0  0
    9.0850  -16.2050   20.1120 C   0  0  0  0  0  0  0  0  0  0  0  0
   10.3141  -16.3047   20.0304 O   0  0  0  0  0  0  0  0  0  0  0  0
    8.5181  -15.6968   21.3385 N   0  0  0  0  0  0  0  0  0  0  0  0
    9.3569  -15.3540   22.4654 C   0  0  1  0  0  0  0  0  0  0  0  0
    8.5951  -14.5582   23.5064 C   0  0  0  0  0  0  0  0  0  0  0  0
    7.2177  -15.5566   24.1854 S   0  0  0  0  0  0  0  0  0  0  0  0
   10.0244  -16.5366   23.0458 C   0  0  0  0  0  0  0  0  0  0  0  0
    9.4704  -17.6678   23.0363 O   0  0  0  0  0  0  0  0  0  0  0  0
   13.4647  -17.6168   23.8082 C   0  0  0  0  0  0  0  0  0  0  0  0
   11.9971  -17.6457   24.1349 C   0  0  2  0  0  0  0  0  0  0  0  0
   11.3127  -16.4476   23.6357 N   0  0  0  0  0  0  0  0  0  0  0  0
   11.8008  -17.7734   25.5995 C   0  0  0  0  0  0  0  0  0  0  0  0
   11.9216  -18.8784   26.1643 O   0  0  0  0  0  0  0  0  0  0  0  0
   11.4763  -16.6489   26.3693 O   0  0  0  0  0  0  0  0  0  0  0  0
  2  1  1  0
  3  5  1  0
  3  2  1  0
  3  4  1  6
  5  6  2  0
  7  8  1  0
  7  5  1  0
  8  9  1  1
 10  9  1  0
 11 15  1  0
 11  8  1  0
 12 11  2  0
 14 13  1  1
 14 15  1  0
 16 14  1  0
 16 18  1  0
 17 16  2  0
M  END
$$$$
