SIS.pdb
     RDKit          3D

 21 20  0  0  1  0  0  0  0  0999 V2000
    6.0361  -17.0524   20.2415 O   0  0  0  0  0  0  0  0  0  0  0  0
    6.8475  -16.6488   21.2747 C   0  0  0  0  0  0  0  0  0  0  0  0
    7.1192  -15.1677   21.2953 C   0  0  2  0  0  0  0  0  0  0  0  0
    7.9291  -14.8332   20.1544 N   0  0  0  0  0  0  0  0  0  0  0  0
    7.9068  -14.8736   22.5215 C   0  0  0  0  0  0  0  0  0  0  0  0
    9.1726  -14.9079   22.5477 O   0  0  0  0  0  0  0  0  0  0  0  0
    5.8755  -11.5477   26.4344 C   0  0  0  0  0  0  0  0  0  0  0  0
    6.7865  -12.1851   25.4030 C   0  0  0  0  0  0  0  0  0  0  0  0
    7.3045  -13.4622   25.9798 C   0  0  2  0  0  0  0  0  0  0  0  0
    8.1556  -13.2151   27.1884 C   0  0  0  0  0  0  0  0  0  0  0  0
    8.0018  -14.3396   24.9734 C   0  0  2  0  0  0  0  0  0  0  0  0
    7.2656  -14.5286   23.7655 N   0  0  0  0  0  0  0  0  0  0  0  0
    8.3932  -15.6348   25.6089 C   0  0  0  0  0  0  0  0  0  0  0  0
    7.4915  -16.3546   26.1093 O   0  0  0  0  0  0  0  0  0  0  0  0
   12.1643  -17.2700   25.1684 O   0  0  0  0  0  0  0  0  0  0  0  0
   11.1249  -18.0979   25.5467 C   0  0  0  0  0  0  0  0  0  0  0  0
   10.0131  -17.3661   26.2604 C   0  0  2  0  0  0  0  0  0  0  0  0
    9.7210  -16.0860   25.6736 N   0  0  0  0  0  0  0  0  0  0  0  0
   10.4278  -17.2354   27.6899 C   0  0  0  0  0  0  0  0  0  0  0  0
   10.5267  -16.1039   28.2364 O   0  0  0  0  0  0  0  0  0  0  0  0
   10.6983  -18.4037   28.3881 O   0  0  0  0  0  0  0  0  0  0  0  0
  2  1  1  0
  3  4  1  6
  3  2  1  0
  5  3  1  0
  6  5  2  0
  8  9  1  0
  8  7  1  0
  9 11  1  0
  9 10  1  1
 11 13  1  0
 11 12  1  6
 12  5  1  0
 13 18  1  0
 14 13  2  0
 17 16  1  6
 16 15  1  0
 17 19  1  0
 18 17  1  0
 19 20  2  0
 19 21  1  0
M  END
$$$$
