SIS.pdb
     RDKit          3D

 21 20  0  0  1  0  0  0  0  0999 V2000
    7.3107  -16.9714   21.4180 O   0  0  0  0  0  0  0  0  0  0  0  0
    6.3867  -15.9983   21.1215 C   0  0  0  0  0  0  0  0  0  0  0  0
    6.9502  -14.6017   21.1178 C   0  0  2  0  0  0  0  0  0  0  0  0
    7.8191  -14.4598   19.9801 N   0  0  0  0  0  0  0  0  0  0  0  0
    7.7717  -14.4467   22.3472 C   0  0  0  0  0  0  0  0  0  0  0  0
    9.0379  -14.4759   22.3336 O   0  0  0  0  0  0  0  0  0  0  0  0
    5.8938  -11.4955   26.6170 C   0  0  0  0  0  0  0  0  0  0  0  0
    6.7626  -12.0467   25.5028 C   0  0  0  0  0  0  0  0  0  0  0  0
    7.2674  -13.3839   25.9377 C   0  0  2  0  0  0  0  0  0  0  0  0
    8.1369  -13.2752   27.1535 C   0  0  0  0  0  0  0  0  0  0  0  0
    7.9385  -14.1625   24.8366 C   0  0  2  0  0  0  0  0  0  0  0  0
    7.1655  -14.2520   23.6404 N   0  0  0  0  0  0  0  0  0  0  0  0
    8.3593  -15.5045   25.3431 C   0  0  0  0  0  0  0  0  0  0  0  0
    7.4757  -16.2851   25.7807 O   0  0  0  0  0  0  0  0  0  0  0  0
   12.2821  -16.9630   25.0247 O   0  0  0  0  0  0  0  0  0  0  0  0
   11.2199  -17.8439   25.0937 C   0  0  0  0  0  0  0  0  0  0  0  0
   10.0143  -17.2657   25.7962 C   0  0  2  0  0  0  0  0  0  0  0  0
    9.6955  -15.9350   25.3535 N   0  0  0  0  0  0  0  0  0  0  0  0
   10.3062  -17.3042   27.2610 C   0  0  0  0  0  0  0  0  0  0  0  0
   10.2919  -16.2513   27.9538 O   0  0  0  0  0  0  0  0  0  0  0  0
   10.5921  -18.5392   27.8254 O   0  0  0  0  0  0  0  0  0  0  0  0
  2  1  1  0
  3  4  1  6
  3  2  1  0
  5  3  1  0
  6  5  2  0
  8  9  1  0
  8  7  1  0
  9 11  1  0
  9 10  1  1
 11 13  1  0
 11 12  1  6
 12  5  1  0
 13 18  1  0
 14 13  2  0
 17 16  1  6
 16 15  1  0
 17 19  1  0
 18 17  1  0
 19 20  2  0
 19 21  1  0
M  END
$$$$
