SIS.pdb
     RDKit          3D

 21 20  0  0  1  0  0  0  0  0999 V2000
    6.1919  -17.2672   20.4982 O   0  0  0  0  0  0  0  0  0  0  0  0
    6.9903  -16.8319   21.5286 C   0  0  0  0  0  0  0  0  0  0  0  0
    7.1608  -15.3364   21.5795 C   0  0  2  0  0  0  0  0  0  0  0  0
    7.9061  -14.9193   20.4218 N   0  0  0  0  0  0  0  0  0  0  0  0
    7.9683  -15.0183   22.7866 C   0  0  0  0  0  0  0  0  0  0  0  0
    9.2346  -15.0414   22.7897 O   0  0  0  0  0  0  0  0  0  0  0  0
    5.9771  -11.5279   26.5626 C   0  0  0  0  0  0  0  0  0  0  0  0
    6.8256  -12.2407   25.5273 C   0  0  0  0  0  0  0  0  0  0  0  0
    7.4145  -13.4510   26.1757 C   0  0  2  0  0  0  0  0  0  0  0  0
    8.2987  -13.0827   27.3283 C   0  0  0  0  0  0  0  0  0  0  0  0
    8.1087  -14.3752   25.2099 C   0  0  2  0  0  0  0  0  0  0  0  0
    7.3472  -14.6611   24.0373 N   0  0  0  0  0  0  0  0  0  0  0  0
    8.5500  -15.6159   25.9174 C   0  0  0  0  0  0  0  0  0  0  0  0
    7.6773  -16.3380   26.4638 O   0  0  0  0  0  0  0  0  0  0  0  0
   12.4628  -17.1324   25.7068 O   0  0  0  0  0  0  0  0  0  0  0  0
   11.3844  -17.9650   25.9370 C   0  0  0  0  0  0  0  0  0  0  0  0
   10.2312  -17.2674   26.6187 C   0  0  2  0  0  0  0  0  0  0  0  0
    9.8938  -16.0133   26.0009 N   0  0  0  0  0  0  0  0  0  0  0  0
   10.6174  -17.0901   28.0511 C   0  0  0  0  0  0  0  0  0  0  0  0
   10.6489  -15.9455   28.5781 O   0  0  0  0  0  0  0  0  0  0  0  0
   10.9383  -18.2300   28.7743 O   0  0  0  0  0  0  0  0  0  0  0  0
  2  1  1  0
  3  4  1  6
  3  2  1  0
  5  3  1  0
  6  5  2  0
  8  9  1  0
  8  7  1  0
  9 11  1  0
  9 10  1  1
 11 13  1  0
 11 12  1  6
 12  5  1  0
 13 18  1  0
 14 13  2  0
 17 16  1  6
 16 15  1  0
 17 19  1  0
 18 17  1  0
 19 20  2  0
 19 21  1  0
M  END
$$$$
