SIS.pdb
     RDKit          3D

 21 20  0  0  1  0  0  0  0  0999 V2000
    7.2087  -17.8871   20.3894 O   0  0  0  0  0  0  0  0  0  0  0  0
    8.0455  -17.3847   21.3567 C   0  0  0  0  0  0  0  0  0  0  0  0
    8.2720  -15.8992   21.2571 C   0  0  2  0  0  0  0  0  0  0  0  0
    9.3018  -15.6558   20.2825 N   0  0  0  0  0  0  0  0  0  0  0  0
    8.7683  -15.4319   22.5783 C   0  0  0  0  0  0  0  0  0  0  0  0
    9.9816  -15.5301   22.9285 O   0  0  0  0  0  0  0  0  0  0  0  0
    7.0867  -11.6769   27.1833 C   0  0  0  0  0  0  0  0  0  0  0  0
    8.0193  -12.7806   26.7229 C   0  0  0  0  0  0  0  0  0  0  0  0
    7.4532  -13.3616   25.4682 C   0  0  2  0  0  0  0  0  0  0  0  0
    6.0644  -13.8833   25.6810 C   0  0  0  0  0  0  0  0  0  0  0  0
    8.3453  -14.3899   24.8235 C   0  0  2  0  0  0  0  0  0  0  0  0
    7.8852  -14.8333   23.5475 N   0  0  0  0  0  0  0  0  0  0  0  0
    8.5829  -15.5243   25.7677 C   0  0  0  0  0  0  0  0  0  0  0  0
    7.6387  -16.3230   25.9959 O   0  0  0  0  0  0  0  0  0  0  0  0
   12.2030  -17.2097   26.2822 O   0  0  0  0  0  0  0  0  0  0  0  0
   11.0396  -17.8534   26.6583 C   0  0  0  0  0  0  0  0  0  0  0  0
    9.9976  -16.9154   27.2200 C   0  0  2  0  0  0  0  0  0  0  0  0
    9.8112  -15.7402   26.4121 N   0  0  0  0  0  0  0  0  0  0  0  0
   10.4300  -16.5677   28.6072 C   0  0  0  0  0  0  0  0  0  0  0  0
   10.6565  -17.4666   29.4612 O   0  0  0  0  0  0  0  0  0  0  0  0
   10.5715  -15.2223   28.9163 O   0  0  0  0  0  0  0  0  0  0  0  0
  2  1  1  0
  3  4  1  6
  3  2  1  0
  5  3  1  0
  6  5  2  0
  8  9  1  0
  8  7  1  0
  9 11  1  0
  9 10  1  1
 11 13  1  0
 11 12  1  6
 12  5  1  0
 13 18  1  0
 14 13  2  0
 17 16  1  6
 16 15  1  0
 17 19  1  0
 18 17  1  0
 19 20  2  0
 19 21  1  0
M  END
$$$$
