SIS.pdb
     RDKit          3D

 21 20  0  0  1  0  0  0  0  0999 V2000
    8.3305  -17.6123   21.1675 O   0  0  0  0  0  0  0  0  0  0  0  0
    7.2221  -16.8360   21.4073 C   0  0  0  0  0  0  0  0  0  0  0  0
    7.4893  -15.3550   21.3483 C   0  0  2  0  0  0  0  0  0  0  0  0
    8.3613  -15.0894   20.2353 N   0  0  0  0  0  0  0  0  0  0  0  0
    8.2064  -14.9790   22.5953 C   0  0  0  0  0  0  0  0  0  0  0  0
    9.4660  -14.8602   22.6522 O   0  0  0  0  0  0  0  0  0  0  0  0
    5.9518  -11.6782   26.3310 C   0  0  0  0  0  0  0  0  0  0  0  0
    6.9382  -12.3221   25.3759 C   0  0  0  0  0  0  0  0  0  0  0  0
    7.4191  -13.5897   26.0036 C   0  0  2  0  0  0  0  0  0  0  0  0
    8.1928  -13.3232   27.2592 C   0  0  0  0  0  0  0  0  0  0  0  0
    8.1782  -14.4817   25.0565 C   0  0  2  0  0  0  0  0  0  0  0  0
    7.4990  -14.7255   23.8253 N   0  0  0  0  0  0  0  0  0  0  0  0
    8.5701  -15.7469   25.7495 C   0  0  0  0  0  0  0  0  0  0  0  0
    7.6613  -16.5194   26.1480 O   0  0  0  0  0  0  0  0  0  0  0  0
   12.4531  -17.2817   25.6642 O   0  0  0  0  0  0  0  0  0  0  0  0
   11.3511  -18.0959   25.8428 C   0  0  0  0  0  0  0  0  0  0  0  0
   10.2073  -17.4010   26.5428 C   0  0  2  0  0  0  0  0  0  0  0  0
    9.9060  -16.1138   25.9767 N   0  0  0  0  0  0  0  0  0  0  0  0
   10.5822  -17.2948   27.9852 C   0  0  0  0  0  0  0  0  0  0  0  0
   10.6780  -16.1721   28.5502 O   0  0  0  0  0  0  0  0  0  0  0  0
   10.8194  -18.4756   28.6745 O   0  0  0  0  0  0  0  0  0  0  0  0
  2  1  1  0
  3  4  1  6
  3  2  1  0
  5  3  1  0
  6  5  2  0
  8  9  1  0
  8  7  1  0
  9 11  1  0
  9 10  1  1
 11 13  1  0
 11 12  1  6
 12  5  1  0
 13 18  1  0
 14 13  2  0
 17 16  1  6
 16 15  1  0
 17 19  1  0
 18 17  1  0
 19 20  2  0
 19 21  1  0
M  END
$$$$
