SIS.pdb
     RDKit          3D

 21 20  0  0  1  0  0  0  0  0999 V2000
    7.2238  -17.0635   21.1614 O   0  0  0  0  0  0  0  0  0  0  0  0
    6.2785  -16.0665   21.1908 C   0  0  0  0  0  0  0  0  0  0  0  0
    6.8547  -14.6764   21.1308 C   0  0  2  0  0  0  0  0  0  0  0  0
    7.7031  -14.5803   19.9729 N   0  0  0  0  0  0  0  0  0  0  0  0
    7.7010  -14.4896   22.3388 C   0  0  0  0  0  0  0  0  0  0  0  0
    8.9662  -14.5363   22.3032 O   0  0  0  0  0  0  0  0  0  0  0  0
    5.8844  -11.5894   26.7553 C   0  0  0  0  0  0  0  0  0  0  0  0
    6.7780  -12.0689   25.6277 C   0  0  0  0  0  0  0  0  0  0  0  0
    7.2286  -13.4539   25.9609 C   0  0  2  0  0  0  0  0  0  0  0  0
    8.0584  -13.4775   27.2087 C   0  0  0  0  0  0  0  0  0  0  0  0
    7.9145  -14.1563   24.8185 C   0  0  2  0  0  0  0  0  0  0  0  0
    7.1215  -14.2418   23.6352 N   0  0  0  0  0  0  0  0  0  0  0  0
    8.4136  -15.4924   25.2660 C   0  0  0  0  0  0  0  0  0  0  0  0
    7.5767  -16.4094   25.4666 O   0  0  0  0  0  0  0  0  0  0  0  0
   11.8528  -18.8013   25.2286 O   0  0  0  0  0  0  0  0  0  0  0  0
   11.4363  -17.5093   24.9704 C   0  0  0  0  0  0  0  0  0  0  0  0
   10.1936  -17.1223   25.7364 C   0  0  2  0  0  0  0  0  0  0  0  0
    9.7736  -15.7722   25.4730 N   0  0  0  0  0  0  0  0  0  0  0  0
   10.4936  -17.3336   27.1847 C   0  0  0  0  0  0  0  0  0  0  0  0
   10.5162  -16.3651   27.9911 O   0  0  0  0  0  0  0  0  0  0  0  0
   10.7449  -18.6321   27.6044 O   0  0  0  0  0  0  0  0  0  0  0  0
  2  1  1  0
  3  4  1  6
  3  2  1  0
  5  3  1  0
  6  5  2  0
  8  9  1  0
  8  7  1  0
  9 11  1  0
  9 10  1  1
 11 13  1  0
 11 12  1  6
 12  5  1  0
 13 18  1  0
 14 13  2  0
 17 16  1  6
 16 15  1  0
 17 19  1  0
 18 17  1  0
 19 20  2  0
 19 21  1  0
M  END
$$$$
