SIS.pdb
     RDKit          3D

 21 20  0  0  1  0  0  0  0  0999 V2000
    7.3337  -16.6971   21.1232 O   0  0  0  0  0  0  0  0  0  0  0  0
    6.4319  -15.6979   20.8460 C   0  0  0  0  0  0  0  0  0  0  0  0
    7.0108  -14.3105   20.9354 C   0  0  2  0  0  0  0  0  0  0  0  0
    7.9367  -14.1281   19.8495 N   0  0  0  0  0  0  0  0  0  0  0  0
    7.7722  -14.2240   22.2095 C   0  0  0  0  0  0  0  0  0  0  0  0
    9.0337  -14.3237   22.2621 O   0  0  0  0  0  0  0  0  0  0  0  0
    5.8065  -11.4322   26.6241 C   0  0  0  0  0  0  0  0  0  0  0  0
    6.6999  -11.9355   25.5068 C   0  0  0  0  0  0  0  0  0  0  0  0
    7.0925  -13.3393   25.8346 C   0  0  2  0  0  0  0  0  0  0  0  0
    7.8586  -13.4105   27.1207 C   0  0  0  0  0  0  0  0  0  0  0  0
    7.8130  -14.0416   24.7136 C   0  0  2  0  0  0  0  0  0  0  0  0
    7.1087  -14.0191   23.4726 N   0  0  0  0  0  0  0  0  0  0  0  0
    8.1817  -15.4282   25.1328 C   0  0  0  0  0  0  0  0  0  0  0  0
    7.2615  -16.2675   25.3067 O   0  0  0  0  0  0  0  0  0  0  0  0
   11.8911  -17.0571   24.4599 O   0  0  0  0  0  0  0  0  0  0  0  0
   10.7707  -17.8368   24.6736 C   0  0  0  0  0  0  0  0  0  0  0  0
    9.7915  -17.2159   25.6415 C   0  0  2  0  0  0  0  0  0  0  0  0
    9.5080  -15.8382   25.3417 N   0  0  0  0  0  0  0  0  0  0  0  0
   10.3737  -17.3741   27.0084 C   0  0  0  0  0  0  0  0  0  0  0  0
   10.7087  -18.5083   27.4442 O   0  0  0  0  0  0  0  0  0  0  0  0
   10.5301  -16.2280   27.7750 O   0  0  0  0  0  0  0  0  0  0  0  0
  2  1  1  0
  3  4  1  6
  3  2  1  0
  5  3  1  0
  6  5  2  0
  8  9  1  0
  8  7  1  0
  9 11  1  0
  9 10  1  1
 11 13  1  0
 11 12  1  6
 12  5  1  0
 13 18  1  0
 14 13  2  0
 17 16  1  6
 16 15  1  0
 17 19  1  0
 18 17  1  0
 19 20  2  0
 19 21  1  0
M  END
$$$$
