SIS.pdb
     RDKit          3D

 21 20  0  0  1  0  0  0  0  0999 V2000
    7.5460  -16.9738   21.1737 O   0  0  0  0  0  0  0  0  0  0  0  0
    6.5515  -16.0366   21.0280 C   0  0  0  0  0  0  0  0  0  0  0  0
    7.0404  -14.6133   21.0849 C   0  0  2  0  0  0  0  0  0  0  0  0
    7.9079  -14.3802   19.9612 N   0  0  0  0  0  0  0  0  0  0  0  0
    7.8446  -14.4650   22.3265 C   0  0  0  0  0  0  0  0  0  0  0  0
    9.1108  -14.4962   22.3307 O   0  0  0  0  0  0  0  0  0  0  0  0
    5.9109  -11.4896   26.5651 C   0  0  0  0  0  0  0  0  0  0  0  0
    6.7722  -12.0549   25.4523 C   0  0  0  0  0  0  0  0  0  0  0  0
    7.2827  -13.3850   25.9021 C   0  0  2  0  0  0  0  0  0  0  0  0
    8.1321  -13.2618   27.1307 C   0  0  0  0  0  0  0  0  0  0  0  0
    7.9783  -14.1629   24.8158 C   0  0  2  0  0  0  0  0  0  0  0  0
    7.2204  -14.2751   23.6118 N   0  0  0  0  0  0  0  0  0  0  0  0
    8.4138  -15.4937   25.3392 C   0  0  0  0  0  0  0  0  0  0  0  0
    7.5317  -16.3320   25.6564 O   0  0  0  0  0  0  0  0  0  0  0  0
   12.3067  -16.8584   24.9950 O   0  0  0  0  0  0  0  0  0  0  0  0
   11.2760  -17.7607   25.1752 C   0  0  0  0  0  0  0  0  0  0  0  0
   10.1037  -17.1795   25.9295 C   0  0  2  0  0  0  0  0  0  0  0  0
    9.7623  -15.8522   25.4935 N   0  0  0  0  0  0  0  0  0  0  0  0
   10.4639  -17.2078   27.3793 C   0  0  0  0  0  0  0  0  0  0  0  0
   10.4698  -16.1519   28.0676 O   0  0  0  0  0  0  0  0  0  0  0  0
   10.7900  -18.4369   27.9348 O   0  0  0  0  0  0  0  0  0  0  0  0
  2  1  1  0
  3  4  1  6
  3  2  1  0
  5  3  1  0
  6  5  2  0
  8  9  1  0
  8  7  1  0
  9 11  1  0
  9 10  1  1
 11 13  1  0
 11 12  1  6
 12  5  1  0
 13 18  1  0
 14 13  2  0
 17 16  1  6
 16 15  1  0
 17 19  1  0
 18 17  1  0
 19 20  2  0
 19 21  1  0
M  END
$$$$
