SIS.pdb
     RDKit          3D

 21 20  0  0  1  0  0  0  0  0999 V2000
    6.7473  -17.4496   20.3677 O   0  0  0  0  0  0  0  0  0  0  0  0
    7.6205  -16.9902   21.3242 C   0  0  0  0  0  0  0  0  0  0  0  0
    7.7291  -15.4892   21.3817 C   0  0  2  0  0  0  0  0  0  0  0  0
    8.5691  -15.0475   20.3005 N   0  0  0  0  0  0  0  0  0  0  0  0
    8.4008  -15.1372   22.6605 C   0  0  0  0  0  0  0  0  0  0  0  0
    9.6606  -15.1127   22.7888 O   0  0  0  0  0  0  0  0  0  0  0  0
    5.9099  -11.8070   26.2903 C   0  0  0  0  0  0  0  0  0  0  0  0
    6.9423  -12.4208   25.3644 C   0  0  0  0  0  0  0  0  0  0  0  0
    7.4537  -13.6655   26.0134 C   0  0  2  0  0  0  0  0  0  0  0  0
    8.1789  -13.3629   27.2896 C   0  0  0  0  0  0  0  0  0  0  0  0
    8.2747  -14.5315   25.0942 C   0  0  2  0  0  0  0  0  0  0  0  0
    7.6462  -14.7998   23.8413 N   0  0  0  0  0  0  0  0  0  0  0  0
    8.6865  -15.7818   25.8026 C   0  0  0  0  0  0  0  0  0  0  0  0
    7.8020  -16.6287   26.0889 O   0  0  0  0  0  0  0  0  0  0  0  0
   11.5304  -18.1268   24.9075 O   0  0  0  0  0  0  0  0  0  0  0  0
   11.5751  -17.9498   26.2771 C   0  0  0  0  0  0  0  0  0  0  0  0
   10.3352  -17.2887   26.8307 C   0  0  2  0  0  0  0  0  0  0  0  0
   10.0153  -16.0554   26.1637 N   0  0  0  0  0  0  0  0  0  0  0  0
   10.5703  -17.0804   28.2914 C   0  0  0  0  0  0  0  0  0  0  0  0
   10.5338  -15.9264   28.7969 O   0  0  0  0  0  0  0  0  0  0  0  0
   10.8292  -18.2028   29.0654 O   0  0  0  0  0  0  0  0  0  0  0  0
  2  1  1  0
  3  4  1  6
  3  2  1  0
  5  3  1  0
  6  5  2  0
  8  9  1  0
  8  7  1  0
  9 11  1  0
  9 10  1  1
 11 13  1  0
 11 12  1  6
 12  5  1  0
 13 18  1  0
 14 13  2  0
 17 16  1  6
 16 15  1  0
 17 19  1  0
 18 17  1  0
 19 20  2  0
 19 21  1  0
M  END
$$$$
