SIS.pdb
     RDKit          3D

 21 20  0  0  1  0  0  0  0  0999 V2000
    7.3773  -17.0375   21.2366 O   0  0  0  0  0  0  0  0  0  0  0  0
    6.3939  -16.0811   21.1534 C   0  0  0  0  0  0  0  0  0  0  0  0
    6.9165  -14.6691   21.1175 C   0  0  2  0  0  0  0  0  0  0  0  0
    7.7804  -14.5279   19.9758 N   0  0  0  0  0  0  0  0  0  0  0  0
    7.7339  -14.4625   22.3421 C   0  0  0  0  0  0  0  0  0  0  0  0
    9.0003  -14.4529   22.3273 O   0  0  0  0  0  0  0  0  0  0  0  0
    5.8551  -11.5284   26.6674 C   0  0  0  0  0  0  0  0  0  0  0  0
    6.6751  -12.0842   25.5192 C   0  0  0  0  0  0  0  0  0  0  0  0
    7.2030  -13.4171   25.9395 C   0  0  2  0  0  0  0  0  0  0  0  0
    8.0673  -13.3072   27.1589 C   0  0  0  0  0  0  0  0  0  0  0  0
    7.8909  -14.1703   24.8312 C   0  0  2  0  0  0  0  0  0  0  0  0
    7.1229  -14.2590   23.6317 N   0  0  0  0  0  0  0  0  0  0  0  0
    8.3341  -15.5107   25.3227 C   0  0  0  0  0  0  0  0  0  0  0  0
    7.4684  -16.2966   25.7859 O   0  0  0  0  0  0  0  0  0  0  0  0
   12.1767  -16.9361   24.6896 O   0  0  0  0  0  0  0  0  0  0  0  0
   11.1638  -17.8489   24.9128 C   0  0  0  0  0  0  0  0  0  0  0  0
   10.0079  -17.2728   25.6959 C   0  0  2  0  0  0  0  0  0  0  0  0
    9.6722  -15.9340   25.2917 N   0  0  0  0  0  0  0  0  0  0  0  0
   10.3890  -17.3335   27.1393 C   0  0  0  0  0  0  0  0  0  0  0  0
   10.6960  -18.4278   27.6843 O   0  0  0  0  0  0  0  0  0  0  0  0
   10.3915  -16.1430   27.8522 O   0  0  0  0  0  0  0  0  0  0  0  0
  2  1  1  0
  3  4  1  6
  3  2  1  0
  5  3  1  0
  6  5  2  0
  8  9  1  0
  8  7  1  0
  9 11  1  0
  9 10  1  1
 11 13  1  0
 11 12  1  6
 12  5  1  0
 13 18  1  0
 14 13  2  0
 17 16  1  6
 16 15  1  0
 17 19  1  0
 18 17  1  0
 19 20  2  0
 19 21  1  0
M  END
$$$$
