SIS.pdb
     RDKit          3D

 21 20  0  0  1  0  0  0  0  0999 V2000
    5.6349  -17.3405   21.0141 O   0  0  0  0  0  0  0  0  0  0  0  0
    6.9140  -16.9425   21.3206 C   0  0  0  0  0  0  0  0  0  0  0  0
    7.0916  -15.4481   21.3774 C   0  0  2  0  0  0  0  0  0  0  0  0
    7.9024  -15.0390   20.2617 N   0  0  0  0  0  0  0  0  0  0  0  0
    7.8335  -15.1322   22.6265 C   0  0  0  0  0  0  0  0  0  0  0  0
    9.0916  -15.2418   22.7227 O   0  0  0  0  0  0  0  0  0  0  0  0
    5.8878  -11.4241   26.2224 C   0  0  0  0  0  0  0  0  0  0  0  0
    6.7514  -12.2196   25.2626 C   0  0  0  0  0  0  0  0  0  0  0  0
    7.1669  -13.4754   25.9573 C   0  0  2  0  0  0  0  0  0  0  0  0
    7.9940  -13.1842   27.1727 C   0  0  0  0  0  0  0  0  0  0  0  0
    7.8369  -14.4735   25.0497 C   0  0  2  0  0  0  0  0  0  0  0  0
    7.1537  -14.6775   23.8135 N   0  0  0  0  0  0  0  0  0  0  0  0
    8.0756  -15.7529   25.7849 C   0  0  0  0  0  0  0  0  0  0  0  0
    7.0807  -16.4273   26.1549 O   0  0  0  0  0  0  0  0  0  0  0  0
   11.4844  -17.9491   25.4637 O   0  0  0  0  0  0  0  0  0  0  0  0
   10.3317  -18.4920   25.9981 C   0  0  0  0  0  0  0  0  0  0  0  0
    9.5079  -17.4906   26.7724 C   0  0  2  0  0  0  0  0  0  0  0  0
    9.3591  -16.2377   26.0822 N   0  0  0  0  0  0  0  0  0  0  0  0
   10.1739  -17.3139   28.0981 C   0  0  0  0  0  0  0  0  0  0  0  0
   10.5760  -16.1810   28.4769 O   0  0  0  0  0  0  0  0  0  0  0  0
   10.3312  -18.4414   28.8917 O   0  0  0  0  0  0  0  0  0  0  0  0
  2  1  1  0
  3  4  1  6
  3  2  1  0
  5  3  1  0
  6  5  2  0
  8  9  1  0
  8  7  1  0
  9 11  1  0
  9 10  1  1
 11 13  1  0
 11 12  1  6
 12  5  1  0
 13 18  1  0
 14 13  2  0
 17 16  1  6
 16 15  1  0
 17 19  1  0
 18 17  1  0
 19 20  2  0
 19 21  1  0
M  END
$$$$
