VPP.pdb
     RDKit          3D

 22 23  0  0  1  0  0  0  0  0999 V2000
   11.1545  -18.4171   23.3723 C   0  0  0  0  0  0  0  0  0  0  0  0
   10.3697  -18.2920   22.1068 C   0  0  2  0  0  0  0  0  0  0  0  0
   10.6641  -19.4743   21.1731 C   0  0  0  0  0  0  0  0  0  0  0  0
   10.6440  -16.9829   21.3748 C   0  0  2  0  0  0  0  0  0  0  0  0
   12.0990  -16.8484   21.1805 N   0  0  0  0  0  0  0  0  0  0  0  0
   10.0870  -15.8305   22.1054 C   0  0  0  0  0  0  0  0  0  0  0  0
   10.9560  -15.1303   22.7491 O   0  0  0  0  0  0  0  0  0  0  0  0
    8.7296  -15.4589   22.1438 N   0  0  0  0  0  0  0  0  0  0  0  0
    7.6770  -16.0025   21.3113 C   0  0  0  0  0  0  0  0  0  0  0  0
    6.7024  -14.8471   21.1256 C   0  0  0  0  0  0  0  0  0  0  0  0
    6.8296  -14.1298   22.4309 C   0  0  0  0  0  0  0  0  0  0  0  0
    8.1691  -14.4544   23.0255 C   0  0  1  0  0  0  0  0  0  0  0  0
    7.9592  -14.9586   24.3898 C   0  0  0  0  0  0  0  0  0  0  0  0
    8.0716  -16.1628   24.7056 O   0  0  0  0  0  0  0  0  0  0  0  0
    7.6029  -13.9838   25.4072 N   0  0  0  0  0  0  0  0  0  0  0  0
    7.3235  -12.5865   25.1716 C   0  0  0  0  0  0  0  0  0  0  0  0
    7.5145  -11.9090   26.5238 C   0  0  0  0  0  0  0  0  0  0  0  0
    7.1195  -12.9908   27.4890 C   0  0  0  0  0  0  0  0  0  0  0  0
    7.4734  -14.2502   26.8126 C   0  0  1  0  0  0  0  0  0  0  0  0
    6.4860  -15.3434   27.0556 C   0  0  0  0  0  0  0  0  0  0  0  0
    5.6015  -15.5250   26.1885 O   0  0  0  0  0  0  0  0  0  0  0  0
    6.4937  -16.1576   28.1726 O   0  0  0  0  0  0  0  0  0  0  0  0
  2  3  1  6
  2  1  1  0
  4  2  1  0
  4  6  1  0
  4  5  1  1
  6  8  1  0
  6  7  2  0
  8 12  1  0
  9  8  1  0
  9 10  1  0
 10 11  1  0
 12 11  1  0
 12 13  1  1
 13 15  1  0
 14 13  2  0
 15 19  1  0
 15 16  1  0
 16 17  1  0
 18 17  1  0
 19 20  1  6
 19 18  1  0
 20 22  1  0
 21 20  2  0
M  END
$$$$
