VPP.pdb
     RDKit          3D

 22 23  0  0  1  0  0  0  0  0999 V2000
   11.0279  -15.7052   27.7193 C   0  0  0  0  0  0  0  0  0  0  0  0
   10.0638  -14.9143   28.5428 C   0  0  2  0  0  0  0  0  0  0  0  0
   10.6443  -14.6445   29.9380 C   0  0  0  0  0  0  0  0  0  0  0  0
    8.7088  -15.6005   28.6777 C   0  0  2  0  0  0  0  0  0  0  0  0
    8.9240  -16.9754   29.1636 N   0  0  0  0  0  0  0  0  0  0  0  0
    7.9690  -15.5867   27.4031 C   0  0  0  0  0  0  0  0  0  0  0  0
    7.5160  -16.7340   27.0314 O   0  0  0  0  0  0  0  0  0  0  0  0
    7.7330  -14.4539   26.6012 N   0  0  0  0  0  0  0  0  0  0  0  0
    7.9908  -13.0795   26.9768 C   0  0  0  0  0  0  0  0  0  0  0  0
    6.9205  -12.2777   26.2484 C   0  0  0  0  0  0  0  0  0  0  0  0
    6.7444  -13.0740   24.9957 C   0  0  0  0  0  0  0  0  0  0  0  0
    7.1782  -14.4861   25.2626 C   0  0  1  0  0  0  0  0  0  0  0  0
    8.1747  -14.8626   24.2505 C   0  0  0  0  0  0  0  0  0  0  0  0
    9.3968  -14.9689   24.4910 O   0  0  0  0  0  0  0  0  0  0  0  0
    7.6866  -15.1198   22.9059 N   0  0  0  0  0  0  0  0  0  0  0  0
    6.3410  -14.8794   22.4397 C   0  0  0  0  0  0  0  0  0  0  0  0
    6.1885  -15.7505   21.1979 C   0  0  0  0  0  0  0  0  0  0  0  0
    7.5855  -15.7772   20.6450 C   0  0  0  0  0  0  0  0  0  0  0  0
    8.4616  -15.6574   21.8227 C   0  0  1  0  0  0  0  0  0  0  0  0
    9.6714  -14.8197   21.5703 C   0  0  0  0  0  0  0  0  0  0  0  0
    9.6506  -13.6376   21.9818 O   0  0  0  0  0  0  0  0  0  0  0  0
   10.8013  -15.2716   20.9146 O   0  0  0  0  0  0  0  0  0  0  0  0
  2  3  1  1
  2  1  1  0
  4  2  1  0
  4  6  1  0
  4  5  1  6
  6  8  1  0
  6  7  2  0
  8 12  1  0
  9  8  1  0
  9 10  1  0
 10 11  1  0
 12 11  1  0
 12 13  1  6
 13 15  1  0
 14 13  2  0
 15 19  1  0
 15 16  1  0
 16 17  1  0
 18 17  1  0
 19 20  1  6
 19 18  1  0
 20 22  1  0
 21 20  2  0
M  END
$$$$
