VPP.pdb
     RDKit          3D

 22 23  0  0  1  0  0  0  0  0999 V2000
    7.2361  -20.4423   21.7796 C   0  0  0  0  0  0  0  0  0  0  0  0
    7.4131  -19.1543   22.5163 C   0  0  2  0  0  0  0  0  0  0  0  0
    6.0687  -18.4264   22.6561 C   0  0  0  0  0  0  0  0  0  0  0  0
    8.4258  -18.2315   21.8472 C   0  0  2  0  0  0  0  0  0  0  0  0
    9.6778  -18.9805   21.6369 N   0  0  0  0  0  0  0  0  0  0  0  0
    8.6521  -17.0124   22.6440 C   0  0  0  0  0  0  0  0  0  0  0  0
    9.3985  -17.1780   23.6809 O   0  0  0  0  0  0  0  0  0  0  0  0
    8.1318  -15.7355   22.3597 N   0  0  0  0  0  0  0  0  0  0  0  0
    7.3006  -15.3911   21.2252 C   0  0  0  0  0  0  0  0  0  0  0  0
    7.6646  -13.9463   20.9101 C   0  0  0  0  0  0  0  0  0  0  0  0
    7.9694  -13.4064   22.2703 C   0  0  0  0  0  0  0  0  0  0  0  0
    8.3588  -14.5498   23.1616 C   0  0  1  0  0  0  0  0  0  0  0  0
    7.5096  -14.5113   24.3603 C   0  0  0  0  0  0  0  0  0  0  0  0
    6.4294  -15.1322   24.4612 O   0  0  0  0  0  0  0  0  0  0  0  0
    7.9739  -13.7006   25.4735 N   0  0  0  0  0  0  0  0  0  0  0  0
    9.2646  -13.0590   25.5655 C   0  0  0  0  0  0  0  0  0  0  0  0
    9.4704  -12.7904   27.0520 C   0  0  0  0  0  0  0  0  0  0  0  0
    8.0662  -12.5743   27.5416 C   0  0  0  0  0  0  0  0  0  0  0  0
    7.2265  -13.4076   26.6645 C   0  0  1  0  0  0  0  0  0  0  0  0
    5.9196  -12.7701   26.3261 C   0  0  0  0  0  0  0  0  0  0  0  0
    5.8497  -12.1334   25.2505 O   0  0  0  0  0  0  0  0  0  0  0  0
    4.7942  -12.8427   27.1256 O   0  0  0  0  0  0  0  0  0  0  0  0
  2  3  1  6
  2  1  1  0
  4  2  1  0
  4  6  1  0
  4  5  1  1
  6  8  1  0
  6  7  2  0
  8 12  1  0
  9  8  1  0
  9 10  1  0
 10 11  1  0
 12 11  1  0
 12 13  1  1
 13 15  1  0
 14 13  2  0
 15 19  1  0
 15 16  1  0
 16 17  1  0
 18 17  1  0
 19 20  1  6
 19 18  1  0
 20 22  1  0
 21 20  2  0
M  END
$$$$
