VPP.pdb
     RDKit          3D

 22 23  0  0  1  0  0  0  0  0999 V2000
    8.5362  -16.6511   21.6864 C   0  0  0  0  0  0  0  0  0  0  0  0
    7.2905  -15.8285   21.7543 C   0  0  2  0  0  0  0  0  0  0  0  0
    6.4316  -16.0499   20.5014 C   0  0  0  0  0  0  0  0  0  0  0  0
    7.5798  -14.3404   21.9183 C   0  0  2  0  0  0  0  0  0  0  0  0
    8.4065  -13.8939   20.7825 N   0  0  0  0  0  0  0  0  0  0  0  0
    8.2347  -14.0581   23.2080 C   0  0  0  0  0  0  0  0  0  0  0  0
    9.5150  -13.9296   23.1448 O   0  0  0  0  0  0  0  0  0  0  0  0
    7.5837  -13.9236   24.4491 N   0  0  0  0  0  0  0  0  0  0  0  0
    6.1611  -14.0614   24.6806 C   0  0  0  0  0  0  0  0  0  0  0  0
    5.8669  -13.1053   25.8288 C   0  0  0  0  0  0  0  0  0  0  0  0
    7.1344  -13.1790   26.6177 C   0  0  0  0  0  0  0  0  0  0  0  0
    8.2424  -13.6115   25.7018 C   0  0  1  0  0  0  0  0  0  0  0  0
    8.9029  -14.7820   26.2960 C   0  0  0  0  0  0  0  0  0  0  0  0
    8.8438  -15.9306   25.8063 O   0  0  0  0  0  0  0  0  0  0  0  0
    9.6589  -14.5648   27.5181 N   0  0  0  0  0  0  0  0  0  0  0  0
    9.6510  -13.3557   28.3080 C   0  0  0  0  0  0  0  0  0  0  0  0
   10.9274  -13.4151   29.1394 C   0  0  0  0  0  0  0  0  0  0  0  0
   11.1169  -14.8921   29.3405 C   0  0  0  0  0  0  0  0  0  0  0  0
   10.5389  -15.5157   28.1380 C   0  0  1  0  0  0  0  0  0  0  0  0
    9.8203  -16.7920   28.4275 C   0  0  0  0  0  0  0  0  0  0  0  0
   10.4856  -17.8515   28.3827 O   0  0  0  0  0  0  0  0  0  0  0  0
    8.4757  -16.8684   28.7388 O   0  0  0  0  0  0  0  0  0  0  0  0
  2  3  1  6
  2  1  1  0
  4  2  1  0
  4  6  1  0
  4  5  1  6
  6  8  1  0
  6  7  2  0
  8 12  1  0
  9  8  1  0
  9 10  1  0
 10 11  1  0
 12 11  1  0
 12 13  1  1
 13 15  1  0
 14 13  2  0
 15 19  1  0
 15 16  1  0
 16 17  1  0
 18 17  1  0
 19 20  1  1
 19 18  1  0
 20 22  1  0
 21 20  2  0
M  END
$$$$
