VPP.pdb
     RDKit          3D

 22 23  0  0  1  0  0  0  0  0999 V2000
   11.4807  -18.4267   23.5636 C   0  0  0  0  0  0  0  0  0  0  0  0
   10.6705  -18.4010   22.3082 C   0  0  2  0  0  0  0  0  0  0  0  0
   11.0545  -19.5753   21.3971 C   0  0  0  0  0  0  0  0  0  0  0  0
   10.8190  -17.0910   21.5422 C   0  0  2  0  0  0  0  0  0  0  0  0
   12.2501  -16.8635   21.2721 N   0  0  0  0  0  0  0  0  0  0  0  0
   10.2224  -15.9643   22.2816 C   0  0  0  0  0  0  0  0  0  0  0  0
   11.0542  -15.2897   22.9977 O   0  0  0  0  0  0  0  0  0  0  0  0
    8.8650  -15.5913   22.2575 N   0  0  0  0  0  0  0  0  0  0  0  0
    7.8280  -16.2129   21.4607 C   0  0  0  0  0  0  0  0  0  0  0  0
    6.8590  -15.0812   21.1457 C   0  0  0  0  0  0  0  0  0  0  0  0
    6.9617  -14.2416   22.3781 C   0  0  0  0  0  0  0  0  0  0  0  0
    8.2889  -14.5069   23.0274 C   0  0  1  0  0  0  0  0  0  0  0  0
    8.0517  -14.8775   24.4294 C   0  0  0  0  0  0  0  0  0  0  0  0
    8.1843  -16.0406   24.8680 O   0  0  0  0  0  0  0  0  0  0  0  0
    7.6420  -13.8159   25.3335 N   0  0  0  0  0  0  0  0  0  0  0  0
    7.4012  -12.4412   24.9617 C   0  0  0  0  0  0  0  0  0  0  0  0
    7.5100  -11.6525   26.2618 C   0  0  0  0  0  0  0  0  0  0  0  0
    7.0331  -12.6439   27.2853 C   0  0  0  0  0  0  0  0  0  0  0  0
    7.4126  -13.9599   26.7441 C   0  0  1  0  0  0  0  0  0  0  0  0
    6.3940  -15.0186   27.0096 C   0  0  0  0  0  0  0  0  0  0  0  0
    5.4940  -15.1806   26.1547 O   0  0  0  0  0  0  0  0  0  0  0  0
    6.3892  -15.8216   28.1348 O   0  0  0  0  0  0  0  0  0  0  0  0
  2  3  1  6
  2  1  1  0
  4  2  1  0
  4  6  1  0
  4  5  1  1
  6  8  1  0
  6  7  2  0
  8 12  1  0
  9  8  1  0
  9 10  1  0
 10 11  1  0
 12 11  1  0
 12 13  1  1
 13 15  1  0
 14 13  2  0
 15 19  1  0
 15 16  1  0
 16 17  1  0
 18 17  1  0
 19 20  1  6
 19 18  1  0
 20 22  1  0
 21 20  2  0
M  END
$$$$
