VPP.pdb
     RDKit          3D

 22 23  0  0  1  0  0  0  0  0999 V2000
    6.2441  -11.3683   27.1121 C   0  0  0  0  0  0  0  0  0  0  0  0
    6.9873  -12.5335   26.5439 C   0  0  2  0  0  0  0  0  0  0  0  0
    8.1963  -12.0537   25.7286 C   0  0  0  0  0  0  0  0  0  0  0  0
    6.1055  -13.4226   25.6738 C   0  0  2  0  0  0  0  0  0  0  0  0
    4.9975  -13.9374   26.4984 N   0  0  0  0  0  0  0  0  0  0  0  0
    6.8804  -14.5180   25.0642 C   0  0  0  0  0  0  0  0  0  0  0  0
    7.0325  -15.5530   25.8160 O   0  0  0  0  0  0  0  0  0  0  0  0
    7.4392  -14.5102   23.7719 N   0  0  0  0  0  0  0  0  0  0  0  0
    7.3859  -13.4111   22.8309 C   0  0  0  0  0  0  0  0  0  0  0  0
    7.3560  -14.0806   21.4634 C   0  0  0  0  0  0  0  0  0  0  0  0
    8.1869  -15.2997   21.7039 C   0  0  0  0  0  0  0  0  0  0  0  0
    8.1538  -15.6184   23.1705 C   0  0  1  0  0  0  0  0  0  0  0  0
    9.5382  -15.7218   23.6523 C   0  0  0  0  0  0  0  0  0  0  0  0
   10.2683  -14.7313   23.8726 O   0  0  0  0  0  0  0  0  0  0  0  0
   10.0619  -17.0588   23.8768 N   0  0  0  0  0  0  0  0  0  0  0  0
    9.3246  -18.2894   23.7100 C   0  0  0  0  0  0  0  0  0  0  0  0
   10.0886  -19.3250   24.5273 C   0  0  0  0  0  0  0  0  0  0  0  0
   11.5065  -18.8375   24.4272 C   0  0  0  0  0  0  0  0  0  0  0  0
   11.3965  -17.3742   24.3037 C   0  0  1  0  0  0  0  0  0  0  0  0
   12.4035  -16.7874   23.3706 C   0  0  0  0  0  0  0  0  0  0  0  0
   12.0911  -16.7072   22.1610 O   0  0  0  0  0  0  0  0  0  0  0  0
   13.6484  -16.3327   23.7634 O   0  0  0  0  0  0  0  0  0  0  0  0
  2  3  1  6
  2  1  1  0
  4  2  1  0
  4  6  1  0
  4  5  1  1
  6  8  1  0
  6  7  2  0
  8 12  1  0
  9  8  1  0
  9 10  1  0
 10 11  1  0
 12 11  1  0
 12 13  1  1
 13 15  1  0
 14 13  2  0
 15 19  1  0
 15 16  1  0
 16 17  1  0
 18 17  1  0
 19 20  1  6
 19 18  1  0
 20 22  1  0
 21 20  2  0
M  END
$$$$
