VPP.pdb
     RDKit          3D

 22 23  0  0  1  0  0  0  0  0999 V2000
   11.2938  -16.0962   21.5208 C   0  0  0  0  0  0  0  0  0  0  0  0
   10.5931  -17.4132   21.4345 C   0  0  2  0  0  0  0  0  0  0  0  0
   11.2381  -18.2952   20.3563 C   0  0  0  0  0  0  0  0  0  0  0  0
    9.1026  -17.2658   21.1488 C   0  0  2  0  0  0  0  0  0  0  0  0
    8.9367  -16.6730   19.8095 N   0  0  0  0  0  0  0  0  0  0  0  0
    8.4331  -16.4586   22.1844 C   0  0  0  0  0  0  0  0  0  0  0  0
    8.3338  -15.2042   21.9083 O   0  0  0  0  0  0  0  0  0  0  0  0
    7.9163  -16.9453   23.4001 N   0  0  0  0  0  0  0  0  0  0  0  0
    7.8931  -18.3313   23.8183 C   0  0  0  0  0  0  0  0  0  0  0  0
    6.6376  -18.4514   24.6719 C   0  0  0  0  0  0  0  0  0  0  0  0
    6.5687  -17.0980   25.3027 C   0  0  0  0  0  0  0  0  0  0  0  0
    7.3094  -16.1264   24.4305 C   0  0  1  0  0  0  0  0  0  0  0  0
    8.3070  -15.4317   25.2561 C   0  0  0  0  0  0  0  0  0  0  0  0
    9.4933  -15.8092   25.3689 O   0  0  0  0  0  0  0  0  0  0  0  0
    7.8644  -14.2450   25.9689 N   0  0  0  0  0  0  0  0  0  0  0  0
    6.5549  -13.6440   25.8694 C   0  0  0  0  0  0  0  0  0  0  0  0
    6.7364  -12.2114   26.3582 C   0  0  0  0  0  0  0  0  0  0  0  0
    7.8400  -12.3492   27.3686 C   0  0  0  0  0  0  0  0  0  0  0  0
    8.6576  -13.4750   26.8859 C   0  0  1  0  0  0  0  0  0  0  0  0
    9.1779  -14.3365   27.9887 C   0  0  0  0  0  0  0  0  0  0  0  0
    8.6247  -15.4457   28.1641 O   0  0  0  0  0  0  0  0  0  0  0  0
   10.2253  -13.9817   28.8180 O   0  0  0  0  0  0  0  0  0  0  0  0
  2  3  1  6
  2  1  1  0
  4  2  1  0
  4  6  1  0
  4  5  1  6
  6  8  1  0
  6  7  2  0
  8 12  1  0
  9  8  1  0
  9 10  1  0
 10 11  1  0
 12 11  1  0
 12 13  1  1
 13 15  1  0
 14 13  2  0
 15 19  1  0
 15 16  1  0
 16 17  1  0
 18 17  1  0
 19 20  1  1
 19 18  1  0
 20 22  1  0
 21 20  2  0
M  END
$$$$
