VPP.pdb
     RDKit          3D

 22 23  0  0  1  0  0  0  0  0999 V2000
   10.3050  -15.3081   30.3114 C   0  0  0  0  0  0  0  0  0  0  0  0
    9.8442  -15.3969   28.8926 C   0  0  2  0  0  0  0  0  0  0  0  0
   10.0491  -14.0547   28.1763 C   0  0  0  0  0  0  0  0  0  0  0  0
    8.3838  -15.8195   28.7767 C   0  0  2  0  0  0  0  0  0  0  0  0
    8.2459  -17.1868   29.3096 N   0  0  0  0  0  0  0  0  0  0  0  0
    7.9063  -15.7305   27.3852 C   0  0  0  0  0  0  0  0  0  0  0  0
    7.6546  -16.8649   26.8290 O   0  0  0  0  0  0  0  0  0  0  0  0
    7.7138  -14.5416   26.6561 N   0  0  0  0  0  0  0  0  0  0  0  0
    7.9499  -13.1990   27.1441 C   0  0  0  0  0  0  0  0  0  0  0  0
    6.9205  -12.3428   26.4188 C   0  0  0  0  0  0  0  0  0  0  0  0
    6.8133  -13.0455   25.1038 C   0  0  0  0  0  0  0  0  0  0  0  0
    7.2327  -14.4746   25.2906 C   0  0  1  0  0  0  0  0  0  0  0  0
    8.2831  -14.7801   24.3094 C   0  0  0  0  0  0  0  0  0  0  0  0
    9.5015  -14.8061   24.5879 O   0  0  0  0  0  0  0  0  0  0  0  0
    7.8553  -15.0635   22.9497 N   0  0  0  0  0  0  0  0  0  0  0  0
    6.5380  -14.8127   22.4132 C   0  0  0  0  0  0  0  0  0  0  0  0
    6.4295  -15.7127   21.1875 C   0  0  0  0  0  0  0  0  0  0  0  0
    7.8507  -15.7769   20.7036 C   0  0  0  0  0  0  0  0  0  0  0  0
    8.6715  -15.6416   21.9188 C   0  0  1  0  0  0  0  0  0  0  0  0
    9.9067  -14.8310   21.7044 C   0  0  0  0  0  0  0  0  0  0  0  0
    9.8990  -13.6482   22.1144 O   0  0  0  0  0  0  0  0  0  0  0  0
   11.0465  -15.3083   21.0848 O   0  0  0  0  0  0  0  0  0  0  0  0
  2  3  1  1
  2  1  1  0
  4  2  1  0
  4  6  1  0
  4  5  1  6
  6  8  1  0
  6  7  2  0
  8 12  1  0
  9  8  1  0
  9 10  1  0
 10 11  1  0
 12 11  1  0
 12 13  1  6
 13 15  1  0
 14 13  2  0
 15 19  1  0
 15 16  1  0
 16 17  1  0
 18 17  1  0
 19 20  1  6
 19 18  1  0
 20 22  1  0
 21 20  2  0
M  END
$$$$
