WTF.pdb
     RDKit          3D

 33 35  0  0  1  0  0  0  0  0999 V2000
    7.6096  -17.1681   20.1543 N   0  0  0  0  0  0  0  0  0  0  0  0
    8.1192  -16.3255   21.2261 C   0  0  1  0  0  0  0  0  0  0  0  0
    7.0599  -15.5501   21.9230 C   0  0  0  0  0  0  0  0  0  0  0  0
    7.5074  -14.3553   22.6383 C   0  0  0  0  0  0  0  0  0  0  0  0
    8.1522  -13.2574   22.1167 C   0  0  0  0  0  0  0  0  0  0  0  0
    8.3637  -12.4222   23.1373 N   0  0  0  0  0  0  0  0  0  0  0  0
    7.8943  -12.9176   24.2790 C   0  0  0  0  0  0  0  0  0  0  0  0
    7.8572  -12.4699   25.5926 C   0  0  0  0  0  0  0  0  0  0  0  0
    7.2872  -13.2260   26.5930 C   0  0  0  0  0  0  0  0  0  0  0  0
    6.7312  -14.4598   26.3229 C   0  0  0  0  0  0  0  0  0  0  0  0
    6.7684  -14.9034   25.0192 C   0  0  0  0  0  0  0  0  0  0  0  0
    7.3367  -14.1555   24.0066 C   0  0  0  0  0  0  0  0  0  0  0  0
    8.9885  -17.1308   22.1140 C   0  0  0  0  0  0  0  0  0  0  0  0
    8.6227  -18.2435   22.5711 O   0  0  0  0  0  0  0  0  0  0  0  0
   12.4420  -17.1582   21.2799 C   0  0  0  0  0  0  0  0  0  0  0  0
   12.5629  -17.2719   22.7926 C   0  0  1  0  0  0  0  0  0  0  0  0
   13.2205  -16.1513   23.2490 O   0  0  0  0  0  0  0  0  0  0  0  0
   11.1724  -17.4156   23.3399 C   0  0  2  0  0  0  0  0  0  0  0  0
   10.2812  -16.6613   22.4802 N   0  0  0  0  0  0  0  0  0  0  0  0
   11.0359  -16.9907   24.7357 C   0  0  0  0  0  0  0  0  0  0  0  0
   10.9232  -15.7720   24.9966 O   0  0  0  0  0  0  0  0  0  0  0  0
   11.0313  -17.9515   25.7836 N   0  0  0  0  0  0  0  0  0  0  0  0
   10.9361  -17.5076   27.1548 C   0  0  1  0  0  0  0  0  0  0  0  0
    9.7197  -18.1103   27.8370 C   0  0  0  0  0  0  0  0  0  0  0  0
    8.5066  -17.8835   27.0238 C   0  0  0  0  0  0  0  0  0  0  0  0
    8.1195  -18.8540   26.1282 C   0  0  0  0  0  0  0  0  0  0  0  0
    6.9902  -18.7219   25.3236 C   0  0  0  0  0  0  0  0  0  0  0  0
    6.2590  -17.5681   25.4544 C   0  0  0  0  0  0  0  0  0  0  0  0
    6.6291  -16.5802   26.3473 C   0  0  0  0  0  0  0  0  0  0  0  0
    7.7475  -16.7354   27.1293 C   0  0  0  0  0  0  0  0  0  0  0  0
   12.1539  -17.9170   27.8840 C   0  0  0  0  0  0  0  0  0  0  0  0
   13.0060  -18.6192   27.2881 O   0  0  0  0  0  0  0  0  0  0  0  0
   12.3892  -17.5515   29.2077 O   0  0  0  0  0  0  0  0  0  0  0  0
  2  1  1  6
  2  3  1  0
  4  3  1  0
  5  4  2  0
  6  7  1  0
  6  5  1  0
  7 12  2  0
  8  9  2  0
  8  7  1  0
  9 10  1  0
 10 11  2  0
 12 11  1  0
 12  4  1  0
 13  2  1  0
 13 14  2  0
 16 15  1  6
 16 17  1  0
 16 18  1  0
 18 19  1  6
 19 13  1  0
 20 18  1  0
 21 20  2  0
 22 20  1  0
 23 22  1  0
 23 24  1  1
 24 25  1  0
 25 26  2  0
 26 27  1  0
 28 27  2  0
 29 28  1  0
 30 29  2  0
 30 25  1  0
 31 23  1  0
 32 31  2  0
 33 31  1  0
M  END
$$$$
