WTF.pdb
     RDKit          3D

 33 35  0  0  1  0  0  0  0  0999 V2000
    7.2908  -18.2887   21.1555 N   0  0  0  0  0  0  0  0  0  0  0  0
    7.9227  -17.1337   21.7761 C   0  0  1  0  0  0  0  0  0  0  0  0
    7.0282  -15.9507   21.8720 C   0  0  0  0  0  0  0  0  0  0  0  0
    6.9331  -15.1213   20.6710 C   0  0  0  0  0  0  0  0  0  0  0  0
    6.2613  -15.4075   19.5047 C   0  0  0  0  0  0  0  0  0  0  0  0
    6.4539  -14.3657   18.6914 N   0  0  0  0  0  0  0  0  0  0  0  0
    7.2070  -13.4312   19.2649 C   0  0  0  0  0  0  0  0  0  0  0  0
    7.6910  -12.1918   18.8686 C   0  0  0  0  0  0  0  0  0  0  0  0
    8.4721  -11.4251   19.7049 C   0  0  0  0  0  0  0  0  0  0  0  0
    8.8019  -11.8645   20.9708 C   0  0  0  0  0  0  0  0  0  0  0  0
    8.3214  -13.0944   21.3635 C   0  0  0  0  0  0  0  0  0  0  0  0
    7.5373  -13.8732   20.5350 C   0  0  0  0  0  0  0  0  0  0  0  0
    8.5528  -17.5438   23.0517 C   0  0  0  0  0  0  0  0  0  0  0  0
    7.9348  -18.2245   23.9094 O   0  0  0  0  0  0  0  0  0  0  0  0
   12.6318  -18.7164   25.3132 C   0  0  0  0  0  0  0  0  0  0  0  0
   11.9624  -18.0884   24.0995 C   0  0  1  0  0  0  0  0  0  0  0  0
   11.9458  -19.0282   23.0930 O   0  0  0  0  0  0  0  0  0  0  0  0
   10.5938  -17.6439   24.5274 C   0  0  2  0  0  0  0  0  0  0  0  0
    9.8950  -17.1739   23.3472 N   0  0  0  0  0  0  0  0  0  0  0  0
   10.6020  -16.6176   25.5734 C   0  0  0  0  0  0  0  0  0  0  0  0
   11.1274  -15.5067   25.3372 O   0  0  0  0  0  0  0  0  0  0  0  0
   10.0196  -16.8795   26.8436 N   0  0  0  0  0  0  0  0  0  0  0  0
   10.1913  -15.9258   27.9147 C   0  0  1  0  0  0  0  0  0  0  0  0
    8.8468  -15.4417   28.4309 C   0  0  0  0  0  0  0  0  0  0  0  0
    8.2440  -14.4835   27.4809 C   0  0  0  0  0  0  0  0  0  0  0  0
    8.8745  -13.2793   27.2660 C   0  0  0  0  0  0  0  0  0  0  0  0
    8.3759  -12.3197   26.3881 C   0  0  0  0  0  0  0  0  0  0  0  0
    7.2100  -12.6189   25.7291 C   0  0  0  0  0  0  0  0  0  0  0  0
    6.5597  -13.8218   25.9294 C   0  0  0  0  0  0  0  0  0  0  0  0
    7.0728  -14.7511   26.8009 C   0  0  0  0  0  0  0  0  0  0  0  0
   10.9339  -16.5650   29.0204 C   0  0  0  0  0  0  0  0  0  0  0  0
   11.0064  -17.8172   29.0532 O   0  0  0  0  0  0  0  0  0  0  0  0
   11.5554  -15.8278   30.0260 O   0  0  0  0  0  0  0  0  0  0  0  0
  2  1  1  1
  2  3  1  0
  4  3  1  0
  5  4  2  0
  6  7  1  0
  6  5  1  0
  7 12  2  0
  8  9  2  0
  8  7  1  0
  9 10  1  0
 10 11  2  0
 12 11  1  0
 12  4  1  0
 13  2  1  0
 13 14  2  0
 16 15  1  1
 16 17  1  0
 16 18  1  0
 18 19  1  6
 19 13  1  0
 20 18  1  0
 21 20  2  0
 22 20  1  0
 23 22  1  0
 23 24  1  1
 24 25  1  0
 25 26  2  0
 26 27  1  0
 28 27  2  0
 29 28  1  0
 30 29  2  0
 30 25  1  0
 31 23  1  0
 32 31  2  0
 33 31  1  0
M  END
$$$$
