WTF.pdb
     RDKit          3D

 33 35  0  0  1  0  0  0  0  0999 V2000
    9.5901  -17.9627   19.9106 N   0  0  0  0  0  0  0  0  0  0  0  0
    9.1644  -17.0904   20.9952 C   0  0  1  0  0  0  0  0  0  0  0  0
    7.8287  -16.4780   20.7719 C   0  0  0  0  0  0  0  0  0  0  0  0
    7.8177  -15.2232   20.0203 C   0  0  0  0  0  0  0  0  0  0  0  0
    7.7748  -15.0638   18.6542 C   0  0  0  0  0  0  0  0  0  0  0  0
    7.7833  -13.7478   18.4262 N   0  0  0  0  0  0  0  0  0  0  0  0
    7.8289  -13.0558   19.5613 C   0  0  0  0  0  0  0  0  0  0  0  0
    7.8560  -11.7042   19.8775 C   0  0  0  0  0  0  0  0  0  0  0  0
    7.9044  -11.2736   21.1850 C   0  0  0  0  0  0  0  0  0  0  0  0
    7.9278  -12.1746   22.2300 C   0  0  0  0  0  0  0  0  0  0  0  0
    7.9009  -13.5155   21.9156 C   0  0  0  0  0  0  0  0  0  0  0  0
    7.8523  -13.9609   20.6091 C   0  0  0  0  0  0  0  0  0  0  0  0
    9.3169  -17.7999   22.2859 C   0  0  0  0  0  0  0  0  0  0  0  0
    8.9714  -19.0003   22.4291 O   0  0  0  0  0  0  0  0  0  0  0  0
   10.3844  -19.9008   23.4492 C   0  0  0  0  0  0  0  0  0  0  0  0
   11.0898  -18.9329   24.3879 C   0  0  1  0  0  0  0  0  0  0  0  0
   12.2528  -18.5223   23.7751 O   0  0  0  0  0  0  0  0  0  0  0  0
   10.1329  -17.8113   24.6707 C   0  0  2  0  0  0  0  0  0  0  0  0
    9.8667  -17.1335   23.4170 N   0  0  0  0  0  0  0  0  0  0  0  0
   10.6076  -16.8662   25.6852 C   0  0  0  0  0  0  0  0  0  0  0  0
   11.5052  -16.0471   25.3867 O   0  0  0  0  0  0  0  0  0  0  0  0
   10.0551  -16.8785   26.9951 N   0  0  0  0  0  0  0  0  0  0  0  0
   10.4918  -15.8966   27.9601 C   0  0  1  0  0  0  0  0  0  0  0  0
    9.3070  -15.1477   28.5465 C   0  0  0  0  0  0  0  0  0  0  0  0
    8.5486  -14.4641   27.4779 C   0  0  0  0  0  0  0  0  0  0  0  0
    8.9627  -13.2182   27.0659 C   0  0  0  0  0  0  0  0  0  0  0  0
    8.3067  -12.5044   26.0657 C   0  0  0  0  0  0  0  0  0  0  0  0
    7.2097  -13.0955   25.4908 C   0  0  0  0  0  0  0  0  0  0  0  0
    6.7759  -14.3459   25.8888 C   0  0  0  0  0  0  0  0  0  0  0  0
    7.4410  -15.0286   26.8777 C   0  0  0  0  0  0  0  0  0  0  0  0
   11.2229  -16.5766   29.0489 C   0  0  0  0  0  0  0  0  0  0  0  0
   11.2142  -17.8306   29.0894 O   0  0  0  0  0  0  0  0  0  0  0  0
   11.9205  -15.8759   30.0305 O   0  0  0  0  0  0  0  0  0  0  0  0
  2  1  1  6
  2  3  1  0
  4  3  1  0
  5  4  2  0
  6  7  1  0
  6  5  1  0
  7 12  2  0
  8  9  2  0
  8  7  1  0
  9 10  1  0
 10 11  2  0
 12 11  1  0
 12  4  1  0
 13  2  1  0
 13 14  2  0
 16 15  1  6
 16 17  1  0
 16 18  1  0
 18 19  1  6
 19 13  1  0
 20 18  1  0
 21 20  2  0
 22 20  1  0
 23 22  1  0
 23 24  1  1
 24 25  1  0
 25 26  2  0
 26 27  1  0
 28 27  2  0
 29 28  1  0
 30 29  2  0
 30 25  1  0
 31 23  1  0
 32 31  2  0
 33 31  1  0
M  END
$$$$
