WTF.pdb
     RDKit          3D

 33 35  0  0  1  0  0  0  0  0999 V2000
    8.2957  -18.4472   20.1885 N   0  0  0  0  0  0  0  0  0  0  0  0
    8.0942  -17.2472   20.9872 C   0  0  1  0  0  0  0  0  0  0  0  0
    6.9565  -16.4116   20.5222 C   0  0  0  0  0  0  0  0  0  0  0  0
    7.2998  -15.2986   19.6375 C   0  0  0  0  0  0  0  0  0  0  0  0
    7.3278  -15.2981   18.2618 C   0  0  0  0  0  0  0  0  0  0  0  0
    7.6963  -14.0690   17.8910 N   0  0  0  0  0  0  0  0  0  0  0  0
    7.9057  -13.2836   18.9438 C   0  0  0  0  0  0  0  0  0  0  0  0
    8.2913  -11.9603   19.1103 C   0  0  0  0  0  0  0  0  0  0  0  0
    8.4293  -11.4048   20.3632 C   0  0  0  0  0  0  0  0  0  0  0  0
    8.1881  -12.1477   21.5009 C   0  0  0  0  0  0  0  0  0  0  0  0
    7.8055  -13.4606   21.3350 C   0  0  0  0  0  0  0  0  0  0  0  0
    7.6633  -14.0300   20.0847 C   0  0  0  0  0  0  0  0  0  0  0  0
    8.0543  -17.6120   22.4217 C   0  0  0  0  0  0  0  0  0  0  0  0
    7.2340  -18.4524   22.8711 O   0  0  0  0  0  0  0  0  0  0  0  0
   10.7283  -19.0091   23.9962 C   0  0  0  0  0  0  0  0  0  0  0  0
    9.4196  -18.8732   24.7606 C   0  0  1  0  0  0  0  0  0  0  0  0
    9.6193  -19.3666   26.0307 O   0  0  0  0  0  0  0  0  0  0  0  0
    9.0384  -17.4214   24.7344 C   0  0  2  0  0  0  0  0  0  0  0  0
    8.9562  -17.0132   23.3456 N   0  0  0  0  0  0  0  0  0  0  0  0
    9.9527  -16.5531   25.4812 C   0  0  0  0  0  0  0  0  0  0  0  0
   10.9621  -16.0879   24.9061 O   0  0  0  0  0  0  0  0  0  0  0  0
    9.6970  -16.2414   26.8446 N   0  0  0  0  0  0  0  0  0  0  0  0
   10.7047  -15.5536   27.6176 C   0  0  1  0  0  0  0  0  0  0  0  0
   10.2023  -14.1958   28.0784 C   0  0  0  0  0  0  0  0  0  0  0  0
    8.8668  -13.9193   27.5090 C   0  0  0  0  0  0  0  0  0  0  0  0
    7.8050  -14.7014   27.9023 C   0  0  0  0  0  0  0  0  0  0  0  0
    6.5138  -14.5097   27.4162 C   0  0  0  0  0  0  0  0  0  0  0  0
    6.3291  -13.4937   26.5124 C   0  0  0  0  0  0  0  0  0  0  0  0
    7.3807  -12.6959   26.1032 C   0  0  0  0  0  0  0  0  0  0  0  0
    8.6445  -12.9062   26.5981 C   0  0  0  0  0  0  0  0  0  0  0  0
   11.0516  -16.3692   28.7995 C   0  0  0  0  0  0  0  0  0  0  0  0
   11.9518  -15.9595   29.5715 O   0  0  0  0  0  0  0  0  0  0  0  0
   10.4156  -17.5751   29.0866 O   0  0  0  0  0  0  0  0  0  0  0  0
  2  1  1  6
  2  3  1  0
  4  3  1  0
  5  4  2  0
  6  7  1  0
  6  5  1  0
  7 12  2  0
  8  9  2  0
  8  7  1  0
  9 10  1  0
 10 11  2  0
 12 11  1  0
 12  4  1  0
 13  2  1  0
 13 14  2  0
 16 15  1  6
 16 17  1  0
 16 18  1  0
 18 19  1  6
 19 13  1  0
 20 18  1  0
 21 20  2  0
 22 20  1  0
 23 22  1  0
 23 24  1  1
 24 25  1  0
 25 26  2  0
 26 27  1  0
 28 27  2  0
 29 28  1  0
 30 29  2  0
 30 25  1  0
 31 23  1  0
 32 31  2  0
 33 31  1  0
M  END
$$$$
