WTF.pdb
     RDKit          3D

 33 35  0  0  1  0  0  0  0  0999 V2000
    6.2004  -17.8039   23.8048 N   0  0  0  0  0  0  0  0  0  0  0  0
    7.3079  -16.9313   23.4437 C   0  0  1  0  0  0  0  0  0  0  0  0
    7.9231  -16.2437   24.6089 C   0  0  0  0  0  0  0  0  0  0  0  0
    7.0595  -15.3085   25.3292 C   0  0  0  0  0  0  0  0  0  0  0  0
    6.0373  -15.6104   26.1995 C   0  0  0  0  0  0  0  0  0  0  0  0
    5.5328  -14.4439   26.6102 N   0  0  0  0  0  0  0  0  0  0  0  0
    6.1686  -13.4150   26.0569 C   0  0  0  0  0  0  0  0  0  0  0  0
    6.0455  -12.0347   26.1410 C   0  0  0  0  0  0  0  0  0  0  0  0
    6.8726  -11.1952   25.4279 C   0  0  0  0  0  0  0  0  0  0  0  0
    7.8563  -11.6994   24.6018 C   0  0  0  0  0  0  0  0  0  0  0  0
    7.9780  -13.0691   24.5187 C   0  0  0  0  0  0  0  0  0  0  0  0
    7.1554  -13.9221   25.2281 C   0  0  0  0  0  0  0  0  0  0  0  0
    8.2586  -17.6730   22.5843 C   0  0  0  0  0  0  0  0  0  0  0  0
    8.3624  -18.9250   22.6348 O   0  0  0  0  0  0  0  0  0  0  0  0
   10.0368  -17.5740   19.2500 C   0  0  0  0  0  0  0  0  0  0  0  0
   10.9748  -16.8530   20.2071 C   0  0  1  0  0  0  0  0  0  0  0  0
   10.9214  -15.5077   19.9174 O   0  0  0  0  0  0  0  0  0  0  0  0
   10.5275  -17.1844   21.6013 C   0  0  2  0  0  0  0  0  0  0  0  0
    9.0936  -16.9797   21.6636 N   0  0  0  0  0  0  0  0  0  0  0  0
   11.2112  -16.4142   22.6439 C   0  0  0  0  0  0  0  0  0  0  0  0
   11.0493  -15.1744   22.6949 O   0  0  0  0  0  0  0  0  0  0  0  0
   12.0499  -17.0671   23.5882 N   0  0  0  0  0  0  0  0  0  0  0  0
   12.1158  -16.5709   24.9431 C   0  0  1  0  0  0  0  0  0  0  0  0
   10.7255  -16.2813   25.4831 C   0  0  0  0  0  0  0  0  0  0  0  0
   10.8119  -15.5859   26.7843 C   0  0  0  0  0  0  0  0  0  0  0  0
   10.9088  -14.2132   26.7958 C   0  0  0  0  0  0  0  0  0  0  0  0
   10.9940  -13.4789   27.9763 C   0  0  0  0  0  0  0  0  0  0  0  0
   10.9780  -14.1825   29.1544 C   0  0  0  0  0  0  0  0  0  0  0  0
   10.8814  -15.5611   29.1668 C   0  0  0  0  0  0  0  0  0  0  0  0
   10.7986  -16.2614   27.9882 C   0  0  0  0  0  0  0  0  0  0  0  0
   12.7682  -17.5821   25.7999 C   0  0  0  0  0  0  0  0  0  0  0  0
   12.3646  -18.7689   25.7459 O   0  0  0  0  0  0  0  0  0  0  0  0
   13.8139  -17.2651   26.6643 O   0  0  0  0  0  0  0  0  0  0  0  0
  2  1  1  1
  2  3  1  0
  4  3  1  0
  5  4  2  0
  6  7  1  0
  6  5  1  0
  7 12  2  0
  8  9  2  0
  8  7  1  0
  9 10  1  0
 10 11  2  0
 12 11  1  0
 12  4  1  0
 13  2  1  0
 13 14  2  0
 16 15  1  6
 16 17  1  0
 16 18  1  0
 18 19  1  6
 19 13  1  0
 20 18  1  0
 21 20  2  0
 22 20  1  0
 23 22  1  0
 23 24  1  1
 24 25  1  0
 25 26  2  0
 26 27  1  0
 28 27  2  0
 29 28  1  0
 30 29  2  0
 30 25  1  0
 31 23  1  0
 32 31  2  0
 33 31  1  0
M  END
$$$$
