WTF.pdb
     RDKit          3D

 33 35  0  0  1  0  0  0  0  0999 V2000
    6.5331  -17.9913   24.4765 N   0  0  0  0  0  0  0  0  0  0  0  0
    7.5807  -17.0423   24.1295 C   0  0  1  0  0  0  0  0  0  0  0  0
    7.9594  -16.1435   25.2510 C   0  0  0  0  0  0  0  0  0  0  0  0
    6.9303  -15.2025   25.6923 C   0  0  0  0  0  0  0  0  0  0  0  0
    5.7472  -15.4923   26.3324 C   0  0  0  0  0  0  0  0  0  0  0  0
    5.1311  -14.3250   26.5362 N   0  0  0  0  0  0  0  0  0  0  0  0
    5.8463  -13.3067   26.0662 C   0  0  0  0  0  0  0  0  0  0  0  0
    5.6692  -11.9304   26.0221 C   0  0  0  0  0  0  0  0  0  0  0  0
    6.6121  -11.1030   25.4530 C   0  0  0  0  0  0  0  0  0  0  0  0
    7.7700  -11.6158   24.9047 C   0  0  0  0  0  0  0  0  0  0  0  0
    7.9451  -12.9815   24.9489 C   0  0  0  0  0  0  0  0  0  0  0  0
    7.0080  -13.8225   25.5164 C   0  0  0  0  0  0  0  0  0  0  0  0
    8.7102  -17.7645   23.5008 C   0  0  0  0  0  0  0  0  0  0  0  0
    8.8944  -18.9952   23.6805 O   0  0  0  0  0  0  0  0  0  0  0  0
    9.8912  -17.1980   19.9563 C   0  0  0  0  0  0  0  0  0  0  0  0
   11.1388  -17.0658   20.8176 C   0  0  1  0  0  0  0  0  0  0  0  0
   11.4499  -15.7272   20.9076 O   0  0  0  0  0  0  0  0  0  0  0  0
   10.8329  -17.7007   22.1431 C   0  0  2  0  0  0  0  0  0  0  0  0
    9.6324  -17.0761   22.6634 N   0  0  0  0  0  0  0  0  0  0  0  0
   11.9293  -17.6132   23.1114 C   0  0  0  0  0  0  0  0  0  0  0  0
   13.0528  -18.0730   22.8075 O   0  0  0  0  0  0  0  0  0  0  0  0
   11.7206  -17.0126   24.3831 N   0  0  0  0  0  0  0  0  0  0  0  0
   12.7977  -16.9924   25.3451 C   0  0  1  0  0  0  0  0  0  0  0  0
   12.8944  -15.6362   26.0231 C   0  0  0  0  0  0  0  0  0  0  0  0
   11.6385  -15.3258   26.7378 C   0  0  0  0  0  0  0  0  0  0  0  0
   10.5828  -14.8052   26.0249 C   0  0  0  0  0  0  0  0  0  0  0  0
    9.3643  -14.4850   26.6189 C   0  0  0  0  0  0  0  0  0  0  0  0
    9.2464  -14.7097   27.9675 C   0  0  0  0  0  0  0  0  0  0  0  0
   10.2933  -15.2317   28.7033 C   0  0  0  0  0  0  0  0  0  0  0  0
   11.4848  -15.5390   28.0930 C   0  0  0  0  0  0  0  0  0  0  0  0
   12.5553  -18.0301   26.3683 C   0  0  0  0  0  0  0  0  0  0  0  0
   11.4567  -18.6362   26.3637 O   0  0  0  0  0  0  0  0  0  0  0  0
   13.5018  -18.3589   27.3365 O   0  0  0  0  0  0  0  0  0  0  0  0
  2  1  1  1
  2  3  1  0
  4  3  1  0
  5  4  2  0
  6  7  1  0
  6  5  1  0
  7 12  2  0
  8  9  2  0
  8  7  1  0
  9 10  1  0
 10 11  2  0
 12 11  1  0
 12  4  1  0
 13  2  1  0
 13 14  2  0
 16 15  1  6
 16 17  1  0
 16 18  1  0
 18 19  1  1
 19 13  1  0
 20 18  1  0
 21 20  2  0
 22 20  1  0
 23 22  1  0
 23 24  1  1
 24 25  1  0
 25 26  2  0
 26 27  1  0
 28 27  2  0
 29 28  1  0
 30 29  2  0
 30 25  1  0
 31 23  1  0
 32 31  2  0
 33 31  1  0
M  END
$$$$
