WTF.pdb
     RDKit          3D

 33 35  0  0  1  0  0  0  0  0999 V2000
    6.8103  -18.0718   21.6023 N   0  0  0  0  0  0  0  0  0  0  0  0
    7.6986  -17.0600   22.1551 C   0  0  1  0  0  0  0  0  0  0  0  0
    7.0227  -15.7646   22.4270 C   0  0  0  0  0  0  0  0  0  0  0  0
    6.7531  -14.9260   21.2594 C   0  0  0  0  0  0  0  0  0  0  0  0
    5.7147  -15.0430   20.3642 C   0  0  0  0  0  0  0  0  0  0  0  0
    5.8756  -14.0659   19.4679 N   0  0  0  0  0  0  0  0  0  0  0  0
    6.9522  -13.3315   19.7341 C   0  0  0  0  0  0  0  0  0  0  0  0
    7.5528  -12.2315   19.1369 C   0  0  0  0  0  0  0  0  0  0  0  0
    8.6981  -11.6689   19.6557 C   0  0  0  0  0  0  0  0  0  0  0  0
    9.2905  -12.1816   20.7917 C   0  0  0  0  0  0  0  0  0  0  0  0
    8.6941  -13.2731   21.3839 C   0  0  0  0  0  0  0  0  0  0  0  0
    7.5458  -13.8469   20.8742 C   0  0  0  0  0  0  0  0  0  0  0  0
    8.4391  -17.6300   23.3037 C   0  0  0  0  0  0  0  0  0  0  0  0
    7.8732  -18.3422   24.1717 O   0  0  0  0  0  0  0  0  0  0  0  0
   12.6322  -19.0652   25.2095 C   0  0  0  0  0  0  0  0  0  0  0  0
   11.9143  -18.3760   24.0582 C   0  0  1  0  0  0  0  0  0  0  0  0
   11.7966  -19.2843   23.0297 O   0  0  0  0  0  0  0  0  0  0  0  0
   10.5944  -17.8914   24.5842 C   0  0  2  0  0  0  0  0  0  0  0  0
    9.8322  -17.3843   23.4599 N   0  0  0  0  0  0  0  0  0  0  0  0
   10.7095  -16.8785   25.6370 C   0  0  0  0  0  0  0  0  0  0  0  0
   11.2108  -15.7651   25.3633 O   0  0  0  0  0  0  0  0  0  0  0  0
   10.2569  -17.1562   26.9558 N   0  0  0  0  0  0  0  0  0  0  0  0
   10.4871  -16.1901   28.0046 C   0  0  1  0  0  0  0  0  0  0  0  0
    9.1750  -15.6125   28.5078 C   0  0  0  0  0  0  0  0  0  0  0  0
    8.5616  -14.7499   27.4763 C   0  0  0  0  0  0  0  0  0  0  0  0
    9.0240  -13.4620   27.3303 C   0  0  0  0  0  0  0  0  0  0  0  0
    8.5032  -12.5828   26.3839 C   0  0  0  0  0  0  0  0  0  0  0  0
    7.4918  -13.0511   25.5833 C   0  0  0  0  0  0  0  0  0  0  0  0
    7.0118  -14.3406   25.7122 C   0  0  0  0  0  0  0  0  0  0  0  0
    7.5430  -15.1877   26.6539 C   0  0  0  0  0  0  0  0  0  0  0  0
   11.1893  -16.8477   29.1257 C   0  0  0  0  0  0  0  0  0  0  0  0
   11.3563  -18.0906   29.0865 O   0  0  0  0  0  0  0  0  0  0  0  0
   11.6720  -16.1376   30.2230 O   0  0  0  0  0  0  0  0  0  0  0  0
  2  1  1  1
  2  3  1  0
  4  3  1  0
  5  4  2  0
  6  7  1  0
  6  5  1  0
  7 12  2  0
  8  9  2  0
  8  7  1  0
  9 10  1  0
 10 11  2  0
 12 11  1  0
 12  4  1  0
 13  2  1  0
 13 14  2  0
 16 15  1  1
 16 17  1  0
 16 18  1  0
 18 19  1  6
 19 13  1  0
 20 18  1  0
 21 20  2  0
 22 20  1  0
 23 22  1  0
 23 24  1  1
 24 25  1  0
 25 26  2  0
 26 27  1  0
 28 27  2  0
 29 28  1  0
 30 29  2  0
 30 25  1  0
 31 23  1  0
 32 31  2  0
 33 31  1  0
M  END
$$$$
