VPQ.pdb
     RDKit          3D

 24 24  0  0  1  0  0  0  0  0999 V2000
   17.4413  -10.3815  -17.9419 C   0  0  0  0  0  0  0  0  0  0  0  0
   18.7406  -11.1200  -17.7690 C   0  0  2  0  0  0  0  0  0  0  0  0
   18.8582  -12.2472  -18.7351 C   0  0  0  0  0  0  0  0  0  0  0  0
   19.0342  -11.4685  -16.3277 C   0  0  2  0  0  0  0  0  0  0  0  0
   18.2273  -12.5303  -15.8157 N   0  0  0  0  0  0  0  0  0  0  0  0
   19.0367  -10.2272  -15.5552 C   0  0  0  0  0  0  0  0  0  0  0  0
   17.9813   -9.9202  -14.9440 O   0  0  0  0  0  0  0  0  0  0  0  0
   20.1611   -9.3249  -15.4401 N   0  0  0  0  0  0  0  0  0  0  0  0
   21.4170   -9.6125  -16.0686 C   0  0  0  0  0  0  0  0  0  0  0  0
   22.3017   -8.4512  -15.7346 C   0  0  0  0  0  0  0  0  0  0  0  0
   21.6583   -7.7619  -14.5669 C   0  0  0  0  0  0  0  0  0  0  0  0
   20.2083   -8.0977  -14.7393 C   0  0  1  0  0  0  0  0  0  0  0  0
   19.5635   -6.9693  -15.4766 C   0  0  0  0  0  0  0  0  0  0  0  0
   19.4451   -7.0502  -16.7263 O   0  0  0  0  0  0  0  0  0  0  0  0
   13.9700   -5.8002  -14.7472 N   0  0  0  0  0  0  0  0  0  0  0  0
   14.3621   -4.4801  -15.1215 C   0  0  0  0  0  0  0  0  0  0  0  0
   13.4575   -3.6804  -15.4498 O   0  0  0  0  0  0  0  0  0  0  0  0
   15.7664   -4.0444  -15.1336 C   0  0  0  0  0  0  0  0  0  0  0  0
   16.7569   -5.0814  -14.6973 C   0  0  0  0  0  0  0  0  0  0  0  0
   18.0557   -4.9297  -15.4065 C   0  0  2  0  0  0  0  0  0  0  0  0
   19.0792   -5.8103  -14.8240 N   0  0  0  0  0  0  0  0  0  0  0  0
   18.5599   -3.5376  -15.2201 C   0  0  0  0  0  0  0  0  0  0  0  0
   18.2227   -2.4573  -16.0175 O   0  0  0  0  0  0  0  0  0  0  0  0
   19.3722   -3.2464  -14.2707 O   0  0  0  0  0  0  0  0  0  0  0  0
  2  1  1  1
  2  3  1  0
  4  6  1  0
  4  2  1  0
  4  5  1  1
  6  8  1  0
  6  7  2  0
  8  9  1  0
 10  9  1  0
 11 10  1  0
 11 12  1  0
 12  8  1  0
 12 13  1  6
 14 13  2  0
 16 15  1  0
 17 16  2  0
 18 16  1  0
 19 18  1  0
 20 21  1  0
 20 19  1  1
 21 13  1  0
 22 20  1  0
 23 22  1  0
 24 22  2  0
M  END
$$$$
