VPQ.pdb
     RDKit          3D

 24 24  0  0  1  0  0  0  0  0999 V2000
   16.5891  -30.7503   -2.2931 C   0  0  0  0  0  0  0  0  0  0  0  0
   17.5366  -30.1156   -3.2743 C   0  0  2  0  0  0  0  0  0  0  0  0
   17.1324  -30.3962   -4.6799 C   0  0  0  0  0  0  0  0  0  0  0  0
   18.9886  -30.3850   -2.9515 C   0  0  2  0  0  0  0  0  0  0  0  0
   19.4033  -31.7224   -3.2346 N   0  0  0  0  0  0  0  0  0  0  0  0
   19.2467  -29.9005   -1.5964 C   0  0  0  0  0  0  0  0  0  0  0  0
   19.2498  -30.7473   -0.6665 O   0  0  0  0  0  0  0  0  0  0  0  0
   19.4989  -28.5209   -1.2435 N   0  0  0  0  0  0  0  0  0  0  0  0
   19.4954  -27.4840   -2.2335 C   0  0  0  0  0  0  0  0  0  0  0  0
   19.7753  -26.2190   -1.4824 C   0  0  0  0  0  0  0  0  0  0  0  0
   20.3624  -26.6390   -0.1665 C   0  0  0  0  0  0  0  0  0  0  0  0
   19.7721  -28.0002    0.0424 C   0  0  1  0  0  0  0  0  0  0  0  0
   18.5513  -27.8427    0.8895 C   0  0  0  0  0  0  0  0  0  0  0  0
   17.4400  -27.6707    0.3259 O   0  0  0  0  0  0  0  0  0  0  0  0
   14.2673  -29.9149    4.8099 N   0  0  0  0  0  0  0  0  0  0  0  0
   15.6535  -29.8727    5.1464 C   0  0  0  0  0  0  0  0  0  0  0  0
   16.2363  -30.9644    5.3312 O   0  0  0  0  0  0  0  0  0  0  0  0
   16.3981  -28.6118    5.2805 C   0  0  0  0  0  0  0  0  0  0  0  0
   17.6462  -28.5205    4.4554 C   0  0  0  0  0  0  0  0  0  0  0  0
   17.3887  -27.8660    3.1446 C   0  0  2  0  0  0  0  0  0  0  0  0
   18.5949  -27.8796    2.3038 N   0  0  0  0  0  0  0  0  0  0  0  0
   17.0618  -26.4270    3.3675 C   0  0  0  0  0  0  0  0  0  0  0  0
   15.7822  -25.9127    3.4882 O   0  0  0  0  0  0  0  0  0  0  0  0
   17.9862  -25.5425    3.4625 O   0  0  0  0  0  0  0  0  0  0  0  0
  2  1  1  1
  2  3  1  0
  4  6  1  0
  4  2  1  0
  4  5  1  1
  6  8  1  0
  6  7  2  0
  8  9  1  0
 10  9  1  0
 11 10  1  0
 11 12  1  0
 12  8  1  0
 12 13  1  1
 14 13  2  0
 16 15  1  0
 17 16  2  0
 18 16  1  0
 19 18  1  0
 20 21  1  0
 20 19  1  1
 21 13  1  0
 22 20  1  0
 23 22  1  0
 24 22  2  0
M  END
$$$$
