VPQ.pdb
     RDKit          3D

 24 24  0  0  1  0  0  0  0  0999 V2000
   20.7941  -10.5958  -19.4930 C   0  0  0  0  0  0  0  0  0  0  0  0
   21.4286  -11.8685  -19.0020 C   0  0  2  0  0  0  0  0  0  0  0  0
   21.6352  -12.8373  -20.1141 C   0  0  0  0  0  0  0  0  0  0  0  0
   20.7523  -12.4289  -17.7718 C   0  0  2  0  0  0  0  0  0  0  0  0
   19.4641  -12.9908  -18.0278 N   0  0  0  0  0  0  0  0  0  0  0  0
   20.8189  -11.4158  -16.7197 C   0  0  0  0  0  0  0  0  0  0  0  0
   19.8222  -10.6629  -16.5731 O   0  0  0  0  0  0  0  0  0  0  0  0
   21.9442  -11.2133  -15.8342 N   0  0  0  0  0  0  0  0  0  0  0  0
   23.1111  -12.0430  -15.9073 C   0  0  0  0  0  0  0  0  0  0  0  0
   24.0389  -11.5143  -14.8574 C   0  0  0  0  0  0  0  0  0  0  0  0
   23.1922  -10.6891  -13.9328 C   0  0  0  0  0  0  0  0  0  0  0  0
   22.0738  -10.2356  -14.8209 C   0  0  1  0  0  0  0  0  0  0  0  0
   22.4283   -8.8822  -15.3455 C   0  0  0  0  0  0  0  0  0  0  0  0
   23.0804   -8.7989  -16.4179 O   0  0  0  0  0  0  0  0  0  0  0  0
   18.6296   -5.1787  -17.4386 N   0  0  0  0  0  0  0  0  0  0  0  0
   18.5774   -5.6399  -16.0892 C   0  0  0  0  0  0  0  0  0  0  0  0
   17.4559   -5.6805  -15.5358 O   0  0  0  0  0  0  0  0  0  0  0  0
   19.7767   -6.0575  -15.3478 C   0  0  0  0  0  0  0  0  0  0  0  0
   21.0569   -5.9968  -16.1250 C   0  0  0  0  0  0  0  0  0  0  0  0
   22.2276   -6.3536  -15.2793 C   0  0  2  0  0  0  0  0  0  0  0  0
   22.0588   -7.6871  -14.6830 N   0  0  0  0  0  0  0  0  0  0  0  0
   22.3169   -5.4016  -14.1336 C   0  0  0  0  0  0  0  0  0  0  0  0
   22.7481   -4.0891  -14.2233 O   0  0  0  0  0  0  0  0  0  0  0  0
   21.9877   -5.7581  -12.9460 O   0  0  0  0  0  0  0  0  0  0  0  0
  2  1  1  6
  2  3  1  0
  4  6  1  0
  4  2  1  0
  4  5  1  6
  6  8  1  0
  6  7  2  0
  8  9  1  0
 10  9  1  0
 11 10  1  0
 11 12  1  0
 12  8  1  0
 12 13  1  6
 14 13  2  0
 16 15  1  0
 17 16  2  0
 18 16  1  0
 19 18  1  0
 20 21  1  0
 20 19  1  6
 21 13  1  0
 22 20  1  0
 23 22  1  0
 24 22  2  0
M  END
$$$$
