VPQ.pdb
     RDKit          3D

 24 24  0  0  1  0  0  0  0  0999 V2000
   28.4437  -18.5507  -15.8231 C   0  0  0  0  0  0  0  0  0  0  0  0
   27.2316  -19.1401  -15.1548 C   0  0  2  0  0  0  0  0  0  0  0  0
   26.5321  -18.1323  -14.3105 C   0  0  0  0  0  0  0  0  0  0  0  0
   27.5134  -20.4647  -14.4831 C   0  0  2  0  0  0  0  0  0  0  0  0
   28.2336  -21.3855  -15.3041 N   0  0  0  0  0  0  0  0  0  0  0  0
   26.2617  -20.9534  -13.9069 C   0  0  0  0  0  0  0  0  0  0  0  0
   25.4815  -21.5870  -14.6630 O   0  0  0  0  0  0  0  0  0  0  0  0
   25.8521  -20.7639  -12.5330 N   0  0  0  0  0  0  0  0  0  0  0  0
   26.6565  -20.0185  -11.6097 C   0  0  0  0  0  0  0  0  0  0  0  0
   25.8964  -20.0354  -10.3194 C   0  0  0  0  0  0  0  0  0  0  0  0
   24.9064  -21.1575  -10.4358 C   0  0  0  0  0  0  0  0  0  0  0  0
   24.6761  -21.2467  -11.9137 C   0  0  1  0  0  0  0  0  0  0  0  0
   23.4620  -20.4376  -12.2357 C   0  0  0  0  0  0  0  0  0  0  0  0
   23.5822  -19.1936  -12.3780 O   0  0  0  0  0  0  0  0  0  0  0  0
   18.4793  -20.2393  -17.3192 N   0  0  0  0  0  0  0  0  0  0  0  0
   19.1825  -20.9221  -16.2821 C   0  0  0  0  0  0  0  0  0  0  0  0
   19.2215  -22.1716  -16.3368 O   0  0  0  0  0  0  0  0  0  0  0  0
   19.8452  -20.2153  -15.1760 C   0  0  0  0  0  0  0  0  0  0  0  0
   20.5190  -21.0993  -14.1704 C   0  0  0  0  0  0  0  0  0  0  0  0
   21.0534  -20.3158  -13.0244 C   0  0  2  0  0  0  0  0  0  0  0  0
   22.1789  -21.0158  -12.3877 N   0  0  0  0  0  0  0  0  0  0  0  0
   19.9997  -20.1962  -11.9745 C   0  0  0  0  0  0  0  0  0  0  0  0
   18.9176  -19.3344  -12.0298 O   0  0  0  0  0  0  0  0  0  0  0  0
   20.0359  -20.9138  -10.9117 O   0  0  0  0  0  0  0  0  0  0  0  0
  2  1  1  1
  2  3  1  0
  4  6  1  0
  4  2  1  0
  4  5  1  6
  6  8  1  0
  6  7  2  0
  8  9  1  0
 10  9  1  0
 11 10  1  0
 11 12  1  0
 12  8  1  0
 12 13  1  1
 14 13  2  0
 16 15  1  0
 17 16  2  0
 18 16  1  0
 19 18  1  0
 20 21  1  0
 20 19  1  6
 21 13  1  0
 22 20  1  0
 23 22  1  0
 24 22  2  0
M  END
$$$$
