VPQ.pdb
     RDKit          3D

 24 24  0  0  1  0  0  0  0  0999 V2000
   25.6676  -18.6082  -16.7010 C   0  0  0  0  0  0  0  0  0  0  0  0
   27.1680  -18.5281  -16.7776 C   0  0  2  0  0  0  0  0  0  0  0  0
   27.6086  -17.5919  -17.8486 C   0  0  0  0  0  0  0  0  0  0  0  0
   27.8316  -19.8863  -16.7908 C   0  0  2  0  0  0  0  0  0  0  0  0
   27.7179  -20.5711  -18.0393 N   0  0  0  0  0  0  0  0  0  0  0  0
   27.3832  -20.6187  -15.6076 C   0  0  0  0  0  0  0  0  0  0  0  0
   26.4051  -21.3978  -15.7418 O   0  0  0  0  0  0  0  0  0  0  0  0
   27.9791  -20.5157  -14.2939 N   0  0  0  0  0  0  0  0  0  0  0  0
   29.1945  -19.7862  -14.0800 C   0  0  0  0  0  0  0  0  0  0  0  0
   29.4707  -19.8991  -12.6125 C   0  0  0  0  0  0  0  0  0  0  0  0
   28.6452  -21.0528  -12.1224 C   0  0  0  0  0  0  0  0  0  0  0  0
   27.4993  -21.0763  -13.0876 C   0  0  1  0  0  0  0  0  0  0  0  0
   26.3754  -20.3015  -12.4801 C   0  0  0  0  0  0  0  0  0  0  0  0
   26.1460  -19.1372  -12.8973 O   0  0  0  0  0  0  0  0  0  0  0  0
   21.9590  -19.2582  -14.0562 N   0  0  0  0  0  0  0  0  0  0  0  0
   21.4464  -19.6945  -12.7979 C   0  0  0  0  0  0  0  0  0  0  0  0
   20.6188  -18.9527  -12.2230 O   0  0  0  0  0  0  0  0  0  0  0  0
   21.8553  -20.9607  -12.1721 C   0  0  0  0  0  0  0  0  0  0  0  0
   23.3140  -21.2852  -12.2893 C   0  0  0  0  0  0  0  0  0  0  0  0
   24.1278  -20.5033  -11.3201 C   0  0  2  0  0  0  0  0  0  0  0  0
   25.5563  -20.8261  -11.4517 N   0  0  0  0  0  0  0  0  0  0  0  0
   23.7472  -20.8914   -9.9303 C   0  0  0  0  0  0  0  0  0  0  0  0
   24.4421  -21.7892   -9.1380 O   0  0  0  0  0  0  0  0  0  0  0  0
   22.7081  -20.3970   -9.3631 O   0  0  0  0  0  0  0  0  0  0  0  0
  2  1  1  6
  2  3  1  0
  4  6  1  0
  4  2  1  0
  4  5  1  6
  6  8  1  0
  6  7  2  0
  8  9  1  0
 10  9  1  0
 11 10  1  0
 11 12  1  0
 12  8  1  0
 12 13  1  1
 14 13  2  0
 16 15  1  0
 17 16  2  0
 18 16  1  0
 19 18  1  0
 20 21  1  0
 20 19  1  6
 21 13  1  0
 22 20  1  0
 23 22  1  0
 24 22  2  0
M  END
$$$$
