VPQ.pdb
     RDKit          3D

 24 24  0  0  1  0  0  0  0  0999 V2000
   14.4857  -23.3174   -2.4485 C   0  0  0  0  0  0  0  0  0  0  0  0
   14.3405  -22.7016   -1.0835 C   0  0  2  0  0  0  0  0  0  0  0  0
   15.6263  -22.1177   -0.6108 C   0  0  0  0  0  0  0  0  0  0  0  0
   13.6398  -23.6090   -0.0982 C   0  0  2  0  0  0  0  0  0  0  0  0
   12.3335  -24.0113   -0.5134 N   0  0  0  0  0  0  0  0  0  0  0  0
   13.7383  -22.9979    1.2263 C   0  0  0  0  0  0  0  0  0  0  0  0
   12.8368  -22.1877    1.5617 O   0  0  0  0  0  0  0  0  0  0  0  0
   14.7940  -23.2542    2.1810 N   0  0  0  0  0  0  0  0  0  0  0  0
   15.8144  -24.2276    1.9229 C   0  0  0  0  0  0  0  0  0  0  0  0
   16.7131  -24.1858    3.1200 C   0  0  0  0  0  0  0  0  0  0  0  0
   15.9272  -23.5095    4.2053 C   0  0  0  0  0  0  0  0  0  0  0  0
   14.9837  -22.6345    3.4377 C   0  0  1  0  0  0  0  0  0  0  0  0
   15.5980  -21.2758    3.3415 C   0  0  0  0  0  0  0  0  0  0  0  0
   16.4128  -21.0428    2.4119 O   0  0  0  0  0  0  0  0  0  0  0  0
   12.8036  -16.1260    2.6506 N   0  0  0  0  0  0  0  0  0  0  0  0
   12.6286  -16.8542    3.8653 C   0  0  0  0  0  0  0  0  0  0  0  0
   11.5767  -16.6535    4.5124 O   0  0  0  0  0  0  0  0  0  0  0  0
   13.6272  -17.8100    4.3667 C   0  0  0  0  0  0  0  0  0  0  0  0
   14.8473  -17.9620    3.5094 C   0  0  0  0  0  0  0  0  0  0  0  0
   15.8421  -18.8768    4.1311 C   0  0  2  0  0  0  0  0  0  0  0  0
   15.2992  -20.2377    4.2562 N   0  0  0  0  0  0  0  0  0  0  0  0
   16.1287  -18.4214    5.5230 C   0  0  0  0  0  0  0  0  0  0  0  0
   16.7756  -17.2437    5.8560 O   0  0  0  0  0  0  0  0  0  0  0  0
   15.7798  -19.1249    6.5376 O   0  0  0  0  0  0  0  0  0  0  0  0
  2  1  1  6
  2  3  1  0
  4  6  1  0
  4  2  1  0
  4  5  1  6
  6  8  1  0
  6  7  2  0
  8  9  1  0
 10  9  1  0
 11 10  1  0
 11 12  1  0
 12  8  1  0
 12 13  1  6
 14 13  2  0
 16 15  1  0
 17 16  2  0
 18 16  1  0
 19 18  1  0
 20 21  1  0
 20 19  1  1
 21 13  1  0
 22 20  1  0
 23 22  1  0
 24 22  2  0
M  END
$$$$
