VPQ.pdb
     RDKit          3D

 24 24  0  0  1  0  0  0  0  0999 V2000
   16.8996  -11.0158  -16.6374 C   0  0  0  0  0  0  0  0  0  0  0  0
   18.2885  -11.1225  -17.2059 C   0  0  2  0  0  0  0  0  0  0  0  0
   18.2791  -11.7719  -18.5460 C   0  0  0  0  0  0  0  0  0  0  0  0
   19.2880  -11.6842  -16.2206 C   0  0  2  0  0  0  0  0  0  0  0  0
   19.1357  -13.0840  -15.9799 N   0  0  0  0  0  0  0  0  0  0  0  0
   19.2915  -10.8211  -15.0405 C   0  0  0  0  0  0  0  0  0  0  0  0
   18.6084  -11.1872  -14.0500 O   0  0  0  0  0  0  0  0  0  0  0  0
   20.0211   -9.5778  -14.9251 N   0  0  0  0  0  0  0  0  0  0  0  0
   20.8214   -9.0784  -16.0046 C   0  0  0  0  0  0  0  0  0  0  0  0
   21.3905   -7.7847  -15.5096 C   0  0  0  0  0  0  0  0  0  0  0  0
   21.2495   -7.8140  -14.0156 C   0  0  0  0  0  0  0  0  0  0  0  0
   20.0657   -8.7092  -13.8102 C   0  0  1  0  0  0  0  0  0  0  0  0
   18.8549   -7.8427  -13.6855 C   0  0  0  0  0  0  0  0  0  0  0  0
   18.2113   -7.5464  -14.7248 O   0  0  0  0  0  0  0  0  0  0  0  0
   15.3351   -7.2883   -8.3003 N   0  0  0  0  0  0  0  0  0  0  0  0
   14.7380   -6.4286   -9.2703 C   0  0  0  0  0  0  0  0  0  0  0  0
   13.7215   -5.7860   -8.9245 O   0  0  0  0  0  0  0  0  0  0  0  0
   15.2704   -6.2815  -10.6331 C   0  0  0  0  0  0  0  0  0  0  0  0
   16.5303   -7.0453  -10.9085 C   0  0  0  0  0  0  0  0  0  0  0  0
   17.0753   -6.7333  -12.2570 C   0  0  2  0  0  0  0  0  0  0  0  0
   18.4016   -7.3408  -12.4420 N   0  0  0  0  0  0  0  0  0  0  0  0
   17.2800   -5.2600  -12.3776 C   0  0  0  0  0  0  0  0  0  0  0  0
   16.3438   -4.3656  -12.8677 O   0  0  0  0  0  0  0  0  0  0  0  0
   18.3833   -4.7109  -12.0212 O   0  0  0  0  0  0  0  0  0  0  0  0
  2  1  1  1
  2  3  1  0
  4  6  1  0
  4  2  1  0
  4  5  1  1
  6  8  1  0
  6  7  2  0
  8  9  1  0
 10  9  1  0
 11 10  1  0
 11 12  1  0
 12  8  1  0
 12 13  1  6
 14 13  2  0
 16 15  1  0
 17 16  2  0
 18 16  1  0
 19 18  1  0
 20 21  1  0
 20 19  1  1
 21 13  1  0
 22 20  1  0
 23 22  1  0
 24 22  2  0
M  END
$$$$
