RFY.pdb
     RDKit          3D

 35 36  0  0  1  0  0  0  0  0999 V2000
   40.6864  -33.1760  -16.4261 N   0  0  0  0  0  0  0  0  0  0  0  0
   40.2394  -31.8296  -16.3309 C   0  0  0  0  0  0  0  0  0  0  0  0
   40.9812  -30.9340  -15.8172 N   0  0  0  0  0  0  0  0  0  0  0  0
   38.9423  -31.4719  -16.8163 N   0  0  0  0  0  0  0  0  0  0  0  0
   38.0012  -32.4801  -17.2846 C   0  0  0  0  0  0  0  0  0  0  0  0
   36.8456  -31.7600  -17.9395 C   0  0  0  0  0  0  0  0  0  0  0  0
   36.1058  -30.8885  -16.9502 C   0  0  0  0  0  0  0  0  0  0  0  0
   34.8865  -30.2482  -17.5339 C   0  0  2  0  0  0  0  0  0  0  0  0
   35.0057  -28.7953  -17.4557 N   0  0  0  0  0  0  0  0  0  0  0  0
   33.6180  -30.6439  -16.8752 C   0  0  0  0  0  0  0  0  0  0  0  0
   33.1291  -29.9087  -15.9473 O   0  0  0  0  0  0  0  0  0  0  0  0
   40.7466  -29.9303  -15.8565 N   0  0  0  0  0  0  0  0  0  0  0  0
   32.9265  -31.8286  -17.2518 C   0  0  1  0  0  0  0  0  0  0  0  0
   31.6628  -32.2429  -16.6770 C   0  0  0  0  0  0  0  0  0  0  0  0
   30.6448  -31.1355  -16.7173 C   0  0  0  0  0  0  0  0  0  0  0  0
   29.2935  -31.5496  -16.3343 C   0  0  0  0  0  0  0  0  0  0  0  0
   28.2851  -31.6724  -17.2657 C   0  0  0  0  0  0  0  0  0  0  0  0
   26.9994  -32.0636  -16.9172 C   0  0  0  0  0  0  0  0  0  0  0  0
   26.6832  -32.3473  -15.6049 C   0  0  0  0  0  0  0  0  0  0  0  0
   27.6815  -32.2290  -14.6616 C   0  0  0  0  0  0  0  0  0  0  0  0
   28.9578  -31.8392  -15.0169 C   0  0  0  0  0  0  0  0  0  0  0  0
   31.1984  -33.5327  -17.1902 O   0  0  0  0  0  0  0  0  0  0  0  0
   31.1355  -33.7647  -18.4451 O   0  0  0  0  0  0  0  0  0  0  0  0
   29.0579  -42.2085  -17.0740 C   0  0  0  0  0  0  0  0  0  0  0  0
   29.4113  -40.8887  -16.7371 C   0  0  0  0  0  0  0  0  0  0  0  0
   29.5909  -40.5226  -15.4363 C   0  0  0  0  0  0  0  0  0  0  0  0
   29.9371  -39.2248  -15.1257 C   0  0  0  0  0  0  0  0  0  0  0  0
   30.1151  -38.2542  -16.0932 C   0  0  0  0  0  0  0  0  0  0  0  0
   30.4717  -36.8872  -15.7208 C   0  0  2  0  0  0  0  0  0  0  0  0
   30.3087  -35.8770  -16.8644 N   0  0  0  0  0  0  0  0  0  0  0  0
   30.7927  -34.6009  -16.3495 C   0  0  0  0  0  0  0  0  0  0  0  0
   28.8878  -35.8186  -17.2288 O   0  0  0  0  0  0  0  0  0  0  0  0
   28.4892  -36.2793  -18.4715 C   0  0  0  0  0  0  0  0  0  0  0  0
   29.9255  -38.6552  -17.4089 C   0  0  0  0  0  0  0  0  0  0  0  0
   29.5798  -39.9490  -17.7284 O   0  0  0  0  0  0  0  0  0  0  0  0
  2  1  1  0
  3  2  2  0
  4  2  1  0
  5  4  1  0
  6  5  1  0
  7  6  1  0
  8 10  1  0
  8  7  1  0
  8  9  1  1
 10 12  1  0
 11 10  2  0
 12 13  1  0
 13 21  1  0
 14 15  1  0
 13 14  1  1
 15 20  2  0
 16 17  2  0
 16 15  1  0
 17 18  1  0
 18 19  2  0
 19 20  1  0
 21 22  2  0
 21 30  1  0
 23 24  1  0
 24 25  2  0
 25 26  1  0
 27 26  2  0
 27 28  1  0
 29 28  1  6
 29 31  1  0
 30 29  1  0
 31 32  1  0
 33 27  1  0
 34 24  1  0
 34 33  2  0
 35 31  2  0
M  END
$$$$
