RFY.pdb
     RDKit          3D

 35 36  0  0  1  0  0  0  0  0999 V2000
   21.8744  -22.5034  -18.0688 N   0  0  0  0  0  0  0  0  0  0  0  0
   21.8454  -23.7573  -17.3988 C   0  0  0  0  0  0  0  0  0  0  0  0
   20.8362  -24.0998  -16.7056 N   0  0  0  0  0  0  0  0  0  0  0  0
   22.9601  -24.6476  -17.5015 N   0  0  0  0  0  0  0  0  0  0  0  0
   24.1668  -24.2745  -18.2267 C   0  0  0  0  0  0  0  0  0  0  0  0
   25.2600  -24.0422  -17.2099 C   0  0  0  0  0  0  0  0  0  0  0  0
   25.9178  -22.6951  -17.4040 C   0  0  0  0  0  0  0  0  0  0  0  0
   27.3118  -22.6427  -16.8641 C   0  0  2  0  0  0  0  0  0  0  0  0
   28.0903  -23.7569  -17.3968 N   0  0  0  0  0  0  0  0  0  0  0  0
   27.3923  -22.6886  -15.3840 C   0  0  0  0  0  0  0  0  0  0  0  0
   27.6657  -23.7941  -14.7977 O   0  0  0  0  0  0  0  0  0  0  0  0
   20.7623  -25.0238  -16.2532 N   0  0  0  0  0  0  0  0  0  0  0  0
   27.1715  -21.5262  -14.5943 C   0  0  2  0  0  0  0  0  0  0  0  0
   27.1678  -21.5235  -13.1454 C   0  0  0  0  0  0  0  0  0  0  0  0
   27.7269  -20.2411  -12.5911 C   0  0  0  0  0  0  0  0  0  0  0  0
   27.7405  -20.1764  -11.1283 C   0  0  0  0  0  0  0  0  0  0  0  0
   28.7450  -20.7630  -10.3893 C   0  0  0  0  0  0  0  0  0  0  0  0
   28.7708  -20.7100   -9.0022 C   0  0  0  0  0  0  0  0  0  0  0  0
   27.7751  -20.0572   -8.3057 C   0  0  0  0  0  0  0  0  0  0  0  0
   26.7633  -19.4653   -9.0313 C   0  0  0  0  0  0  0  0  0  0  0  0
   26.7452  -19.5229  -10.4109 C   0  0  0  0  0  0  0  0  0  0  0  0
   25.8840  -21.9383  -12.5777 O   0  0  0  0  0  0  0  0  0  0  0  0
   25.6838  -21.9363  -11.3158 O   0  0  0  0  0  0  0  0  0  0  0  0
   18.3599  -19.3172  -10.1183 C   0  0  0  0  0  0  0  0  0  0  0  0
   19.6266  -19.7311  -10.5708 C   0  0  0  0  0  0  0  0  0  0  0  0
   19.9920  -21.0436  -10.5241 C   0  0  0  0  0  0  0  0  0  0  0  0
   21.2372  -21.4300  -10.9722 C   0  0  0  0  0  0  0  0  0  0  0  0
   22.1544  -20.5288  -11.4784 C   0  0  0  0  0  0  0  0  0  0  0  0
   23.4681  -20.9785  -11.9331 C   0  0  2  0  0  0  0  0  0  0  0  0
   23.4052  -22.0042  -13.0728 N   0  0  0  0  0  0  0  0  0  0  0  0
   24.7872  -22.3640  -13.3704 C   0  0  0  0  0  0  0  0  0  0  0  0
   22.7417  -21.3763  -14.2220 O   0  0  0  0  0  0  0  0  0  0  0  0
   23.4071  -20.3920  -14.9319 C   0  0  0  0  0  0  0  0  0  0  0  0
   21.7555  -19.1994  -11.5138 C   0  0  0  0  0  0  0  0  0  0  0  0
   20.5140  -18.8044  -11.0686 O   0  0  0  0  0  0  0  0  0  0  0  0
  2  1  1  0
  3  2  2  0
  4  2  1  0
  5  4  1  0
  6  5  1  0
  7  6  1  0
  8 10  1  0
  8  7  1  0
  8  9  1  6
 10 12  1  0
 11 10  2  0
 12 13  1  0
 13 21  1  0
 14 15  1  0
 13 14  1  6
 15 20  2  0
 16 17  2  0
 16 15  1  0
 17 18  1  0
 18 19  2  0
 19 20  1  0
 21 22  2  0
 21 30  1  0
 23 24  1  0
 24 25  2  0
 25 26  1  0
 27 26  2  0
 27 28  1  0
 29 28  1  1
 29 31  1  0
 30 29  1  0
 31 32  1  0
 33 27  1  0
 34 24  1  0
 34 33  2  0
 35 31  2  0
M  END
$$$$
