RFY.pdb
     RDKit          3D

 35 36  0  0  1  0  0  0  0  0999 V2000
   25.5880  -18.7661  -17.0270 N   0  0  0  0  0  0  0  0  0  0  0  0
   26.3706  -17.9095  -17.8491 C   0  0  0  0  0  0  0  0  0  0  0  0
   25.8158  -17.1124  -18.6696 N   0  0  0  0  0  0  0  0  0  0  0  0
   27.7976  -17.9398  -17.7570 N   0  0  0  0  0  0  0  0  0  0  0  0
   28.5056  -19.1321  -17.3115 C   0  0  0  0  0  0  0  0  0  0  0  0
   28.0978  -20.2723  -18.2151 C   0  0  0  0  0  0  0  0  0  0  0  0
   27.8577  -21.5411  -17.4291 C   0  0  0  0  0  0  0  0  0  0  0  0
   28.9403  -21.8272  -16.4372 C   0  0  2  0  0  0  0  0  0  0  0  0
   29.5547  -23.1176  -16.7348 N   0  0  0  0  0  0  0  0  0  0  0  0
   28.4823  -21.8477  -15.0269 C   0  0  0  0  0  0  0  0  0  0  0  0
   27.9377  -22.9054  -14.5522 O   0  0  0  0  0  0  0  0  0  0  0  0
   26.3529  -16.4393  -19.2375 N   0  0  0  0  0  0  0  0  0  0  0  0
   28.6343  -20.7129  -14.1826 C   0  0  2  0  0  0  0  0  0  0  0  0
   28.2149  -20.6763  -12.7963 C   0  0  0  0  0  0  0  0  0  0  0  0
   29.2182  -19.9625  -11.9313 C   0  0  0  0  0  0  0  0  0  0  0  0
   30.2079  -20.8443  -11.3093 C   0  0  0  0  0  0  0  0  0  0  0  0
   31.2254  -21.4172  -12.0415 C   0  0  0  0  0  0  0  0  0  0  0  0
   32.1705  -22.2553  -11.4654 C   0  0  0  0  0  0  0  0  0  0  0  0
   32.1218  -22.5475  -10.1182 C   0  0  0  0  0  0  0  0  0  0  0  0
   31.1097  -21.9818   -9.3725 C   0  0  0  0  0  0  0  0  0  0  0  0
   30.1736  -21.1492   -9.9535 C   0  0  0  0  0  0  0  0  0  0  0  0
   26.8284  -20.2371  -12.6314 O   0  0  0  0  0  0  0  0  0  0  0  0
   26.4242  -19.1211  -13.1047 O   0  0  0  0  0  0  0  0  0  0  0  0
   18.0972  -19.9648  -11.8808 C   0  0  0  0  0  0  0  0  0  0  0  0
   19.4479  -20.3381  -12.0092 C   0  0  0  0  0  0  0  0  0  0  0  0
   20.0050  -21.2516  -11.1645 C   0  0  0  0  0  0  0  0  0  0  0  0
   21.3301  -21.6048  -11.3060 C   0  0  0  0  0  0  0  0  0  0  0  0
   22.1398  -21.0642  -12.2866 C   0  0  0  0  0  0  0  0  0  0  0  0
   23.5425  -21.4580  -12.3956 C   0  0  2  0  0  0  0  0  0  0  0  0
   24.5050  -20.5073  -11.6711 N   0  0  0  0  0  0  0  0  0  0  0  0
   25.8487  -21.0027  -11.9485 C   0  0  0  0  0  0  0  0  0  0  0  0
   24.1930  -20.5404  -10.2370 O   0  0  0  0  0  0  0  0  0  0  0  0
   24.8434  -21.4527   -9.4245 C   0  0  0  0  0  0  0  0  0  0  0  0
   21.5461  -20.1366  -13.1322 C   0  0  0  0  0  0  0  0  0  0  0  0
   20.2236  -19.7780  -12.9984 O   0  0  0  0  0  0  0  0  0  0  0  0
  2  1  1  0
  3  2  2  0
  4  2  1  0
  5  4  1  0
  6  5  1  0
  7  6  1  0
  8 10  1  0
  8  7  1  0
  8  9  1  6
 10 12  1  0
 11 10  2  0
 12 13  1  0
 13 21  1  0
 14 15  1  0
 13 14  1  6
 15 20  2  0
 16 17  2  0
 16 15  1  0
 17 18  1  0
 18 19  2  0
 19 20  1  0
 21 22  2  0
 21 30  1  0
 23 24  1  0
 24 25  2  0
 25 26  1  0
 27 26  2  0
 27 28  1  0
 29 28  1  6
 29 31  1  0
 30 29  1  0
 31 32  1  0
 33 27  1  0
 34 24  1  0
 34 33  2  0
 35 31  2  0
M  END
$$$$
