RFY.pdb
     RDKit          3D

 35 36  0  0  1  0  0  0  0  0999 V2000
   29.1352  -12.9315  -18.0186 N   0  0  0  0  0  0  0  0  0  0  0  0
   28.1040  -13.7633  -18.5349 C   0  0  0  0  0  0  0  0  0  0  0  0
   27.8635  -13.8003  -19.7828 N   0  0  0  0  0  0  0  0  0  0  0  0
   27.3250  -14.5695  -17.6466 N   0  0  0  0  0  0  0  0  0  0  0  0
   27.6442  -14.6643  -16.2287 C   0  0  0  0  0  0  0  0  0  0  0  0
   26.6358  -15.5924  -15.5925 C   0  0  0  0  0  0  0  0  0  0  0  0
   26.1702  -16.6522  -16.5648 C   0  0  0  0  0  0  0  0  0  0  0  0
   25.0335  -17.4693  -16.0377 C   0  0  2  0  0  0  0  0  0  0  0  0
   24.6156  -16.9539  -14.7373 N   0  0  0  0  0  0  0  0  0  0  0  0
   25.3414  -18.9120  -15.8859 C   0  0  0  0  0  0  0  0  0  0  0  0
   25.6167  -19.6141  -16.9211 O   0  0  0  0  0  0  0  0  0  0  0  0
   27.0938  -14.3587  -20.1825 N   0  0  0  0  0  0  0  0  0  0  0  0
   25.3383  -19.5392  -14.6090 C   0  0  1  0  0  0  0  0  0  0  0  0
   25.5641  -20.9557  -14.4050 C   0  0  0  0  0  0  0  0  0  0  0  0
   26.6674  -21.2049  -13.4126 C   0  0  0  0  0  0  0  0  0  0  0  0
   26.3091  -20.8934  -12.0275 C   0  0  0  0  0  0  0  0  0  0  0  0
   25.9081  -21.8754  -11.1475 C   0  0  0  0  0  0  0  0  0  0  0  0
   25.5651  -21.5949   -9.8318 C   0  0  0  0  0  0  0  0  0  0  0  0
   25.6151  -20.3021   -9.3534 C   0  0  0  0  0  0  0  0  0  0  0  0
   26.0144  -19.3088  -10.2219 C   0  0  0  0  0  0  0  0  0  0  0  0
   26.3539  -19.5965  -11.5292 C   0  0  0  0  0  0  0  0  0  0  0  0
   24.3281  -21.7007  -14.1600 O   0  0  0  0  0  0  0  0  0  0  0  0
   24.3249  -22.9762  -14.0854 O   0  0  0  0  0  0  0  0  0  0  0  0
   16.7844  -24.2579  -10.5759 C   0  0  0  0  0  0  0  0  0  0  0  0
   17.9569  -23.6020  -10.9949 C   0  0  0  0  0  0  0  0  0  0  0  0
   19.1070  -24.2990  -11.2183 C   0  0  0  0  0  0  0  0  0  0  0  0
   20.2457  -23.6389  -11.6285 C   0  0  0  0  0  0  0  0  0  0  0  0
   20.2777  -22.2719  -11.8288 C   0  0  0  0  0  0  0  0  0  0  0  0
   21.5086  -21.6096  -12.2537 C   0  0  1  0  0  0  0  0  0  0  0  0
   21.8379  -21.8196  -13.7378 N   0  0  0  0  0  0  0  0  0  0  0  0
   23.0666  -21.0747  -13.9892 C   0  0  0  0  0  0  0  0  0  0  0  0
   20.7150  -21.3118  -14.5355 O   0  0  0  0  0  0  0  0  0  0  0  0
   19.6773  -22.1669  -14.8630 C   0  0  0  0  0  0  0  0  0  0  0  0
   19.0925  -21.5879  -11.5935 C   0  0  0  0  0  0  0  0  0  0  0  0
   17.9505  -22.2388  -11.1838 O   0  0  0  0  0  0  0  0  0  0  0  0
  2  1  1  0
  3  2  2  0
  4  2  1  0
  5  4  1  0
  6  5  1  0
  7  6  1  0
  8 10  1  0
  8  7  1  0
  8  9  1  1
 10 12  1  0
 11 10  2  0
 12 13  1  0
 13 21  1  0
 14 15  1  0
 13 14  1  6
 15 20  2  0
 16 17  2  0
 16 15  1  0
 17 18  1  0
 18 19  2  0
 19 20  1  0
 21 22  2  0
 21 30  1  0
 23 24  1  0
 24 25  2  0
 25 26  1  0
 27 26  2  0
 27 28  1  0
 29 28  1  1
 29 31  1  0
 30 29  1  0
 31 32  1  0
 33 27  1  0
 34 24  1  0
 34 33  2  0
 35 31  2  0
M  END
$$$$
