RFY.pdb
     RDKit          3D

 35 36  0  0  1  0  0  0  0  0999 V2000
   30.2329  -23.7207  -16.2222 N   0  0  0  0  0  0  0  0  0  0  0  0
   29.9121  -24.8496  -17.0252 C   0  0  0  0  0  0  0  0  0  0  0  0
   30.8040  -25.7014  -17.3338 N   0  0  0  0  0  0  0  0  0  0  0  0
   28.5735  -25.0350  -17.4939 N   0  0  0  0  0  0  0  0  0  0  0  0
   27.5898  -23.9630  -17.4287 C   0  0  0  0  0  0  0  0  0  0  0  0
   27.4977  -23.5116  -15.9897 C   0  0  0  0  0  0  0  0  0  0  0  0
   26.1284  -23.7865  -15.4112 C   0  0  0  0  0  0  0  0  0  0  0  0
   25.1404  -22.7037  -15.7094 C   0  0  2  0  0  0  0  0  0  0  0  0
   25.8436  -21.4941  -16.1262 N   0  0  0  0  0  0  0  0  0  0  0  0
   24.2578  -22.3557  -14.5696 C   0  0  0  0  0  0  0  0  0  0  0  0
   23.6207  -23.2814  -13.9551 O   0  0  0  0  0  0  0  0  0  0  0  0
   30.5947  -26.5484  -17.8841 N   0  0  0  0  0  0  0  0  0  0  0  0
   24.1008  -21.0089  -14.1394 C   0  0  1  0  0  0  0  0  0  0  0  0
   23.2639  -20.6096  -13.0261 C   0  0  0  0  0  0  0  0  0  0  0  0
   23.9423  -19.5811  -12.1623 C   0  0  0  0  0  0  0  0  0  0  0  0
   24.7059  -20.1447  -11.0472 C   0  0  0  0  0  0  0  0  0  0  0  0
   26.0119  -20.5566  -11.2020 C   0  0  0  0  0  0  0  0  0  0  0  0
   26.7479  -21.0930  -10.1541 C   0  0  0  0  0  0  0  0  0  0  0  0
   26.1869  -21.2338   -8.9018 C   0  0  0  0  0  0  0  0  0  0  0  0
   24.8810  -20.8261   -8.7314 C   0  0  0  0  0  0  0  0  0  0  0  0
   24.1561  -20.2936   -9.7792 C   0  0  0  0  0  0  0  0  0  0  0  0
   21.8970  -20.2771  -13.4308 O   0  0  0  0  0  0  0  0  0  0  0  0
   21.6428  -19.2263  -14.1119 O   0  0  0  0  0  0  0  0  0  0  0  0
   19.8487  -26.3683  -16.5787 C   0  0  0  0  0  0  0  0  0  0  0  0
   19.7183  -25.0235  -16.1852 C   0  0  0  0  0  0  0  0  0  0  0  0
   18.5306  -24.5422  -15.7204 C   0  0  0  0  0  0  0  0  0  0  0  0
   18.4223  -23.2216  -15.3394 C   0  0  0  0  0  0  0  0  0  0  0  0
   19.4856  -22.3417  -15.4078 C   0  0  0  0  0  0  0  0  0  0  0  0
   19.3256  -20.9468  -15.0040 C   0  0  1  0  0  0  0  0  0  0  0  0
   19.4106  -20.7333  -13.4867 N   0  0  0  0  0  0  0  0  0  0  0  0
   20.7747  -21.0812  -13.1046 C   0  0  0  0  0  0  0  0  0  0  0  0
   18.4207  -21.6052  -12.8424 O   0  0  0  0  0  0  0  0  0  0  0  0
   17.0734  -21.3717  -13.0561 C   0  0  0  0  0  0  0  0  0  0  0  0
   20.6824  -22.8591  -15.8850 C   0  0  0  0  0  0  0  0  0  0  0  0
   20.7998  -24.1764  -16.2676 O   0  0  0  0  0  0  0  0  0  0  0  0
  2  1  1  0
  3  2  2  0
  4  2  1  0
  5  4  1  0
  6  5  1  0
  7  6  1  0
  8 10  1  0
  8  7  1  0
  8  9  1  1
 10 12  1  0
 11 10  2  0
 12 13  1  0
 13 21  1  0
 14 15  1  0
 13 14  1  1
 15 20  2  0
 16 17  2  0
 16 15  1  0
 17 18  1  0
 18 19  2  0
 19 20  1  0
 21 22  2  0
 21 30  1  0
 23 24  1  0
 24 25  2  0
 25 26  1  0
 27 26  2  0
 27 28  1  0
 29 28  1  6
 29 31  1  0
 30 29  1  0
 31 32  1  0
 33 27  1  0
 34 24  1  0
 34 33  2  0
 35 31  2  0
M  END
$$$$
