RFY.pdb
     RDKit          3D

 35 36  0  0  1  0  0  0  0  0999 V2000
   24.3501  -16.5522  -15.6068 N   0  0  0  0  0  0  0  0  0  0  0  0
   25.0706  -15.6113  -14.8211 C   0  0  0  0  0  0  0  0  0  0  0  0
   24.4813  -14.9246  -13.9280 N   0  0  0  0  0  0  0  0  0  0  0  0
   26.4736  -15.4304  -15.0324 N   0  0  0  0  0  0  0  0  0  0  0  0
   27.2018  -16.2179  -16.0178 C   0  0  0  0  0  0  0  0  0  0  0  0
   28.0765  -17.1957  -15.2682 C   0  0  0  0  0  0  0  0  0  0  0  0
   27.3363  -18.4784  -14.9646 C   0  0  0  0  0  0  0  0  0  0  0  0
   28.1359  -19.4313  -14.1339 C   0  0  2  0  0  0  0  0  0  0  0  0
   29.2468  -19.9601  -14.9198 N   0  0  0  0  0  0  0  0  0  0  0  0
   27.3573  -20.5773  -13.6049 C   0  0  0  0  0  0  0  0  0  0  0  0
   27.4319  -21.7166  -14.1854 O   0  0  0  0  0  0  0  0  0  0  0  0
   24.9644  -14.1959  -13.3806 N   0  0  0  0  0  0  0  0  0  0  0  0
   26.5239  -20.4406  -12.4602 C   0  0  2  0  0  0  0  0  0  0  0  0
   25.7553  -21.5268  -11.8871 C   0  0  0  0  0  0  0  0  0  0  0  0
   25.4384  -21.2784  -10.4372 C   0  0  0  0  0  0  0  0  0  0  0  0
   26.6030  -20.9318   -9.6202 C   0  0  0  0  0  0  0  0  0  0  0  0
   26.5253  -19.9930   -8.6142 C   0  0  0  0  0  0  0  0  0  0  0  0
   27.6211  -19.6541   -7.8320 C   0  0  0  0  0  0  0  0  0  0  0  0
   28.8449  -20.2560   -8.0391 C   0  0  0  0  0  0  0  0  0  0  0  0
   28.9383  -21.1973   -9.0420 C   0  0  0  0  0  0  0  0  0  0  0  0
   27.8433  -21.5284   -9.8155 C   0  0  0  0  0  0  0  0  0  0  0  0
   24.6125  -21.9156  -12.7150 O   0  0  0  0  0  0  0  0  0  0  0  0
   23.9850  -23.0096  -12.5099 O   0  0  0  0  0  0  0  0  0  0  0  0
   18.7307  -21.8701   -9.8020 C   0  0  0  0  0  0  0  0  0  0  0  0
   19.5095  -21.5266  -10.9226 C   0  0  0  0  0  0  0  0  0  0  0  0
   19.3627  -22.1871  -12.1061 C   0  0  0  0  0  0  0  0  0  0  0  0
   20.1347  -21.8363  -13.1931 C   0  0  0  0  0  0  0  0  0  0  0  0
   21.0726  -20.8228  -13.1389 C   0  0  0  0  0  0  0  0  0  0  0  0
   21.8781  -20.4895  -14.3113 C   0  0  2  0  0  0  0  0  0  0  0  0
   22.9842  -21.5114  -14.6069 N   0  0  0  0  0  0  0  0  0  0  0  0
   24.1250  -21.1222  -13.7852 C   0  0  0  0  0  0  0  0  0  0  0  0
   23.2948  -21.4528  -16.0404 O   0  0  0  0  0  0  0  0  0  0  0  0
   22.4234  -22.0339  -16.9451 C   0  0  0  0  0  0  0  0  0  0  0  0
   21.2008  -20.1678  -11.9214 C   0  0  0  0  0  0  0  0  0  0  0  0
   20.4341  -20.5113  -10.8307 O   0  0  0  0  0  0  0  0  0  0  0  0
  2  1  1  0
  3  2  2  0
  4  2  1  0
  5  4  1  0
  6  5  1  0
  7  6  1  0
  8 10  1  0
  8  7  1  0
  8  9  1  6
 10 12  1  0
 11 10  2  0
 12 13  1  0
 13 21  1  0
 14 15  1  0
 13 14  1  6
 15 20  2  0
 16 17  2  0
 16 15  1  0
 17 18  1  0
 18 19  2  0
 19 20  1  0
 21 22  2  0
 21 30  1  0
 23 24  1  0
 24 25  2  0
 25 26  1  0
 27 26  2  0
 27 28  1  0
 29 28  1  1
 29 31  1  0
 30 29  1  0
 31 32  1  0
 33 27  1  0
 34 24  1  0
 34 33  2  0
 35 31  2  0
M  END
$$$$
