RFY.pdb
     RDKit          3D

 35 36  0  0  1  0  0  0  0  0999 V2000
   29.1995  -22.8991  -17.9355 N   0  0  0  0  0  0  0  0  0  0  0  0
   29.6418  -21.5946  -18.2884 C   0  0  0  0  0  0  0  0  0  0  0  0
   30.1087  -21.3588  -19.4472 N   0  0  0  0  0  0  0  0  0  0  0  0
   29.5634  -20.5318  -17.3345 N   0  0  0  0  0  0  0  0  0  0  0  0
   28.7673  -20.6563  -16.1212 C   0  0  0  0  0  0  0  0  0  0  0  0
   27.5531  -21.4922  -16.4529 C   0  0  0  0  0  0  0  0  0  0  0  0
   26.4423  -21.2747  -15.4508 C   0  0  0  0  0  0  0  0  0  0  0  0
   26.8582  -21.5706  -14.0448 C   0  0  2  0  0  0  0  0  0  0  0  0
   27.5678  -22.8455  -13.9971 N   0  0  0  0  0  0  0  0  0  0  0  0
   25.7347  -21.6305  -13.0787 C   0  0  0  0  0  0  0  0  0  0  0  0
   24.9623  -22.6522  -13.0669 O   0  0  0  0  0  0  0  0  0  0  0  0
   30.4181  -20.4191  -19.7393 N   0  0  0  0  0  0  0  0  0  0  0  0
   25.4926  -20.5732  -12.1583 C   0  0  1  0  0  0  0  0  0  0  0  0
   24.3680  -20.5394  -11.2455 C   0  0  0  0  0  0  0  0  0  0  0  0
   24.5934  -19.5635  -10.1224 C   0  0  0  0  0  0  0  0  0  0  0  0
   25.7146  -19.9075   -9.2458 C   0  0  0  0  0  0  0  0  0  0  0  0
   26.5786  -18.9459   -8.7680 C   0  0  0  0  0  0  0  0  0  0  0  0
   27.6459  -19.2573   -7.9365 C   0  0  0  0  0  0  0  0  0  0  0  0
   27.8811  -20.5617   -7.5544 C   0  0  0  0  0  0  0  0  0  0  0  0
   27.0253  -21.5349   -8.0244 C   0  0  0  0  0  0  0  0  0  0  0  0
   25.9660  -21.2165   -8.8512 C   0  0  0  0  0  0  0  0  0  0  0  0
   23.0809  -20.4113  -11.9309 O   0  0  0  0  0  0  0  0  0  0  0  0
   22.9070  -19.5551  -12.8632 O   0  0  0  0  0  0  0  0  0  0  0  0
   14.5007  -22.0872  -13.8396 C   0  0  0  0  0  0  0  0  0  0  0  0
   15.8068  -22.1113  -13.3160 C   0  0  0  0  0  0  0  0  0  0  0  0
   16.0427  -21.8034  -12.0092 C   0  0  0  0  0  0  0  0  0  0  0  0
   17.3291  -21.8326  -11.5143 C   0  0  0  0  0  0  0  0  0  0  0  0
   18.4167  -22.1670  -12.2985 C   0  0  0  0  0  0  0  0  0  0  0  0
   19.7656  -22.1755  -11.7373 C   0  0  2  0  0  0  0  0  0  0  0  0
   20.6489  -21.0279  -12.2450 N   0  0  0  0  0  0  0  0  0  0  0  0
   21.9531  -21.2131  -11.6185 C   0  0  0  0  0  0  0  0  0  0  0  0
   20.0261  -19.7581  -11.8514 O   0  0  0  0  0  0  0  0  0  0  0  0
   19.2278  -19.0863  -12.7608 C   0  0  0  0  0  0  0  0  0  0  0  0
   18.1469  -22.4756  -13.6250 C   0  0  0  0  0  0  0  0  0  0  0  0
   16.8654  -22.4492  -14.1278 O   0  0  0  0  0  0  0  0  0  0  0  0
  2  1  1  0
  3  2  2  0
  4  2  1  0
  5  4  1  0
  6  5  1  0
  7  6  1  0
  8 10  1  0
  8  7  1  0
  8  9  1  6
 10 12  1  0
 11 10  2  0
 12 13  1  0
 13 21  1  0
 14 15  1  0
 13 14  1  6
 15 20  2  0
 16 17  2  0
 16 15  1  0
 17 18  1  0
 18 19  2  0
 19 20  1  0
 21 22  2  0
 21 30  1  0
 23 24  1  0
 24 25  2  0
 25 26  1  0
 27 26  2  0
 27 28  1  0
 29 28  1  6
 29 31  1  0
 30 29  1  0
 31 32  1  0
 33 27  1  0
 34 24  1  0
 34 33  2  0
 35 31  2  0
M  END
$$$$
