RFY.pdb
     RDKit          3D

 35 36  0  0  1  0  0  0  0  0999 V2000
   31.7443  -27.0996  -18.7390 N   0  0  0  0  0  0  0  0  0  0  0  0
   32.5607  -26.5398  -17.7182 C   0  0  0  0  0  0  0  0  0  0  0  0
   33.7693  -26.9089  -17.5781 N   0  0  0  0  0  0  0  0  0  0  0  0
   32.0230  -25.5506  -16.8361 N   0  0  0  0  0  0  0  0  0  0  0  0
   30.6643  -25.0501  -16.9928 C   0  0  0  0  0  0  0  0  0  0  0  0
   30.7524  -23.6545  -17.5650 C   0  0  0  0  0  0  0  0  0  0  0  0
   29.8945  -22.6832  -16.7866 C   0  0  0  0  0  0  0  0  0  0  0  0
   28.4573  -23.0933  -16.7250 C   0  0  2  0  0  0  0  0  0  0  0  0
   27.9446  -23.3021  -18.0758 N   0  0  0  0  0  0  0  0  0  0  0  0
   27.5754  -22.1161  -16.0419 C   0  0  0  0  0  0  0  0  0  0  0  0
   27.8507  -21.7389  -14.8492 O   0  0  0  0  0  0  0  0  0  0  0  0
   34.4043  -26.4769  -16.8895 N   0  0  0  0  0  0  0  0  0  0  0  0
   26.4229  -21.5840  -16.6840 C   0  0  1  0  0  0  0  0  0  0  0  0
   25.5853  -20.5496  -16.1116 C   0  0  0  0  0  0  0  0  0  0  0  0
   25.5863  -19.3039  -16.9556 C   0  0  0  0  0  0  0  0  0  0  0  0
   26.8392  -18.5477  -16.9061 C   0  0  0  0  0  0  0  0  0  0  0  0
   27.0736  -17.6023  -15.9310 C   0  0  0  0  0  0  0  0  0  0  0  0
   28.2563  -16.8776  -15.8719 C   0  0  0  0  0  0  0  0  0  0  0  0
   29.2532  -17.0832  -16.8029 C   0  0  0  0  0  0  0  0  0  0  0  0
   29.0333  -18.0258  -17.7846 C   0  0  0  0  0  0  0  0  0  0  0  0
   27.8539  -18.7423  -17.8361 C   0  0  0  0  0  0  0  0  0  0  0  0
   24.2603  -21.0375  -15.7256 O   0  0  0  0  0  0  0  0  0  0  0  0
   23.6119  -21.8541  -16.4640 O   0  0  0  0  0  0  0  0  0  0  0  0
   16.8458  -21.7981  -10.7723 C   0  0  0  0  0  0  0  0  0  0  0  0
   18.1422  -21.5273  -11.2481 C   0  0  0  0  0  0  0  0  0  0  0  0
   18.5222  -20.2556  -11.5593 C   0  0  0  0  0  0  0  0  0  0  0  0
   19.7967  -20.0099  -12.0239 C   0  0  0  0  0  0  0  0  0  0  0  0
   20.7296  -21.0152  -12.1933 C   0  0  0  0  0  0  0  0  0  0  0  0
   22.0668  -20.7135  -12.6986 C   0  0  1  0  0  0  0  0  0  0  0  0
   22.2647  -21.0883  -14.1736 N   0  0  0  0  0  0  0  0  0  0  0  0
   23.6102  -20.6488  -14.5261 C   0  0  0  0  0  0  0  0  0  0  0  0
   21.2375  -20.4008  -14.9657 O   0  0  0  0  0  0  0  0  0  0  0  0
   21.4633  -19.1007  -15.3828 C   0  0  0  0  0  0  0  0  0  0  0  0
   20.3152  -22.3000  -11.8689 C   0  0  0  0  0  0  0  0  0  0  0  0
   19.0445  -22.5547  -11.4041 O   0  0  0  0  0  0  0  0  0  0  0  0
  2  1  1  0
  3  2  2  0
  4  2  1  0
  5  4  1  0
  6  5  1  0
  7  6  1  0
  8 10  1  0
  8  7  1  0
  8  9  1  6
 10 12  1  0
 11 10  2  0
 12 13  1  0
 13 21  1  0
 14 15  1  0
 13 14  1  1
 15 20  2  0
 16 17  2  0
 16 15  1  0
 17 18  1  0
 18 19  2  0
 19 20  1  0
 21 22  2  0
 21 30  1  0
 23 24  1  0
 24 25  2  0
 25 26  1  0
 27 26  2  0
 27 28  1  0
 29 28  1  1
 29 31  1  0
 30 29  1  0
 31 32  1  0
 33 27  1  0
 34 24  1  0
 34 33  2  0
 35 31  2  0
M  END
$$$$
