RFY.pdb
     RDKit          3D

 35 36  0  0  1  0  0  0  0  0999 V2000
   28.8613  -19.2231  -20.3647 N   0  0  0  0  0  0  0  0  0  0  0  0
   29.3387  -20.3108  -21.1463 C   0  0  0  0  0  0  0  0  0  0  0  0
   29.5316  -20.1770  -22.3958 N   0  0  0  0  0  0  0  0  0  0  0  0
   29.6069  -21.5717  -20.5266 N   0  0  0  0  0  0  0  0  0  0  0  0
   29.4426  -21.7641  -19.0922 C   0  0  0  0  0  0  0  0  0  0  0  0
   28.0450  -22.2876  -18.8567 C   0  0  0  0  0  0  0  0  0  0  0  0
   27.7821  -22.5179  -17.3859 C   0  0  0  0  0  0  0  0  0  0  0  0
   27.1315  -21.3478  -16.7188 C   0  0  2  0  0  0  0  0  0  0  0  0
   27.9350  -20.1477  -16.9320 N   0  0  0  0  0  0  0  0  0  0  0  0
   26.9295  -21.5154  -15.2592 C   0  0  0  0  0  0  0  0  0  0  0  0
   26.2411  -22.5038  -14.8237 O   0  0  0  0  0  0  0  0  0  0  0  0
   29.8207  -20.9622  -22.9991 N   0  0  0  0  0  0  0  0  0  0  0  0
   27.4858  -20.5984  -14.3248 C   0  0  1  0  0  0  0  0  0  0  0  0
   27.3160  -20.7054  -12.8899 C   0  0  0  0  0  0  0  0  0  0  0  0
   28.4183  -20.0010  -12.1462 C   0  0  0  0  0  0  0  0  0  0  0  0
   28.2988  -20.0731  -10.6886 C   0  0  0  0  0  0  0  0  0  0  0  0
   27.5720  -19.1431   -9.9772 C   0  0  0  0  0  0  0  0  0  0  0  0
   27.4503  -19.1987   -8.5952 C   0  0  0  0  0  0  0  0  0  0  0  0
   28.0632  -20.2037   -7.8762 C   0  0  0  0  0  0  0  0  0  0  0  0
   28.7938  -21.1416   -8.5740 C   0  0  0  0  0  0  0  0  0  0  0  0
   28.9098  -21.0789   -9.9487 C   0  0  0  0  0  0  0  0  0  0  0  0
   25.9597  -20.3747  -12.4500 O   0  0  0  0  0  0  0  0  0  0  0  0
   25.4392  -19.2351  -12.7008 O   0  0  0  0  0  0  0  0  0  0  0  0
   20.8623  -18.6875  -16.3531 C   0  0  0  0  0  0  0  0  0  0  0  0
   21.3343  -19.4154  -15.2450 C   0  0  0  0  0  0  0  0  0  0  0  0
   20.7607  -19.2707  -14.0168 C   0  0  0  0  0  0  0  0  0  0  0  0
   21.2368  -19.9925  -12.9430 C   0  0  0  0  0  0  0  0  0  0  0  0
   22.2929  -20.8768  -13.0551 C   0  0  0  0  0  0  0  0  0  0  0  0
   22.7739  -21.6146  -11.8894 C   0  0  2  0  0  0  0  0  0  0  0  0
   23.8755  -20.8825  -11.1113 N   0  0  0  0  0  0  0  0  0  0  0  0
   25.1373  -21.2772  -11.7277 C   0  0  0  0  0  0  0  0  0  0  0  0
   23.7987  -21.2958   -9.7047 O   0  0  0  0  0  0  0  0  0  0  0  0
   22.7414  -20.8558   -8.9276 C   0  0  0  0  0  0  0  0  0  0  0  0
   22.8576  -21.0037  -14.3171 C   0  0  0  0  0  0  0  0  0  0  0  0
   22.3886  -20.2871  -15.3951 O   0  0  0  0  0  0  0  0  0  0  0  0
  2  1  1  0
  3  2  2  0
  4  2  1  0
  5  4  1  0
  6  5  1  0
  7  6  1  0
  8 10  1  0
  8  7  1  0
  8  9  1  1
 10 12  1  0
 11 10  2  0
 12 13  1  0
 13 21  1  0
 14 15  1  0
 13 14  1  6
 15 20  2  0
 16 17  2  0
 16 15  1  0
 17 18  1  0
 18 19  2  0
 19 20  1  0
 21 22  2  0
 21 30  1  0
 23 24  1  0
 24 25  2  0
 25 26  1  0
 27 26  2  0
 27 28  1  0
 29 28  1  6
 29 31  1  0
 30 29  1  0
 31 32  1  0
 33 27  1  0
 34 24  1  0
 34 33  2  0
 35 31  2  0
M  END
$$$$
