RFY.pdb
     RDKit          3D

 35 36  0  0  1  0  0  0  0  0999 V2000
   27.7495  -13.8297  -21.4132 N   0  0  0  0  0  0  0  0  0  0  0  0
   27.2845  -15.0193  -20.7884 C   0  0  0  0  0  0  0  0  0  0  0  0
   27.9104  -16.1164  -20.9336 N   0  0  0  0  0  0  0  0  0  0  0  0
   26.1005  -14.9886  -19.9864 N   0  0  0  0  0  0  0  0  0  0  0  0
   25.2126  -13.8340  -19.9855 C   0  0  0  0  0  0  0  0  0  0  0  0
   24.0532  -14.1476  -19.0689 C   0  0  0  0  0  0  0  0  0  0  0  0
   23.6231  -15.5912  -19.1964 C   0  0  0  0  0  0  0  0  0  0  0  0
   22.1840  -15.7404  -19.5762 C   0  0  2  0  0  0  0  0  0  0  0  0
   21.6551  -14.4553  -20.0235 N   0  0  0  0  0  0  0  0  0  0  0  0
   21.3160  -16.2422  -18.4834 C   0  0  0  0  0  0  0  0  0  0  0  0
   20.8538  -15.4233  -17.6138 O   0  0  0  0  0  0  0  0  0  0  0  0
   27.5688  -17.0059  -20.5386 N   0  0  0  0  0  0  0  0  0  0  0  0
   20.9821  -17.6210  -18.3772 C   0  0  2  0  0  0  0  0  0  0  0  0
   20.1719  -18.1754  -17.3117 C   0  0  0  0  0  0  0  0  0  0  0  0
   19.1030  -19.0902  -17.8455 C   0  0  0  0  0  0  0  0  0  0  0  0
   18.3237  -19.7700  -16.8089 C   0  0  0  0  0  0  0  0  0  0  0  0
   17.1764  -19.2129  -16.2866 C   0  0  0  0  0  0  0  0  0  0  0  0
   16.4278  -19.8457  -15.3033 C   0  0  0  0  0  0  0  0  0  0  0  0
   16.8139  -21.0739  -14.8081 C   0  0  0  0  0  0  0  0  0  0  0  0
   17.9596  -21.6439  -15.3209 C   0  0  0  0  0  0  0  0  0  0  0  0
   18.6984  -21.0077  -16.2988 C   0  0  0  0  0  0  0  0  0  0  0  0
   20.9706  -18.7262  -16.2156 O   0  0  0  0  0  0  0  0  0  0  0  0
   21.9337  -19.5361  -16.4371 O   0  0  0  0  0  0  0  0  0  0  0  0
   16.8142  -20.9842   -9.9533 C   0  0  0  0  0  0  0  0  0  0  0  0
   17.8716  -20.3022  -10.5834 C   0  0  0  0  0  0  0  0  0  0  0  0
   19.1413  -20.3728  -10.0921 C   0  0  0  0  0  0  0  0  0  0  0  0
   20.1644  -19.6977  -10.7233 C   0  0  0  0  0  0  0  0  0  0  0  0
   19.9593  -18.9348  -11.8571 C   0  0  0  0  0  0  0  0  0  0  0  0
   21.0695  -18.2262  -12.4894 C   0  0  1  0  0  0  0  0  0  0  0  0
   21.5810  -18.9031  -13.7682 N   0  0  0  0  0  0  0  0  0  0  0  0
   20.7405  -18.4074  -14.8526 C   0  0  0  0  0  0  0  0  0  0  0  0
   21.4602  -20.3565  -13.6004 O   0  0  0  0  0  0  0  0  0  0  0  0
   22.4902  -21.0549  -12.9948 C   0  0  0  0  0  0  0  0  0  0  0  0
   18.6567  -18.8808  -12.3348 C   0  0  0  0  0  0  0  0  0  0  0  0
   17.6289  -19.5517  -11.7111 O   0  0  0  0  0  0  0  0  0  0  0  0
  2  1  1  0
  3  2  2  0
  4  2  1  0
  5  4  1  0
  6  5  1  0
  7  6  1  0
  8 10  1  0
  8  7  1  0
  8  9  1  1
 10 12  1  0
 11 10  2  0
 12 13  1  0
 13 21  1  0
 14 15  1  0
 13 14  1  6
 15 20  2  0
 16 17  2  0
 16 15  1  0
 17 18  1  0
 18 19  2  0
 19 20  1  0
 21 22  2  0
 21 30  1  0
 23 24  1  0
 24 25  2  0
 25 26  1  0
 27 26  2  0
 27 28  1  0
 29 28  1  6
 29 31  1  0
 30 29  1  0
 31 32  1  0
 33 27  1  0
 34 24  1  0
 34 33  2  0
 35 31  2  0
M  END
$$$$
