PLE.pdb
     RDKit          3D

 25 25  0  0  1  0  0  0  0  0999 V2000
   28.0576  -19.5463  -14.1552 N   0  0  0  0  0  0  0  0  0  0  0  0
   29.3923  -19.5062  -14.7304 C   0  0  0  0  0  0  0  0  0  0  0  0
   30.0300  -20.8405  -14.5392 C   0  0  0  0  0  0  0  0  0  0  0  0
   29.1644  -21.5052  -13.4930 C   0  0  0  0  0  0  0  0  0  0  0  0
   27.7933  -20.9205  -13.8444 C   0  0  1  0  0  0  0  0  0  0  0  0
   26.8074  -21.1435  -12.7896 C   0  0  0  0  0  0  0  0  0  0  0  0
   26.0997  -22.1968  -12.8620 O   0  0  0  0  0  0  0  0  0  0  0  0
   27.1820  -19.2069   -7.5547 C   0  0  0  0  0  0  0  0  0  0  0  0
   26.6980  -20.1671   -8.5626 C   0  0  1  0  0  0  0  0  0  0  0  0
   26.3731  -21.4677   -7.8136 C   0  0  0  0  0  0  0  0  0  0  0  0
   25.6599  -19.7974   -9.5203 C   0  0  0  0  0  0  0  0  0  0  0  0
   25.4033  -20.5511  -10.7569 C   0  0  2  0  0  0  0  0  0  0  0  0
   26.5600  -20.2945  -11.6852 N   0  0  0  0  0  0  0  0  0  0  0  0
   24.1888  -20.1272  -11.4892 C   0  0  0  0  0  0  0  0  0  0  0  0
   24.1154  -19.0630  -12.1450 O   0  0  0  0  0  0  0  0  0  0  0  0
   22.9976  -20.9139  -11.4991 N   0  0  0  0  0  0  0  0  0  0  0  0
   21.8872  -20.6015  -12.3812 C   0  0  1  0  0  0  0  0  0  0  0  0
   21.8624  -21.4859  -13.5781 C   0  0  0  0  0  0  0  0  0  0  0  0
   20.6904  -21.3552  -14.4887 C   0  0  0  0  0  0  0  0  0  0  0  0
   20.7856  -22.0459  -15.7686 C   0  0  0  0  0  0  0  0  0  0  0  0
   21.7327  -21.8239  -16.5464 O   0  0  0  0  0  0  0  0  0  0  0  0
   20.6473  -20.7909  -11.5964 C   0  0  0  0  0  0  0  0  0  0  0  0
   19.4028  -20.3213  -11.9581 O   0  0  0  0  0  0  0  0  0  0  0  0
   19.8236  -22.9613  -16.1415 O   0  0  0  0  0  0  0  0  0  0  0  0
   20.6945  -21.4275  -10.5002 O   0  0  0  0  0  0  0  0  0  0  0  0
  2  1  1  0
  3  2  1  0
  4  3  1  0
  4  5  1  0
  5  1  1  0
  5  6  1  1
  6  7  2  0
  9  8  1  1
  9 10  1  0
 11  9  1  0
 12 11  1  1
 13  6  1  0
 13 12  1  0
 14 12  1  0
 14 16  1  0
 15 14  2  0
 17 16  1  0
 17 22  1  0
 17 18  1  6
 19 18  1  0
 19 20  1  0
 20 24  1  0
 21 20  2  0
 22 23  1  0
 25 22  2  0
M  END
$$$$
