PLE.pdb
     RDKit          3D

 25 25  0  0  1  0  0  0  0  0999 V2000
   26.8261  -19.1137  -15.8102 N   0  0  0  0  0  0  0  0  0  0  0  0
   28.1705  -18.7448  -16.2230 C   0  0  0  0  0  0  0  0  0  0  0  0
   29.0733  -19.9081  -15.9880 C   0  0  0  0  0  0  0  0  0  0  0  0
   28.2746  -20.8016  -15.0664 C   0  0  0  0  0  0  0  0  0  0  0  0
   26.8528  -20.5256  -15.5638 C   0  0  1  0  0  0  0  0  0  0  0  0
   25.8351  -21.0170  -14.6380 C   0  0  0  0  0  0  0  0  0  0  0  0
   25.5424  -22.2527  -14.6907 O   0  0  0  0  0  0  0  0  0  0  0  0
   25.9090  -20.2959   -9.3934 C   0  0  0  0  0  0  0  0  0  0  0  0
   25.6139  -20.8109  -10.7424 C   0  0  1  0  0  0  0  0  0  0  0  0
   25.8784  -22.3232  -10.7056 C   0  0  0  0  0  0  0  0  0  0  0  0
   24.3657  -20.4765  -11.4219 C   0  0  0  0  0  0  0  0  0  0  0  0
   24.0773  -20.8683  -12.8098 C   0  0  2  0  0  0  0  0  0  0  0  0
   25.1364  -20.2457  -13.6795 N   0  0  0  0  0  0  0  0  0  0  0  0
   22.7810  -20.3747  -13.3266 C   0  0  0  0  0  0  0  0  0  0  0  0
   22.5186  -19.1604  -13.4835 O   0  0  0  0  0  0  0  0  0  0  0  0
   21.7227  -21.2621  -13.6876 N   0  0  0  0  0  0  0  0  0  0  0  0
   20.4879  -20.7738  -14.2755 C   0  0  1  0  0  0  0  0  0  0  0  0
   20.1664  -21.4698  -15.5513 C   0  0  0  0  0  0  0  0  0  0  0  0
   20.1453  -22.9593  -15.5198 C   0  0  0  0  0  0  0  0  0  0  0  0
   19.7686  -23.6271  -16.7593 C   0  0  0  0  0  0  0  0  0  0  0  0
   20.3327  -24.6786  -17.1164 O   0  0  0  0  0  0  0  0  0  0  0  0
   19.4136  -21.0215  -13.2887 C   0  0  0  0  0  0  0  0  0  0  0  0
   18.1188  -20.5614  -13.3970 O   0  0  0  0  0  0  0  0  0  0  0  0
   18.7763  -23.1031  -17.5613 O   0  0  0  0  0  0  0  0  0  0  0  0
   19.6667  -21.7041  -12.2499 O   0  0  0  0  0  0  0  0  0  0  0  0
  2  1  1  0
  3  2  1  0
  4  3  1  0
  4  5  1  0
  5  1  1  0
  5  6  1  1
  6  7  2  0
  9  8  1  1
  9 10  1  0
 11  9  1  0
 12 11  1  1
 13  6  1  0
 13 12  1  0
 14 12  1  0
 14 16  1  0
 15 14  2  0
 17 16  1  0
 17 22  1  0
 17 18  1  6
 19 18  1  0
 19 20  1  0
 20 24  1  0
 21 20  2  0
 22 23  1  0
 25 22  2  0
M  END
$$$$
