PLE.pdb
     RDKit          3D

 25 25  0  0  1  0  0  0  0  0999 V2000
   27.1457  -19.2055  -15.6603 N   0  0  0  0  0  0  0  0  0  0  0  0
   28.5060  -18.9460  -16.1032 C   0  0  0  0  0  0  0  0  0  0  0  0
   29.2726  -20.2239  -16.0501 C   0  0  0  0  0  0  0  0  0  0  0  0
   28.4124  -21.1228  -15.1912 C   0  0  0  0  0  0  0  0  0  0  0  0
   27.0141  -20.6304  -15.5749 C   0  0  1  0  0  0  0  0  0  0  0  0
   25.9849  -21.1081  -14.6548 C   0  0  0  0  0  0  0  0  0  0  0  0
   25.7000  -22.3464  -14.6857 O   0  0  0  0  0  0  0  0  0  0  0  0
   25.9359  -20.1002   -9.3421 C   0  0  0  0  0  0  0  0  0  0  0  0
   25.7126  -20.7063  -10.6667 C   0  0  1  0  0  0  0  0  0  0  0  0
   25.9335  -22.2173  -10.5043 C   0  0  0  0  0  0  0  0  0  0  0  0
   24.5192  -20.3951  -11.4480 C   0  0  0  0  0  0  0  0  0  0  0  0
   24.2696  -20.9487  -12.7875 C   0  0  2  0  0  0  0  0  0  0  0  0
   25.2669  -20.3209  -13.7238 N   0  0  0  0  0  0  0  0  0  0  0  0
   22.9335  -20.6315  -13.3399 C   0  0  0  0  0  0  0  0  0  0  0  0
   22.5880  -19.4801  -13.6906 O   0  0  0  0  0  0  0  0  0  0  0  0
   21.9294  -21.6313  -13.5139 N   0  0  0  0  0  0  0  0  0  0  0  0
   20.6196  -21.3083  -14.0514 C   0  0  1  0  0  0  0  0  0  0  0  0
   19.8228  -22.5305  -14.3457 C   0  0  0  0  0  0  0  0  0  0  0  0
   18.4866  -22.3292  -14.9734 C   0  0  0  0  0  0  0  0  0  0  0  0
   17.8024  -23.5297  -15.4370 C   0  0  0  0  0  0  0  0  0  0  0  0
   18.2897  -24.6593  -15.2421 O   0  0  0  0  0  0  0  0  0  0  0  0
   19.9239  -20.4942  -13.0304 C   0  0  0  0  0  0  0  0  0  0  0  0
   20.0048  -20.6950  -11.6690 O   0  0  0  0  0  0  0  0  0  0  0  0
   16.5981  -23.4343  -16.1025 O   0  0  0  0  0  0  0  0  0  0  0  0
   19.1860  -19.5302  -13.3984 O   0  0  0  0  0  0  0  0  0  0  0  0
  2  1  1  0
  3  2  1  0
  4  3  1  0
  4  5  1  0
  5  1  1  0
  5  6  1  1
  6  7  2  0
  9  8  1  1
  9 10  1  0
 11  9  1  0
 12 11  1  1
 13  6  1  0
 13 12  1  0
 14 12  1  0
 14 16  1  0
 15 14  2  0
 17 16  1  0
 17 22  1  0
 17 18  1  1
 19 18  1  0
 19 20  1  0
 20 24  1  0
 21 20  2  0
 22 23  1  0
 25 22  2  0
M  END
$$$$
