PLE.pdb
     RDKit          3D

 25 25  0  0  1  0  0  0  0  0999 V2000
   19.1045  -10.5098  -20.0962 N   0  0  0  0  0  0  0  0  0  0  0  0
   18.3555  -11.3881  -20.9801 C   0  0  0  0  0  0  0  0  0  0  0  0
   17.1023  -11.8012  -20.2856 C   0  0  0  0  0  0  0  0  0  0  0  0
   17.3603  -11.4465  -18.8388 C   0  0  0  0  0  0  0  0  0  0  0  0
   18.2316  -10.1979  -19.0027 C   0  0  1  0  0  0  0  0  0  0  0  0
   18.8990   -9.8190  -17.7597 C   0  0  0  0  0  0  0  0  0  0  0  0
   18.1666   -9.4334  -16.7951 O   0  0  0  0  0  0  0  0  0  0  0  0
   22.1815  -10.3606  -13.3315 C   0  0  0  0  0  0  0  0  0  0  0  0
   22.7763  -10.2760  -14.6773 C   0  0  1  0  0  0  0  0  0  0  0  0
   23.9675  -11.2450  -14.6956 C   0  0  0  0  0  0  0  0  0  0  0  0
   21.9497  -10.3812  -15.8761 C   0  0  0  0  0  0  0  0  0  0  0  0
   20.8539   -9.4484  -16.1801 C   0  0  2  0  0  0  0  0  0  0  0  0
   20.2935   -9.8389  -17.5213 N   0  0  0  0  0  0  0  0  0  0  0  0
   21.2734   -8.0347  -16.3075 C   0  0  0  0  0  0  0  0  0  0  0  0
   21.8666   -7.5793  -17.3118 O   0  0  0  0  0  0  0  0  0  0  0  0
   21.0276   -7.0765  -15.2782 N   0  0  0  0  0  0  0  0  0  0  0  0
   21.3585   -5.6731  -15.4508 C   0  0  1  0  0  0  0  0  0  0  0  0
   20.1463   -4.8404  -15.6799 C   0  0  0  0  0  0  0  0  0  0  0  0
   20.3201   -3.3624  -15.6075 C   0  0  0  0  0  0  0  0  0  0  0  0
   19.1246   -2.5589  -15.8297 C   0  0  0  0  0  0  0  0  0  0  0  0
   18.0382   -3.0950  -16.1189 O   0  0  0  0  0  0  0  0  0  0  0  0
   22.0365   -5.2348  -14.2109 C   0  0  0  0  0  0  0  0  0  0  0  0
   22.9144   -4.1759  -14.1215 O   0  0  0  0  0  0  0  0  0  0  0  0
   19.1768   -1.1848  -15.7228 O   0  0  0  0  0  0  0  0  0  0  0  0
   21.8194   -5.8585  -13.1279 O   0  0  0  0  0  0  0  0  0  0  0  0
  2  1  1  0
  3  2  1  0
  4  3  1  0
  4  5  1  0
  5  1  1  0
  5  6  1  1
  6  7  2  0
  9  8  1  1
  9 10  1  0
 11  9  1  0
 12 11  1  6
 13  6  1  0
 13 12  1  0
 14 12  1  0
 14 16  1  0
 15 14  2  0
 17 16  1  0
 17 22  1  0
 17 18  1  1
 19 18  1  0
 19 20  1  0
 20 24  1  0
 21 20  2  0
 22 23  1  0
 25 22  2  0
M  END
$$$$
