PLE.pdb
     RDKit          3D

 25 25  0  0  1  0  0  0  0  0999 V2000
   27.2311  -19.8353  -16.3715 N   0  0  0  0  0  0  0  0  0  0  0  0
   28.4388  -19.5579  -17.1321 C   0  0  0  0  0  0  0  0  0  0  0  0
   29.4032  -20.6737  -16.9120 C   0  0  0  0  0  0  0  0  0  0  0  0
   28.8554  -21.3867  -15.6966 C   0  0  0  0  0  0  0  0  0  0  0  0
   27.3514  -21.1842  -15.9014 C   0  0  1  0  0  0  0  0  0  0  0  0
   26.5800  -21.4980  -14.7010 C   0  0  0  0  0  0  0  0  0  0  0  0
   26.5250  -22.7158  -14.3414 O   0  0  0  0  0  0  0  0  0  0  0  0
   26.3479  -19.8348   -9.0277 C   0  0  0  0  0  0  0  0  0  0  0  0
   25.9379  -20.7369  -10.1186 C   0  0  1  0  0  0  0  0  0  0  0  0
   24.5736  -21.3192   -9.7213 C   0  0  0  0  0  0  0  0  0  0  0  0
   25.9780  -20.3035  -11.5122 C   0  0  0  0  0  0  0  0  0  0  0  0
   25.2578  -20.9981  -12.5901 C   0  0  2  0  0  0  0  0  0  0  0  0
   25.8814  -20.5712  -13.8918 N   0  0  0  0  0  0  0  0  0  0  0  0
   23.8230  -20.6487  -12.6894 C   0  0  0  0  0  0  0  0  0  0  0  0
   23.0021  -20.8352  -11.7624 O   0  0  0  0  0  0  0  0  0  0  0  0
   23.2656  -20.0658  -13.8674 N   0  0  0  0  0  0  0  0  0  0  0  0
   21.8692  -19.6727  -13.9339 C   0  0  1  0  0  0  0  0  0  0  0  0
   21.5956  -18.7886  -15.0995 C   0  0  0  0  0  0  0  0  0  0  0  0
   20.1951  -18.3087  -15.2676 C   0  0  0  0  0  0  0  0  0  0  0  0
   19.9309  -17.4818  -16.4383 C   0  0  0  0  0  0  0  0  0  0  0  0
   20.8383  -17.2091  -17.2468 O   0  0  0  0  0  0  0  0  0  0  0  0
   21.0771  -20.9165  -14.0555 C   0  0  0  0  0  0  0  0  0  0  0  0
   19.8372  -21.1230  -13.4898 O   0  0  0  0  0  0  0  0  0  0  0  0
   18.6655  -16.9849  -16.6713 O   0  0  0  0  0  0  0  0  0  0  0  0
   21.5433  -21.8898  -14.7222 O   0  0  0  0  0  0  0  0  0  0  0  0
  2  1  1  0
  3  2  1  0
  4  3  1  0
  4  5  1  0
  5  1  1  0
  5  6  1  1
  6  7  2  0
  9  8  1  1
  9 10  1  0
 11  9  1  0
 12 11  1  1
 13  6  1  0
 13 12  1  0
 14 12  1  0
 14 16  1  0
 15 14  2  0
 17 16  1  0
 17 22  1  0
 17 18  1  6
 19 18  1  0
 19 20  1  0
 20 24  1  0
 21 20  2  0
 22 23  1  0
 25 22  2  0
M  END
$$$$
