PLE.pdb
     RDKit          3D

 25 25  0  0  1  0  0  0  0  0999 V2000
   31.1583  -21.1632  -10.4828 N   0  0  0  0  0  0  0  0  0  0  0  0
   32.4880  -21.5004  -10.9646 C   0  0  0  0  0  0  0  0  0  0  0  0
   32.9568  -22.7192  -10.2447 C   0  0  0  0  0  0  0  0  0  0  0  0
   32.0159  -22.8239   -9.0660 C   0  0  0  0  0  0  0  0  0  0  0  0
   30.7271  -22.2700   -9.6804 C   0  0  1  0  0  0  0  0  0  0  0  0
   29.7210  -21.9537   -8.6696 C   0  0  0  0  0  0  0  0  0  0  0  0
   29.0126  -22.9120   -8.2276 O   0  0  0  0  0  0  0  0  0  0  0  0
   27.9127  -20.3539   -3.8312 C   0  0  0  0  0  0  0  0  0  0  0  0
   27.9732  -19.3437   -4.9025 C   0  0  1  0  0  0  0  0  0  0  0  0
   28.3212  -18.0074   -4.2307 C   0  0  0  0  0  0  0  0  0  0  0  0
   28.7467  -19.5780   -6.1184 C   0  0  0  0  0  0  0  0  0  0  0  0
   28.2852  -20.4519   -7.2076 C   0  0  2  0  0  0  0  0  0  0  0  0
   29.4546  -20.6736   -8.1289 N   0  0  0  0  0  0  0  0  0  0  0  0
   27.2104  -19.8705   -8.0429 C   0  0  0  0  0  0  0  0  0  0  0  0
   27.2416  -18.7019   -8.4914 O   0  0  0  0  0  0  0  0  0  0  0  0
   26.0447  -20.6128   -8.4009 N   0  0  0  0  0  0  0  0  0  0  0  0
   25.2180  -20.2315   -9.5323 C   0  0  1  0  0  0  0  0  0  0  0  0
   25.6912  -20.8510  -10.8002 C   0  0  0  0  0  0  0  0  0  0  0  0
   24.9424  -20.5038  -12.0406 C   0  0  0  0  0  0  0  0  0  0  0  0
   25.4452  -21.0789  -13.2819 C   0  0  0  0  0  0  0  0  0  0  0  0
   26.3323  -21.9531  -13.2687 O   0  0  0  0  0  0  0  0  0  0  0  0
   23.8434  -20.6920   -9.2358 C   0  0  0  0  0  0  0  0  0  0  0  0
   22.7146  -20.3095   -9.9283 O   0  0  0  0  0  0  0  0  0  0  0  0
   24.9445  -20.6624  -14.4977 O   0  0  0  0  0  0  0  0  0  0  0  0
   23.6497  -21.4994   -8.2768 O   0  0  0  0  0  0  0  0  0  0  0  0
  2  1  1  0
  3  2  1  0
  4  3  1  0
  4  5  1  0
  5  1  1  0
  5  6  1  1
  6  7  2  0
  9  8  1  1
  9 10  1  0
 11  9  1  0
 12 11  1  1
 13  6  1  0
 13 12  1  0
 14 12  1  0
 14 16  1  0
 15 14  2  0
 17 16  1  0
 17 22  1  0
 17 18  1  6
 19 18  1  0
 19 20  1  0
 20 24  1  0
 21 20  2  0
 22 23  1  0
 25 22  2  0
M  END
$$$$
