PLE.pdb
     RDKit          3D

 25 25  0  0  1  0  0  0  0  0999 V2000
   16.1165  -14.1608  -14.1515 N   0  0  0  0  0  0  0  0  0  0  0  0
   16.0808  -15.5345  -14.6263 C   0  0  0  0  0  0  0  0  0  0  0  0
   14.8514  -15.7185  -15.4499 C   0  0  0  0  0  0  0  0  0  0  0  0
   14.0003  -14.5200  -15.0966 C   0  0  0  0  0  0  0  0  0  0  0  0
   15.0822  -13.4629  -14.8573 C   0  0  1  0  0  0  0  0  0  0  0  0
   14.5598  -12.2755  -14.1855 C   0  0  0  0  0  0  0  0  0  0  0  0
   13.7856  -11.5184  -14.8510 O   0  0  0  0  0  0  0  0  0  0  0  0
   11.7980  -11.9589   -9.5258 C   0  0  0  0  0  0  0  0  0  0  0  0
   12.3056  -11.5218  -10.8385 C   0  0  1  0  0  0  0  0  0  0  0  0
   11.2260  -10.6177  -11.4510 C   0  0  0  0  0  0  0  0  0  0  0  0
   13.6486  -10.9675  -10.9823 C   0  0  0  0  0  0  0  0  0  0  0  0
   14.2392  -10.6214  -12.2840 C   0  0  2  0  0  0  0  0  0  0  0  0
   14.8335  -11.8812  -12.8545 N   0  0  0  0  0  0  0  0  0  0  0  0
   15.3472   -9.6428  -12.2108 C   0  0  0  0  0  0  0  0  0  0  0  0
   16.5098   -9.9428  -11.8553 O   0  0  0  0  0  0  0  0  0  0  0  0
   15.1653   -8.2669  -12.5452 N   0  0  0  0  0  0  0  0  0  0  0  0
   16.2898   -7.3538  -12.6471 C   0  0  1  0  0  0  0  0  0  0  0  0
   17.3079   -7.8326  -13.6216 C   0  0  0  0  0  0  0  0  0  0  0  0
   18.4504   -6.9195  -13.9063 C   0  0  0  0  0  0  0  0  0  0  0  0
   19.4108   -7.3766  -14.9027 C   0  0  0  0  0  0  0  0  0  0  0  0
   19.5454   -6.7745  -15.9848 O   0  0  0  0  0  0  0  0  0  0  0  0
   15.7479   -6.0511  -13.0928 C   0  0  0  0  0  0  0  0  0  0  0  0
   16.4290   -4.8537  -13.0468 O   0  0  0  0  0  0  0  0  0  0  0  0
   20.1904   -8.4888  -14.6628 O   0  0  0  0  0  0  0  0  0  0  0  0
   14.5687   -5.9924  -13.5568 O   0  0  0  0  0  0  0  0  0  0  0  0
  2  1  1  0
  3  2  1  0
  4  3  1  0
  4  5  1  0
  5  1  1  0
  5  6  1  1
  6  7  2  0
  9  8  1  1
  9 10  1  0
 11  9  1  0
 12 11  1  1
 13  6  1  0
 13 12  1  0
 14 12  1  0
 14 16  1  0
 15 14  2  0
 17 16  1  0
 17 22  1  0
 17 18  1  6
 19 18  1  0
 19 20  1  0
 20 24  1  0
 21 20  2  0
 22 23  1  0
 25 22  2  0
M  END
$$$$
