PLE.pdb
     RDKit          3D

 25 25  0  0  1  0  0  0  0  0999 V2000
   29.2916  -20.4070  -12.3865 N   0  0  0  0  0  0  0  0  0  0  0  0
   30.7376  -20.5512  -12.3413 C   0  0  0  0  0  0  0  0  0  0  0  0
   31.0613  -21.9630  -11.9869 C   0  0  0  0  0  0  0  0  0  0  0  0
   29.7568  -22.5060  -11.4492 C   0  0  0  0  0  0  0  0  0  0  0  0
   28.7512  -21.7323  -12.3068 C   0  0  1  0  0  0  0  0  0  0  0  0
   27.3903  -21.8211  -11.7832 C   0  0  0  0  0  0  0  0  0  0  0  0
   26.8452  -22.9690  -11.7593 O   0  0  0  0  0  0  0  0  0  0  0  0
   26.6373  -18.7781   -7.8083 C   0  0  0  0  0  0  0  0  0  0  0  0
   26.5644  -19.9838   -8.6526 C   0  0  1  0  0  0  0  0  0  0  0  0
   27.1811  -21.1309   -7.8389 C   0  0  0  0  0  0  0  0  0  0  0  0
   25.3202  -20.3699   -9.3118 C   0  0  0  0  0  0  0  0  0  0  0  0
   25.2767  -20.9899  -10.6447 C   0  0  2  0  0  0  0  0  0  0  0  0
   26.6117  -20.7451  -11.2955 N   0  0  0  0  0  0  0  0  0  0  0  0
   24.2647  -20.4090  -11.5554 C   0  0  0  0  0  0  0  0  0  0  0  0
   23.0784  -20.1914  -11.2189 O   0  0  0  0  0  0  0  0  0  0  0  0
   24.5750  -20.0508  -12.9021 N   0  0  0  0  0  0  0  0  0  0  0  0
   23.6304  -20.2674  -13.9835 C   0  0  1  0  0  0  0  0  0  0  0  0
   22.9639  -21.5944  -13.8819 C   0  0  0  0  0  0  0  0  0  0  0  0
   22.0069  -21.9529  -14.9661 C   0  0  0  0  0  0  0  0  0  0  0  0
   20.8747  -22.7855  -14.5802 C   0  0  0  0  0  0  0  0  0  0  0  0
   20.7474  -23.1891  -13.4088 O   0  0  0  0  0  0  0  0  0  0  0  0
   22.6171  -19.1930  -13.8919 C   0  0  0  0  0  0  0  0  0  0  0  0
   22.0353  -18.7523  -12.7226 O   0  0  0  0  0  0  0  0  0  0  0  0
   19.9207  -23.1421  -15.5104 O   0  0  0  0  0  0  0  0  0  0  0  0
   22.2281  -18.6112  -14.9498 O   0  0  0  0  0  0  0  0  0  0  0  0
  2  1  1  0
  3  2  1  0
  4  3  1  0
  4  5  1  0
  5  1  1  0
  5  6  1  1
  6  7  2  0
  9  8  1  1
  9 10  1  0
 11  9  1  0
 12 11  1  1
 13  6  1  0
 13 12  1  0
 14 12  1  0
 14 16  1  0
 15 14  2  0
 17 16  1  0
 17 22  1  0
 17 18  1  1
 19 18  1  0
 19 20  1  0
 20 24  1  0
 21 20  2  0
 22 23  1  0
 25 22  2  0
M  END
$$$$
