PLE.pdb
     RDKit          3D

 25 25  0  0  1  0  0  0  0  0999 V2000
   19.4949  -12.1144  -19.0032 N   0  0  0  0  0  0  0  0  0  0  0  0
   18.9460  -13.4272  -19.3017 C   0  0  0  0  0  0  0  0  0  0  0  0
   17.8128  -13.6894  -18.3686 C   0  0  0  0  0  0  0  0  0  0  0  0
   17.9961  -12.6545  -17.2819 C   0  0  0  0  0  0  0  0  0  0  0  0
   18.5807  -11.4928  -18.0906 C   0  0  1  0  0  0  0  0  0  0  0  0
   19.1579  -10.4568  -17.2375 C   0  0  0  0  0  0  0  0  0  0  0  0
   18.3644   -9.8052  -16.4883 O   0  0  0  0  0  0  0  0  0  0  0  0
   24.1064  -10.8246  -14.6560 C   0  0  0  0  0  0  0  0  0  0  0  0
   22.7080  -10.4237  -14.8919 C   0  0  1  0  0  0  0  0  0  0  0  0
   22.0711  -10.2089  -13.5112 C   0  0  0  0  0  0  0  0  0  0  0  0
   22.3764   -9.3588  -15.8340 C   0  0  0  0  0  0  0  0  0  0  0  0
   20.9960   -9.0289  -16.2194 C   0  0  2  0  0  0  0  0  0  0  0  0
   20.5259  -10.1039  -17.1623 N   0  0  0  0  0  0  0  0  0  0  0  0
   20.8559   -7.7510  -16.9530 C   0  0  0  0  0  0  0  0  0  0  0  0
   21.3274   -7.5572  -18.0967 O   0  0  0  0  0  0  0  0  0  0  0  0
   20.1629   -6.6324  -16.3993 N   0  0  0  0  0  0  0  0  0  0  0  0
   20.0036   -5.3937  -17.1404 C   0  0  1  0  0  0  0  0  0  0  0  0
   18.5747   -5.1070  -17.4429 C   0  0  0  0  0  0  0  0  0  0  0  0
   17.7768   -4.4507  -16.3694 C   0  0  0  0  0  0  0  0  0  0  0  0
   16.3929   -4.1306  -16.6960 C   0  0  0  0  0  0  0  0  0  0  0  0
   16.0531   -2.9633  -16.9667 O   0  0  0  0  0  0  0  0  0  0  0  0
   20.5606   -4.3128  -16.2973 C   0  0  0  0  0  0  0  0  0  0  0  0
   21.0116   -4.4710  -15.0044 O   0  0  0  0  0  0  0  0  0  0  0  0
   15.4320   -5.1199  -16.7107 O   0  0  0  0  0  0  0  0  0  0  0  0
   20.6434   -3.1369  -16.7657 O   0  0  0  0  0  0  0  0  0  0  0  0
  2  1  1  0
  3  2  1  0
  4  3  1  0
  4  5  1  0
  5  1  1  0
  5  6  1  1
  6  7  2  0
  9  8  1  1
  9 10  1  0
 11  9  1  0
 12 11  1  6
 13  6  1  0
 13 12  1  0
 14 12  1  0
 14 16  1  0
 15 14  2  0
 17 16  1  0
 17 22  1  0
 17 18  1  1
 19 18  1  0
 19 20  1  0
 20 24  1  0
 21 20  2  0
 22 23  1  0
 25 22  2  0
M  END
$$$$
