PLE.pdb
     RDKit          3D

 25 25  0  0  1  0  0  0  0  0999 V2000
   26.6568  -19.3182  -16.1248 N   0  0  0  0  0  0  0  0  0  0  0  0
   27.6838  -18.3570  -16.4931 C   0  0  0  0  0  0  0  0  0  0  0  0
   28.7662  -18.4057  -15.4687 C   0  0  0  0  0  0  0  0  0  0  0  0
   28.1298  -19.1372  -14.3087 C   0  0  0  0  0  0  0  0  0  0  0  0
   27.2016  -20.1004  -15.0542 C   0  0  1  0  0  0  0  0  0  0  0  0
   26.2172  -20.7196  -14.1700 C   0  0  0  0  0  0  0  0  0  0  0  0
   25.7553  -21.8538  -14.5101 O   0  0  0  0  0  0  0  0  0  0  0  0
   26.0259  -19.8973   -8.6558 C   0  0  0  0  0  0  0  0  0  0  0  0
   25.9515  -20.4831  -10.0061 C   0  0  1  0  0  0  0  0  0  0  0  0
   26.4980  -21.9141   -9.8978 C   0  0  0  0  0  0  0  0  0  0  0  0
   24.7249  -20.4097  -10.7944 C   0  0  0  0  0  0  0  0  0  0  0  0
   24.6366  -20.8741  -12.1871 C   0  0  2  0  0  0  0  0  0  0  0  0
   25.7226  -20.1761  -12.9610 N   0  0  0  0  0  0  0  0  0  0  0  0
   23.3661  -20.5321  -12.8652 C   0  0  0  0  0  0  0  0  0  0  0  0
   23.0637  -19.3691  -13.2172 O   0  0  0  0  0  0  0  0  0  0  0  0
   22.3810  -21.5195  -13.1699 N   0  0  0  0  0  0  0  0  0  0  0  0
   21.1721  -21.1869  -13.9024 C   0  0  1  0  0  0  0  0  0  0  0  0
   20.8622  -22.1966  -14.9512 C   0  0  0  0  0  0  0  0  0  0  0  0
   19.6601  -21.9451  -15.7948 C   0  0  0  0  0  0  0  0  0  0  0  0
   19.3836  -22.9271  -16.8358 C   0  0  0  0  0  0  0  0  0  0  0  0
   20.0762  -23.9566  -16.9442 O   0  0  0  0  0  0  0  0  0  0  0  0
   20.0702  -21.1394  -12.9160 C   0  0  0  0  0  0  0  0  0  0  0  0
   18.8943  -20.4385  -13.0770 O   0  0  0  0  0  0  0  0  0  0  0  0
   18.3453  -22.7315  -17.7224 O   0  0  0  0  0  0  0  0  0  0  0  0
   20.1814  -21.7786  -11.8260 O   0  0  0  0  0  0  0  0  0  0  0  0
  2  1  1  0
  3  2  1  0
  4  3  1  0
  4  5  1  0
  5  1  1  0
  5  6  1  1
  6  7  2  0
  9  8  1  1
  9 10  1  0
 11  9  1  0
 12 11  1  1
 13  6  1  0
 13 12  1  0
 14 12  1  0
 14 16  1  0
 15 14  2  0
 17 16  1  0
 17 22  1  0
 17 18  1  6
 19 18  1  0
 19 20  1  0
 20 24  1  0
 21 20  2  0
 22 23  1  0
 25 22  2  0
M  END
$$$$
