PLE.pdb
     RDKit          3D

 25 25  0  0  1  0  0  0  0  0999 V2000
   18.6492  -11.2029  -18.6357 N   0  0  0  0  0  0  0  0  0  0  0  0
   17.7423  -12.2248  -19.1328 C   0  0  0  0  0  0  0  0  0  0  0  0
   17.1426  -12.9332  -17.9657 C   0  0  0  0  0  0  0  0  0  0  0  0
   18.0373  -12.5433  -16.8110 C   0  0  0  0  0  0  0  0  0  0  0  0
   18.4286  -11.1208  -17.2217 C   0  0  1  0  0  0  0  0  0  0  0  0
   19.5532  -10.6073  -16.4433 C   0  0  0  0  0  0  0  0  0  0  0  0
   19.3472  -10.3494  -15.2159 O   0  0  0  0  0  0  0  0  0  0  0  0
   24.6702  -10.6086  -14.3261 C   0  0  0  0  0  0  0  0  0  0  0  0
   24.4796  -10.3358  -15.7617 C   0  0  1  0  0  0  0  0  0  0  0  0
   25.6441  -11.0132  -16.4987 C   0  0  0  0  0  0  0  0  0  0  0  0
   23.1930  -10.5709  -16.4106 C   0  0  0  0  0  0  0  0  0  0  0  0
   21.9518   -9.8971  -16.0002 C   0  0  2  0  0  0  0  0  0  0  0  0
   20.8613  -10.3664  -16.9255 N   0  0  0  0  0  0  0  0  0  0  0  0
   21.9878   -8.4227  -16.1244 C   0  0  0  0  0  0  0  0  0  0  0  0
   22.3403   -7.8271  -17.1679 O   0  0  0  0  0  0  0  0  0  0  0  0
   21.6178   -7.5629  -15.0465 N   0  0  0  0  0  0  0  0  0  0  0  0
   21.6558   -6.1173  -15.1792 C   0  0  1  0  0  0  0  0  0  0  0  0
   20.3020   -5.5449  -15.4132 C   0  0  0  0  0  0  0  0  0  0  0  0
   19.6754   -5.8152  -16.7376 C   0  0  0  0  0  0  0  0  0  0  0  0
   18.3752   -6.4735  -16.7158 C   0  0  0  0  0  0  0  0  0  0  0  0
   17.7928   -6.7036  -15.6391 O   0  0  0  0  0  0  0  0  0  0  0  0
   22.2107   -5.5833  -13.9158 C   0  0  0  0  0  0  0  0  0  0  0  0
   22.5345   -4.2627  -13.6900 O   0  0  0  0  0  0  0  0  0  0  0  0
   17.7654   -6.8544  -17.8928 O   0  0  0  0  0  0  0  0  0  0  0  0
   22.4196   -6.3718  -12.9443 O   0  0  0  0  0  0  0  0  0  0  0  0
  2  1  1  0
  3  2  1  0
  4  3  1  0
  4  5  1  0
  5  1  1  0
  5  6  1  1
  6  7  2  0
  9  8  1  1
  9 10  1  0
 11  9  1  0
 12 11  1  6
 13  6  1  0
 13 12  1  0
 14 12  1  0
 14 16  1  0
 15 14  2  0
 17 16  1  0
 17 22  1  0
 17 18  1  1
 19 18  1  0
 19 20  1  0
 20 24  1  0
 21 20  2  0
 22 23  1  0
 25 22  2  0
M  END
$$$$
