YEF.pdb
     RDKit          3D

 33 34  0  0  1  0  0  0  0  0999 V2000
    8.5707  -12.1111   17.4312 O   0  0  0  0  0  0  0  0  0  0  0  0
    8.2258  -12.8112   18.5957 C   0  0  0  0  0  0  0  0  0  0  0  0
    9.0990  -13.6589   19.2247 C   0  0  0  0  0  0  0  0  0  0  0  0
    8.7428  -14.3370   20.3660 C   0  0  0  0  0  0  0  0  0  0  0  0
    7.4795  -14.1961   20.9383 C   0  0  0  0  0  0  0  0  0  0  0  0
    7.0847  -14.9255   22.1730 C   0  0  0  0  0  0  0  0  0  0  0  0
    7.4273  -16.3836   21.9533 C   0  0  2  0  0  0  0  0  0  0  0  0
    6.1950  -17.0691   21.6144 N   0  0  0  0  0  0  0  0  0  0  0  0
    8.0320  -17.0196   23.1243 C   0  0  0  0  0  0  0  0  0  0  0  0
    7.3187  -17.4366   24.0720 O   0  0  0  0  0  0  0  0  0  0  0  0
    6.6092  -13.3401   20.2963 C   0  0  0  0  0  0  0  0  0  0  0  0
    6.9706  -12.6671   19.1587 C   0  0  0  0  0  0  0  0  0  0  0  0
    9.4472  -17.1782   23.2114 N   0  0  0  0  0  0  0  0  0  0  0  0
   10.1205  -17.7357   24.3499 C   0  0  1  0  0  0  0  0  0  0  0  0
   11.3405  -18.5174   23.9926 C   0  0  0  0  0  0  0  0  0  0  0  0
   12.0219  -19.2526   25.0812 C   0  0  0  0  0  0  0  0  0  0  0  0
   13.2485  -19.9752   24.7019 C   0  0  0  0  0  0  0  0  0  0  0  0
   14.2102  -19.4371   24.0818 O   0  0  0  0  0  0  0  0  0  0  0  0
   10.3539  -16.7941   25.4582 C   0  0  0  0  0  0  0  0  0  0  0  0
   10.9618  -15.6890   25.2516 O   0  0  0  0  0  0  0  0  0  0  0  0
   13.4358  -21.3271   25.0053 O   0  0  0  0  0  0  0  0  0  0  0  0
    9.9419  -17.0188   26.7864 N   0  0  0  0  0  0  0  0  0  0  0  0
   10.2833  -16.0899   27.8747 C   0  0  1  0  0  0  0  0  0  0  0  0
    8.9571  -15.4672   28.3406 C   0  0  0  0  0  0  0  0  0  0  0  0
    8.4525  -14.4683   27.3968 C   0  0  0  0  0  0  0  0  0  0  0  0
    8.9966  -13.1872   27.3335 C   0  0  0  0  0  0  0  0  0  0  0  0
    8.5313  -12.2552   26.4349 C   0  0  0  0  0  0  0  0  0  0  0  0
    7.5085  -12.5380   25.5553 C   0  0  0  0  0  0  0  0  0  0  0  0
    6.9707  -13.8047   25.6178 C   0  0  0  0  0  0  0  0  0  0  0  0
    7.4261  -14.7451   26.5102 C   0  0  0  0  0  0  0  0  0  0  0  0
   10.8088  -16.8810   28.9946 C   0  0  0  0  0  0  0  0  0  0  0  0
   11.3000  -16.2896   30.1646 O   0  0  0  0  0  0  0  0  0  0  0  0
   10.8262  -18.1333   28.9138 O   0  0  0  0  0  0  0  0  0  0  0  0
  2  1  1  0
  3  2  2  0
  4  3  1  0
  5 11  1  0
  5  4  2  0
  6  5  1  0
  7  9  1  0
  7  6  1  0
  7  8  1  1
  9 10  2  0
 11 12  2  0
 12  2  1  0
 13 14  1  0
 13  9  1  0
 14 15  1  6
 16 15  1  0
 17 16  1  0
 17 18  2  0
 19 14  1  0
 20 19  2  0
 21 17  1  0
 22 19  1  0
 23 24  1  1
 23 22  1  0
 24 25  1  0
 25 30  2  0
 26 27  2  0
 26 25  1  0
 27 28  1  0
 28 29  2  0
 30 29  1  0
 31 23  1  0
 31 32  1  0
 33 31  2  0
M  END
$$$$
