YEF.pdb
     RDKit          3D

 33 34  0  0  1  0  0  0  0  0999 V2000
    8.5010  -12.1731   18.0130 O   0  0  0  0  0  0  0  0  0  0  0  0
    8.0338  -12.9071   19.1121 C   0  0  0  0  0  0  0  0  0  0  0  0
    8.5656  -12.7635   20.3664 C   0  0  0  0  0  0  0  0  0  0  0  0
    8.0942  -13.4922   21.4323 C   0  0  0  0  0  0  0  0  0  0  0  0
    7.0550  -14.4104   21.2903 C   0  0  0  0  0  0  0  0  0  0  0  0
    6.5381  -15.2036   22.4375 C   0  0  0  0  0  0  0  0  0  0  0  0
    7.0666  -16.6127   22.2742 C   0  0  2  0  0  0  0  0  0  0  0  0
    5.9213  -17.5021   22.2511 N   0  0  0  0  0  0  0  0  0  0  0  0
    7.9763  -17.0183   23.3461 C   0  0  0  0  0  0  0  0  0  0  0  0
    7.5354  -17.5238   24.4094 O   0  0  0  0  0  0  0  0  0  0  0  0
    6.5276  -14.5462   20.0232 C   0  0  0  0  0  0  0  0  0  0  0  0
    7.0022  -13.8167   18.9647 C   0  0  0  0  0  0  0  0  0  0  0  0
    9.3855  -16.8465   23.2028 N   0  0  0  0  0  0  0  0  0  0  0  0
   10.3508  -17.3424   24.1421 C   0  0  1  0  0  0  0  0  0  0  0  0
   11.6691  -17.6658   23.5220 C   0  0  0  0  0  0  0  0  0  0  0  0
   12.7146  -18.2347   24.4012 C   0  0  0  0  0  0  0  0  0  0  0  0
   13.9947  -18.5648   23.7507 C   0  0  0  0  0  0  0  0  0  0  0  0
   14.5093  -17.8656   22.8314 O   0  0  0  0  0  0  0  0  0  0  0  0
   10.4832  -16.5494   25.3762 C   0  0  0  0  0  0  0  0  0  0  0  0
   10.9672  -15.3672   25.3373 O   0  0  0  0  0  0  0  0  0  0  0  0
   14.7393  -19.6922   24.1101 O   0  0  0  0  0  0  0  0  0  0  0  0
   10.1011  -17.0048   26.6533 N   0  0  0  0  0  0  0  0  0  0  0  0
   10.3980  -16.2390   27.8736 C   0  0  1  0  0  0  0  0  0  0  0  0
    9.0408  -15.7980   28.4456 C   0  0  0  0  0  0  0  0  0  0  0  0
    8.4399  -14.7113   27.6703 C   0  0  0  0  0  0  0  0  0  0  0  0
    7.3599  -14.9357   26.8191 C   0  0  0  0  0  0  0  0  0  0  0  0
    6.7869  -13.9100   26.1035 C   0  0  0  0  0  0  0  0  0  0  0  0
    7.2483  -12.6141   26.1904 C   0  0  0  0  0  0  0  0  0  0  0  0
    8.3159  -12.3921   27.0322 C   0  0  0  0  0  0  0  0  0  0  0  0
    8.8974  -13.4074   27.7527 C   0  0  0  0  0  0  0  0  0  0  0  0
   11.0016  -17.1578   28.8469 C   0  0  0  0  0  0  0  0  0  0  0  0
   11.4875  -16.7238   30.0861 O   0  0  0  0  0  0  0  0  0  0  0  0
   11.0937  -18.3788   28.5716 O   0  0  0  0  0  0  0  0  0  0  0  0
  2  1  1  0
  3  2  2  0
  4  3  1  0
  5 11  1  0
  5  4  2  0
  6  5  1  0
  7  9  1  0
  7  6  1  0
  7  8  1  1
  9 10  2  0
 11 12  2  0
 12  2  1  0
 13 14  1  0
 13  9  1  0
 14 15  1  6
 16 15  1  0
 17 16  1  0
 17 18  2  0
 19 14  1  0
 20 19  2  0
 21 17  1  0
 22 19  1  0
 23 24  1  1
 23 22  1  0
 24 25  1  0
 25 30  2  0
 26 27  2  0
 26 25  1  0
 27 28  1  0
 28 29  2  0
 30 29  1  0
 31 23  1  0
 31 32  1  0
 33 31  2  0
M  END
$$$$
