YEF.pdb
     RDKit          3D

 33 34  0  0  1  0  0  0  0  0999 V2000
    7.7063  -11.8541   17.3922 O   0  0  0  0  0  0  0  0  0  0  0  0
    7.6968  -12.5342   18.6179 C   0  0  0  0  0  0  0  0  0  0  0  0
    8.7707  -12.5231   19.4685 C   0  0  0  0  0  0  0  0  0  0  0  0
    8.7429  -13.1962   20.6666 C   0  0  0  0  0  0  0  0  0  0  0  0
    7.6242  -13.9212   21.0743 C   0  0  0  0  0  0  0  0  0  0  0  0
    7.5845  -14.6528   22.3687 C   0  0  0  0  0  0  0  0  0  0  0  0
    8.0803  -16.0573   22.0977 C   0  0  2  0  0  0  0  0  0  0  0  0
    6.9160  -16.8824   21.8390 N   0  0  0  0  0  0  0  0  0  0  0  0
    8.8435  -16.6269   23.2087 C   0  0  0  0  0  0  0  0  0  0  0  0
    8.2591  -17.1190   24.2072 O   0  0  0  0  0  0  0  0  0  0  0  0
    6.5494  -13.9251   20.2099 C   0  0  0  0  0  0  0  0  0  0  0  0
    6.5837  -13.2519   19.0168 C   0  0  0  0  0  0  0  0  0  0  0  0
   10.2699  -16.6338   23.1781 N   0  0  0  0  0  0  0  0  0  0  0  0
   11.0898  -17.1366   24.2436 C   0  0  1  0  0  0  0  0  0  0  0  0
   12.3895  -17.7009   23.7752 C   0  0  0  0  0  0  0  0  0  0  0  0
   13.3017  -18.2536   24.8010 C   0  0  0  0  0  0  0  0  0  0  0  0
   14.5588  -18.8357   24.2996 C   0  0  0  0  0  0  0  0  0  0  0  0
   14.6955  -20.0610   24.0186 O   0  0  0  0  0  0  0  0  0  0  0  0
   11.2465  -16.2270   25.3913 C   0  0  0  0  0  0  0  0  0  0  0  0
   12.1436  -15.3168   25.3783 O   0  0  0  0  0  0  0  0  0  0  0  0
   15.7053  -18.0613   24.0980 O   0  0  0  0  0  0  0  0  0  0  0  0
   10.4523  -16.2769   26.5537 N   0  0  0  0  0  0  0  0  0  0  0  0
   10.9383  -15.7802   27.8502 C   0  0  1  0  0  0  0  0  0  0  0  0
   10.4160  -14.3403   27.9824 C   0  0  0  0  0  0  0  0  0  0  0  0
    9.1730  -14.1316   27.2378 C   0  0  0  0  0  0  0  0  0  0  0  0
    8.8938  -12.9176   26.6138 C   0  0  0  0  0  0  0  0  0  0  0  0
    7.7321  -12.7290   25.9015 C   0  0  0  0  0  0  0  0  0  0  0  0
    6.7888  -13.7251   25.7685 C   0  0  0  0  0  0  0  0  0  0  0  0
    7.0649  -14.9255   26.3853 C   0  0  0  0  0  0  0  0  0  0  0  0
    8.2213  -15.1273   27.0995 C   0  0  0  0  0  0  0  0  0  0  0  0
   10.2969  -16.5736   28.9062 C   0  0  0  0  0  0  0  0  0  0  0  0
    9.4248  -17.6317   28.6237 O   0  0  0  0  0  0  0  0  0  0  0  0
   10.5277  -16.3041   30.1100 O   0  0  0  0  0  0  0  0  0  0  0  0
  2  1  1  0
  3  2  2  0
  4  3  1  0
  5 11  1  0
  5  4  2  0
  6  5  1  0
  7  9  1  0
  7  6  1  0
  7  8  1  1
  9 10  2  0
 11 12  2  0
 12  2  1  0
 13 14  1  0
 13  9  1  0
 14 15  1  6
 16 15  1  0
 17 16  1  0
 17 18  2  0
 19 14  1  0
 20 19  2  0
 21 17  1  0
 22 19  1  0
 23 24  1  1
 23 22  1  0
 24 25  1  0
 25 30  2  0
 26 27  2  0
 26 25  1  0
 27 28  1  0
 28 29  2  0
 30 29  1  0
 31 23  1  0
 31 32  1  0
 33 31  2  0
M  END
$$$$
