YEF.pdb
     RDKit          3D

 33 34  0  0  1  0  0  0  0  0999 V2000
    9.0214  -12.4493   18.5069 O   0  0  0  0  0  0  0  0  0  0  0  0
    8.3721  -13.3069   19.4058 C   0  0  0  0  0  0  0  0  0  0  0  0
    7.2774  -12.9142   20.1298 C   0  0  0  0  0  0  0  0  0  0  0  0
    6.6537  -13.7694   21.0067 C   0  0  0  0  0  0  0  0  0  0  0  0
    7.1028  -15.0745   21.2022 C   0  0  0  0  0  0  0  0  0  0  0  0
    6.4348  -16.0073   22.1488 C   0  0  0  0  0  0  0  0  0  0  0  0
    6.9630  -17.3940   21.8493 C   0  0  2  0  0  0  0  0  0  0  0  0
    5.8487  -18.3145   21.9697 N   0  0  0  0  0  0  0  0  0  0  0  0
    8.0386  -17.8114   22.7494 C   0  0  0  0  0  0  0  0  0  0  0  0
    8.3695  -19.0208   22.8417 O   0  0  0  0  0  0  0  0  0  0  0  0
    8.2054  -15.4585   20.4680 C   0  0  0  0  0  0  0  0  0  0  0  0
    8.8225  -14.6009   19.5954 C   0  0  0  0  0  0  0  0  0  0  0  0
    8.7334  -16.8493   23.5414 N   0  0  0  0  0  0  0  0  0  0  0  0
   10.1020  -16.9891   23.9506 C   0  0  1  0  0  0  0  0  0  0  0  0
   11.0281  -17.3047   22.8237 C   0  0  0  0  0  0  0  0  0  0  0  0
   12.4322  -17.6243   23.1646 C   0  0  0  0  0  0  0  0  0  0  0  0
   13.4177  -17.4292   22.0869 C   0  0  0  0  0  0  0  0  0  0  0  0
   14.6651  -17.5516   22.2536 O   0  0  0  0  0  0  0  0  0  0  0  0
   10.6071  -15.9087   24.8149 C   0  0  0  0  0  0  0  0  0  0  0  0
   10.5748  -14.6940   24.4186 O   0  0  0  0  0  0  0  0  0  0  0  0
   13.0353  -17.0890   20.7859 O   0  0  0  0  0  0  0  0  0  0  0  0
   11.1446  -16.1113   26.1011 N   0  0  0  0  0  0  0  0  0  0  0  0
   10.3255  -15.9811   27.3161 C   0  0  1  0  0  0  0  0  0  0  0  0
    8.8620  -16.1156   26.8647 C   0  0  0  0  0  0  0  0  0  0  0  0
    8.2052  -14.8152   26.7208 C   0  0  0  0  0  0  0  0  0  0  0  0
    7.0011  -14.6806   26.0329 C   0  0  0  0  0  0  0  0  0  0  0  0
    6.3778  -13.4601   25.9124 C   0  0  0  0  0  0  0  0  0  0  0  0
    6.9085  -12.3132   26.4626 C   0  0  0  0  0  0  0  0  0  0  0  0
    8.0988  -12.4464   27.1430 C   0  0  0  0  0  0  0  0  0  0  0  0
    8.7318  -13.6593   27.2710 C   0  0  0  0  0  0  0  0  0  0  0  0
   10.6198  -17.1289   28.1833 C   0  0  0  0  0  0  0  0  0  0  0  0
   10.5200  -17.0596   29.5780 O   0  0  0  0  0  0  0  0  0  0  0  0
   10.9764  -18.2174   27.6704 O   0  0  0  0  0  0  0  0  0  0  0  0
  2  1  1  0
  3  2  2  0
  4  3  1  0
  5 11  1  0
  5  4  2  0
  6  5  1  0
  7  9  1  0
  7  6  1  0
  7  8  1  1
  9 10  2  0
 11 12  2  0
 12  2  1  0
 13 14  1  0
 13  9  1  0
 14 15  1  6
 16 15  1  0
 17 16  1  0
 17 18  2  0
 19 14  1  0
 20 19  2  0
 21 17  1  0
 22 19  1  0
 23 24  1  6
 23 22  1  0
 24 25  1  0
 25 30  2  0
 26 27  2  0
 26 25  1  0
 27 28  1  0
 28 29  2  0
 30 29  1  0
 31 23  1  0
 31 32  1  0
 33 31  2  0
M  END
$$$$
