YEF.pdb
     RDKit          3D

 33 34  0  0  1  0  0  0  0  0999 V2000
    7.7441  -12.8288   16.0709 O   0  0  0  0  0  0  0  0  0  0  0  0
    7.8595  -13.2767   17.3942 C   0  0  0  0  0  0  0  0  0  0  0  0
    7.4191  -12.5345   18.4582 C   0  0  0  0  0  0  0  0  0  0  0  0
    7.5409  -12.9904   19.7492 C   0  0  0  0  0  0  0  0  0  0  0  0
    8.1167  -14.2265   20.0389 C   0  0  0  0  0  0  0  0  0  0  0  0
    8.2530  -14.7284   21.4324 C   0  0  0  0  0  0  0  0  0  0  0  0
    8.3965  -16.2330   21.3481 C   0  0  2  0  0  0  0  0  0  0  0  0
    7.1505  -16.7554   20.8211 N   0  0  0  0  0  0  0  0  0  0  0  0
    8.6807  -16.8613   22.6387 C   0  0  0  0  0  0  0  0  0  0  0  0
    7.8252  -16.8575   23.5601 O   0  0  0  0  0  0  0  0  0  0  0  0
    8.5562  -14.9645   18.9599 C   0  0  0  0  0  0  0  0  0  0  0  0
    8.4318  -14.5042   17.6752 C   0  0  0  0  0  0  0  0  0  0  0  0
    9.9386  -17.4917   22.8752 N   0  0  0  0  0  0  0  0  0  0  0  0
   10.3821  -17.9310   24.1676 C   0  0  1  0  0  0  0  0  0  0  0  0
   11.3101  -19.0984   24.1104 C   0  0  0  0  0  0  0  0  0  0  0  0
   12.2299  -19.1817   22.9542 C   0  0  0  0  0  0  0  0  0  0  0  0
   13.1387  -20.3412   22.9354 C   0  0  0  0  0  0  0  0  0  0  0  0
   12.8855  -21.4144   22.3165 O   0  0  0  0  0  0  0  0  0  0  0  0
   10.8692  -16.8616   25.0556 C   0  0  0  0  0  0  0  0  0  0  0  0
   11.9027  -16.1790   24.7404 O   0  0  0  0  0  0  0  0  0  0  0  0
   14.3620  -20.3348   23.6122 O   0  0  0  0  0  0  0  0  0  0  0  0
   10.2618  -16.5106   26.2772 N   0  0  0  0  0  0  0  0  0  0  0  0
   11.0093  -15.8440   27.3546 C   0  0  1  0  0  0  0  0  0  0  0  0
   10.9857  -14.3417   27.0287 C   0  0  0  0  0  0  0  0  0  0  0  0
    9.6374  -13.8638   26.7173 C   0  0  0  0  0  0  0  0  0  0  0  0
    8.9951  -14.2193   25.5332 C   0  0  0  0  0  0  0  0  0  0  0  0
    7.7219  -13.7817   25.2499 C   0  0  0  0  0  0  0  0  0  0  0  0
    7.0192  -12.9733   26.1172 C   0  0  0  0  0  0  0  0  0  0  0  0
    7.6542  -12.6220   27.2881 C   0  0  0  0  0  0  0  0  0  0  0  0
    8.9253  -13.0522   27.5836 C   0  0  0  0  0  0  0  0  0  0  0  0
   10.2607  -16.0292   28.6042 C   0  0  0  0  0  0  0  0  0  0  0  0
    9.0770  -16.7743   28.6654 O   0  0  0  0  0  0  0  0  0  0  0  0
   10.6839  -15.5053   29.6632 O   0  0  0  0  0  0  0  0  0  0  0  0
  2  1  1  0
  3  2  2  0
  4  3  1  0
  5 11  1  0
  5  4  2  0
  6  5  1  0
  7  9  1  0
  7  6  1  0
  7  8  1  1
  9 10  2  0
 11 12  2  0
 12  2  1  0
 13 14  1  0
 13  9  1  0
 14 15  1  6
 16 15  1  0
 17 16  1  0
 17 18  2  0
 19 14  1  0
 20 19  2  0
 21 17  1  0
 22 19  1  0
 23 24  1  6
 23 22  1  0
 24 25  1  0
 25 30  2  0
 26 27  2  0
 26 25  1  0
 27 28  1  0
 28 29  2  0
 30 29  1  0
 31 23  1  0
 31 32  1  0
 33 31  2  0
M  END
$$$$
