LSE.pdb
     RDKit          3D

 24 23  0  0  1  0  0  0  0  0999 V2000
   11.4613  -21.5833   17.9041 C   0  0  0  0  0  0  0  0  0  0  0  0
   11.0247  -20.1742   17.5041 C   0  0  2  0  0  0  0  0  0  0  0  0
   11.4868  -19.9690   16.0847 C   0  0  0  0  0  0  0  0  0  0  0  0
   11.7076  -19.2171   18.4416 C   0  0  0  0  0  0  0  0  0  0  0  0
   11.0728  -17.8619   18.5089 C   0  0  2  0  0  0  0  0  0  0  0  0
   11.2329  -17.1859   17.2544 N   0  0  0  0  0  0  0  0  0  0  0  0
   11.7175  -17.0961   19.6091 C   0  0  0  0  0  0  0  0  0  0  0  0
   12.7600  -16.4158   19.3517 O   0  0  0  0  0  0  0  0  0  0  0  0
   10.0588  -16.4714   23.4265 O   0  0  0  0  0  0  0  0  0  0  0  0
   10.8441  -15.5086   22.7935 C   0  0  0  0  0  0  0  0  0  0  0  0
   11.8589  -16.2139   21.9112 C   0  0  2  0  0  0  0  0  0  0  0  0
   11.2459  -17.0697   20.9463 N   0  0  0  0  0  0  0  0  0  0  0  0
   12.8848  -16.9083   22.7305 C   0  0  0  0  0  0  0  0  0  0  0  0
   12.6689  -18.1088   23.0173 O   0  0  0  0  0  0  0  0  0  0  0  0
   14.0534  -16.2570   23.1719 N   0  0  0  0  0  0  0  0  0  0  0  0
   15.1220  -16.9413   23.9214 C   0  0  1  0  0  0  0  0  0  0  0  0
   16.3848  -16.1494   23.7164 C   0  0  0  0  0  0  0  0  0  0  0  0
   16.7167  -15.8356   22.2910 C   0  0  0  0  0  0  0  0  0  0  0  0
   17.9313  -15.0365   22.1290 C   0  0  0  0  0  0  0  0  0  0  0  0
   18.0369  -13.9188   22.6493 O   0  0  0  0  0  0  0  0  0  0  0  0
   14.7368  -16.9678   25.3507 C   0  0  0  0  0  0  0  0  0  0  0  0
   13.5719  -16.3411   25.7498 O   0  0  0  0  0  0  0  0  0  0  0  0
   19.0217  -15.5007   21.3813 O   0  0  0  0  0  0  0  0  0  0  0  0
   15.4329  -17.5385   26.2024 O   0  0  0  0  0  0  0  0  0  0  0  0
  2  1  1  1
  3  2  1  0
  4  2  1  0
  5  6  1  6
  5  4  1  0
  7  5  1  0
  8  7  2  0
  9 10  1  0
 11 10  1  1
 11 13  1  0
 11 12  1  0
 12  7  1  0
 13 14  2  0
 15 16  1  0
 15 13  1  0
 16 17  1  1
 18 19  1  0
 18 17  1  0
 19 20  2  0
 21 22  1  0
 21 16  1  0
 23 19  1  0
 24 21  2  0
M  END
$$$$
