LSE.pdb
     RDKit          3D

 24 23  0  0  1  0  0  0  0  0999 V2000
    8.3115  -11.7567   18.9106 C   0  0  0  0  0  0  0  0  0  0  0  0
    7.9439  -13.1972   19.2657 C   0  0  2  0  0  0  0  0  0  0  0  0
    6.5562  -13.1536   19.8511 C   0  0  0  0  0  0  0  0  0  0  0  0
    8.9470  -13.6720   20.2805 C   0  0  0  0  0  0  0  0  0  0  0  0
    8.8420  -15.1282   20.6161 C   0  0  2  0  0  0  0  0  0  0  0  0
    7.5414  -15.6174   20.2618 N   0  0  0  0  0  0  0  0  0  0  0  0
    9.0908  -15.2926   22.0734 C   0  0  0  0  0  0  0  0  0  0  0  0
   10.1972  -14.8918   22.5541 O   0  0  0  0  0  0  0  0  0  0  0  0
    6.5876  -17.3633   24.7445 O   0  0  0  0  0  0  0  0  0  0  0  0
    7.3103  -16.2791   25.2407 C   0  0  0  0  0  0  0  0  0  0  0  0
    8.5210  -16.0553   24.3519 C   0  0  2  0  0  0  0  0  0  0  0  0
    8.1681  -15.8738   22.9801 N   0  0  0  0  0  0  0  0  0  0  0  0
    9.5326  -17.1241   24.5517 C   0  0  0  0  0  0  0  0  0  0  0  0
    9.5834  -18.0302   23.6877 O   0  0  0  0  0  0  0  0  0  0  0  0
   10.4026  -17.1304   25.6597 N   0  0  0  0  0  0  0  0  0  0  0  0
   11.3790  -18.2053   25.9105 C   0  0  1  0  0  0  0  0  0  0  0  0
   12.5356  -17.9815   24.9746 C   0  0  0  0  0  0  0  0  0  0  0  0
   13.1598  -16.6229   25.0454 C   0  0  0  0  0  0  0  0  0  0  0  0
   14.2621  -16.4290   24.1033 C   0  0  0  0  0  0  0  0  0  0  0  0
   15.4342  -16.3607   24.4941 O   0  0  0  0  0  0  0  0  0  0  0  0
   11.8122  -18.1128   27.3232 C   0  0  0  0  0  0  0  0  0  0  0  0
   12.6791  -19.0623   27.8292 O   0  0  0  0  0  0  0  0  0  0  0  0
   14.0387  -16.3132   22.7249 O   0  0  0  0  0  0  0  0  0  0  0  0
   11.4173  -17.2040   28.0674 O   0  0  0  0  0  0  0  0  0  0  0  0
  2  1  1  1
  3  2  1  0
  4  2  1  0
  5  6  1  1
  5  4  1  0
  7  5  1  0
  8  7  2  0
  9 10  1  0
 11 10  1  1
 11 13  1  0
 11 12  1  0
 12  7  1  0
 13 14  2  0
 15 16  1  0
 15 13  1  0
 16 17  1  6
 18 19  1  0
 18 17  1  0
 19 20  2  0
 21 22  1  0
 21 16  1  0
 23 19  1  0
 24 21  2  0
M  END
$$$$
