LSE.pdb
     RDKit          3D

 24 23  0  0  1  0  0  0  0  0999 V2000
    7.2994  -13.0988   18.1609 C   0  0  0  0  0  0  0  0  0  0  0  0
    8.4086  -14.1112   17.8766 C   0  0  2  0  0  0  0  0  0  0  0  0
    7.7625  -15.2618   17.1493 C   0  0  0  0  0  0  0  0  0  0  0  0
    8.9588  -14.5489   19.2059 C   0  0  0  0  0  0  0  0  0  0  0  0
    9.5247  -13.4368   20.0349 C   0  0  2  0  0  0  0  0  0  0  0  0
   10.6782  -12.8841   19.3867 N   0  0  0  0  0  0  0  0  0  0  0  0
    9.8794  -13.9827   21.3723 C   0  0  0  0  0  0  0  0  0  0  0  0
   11.0631  -14.4033   21.5671 O   0  0  0  0  0  0  0  0  0  0  0  0
    7.1760  -15.1002   24.3455 O   0  0  0  0  0  0  0  0  0  0  0  0
    8.3492  -14.4952   24.7949 C   0  0  0  0  0  0  0  0  0  0  0  0
    9.4050  -14.6193   23.7107 C   0  0  2  0  0  0  0  0  0  0  0  0
    8.9781  -14.0695   22.4638 N   0  0  0  0  0  0  0  0  0  0  0  0
    9.8827  -16.0204   23.5911 C   0  0  0  0  0  0  0  0  0  0  0  0
    9.3934  -16.7132   22.6686 O   0  0  0  0  0  0  0  0  0  0  0  0
   10.8432  -16.5589   24.4698 N   0  0  0  0  0  0  0  0  0  0  0  0
   11.3432  -17.9414   24.3665 C   0  0  1  0  0  0  0  0  0  0  0  0
   12.6486  -17.8865   23.6204 C   0  0  0  0  0  0  0  0  0  0  0  0
   13.7259  -17.0816   24.2778 C   0  0  0  0  0  0  0  0  0  0  0  0
   14.7268  -16.5612   23.3464 C   0  0  0  0  0  0  0  0  0  0  0  0
   15.6191  -15.7936   23.7281 O   0  0  0  0  0  0  0  0  0  0  0  0
   11.5361  -18.4643   25.7381 C   0  0  0  0  0  0  0  0  0  0  0  0
   11.9444  -19.7727   25.9128 O   0  0  0  0  0  0  0  0  0  0  0  0
   14.7178  -16.9084   21.9888 O   0  0  0  0  0  0  0  0  0  0  0  0
   11.3406  -17.7586   26.7378 O   0  0  0  0  0  0  0  0  0  0  0  0
  2  1  1  1
  3  2  1  0
  4  2  1  0
  5  6  1  6
  5  4  1  0
  7  5  1  0
  8  7  2  0
  9 10  1  0
 11 10  1  1
 11 13  1  0
 11 12  1  0
 12  7  1  0
 13 14  2  0
 15 16  1  0
 15 13  1  0
 16 17  1  6
 18 19  1  0
 18 17  1  0
 19 20  2  0
 21 22  1  0
 21 16  1  0
 23 19  1  0
 24 21  2  0
M  END
$$$$
