LSE.pdb
     RDKit          3D

 24 23  0  0  1  0  0  0  0  0999 V2000
    5.6675  -12.4131   25.4864 C   0  0  0  0  0  0  0  0  0  0  0  0
    6.3128  -13.2130   26.6178 C   0  0  2  0  0  0  0  0  0  0  0  0
    7.0784  -12.2246   27.4589 C   0  0  0  0  0  0  0  0  0  0  0  0
    7.2363  -14.2141   25.9804 C   0  0  0  0  0  0  0  0  0  0  0  0
    6.5634  -15.1533   25.0268 C   0  0  2  0  0  0  0  0  0  0  0  0
    5.8857  -16.1855   25.7561 N   0  0  0  0  0  0  0  0  0  0  0  0
    7.5988  -15.7317   24.1291 C   0  0  0  0  0  0  0  0  0  0  0  0
    8.3091  -16.6957   24.5559 O   0  0  0  0  0  0  0  0  0  0  0  0
    7.5843  -15.9307   20.0398 O   0  0  0  0  0  0  0  0  0  0  0  0
    8.8019  -15.4922   20.5588 C   0  0  0  0  0  0  0  0  0  0  0  0
    8.8770  -15.8903   22.0222 C   0  0  2  0  0  0  0  0  0  0  0  0
    7.8553  -15.2782   22.8101 N   0  0  0  0  0  0  0  0  0  0  0  0
   10.2401  -15.6632   22.5661 C   0  0  0  0  0  0  0  0  0  0  0  0
   10.6904  -14.4953   22.5076 O   0  0  0  0  0  0  0  0  0  0  0  0
   11.0035  -16.7066   23.1258 N   0  0  0  0  0  0  0  0  0  0  0  0
   12.3309  -16.4976   23.7310 C   0  0  1  0  0  0  0  0  0  0  0  0
   12.2007  -16.7957   25.2000 C   0  0  0  0  0  0  0  0  0  0  0  0
   11.6029  -18.1276   25.5302 C   0  0  0  0  0  0  0  0  0  0  0  0
   11.6672  -18.4686   26.9513 C   0  0  0  0  0  0  0  0  0  0  0  0
   12.2612  -17.7424   27.7581 O   0  0  0  0  0  0  0  0  0  0  0  0
   13.2837  -17.4265   23.0821 C   0  0  0  0  0  0  0  0  0  0  0  0
   12.8087  -18.3724   22.1939 O   0  0  0  0  0  0  0  0  0  0  0  0
   11.0616  -19.6266   27.4571 O   0  0  0  0  0  0  0  0  0  0  0  0
   14.5000  -17.3793   23.3142 O   0  0  0  0  0  0  0  0  0  0  0  0
  2  1  1  6
  3  2  1  0
  4  2  1  0
  5  6  1  1
  5  4  1  0
  7  5  1  0
  8  7  2  0
  9 10  1  0
 11 10  1  6
 11 13  1  0
 11 12  1  0
 12  7  1  0
 13 14  2  0
 15 16  1  0
 15 13  1  0
 16 17  1  1
 18 19  1  0
 18 17  1  0
 19 20  2  0
 21 22  1  0
 21 16  1  0
 23 19  1  0
 24 21  2  0
M  END
$$$$
