LSE.pdb
     RDKit          3D

 24 23  0  0  1  0  0  0  0  0999 V2000
    7.8871  -12.4775   18.3437 C   0  0  0  0  0  0  0  0  0  0  0  0
    7.5293  -13.1154   19.6858 C   0  0  2  0  0  0  0  0  0  0  0  0
    7.2618  -11.9816   20.6415 C   0  0  0  0  0  0  0  0  0  0  0  0
    8.7195  -13.9244   20.1220 C   0  0  0  0  0  0  0  0  0  0  0  0
    9.0527  -15.0689   19.2147 C   0  0  2  0  0  0  0  0  0  0  0  0
    7.9452  -15.9775   19.1497 N   0  0  0  0  0  0  0  0  0  0  0  0
   10.2653  -15.7489   19.7436 C   0  0  0  0  0  0  0  0  0  0  0  0
   10.1459  -16.5182   20.7485 O   0  0  0  0  0  0  0  0  0  0  0  0
   14.3728  -15.1625   18.6288 O   0  0  0  0  0  0  0  0  0  0  0  0
   13.8191  -16.4389   18.7209 C   0  0  0  0  0  0  0  0  0  0  0  0
   12.6490  -16.3914   19.6874 C   0  0  2  0  0  0  0  0  0  0  0  0
   11.5662  -15.5987   19.1993 N   0  0  0  0  0  0  0  0  0  0  0  0
   13.0959  -15.9861   21.0445 C   0  0  0  0  0  0  0  0  0  0  0  0
   13.0276  -14.7673   21.3273 O   0  0  0  0  0  0  0  0  0  0  0  0
   13.5776  -16.9211   21.9817 N   0  0  0  0  0  0  0  0  0  0  0  0
   14.0445  -16.5442   23.3278 C   0  0  1  0  0  0  0  0  0  0  0  0
   13.9944  -17.7844   24.1782 C   0  0  0  0  0  0  0  0  0  0  0  0
   14.3570  -17.5864   25.6169 C   0  0  0  0  0  0  0  0  0  0  0  0
   14.3904  -18.8254   26.3940 C   0  0  0  0  0  0  0  0  0  0  0  0
   13.3682  -19.5011   26.5667 O   0  0  0  0  0  0  0  0  0  0  0  0
   15.4301  -16.0365   23.2086 C   0  0  0  0  0  0  0  0  0  0  0  0
   15.9572  -15.2621   24.2242 O   0  0  0  0  0  0  0  0  0  0  0  0
   15.5758  -19.2977   26.9731 O   0  0  0  0  0  0  0  0  0  0  0  0
   16.1330  -16.2876   22.2194 O   0  0  0  0  0  0  0  0  0  0  0  0
  2  1  1  6
  3  2  1  0
  4  2  1  0
  5  6  1  1
  5  4  1  0
  7  5  1  0
  8  7  2  0
  9 10  1  0
 11 10  1  6
 11 13  1  0
 11 12  1  0
 12  7  1  0
 13 14  2  0
 15 16  1  0
 15 13  1  0
 16 17  1  1
 18 19  1  0
 18 17  1  0
 19 20  2  0
 21 22  1  0
 21 16  1  0
 23 19  1  0
 24 21  2  0
M  END
$$$$
