GQR.pdb
     RDKit          3D

 25 24  0  0  1  0  0  0  0  0999 V2000
   18.2905  -25.7276   -4.6996 N   0  0  0  0  0  0  0  0  0  0  0  0
   17.5040  -25.9019   -5.9254 C   0  0  0  0  0  0  0  0  0  0  0  0
   18.4209  -25.8564   -7.1054 C   0  0  0  0  0  0  0  0  0  0  0  0
   19.5985  -25.4963   -6.9587 O   0  0  0  0  0  0  0  0  0  0  0  0
   20.9114  -28.2261  -10.0770 N   0  0  0  0  0  0  0  0  0  0  0  0
   20.6016  -27.9041  -11.4073 C   0  0  0  0  0  0  0  0  0  0  0  0
   21.4219  -28.0243  -12.3258 O   0  0  0  0  0  0  0  0  0  0  0  0
   19.2171  -27.3946  -11.7133 C   0  0  0  0  0  0  0  0  0  0  0  0
   18.4160  -27.3307  -10.4586 C   0  0  0  0  0  0  0  0  0  0  0  0
   18.7192  -26.1493   -9.6082 C   0  0  2  0  0  0  0  0  0  0  0  0
   17.9236  -26.2263   -8.3698 N   0  0  0  0  0  0  0  0  0  0  0  0
   18.4529  -24.8297  -10.1939 C   0  0  0  0  0  0  0  0  0  0  0  0
   17.2787  -24.3303  -10.0851 O   0  0  0  0  0  0  0  0  0  0  0  0
   23.4708  -19.6520  -15.1638 N   0  0  0  0  0  0  0  0  0  0  0  0
   22.2705  -18.8562  -15.0636 C   0  0  0  0  0  0  0  0  0  0  0  0
   22.0401  -17.9474  -15.9186 N   0  0  0  0  0  0  0  0  0  0  0  0
   21.3895  -19.1349  -13.9896 N   0  0  0  0  0  0  0  0  0  0  0  0
   21.6045  -20.2624  -13.0980 C   0  0  0  0  0  0  0  0  0  0  0  0
   20.3328  -20.9131  -12.7327 C   0  0  0  0  0  0  0  0  0  0  0  0
   20.2750  -22.1336  -11.9434 C   0  0  0  0  0  0  0  0  0  0  0  0
   18.9920  -22.7153  -11.4549 C   0  0  2  0  0  0  0  0  0  0  0  0
   19.3993  -24.0508  -10.8703 N   0  0  0  0  0  0  0  0  0  0  0  0
   17.9708  -23.0300  -12.4671 C   0  0  0  0  0  0  0  0  0  0  0  0
   16.9481  -22.3591  -12.6536 O   0  0  0  0  0  0  0  0  0  0  0  0
   18.1423  -24.1585  -13.2906 O   0  0  0  0  0  0  0  0  0  0  0  0
  2  1  1  0
  3  4  2  0
  3  2  1  0
  5  6  1  0
  6  7  2  0
  8  6  1  0
  8  9  1  0
 10  9  1  6
 10 12  1  0
 10 11  1  0
 11  3  1  0
 12 22  1  0
 13 12  2  0
 15 14  1  0
 16 15  2  0
 17 15  1  0
 18 19  1  0
 18 17  1  0
 20 19  1  0
 21 20  1  6
 22 21  1  0
 23 25  1  0
 23 21  1  0
 24 23  2  0
M  END
$$$$
