GQR.pdb
     RDKit          3D

 25 24  0  0  1  0  0  0  0  0999 V2000
   25.0434  -26.4197  -15.0626 N   0  0  0  0  0  0  0  0  0  0  0  0
   24.3739  -25.3455  -15.8036 C   0  0  0  0  0  0  0  0  0  0  0  0
   23.7263  -24.4114  -14.8323 C   0  0  0  0  0  0  0  0  0  0  0  0
   23.4129  -24.8153  -13.7025 O   0  0  0  0  0  0  0  0  0  0  0  0
   26.6680  -21.6966  -15.2354 N   0  0  0  0  0  0  0  0  0  0  0  0
   25.5080  -21.0168  -15.6375 C   0  0  0  0  0  0  0  0  0  0  0  0
   25.1702  -20.9286  -16.8246 O   0  0  0  0  0  0  0  0  0  0  0  0
   24.6531  -20.3760  -14.5752 C   0  0  0  0  0  0  0  0  0  0  0  0
   23.2216  -20.7182  -14.8076 C   0  0  0  0  0  0  0  0  0  0  0  0
   22.8446  -22.0815  -14.3495 C   0  0  2  0  0  0  0  0  0  0  0  0
   23.4833  -23.0809  -15.2245 N   0  0  0  0  0  0  0  0  0  0  0  0
   21.4112  -22.3980  -14.3313 C   0  0  0  0  0  0  0  0  0  0  0  0
   20.9511  -23.2321  -15.1873 O   0  0  0  0  0  0  0  0  0  0  0  0
   17.5390  -26.3338   -8.6250 N   0  0  0  0  0  0  0  0  0  0  0  0
   18.2679  -25.0920   -8.5216 C   0  0  0  0  0  0  0  0  0  0  0  0
   18.3866  -24.5193   -7.3955 N   0  0  0  0  0  0  0  0  0  0  0  0
   18.8263  -24.5611   -9.7106 N   0  0  0  0  0  0  0  0  0  0  0  0
   18.7452  -25.2712  -10.9761 C   0  0  0  0  0  0  0  0  0  0  0  0
   18.2694  -24.3920  -12.0600 C   0  0  0  0  0  0  0  0  0  0  0  0
   19.1692  -23.7801  -13.0252 C   0  0  0  0  0  0  0  0  0  0  0  0
   19.0550  -22.3520  -13.4381 C   0  0  2  0  0  0  0  0  0  0  0  0
   20.4856  -21.8574  -13.4309 N   0  0  0  0  0  0  0  0  0  0  0  0
   18.3276  -21.4488  -12.5317 C   0  0  0  0  0  0  0  0  0  0  0  0
   17.0971  -21.4365  -12.4039 O   0  0  0  0  0  0  0  0  0  0  0  0
   19.0511  -20.5312  -11.7471 O   0  0  0  0  0  0  0  0  0  0  0  0
  2  1  1  0
  3  4  2  0
  3  2  1  0
  5  6  1  0
  6  7  2  0
  8  6  1  0
  8  9  1  0
 10  9  1  6
 10 12  1  0
 10 11  1  0
 11  3  1  0
 12 22  1  0
 13 12  2  0
 15 14  1  0
 16 15  2  0
 17 15  1  0
 18 19  1  0
 18 17  1  0
 20 19  1  0
 21 20  1  1
 22 21  1  0
 23 25  1  0
 23 21  1  0
 24 23  2  0
M  END
$$$$
