GQR.pdb
     RDKit          3D

 25 24  0  0  1  0  0  0  0  0999 V2000
   29.2197  -27.0649  -16.4067 N   0  0  0  0  0  0  0  0  0  0  0  0
   28.1040  -26.4654  -17.1465 C   0  0  0  0  0  0  0  0  0  0  0  0
   28.1610  -24.9788  -16.9973 C   0  0  0  0  0  0  0  0  0  0  0  0
   28.9116  -24.4717  -16.1503 O   0  0  0  0  0  0  0  0  0  0  0  0
   27.5958  -19.7900  -18.0131 N   0  0  0  0  0  0  0  0  0  0  0  0
   28.3448  -20.1398  -19.1471 C   0  0  0  0  0  0  0  0  0  0  0  0
   29.2061  -19.3929  -19.6281 O   0  0  0  0  0  0  0  0  0  0  0  0
   28.0800  -21.4756  -19.7918 C   0  0  0  0  0  0  0  0  0  0  0  0
   26.9576  -22.1592  -19.0895 C   0  0  0  0  0  0  0  0  0  0  0  0
   27.3237  -22.7070  -17.7566 C   0  0  2  0  0  0  0  0  0  0  0  0
   27.3539  -24.1788  -17.8289 N   0  0  0  0  0  0  0  0  0  0  0  0
   26.4394  -22.3623  -16.6367 C   0  0  0  0  0  0  0  0  0  0  0  0
   25.3131  -22.9625  -16.5306 O   0  0  0  0  0  0  0  0  0  0  0  0
   25.3184  -19.6583   -8.6011 N   0  0  0  0  0  0  0  0  0  0  0  0
   24.4085  -20.5536   -9.2753 C   0  0  0  0  0  0  0  0  0  0  0  0
   23.1754  -20.5467   -8.9761 N   0  0  0  0  0  0  0  0  0  0  0  0
   24.9503  -21.4168  -10.2596 N   0  0  0  0  0  0  0  0  0  0  0  0
   26.2531  -21.1730  -10.8558 C   0  0  0  0  0  0  0  0  0  0  0  0
   26.1436  -20.3597  -12.0808 C   0  0  0  0  0  0  0  0  0  0  0  0
   26.6638  -20.8027  -13.3650 C   0  0  0  0  0  0  0  0  0  0  0  0
   25.7789  -21.2156  -14.4918 C   0  0  2  0  0  0  0  0  0  0  0  0
   26.7348  -21.4159  -15.6482 N   0  0  0  0  0  0  0  0  0  0  0  0
   24.7956  -20.2290  -14.9675 C   0  0  0  0  0  0  0  0  0  0  0  0
   25.0589  -19.3088  -15.7517 O   0  0  0  0  0  0  0  0  0  0  0  0
   23.4637  -20.3133  -14.5204 O   0  0  0  0  0  0  0  0  0  0  0  0
  2  1  1  0
  3  4  2  0
  3  2  1  0
  5  6  1  0
  6  7  2  0
  8  6  1  0
  8  9  1  0
 10  9  1  6
 10 12  1  0
 10 11  1  0
 11  3  1  0
 12 22  1  0
 13 12  2  0
 15 14  1  0
 16 15  2  0
 17 15  1  0
 18 19  1  0
 18 17  1  0
 20 19  1  0
 21 20  1  1
 22 21  1  0
 23 25  1  0
 23 21  1  0
 24 23  2  0
M  END
$$$$
