GQR.pdb
     RDKit          3D

 25 24  0  0  1  0  0  0  0  0999 V2000
   33.4001   -6.1374  -16.5234 N   0  0  0  0  0  0  0  0  0  0  0  0
   33.1548   -7.5760  -16.6704 C   0  0  0  0  0  0  0  0  0  0  0  0
   31.8654   -7.7803  -17.3992 C   0  0  0  0  0  0  0  0  0  0  0  0
   31.1437   -6.8065  -17.6618 O   0  0  0  0  0  0  0  0  0  0  0  0
   31.0585  -12.9467  -20.6659 N   0  0  0  0  0  0  0  0  0  0  0  0
   29.7933  -12.3892  -20.9067 C   0  0  0  0  0  0  0  0  0  0  0  0
   28.9763  -12.9092  -21.6768 O   0  0  0  0  0  0  0  0  0  0  0  0
   29.4305  -11.1114  -20.1956 C   0  0  0  0  0  0  0  0  0  0  0  0
   30.5505  -10.6963  -19.3048 C   0  0  0  0  0  0  0  0  0  0  0  0
   30.3395   -9.3823  -18.6417 C   0  0  2  0  0  0  0  0  0  0  0  0
   31.4941   -9.0856  -17.7750 N   0  0  0  0  0  0  0  0  0  0  0  0
   29.1427   -9.2525  -17.8016 C   0  0  0  0  0  0  0  0  0  0  0  0
   29.2354   -9.5059  -16.5496 O   0  0  0  0  0  0  0  0  0  0  0  0
   21.1144   -5.8429  -18.8332 N   0  0  0  0  0  0  0  0  0  0  0  0
   21.2480   -6.2049  -17.4421 C   0  0  0  0  0  0  0  0  0  0  0  0
   20.2118   -6.3702  -16.7285 N   0  0  0  0  0  0  0  0  0  0  0  0
   22.5600   -6.3598  -16.9302 N   0  0  0  0  0  0  0  0  0  0  0  0
   23.6467   -6.8635  -17.7534 C   0  0  0  0  0  0  0  0  0  0  0  0
   24.9163   -6.9078  -17.0050 C   0  0  0  0  0  0  0  0  0  0  0  0
   26.1580   -7.3833  -17.5951 C   0  0  0  0  0  0  0  0  0  0  0  0
   26.7326   -8.7243  -17.2876 C   0  0  2  0  0  0  0  0  0  0  0  0
   27.8814   -8.8585  -18.2640 N   0  0  0  0  0  0  0  0  0  0  0  0
   25.8740   -9.8938  -17.5356 C   0  0  0  0  0  0  0  0  0  0  0  0
   25.8147  -10.4953  -18.6151 O   0  0  0  0  0  0  0  0  0  0  0  0
   25.0588  -10.3822  -16.4973 O   0  0  0  0  0  0  0  0  0  0  0  0
  2  1  1  0
  3  4  2  0
  3  2  1  0
  5  6  1  0
  6  7  2  0
  8  6  1  0
  8  9  1  0
 10  9  1  1
 10 12  1  0
 10 11  1  0
 11  3  1  0
 12 22  1  0
 13 12  2  0
 15 14  1  0
 16 15  2  0
 17 15  1  0
 18 19  1  0
 18 17  1  0
 20 19  1  0
 21 20  1  6
 22 21  1  0
 23 25  1  0
 23 21  1  0
 24 23  2  0
M  END
$$$$
