GQR.pdb
     RDKit          3D

 25 24  0  0  1  0  0  0  0  0999 V2000
   18.4101  -24.8402   -9.6821 N   0  0  0  0  0  0  0  0  0  0  0  0
   19.0096  -24.9977   -8.3527 C   0  0  0  0  0  0  0  0  0  0  0  0
   17.9432  -25.3819   -7.3777 C   0  0  0  0  0  0  0  0  0  0  0  0
   16.7541  -25.3774   -7.7298 O   0  0  0  0  0  0  0  0  0  0  0  0
   19.2897  -26.8922   -1.5795 N   0  0  0  0  0  0  0  0  0  0  0  0
   17.9155  -27.1688   -1.5121 C   0  0  0  0  0  0  0  0  0  0  0  0
   17.3353  -27.3843   -0.4407 O   0  0  0  0  0  0  0  0  0  0  0  0
   17.1312  -27.2015   -2.7981 C   0  0  0  0  0  0  0  0  0  0  0  0
   18.0194  -26.8389   -3.9382 C   0  0  0  0  0  0  0  0  0  0  0  0
   17.3416  -26.0591   -5.0074 C   0  0  2  0  0  0  0  0  0  0  0  0
   18.3148  -25.7437   -6.0685 N   0  0  0  0  0  0  0  0  0  0  0  0
   16.7317  -24.7849   -4.6083 C   0  0  0  0  0  0  0  0  0  0  0  0
   17.4640  -23.7350   -4.5663 O   0  0  0  0  0  0  0  0  0  0  0  0
    9.7595  -20.4819   -7.3874 N   0  0  0  0  0  0  0  0  0  0  0  0
   10.3914  -19.5912   -6.4433 C   0  0  0  0  0  0  0  0  0  0  0  0
   10.0846  -18.3600   -6.4314 N   0  0  0  0  0  0  0  0  0  0  0  0
   11.3461  -20.1486   -5.5571 N   0  0  0  0  0  0  0  0  0  0  0  0
   12.0125  -21.4075   -5.8456 C   0  0  0  0  0  0  0  0  0  0  0  0
   13.0442  -21.7165   -4.8385 C   0  0  0  0  0  0  0  0  0  0  0  0
   13.8601  -22.9194   -4.8955 C   0  0  0  0  0  0  0  0  0  0  0  0
   14.8789  -23.2499   -3.8583 C   0  0  2  0  0  0  0  0  0  0  0  0
   15.3840  -24.6164   -4.2692 N   0  0  0  0  0  0  0  0  0  0  0  0
   14.3993  -23.4129   -2.4763 C   0  0  0  0  0  0  0  0  0  0  0  0
   14.0783  -24.4981   -1.9761 O   0  0  0  0  0  0  0  0  0  0  0  0
   14.2900  -22.2808   -1.6472 O   0  0  0  0  0  0  0  0  0  0  0  0
  2  1  1  0
  3  4  2  0
  3  2  1  0
  5  6  1  0
  6  7  2  0
  8  6  1  0
  8  9  1  0
 10  9  1  1
 10 12  1  0
 10 11  1  0
 11  3  1  0
 12 22  1  0
 13 12  2  0
 15 14  1  0
 16 15  2  0
 17 15  1  0
 18 19  1  0
 18 17  1  0
 20 19  1  0
 21 20  1  6
 22 21  1  0
 23 25  1  0
 23 21  1  0
 24 23  2  0
M  END
$$$$
