GQR.pdb
     RDKit          3D

 25 24  0  0  1  0  0  0  0  0999 V2000
   15.9548  -11.6034  -14.8693 N   0  0  0  0  0  0  0  0  0  0  0  0
   16.7944  -10.4962  -15.3390 C   0  0  0  0  0  0  0  0  0  0  0  0
   17.5847   -9.9596  -14.1888 C   0  0  0  0  0  0  0  0  0  0  0  0
   17.7790  -10.6678  -13.1894 O   0  0  0  0  0  0  0  0  0  0  0  0
   21.9104   -8.6879  -12.6716 N   0  0  0  0  0  0  0  0  0  0  0  0
   21.8073   -7.3917  -12.1438 C   0  0  0  0  0  0  0  0  0  0  0  0
   22.5470   -6.9843  -11.2394 O   0  0  0  0  0  0  0  0  0  0  0  0
   20.7537   -6.4742  -12.7078 C   0  0  0  0  0  0  0  0  0  0  0  0
   19.9505   -7.2002  -13.7316 C   0  0  0  0  0  0  0  0  0  0  0  0
   18.8337   -8.0021  -13.1655 C   0  0  2  0  0  0  0  0  0  0  0  0
   18.0960   -8.6498  -14.2650 N   0  0  0  0  0  0  0  0  0  0  0  0
   17.8392   -7.2756  -12.3667 C   0  0  0  0  0  0  0  0  0  0  0  0
   17.0068   -6.5077  -12.9648 O   0  0  0  0  0  0  0  0  0  0  0  0
   11.5610   -9.7049   -7.1310 N   0  0  0  0  0  0  0  0  0  0  0  0
   11.5062   -8.2654   -7.0375 C   0  0  0  0  0  0  0  0  0  0  0  0
   10.4995   -7.7031   -6.5080 N   0  0  0  0  0  0  0  0  0  0  0  0
   12.6042   -7.5346   -7.5552 N   0  0  0  0  0  0  0  0  0  0  0  0
   13.6601   -8.1800   -8.3173 C   0  0  0  0  0  0  0  0  0  0  0  0
   14.6962   -7.2153   -8.7299 C   0  0  0  0  0  0  0  0  0  0  0  0
   15.7670   -7.5613   -9.6515 C   0  0  0  0  0  0  0  0  0  0  0  0
   16.6637   -6.5388  -10.2627 C   0  0  2  0  0  0  0  0  0  0  0  0
   17.7172   -7.3600  -10.9746 N   0  0  0  0  0  0  0  0  0  0  0  0
   17.4093   -5.6655   -9.3418 C   0  0  0  0  0  0  0  0  0  0  0  0
   18.5120   -5.9479   -8.8569 O   0  0  0  0  0  0  0  0  0  0  0  0
   16.8586   -4.4238   -8.9726 O   0  0  0  0  0  0  0  0  0  0  0  0
  2  1  1  0
  3  4  2  0
  3  2  1  0
  5  6  1  0
  6  7  2  0
  8  6  1  0
  8  9  1  0
 10  9  1  6
 10 12  1  0
 10 11  1  0
 11  3  1  0
 12 22  1  0
 13 12  2  0
 15 14  1  0
 16 15  2  0
 17 15  1  0
 18 19  1  0
 18 17  1  0
 20 19  1  0
 21 20  1  1
 22 21  1  0
 23 25  1  0
 23 21  1  0
 24 23  2  0
M  END
$$$$
