GQR.pdb
     RDKit          3D

 25 24  0  0  1  0  0  0  0  0999 V2000
   23.5405  -21.2192   -8.0152 N   0  0  0  0  0  0  0  0  0  0  0  0
   23.8480  -20.2864   -9.1046 C   0  0  0  0  0  0  0  0  0  0  0  0
   22.9835  -20.6069  -10.2815 C   0  0  0  0  0  0  0  0  0  0  0  0
   23.0509  -21.7266  -10.8104 O   0  0  0  0  0  0  0  0  0  0  0  0
   17.8199  -16.9728  -13.7130 N   0  0  0  0  0  0  0  0  0  0  0  0
   17.9897  -18.0403  -12.8180 C   0  0  0  0  0  0  0  0  0  0  0  0
   17.2186  -18.2392  -11.8710 O   0  0  0  0  0  0  0  0  0  0  0  0
   19.1570  -18.9690  -13.0296 C   0  0  0  0  0  0  0  0  0  0  0  0
   20.0658  -18.9113  -11.8502 C   0  0  0  0  0  0  0  0  0  0  0  0
   21.2407  -19.8173  -11.9482 C   0  0  2  0  0  0  0  0  0  0  0  0
   22.1034  -19.6218  -10.7693 N   0  0  0  0  0  0  0  0  0  0  0  0
   22.1012  -19.6559  -13.1266 C   0  0  0  0  0  0  0  0  0  0  0  0
   23.0285  -18.7729  -13.0989 O   0  0  0  0  0  0  0  0  0  0  0  0
   27.0323  -24.0537  -16.6006 N   0  0  0  0  0  0  0  0  0  0  0  0
   27.0718  -23.3373  -17.8532 C   0  0  0  0  0  0  0  0  0  0  0  0
   28.1759  -23.1813  -18.4589 N   0  0  0  0  0  0  0  0  0  0  0  0
   25.8476  -22.8307  -18.3552 N   0  0  0  0  0  0  0  0  0  0  0  0
   24.6335  -22.8365  -17.5562 C   0  0  0  0  0  0  0  0  0  0  0  0
   24.7319  -21.9063  -16.4164 C   0  0  0  0  0  0  0  0  0  0  0  0
   23.6070  -21.6181  -15.5403 C   0  0  0  0  0  0  0  0  0  0  0  0
   23.0338  -20.2497  -15.3913 C   0  0  2  0  0  0  0  0  0  0  0  0
   21.9950  -20.4089  -14.3019 N   0  0  0  0  0  0  0  0  0  0  0  0
   22.3046  -19.6996  -16.5455 C   0  0  0  0  0  0  0  0  0  0  0  0
   21.6124  -20.3761  -17.3161 O   0  0  0  0  0  0  0  0  0  0  0  0
   22.3796  -18.3199  -16.8135 O   0  0  0  0  0  0  0  0  0  0  0  0
  2  1  1  0
  3  4  2  0
  3  2  1  0
  5  6  1  0
  6  7  2  0
  8  6  1  0
  8  9  1  0
 10  9  1  6
 10 12  1  0
 10 11  1  0
 11  3  1  0
 12 22  1  0
 13 12  2  0
 15 14  1  0
 16 15  2  0
 17 15  1  0
 18 19  1  0
 18 17  1  0
 20 19  1  0
 21 20  1  6
 22 21  1  0
 23 25  1  0
 23 21  1  0
 24 23  2  0
M  END
$$$$
