GQR.pdb
     RDKit          3D

 25 24  0  0  1  0  0  0  0  0999 V2000
   26.6134  -21.2432  -14.5213 N   0  0  0  0  0  0  0  0  0  0  0  0
   25.7973  -20.8567  -13.3654 C   0  0  0  0  0  0  0  0  0  0  0  0
   24.3535  -21.0605  -13.6960 C   0  0  0  0  0  0  0  0  0  0  0  0
   24.0029  -21.1874  -14.8787 O   0  0  0  0  0  0  0  0  0  0  0  0
   20.3329  -23.0160   -9.4265 N   0  0  0  0  0  0  0  0  0  0  0  0
   19.4679  -22.9953  -10.5314 C   0  0  0  0  0  0  0  0  0  0  0  0
   18.3046  -23.4120  -10.4694 O   0  0  0  0  0  0  0  0  0  0  0  0
   19.9880  -22.4433  -11.8333 C   0  0  0  0  0  0  0  0  0  0  0  0
   21.4047  -22.0127  -11.6668 C   0  0  0  0  0  0  0  0  0  0  0  0
   21.9731  -21.3317  -12.8600 C   0  0  2  0  0  0  0  0  0  0  0  0
   23.4138  -21.1042  -12.6481 N   0  0  0  0  0  0  0  0  0  0  0  0
   21.3930  -20.0308  -13.2153 C   0  0  0  0  0  0  0  0  0  0  0  0
   21.5659  -19.0395  -12.4231 O   0  0  0  0  0  0  0  0  0  0  0  0
   22.4803  -14.1996  -18.9645 N   0  0  0  0  0  0  0  0  0  0  0  0
   21.4023  -14.9073  -19.6134 C   0  0  0  0  0  0  0  0  0  0  0  0
   21.1441  -14.6849  -20.8357 N   0  0  0  0  0  0  0  0  0  0  0  0
   20.6678  -15.8355  -18.8347 N   0  0  0  0  0  0  0  0  0  0  0  0
   20.9129  -16.0018  -17.4118 C   0  0  0  0  0  0  0  0  0  0  0  0
   19.9872  -16.9817  -16.8145 C   0  0  0  0  0  0  0  0  0  0  0  0
   20.4486  -18.1535  -16.0866 C   0  0  0  0  0  0  0  0  0  0  0  0
   20.1368  -18.3797  -14.6462 C   0  0  2  0  0  0  0  0  0  0  0  0
   20.6562  -19.7759  -14.3781 N   0  0  0  0  0  0  0  0  0  0  0  0
   18.7152  -18.4149  -14.2660 C   0  0  0  0  0  0  0  0  0  0  0  0
   18.0031  -19.4244  -14.3341 O   0  0  0  0  0  0  0  0  0  0  0  0
   18.1003  -17.2416  -13.7902 O   0  0  0  0  0  0  0  0  0  0  0  0
  2  1  1  0
  3  4  2  0
  3  2  1  0
  5  6  1  0
  6  7  2  0
  8  6  1  0
  8  9  1  0
 10  9  1  1
 10 12  1  0
 10 11  1  0
 11  3  1  0
 12 22  1  0
 13 12  2  0
 15 14  1  0
 16 15  2  0
 17 15  1  0
 18 19  1  0
 18 17  1  0
 20 19  1  0
 21 20  1  6
 22 21  1  0
 23 25  1  0
 23 21  1  0
 24 23  2  0
M  END
$$$$
