GQR.pdb
     RDKit          3D

 25 24  0  0  1  0  0  0  0  0999 V2000
   26.9193  -21.4955  -10.7343 N   0  0  0  0  0  0  0  0  0  0  0  0
   25.7509  -20.8120  -10.1691 C   0  0  0  0  0  0  0  0  0  0  0  0
   24.5909  -20.9776  -11.0977 C   0  0  0  0  0  0  0  0  0  0  0  0
   24.7093  -21.6772  -12.1148 O   0  0  0  0  0  0  0  0  0  0  0  0
   19.4759  -22.1254  -11.9257 N   0  0  0  0  0  0  0  0  0  0  0  0
   19.7763  -22.3855  -10.5798 C   0  0  0  0  0  0  0  0  0  0  0  0
   19.3684  -23.3959   -9.9936 O   0  0  0  0  0  0  0  0  0  0  0  0
   20.6267  -21.3899   -9.8342 C   0  0  0  0  0  0  0  0  0  0  0  0
   20.9665  -20.2485  -10.7297 C   0  0  0  0  0  0  0  0  0  0  0  0
   22.1506  -20.4921  -11.5954 C   0  0  2  0  0  0  0  0  0  0  0  0
   23.3778  -20.3297  -10.7954 N   0  0  0  0  0  0  0  0  0  0  0  0
   22.2993  -19.6226  -12.7689 C   0  0  0  0  0  0  0  0  0  0  0  0
   22.3738  -18.3560  -12.5947 O   0  0  0  0  0  0  0  0  0  0  0  0
   28.7118  -18.6300  -18.0157 N   0  0  0  0  0  0  0  0  0  0  0  0
   27.7284  -17.7962  -18.6652 C   0  0  0  0  0  0  0  0  0  0  0  0
   28.0860  -16.9866  -19.5745 N   0  0  0  0  0  0  0  0  0  0  0  0
   26.3817  -17.9252  -18.2444 N   0  0  0  0  0  0  0  0  0  0  0  0
   26.0068  -18.7880  -17.1365 C   0  0  0  0  0  0  0  0  0  0  0  0
   24.5817  -18.6354  -16.7905 C   0  0  0  0  0  0  0  0  0  0  0  0
   23.9493  -19.3918  -15.7210 C   0  0  0  0  0  0  0  0  0  0  0  0
   22.5831  -19.0778  -15.2131 C   0  0  2  0  0  0  0  0  0  0  0  0
   22.3758  -20.0734  -14.0920 N   0  0  0  0  0  0  0  0  0  0  0  0
   21.4585  -19.2946  -16.1376 C   0  0  0  0  0  0  0  0  0  0  0  0
   20.7971  -20.3388  -16.1937 O   0  0  0  0  0  0  0  0  0  0  0  0
   21.0881  -18.2665  -17.0246 O   0  0  0  0  0  0  0  0  0  0  0  0
  2  1  1  0
  3  4  2  0
  3  2  1  0
  5  6  1  0
  6  7  2  0
  8  6  1  0
  8  9  1  0
 10  9  1  1
 10 12  1  0
 10 11  1  0
 11  3  1  0
 12 22  1  0
 13 12  2  0
 15 14  1  0
 16 15  2  0
 17 15  1  0
 18 19  1  0
 18 17  1  0
 20 19  1  0
 21 20  1  6
 22 21  1  0
 23 25  1  0
 23 21  1  0
 24 23  2  0
M  END
$$$$
