GQR.pdb
     RDKit          3D

 25 24  0  0  1  0  0  0  0  0999 V2000
   18.0554  -14.8596  -16.3558 N   0  0  0  0  0  0  0  0  0  0  0  0
   18.1134  -13.9264  -15.2257 C   0  0  0  0  0  0  0  0  0  0  0  0
   17.3911  -12.6696  -15.5919 C   0  0  0  0  0  0  0  0  0  0  0  0
   17.7795  -11.9927  -16.5557 O   0  0  0  0  0  0  0  0  0  0  0  0
   11.0371   -9.1184  -14.0741 N   0  0  0  0  0  0  0  0  0  0  0  0
   11.9905  -10.1441  -13.9832 C   0  0  0  0  0  0  0  0  0  0  0  0
   11.7528  -11.2213  -13.4227 O   0  0  0  0  0  0  0  0  0  0  0  0
   13.3481   -9.9114  -14.5941 C   0  0  0  0  0  0  0  0  0  0  0  0
   14.1810  -11.1385  -14.4507 C   0  0  0  0  0  0  0  0  0  0  0  0
   15.5320  -11.0261  -15.0613 C   0  0  2  0  0  0  0  0  0  0  0  0
   16.2754  -12.2772  -14.8277 N   0  0  0  0  0  0  0  0  0  0  0  0
   16.3865   -9.9359  -14.5753 C   0  0  0  0  0  0  0  0  0  0  0  0
   17.1620  -10.1548  -13.5798 O   0  0  0  0  0  0  0  0  0  0  0  0
   22.9436  -10.0469  -13.6475 N   0  0  0  0  0  0  0  0  0  0  0  0
   22.6614   -9.9660  -15.0610 C   0  0  0  0  0  0  0  0  0  0  0  0
   23.2694  -10.7285  -15.8727 N   0  0  0  0  0  0  0  0  0  0  0  0
   21.6981   -9.0160  -15.4817 N   0  0  0  0  0  0  0  0  0  0  0  0
   21.0642   -8.1042  -14.5440 C   0  0  0  0  0  0  0  0  0  0  0  0
   19.9650   -7.3538  -15.1786 C   0  0  0  0  0  0  0  0  0  0  0  0
   18.6659   -7.9480  -15.4527 C   0  0  0  0  0  0  0  0  0  0  0  0
   17.4580   -7.6554  -14.6291 C   0  0  2  0  0  0  0  0  0  0  0  0
   16.4309   -8.6498  -15.1265 N   0  0  0  0  0  0  0  0  0  0  0  0
   16.8336   -6.3337  -14.8017 C   0  0  0  0  0  0  0  0  0  0  0  0
   15.9924   -6.0712  -15.6701 O   0  0  0  0  0  0  0  0  0  0  0  0
   17.1957   -5.2829  -13.9380 O   0  0  0  0  0  0  0  0  0  0  0  0
  2  1  1  0
  3  4  2  0
  3  2  1  0
  5  6  1  0
  6  7  2  0
  8  6  1  0
  8  9  1  0
 10  9  1  1
 10 12  1  0
 10 11  1  0
 11  3  1  0
 12 22  1  0
 13 12  2  0
 15 14  1  0
 16 15  2  0
 17 15  1  0
 18 19  1  0
 18 17  1  0
 20 19  1  0
 21 20  1  6
 22 21  1  0
 23 25  1  0
 23 21  1  0
 24 23  2  0
M  END
$$$$
