GQR.pdb
     RDKit          3D

 25 24  0  0  1  0  0  0  0  0999 V2000
   23.9418  -31.6008  -10.5731 N   0  0  0  0  0  0  0  0  0  0  0  0
   23.0436  -31.0349  -11.5853 C   0  0  0  0  0  0  0  0  0  0  0  0
   23.3280  -31.6769  -12.9052 C   0  0  0  0  0  0  0  0  0  0  0  0
   24.1491  -32.6035  -12.9770 O   0  0  0  0  0  0  0  0  0  0  0  0
   20.0889  -30.7651  -17.9202 N   0  0  0  0  0  0  0  0  0  0  0  0
   20.8307  -31.8566  -18.3974 C   0  0  0  0  0  0  0  0  0  0  0  0
   20.7850  -32.2224  -19.5786 O   0  0  0  0  0  0  0  0  0  0  0  0
   21.7097  -32.6004  -17.4257 C   0  0  0  0  0  0  0  0  0  0  0  0
   21.5891  -31.9917  -16.0710 C   0  0  0  0  0  0  0  0  0  0  0  0
   22.8938  -31.7383  -15.4046 C   0  0  2  0  0  0  0  0  0  0  0  0
   22.6519  -31.2115  -14.0494 N   0  0  0  0  0  0  0  0  0  0  0  0
   23.7986  -30.7899  -16.0656 C   0  0  0  0  0  0  0  0  0  0  0  0
   23.8200  -29.5737  -15.6648 O   0  0  0  0  0  0  0  0  0  0  0  0
   31.8662  -31.9011  -16.9353 N   0  0  0  0  0  0  0  0  0  0  0  0
   30.8455  -32.5436  -17.7286 C   0  0  0  0  0  0  0  0  0  0  0  0
   31.0355  -33.7156  -18.1761 N   0  0  0  0  0  0  0  0  0  0  0  0
   29.6549  -31.8161  -17.9751 N   0  0  0  0  0  0  0  0  0  0  0  0
   29.5106  -30.4275  -17.5708 C   0  0  0  0  0  0  0  0  0  0  0  0
   28.1594  -29.9161  -17.8655 C   0  0  0  0  0  0  0  0  0  0  0  0
   26.9516  -30.5754  -17.3939 C   0  0  0  0  0  0  0  0  0  0  0  0
   25.5852  -30.0534  -17.6833 C   0  0  2  0  0  0  0  0  0  0  0  0
   24.6650  -31.1132  -17.1166 N   0  0  0  0  0  0  0  0  0  0  0  0
   25.2033  -29.9246  -19.0990 C   0  0  0  0  0  0  0  0  0  0  0  0
   25.4433  -28.9304  -19.7952 O   0  0  0  0  0  0  0  0  0  0  0  0
   24.5223  -30.9839  -19.7277 O   0  0  0  0  0  0  0  0  0  0  0  0
  2  1  1  0
  3  4  2  0
  3  2  1  0
  5  6  1  0
  6  7  2  0
  8  6  1  0
  8  9  1  0
 10  9  1  6
 10 12  1  0
 10 11  1  0
 11  3  1  0
 12 22  1  0
 13 12  2  0
 15 14  1  0
 16 15  2  0
 17 15  1  0
 18 19  1  0
 18 17  1  0
 20 19  1  0
 21 20  1  6
 22 21  1  0
 23 25  1  0
 23 21  1  0
 24 23  2  0
M  END
$$$$
