GQR.pdb
     RDKit          3D

 25 24  0  0  1  0  0  0  0  0999 V2000
   21.2774  -16.8871  -17.0836 N   0  0  0  0  0  0  0  0  0  0  0  0
   22.5244  -16.6787  -16.3400 C   0  0  0  0  0  0  0  0  0  0  0  0
   23.0367  -18.0002  -15.8641 C   0  0  0  0  0  0  0  0  0  0  0  0
   22.2378  -18.8919  -15.5407 O   0  0  0  0  0  0  0  0  0  0  0  0
   28.8047  -19.8539  -17.0520 N   0  0  0  0  0  0  0  0  0  0  0  0
   28.4353  -20.9214  -16.2193 C   0  0  0  0  0  0  0  0  0  0  0  0
   29.1727  -21.8959  -16.0256 O   0  0  0  0  0  0  0  0  0  0  0  0
   27.0896  -20.8656  -15.5438 C   0  0  0  0  0  0  0  0  0  0  0  0
   26.3966  -19.5976  -15.9075 C   0  0  0  0  0  0  0  0  0  0  0  0
   25.0382  -19.4616  -15.3186 C   0  0  2  0  0  0  0  0  0  0  0  0
   24.4279  -18.2063  -15.7921 N   0  0  0  0  0  0  0  0  0  0  0  0
   24.9541  -19.4397  -13.8532 C   0  0  0  0  0  0  0  0  0  0  0  0
   25.1949  -18.3435  -13.2362 O   0  0  0  0  0  0  0  0  0  0  0  0
   18.2496  -21.6092  -11.3114 N   0  0  0  0  0  0  0  0  0  0  0  0
   18.8917  -20.4997  -10.6475 C   0  0  0  0  0  0  0  0  0  0  0  0
   18.1930  -19.6487  -10.0170 N   0  0  0  0  0  0  0  0  0  0  0  0
   20.3032  -20.4132  -10.7363 N   0  0  0  0  0  0  0  0  0  0  0  0
   21.1531  -20.5704   -9.5678 C   0  0  0  0  0  0  0  0  0  0  0  0
   22.5719  -20.3394   -9.8962 C   0  0  0  0  0  0  0  0  0  0  0  0
   23.1022  -20.5036  -11.2407 C   0  0  0  0  0  0  0  0  0  0  0  0
   24.5557  -20.3863  -11.5517 C   0  0  2  0  0  0  0  0  0  0  0  0
   24.6177  -20.5404  -13.0562 N   0  0  0  0  0  0  0  0  0  0  0  0
   25.4416  -21.4333  -11.0175 C   0  0  0  0  0  0  0  0  0  0  0  0
   25.8842  -22.3759  -11.6858 O   0  0  0  0  0  0  0  0  0  0  0  0
   25.8278  -21.3847   -9.6649 O   0  0  0  0  0  0  0  0  0  0  0  0
  2  1  1  0
  3  4  2  0
  3  2  1  0
  5  6  1  0
  6  7  2  0
  8  6  1  0
  8  9  1  0
 10  9  1  1
 10 12  1  0
 10 11  1  0
 11  3  1  0
 12 22  1  0
 13 12  2  0
 15 14  1  0
 16 15  2  0
 17 15  1  0
 18 19  1  0
 18 17  1  0
 20 19  1  0
 21 20  1  1
 22 21  1  0
 23 25  1  0
 23 21  1  0
 24 23  2  0
M  END
$$$$
