PYT.pdb
     RDKit          3D

 27 28  0  0  1  0  0  0  0  0999 V2000
    7.1655  -14.9846   19.6388 N   0  0  0  0  0  0  0  0  0  0  0  0
    6.5748  -14.3967   18.4140 C   0  0  0  0  0  0  0  0  0  0  0  0
    6.6943  -12.9269   18.7142 C   0  0  0  0  0  0  0  0  0  0  0  0
    7.9755  -12.7750   19.4746 C   0  0  0  0  0  0  0  0  0  0  0  0
    8.3500  -14.1737   19.8631 C   0  0  1  0  0  0  0  0  0  0  0  0
    8.8003  -14.3257   21.2392 C   0  0  0  0  0  0  0  0  0  0  0  0
   10.0292  -14.2716   21.5221 O   0  0  0  0  0  0  0  0  0  0  0  0
    9.1790  -13.7933   29.9871 O   0  0  0  0  0  0  0  0  0  0  0  0
    8.7074  -13.8707   28.6645 C   0  0  0  0  0  0  0  0  0  0  0  0
    8.1655  -15.0487   28.1992 C   0  0  0  0  0  0  0  0  0  0  0  0
    7.7039  -15.1344   26.9143 C   0  0  0  0  0  0  0  0  0  0  0  0
    7.7690  -14.0644   26.0710 C   0  0  0  0  0  0  0  0  0  0  0  0
    7.2813  -14.0991   24.6590 C   0  0  0  0  0  0  0  0  0  0  0  0
    8.3308  -14.5722   23.7029 C   0  0  2  0  0  0  0  0  0  0  0  0
    7.9380  -14.5373   22.3218 N   0  0  0  0  0  0  0  0  0  0  0  0
    8.6340  -15.9890   24.0325 C   0  0  0  0  0  0  0  0  0  0  0  0
    7.7584  -16.8870   23.9458 O   0  0  0  0  0  0  0  0  0  0  0  0
    8.3099  -12.8850   26.5318 C   0  0  0  0  0  0  0  0  0  0  0  0
    8.7821  -12.7887   27.8379 C   0  0  0  0  0  0  0  0  0  0  0  0
   10.8867  -18.3819   22.4358 C   0  0  0  0  0  0  0  0  0  0  0  0
   11.3595  -18.3191   23.8724 C   0  0  1  0  0  0  0  0  0  0  0  0
   12.5213  -17.5854   23.9569 O   0  0  0  0  0  0  0  0  0  0  0  0
   10.2509  -17.8011   24.7518 C   0  0  2  0  0  0  0  0  0  0  0  0
    9.9193  -16.4204   24.4631 N   0  0  0  0  0  0  0  0  0  0  0  0
   10.5823  -17.8890   26.1879 C   0  0  0  0  0  0  0  0  0  0  0  0
   10.8230  -19.0914   26.8173 O   0  0  0  0  0  0  0  0  0  0  0  0
   10.6466  -16.8348   26.8559 O   0  0  0  0  0  0  0  0  0  0  0  0
  1  2  1  0
  3  2  1  0
  4  3  1  0
  4  5  1  0
  5  1  1  0
  5  6  1  1
  6 15  1  0
  6  7  2  0
  8  9  1  0
  9 10  2  0
 10 11  1  0
 12 11  2  0
 12 13  1  0
 14 13  1  1
 14 16  1  0
 15 14  1  0
 16 17  2  0
 18 12  1  0
 19  9  1  0
 19 18  2  0
 21 20  1  6
 21 23  1  0
 22 21  1  0
 23 25  1  0
 23 24  1  6
 24 16  1  0
 25 26  1  0
 27 25  2  0
M  END
$$$$
