PYT.pdb
     RDKit          3D

 27 28  0  0  1  0  0  0  0  0999 V2000
    7.7750  -15.3434   18.7735 N   0  0  0  0  0  0  0  0  0  0  0  0
    7.4427  -14.8921   17.4022 C   0  0  0  0  0  0  0  0  0  0  0  0
    7.4322  -13.3985   17.5858 C   0  0  0  0  0  0  0  0  0  0  0  0
    8.5086  -13.1092   18.5862 C   0  0  0  0  0  0  0  0  0  0  0  0
    8.8470  -14.4471   19.1717 C   0  0  1  0  0  0  0  0  0  0  0  0
    8.9912  -14.4611   20.6203 C   0  0  0  0  0  0  0  0  0  0  0  0
   10.1328  -14.3794   21.1525 O   0  0  0  0  0  0  0  0  0  0  0  0
    7.4086  -12.8475   29.0932 O   0  0  0  0  0  0  0  0  0  0  0  0
    7.2504  -13.0690   27.7135 C   0  0  0  0  0  0  0  0  0  0  0  0
    6.3798  -14.0411   27.2720 C   0  0  0  0  0  0  0  0  0  0  0  0
    6.2188  -14.2644   25.9320 C   0  0  0  0  0  0  0  0  0  0  0  0
    6.9107  -13.5359   25.0097 C   0  0  0  0  0  0  0  0  0  0  0  0
    6.7758  -13.7351   23.5349 C   0  0  0  0  0  0  0  0  0  0  0  0
    7.9882  -14.3710   22.9305 C   0  0  2  0  0  0  0  0  0  0  0  0
    7.9142  -14.5635   21.5091 N   0  0  0  0  0  0  0  0  0  0  0  0
    8.1440  -15.7156   23.5433 C   0  0  0  0  0  0  0  0  0  0  0  0
    7.2875  -16.6200   23.3731 O   0  0  0  0  0  0  0  0  0  0  0  0
    7.7819  -12.5633   25.4464 C   0  0  0  0  0  0  0  0  0  0  0  0
    7.9521  -12.3291   26.8082 C   0  0  0  0  0  0  0  0  0  0  0  0
   10.5642  -18.3118   22.9044 C   0  0  0  0  0  0  0  0  0  0  0  0
   10.7127  -18.0450   24.3870 C   0  0  1  0  0  0  0  0  0  0  0  0
   11.8607  -17.3236   24.6257 O   0  0  0  0  0  0  0  0  0  0  0  0
    9.4636  -17.3874   24.9142 C   0  0  2  0  0  0  0  0  0  0  0  0
    9.2588  -16.0668   24.3542 N   0  0  0  0  0  0  0  0  0  0  0  0
    9.4755  -17.2511   26.3844 C   0  0  0  0  0  0  0  0  0  0  0  0
    9.5768  -18.3385   27.2253 O   0  0  0  0  0  0  0  0  0  0  0  0
    9.3905  -16.1084   26.8831 O   0  0  0  0  0  0  0  0  0  0  0  0
  1  2  1  0
  3  2  1  0
  4  3  1  0
  4  5  1  0
  5  1  1  0
  5  6  1  1
  6 15  1  0
  6  7  2  0
  8  9  1  0
  9 10  2  0
 10 11  1  0
 12 11  2  0
 12 13  1  0
 14 13  1  1
 14 16  1  0
 15 14  1  0
 16 17  2  0
 18 12  1  0
 19  9  1  0
 19 18  2  0
 21 20  1  6
 21 23  1  0
 22 21  1  0
 23 25  1  0
 23 24  1  6
 24 16  1  0
 25 26  1  0
 27 25  2  0
M  END
$$$$
