PYT.pdb
     RDKit          3D

 27 28  0  0  1  0  0  0  0  0999 V2000
    7.2983  -15.0093   20.1735 N   0  0  0  0  0  0  0  0  0  0  0  0
    6.5383  -14.3471   19.0879 C   0  0  0  0  0  0  0  0  0  0  0  0
    6.6091  -12.9084   19.5237 C   0  0  0  0  0  0  0  0  0  0  0  0
    7.9590  -12.7447   20.1514 C   0  0  0  0  0  0  0  0  0  0  0  0
    8.4535  -14.1460   20.3499 C   0  0  1  0  0  0  0  0  0  0  0  0
    9.0673  -14.3993   21.6455 C   0  0  0  0  0  0  0  0  0  0  0  0
   10.3200  -14.5111   21.7514 O   0  0  0  0  0  0  0  0  0  0  0  0
   10.6220  -14.9732   30.2836 O   0  0  0  0  0  0  0  0  0  0  0  0
    9.9764  -14.8392   29.0415 C   0  0  0  0  0  0  0  0  0  0  0  0
    9.2965  -15.9102   28.5047 C   0  0  0  0  0  0  0  0  0  0  0  0
    8.6651  -15.7902   27.2971 C   0  0  0  0  0  0  0  0  0  0  0  0
    8.6940  -14.6170   26.6022 C   0  0  0  0  0  0  0  0  0  0  0  0
    8.0237  -14.4272   25.2803 C   0  0  0  0  0  0  0  0  0  0  0  0
    8.9136  -14.7843   24.1313 C   0  0  2  0  0  0  0  0  0  0  0  0
    8.3439  -14.5354   22.8366 N   0  0  0  0  0  0  0  0  0  0  0  0
    9.1890  -16.2422   24.2116 C   0  0  0  0  0  0  0  0  0  0  0  0
    8.2645  -17.0915   24.1452 O   0  0  0  0  0  0  0  0  0  0  0  0
    9.3724  -13.5438   27.1349 C   0  0  0  0  0  0  0  0  0  0  0  0
   10.0178  -13.6569   28.3633 C   0  0  0  0  0  0  0  0  0  0  0  0
   10.9710  -18.5149   21.9950 C   0  0  0  0  0  0  0  0  0  0  0  0
   11.6969  -18.6394   23.3175 C   0  0  1  0  0  0  0  0  0  0  0  0
   12.8963  -17.9657   23.2647 O   0  0  0  0  0  0  0  0  0  0  0  0
   10.7967  -18.1864   24.4378 C   0  0  2  0  0  0  0  0  0  0  0  0
   10.5010  -16.7697   24.3672 N   0  0  0  0  0  0  0  0  0  0  0  0
   11.3746  -18.4552   25.7696 C   0  0  0  0  0  0  0  0  0  0  0  0
   11.6648  -17.4481   26.6648 O   0  0  0  0  0  0  0  0  0  0  0  0
   11.6087  -19.6386   26.0959 O   0  0  0  0  0  0  0  0  0  0  0  0
  1  2  1  0
  3  2  1  0
  4  3  1  0
  4  5  1  0
  5  1  1  0
  5  6  1  1
  6 15  1  0
  6  7  2  0
  8  9  1  0
  9 10  2  0
 10 11  1  0
 12 11  2  0
 12 13  1  0
 14 13  1  1
 14 16  1  0
 15 14  1  0
 16 17  2  0
 18 12  1  0
 19  9  1  0
 19 18  2  0
 21 20  1  6
 21 23  1  0
 22 21  1  0
 23 25  1  0
 23 24  1  6
 24 16  1  0
 25 26  1  0
 27 25  2  0
M  END
$$$$
