PYT.pdb
     RDKit          3D

 27 28  0  0  1  0  0  0  0  0999 V2000
    7.1635  -14.9828   20.3852 N   0  0  0  0  0  0  0  0  0  0  0  0
    6.4735  -14.3577   19.2329 C   0  0  0  0  0  0  0  0  0  0  0  0
    6.9103  -12.9250   19.3790 C   0  0  0  0  0  0  0  0  0  0  0  0
    8.3157  -12.9839   19.8930 C   0  0  0  0  0  0  0  0  0  0  0  0
    8.4959  -14.4060   20.3322 C   0  0  1  0  0  0  0  0  0  0  0  0
    9.1571  -14.5688   21.6190 C   0  0  0  0  0  0  0  0  0  0  0  0
   10.4069  -14.4251   21.7212 O   0  0  0  0  0  0  0  0  0  0  0  0
   10.7890  -15.1151   30.2598 O   0  0  0  0  0  0  0  0  0  0  0  0
   10.1369  -15.0437   29.0159 C   0  0  0  0  0  0  0  0  0  0  0  0
   10.0967  -13.8486   28.3320 C   0  0  0  0  0  0  0  0  0  0  0  0
    9.4649  -13.7685   27.1214 C   0  0  0  0  0  0  0  0  0  0  0  0
    8.8650  -14.8611   26.5679 C   0  0  0  0  0  0  0  0  0  0  0  0
    8.1608  -14.8337   25.2502 C   0  0  0  0  0  0  0  0  0  0  0  0
    9.0968  -15.0206   24.0976 C   0  0  2  0  0  0  0  0  0  0  0  0
    8.4847  -14.8871   22.8052 N   0  0  0  0  0  0  0  0  0  0  0  0
    9.6418  -16.4005   24.1796 C   0  0  0  0  0  0  0  0  0  0  0  0
    8.8882  -17.4069   24.1823 O   0  0  0  0  0  0  0  0  0  0  0  0
    8.9026  -16.0578   27.2478 C   0  0  0  0  0  0  0  0  0  0  0  0
    9.5434  -16.1485   28.4805 C   0  0  0  0  0  0  0  0  0  0  0  0
   12.0646  -17.9716   21.7854 C   0  0  0  0  0  0  0  0  0  0  0  0
   12.6722  -18.1378   23.1618 C   0  0  1  0  0  0  0  0  0  0  0  0
   13.7179  -17.2578   23.3271 O   0  0  0  0  0  0  0  0  0  0  0  0
   11.5994  -18.0075   24.2118 C   0  0  2  0  0  0  0  0  0  0  0  0
   11.0355  -16.6735   24.2596 N   0  0  0  0  0  0  0  0  0  0  0  0
   12.0924  -18.3317   25.5653 C   0  0  0  0  0  0  0  0  0  0  0  0
   12.1236  -17.4011   26.5816 O   0  0  0  0  0  0  0  0  0  0  0  0
   12.4957  -19.4916   25.7966 O   0  0  0  0  0  0  0  0  0  0  0  0
  1  2  1  0
  3  2  1  0
  4  3  1  0
  4  5  1  0
  5  1  1  0
  5  6  1  1
  6 15  1  0
  6  7  2  0
  8  9  1  0
  9 10  2  0
 10 11  1  0
 12 11  2  0
 12 13  1  0
 14 13  1  1
 14 16  1  0
 15 14  1  0
 16 17  2  0
 18 12  1  0
 19  9  1  0
 19 18  2  0
 21 20  1  6
 21 23  1  0
 22 21  1  0
 23 25  1  0
 23 24  1  1
 24 16  1  0
 25 26  1  0
 27 25  2  0
M  END
$$$$
