PYT.pdb
     RDKit          3D

 27 28  0  0  1  0  0  0  0  0999 V2000
    7.0506  -18.9029   20.2637 N   0  0  0  0  0  0  0  0  0  0  0  0
    6.3408  -19.2718   19.0168 C   0  0  0  0  0  0  0  0  0  0  0  0
    6.8565  -18.2211   18.0709 C   0  0  0  0  0  0  0  0  0  0  0  0
    8.2793  -17.9823   18.4726 C   0  0  0  0  0  0  0  0  0  0  0  0
    8.4068  -18.6409   19.8133 C   0  0  1  0  0  0  0  0  0  0  0  0
    9.1177  -17.8575   20.8136 C   0  0  0  0  0  0  0  0  0  0  0  0
   10.3722  -17.7310   20.7571 O   0  0  0  0  0  0  0  0  0  0  0  0
    7.5078  -12.0357   18.2745 O   0  0  0  0  0  0  0  0  0  0  0  0
    7.7216  -12.7755   19.4513 C   0  0  0  0  0  0  0  0  0  0  0  0
    8.9876  -12.8557   19.9884 C   0  0  0  0  0  0  0  0  0  0  0  0
    9.2062  -13.5728   21.1327 C   0  0  0  0  0  0  0  0  0  0  0  0
    8.1842  -14.2196   21.7631 C   0  0  0  0  0  0  0  0  0  0  0  0
    8.3628  -15.0169   23.0142 C   0  0  0  0  0  0  0  0  0  0  0  0
    9.1257  -16.2831   22.7814 C   0  0  2  0  0  0  0  0  0  0  0  0
    8.4902  -17.2047   21.8815 N   0  0  0  0  0  0  0  0  0  0  0  0
    9.2589  -16.9752   24.0894 C   0  0  0  0  0  0  0  0  0  0  0  0
    8.2565  -17.4211   24.7034 O   0  0  0  0  0  0  0  0  0  0  0  0
    6.9172  -14.1421   21.2298 C   0  0  0  0  0  0  0  0  0  0  0  0
    6.6855  -13.4146   20.0656 C   0  0  0  0  0  0  0  0  0  0  0  0
   12.1301  -20.1920   26.3215 C   0  0  0  0  0  0  0  0  0  0  0  0
   11.8447  -19.1780   25.2344 C   0  0  1  0  0  0  0  0  0  0  0  0
   11.5513  -19.8205   24.0528 O   0  0  0  0  0  0  0  0  0  0  0  0
   10.7667  -18.2298   25.6920 C   0  0  2  0  0  0  0  0  0  0  0  0
   10.5137  -17.1780   24.7280 N   0  0  0  0  0  0  0  0  0  0  0  0
   11.0918  -17.5853   26.9800 C   0  0  0  0  0  0  0  0  0  0  0  0
   11.0758  -18.2735   28.1741 O   0  0  0  0  0  0  0  0  0  0  0  0
   11.3921  -16.3723   26.9865 O   0  0  0  0  0  0  0  0  0  0  0  0
  1  2  1  0
  3  2  1  0
  4  3  1  0
  4  5  1  0
  5  1  1  0
  5  6  1  1
  6 15  1  0
  6  7  2  0
  8  9  1  0
  9 10  2  0
 10 11  1  0
 12 11  2  0
 12 13  1  0
 14 13  1  1
 14 16  1  0
 15 14  1  0
 16 17  2  0
 18 12  1  0
 19  9  1  0
 19 18  2  0
 21 20  1  1
 21 23  1  0
 22 21  1  0
 23 25  1  0
 23 24  1  6
 24 16  1  0
 25 26  1  0
 27 25  2  0
M  END
$$$$
