PYT.pdb
     RDKit          3D

 27 28  0  0  1  0  0  0  0  0999 V2000
    7.4589  -15.0710   20.1954 N   0  0  0  0  0  0  0  0  0  0  0  0
    7.0380  -14.4305   18.9276 C   0  0  0  0  0  0  0  0  0  0  0  0
    7.2766  -12.9791   19.2458 C   0  0  0  0  0  0  0  0  0  0  0  0
    8.4959  -12.9536   20.1150 C   0  0  0  0  0  0  0  0  0  0  0  0
    8.6944  -14.3816   20.5260 C   0  0  1  0  0  0  0  0  0  0  0  0
    9.0064  -14.5740   21.9350 C   0  0  0  0  0  0  0  0  0  0  0  0
   10.0628  -14.0922   22.4300 O   0  0  0  0  0  0  0  0  0  0  0  0
    6.5886  -10.3124   27.3692 O   0  0  0  0  0  0  0  0  0  0  0  0
    6.7586  -11.5903   26.8073 C   0  0  0  0  0  0  0  0  0  0  0  0
    5.8038  -12.0940   25.9515 C   0  0  0  0  0  0  0  0  0  0  0  0
    5.9597  -13.3359   25.3997 C   0  0  0  0  0  0  0  0  0  0  0  0
    7.0550  -14.0981   25.6816 C   0  0  0  0  0  0  0  0  0  0  0  0
    7.2789  -15.4601   25.1093 C   0  0  0  0  0  0  0  0  0  0  0  0
    8.4755  -15.5139   24.2122 C   0  0  2  0  0  0  0  0  0  0  0  0
    8.1899  -15.2842   22.8235 N   0  0  0  0  0  0  0  0  0  0  0  0
    9.0551  -16.8781   24.3165 C   0  0  0  0  0  0  0  0  0  0  0  0
    8.3538  -17.9066   24.1412 O   0  0  0  0  0  0  0  0  0  0  0  0
    8.0119  -13.5987   26.5365 C   0  0  0  0  0  0  0  0  0  0  0  0
    7.8616  -12.3358   27.1027 C   0  0  0  0  0  0  0  0  0  0  0  0
   12.3319  -18.1471   22.6125 C   0  0  0  0  0  0  0  0  0  0  0  0
   12.4055  -18.4635   24.0909 C   0  0  1  0  0  0  0  0  0  0  0  0
   13.2985  -17.6196   24.7119 O   0  0  0  0  0  0  0  0  0  0  0  0
   11.0230  -18.4286   24.6892 C   0  0  2  0  0  0  0  0  0  0  0  0
   10.4258  -17.1104   24.6179 N   0  0  0  0  0  0  0  0  0  0  0  0
   11.0103  -18.8478   26.1049 C   0  0  0  0  0  0  0  0  0  0  0  0
   11.4943  -20.0710   26.5165 O   0  0  0  0  0  0  0  0  0  0  0  0
   10.5438  -18.0647   26.9598 O   0  0  0  0  0  0  0  0  0  0  0  0
  1  2  1  0
  3  2  1  0
  4  3  1  0
  4  5  1  0
  5  1  1  0
  5  6  1  1
  6 15  1  0
  6  7  2  0
  8  9  1  0
  9 10  2  0
 10 11  1  0
 12 11  2  0
 12 13  1  0
 14 13  1  1
 14 16  1  0
 15 14  1  0
 16 17  2  0
 18 12  1  0
 19  9  1  0
 19 18  2  0
 21 20  1  6
 21 23  1  0
 22 21  1  0
 23 25  1  0
 23 24  1  1
 24 16  1  0
 25 26  1  0
 27 25  2  0
M  END
$$$$
