PYT.pdb
     RDKit          3D

 27 28  0  0  1  0  0  0  0  0999 V2000
    7.0550  -14.8963   20.4579 N   0  0  0  0  0  0  0  0  0  0  0  0
    6.3789  -14.2281   19.3217 C   0  0  0  0  0  0  0  0  0  0  0  0
    6.7750  -12.7950   19.5542 C   0  0  0  0  0  0  0  0  0  0  0  0
    8.1678  -12.8469   20.1021 C   0  0  0  0  0  0  0  0  0  0  0  0
    8.3731  -14.2854   20.4710 C   0  0  1  0  0  0  0  0  0  0  0  0
    9.0051  -14.5000   21.7649 C   0  0  0  0  0  0  0  0  0  0  0  0
   10.2613  -14.4575   21.8805 O   0  0  0  0  0  0  0  0  0  0  0  0
   10.6488  -14.8526   30.3787 O   0  0  0  0  0  0  0  0  0  0  0  0
    9.9910  -14.7743   29.1381 C   0  0  0  0  0  0  0  0  0  0  0  0
    9.9771  -13.5840   28.4450 C   0  0  0  0  0  0  0  0  0  0  0  0
    9.3401  -13.4973   27.2375 C   0  0  0  0  0  0  0  0  0  0  0  0
    8.7092  -14.5786   26.6963 C   0  0  0  0  0  0  0  0  0  0  0  0
    7.9979  -14.5435   25.3827 C   0  0  0  0  0  0  0  0  0  0  0  0
    8.8818  -14.9420   24.2429 C   0  0  2  0  0  0  0  0  0  0  0  0
    8.2965  -14.7621   22.9437 N   0  0  0  0  0  0  0  0  0  0  0  0
    9.1787  -16.3906   24.3886 C   0  0  0  0  0  0  0  0  0  0  0  0
    8.2651  -17.2542   24.3779 O   0  0  0  0  0  0  0  0  0  0  0  0
    8.7205  -15.7704   27.3856 C   0  0  0  0  0  0  0  0  0  0  0  0
    9.3663  -15.8678   28.6151 C   0  0  0  0  0  0  0  0  0  0  0  0
   10.9794  -18.7081   22.2138 C   0  0  0  0  0  0  0  0  0  0  0  0
   11.7232  -18.7627   23.5310 C   0  0  1  0  0  0  0  0  0  0  0  0
   12.8982  -18.0510   23.4413 O   0  0  0  0  0  0  0  0  0  0  0  0
   10.8200  -18.3025   24.6459 C   0  0  2  0  0  0  0  0  0  0  0  0
   10.5001  -16.8927   24.5483 N   0  0  0  0  0  0  0  0  0  0  0  0
   11.4079  -18.5347   25.9804 C   0  0  0  0  0  0  0  0  0  0  0  0
   11.7440  -19.7937   26.4295 O   0  0  0  0  0  0  0  0  0  0  0  0
   11.6073  -17.5539   26.7286 O   0  0  0  0  0  0  0  0  0  0  0  0
  1  2  1  0
  3  2  1  0
  4  3  1  0
  4  5  1  0
  5  1  1  0
  5  6  1  1
  6 15  1  0
  6  7  2  0
  8  9  1  0
  9 10  2  0
 10 11  1  0
 12 11  2  0
 12 13  1  0
 14 13  1  1
 14 16  1  0
 15 14  1  0
 16 17  2  0
 18 12  1  0
 19  9  1  0
 19 18  2  0
 21 20  1  6
 21 23  1  0
 22 21  1  0
 23 25  1  0
 23 24  1  6
 24 16  1  0
 25 26  1  0
 27 25  2  0
M  END
$$$$
