PYT.pdb
     RDKit          3D

 27 28  0  0  1  0  0  0  0  0999 V2000
    7.7687  -15.3882   19.0469 N   0  0  0  0  0  0  0  0  0  0  0  0
    7.3305  -14.9878   17.6896 C   0  0  0  0  0  0  0  0  0  0  0  0
    7.1015  -13.5133   17.8849 C   0  0  0  0  0  0  0  0  0  0  0  0
    8.1524  -13.0686   18.8548 C   0  0  0  0  0  0  0  0  0  0  0  0
    8.7056  -14.3423   19.4197 C   0  0  1  0  0  0  0  0  0  0  0  0
    8.8947  -14.3389   20.8632 C   0  0  0  0  0  0  0  0  0  0  0  0
   10.0550  -14.2997   21.3585 O   0  0  0  0  0  0  0  0  0  0  0  0
    7.7058  -13.4607   29.5286 O   0  0  0  0  0  0  0  0  0  0  0  0
    7.4884  -13.5251   28.1406 C   0  0  0  0  0  0  0  0  0  0  0  0
    6.6902  -14.5191   27.6185 C   0  0  0  0  0  0  0  0  0  0  0  0
    6.4724  -14.5905   26.2699 C   0  0  0  0  0  0  0  0  0  0  0  0
    7.0358  -13.6867   25.4180 C   0  0  0  0  0  0  0  0  0  0  0  0
    6.8337  -13.7149   23.9377 C   0  0  0  0  0  0  0  0  0  0  0  0
    7.9881  -14.3346   23.2147 C   0  0  2  0  0  0  0  0  0  0  0  0
    7.8427  -14.3780   21.7864 N   0  0  0  0  0  0  0  0  0  0  0  0
    8.1097  -15.7399   23.6818 C   0  0  0  0  0  0  0  0  0  0  0  0
    7.1918  -16.5781   23.4932 O   0  0  0  0  0  0  0  0  0  0  0  0
    7.8342  -12.6914   25.9354 C   0  0  0  0  0  0  0  0  0  0  0  0
    8.0614  -12.6111   27.3066 C   0  0  0  0  0  0  0  0  0  0  0  0
   10.1415  -18.3409   22.4845 C   0  0  0  0  0  0  0  0  0  0  0  0
   10.5370  -18.2797   23.9444 C   0  0  1  0  0  0  0  0  0  0  0  0
   11.7664  -17.6746   24.0769 O   0  0  0  0  0  0  0  0  0  0  0  0
    9.4451  -17.6135   24.7409 C   0  0  2  0  0  0  0  0  0  0  0  0
    9.2583  -16.2265   24.3654 N   0  0  0  0  0  0  0  0  0  0  0  0
    9.7039  -17.6509   26.1941 C   0  0  0  0  0  0  0  0  0  0  0  0
    9.8624  -16.5058   26.9448 O   0  0  0  0  0  0  0  0  0  0  0  0
    9.7819  -18.7609   26.7627 O   0  0  0  0  0  0  0  0  0  0  0  0
  1  2  1  0
  3  2  1  0
  4  3  1  0
  4  5  1  0
  5  1  1  0
  5  6  1  1
  6 15  1  0
  6  7  2  0
  8  9  1  0
  9 10  2  0
 10 11  1  0
 12 11  2  0
 12 13  1  0
 14 13  1  1
 14 16  1  0
 15 14  1  0
 16 17  2  0
 18 12  1  0
 19  9  1  0
 19 18  2  0
 21 20  1  6
 21 23  1  0
 22 21  1  0
 23 25  1  0
 23 24  1  6
 24 16  1  0
 25 26  1  0
 27 25  2  0
M  END
$$$$
