MWA.pdb
     RDKit          3D

 28 29  0  0  1  0  0  0  0  0999 V2000
   22.8881  -14.3836  -20.4628 C   0  0  0  0  0  0  0  0  0  0  0  0
   22.7749  -15.8812  -19.4896 S   0  0  0  0  0  0  0  0  0  0  0  0
   24.2780  -16.7580  -19.1734 C   0  0  0  0  0  0  0  0  0  0  0  0
   24.2175  -18.0124  -18.3842 C   0  0  0  0  0  0  0  0  0  0  0  0
   25.4754  -18.4483  -17.7639 C   0  0  2  0  0  0  0  0  0  0  0  0
   26.3604  -19.0532  -18.7165 N   0  0  0  0  0  0  0  0  0  0  0  0
   25.2765  -19.4344  -16.6604 C   0  0  0  0  0  0  0  0  0  0  0  0
   24.8476  -20.5993  -16.8639 O   0  0  0  0  0  0  0  0  0  0  0  0
   25.5901  -19.0242  -15.3277 N   0  0  0  0  0  0  0  0  0  0  0  0
   25.4029  -19.9312  -14.2082 C   0  0  1  0  0  0  0  0  0  0  0  0
   26.2406  -19.4656  -13.0116 C   0  0  0  0  0  0  0  0  0  0  0  0
   26.1686  -20.4365  -11.8987 C   0  0  0  0  0  0  0  0  0  0  0  0
   26.1441  -21.8102  -12.0069 C   0  0  0  0  0  0  0  0  0  0  0  0
   26.0727  -22.3547  -10.7588 N   0  0  0  0  0  0  0  0  0  0  0  0
   26.0509  -21.3497   -9.8514 C   0  0  0  0  0  0  0  0  0  0  0  0
   25.9847  -21.3505   -8.4760 C   0  0  0  0  0  0  0  0  0  0  0  0
   25.9763  -20.1618   -7.7691 C   0  0  0  0  0  0  0  0  0  0  0  0
   26.0342  -18.9564   -8.4361 C   0  0  0  0  0  0  0  0  0  0  0  0
   26.0996  -18.9852   -9.8087 C   0  0  0  0  0  0  0  0  0  0  0  0
   26.1105  -20.1464  -10.5535 C   0  0  0  0  0  0  0  0  0  0  0  0
   23.9796  -19.8553  -13.7865 C   0  0  0  0  0  0  0  0  0  0  0  0
   23.4513  -18.7073  -13.5904 O   0  0  0  0  0  0  0  0  0  0  0  0
   20.9652  -21.9955  -13.6603 C   0  0  0  0  0  0  0  0  0  0  0  0
   21.7834  -20.8038  -13.1450 C   0  0  2  0  0  0  0  0  0  0  0  0
   23.1581  -20.9969  -13.5849 N   0  0  0  0  0  0  0  0  0  0  0  0
   21.7063  -20.6761  -11.6886 C   0  0  0  0  0  0  0  0  0  0  0  0
   22.6832  -21.0122  -10.9825 O   0  0  0  0  0  0  0  0  0  0  0  0
   20.5728  -20.1897  -11.0682 O   0  0  0  0  0  0  0  0  0  0  0  0
  1  2  1  0
  3  2  1  0
  4  3  1  0
  5  4  1  0
  5  6  1  6
  7  5  1  0
  8  7  2  0
  9  7  1  0
 10  9  1  0
 10 11  1  1
 11 12  1  0
 12 20  1  0
 12 13  2  0
 13 14  1  0
 15 16  2  0
 15 14  1  0
 17 16  1  0
 18 17  2  0
 19 18  1  0
 19 20  2  0
 20 15  1  0
 21 22  2  0
 21 10  1  0
 24 23  1  1
 24 25  1  0
 25 21  1  0
 26 24  1  0
 27 26  2  0
 28 26  1  0
M  END
$$$$
