MWA.pdb
     RDKit          3D

 28 29  0  0  1  0  0  0  0  0999 V2000
   28.3857  -19.4374  -17.8594 C   0  0  0  0  0  0  0  0  0  0  0  0
   27.9790  -21.1404  -18.2300 S   0  0  0  0  0  0  0  0  0  0  0  0
   28.4890  -22.3679  -17.0633 C   0  0  0  0  0  0  0  0  0  0  0  0
   27.7236  -22.5112  -15.8009 C   0  0  0  0  0  0  0  0  0  0  0  0
   27.7871  -21.3747  -14.8728 C   0  0  2  0  0  0  0  0  0  0  0  0
   29.1388  -21.0319  -14.5382 N   0  0  0  0  0  0  0  0  0  0  0  0
   27.0655  -21.6223  -13.5891 C   0  0  0  0  0  0  0  0  0  0  0  0
   26.0519  -22.3636  -13.5155 O   0  0  0  0  0  0  0  0  0  0  0  0
   27.5576  -20.9858  -12.4078 N   0  0  0  0  0  0  0  0  0  0  0  0
   26.8370  -21.0943  -11.1509 C   0  0  1  0  0  0  0  0  0  0  0  0
   27.6157  -20.3834  -10.0380 C   0  0  0  0  0  0  0  0  0  0  0  0
   26.8496  -20.3716   -8.7733 C   0  0  0  0  0  0  0  0  0  0  0  0
   25.5043  -20.6315   -8.6249 C   0  0  0  0  0  0  0  0  0  0  0  0
   25.1711  -20.5199   -7.3074 N   0  0  0  0  0  0  0  0  0  0  0  0
   26.2837  -20.1920   -6.6084 C   0  0  0  0  0  0  0  0  0  0  0  0
   26.4960  -19.9632   -5.2673 C   0  0  0  0  0  0  0  0  0  0  0  0
   27.7551  -19.6361   -4.7978 C   0  0  0  0  0  0  0  0  0  0  0  0
   28.8175  -19.5347   -5.6708 C   0  0  0  0  0  0  0  0  0  0  0  0
   28.5770  -19.7682   -7.0037 C   0  0  0  0  0  0  0  0  0  0  0  0
   27.3387  -20.0968   -7.5153 C   0  0  0  0  0  0  0  0  0  0  0  0
   25.5463  -20.3715  -11.2957 C   0  0  0  0  0  0  0  0  0  0  0  0
   25.5546  -19.0942  -11.3601 O   0  0  0  0  0  0  0  0  0  0  0  0
   22.6378  -20.4617  -13.0364 C   0  0  0  0  0  0  0  0  0  0  0  0
   23.0919  -20.2179  -11.5909 C   0  0  2  0  0  0  0  0  0  0  0  0
   24.2852  -21.0222  -11.3680 N   0  0  0  0  0  0  0  0  0  0  0  0
   22.0425  -20.5482  -10.6248 C   0  0  0  0  0  0  0  0  0  0  0  0
   21.0449  -19.8014  -10.5109 O   0  0  0  0  0  0  0  0  0  0  0  0
   22.1262  -21.6730   -9.8285 O   0  0  0  0  0  0  0  0  0  0  0  0
  1  2  1  0
  3  2  1  0
  4  3  1  0
  5  4  1  0
  5  6  1  1
  7  5  1  0
  8  7  2  0
  9  7  1  0
 10  9  1  0
 10 11  1  1
 11 12  1  0
 12 20  1  0
 12 13  2  0
 13 14  1  0
 15 16  2  0
 15 14  1  0
 17 16  1  0
 18 17  2  0
 19 18  1  0
 19 20  2  0
 20 15  1  0
 21 22  2  0
 21 10  1  0
 24 23  1  6
 24 25  1  0
 25 21  1  0
 26 24  1  0
 27 26  2  0
 28 26  1  0
M  END
$$$$
