MWA.pdb
     RDKit          3D

 28 29  0  0  1  0  0  0  0  0999 V2000
   21.1689  -18.6679  -14.5989 C   0  0  0  0  0  0  0  0  0  0  0  0
   22.6862  -18.2809  -15.4657 S   0  0  0  0  0  0  0  0  0  0  0  0
   24.1887  -18.9365  -14.8018 C   0  0  0  0  0  0  0  0  0  0  0  0
   24.1169  -19.8069  -13.6030 C   0  0  0  0  0  0  0  0  0  0  0  0
   25.3980  -20.1382  -12.9658 C   0  0  2  0  0  0  0  0  0  0  0  0
   26.2505  -20.8922  -13.8384 N   0  0  0  0  0  0  0  0  0  0  0  0
   25.2428  -20.9306  -11.7097 C   0  0  0  0  0  0  0  0  0  0  0  0
   25.1513  -22.1852  -11.7089 O   0  0  0  0  0  0  0  0  0  0  0  0
   25.1985  -20.2223  -10.4692 N   0  0  0  0  0  0  0  0  0  0  0  0
   25.0559  -20.9357   -9.2115 C   0  0  1  0  0  0  0  0  0  0  0  0
   25.6482  -20.1041   -8.0679 C   0  0  0  0  0  0  0  0  0  0  0  0
   27.0966  -20.3596   -7.9159 C   0  0  0  0  0  0  0  0  0  0  0  0
   27.8996  -21.0758   -8.7770 C   0  0  0  0  0  0  0  0  0  0  0  0
   29.1737  -21.0895   -8.2914 N   0  0  0  0  0  0  0  0  0  0  0  0
   29.1994  -20.3921   -7.1309 C   0  0  0  0  0  0  0  0  0  0  0  0
   30.2183  -20.1049   -6.2502 C   0  0  0  0  0  0  0  0  0  0  0  0
   29.9775  -19.3569   -5.1121 C   0  0  0  0  0  0  0  0  0  0  0  0
   28.7088  -18.8879   -4.8445 C   0  0  0  0  0  0  0  0  0  0  0  0
   27.7111  -19.1895   -5.7404 C   0  0  0  0  0  0  0  0  0  0  0  0
   27.9061  -19.9315   -6.8869 C   0  0  0  0  0  0  0  0  0  0  0  0
   23.6044  -21.0798   -8.9254 C   0  0  0  0  0  0  0  0  0  0  0  0
   22.8520  -20.0485   -9.0010 O   0  0  0  0  0  0  0  0  0  0  0  0
   21.4391  -21.3929   -6.9695 C   0  0  0  0  0  0  0  0  0  0  0  0
   21.5866  -22.3130   -8.1888 C   0  0  2  0  0  0  0  0  0  0  0  0
   22.9928  -22.3114   -8.5677 N   0  0  0  0  0  0  0  0  0  0  0  0
   20.7375  -21.8860   -9.3024 C   0  0  0  0  0  0  0  0  0  0  0  0
   21.2615  -21.4982  -10.3706 O   0  0  0  0  0  0  0  0  0  0  0  0
   19.3604  -21.9004   -9.2035 O   0  0  0  0  0  0  0  0  0  0  0  0
  1  2  1  0
  3  2  1  0
  4  3  1  0
  5  4  1  0
  5  6  1  6
  7  5  1  0
  8  7  2  0
  9  7  1  0
 10  9  1  0
 10 11  1  1
 11 12  1  0
 12 20  1  0
 12 13  2  0
 13 14  1  0
 15 16  2  0
 15 14  1  0
 17 16  1  0
 18 17  2  0
 19 18  1  0
 19 20  2  0
 20 15  1  0
 21 22  2  0
 21 10  1  0
 24 23  1  1
 24 25  1  0
 25 21  1  0
 26 24  1  0
 27 26  2  0
 28 26  1  0
M  END
$$$$
