MWA.pdb
     RDKit          3D

 28 29  0  0  1  0  0  0  0  0999 V2000
   28.8198  -18.6844   -6.2452 C   0  0  0  0  0  0  0  0  0  0  0  0
   28.8982  -19.9567   -7.5014 S   0  0  0  0  0  0  0  0  0  0  0  0
   27.4238  -20.8839   -7.8092 C   0  0  0  0  0  0  0  0  0  0  0  0
   26.3980  -20.3097   -8.7136 C   0  0  0  0  0  0  0  0  0  0  0  0
   26.0543  -21.1121   -9.8948 C   0  0  2  0  0  0  0  0  0  0  0  0
   27.2033  -21.3870  -10.7077 N   0  0  0  0  0  0  0  0  0  0  0  0
   25.0393  -20.4595  -10.7743 C   0  0  0  0  0  0  0  0  0  0  0  0
   24.1890  -19.6432  -10.3351 O   0  0  0  0  0  0  0  0  0  0  0  0
   25.0471  -20.7849  -12.1660 N   0  0  0  0  0  0  0  0  0  0  0  0
   24.1313  -20.1326  -13.0862 C   0  0  1  0  0  0  0  0  0  0  0  0
   24.5560  -20.4109  -14.5327 C   0  0  0  0  0  0  0  0  0  0  0  0
   23.7337  -19.6392  -15.4891 C   0  0  0  0  0  0  0  0  0  0  0  0
   23.2890  -18.3442  -15.3324 C   0  0  0  0  0  0  0  0  0  0  0  0
   22.5593  -17.9875  -16.4276 N   0  0  0  0  0  0  0  0  0  0  0  0
   22.5295  -19.0355  -17.2848 C   0  0  0  0  0  0  0  0  0  0  0  0
   21.9392  -19.2017  -18.5177 C   0  0  0  0  0  0  0  0  0  0  0  0
   22.0609  -20.3968  -19.2031 C   0  0  0  0  0  0  0  0  0  0  0  0
   22.7777  -21.4407  -18.6576 C   0  0  0  0  0  0  0  0  0  0  0  0
   23.3561  -21.2472  -17.4259 C   0  0  0  0  0  0  0  0  0  0  0  0
   23.2606  -20.0732  -16.7078 C   0  0  0  0  0  0  0  0  0  0  0  0
   22.7883  -20.7453  -12.9116 C   0  0  0  0  0  0  0  0  0  0  0  0
   22.7024  -22.0065  -12.7181 O   0  0  0  0  0  0  0  0  0  0  0  0
   19.3400  -19.7150  -12.0948 C   0  0  0  0  0  0  0  0  0  0  0  0
   20.3178  -20.7071  -12.7389 C   0  0  2  0  0  0  0  0  0  0  0  0
   21.5763  -20.0046  -12.9473 N   0  0  0  0  0  0  0  0  0  0  0  0
   19.7988  -21.2485  -13.9962 C   0  0  0  0  0  0  0  0  0  0  0  0
   20.2813  -20.8639  -15.0849 O   0  0  0  0  0  0  0  0  0  0  0  0
   18.7811  -22.1815  -14.0119 O   0  0  0  0  0  0  0  0  0  0  0  0
  1  2  1  0
  3  2  1  0
  4  3  1  0
  5  4  1  0
  5  6  1  6
  7  5  1  0
  8  7  2  0
  9  7  1  0
 10  9  1  0
 10 11  1  6
 11 12  1  0
 12 20  1  0
 12 13  2  0
 13 14  1  0
 15 16  2  0
 15 14  1  0
 17 16  1  0
 18 17  2  0
 19 18  1  0
 19 20  2  0
 20 15  1  0
 21 22  2  0
 21 10  1  0
 24 23  1  6
 24 25  1  0
 25 21  1  0
 26 24  1  0
 27 26  2  0
 28 26  1  0
M  END
$$$$
