HLL.pdb
     RDKit          3D

 27 27  0  0  1  0  0  0  0  0999 V2000
   22.8860  -22.2109  -16.6408 N   0  0  0  0  0  0  0  0  0  0  0  0
   23.0883  -21.1961  -15.6489 C   0  0  1  0  0  0  0  0  0  0  0  0
   21.8394  -20.9942  -14.7854 C   0  0  0  0  0  0  0  0  0  0  0  0
   20.8318  -20.2756  -15.5721 C   0  0  0  0  0  0  0  0  0  0  0  0
   19.7841  -20.8106  -16.2540 C   0  0  0  0  0  0  0  0  0  0  0  0
   19.1356  -19.7640  -16.8224 N   0  0  0  0  0  0  0  0  0  0  0  0
   19.7509  -18.6101  -16.5110 C   0  0  0  0  0  0  0  0  0  0  0  0
   20.8043  -18.9230  -15.7351 N   0  0  0  0  0  0  0  0  0  0  0  0
   24.1681  -21.6149  -14.7407 C   0  0  0  0  0  0  0  0  0  0  0  0
   24.3436  -22.8454  -14.4855 O   0  0  0  0  0  0  0  0  0  0  0  0
   29.0384  -21.7546  -13.3370 C   0  0  0  0  0  0  0  0  0  0  0  0
   28.4115  -20.6059  -12.5754 C   0  0  1  0  0  0  0  0  0  0  0  0
   29.4218  -19.4669  -12.6515 C   0  0  0  0  0  0  0  0  0  0  0  0
   27.1508  -20.1215  -13.1842 C   0  0  0  0  0  0  0  0  0  0  0  0
   26.0146  -21.0842  -13.2067 C   0  0  2  0  0  0  0  0  0  0  0  0
   25.0049  -20.6283  -14.1582 N   0  0  0  0  0  0  0  0  0  0  0  0
   25.3560  -21.1422  -11.8616 C   0  0  0  0  0  0  0  0  0  0  0  0
   24.1691  -21.5266  -11.7398 O   0  0  0  0  0  0  0  0  0  0  0  0
   28.0821  -19.1732   -7.2797 C   0  0  0  0  0  0  0  0  0  0  0  0
   27.4537  -20.3352   -8.1404 C   0  0  1  0  0  0  0  0  0  0  0  0
   27.5028  -21.5321   -7.1950 C   0  0  0  0  0  0  0  0  0  0  0  0
   26.0540  -19.9549   -8.4276 C   0  0  0  0  0  0  0  0  0  0  0  0
   25.2924  -20.7536   -9.3995 C   0  0  2  0  0  0  0  0  0  0  0  0
   26.0481  -20.7669  -10.6896 N   0  0  0  0  0  0  0  0  0  0  0  0
   23.9260  -20.3947   -9.7595 C   0  0  0  0  0  0  0  0  0  0  0  0
   23.6972  -19.6277  -10.7746 O   0  0  0  0  0  0  0  0  0  0  0  0
   22.7557  -20.7918   -9.1316 O   0  0  0  0  0  0  0  0  0  0  0  0
  2  1  1  6
  2  9  1  0
  2  3  1  0
  3  4  1  0
  4  8  1  0
  4  5  2  0
  5  6  1  0
  7  6  1  0
  8  7  2  0
  9 10  2  0
 12 14  1  0
 12 11  1  6
 13 12  1  0
 15 14  1  1
 15 16  1  0
 16  9  1  0
 17 15  1  0
 18 17  2  0
 20 22  1  0
 20 19  1  1
 21 20  1  0
 23 22  1  1
 23 25  1  0
 23 24  1  0
 24 17  1  0
 25 27  1  0
 26 25  2  0
M  END
$$$$
