HLL.pdb
     RDKit          3D

 27 27  0  0  1  0  0  0  0  0999 V2000
   26.0602  -19.3077  -12.3422 N   0  0  0  0  0  0  0  0  0  0  0  0
   25.3515  -20.4570  -11.8614 C   0  0  1  0  0  0  0  0  0  0  0  0
   24.6371  -21.1954  -12.9975 C   0  0  0  0  0  0  0  0  0  0  0  0
   23.6738  -20.2830  -13.6221 C   0  0  0  0  0  0  0  0  0  0  0  0
   22.8196  -19.4315  -12.9942 C   0  0  0  0  0  0  0  0  0  0  0  0
   22.1323  -18.7999  -13.9779 N   0  0  0  0  0  0  0  0  0  0  0  0
   22.5374  -19.2364  -15.1832 C   0  0  0  0  0  0  0  0  0  0  0  0
   23.4941  -20.1570  -14.9669 N   0  0  0  0  0  0  0  0  0  0  0  0
   26.3106  -21.4075  -11.2756 C   0  0  0  0  0  0  0  0  0  0  0  0
   25.9316  -22.5730  -10.9474 O   0  0  0  0  0  0  0  0  0  0  0  0
   31.5950  -20.8547  -12.5498 C   0  0  0  0  0  0  0  0  0  0  0  0
   30.1819  -21.3155  -12.2615 C   0  0  1  0  0  0  0  0  0  0  0  0
   29.9931  -22.5876  -13.0799 C   0  0  0  0  0  0  0  0  0  0  0  0
   29.9616  -21.6666  -10.8393 C   0  0  0  0  0  0  0  0  0  0  0  0
   28.5564  -21.9563  -10.4395 C   0  0  2  0  0  0  0  0  0  0  0  0
   27.6572  -21.0035  -11.0845 N   0  0  0  0  0  0  0  0  0  0  0  0
   28.3911  -21.7838   -8.9599 C   0  0  0  0  0  0  0  0  0  0  0  0
   28.7097  -22.6981   -8.1636 O   0  0  0  0  0  0  0  0  0  0  0  0
   27.6154  -17.9135   -4.7373 C   0  0  0  0  0  0  0  0  0  0  0  0
   28.6316  -19.0867   -5.0141 C   0  0  1  0  0  0  0  0  0  0  0  0
   28.0484  -20.2467   -4.2123 C   0  0  0  0  0  0  0  0  0  0  0  0
   28.5773  -19.3754   -6.4633 C   0  0  0  0  0  0  0  0  0  0  0  0
   27.7417  -20.4929   -6.9279 C   0  0  2  0  0  0  0  0  0  0  0  0
   27.8727  -20.5893   -8.4142 N   0  0  0  0  0  0  0  0  0  0  0  0
   26.3075  -20.5168   -6.6672 C   0  0  0  0  0  0  0  0  0  0  0  0
   25.4825  -19.9701   -7.4989 O   0  0  0  0  0  0  0  0  0  0  0  0
   25.6557  -21.0880   -5.5854 O   0  0  0  0  0  0  0  0  0  0  0  0
  2  1  1  6
  2  9  1  0
  2  3  1  0
  3  4  1  0
  4  8  1  0
  4  5  2  0
  5  6  1  0
  7  6  1  0
  8  7  2  0
  9 10  2  0
 12 14  1  0
 12 11  1  1
 13 12  1  0
 15 14  1  1
 15 16  1  0
 16  9  1  0
 17 15  1  0
 18 17  2  0
 20 22  1  0
 20 19  1  6
 21 20  1  0
 23 22  1  6
 23 25  1  0
 23 24  1  0
 24 17  1  0
 25 27  1  0
 26 25  2  0
M  END
$$$$
