HLL.pdb
     RDKit          3D

 27 27  0  0  1  0  0  0  0  0999 V2000
   27.0133  -23.5879  -17.8042 N   0  0  0  0  0  0  0  0  0  0  0  0
   27.5843  -23.7045  -16.4948 C   0  0  1  0  0  0  0  0  0  0  0  0
   29.0728  -24.0603  -16.5579 C   0  0  0  0  0  0  0  0  0  0  0  0
   29.2086  -25.4452  -17.0208 C   0  0  0  0  0  0  0  0  0  0  0  0
   29.0628  -26.5781  -16.2832 C   0  0  0  0  0  0  0  0  0  0  0  0
   29.2810  -27.6093  -17.1364 N   0  0  0  0  0  0  0  0  0  0  0  0
   29.5545  -27.1450  -18.3679 C   0  0  0  0  0  0  0  0  0  0  0  0
   29.5106  -25.8022  -18.3008 N   0  0  0  0  0  0  0  0  0  0  0  0
   27.4877  -22.4069  -15.8069 C   0  0  0  0  0  0  0  0  0  0  0  0
   28.0896  -22.2245  -14.7050 O   0  0  0  0  0  0  0  0  0  0  0  0
   27.1891  -17.1029  -15.2882 C   0  0  0  0  0  0  0  0  0  0  0  0
   25.9002  -17.7365  -15.7675 C   0  0  1  0  0  0  0  0  0  0  0  0
   25.3304  -16.7703  -16.7997 C   0  0  0  0  0  0  0  0  0  0  0  0
   26.1066  -19.0377  -16.4449 C   0  0  0  0  0  0  0  0  0  0  0  0
   26.4448  -20.1934  -15.5683 C   0  0  2  0  0  0  0  0  0  0  0  0
   26.7161  -21.3693  -16.3907 N   0  0  0  0  0  0  0  0  0  0  0  0
   25.2823  -20.5336  -14.6855 C   0  0  0  0  0  0  0  0  0  0  0  0
   24.4098  -21.3546  -15.0546 O   0  0  0  0  0  0  0  0  0  0  0  0
   25.8998  -20.4135   -9.1572 C   0  0  0  0  0  0  0  0  0  0  0  0
   25.6795  -20.8880  -10.6445 C   0  0  1  0  0  0  0  0  0  0  0  0
   25.4762  -22.3935  -10.5014 C   0  0  0  0  0  0  0  0  0  0  0  0
   24.4424  -20.2387  -11.1287 C   0  0  0  0  0  0  0  0  0  0  0  0
   24.0375  -20.4488  -12.5268 C   0  0  2  0  0  0  0  0  0  0  0  0
   25.1308  -19.9427  -13.4122 N   0  0  0  0  0  0  0  0  0  0  0  0
   22.8138  -19.8547  -13.0512 C   0  0  0  0  0  0  0  0  0  0  0  0
   22.8531  -18.7294  -13.6861 O   0  0  0  0  0  0  0  0  0  0  0  0
   21.5265  -20.3622  -12.9686 O   0  0  0  0  0  0  0  0  0  0  0  0
  2  1  1  6
  2  9  1  0
  2  3  1  0
  3  4  1  0
  4  8  1  0
  4  5  2  0
  5  6  1  0
  7  6  1  0
  8  7  2  0
  9 10  2  0
 12 14  1  0
 12 11  1  6
 13 12  1  0
 15 14  1  6
 15 16  1  0
 16  9  1  0
 17 15  1  0
 18 17  2  0
 20 22  1  0
 20 19  1  1
 21 20  1  0
 23 22  1  1
 23 25  1  0
 23 24  1  0
 24 17  1  0
 25 27  1  0
 26 25  2  0
M  END
$$$$
