HLL.pdb
     RDKit          3D

 27 27  0  0  1  0  0  0  0  0999 V2000
   26.1819  -24.7645  -16.6400 N   0  0  0  0  0  0  0  0  0  0  0  0
   27.2087  -25.4859  -17.3325 C   0  0  1  0  0  0  0  0  0  0  0  0
   26.7018  -26.0518  -18.6625 C   0  0  0  0  0  0  0  0  0  0  0  0
   25.8985  -27.2485  -18.3916 C   0  0  0  0  0  0  0  0  0  0  0  0
   26.3349  -28.5343  -18.3197 C   0  0  0  0  0  0  0  0  0  0  0  0
   25.2388  -29.2856  -18.0498 N   0  0  0  0  0  0  0  0  0  0  0  0
   24.1497  -28.5032  -17.9547 C   0  0  0  0  0  0  0  0  0  0  0  0
   24.5547  -27.2380  -18.1662 N   0  0  0  0  0  0  0  0  0  0  0  0
   28.3121  -24.5671  -17.6561 C   0  0  0  0  0  0  0  0  0  0  0  0
   28.1615  -23.3157  -17.5106 O   0  0  0  0  0  0  0  0  0  0  0  0
   32.7786  -25.6113  -15.3525 C   0  0  0  0  0  0  0  0  0  0  0  0
   31.5602  -25.0624  -16.0642 C   0  0  1  0  0  0  0  0  0  0  0  0
   31.1974  -23.7812  -15.3221 C   0  0  0  0  0  0  0  0  0  0  0  0
   31.8242  -24.6975  -17.4755 C   0  0  0  0  0  0  0  0  0  0  0  0
   30.6650  -24.1760  -18.2519 C   0  0  2  0  0  0  0  0  0  0  0  0
   29.5392  -25.0983  -18.1303 N   0  0  0  0  0  0  0  0  0  0  0  0
   31.0098  -24.0934  -19.7081 C   0  0  0  0  0  0  0  0  0  0  0  0
   31.9690  -23.3909  -20.1056 O   0  0  0  0  0  0  0  0  0  0  0  0
   31.7250  -28.1763  -23.0696 C   0  0  0  0  0  0  0  0  0  0  0  0
   31.8127  -26.8495  -22.2223 C   0  0  1  0  0  0  0  0  0  0  0  0
   33.2048  -26.3188  -22.5527 C   0  0  0  0  0  0  0  0  0  0  0  0
   30.7707  -25.9356  -22.7373 C   0  0  0  0  0  0  0  0  0  0  0  0
   30.6276  -24.6098  -22.1172 C   0  0  2  0  0  0  0  0  0  0  0  0
   30.2685  -24.8018  -20.6786 N   0  0  0  0  0  0  0  0  0  0  0  0
   29.6631  -23.6428  -22.6272 C   0  0  0  0  0  0  0  0  0  0  0  0
   29.8017  -23.1433  -23.8114 O   0  0  0  0  0  0  0  0  0  0  0  0
   28.5366  -23.1545  -21.9837 O   0  0  0  0  0  0  0  0  0  0  0  0
  2  1  1  6
  2  9  1  0
  2  3  1  0
  3  4  1  0
  4  8  1  0
  4  5  2  0
  5  6  1  0
  7  6  1  0
  8  7  2  0
  9 10  2  0
 12 14  1  0
 12 11  1  1
 13 12  1  0
 15 14  1  1
 15 16  1  0
 16  9  1  0
 17 15  1  0
 18 17  2  0
 20 22  1  0
 20 19  1  6
 21 20  1  0
 23 22  1  6
 23 25  1  0
 23 24  1  0
 24 17  1  0
 25 27  1  0
 26 25  2  0
M  END
$$$$
