HLL.pdb
     RDKit          3D

 27 27  0  0  1  0  0  0  0  0999 V2000
   24.7700  -20.7893  -13.1706 N   0  0  0  0  0  0  0  0  0  0  0  0
   24.5659  -20.2035  -11.8785 C   0  0  1  0  0  0  0  0  0  0  0  0
   23.4119  -20.8769  -11.1295 C   0  0  0  0  0  0  0  0  0  0  0  0
   22.1585  -20.5877  -11.8339 C   0  0  0  0  0  0  0  0  0  0  0  0
   21.7355  -21.1168  -13.0130 C   0  0  0  0  0  0  0  0  0  0  0  0
   20.5280  -20.5528  -13.2630 N   0  0  0  0  0  0  0  0  0  0  0  0
   20.1999  -19.6986  -12.2780 C   0  0  0  0  0  0  0  0  0  0  0  0
   21.2092  -19.7173  -11.3889 N   0  0  0  0  0  0  0  0  0  0  0  0
   25.7738  -20.4006  -11.0609 C   0  0  0  0  0  0  0  0  0  0  0  0
   26.5259  -21.4013  -11.2680 O   0  0  0  0  0  0  0  0  0  0  0  0
   27.6359  -15.8167   -8.5272 C   0  0  0  0  0  0  0  0  0  0  0  0
   27.4709  -17.0444   -9.3978 C   0  0  1  0  0  0  0  0  0  0  0  0
   28.5555  -16.9370  -10.4636 C   0  0  0  0  0  0  0  0  0  0  0  0
   27.6930  -18.3129   -8.6655 C   0  0  0  0  0  0  0  0  0  0  0  0
   27.3942  -19.5677   -9.4104 C   0  0  2  0  0  0  0  0  0  0  0  0
   26.0828  -19.4608  -10.0440 N   0  0  0  0  0  0  0  0  0  0  0  0
   27.3324  -20.7300   -8.4662 C   0  0  0  0  0  0  0  0  0  0  0  0
   28.2942  -21.5270   -8.3594 O   0  0  0  0  0  0  0  0  0  0  0  0
   28.5914  -19.2845   -4.3388 C   0  0  0  0  0  0  0  0  0  0  0  0
   28.2735  -20.2045   -5.5791 C   0  0  1  0  0  0  0  0  0  0  0  0
   29.3099  -21.3181   -5.4592 C   0  0  0  0  0  0  0  0  0  0  0  0
   26.9088  -20.7394   -5.3847 C   0  0  0  0  0  0  0  0  0  0  0  0
   26.3777  -21.6905   -6.3727 C   0  0  2  0  0  0  0  0  0  0  0  0
   26.1924  -20.9662   -7.6675 N   0  0  0  0  0  0  0  0  0  0  0  0
   25.1194  -22.3892   -6.1409 C   0  0  0  0  0  0  0  0  0  0  0  0
   24.0265  -21.9665   -6.6868 O   0  0  0  0  0  0  0  0  0  0  0  0
   24.9135  -23.5249   -5.3732 O   0  0  0  0  0  0  0  0  0  0  0  0
  2  1  1  6
  2  9  1  0
  2  3  1  0
  3  4  1  0
  4  8  1  0
  4  5  2  0
  5  6  1  0
  7  6  1  0
  8  7  2  0
  9 10  2  0
 12 14  1  0
 12 11  1  1
 13 12  1  0
 15 14  1  1
 15 16  1  0
 16  9  1  0
 17 15  1  0
 18 17  2  0
 20 22  1  0
 20 19  1  1
 21 20  1  0
 23 22  1  1
 23 25  1  0
 23 24  1  0
 24 17  1  0
 25 27  1  0
 26 25  2  0
M  END
$$$$
