HLL.pdb
     RDKit          3D

 27 27  0  0  1  0  0  0  0  0999 V2000
   28.8999  -37.2052   -8.2084 N   0  0  0  0  0  0  0  0  0  0  0  0
   29.0952  -36.0071   -7.4463 C   0  0  1  0  0  0  0  0  0  0  0  0
   27.7661  -35.3100   -7.1403 C   0  0  0  0  0  0  0  0  0  0  0  0
   27.3012  -34.6261   -8.3514 C   0  0  0  0  0  0  0  0  0  0  0  0
   28.0368  -33.8539   -9.1949 C   0  0  0  0  0  0  0  0  0  0  0  0
   27.1824  -33.4415  -10.1638 N   0  0  0  0  0  0  0  0  0  0  0  0
   25.9520  -33.9350   -9.9407 C   0  0  0  0  0  0  0  0  0  0  0  0
   26.0212  -34.6708   -8.8168 N   0  0  0  0  0  0  0  0  0  0  0  0
   29.7015  -36.3510   -6.1500 C   0  0  0  0  0  0  0  0  0  0  0  0
   29.6808  -37.5502   -5.7360 O   0  0  0  0  0  0  0  0  0  0  0  0
   34.4503  -34.2228   -4.1603 C   0  0  0  0  0  0  0  0  0  0  0  0
   33.3009  -35.1318   -4.5412 C   0  0  1  0  0  0  0  0  0  0  0  0
   33.7497  -36.5378   -4.1600 C   0  0  0  0  0  0  0  0  0  0  0  0
   32.0567  -34.8447   -3.7901 C   0  0  0  0  0  0  0  0  0  0  0  0
   30.8862  -35.7150   -4.0919 C   0  0  2  0  0  0  0  0  0  0  0  0
   30.3057  -35.3278   -5.3748 N   0  0  0  0  0  0  0  0  0  0  0  0
   29.8206  -35.5307   -3.0541 C   0  0  0  0  0  0  0  0  0  0  0  0
   30.0850  -35.6281   -1.8326 O   0  0  0  0  0  0  0  0  0  0  0  0
   27.2110  -32.1242   -3.3938 C   0  0  0  0  0  0  0  0  0  0  0  0
   26.1298  -32.9229   -2.5698 C   0  0  1  0  0  0  0  0  0  0  0  0
   24.8109  -32.4153   -3.1454 C   0  0  0  0  0  0  0  0  0  0  0  0
   26.3175  -34.3560   -2.8817 C   0  0  0  0  0  0  0  0  0  0  0  0
   27.4859  -35.0516   -2.3216 C   0  0  2  0  0  0  0  0  0  0  0  0
   28.4867  -35.2421   -3.4160 N   0  0  0  0  0  0  0  0  0  0  0  0
   27.3505  -36.3605   -1.6940 C   0  0  0  0  0  0  0  0  0  0  0  0
   26.8845  -36.4646   -0.4928 O   0  0  0  0  0  0  0  0  0  0  0  0
   27.6635  -37.5952   -2.2409 O   0  0  0  0  0  0  0  0  0  0  0  0
  2  1  1  6
  2  9  1  0
  2  3  1  0
  3  4  1  0
  4  8  1  0
  4  5  2  0
  5  6  1  0
  7  6  1  0
  8  7  2  0
  9 10  2  0
 12 14  1  0
 12 11  1  1
 13 12  1  0
 15 14  1  1
 15 16  1  0
 16  9  1  0
 17 15  1  0
 18 17  2  0
 20 22  1  0
 20 19  1  6
 21 20  1  0
 23 22  1  6
 23 25  1  0
 23 24  1  0
 24 17  1  0
 25 27  1  0
 26 25  2  0
M  END
$$$$
