HLL.pdb
     RDKit          3D

 27 27  0  0  1  0  0  0  0  0999 V2000
   23.5345  -17.3860  -18.2535 N   0  0  0  0  0  0  0  0  0  0  0  0
   24.1945  -16.4574  -19.1232 C   0  0  1  0  0  0  0  0  0  0  0  0
   23.4411  -16.2900  -20.4463 C   0  0  0  0  0  0  0  0  0  0  0  0
   23.5537  -17.5337  -21.2150 C   0  0  0  0  0  0  0  0  0  0  0  0
   22.5869  -18.4688  -21.4146 C   0  0  0  0  0  0  0  0  0  0  0  0
   23.1529  -19.4325  -22.1825 N   0  0  0  0  0  0  0  0  0  0  0  0
   24.4305  -19.1179  -22.4582 C   0  0  0  0  0  0  0  0  0  0  0  0
   24.6834  -17.9401  -21.8596 N   0  0  0  0  0  0  0  0  0  0  0  0
   24.2258  -15.1324  -18.4829 C   0  0  0  0  0  0  0  0  0  0  0  0
   23.2301  -14.7279  -17.8087 O   0  0  0  0  0  0  0  0  0  0  0  0
   29.0872  -13.0005  -17.0131 C   0  0  0  0  0  0  0  0  0  0  0  0
   27.6329  -13.4209  -16.9831 C   0  0  1  0  0  0  0  0  0  0  0  0
   27.2050  -13.3044  -15.5246 C   0  0  0  0  0  0  0  0  0  0  0  0
   26.7522  -12.5318  -17.7758 C   0  0  0  0  0  0  0  0  0  0  0  0
   25.3569  -13.0054  -17.9929 C   0  0  2  0  0  0  0  0  0  0  0  0
   25.3791  -14.3192  -18.6301 N   0  0  0  0  0  0  0  0  0  0  0  0
   24.6324  -12.0789  -18.9220 C   0  0  0  0  0  0  0  0  0  0  0  0
   24.7841  -12.1608  -20.1637 O   0  0  0  0  0  0  0  0  0  0  0  0
   21.4135  -10.4801  -22.1884 C   0  0  0  0  0  0  0  0  0  0  0  0
   20.8633  -10.2332  -20.7317 C   0  0  1  0  0  0  0  0  0  0  0  0
   19.5076  -10.9334  -20.7500 C   0  0  0  0  0  0  0  0  0  0  0  0
   21.7875  -10.9113  -19.7976 C   0  0  0  0  0  0  0  0  0  0  0  0
   23.0363  -10.2303  -19.4240 C   0  0  2  0  0  0  0  0  0  0  0  0
   23.7573  -11.0853  -18.4317 N   0  0  0  0  0  0  0  0  0  0  0  0
   23.0171   -8.8958  -18.8376 C   0  0  0  0  0  0  0  0  0  0  0  0
   23.0999   -8.7431  -17.5566 O   0  0  0  0  0  0  0  0  0  0  0  0
   22.9248   -7.6829  -19.5024 O   0  0  0  0  0  0  0  0  0  0  0  0
  2  1  1  1
  2  9  1  0
  2  3  1  0
  3  4  1  0
  4  8  1  0
  4  5  2  0
  5  6  1  0
  7  6  1  0
  8  7  2  0
  9 10  2  0
 12 14  1  0
 12 11  1  1
 13 12  1  0
 15 14  1  6
 15 16  1  0
 16  9  1  0
 17 15  1  0
 18 17  2  0
 20 22  1  0
 20 19  1  6
 21 20  1  0
 23 22  1  1
 23 25  1  0
 23 24  1  0
 24 17  1  0
 25 27  1  0
 26 25  2  0
M  END
$$$$
