HLL.pdb
     RDKit          3D

 27 27  0  0  1  0  0  0  0  0999 V2000
   24.3824  -19.3621  -17.0590 N   0  0  0  0  0  0  0  0  0  0  0  0
   24.7528  -18.9937  -15.7244 C   0  0  1  0  0  0  0  0  0  0  0  0
   23.5579  -18.4455  -14.9381 C   0  0  0  0  0  0  0  0  0  0  0  0
   23.1635  -17.1564  -15.5154 C   0  0  0  0  0  0  0  0  0  0  0  0
   22.5626  -16.9411  -16.7160 C   0  0  0  0  0  0  0  0  0  0  0  0
   22.3956  -15.5990  -16.8141 N   0  0  0  0  0  0  0  0  0  0  0  0
   22.8734  -14.9886  -15.7158 C   0  0  0  0  0  0  0  0  0  0  0  0
   23.3510  -15.9516  -14.9070 N   0  0  0  0  0  0  0  0  0  0  0  0
   25.2214  -20.1888  -15.0043 C   0  0  0  0  0  0  0  0  0  0  0  0
   24.7983  -21.3381  -15.3359 O   0  0  0  0  0  0  0  0  0  0  0  0
   30.2306  -19.8027  -13.1794 C   0  0  0  0  0  0  0  0  0  0  0  0
   28.8772  -20.1362  -13.7706 C   0  0  1  0  0  0  0  0  0  0  0  0
   29.1713  -20.8598  -15.0797 C   0  0  0  0  0  0  0  0  0  0  0  0
   28.0818  -21.0561  -12.9246 C   0  0  0  0  0  0  0  0  0  0  0  0
   26.6602  -21.2567  -13.3210 C   0  0  2  0  0  0  0  0  0  0  0  0
   26.1476  -20.0375  -13.9402 N   0  0  0  0  0  0  0  0  0  0  0  0
   25.8162  -21.5233  -12.1115 C   0  0  0  0  0  0  0  0  0  0  0  0
   25.8440  -22.6375  -11.5376 O   0  0  0  0  0  0  0  0  0  0  0  0
   26.2758  -19.0218   -7.7784 C   0  0  0  0  0  0  0  0  0  0  0  0
   26.0391  -20.1220   -8.8826 C   0  0  1  0  0  0  0  0  0  0  0  0
   26.3609  -21.4219   -8.1510 C   0  0  0  0  0  0  0  0  0  0  0  0
   24.6071  -20.0700   -9.2475 C   0  0  0  0  0  0  0  0  0  0  0  0
   24.1394  -20.8811  -10.3816 C   0  0  2  0  0  0  0  0  0  0  0  0
   24.9639  -20.5317  -11.5790 N   0  0  0  0  0  0  0  0  0  0  0  0
   22.7557  -20.8101  -10.8351 C   0  0  0  0  0  0  0  0  0  0  0  0
   22.4801  -20.4134  -12.0342 O   0  0  0  0  0  0  0  0  0  0  0  0
   21.6149  -21.1372  -10.1189 O   0  0  0  0  0  0  0  0  0  0  0  0
  2  1  1  6
  2  9  1  0
  2  3  1  0
  3  4  1  0
  4  8  1  0
  4  5  2  0
  5  6  1  0
  7  6  1  0
  8  7  2  0
  9 10  2  0
 12 14  1  0
 12 11  1  1
 13 12  1  0
 15 14  1  1
 15 16  1  0
 16  9  1  0
 17 15  1  0
 18 17  2  0
 20 22  1  0
 20 19  1  1
 21 20  1  0
 23 22  1  1
 23 25  1  0
 23 24  1  0
 24 17  1  0
 25 27  1  0
 26 25  2  0
M  END
$$$$
