QRI.pdb
     RDKit          3D

 29 28  0  0  1  0  0  0  0  0999 V2000
   18.0905  -19.4882  -15.1428 N   0  0  0  0  0  0  0  0  0  0  0  0
   17.4310  -19.3314  -13.8972 C   0  0  0  0  0  0  0  0  0  0  0  0
   16.2065  -19.0788  -13.8270 O   0  0  0  0  0  0  0  0  0  0  0  0
   18.1724  -19.4611  -12.5913 C   0  0  0  0  0  0  0  0  0  0  0  0
   19.5890  -19.8553  -12.8117 C   0  0  0  0  0  0  0  0  0  0  0  0
   19.8220  -21.2389  -13.3186 C   0  0  2  0  0  0  0  0  0  0  0  0
   19.5243  -22.1408  -12.1919 N   0  0  0  0  0  0  0  0  0  0  0  0
   21.2252  -21.5033  -13.7483 C   0  0  0  0  0  0  0  0  0  0  0  0
   22.0649  -21.8637  -12.8831 O   0  0  0  0  0  0  0  0  0  0  0  0
   23.2341  -19.4608  -20.6467 N   0  0  0  0  0  0  0  0  0  0  0  0
   24.6184  -19.4890  -20.3389 C   0  0  0  0  0  0  0  0  0  0  0  0
   25.3404  -18.5081  -20.7399 N   0  0  0  0  0  0  0  0  0  0  0  0
   25.2434  -20.5378  -19.6154 N   0  0  0  0  0  0  0  0  0  0  0  0
   24.4920  -21.6537  -19.0833 C   0  0  0  0  0  0  0  0  0  0  0  0
   24.5022  -21.6137  -17.5700 C   0  0  0  0  0  0  0  0  0  0  0  0
   23.0870  -21.4548  -17.0645 C   0  0  0  0  0  0  0  0  0  0  0  0
   22.9891  -21.4256  -15.5833 C   0  0  2  0  0  0  0  0  0  0  0  0
   21.6321  -21.3609  -15.1007 N   0  0  0  0  0  0  0  0  0  0  0  0
   23.9181  -20.4795  -14.9094 C   0  0  0  0  0  0  0  0  0  0  0  0
   23.7000  -19.2595  -14.7489 O   0  0  0  0  0  0  0  0  0  0  0  0
   26.3666  -18.4214  -20.5710 C   0  0  0  0  0  0  0  0  0  0  0  0
   27.3628  -20.2345  -10.1678 C   0  0  0  0  0  0  0  0  0  0  0  0
   27.4818  -19.9055  -11.6576 C   0  0  2  0  0  0  0  0  0  0  0  0
   26.6331  -20.8174  -12.4833 C   0  0  0  0  0  0  0  0  0  0  0  0
   27.4775  -21.9997  -12.9307 C   0  0  2  0  0  0  0  0  0  0  0  0
   26.0749  -20.0773  -13.6706 N   0  0  0  0  0  0  0  0  0  0  0  0
   25.1447  -20.9758  -14.4044 C   0  0  0  0  0  0  0  0  0  0  0  0
   27.1597  -19.7619  -14.6106 O   0  0  0  0  0  0  0  0  0  0  0  0
   28.0048  -18.8785  -14.2946 O   0  0  0  0  0  0  0  0  0  0  0  0
  2  1  1  0
  2  3  2  0
  4  2  1  0
  5  6  1  0
  5  4  1  0
  6  7  1  1
  8  9  2  0
  8  6  1  0
 10 11  1  0
 11 12  2  0
 13 11  1  0
 13 14  1  0
 15 14  1  0
 16 15  1  0
 17 16  1  6
 17 18  1  0
 18  8  1  0
 19 26  1  0
 19 17  1  0
 20 19  2  0
 22 21  1  0
 23 22  1  0
 23 25  1  0
 23 24  1  6
 25 26  1  6
 25 27  1  0
 27 29  1  0
 28 27  2  0
M  END
$$$$
