QRI.pdb
     RDKit          3D

 29 28  0  0  1  0  0  0  0  0999 V2000
   25.8136  -15.1675  -19.1933 N   0  0  0  0  0  0  0  0  0  0  0  0
   24.5147  -15.4575  -19.6829 C   0  0  0  0  0  0  0  0  0  0  0  0
   24.1071  -15.0065  -20.7777 O   0  0  0  0  0  0  0  0  0  0  0  0
   23.5563  -16.3254  -18.9083 C   0  0  0  0  0  0  0  0  0  0  0  0
   24.1425  -16.7512  -17.6098 C   0  0  0  0  0  0  0  0  0  0  0  0
   24.1802  -18.2193  -17.3480 C   0  0  2  0  0  0  0  0  0  0  0  0
   23.1106  -18.8078  -18.1733 N   0  0  0  0  0  0  0  0  0  0  0  0
   23.9119  -18.5935  -15.9298 C   0  0  0  0  0  0  0  0  0  0  0  0
   24.6527  -18.1205  -15.0291 O   0  0  0  0  0  0  0  0  0  0  0  0
   17.9189  -22.0968  -15.1100 N   0  0  0  0  0  0  0  0  0  0  0  0
   18.6392  -23.0805  -14.3852 C   0  0  0  0  0  0  0  0  0  0  0  0
   18.6147  -24.2849  -14.8248 N   0  0  0  0  0  0  0  0  0  0  0  0
   19.3808  -22.8053  -13.2069 N   0  0  0  0  0  0  0  0  0  0  0  0
   19.4572  -21.4746  -12.6444 C   0  0  0  0  0  0  0  0  0  0  0  0
   20.8828  -20.9681  -12.6975 C   0  0  0  0  0  0  0  0  0  0  0  0
   21.1979  -20.5082  -14.1021 C   0  0  0  0  0  0  0  0  0  0  0  0
   22.5672  -19.9531  -14.2481 C   0  0  2  0  0  0  0  0  0  0  0  0
   22.8474  -19.4626  -15.5746 N   0  0  0  0  0  0  0  0  0  0  0  0
   23.6514  -20.7914  -13.6701 C   0  0  0  0  0  0  0  0  0  0  0  0
   23.9154  -21.9598  -14.0263 O   0  0  0  0  0  0  0  0  0  0  0  0
   19.1600  -25.0749  -14.4156 C   0  0  0  0  0  0  0  0  0  0  0  0
   28.4541  -19.0599  -13.6642 C   0  0  0  0  0  0  0  0  0  0  0  0
   27.2209  -19.9605  -13.5652 C   0  0  2  0  0  0  0  0  0  0  0  0
   26.8392  -20.2018  -12.1404 C   0  0  0  0  0  0  0  0  0  0  0  0
   27.9903  -20.9034  -11.4378 C   0  0  2  0  0  0  0  0  0  0  0  0
   25.5832  -21.0304  -12.0703 N   0  0  0  0  0  0  0  0  0  0  0  0
   24.4561  -20.2456  -12.6402 C   0  0  0  0  0  0  0  0  0  0  0  0
   25.2338  -21.2797  -10.6648 O   0  0  0  0  0  0  0  0  0  0  0  0
   24.5286  -20.4312  -10.0505 O   0  0  0  0  0  0  0  0  0  0  0  0
  2  1  1  0
  2  3  2  0
  4  2  1  0
  5  6  1  0
  5  4  1  0
  6  7  1  6
  8  9  2  0
  8  6  1  0
 10 11  1  0
 11 12  2  0
 13 11  1  0
 13 14  1  0
 15 14  1  0
 16 15  1  0
 17 16  1  6
 17 18  1  0
 18  8  1  0
 19 26  1  0
 19 17  1  0
 20 19  2  0
 22 21  1  0
 23 22  1  0
 23 25  1  0
 23 24  1  1
 25 26  1  6
 25 27  1  0
 27 29  1  0
 28 27  2  0
M  END
$$$$
