QRI.pdb
     RDKit          3D

 29 28  0  0  1  0  0  0  0  0999 V2000
   29.4746  -24.1161  -17.1232 N   0  0  0  0  0  0  0  0  0  0  0  0
   28.8304  -23.0247  -16.4869 C   0  0  0  0  0  0  0  0  0  0  0  0
   27.9009  -23.1959  -15.6655 O   0  0  0  0  0  0  0  0  0  0  0  0
   29.2327  -21.5996  -16.7679 C   0  0  0  0  0  0  0  0  0  0  0  0
   28.1745  -20.6459  -16.3418 C   0  0  0  0  0  0  0  0  0  0  0  0
   26.8401  -20.8016  -16.9903 C   0  0  2  0  0  0  0  0  0  0  0  0
   27.0175  -20.3837  -18.3922 N   0  0  0  0  0  0  0  0  0  0  0  0
   25.7704  -19.9483  -16.3980 C   0  0  0  0  0  0  0  0  0  0  0  0
   25.6821  -18.7477  -16.7647 O   0  0  0  0  0  0  0  0  0  0  0  0
   19.2334  -21.2447  -17.8967 N   0  0  0  0  0  0  0  0  0  0  0  0
   18.6034  -20.0288  -17.5271 C   0  0  0  0  0  0  0  0  0  0  0  0
   17.3305  -20.0377  -17.3722 N   0  0  0  0  0  0  0  0  0  0  0  0
   19.3016  -18.8106  -17.3209 N   0  0  0  0  0  0  0  0  0  0  0  0
   20.7368  -18.7156  -17.4764 C   0  0  0  0  0  0  0  0  0  0  0  0
   21.4233  -19.0026  -16.1579 C   0  0  0  0  0  0  0  0  0  0  0  0
   22.7935  -19.5820  -16.4234 C   0  0  0  0  0  0  0  0  0  0  0  0
   23.5303  -19.9454  -15.1868 C   0  0  2  0  0  0  0  0  0  0  0  0
   24.8550  -20.4555  -15.4390 N   0  0  0  0  0  0  0  0  0  0  0  0
   22.7516  -20.7415  -14.2008 C   0  0  0  0  0  0  0  0  0  0  0  0
   22.1592  -21.8114  -14.4577 O   0  0  0  0  0  0  0  0  0  0  0  0
   16.7528  -19.1911  -17.1758 C   0  0  0  0  0  0  0  0  0  0  0  0
   25.2605  -20.6634   -9.4775 C   0  0  0  0  0  0  0  0  0  0  0  0
   24.4558  -21.1107  -10.6999 C   0  0  2  0  0  0  0  0  0  0  0  0
   22.9986  -20.8308  -10.5213 C   0  0  0  0  0  0  0  0  0  0  0  0
   22.4885  -21.6321   -9.3344 C   0  0  2  0  0  0  0  0  0  0  0  0
   22.2418  -21.1874  -11.7740 N   0  0  0  0  0  0  0  0  0  0  0  0
   22.6621  -20.2718  -12.8676 C   0  0  0  0  0  0  0  0  0  0  0  0
   20.8069  -20.9438  -11.5704 O   0  0  0  0  0  0  0  0  0  0  0  0
   20.3671  -19.7642  -11.6690 O   0  0  0  0  0  0  0  0  0  0  0  0
  2  1  1  0
  2  3  2  0
  4  2  1  0
  5  6  1  0
  5  4  1  0
  6  7  1  6
  8  9  2  0
  8  6  1  0
 10 11  1  0
 11 12  2  0
 13 11  1  0
 13 14  1  0
 15 14  1  0
 16 15  1  0
 17 16  1  6
 17 18  1  0
 18  8  1  0
 19 26  1  0
 19 17  1  0
 20 19  2  0
 22 21  1  0
 23 22  1  0
 23 25  1  0
 23 24  1  6
 25 26  1  6
 25 27  1  0
 27 29  1  0
 28 27  2  0
M  END
$$$$
