QRI.pdb
     RDKit          3D

 29 28  0  0  1  0  0  0  0  0999 V2000
   22.5820  -14.6999  -15.3084 N   0  0  0  0  0  0  0  0  0  0  0  0
   21.3340  -14.7574  -15.9793 C   0  0  0  0  0  0  0  0  0  0  0  0
   20.7277  -13.7204  -16.3332 O   0  0  0  0  0  0  0  0  0  0  0  0
   20.6724  -16.0728  -16.3014 C   0  0  0  0  0  0  0  0  0  0  0  0
   21.4948  -17.2196  -15.8331 C   0  0  0  0  0  0  0  0  0  0  0  0
   22.3975  -17.8453  -16.8426 C   0  0  2  0  0  0  0  0  0  0  0  0
   21.5166  -18.4893  -17.8329 N   0  0  0  0  0  0  0  0  0  0  0  0
   23.2967  -18.8977  -16.2882 C   0  0  0  0  0  0  0  0  0  0  0  0
   22.7931  -19.8200  -15.5958 O   0  0  0  0  0  0  0  0  0  0  0  0
   29.9070  -23.7389  -16.6411 N   0  0  0  0  0  0  0  0  0  0  0  0
   29.2375  -23.1966  -17.7679 C   0  0  0  0  0  0  0  0  0  0  0  0
   28.9028  -24.0007  -18.7090 N   0  0  0  0  0  0  0  0  0  0  0  0
   28.9203  -21.8206  -17.9089 N   0  0  0  0  0  0  0  0  0  0  0  0
   29.1809  -20.8636  -16.8557 C   0  0  0  0  0  0  0  0  0  0  0  0
   27.9659  -20.7283  -15.9629 C   0  0  0  0  0  0  0  0  0  0  0  0
   26.9237  -19.8857  -16.6612 C   0  0  0  0  0  0  0  0  0  0  0  0
   25.6657  -19.7409  -15.8862 C   0  0  2  0  0  0  0  0  0  0  0  0
   24.6965  -18.8845  -16.5233 N   0  0  0  0  0  0  0  0  0  0  0  0
   25.8477  -19.4754  -14.4341 C   0  0  0  0  0  0  0  0  0  0  0  0
   26.1868  -18.3752  -13.9480 O   0  0  0  0  0  0  0  0  0  0  0  0
   28.4348  -23.7111  -19.5957 C   0  0  0  0  0  0  0  0  0  0  0  0
   23.5203  -20.6211   -9.0579 C   0  0  0  0  0  0  0  0  0  0  0  0
   24.8196  -20.4265   -9.8427 C   0  0  2  0  0  0  0  0  0  0  0  0
   24.5888  -20.5573  -11.3136 C   0  0  0  0  0  0  0  0  0  0  0  0
   24.0294  -21.9415  -11.5997 C   0  0  2  0  0  0  0  0  0  0  0  0
   25.8749  -20.3327  -12.0650 N   0  0  0  0  0  0  0  0  0  0  0  0
   25.6251  -20.5318  -13.5173 C   0  0  0  0  0  0  0  0  0  0  0  0
   26.8575  -21.3551  -11.6789 O   0  0  0  0  0  0  0  0  0  0  0  0
   26.8642  -22.4590  -12.2921 O   0  0  0  0  0  0  0  0  0  0  0  0
  2  1  1  0
  2  3  2  0
  4  2  1  0
  5  6  1  0
  5  4  1  0
  6  7  1  6
  8  9  2  0
  8  6  1  0
 10 11  1  0
 11 12  2  0
 13 11  1  0
 13 14  1  0
 15 14  1  0
 16 15  1  0
 17 16  1  6
 17 18  1  0
 18  8  1  0
 19 26  1  0
 19 17  1  0
 20 19  2  0
 22 21  1  0
 23 22  1  0
 23 25  1  0
 23 24  1  6
 25 26  1  1
 25 27  1  0
 27 29  1  0
 28 27  2  0
M  END
$$$$
