QRI.pdb
     RDKit          3D

 29 28  0  0  1  0  0  0  0  0999 V2000
   18.0552  -21.5058  -15.3232 N   0  0  0  0  0  0  0  0  0  0  0  0
   19.0176  -21.5242  -16.3646 C   0  0  0  0  0  0  0  0  0  0  0  0
   18.7051  -21.7975  -17.5460 O   0  0  0  0  0  0  0  0  0  0  0  0
   20.4691  -21.2150  -16.1015 C   0  0  0  0  0  0  0  0  0  0  0  0
   20.7338  -21.0646  -14.6461 C   0  0  0  0  0  0  0  0  0  0  0  0
   21.7482  -20.0420  -14.2579 C   0  0  2  0  0  0  0  0  0  0  0  0
   22.0894  -19.3170  -15.4946 N   0  0  0  0  0  0  0  0  0  0  0  0
   23.0110  -20.6131  -13.7079 C   0  0  0  0  0  0  0  0  0  0  0  0
   22.9557  -21.2999  -12.6548 O   0  0  0  0  0  0  0  0  0  0  0  0
   27.3180  -24.4525  -17.0606 N   0  0  0  0  0  0  0  0  0  0  0  0
   27.0232  -23.6579  -18.1980 C   0  0  0  0  0  0  0  0  0  0  0  0
   26.5919  -24.2538  -19.2483 N   0  0  0  0  0  0  0  0  0  0  0  0
   27.1789  -22.2479  -18.2358 N   0  0  0  0  0  0  0  0  0  0  0  0
   27.4694  -21.4780  -17.0458 C   0  0  0  0  0  0  0  0  0  0  0  0
   26.3745  -21.6741  -16.0189 C   0  0  0  0  0  0  0  0  0  0  0  0
   26.6311  -20.7698  -14.8357 C   0  0  0  0  0  0  0  0  0  0  0  0
   25.5479  -20.8039  -13.8210 C   0  0  2  0  0  0  0  0  0  0  0  0
   24.2641  -20.4033  -14.3407 N   0  0  0  0  0  0  0  0  0  0  0  0
   25.8914  -20.1865  -12.5121 C   0  0  0  0  0  0  0  0  0  0  0  0
   25.3892  -19.1318  -12.0680 O   0  0  0  0  0  0  0  0  0  0  0  0
   26.4194  -23.7857  -20.1649 C   0  0  0  0  0  0  0  0  0  0  0  0
   25.3240  -19.7263   -7.1344 C   0  0  0  0  0  0  0  0  0  0  0  0
   26.4805  -19.6561   -8.1341 C   0  0  2  0  0  0  0  0  0  0  0  0
   26.1055  -20.2772   -9.4408 C   0  0  0  0  0  0  0  0  0  0  0  0
   25.6849  -21.7172   -9.1950 C   0  0  2  0  0  0  0  0  0  0  0  0
   27.2651  -20.2136  -10.4001 N   0  0  0  0  0  0  0  0  0  0  0  0
   26.8550  -20.8237  -11.6926 C   0  0  0  0  0  0  0  0  0  0  0  0
   28.3703  -21.0398   -9.8945 O   0  0  0  0  0  0  0  0  0  0  0  0
   28.9901  -20.6651   -8.8600 O   0  0  0  0  0  0  0  0  0  0  0  0
  2  1  1  0
  2  3  2  0
  4  2  1  0
  5  6  1  0
  5  4  1  0
  6  7  1  6
  8  9  2  0
  8  6  1  0
 10 11  1  0
 11 12  2  0
 13 11  1  0
 13 14  1  0
 15 14  1  0
 16 15  1  0
 17 16  1  6
 17 18  1  0
 18  8  1  0
 19 26  1  0
 19 17  1  0
 20 19  2  0
 22 21  1  0
 23 22  1  0
 23 25  1  0
 23 24  1  6
 25 26  1  1
 25 27  1  0
 27 29  1  0
 28 27  2  0
M  END
$$$$
