SCT.pdb
     RDKit          3D

 20 19  0  0  1  0  0  0  0  0999 V2000
   19.6837  -11.1639  -15.7702 O   0  0  0  0  0  0  0  0  0  0  0  0
   19.5542   -9.8918  -15.2542 C   0  0  0  0  0  0  0  0  0  0  0  0
   18.5654   -9.8592  -14.1098 C   0  0  2  0  0  0  0  0  0  0  0  0
   17.2701  -10.1927  -14.6512 N   0  0  0  0  0  0  0  0  0  0  0  0
   18.5082   -8.5588  -13.4425 C   0  0  0  0  0  0  0  0  0  0  0  0
   17.7839   -7.6438  -13.9096 O   0  0  0  0  0  0  0  0  0  0  0  0
   19.2400   -8.2459  -12.2610 N   0  0  0  0  0  0  0  0  0  0  0  0
   19.2957   -6.9087  -11.7270 C   0  0  1  0  0  0  0  0  0  0  0  0
   19.1978   -6.8955  -10.2157 C   0  0  0  0  0  0  0  0  0  0  0  0
   19.4392   -5.2351   -9.5427 S   0  0  0  0  0  0  0  0  0  0  0  0
   20.5068   -6.1800  -12.1555 C   0  0  0  0  0  0  0  0  0  0  0  0
   21.6132   -6.5108  -11.6646 O   0  0  0  0  0  0  0  0  0  0  0  0
   22.5600   -6.2162  -14.9281 C   0  0  0  0  0  0  0  0  0  0  0  0
   22.0068   -4.8229  -14.9179 C   0  0  1  0  0  0  0  0  0  0  0  0
   20.8776   -4.7857  -15.7430 O   0  0  0  0  0  0  0  0  0  0  0  0
   21.5886   -4.3682  -13.5295 C   0  0  2  0  0  0  0  0  0  0  0  0
   20.4341   -5.1256  -13.1021 N   0  0  0  0  0  0  0  0  0  0  0  0
   21.2196   -2.9381  -13.5910 C   0  0  0  0  0  0  0  0  0  0  0  0
   19.9125   -2.4912  -13.4396 O   0  0  0  0  0  0  0  0  0  0  0  0
   22.1098   -2.0785  -13.7873 O   0  0  0  0  0  0  0  0  0  0  0  0
  1  2  1  0
  3  5  1  0
  3  2  1  0
  3  4  1  6
  5  6  2  0
  7  8  1  0
  7  5  1  0
  8  9  1  1
  9 10  1  0
 11  8  1  0
 12 11  2  0
 14 13  1  1
 14 16  1  0
 15 14  1  0
 16 18  1  0
 16 17  1  6
 17 11  1  0
 18 19  1  0
 20 18  2  0
M  END
$$$$
