SCT.pdb
     RDKit          3D

 20 19  0  0  1  0  0  0  0  0999 V2000
   19.6487  -12.0203  -19.9529 O   0  0  0  0  0  0  0  0  0  0  0  0
   19.6019  -12.3897  -18.6251 C   0  0  0  0  0  0  0  0  0  0  0  0
   20.6878  -11.7057  -17.8243 C   0  0  2  0  0  0  0  0  0  0  0  0
   21.0035  -12.5634  -16.7076 N   0  0  0  0  0  0  0  0  0  0  0  0
   20.2930  -10.3825  -17.3418 C   0  0  0  0  0  0  0  0  0  0  0  0
   20.0192   -9.4702  -18.1620 O   0  0  0  0  0  0  0  0  0  0  0  0
   20.1936  -10.0436  -15.9618 N   0  0  0  0  0  0  0  0  0  0  0  0
   19.8284   -8.7205  -15.5231 C   0  0  1  0  0  0  0  0  0  0  0  0
   18.6210   -8.7376  -14.6091 C   0  0  0  0  0  0  0  0  0  0  0  0
   18.9036   -9.7582  -13.1439 S   0  0  0  0  0  0  0  0  0  0  0  0
   20.9458   -8.0169  -14.8614 C   0  0  0  0  0  0  0  0  0  0  0  0
   21.7018   -8.6692  -14.1015 O   0  0  0  0  0  0  0  0  0  0  0  0
   23.6124   -5.9501  -16.6995 C   0  0  0  0  0  0  0  0  0  0  0  0
   22.9579   -5.1039  -15.6492 C   0  0  1  0  0  0  0  0  0  0  0  0
   21.9538   -4.3404  -16.2541 O   0  0  0  0  0  0  0  0  0  0  0  0
   22.3187   -5.9298  -14.5453 C   0  0  2  0  0  0  0  0  0  0  0  0
   21.1706   -6.6320  -15.0725 N   0  0  0  0  0  0  0  0  0  0  0  0
   21.8644   -5.0175  -13.4745 C   0  0  0  0  0  0  0  0  0  0  0  0
   20.5214   -4.7879  -13.2014 O   0  0  0  0  0  0  0  0  0  0  0  0
   22.7121   -4.4175  -12.7736 O   0  0  0  0  0  0  0  0  0  0  0  0
  1  2  1  0
  3  5  1  0
  3  2  1  0
  3  4  1  1
  5  6  2  0
  7  8  1  0
  7  5  1  0
  8  9  1  1
  9 10  1  0
 11  8  1  0
 12 11  2  0
 14 13  1  6
 14 16  1  0
 15 14  1  0
 16 18  1  0
 16 17  1  6
 17 11  1  0
 18 19  1  0
 20 18  2  0
M  END
$$$$
