SCT.pdb
     RDKit          3D

 20 19  0  0  1  0  0  0  0  0999 V2000
   24.5637  -10.6449  -20.4611 O   0  0  0  0  0  0  0  0  0  0  0  0
   23.7143   -9.8289  -19.7441 C   0  0  0  0  0  0  0  0  0  0  0  0
   23.0031  -10.5972  -18.6522 C   0  0  2  0  0  0  0  0  0  0  0  0
   22.1077  -11.5284  -19.2951 N   0  0  0  0  0  0  0  0  0  0  0  0
   22.2542   -9.7320  -17.7411 C   0  0  0  0  0  0  0  0  0  0  0  0
   21.2434   -9.1092  -18.1540 O   0  0  0  0  0  0  0  0  0  0  0  0
   22.6013   -9.5390  -16.3730 N   0  0  0  0  0  0  0  0  0  0  0  0
   21.8785   -8.6289  -15.5212 C   0  0  1  0  0  0  0  0  0  0  0  0
   21.7023   -9.1789  -14.1212 C   0  0  0  0  0  0  0  0  0  0  0  0
   20.9119  -10.8047  -14.1341 S   0  0  0  0  0  0  0  0  0  0  0  0
   22.5084   -7.2944  -15.4580 C   0  0  0  0  0  0  0  0  0  0  0  0
   23.7445   -7.2216  -15.2552 O   0  0  0  0  0  0  0  0  0  0  0  0
   22.3761   -4.8897  -18.2745 C   0  0  0  0  0  0  0  0  0  0  0  0
   21.8643   -4.1698  -17.0631 C   0  0  1  0  0  0  0  0  0  0  0  0
   20.4660   -4.2079  -17.0797 O   0  0  0  0  0  0  0  0  0  0  0  0
   22.3356   -4.8009  -15.7634 C   0  0  2  0  0  0  0  0  0  0  0  0
   21.7424   -6.1114  -15.6217 N   0  0  0  0  0  0  0  0  0  0  0  0
   21.8877   -3.9548  -14.6370 C   0  0  0  0  0  0  0  0  0  0  0  0
   22.3876   -2.6783  -14.4097 O   0  0  0  0  0  0  0  0  0  0  0  0
   21.0215   -4.3908  -13.8436 O   0  0  0  0  0  0  0  0  0  0  0  0
  1  2  1  0
  3  5  1  0
  3  2  1  0
  3  4  1  6
  5  6  2  0
  7  8  1  0
  7  5  1  0
  8  9  1  1
  9 10  1  0
 11  8  1  0
 12 11  2  0
 14 13  1  6
 14 16  1  0
 15 14  1  0
 16 18  1  0
 16 17  1  1
 17 11  1  0
 18 19  1  0
 20 18  2  0
M  END
$$$$
