SCT.pdb
     RDKit          3D

 20 19  0  0  1  0  0  0  0  0999 V2000
   19.5382   -7.2310  -15.1357 O   0  0  0  0  0  0  0  0  0  0  0  0
   18.3357   -7.3104  -14.4657 C   0  0  0  0  0  0  0  0  0  0  0  0
   18.0039   -8.7394  -14.0962 C   0  0  2  0  0  0  0  0  0  0  0  0
   17.5846   -9.4093  -15.3035 N   0  0  0  0  0  0  0  0  0  0  0  0
   16.9557   -8.8372  -13.0807 C   0  0  0  0  0  0  0  0  0  0  0  0
   15.7503   -8.6908  -13.4055 O   0  0  0  0  0  0  0  0  0  0  0  0
   17.2134   -9.0952  -11.7037 N   0  0  0  0  0  0  0  0  0  0  0  0
   16.1513   -9.2457  -10.7415 C   0  0  1  0  0  0  0  0  0  0  0  0
   16.1453  -10.6233  -10.1122 C   0  0  0  0  0  0  0  0  0  0  0  0
   16.6879  -11.8949  -11.2770 S   0  0  0  0  0  0  0  0  0  0  0  0
   16.1964   -8.2143   -9.6853 C   0  0  0  0  0  0  0  0  0  0  0  0
   17.2017   -8.1638   -8.9361 O   0  0  0  0  0  0  0  0  0  0  0  0
   16.8590   -4.8172   -9.8968 C   0  0  0  0  0  0  0  0  0  0  0  0
   15.4570   -4.8982   -9.3717 C   0  0  1  0  0  0  0  0  0  0  0  0
   14.5727   -4.8621  -10.4551 O   0  0  0  0  0  0  0  0  0  0  0  0
   15.1951   -6.1776   -8.5945 C   0  0  2  0  0  0  0  0  0  0  0  0
   15.1312   -7.2933   -9.5111 N   0  0  0  0  0  0  0  0  0  0  0  0
   13.8921   -6.0552   -7.9071 C   0  0  0  0  0  0  0  0  0  0  0  0
   13.6920   -5.2158   -6.8179 O   0  0  0  0  0  0  0  0  0  0  0  0
   12.9157   -6.7292   -8.3099 O   0  0  0  0  0  0  0  0  0  0  0  0
  1  2  1  0
  3  5  1  0
  3  2  1  0
  3  4  1  6
  5  6  2  0
  7  8  1  0
  7  5  1  0
  8  9  1  1
  9 10  1  0
 11  8  1  0
 12 11  2  0
 14 13  1  6
 14 16  1  0
 15 14  1  0
 16 18  1  0
 16 17  1  6
 17 11  1  0
 18 19  1  0
 20 18  2  0
M  END
$$$$
