SCT.pdb
     RDKit          3D

 20 19  0  0  1  0  0  0  0  0999 V2000
   20.0779  -11.8345  -17.6917 O   0  0  0  0  0  0  0  0  0  0  0  0
   19.6091  -10.6212  -17.2338 C   0  0  0  0  0  0  0  0  0  0  0  0
   18.8095  -10.7845  -15.9601 C   0  0  2  0  0  0  0  0  0  0  0  0
   17.4817  -11.2051  -16.3370 N   0  0  0  0  0  0  0  0  0  0  0  0
   18.7388   -9.5557  -15.1697 C   0  0  0  0  0  0  0  0  0  0  0  0
   17.8620   -8.6925  -15.4268 O   0  0  0  0  0  0  0  0  0  0  0  0
   19.6231   -9.2585  -14.0932 N   0  0  0  0  0  0  0  0  0  0  0  0
   19.5792   -8.0005  -13.3918 C   0  0  1  0  0  0  0  0  0  0  0  0
   19.4010   -8.1875  -11.8996 C   0  0  0  0  0  0  0  0  0  0  0  0
   19.4877   -6.6151  -11.0117 S   0  0  0  0  0  0  0  0  0  0  0  0
   20.7708   -7.1675  -13.6521 C   0  0  0  0  0  0  0  0  0  0  0  0
   21.8916   -7.5855  -13.2734 O   0  0  0  0  0  0  0  0  0  0  0  0
   22.5436   -6.5330  -16.5826 C   0  0  0  0  0  0  0  0  0  0  0  0
   22.0646   -5.1806  -16.1477 C   0  0  1  0  0  0  0  0  0  0  0  0
   20.8630   -4.9002  -16.8068 O   0  0  0  0  0  0  0  0  0  0  0  0
   21.8087   -5.1025  -14.6517 C   0  0  2  0  0  0  0  0  0  0  0  0
   20.6636   -5.9181  -14.3159 N   0  0  0  0  0  0  0  0  0  0  0  0
   21.5106   -3.6991  -14.2954 C   0  0  0  0  0  0  0  0  0  0  0  0
   22.4796   -2.7032  -14.2858 O   0  0  0  0  0  0  0  0  0  0  0  0
   20.3402   -3.3759  -13.9862 O   0  0  0  0  0  0  0  0  0  0  0  0
  1  2  1  0
  3  5  1  0
  3  2  1  0
  3  4  1  6
  5  6  2  0
  7  8  1  0
  7  5  1  0
  8  9  1  1
  9 10  1  0
 11  8  1  0
 12 11  2  0
 14 13  1  1
 14 16  1  0
 15 14  1  0
 16 18  1  0
 16 17  1  6
 17 11  1  0
 18 19  1  0
 20 18  2  0
M  END
$$$$
