MGD.pdb
     RDKit          3D

 21 20  0  0  1  0  0  0  0  0999 V2000
    7.0140  -10.9253   26.6322 C   0  0  0  0  0  0  0  0  0  0  0  0
    7.1264  -12.5637   27.4022 S   0  0  0  0  0  0  0  0  0  0  0  0
    6.6929  -13.8743   26.2212 C   0  0  0  0  0  0  0  0  0  0  0  0
    7.2739  -13.5997   24.8574 C   0  0  0  0  0  0  0  0  0  0  0  0
    6.8799  -14.6598   23.8637 C   0  0  2  0  0  0  0  0  0  0  0  0
    6.5116  -15.8515   24.6005 N   0  0  0  0  0  0  0  0  0  0  0  0
    7.9408  -14.9554   22.8837 C   0  0  0  0  0  0  0  0  0  0  0  0
    8.4506  -13.9974   22.2516 O   0  0  0  0  0  0  0  0  0  0  0  0
    8.4219  -16.2585   22.6109 N   0  0  0  0  0  0  0  0  0  0  0  0
    9.4489  -16.5858   21.6832 C   0  0  0  0  0  0  0  0  0  0  0  0
   10.7551  -16.9451   22.2625 C   0  0  0  0  0  0  0  0  0  0  0  0
   11.4860  -17.7185   21.6080 O   0  0  0  0  0  0  0  0  0  0  0  0
   11.1891  -16.4549   23.5039 N   0  0  0  0  0  0  0  0  0  0  0  0
   12.1735  -17.1388   24.3493 C   0  0  1  0  0  0  0  0  0  0  0  0
   13.3906  -16.3052   24.5005 C   0  0  0  0  0  0  0  0  0  0  0  0
   14.1190  -16.0182   23.2508 C   0  0  0  0  0  0  0  0  0  0  0  0
   14.1976  -14.8618   22.7702 O   0  0  0  0  0  0  0  0  0  0  0  0
   11.5301  -17.5017   25.6472 C   0  0  0  0  0  0  0  0  0  0  0  0
   10.2010  -17.1401   25.8764 O   0  0  0  0  0  0  0  0  0  0  0  0
   14.7481  -17.0473   22.5643 O   0  0  0  0  0  0  0  0  0  0  0  0
   12.0918  -18.1194   26.5778 O   0  0  0  0  0  0  0  0  0  0  0  0
  2  1  1  0
  3  2  1  0
  4  5  1  0
  4  3  1  0
  5  6  1  1
  7  8  2  0
  7  5  1  0
  9  7  1  0
 10  9  1  0
 10 11  1  0
 11 13  1  0
 12 11  2  0
 13 14  1  0
 14 18  1  0
 14 15  1  1
 16 15  1  0
 17 16  2  0
 18 19  1  0
 20 16  1  0
 21 18  2  0
M  END
$$$$
