MGD.pdb
     RDKit          3D

 21 20  0  0  1  0  0  0  0  0999 V2000
    5.7093  -11.0127   28.0557 C   0  0  0  0  0  0  0  0  0  0  0  0
    6.3248  -11.4253   26.4003 S   0  0  0  0  0  0  0  0  0  0  0  0
    6.5136  -13.2211   26.1998 C   0  0  0  0  0  0  0  0  0  0  0  0
    6.8899  -13.5798   24.7847 C   0  0  0  0  0  0  0  0  0  0  0  0
    7.7263  -14.8305   24.7339 C   0  0  2  0  0  0  0  0  0  0  0  0
    8.9371  -14.5923   25.4928 N   0  0  0  0  0  0  0  0  0  0  0  0
    8.0441  -15.2572   23.3590 C   0  0  0  0  0  0  0  0  0  0  0  0
    7.1482  -15.8320   22.6924 O   0  0  0  0  0  0  0  0  0  0  0  0
    9.3023  -15.0575   22.7419 N   0  0  0  0  0  0  0  0  0  0  0  0
    9.9223  -15.9428   21.8176 C   0  0  0  0  0  0  0  0  0  0  0  0
   11.0638  -16.7202   22.3308 C   0  0  0  0  0  0  0  0  0  0  0  0
   11.5268  -17.6210   21.5994 O   0  0  0  0  0  0  0  0  0  0  0  0
   11.6303  -16.4830   23.5927 N   0  0  0  0  0  0  0  0  0  0  0  0
   12.6895  -17.3121   24.1777 C   0  0  1  0  0  0  0  0  0  0  0  0
   13.9146  -16.5052   24.3953 C   0  0  0  0  0  0  0  0  0  0  0  0
   14.6738  -16.1683   23.1768 C   0  0  0  0  0  0  0  0  0  0  0  0
   14.2937  -16.5141   22.0320 O   0  0  0  0  0  0  0  0  0  0  0  0
   12.1695  -17.9595   25.4189 C   0  0  0  0  0  0  0  0  0  0  0  0
   10.8726  -17.6715   25.8488 O   0  0  0  0  0  0  0  0  0  0  0  0
   15.8534  -15.4438   23.2743 O   0  0  0  0  0  0  0  0  0  0  0  0
   12.8111  -18.7615   26.1318 O   0  0  0  0  0  0  0  0  0  0  0  0
  2  1  1  0
  3  2  1  0
  4  5  1  0
  4  3  1  0
  5  6  1  1
  7  8  2  0
  7  5  1  0
  9  7  1  0
 10  9  1  0
 10 11  1  0
 11 13  1  0
 12 11  2  0
 13 14  1  0
 14 18  1  0
 14 15  1  1
 16 15  1  0
 17 16  2  0
 18 19  1  0
 20 16  1  0
 21 18  2  0
M  END
$$$$
