MGD.pdb
     RDKit          3D

 21 20  0  0  1  0  0  0  0  0999 V2000
    6.5401  -10.7150   26.1703 C   0  0  0  0  0  0  0  0  0  0  0  0
    6.1307  -11.9322   27.4512 S   0  0  0  0  0  0  0  0  0  0  0  0
    6.1286  -13.6189   26.7760 C   0  0  0  0  0  0  0  0  0  0  0  0
    7.2459  -13.8151   25.7830 C   0  0  0  0  0  0  0  0  0  0  0  0
    7.2028  -15.1868   25.1644 C   0  0  2  0  0  0  0  0  0  0  0  0
    7.3482  -16.1627   26.2251 N   0  0  0  0  0  0  0  0  0  0  0  0
    8.2297  -15.3841   24.1251 C   0  0  0  0  0  0  0  0  0  0  0  0
    9.4363  -15.2550   24.4489 O   0  0  0  0  0  0  0  0  0  0  0  0
    7.9374  -15.7119   22.7795 N   0  0  0  0  0  0  0  0  0  0  0  0
    8.8126  -15.5312   21.6732 C   0  0  0  0  0  0  0  0  0  0  0  0
   10.1296  -16.1838   21.7755 C   0  0  0  0  0  0  0  0  0  0  0  0
   10.8349  -16.2297   20.7454 O   0  0  0  0  0  0  0  0  0  0  0  0
   10.6010  -16.7458   22.9720 N   0  0  0  0  0  0  0  0  0  0  0  0
   11.9959  -17.1439   23.1896 C   0  0  1  0  0  0  0  0  0  0  0  0
   12.9010  -15.9891   22.9739 C   0  0  0  0  0  0  0  0  0  0  0  0
   14.3375  -16.2705   23.1525 C   0  0  0  0  0  0  0  0  0  0  0  0
   14.9391  -17.1430   22.4807 O   0  0  0  0  0  0  0  0  0  0  0  0
   12.1197  -17.7578   24.5453 C   0  0  0  0  0  0  0  0  0  0  0  0
   11.6975  -17.0367   25.6639 O   0  0  0  0  0  0  0  0  0  0  0  0
   15.0711  -15.5579   24.0905 O   0  0  0  0  0  0  0  0  0  0  0  0
   12.5828  -18.8957   24.7773 O   0  0  0  0  0  0  0  0  0  0  0  0
  2  1  1  0
  3  2  1  0
  4  5  1  0
  4  3  1  0
  5  6  1  1
  7  8  2  0
  7  5  1  0
  9  7  1  0
 10  9  1  0
 10 11  1  0
 11 13  1  0
 12 11  2  0
 13 14  1  0
 14 18  1  0
 14 15  1  1
 16 15  1  0
 17 16  2  0
 18 19  1  0
 20 16  1  0
 21 18  2  0
M  END
$$$$
