MGD.pdb
     RDKit          3D

 21 20  0  0  1  0  0  0  0  0999 V2000
    5.7532  -11.4031   27.5773 C   0  0  0  0  0  0  0  0  0  0  0  0
    7.1250  -12.1319   26.6409 S   0  0  0  0  0  0  0  0  0  0  0  0
    6.5998  -13.6408   25.7761 C   0  0  0  0  0  0  0  0  0  0  0  0
    7.7240  -14.2260   24.9596 C   0  0  0  0  0  0  0  0  0  0  0  0
    7.2702  -15.4263   24.1722 C   0  0  2  0  0  0  0  0  0  0  0  0
    6.7039  -16.3841   25.0999 N   0  0  0  0  0  0  0  0  0  0  0  0
    8.3516  -16.0394   23.3796 C   0  0  0  0  0  0  0  0  0  0  0  0
    8.8361  -17.1282   23.7761 O   0  0  0  0  0  0  0  0  0  0  0  0
    8.8789  -15.4735   22.1941 N   0  0  0  0  0  0  0  0  0  0  0  0
    9.8417  -16.0816   21.3421 C   0  0  0  0  0  0  0  0  0  0  0  0
   11.1085  -16.4830   21.9784 C   0  0  0  0  0  0  0  0  0  0  0  0
   11.9348  -17.1080   21.2803 O   0  0  0  0  0  0  0  0  0  0  0  0
   11.4037  -16.1913   23.3191 N   0  0  0  0  0  0  0  0  0  0  0  0
   12.5444  -16.7618   24.0436 C   0  0  1  0  0  0  0  0  0  0  0  0
   13.3158  -15.6892   24.7171 C   0  0  0  0  0  0  0  0  0  0  0  0
   14.6025  -15.3442   24.0846 C   0  0  0  0  0  0  0  0  0  0  0  0
   14.6708  -14.6992   23.0104 O   0  0  0  0  0  0  0  0  0  0  0  0
   12.0485  -17.8189   24.9746 C   0  0  0  0  0  0  0  0  0  0  0  0
   12.7641  -19.0115   25.0987 O   0  0  0  0  0  0  0  0  0  0  0  0
   15.7935  -15.7356   24.6799 O   0  0  0  0  0  0  0  0  0  0  0  0
   11.0168  -17.7306   25.6752 O   0  0  0  0  0  0  0  0  0  0  0  0
  2  1  1  0
  3  2  1  0
  4  5  1  0
  4  3  1  0
  5  6  1  1
  7  8  2  0
  7  5  1  0
  9  7  1  0
 10  9  1  0
 10 11  1  0
 11 13  1  0
 12 11  2  0
 13 14  1  0
 14 18  1  0
 14 15  1  1
 16 15  1  0
 17 16  2  0
 18 19  1  0
 20 16  1  0
 21 18  2  0
M  END
$$$$
