MGD.pdb
     RDKit          3D

 21 20  0  0  1  0  0  0  0  0999 V2000
    6.5511  -11.1235   27.7327 C   0  0  0  0  0  0  0  0  0  0  0  0
    7.5165  -12.4090   26.8930 S   0  0  0  0  0  0  0  0  0  0  0  0
    6.7048  -12.9402   25.3569 C   0  0  0  0  0  0  0  0  0  0  0  0
    7.5477  -13.9403   24.6071 C   0  0  0  0  0  0  0  0  0  0  0  0
    6.8893  -15.2932   24.5575 C   0  0  2  0  0  0  0  0  0  0  0  0
    6.6923  -15.7472   25.9190 N   0  0  0  0  0  0  0  0  0  0  0  0
    7.6591  -16.2819   23.7807 C   0  0  0  0  0  0  0  0  0  0  0  0
    8.2961  -17.1649   24.4066 O   0  0  0  0  0  0  0  0  0  0  0  0
    7.7238  -16.2968   22.3667 N   0  0  0  0  0  0  0  0  0  0  0  0
    8.3869  -17.2765   21.5774 C   0  0  0  0  0  0  0  0  0  0  0  0
    9.8125  -17.4952   21.8787 C   0  0  0  0  0  0  0  0  0  0  0  0
   10.3941  -18.4267   21.2833 O   0  0  0  0  0  0  0  0  0  0  0  0
   10.5178  -16.7043   22.7989 N   0  0  0  0  0  0  0  0  0  0  0  0
   11.9629  -16.8133   23.0255 C   0  0  1  0  0  0  0  0  0  0  0  0
   12.6634  -15.6344   22.4610 C   0  0  0  0  0  0  0  0  0  0  0  0
   14.1362  -15.6948   22.5030 C   0  0  0  0  0  0  0  0  0  0  0  0
   14.7650  -16.0311   23.5355 O   0  0  0  0  0  0  0  0  0  0  0  0
   12.2116  -17.0172   24.4838 C   0  0  0  0  0  0  0  0  0  0  0  0
   11.1268  -17.0768   25.3609 O   0  0  0  0  0  0  0  0  0  0  0  0
   14.8748  -15.3730   21.3730 O   0  0  0  0  0  0  0  0  0  0  0  0
   13.3397  -17.1429   25.0079 O   0  0  0  0  0  0  0  0  0  0  0  0
  2  1  1  0
  3  2  1  0
  4  5  1  0
  4  3  1  0
  5  6  1  1
  7  8  2  0
  7  5  1  0
  9  7  1  0
 10  9  1  0
 10 11  1  0
 11 13  1  0
 12 11  2  0
 13 14  1  0
 14 18  1  0
 14 15  1  1
 16 15  1  0
 17 16  2  0
 18 19  1  0
 20 16  1  0
 21 18  2  0
M  END
$$$$
