MGD.pdb
     RDKit          3D

 21 20  0  0  1  0  0  0  0  0999 V2000
    7.4216  -11.0895   27.0876 C   0  0  0  0  0  0  0  0  0  0  0  0
    5.8623  -11.8904   26.6222 S   0  0  0  0  0  0  0  0  0  0  0  0
    6.0182  -13.7000   26.6592 C   0  0  0  0  0  0  0  0  0  0  0  0
    7.2715  -14.1584   25.9578 C   0  0  0  0  0  0  0  0  0  0  0  0
    6.9594  -14.8238   24.6439 C   0  0  2  0  0  0  0  0  0  0  0  0
    6.2322  -16.0457   24.9208 N   0  0  0  0  0  0  0  0  0  0  0  0
    8.1616  -15.0999   23.8365 C   0  0  0  0  0  0  0  0  0  0  0  0
    8.8184  -14.1248   23.3948 O   0  0  0  0  0  0  0  0  0  0  0  0
    8.6226  -16.4021   23.5279 N   0  0  0  0  0  0  0  0  0  0  0  0
    9.7736  -16.7121   22.7521 C   0  0  0  0  0  0  0  0  0  0  0  0
   11.0716  -16.5770   23.4358 C   0  0  0  0  0  0  0  0  0  0  0  0
   11.1200  -15.8462   24.4479 O   0  0  0  0  0  0  0  0  0  0  0  0
   12.2303  -17.2306   22.9885 N   0  0  0  0  0  0  0  0  0  0  0  0
   13.5281  -17.1401   23.6658 C   0  0  1  0  0  0  0  0  0  0  0  0
   14.1180  -18.4905   23.8320 C   0  0  0  0  0  0  0  0  0  0  0  0
   13.3788  -19.3965   24.7307 C   0  0  0  0  0  0  0  0  0  0  0  0
   12.9991  -19.0452   25.8738 O   0  0  0  0  0  0  0  0  0  0  0  0
   14.4031  -16.1918   22.9139 C   0  0  0  0  0  0  0  0  0  0  0  0
   14.0605  -15.8337   21.6085 O   0  0  0  0  0  0  0  0  0  0  0  0
   13.0808  -20.6880   24.3195 O   0  0  0  0  0  0  0  0  0  0  0  0
   15.4490  -15.6733   23.3613 O   0  0  0  0  0  0  0  0  0  0  0  0
  2  1  1  0
  3  2  1  0
  4  5  1  0
  4  3  1  0
  5  6  1  1
  7  8  2  0
  7  5  1  0
  9  7  1  0
 10  9  1  0
 10 11  1  0
 11 13  1  0
 12 11  2  0
 13 14  1  0
 14 18  1  0
 14 15  1  6
 16 15  1  0
 17 16  2  0
 18 19  1  0
 20 16  1  0
 21 18  2  0
M  END
$$$$
