MGD.pdb
     RDKit          3D

 21 20  0  0  1  0  0  0  0  0999 V2000
    7.5134  -11.1003   28.0404 C   0  0  0  0  0  0  0  0  0  0  0  0
    6.0705  -11.6576   27.0934 S   0  0  0  0  0  0  0  0  0  0  0  0
    6.2423  -13.3976   26.6000 C   0  0  0  0  0  0  0  0  0  0  0  0
    6.8956  -13.5237   25.2472 C   0  0  0  0  0  0  0  0  0  0  0  0
    7.1334  -14.9638   24.8787 C   0  0  2  0  0  0  0  0  0  0  0  0
    7.9276  -15.5705   25.9274 N   0  0  0  0  0  0  0  0  0  0  0  0
    7.7861  -15.1240   23.5666 C   0  0  0  0  0  0  0  0  0  0  0  0
    7.1643  -14.7465   22.5427 O   0  0  0  0  0  0  0  0  0  0  0  0
    9.0762  -15.6791   23.3898 N   0  0  0  0  0  0  0  0  0  0  0  0
    9.7338  -15.8678   22.1430 C   0  0  0  0  0  0  0  0  0  0  0  0
   11.1095  -16.3911   22.2086 C   0  0  0  0  0  0  0  0  0  0  0  0
   11.6594  -16.7113   21.1335 O   0  0  0  0  0  0  0  0  0  0  0  0
   11.8021  -16.5393   23.4202 N   0  0  0  0  0  0  0  0  0  0  0  0
   12.8056  -17.5816   23.6614 C   0  0  1  0  0  0  0  0  0  0  0  0
   14.0308  -16.9906   24.2521 C   0  0  0  0  0  0  0  0  0  0  0  0
   14.6853  -15.9492   23.4386 C   0  0  0  0  0  0  0  0  0  0  0  0
   15.4778  -15.1111   23.9325 O   0  0  0  0  0  0  0  0  0  0  0  0
   12.1959  -18.6583   24.4974 C   0  0  0  0  0  0  0  0  0  0  0  0
   10.8780  -18.5192   24.9372 O   0  0  0  0  0  0  0  0  0  0  0  0
   14.4315  -15.8735   22.0763 O   0  0  0  0  0  0  0  0  0  0  0  0
   12.7776  -19.7068   24.8516 O   0  0  0  0  0  0  0  0  0  0  0  0
  2  1  1  0
  3  2  1  0
  4  5  1  0
  4  3  1  0
  5  6  1  1
  7  8  2  0
  7  5  1  0
  9  7  1  0
 10  9  1  0
 10 11  1  0
 11 13  1  0
 12 11  2  0
 13 14  1  0
 14 18  1  0
 14 15  1  1
 16 15  1  0
 17 16  2  0
 18 19  1  0
 20 16  1  0
 21 18  2  0
M  END
$$$$
