SVV.pdb
     RDKit          3D

 21 20  0  0  1  0  0  0  0  0999 V2000
   21.3484  -15.7483  -16.2814 O   0  0  0  0  0  0  0  0  0  0  0  0
   20.8724  -14.5050  -16.6537 C   0  0  0  0  0  0  0  0  0  0  0  0
   19.3409  -14.4941  -16.7097 C   0  0  2  0  0  0  0  0  0  0  0  0
   18.9232  -15.2750  -17.8590 N   0  0  0  0  0  0  0  0  0  0  0  0
   18.9197  -13.1055  -16.9160 C   0  0  0  0  0  0  0  0  0  0  0  0
   18.9082  -12.6548  -18.1048 O   0  0  0  0  0  0  0  0  0  0  0  0
   15.7600  -11.2573  -16.7352 C   0  0  0  0  0  0  0  0  0  0  0  0
   16.7146  -10.6147  -15.7326 C   0  0  2  0  0  0  0  0  0  0  0  0
   16.4434   -9.1338  -15.6431 C   0  0  0  0  0  0  0  0  0  0  0  0
   18.1602  -10.8144  -16.1978 C   0  0  2  0  0  0  0  0  0  0  0  0
   18.5213  -12.2190  -15.8857 N   0  0  0  0  0  0  0  0  0  0  0  0
   19.0157   -9.9148  -15.4087 C   0  0  0  0  0  0  0  0  0  0  0  0
   19.0498  -10.1156  -14.1360 O   0  0  0  0  0  0  0  0  0  0  0  0
   22.6980   -9.5904  -15.4827 C   0  0  0  0  0  0  0  0  0  0  0  0
   22.1603   -8.1999  -15.4394 C   0  0  1  0  0  0  0  0  0  0  0  0
   22.2049   -7.5422  -16.8042 C   0  0  0  0  0  0  0  0  0  0  0  0
   20.7250   -8.1325  -14.9552 C   0  0  2  0  0  0  0  0  0  0  0  0
   19.8259   -8.8470  -15.8529 N   0  0  0  0  0  0  0  0  0  0  0  0
   20.2706   -6.7453  -14.8127 C   0  0  0  0  0  0  0  0  0  0  0  0
   19.5516   -6.2311  -15.6936 O   0  0  0  0  0  0  0  0  0  0  0  0
   20.5928   -5.9335  -13.7317 O   0  0  0  0  0  0  0  0  0  0  0  0
  2  1  1  0
  2  3  1  0
  3  4  1  6
  5  3  1  0
  6  5  2  0
  8  7  1  6
  8 10  1  0
  9  8  1  0
 10 11  1  1
 10 12  1  0
 11  5  1  0
 12 18  1  0
 13 12  2  0
 15 14  1  6
 15 16  1  0
 17 15  1  0
 17 19  1  0
 17 18  1  6
 19 20  2  0
 19 21  1  0
M  END
$$$$
