SVV.pdb
     RDKit          3D

 21 20  0  0  1  0  0  0  0  0999 V2000
   21.3108  -13.8476  -21.8486 O   0  0  0  0  0  0  0  0  0  0  0  0
   21.0452  -13.3051  -20.6051 C   0  0  0  0  0  0  0  0  0  0  0  0
   21.5747  -14.2070  -19.4847 C   0  0  2  0  0  0  0  0  0  0  0  0
   20.7274  -15.3824  -19.4097 N   0  0  0  0  0  0  0  0  0  0  0  0
   21.4482  -13.4642  -18.2276 C   0  0  0  0  0  0  0  0  0  0  0  0
   20.3083  -13.4308  -17.6654 O   0  0  0  0  0  0  0  0  0  0  0  0
   23.4075  -11.6360  -14.0988 C   0  0  0  0  0  0  0  0  0  0  0  0
   23.4997  -12.4177  -15.4063 C   0  0  2  0  0  0  0  0  0  0  0  0
   24.7447  -12.0162  -16.1570 C   0  0  0  0  0  0  0  0  0  0  0  0
   22.2836  -12.1009  -16.2820 C   0  0  2  0  0  0  0  0  0  0  0  0
   22.5054  -12.7750  -17.5847 N   0  0  0  0  0  0  0  0  0  0  0  0
   22.2499  -10.6460  -16.4968 C   0  0  0  0  0  0  0  0  0  0  0  0
   23.0308  -10.1763  -17.4083 O   0  0  0  0  0  0  0  0  0  0  0  0
   20.0996   -8.7734  -18.3418 C   0  0  0  0  0  0  0  0  0  0  0  0
   20.1891   -7.9783  -17.0830 C   0  0  1  0  0  0  0  0  0  0  0  0
   18.9985   -8.2294  -16.1793 C   0  0  0  0  0  0  0  0  0  0  0  0
   21.4369   -8.2808  -16.2764 C   0  0  2  0  0  0  0  0  0  0  0  0
   21.4657   -9.6717  -15.8413 N   0  0  0  0  0  0  0  0  0  0  0  0
   21.5470   -7.4021  -15.1073 C   0  0  0  0  0  0  0  0  0  0  0  0
   21.2469   -7.8308  -13.9744 O   0  0  0  0  0  0  0  0  0  0  0  0
   21.9757   -6.0816  -15.1705 O   0  0  0  0  0  0  0  0  0  0  0  0
  2  1  1  0
  2  3  1  0
  3  4  1  1
  5  3  1  0
  6  5  2  0
  8  7  1  1
  8 10  1  0
  9  8  1  0
 10 11  1  6
 10 12  1  0
 11  5  1  0
 12 18  1  0
 13 12  2  0
 15 14  1  6
 15 16  1  0
 17 15  1  0
 17 19  1  0
 17 18  1  1
 19 20  2  0
 19 21  1  0
M  END
$$$$
