SVV.pdb
     RDKit          3D

 21 20  0  0  1  0  0  0  0  0999 V2000
   23.4138  -19.5360  -11.9865 O   0  0  0  0  0  0  0  0  0  0  0  0
   24.1073  -20.3591  -11.1190 C   0  0  0  0  0  0  0  0  0  0  0  0
   25.4683  -20.7546  -11.7022 C   0  0  2  0  0  0  0  0  0  0  0  0
   25.2720  -21.8915  -12.5820 N   0  0  0  0  0  0  0  0  0  0  0  0
   26.3184  -21.1754  -10.5849 C   0  0  0  0  0  0  0  0  0  0  0  0
   26.1152  -22.3241  -10.0791 O   0  0  0  0  0  0  0  0  0  0  0  0
   30.1413  -21.2221  -10.3478 C   0  0  0  0  0  0  0  0  0  0  0  0
   29.6018  -20.4965   -9.1182 C   0  0  2  0  0  0  0  0  0  0  0  0
   30.4137  -20.8721   -7.9040 C   0  0  0  0  0  0  0  0  0  0  0  0
   28.1472  -20.9096   -8.8742 C   0  0  2  0  0  0  0  0  0  0  0  0
   27.3571  -20.3958  -10.0198 N   0  0  0  0  0  0  0  0  0  0  0  0
   27.6909  -20.2456   -7.6434 C   0  0  0  0  0  0  0  0  0  0  0  0
   27.3826  -18.9977   -7.7380 O   0  0  0  0  0  0  0  0  0  0  0  0
   24.7277  -21.0001   -5.4207 C   0  0  0  0  0  0  0  0  0  0  0  0
   25.8863  -20.7120   -4.5266 C   0  0  1  0  0  0  0  0  0  0  0  0
   26.4571  -21.9816   -3.9271 C   0  0  0  0  0  0  0  0  0  0  0  0
   27.0218  -20.0002   -5.2359 C   0  0  2  0  0  0  0  0  0  0  0  0
   27.5319  -20.7897   -6.3500 N   0  0  0  0  0  0  0  0  0  0  0  0
   28.1203  -19.6904   -4.3148 C   0  0  0  0  0  0  0  0  0  0  0  0
   29.1638  -20.3744   -4.3363 O   0  0  0  0  0  0  0  0  0  0  0  0
   28.0832  -18.6554   -3.3880 O   0  0  0  0  0  0  0  0  0  0  0  0
  2  1  1  0
  2  3  1  0
  3  4  1  6
  5  3  1  0
  6  5  2  0
  8  7  1  6
  8 10  1  0
  9  8  1  0
 10 11  1  6
 10 12  1  0
 11  5  1  0
 12 18  1  0
 13 12  2  0
 15 14  1  6
 15 16  1  0
 17 15  1  0
 17 19  1  0
 17 18  1  6
 19 20  2  0
 19 21  1  0
M  END
$$$$
