SVV.pdb
     RDKit          3D

 21 20  0  0  1  0  0  0  0  0999 V2000
   18.1646  -16.3067  -16.7394 O   0  0  0  0  0  0  0  0  0  0  0  0
   18.7777  -15.0963  -17.0043 C   0  0  0  0  0  0  0  0  0  0  0  0
   18.1153  -14.3900  -18.1922 C   0  0  2  0  0  0  0  0  0  0  0  0
   18.4462  -15.1245  -19.3989 N   0  0  0  0  0  0  0  0  0  0  0  0
   18.7034  -13.0511  -18.2894 C   0  0  0  0  0  0  0  0  0  0  0  0
   19.7547  -12.9096  -18.9903 O   0  0  0  0  0  0  0  0  0  0  0  0
   17.3158   -9.6815  -19.5661 C   0  0  0  0  0  0  0  0  0  0  0  0
   17.7663   -9.5525  -18.1136 C   0  0  2  0  0  0  0  0  0  0  0  0
   18.3302   -8.1747  -17.8722 C   0  0  0  0  0  0  0  0  0  0  0  0
   18.8624  -10.5817  -17.8215 C   0  0  2  0  0  0  0  0  0  0  0  0
   18.1876  -11.8928  -17.6582 N   0  0  0  0  0  0  0  0  0  0  0  0
   19.5006  -10.2113  -16.5490 C   0  0  0  0  0  0  0  0  0  0  0  0
   18.7969  -10.3674  -15.4805 O   0  0  0  0  0  0  0  0  0  0  0  0
   23.7329   -9.8503  -15.6703 C   0  0  0  0  0  0  0  0  0  0  0  0
   22.6222  -10.3234  -14.7944 C   0  0  1  0  0  0  0  0  0  0  0  0
   22.9933  -10.2366  -13.3275 C   0  0  0  0  0  0  0  0  0  0  0  0
   21.3409   -9.5343  -14.9810 C   0  0  2  0  0  0  0  0  0  0  0  0
   20.7999   -9.7065  -16.3235 N   0  0  0  0  0  0  0  0  0  0  0  0
   21.5464   -8.1061  -14.7178 C   0  0  0  0  0  0  0  0  0  0  0  0
   21.8247   -7.3327  -15.6567 O   0  0  0  0  0  0  0  0  0  0  0  0
   21.4507   -7.5311  -13.4562 O   0  0  0  0  0  0  0  0  0  0  0  0
  2  1  1  0
  2  3  1  0
  3  4  1  6
  5  3  1  0
  6  5  2  0
  8  7  1  6
  8 10  1  0
  9  8  1  0
 10 11  1  1
 10 12  1  0
 11  5  1  0
 12 18  1  0
 13 12  2  0
 15 14  1  6
 15 16  1  0
 17 15  1  0
 17 19  1  0
 17 18  1  6
 19 20  2  0
 19 21  1  0
M  END
$$$$
