SVV.pdb
     RDKit          3D

 21 20  0  0  1  0  0  0  0  0999 V2000
   14.7137  -13.5427  -10.5938 O   0  0  0  0  0  0  0  0  0  0  0  0
   14.9780  -12.2440  -10.9872 C   0  0  0  0  0  0  0  0  0  0  0  0
   14.3177  -11.2352  -10.0409 C   0  0  2  0  0  0  0  0  0  0  0  0
   12.8804  -11.3181  -10.2204 N   0  0  0  0  0  0  0  0  0  0  0  0
   14.7587   -9.8983  -10.4487 C   0  0  0  0  0  0  0  0  0  0  0  0
   14.1674   -9.3475  -11.4302 O   0  0  0  0  0  0  0  0  0  0  0  0
   14.7038   -6.6546   -8.5821 C   0  0  0  0  0  0  0  0  0  0  0  0
   16.1380   -6.9014   -9.0419 C   0  0  2  0  0  0  0  0  0  0  0  0
   16.7948   -5.5914   -9.3982 C   0  0  0  0  0  0  0  0  0  0  0  0
   16.1328   -7.7942  -10.2865 C   0  0  2  0  0  0  0  0  0  0  0  0
   15.8010   -9.1659   -9.8294 N   0  0  0  0  0  0  0  0  0  0  0  0
   17.4929   -7.7935  -10.8470 C   0  0  0  0  0  0  0  0  0  0  0  0
   18.4523   -8.0949  -10.0408 O   0  0  0  0  0  0  0  0  0  0  0  0
   20.8893   -8.6337  -14.2233 C   0  0  0  0  0  0  0  0  0  0  0  0
   19.4666   -8.4738  -13.8048 C   0  0  1  0  0  0  0  0  0  0  0  0
   18.8232   -9.8105  -13.4943 C   0  0  0  0  0  0  0  0  0  0  0  0
   19.3032   -7.6006  -12.5760 C   0  0  2  0  0  0  0  0  0  0  0  0
   17.9068   -7.5120  -12.1674 N   0  0  0  0  0  0  0  0  0  0  0  0
   19.8315   -6.2511  -12.8018 C   0  0  0  0  0  0  0  0  0  0  0  0
   19.0803   -5.3506  -13.2282 O   0  0  0  0  0  0  0  0  0  0  0  0
   21.1527   -5.8892  -12.5676 O   0  0  0  0  0  0  0  0  0  0  0  0
  2  1  1  0
  2  3  1  0
  3  4  1  6
  5  3  1  0
  6  5  2  0
  8  7  1  6
  8 10  1  0
  9  8  1  0
 10 11  1  1
 10 12  1  0
 11  5  1  0
 12 18  1  0
 13 12  2  0
 15 14  1  1
 15 16  1  0
 17 15  1  0
 17 19  1  0
 17 18  1  6
 19 20  2  0
 19 21  1  0
M  END
$$$$
