SVV.pdb
     RDKit          3D

 21 20  0  0  1  0  0  0  0  0999 V2000
   24.7222  -20.3324   -6.9796 O   0  0  0  0  0  0  0  0  0  0  0  0
   25.8659  -21.0619   -6.7131 C   0  0  0  0  0  0  0  0  0  0  0  0
   27.1212  -20.3022   -7.1557 C   0  0  2  0  0  0  0  0  0  0  0  0
   27.1583  -19.0360   -6.4482 N   0  0  0  0  0  0  0  0  0  0  0  0
   26.9848  -20.0277   -8.5889 C   0  0  0  0  0  0  0  0  0  0  0  0
   26.5748  -18.8767   -8.9406 O   0  0  0  0  0  0  0  0  0  0  0  0
   29.6201  -20.7812  -11.3156 C   0  0  0  0  0  0  0  0  0  0  0  0
   28.2631  -21.2756  -11.8086 C   0  0  2  0  0  0  0  0  0  0  0  0
   28.1089  -20.9703  -13.2775 C   0  0  0  0  0  0  0  0  0  0  0  0
   27.1457  -20.5578  -11.0456 C   0  0  2  0  0  0  0  0  0  0  0  0
   27.2764  -20.9523   -9.6215 N   0  0  0  0  0  0  0  0  0  0  0  0
   25.8593  -21.0506  -11.5615 C   0  0  0  0  0  0  0  0  0  0  0  0
   25.5541  -22.2723  -11.2865 O   0  0  0  0  0  0  0  0  0  0  0  0
   21.1526  -20.7761  -12.8259 C   0  0  0  0  0  0  0  0  0  0  0  0
   22.4376  -20.1864  -12.3506 C   0  0  1  0  0  0  0  0  0  0  0  0
   22.4667  -20.0567  -10.8408 C   0  0  0  0  0  0  0  0  0  0  0  0
   23.6508  -21.0012  -12.7548 C   0  0  2  0  0  0  0  0  0  0  0  0
   24.8885  -20.3637  -12.3230 N   0  0  0  0  0  0  0  0  0  0  0  0
   23.6940  -21.2172  -14.2049 C   0  0  0  0  0  0  0  0  0  0  0  0
   24.1577  -20.3330  -14.9535 O   0  0  0  0  0  0  0  0  0  0  0  0
   23.2410  -22.3739  -14.8279 O   0  0  0  0  0  0  0  0  0  0  0  0
  2  1  1  0
  2  3  1  0
  3  4  1  1
  5  3  1  0
  6  5  2  0
  8  7  1  1
  8 10  1  0
  9  8  1  0
 10 11  1  1
 10 12  1  0
 11  5  1  0
 12 18  1  0
 13 12  2  0
 15 14  1  1
 15 16  1  0
 17 15  1  0
 17 19  1  0
 17 18  1  6
 19 20  2  0
 19 21  1  0
M  END
$$$$
