VYI.pdb
     RDKit          3D

 28 28  0  0  1  0  0  0  0  0999 V2000
   21.2413  -21.0692  -14.2537 C   0  0  0  0  0  0  0  0  0  0  0  0
   21.3441  -22.1238  -13.1402 C   0  0  2  0  0  0  0  0  0  0  0  0
   19.9810  -22.7150  -13.0045 C   0  0  0  0  0  0  0  0  0  0  0  0
   21.8457  -21.4242  -11.8909 C   0  0  2  0  0  0  0  0  0  0  0  0
   20.8494  -20.3971  -11.5322 N   0  0  0  0  0  0  0  0  0  0  0  0
   23.1338  -20.7550  -12.0508 C   0  0  0  0  0  0  0  0  0  0  0  0
   23.1671  -19.4863  -12.1681 O   0  0  0  0  0  0  0  0  0  0  0  0
   26.7395  -19.4583   -6.0708 O   0  0  0  0  0  0  0  0  0  0  0  0
   26.7423  -19.9233   -7.3889 C   0  0  0  0  0  0  0  0  0  0  0  0
   25.7045  -20.6988   -7.8788 C   0  0  0  0  0  0  0  0  0  0  0  0
   25.6708  -21.1756   -9.1706 C   0  0  0  0  0  0  0  0  0  0  0  0
   26.6988  -20.8866  -10.0390 C   0  0  0  0  0  0  0  0  0  0  0  0
   26.7187  -21.3723  -11.4438 C   0  0  0  0  0  0  0  0  0  0  0  0
   25.6449  -20.6492  -12.2631 C   0  0  2  0  0  0  0  0  0  0  0  0
   24.4060  -21.3811  -12.0916 N   0  0  0  0  0  0  0  0  0  0  0  0
   26.0431  -20.5744  -13.6921 C   0  0  0  0  0  0  0  0  0  0  0  0
   25.9367  -21.6088  -14.3669 O   0  0  0  0  0  0  0  0  0  0  0  0
   27.7430  -20.1163   -9.5746 C   0  0  0  0  0  0  0  0  0  0  0  0
   27.7568  -19.6487   -8.2761 C   0  0  0  0  0  0  0  0  0  0  0  0
   24.5932  -16.0377  -16.0620 C   0  0  0  0  0  0  0  0  0  0  0  0
   24.9346  -17.5074  -15.7949 C   0  0  0  0  0  0  0  0  0  0  0  0
   26.4009  -17.6885  -15.9910 C   0  0  2  0  0  0  0  0  0  0  0  0
   26.6628  -17.4412  -17.4803 C   0  0  0  0  0  0  0  0  0  0  0  0
   26.8310  -19.0896  -15.6133 C   0  0  2  0  0  0  0  0  0  0  0  0
   26.5186  -19.3776  -14.2444 N   0  0  0  0  0  0  0  0  0  0  0  0
   28.2179  -19.3877  -15.9736 C   0  0  0  0  0  0  0  0  0  0  0  0
   29.3268  -18.9115  -15.3186 O   0  0  0  0  0  0  0  0  0  0  0  0
   28.4318  -20.1509  -16.9757 O   0  0  0  0  0  0  0  0  0  0  0  0
  2  1  1  6
  3  2  1  0
  4  2  1  0
  4  5  1  6
  6  7  2  0
  6  4  1  0
  9  8  1  0
 10  9  2  0
 11 12  2  0
 11 10  1  0
 12 18  1  0
 14 13  1  1
 13 12  1  0
 14 15  1  0
 15  6  1  0
 16 17  2  0
 16 14  1  0
 18 19  2  0
 19  9  1  0
 20 21  1  0
 21 22  1  0
 22 24  1  0
 22 23  1  6
 24 25  1  1
 25 16  1  0
 26 24  1  0
 27 26  1  0
 28 26  2  0
M  END
$$$$
