VYI.pdb
     RDKit          3D

 28 28  0  0  1  0  0  0  0  0999 V2000
   28.4326  -21.7479  -15.1374 C   0  0  0  0  0  0  0  0  0  0  0  0
   27.5444  -22.3639  -16.2302 C   0  0  2  0  0  0  0  0  0  0  0  0
   28.4759  -22.9275  -17.2503 C   0  0  0  0  0  0  0  0  0  0  0  0
   26.6366  -21.2677  -16.7553 C   0  0  2  0  0  0  0  0  0  0  0  0
   27.4509  -20.4050  -17.6323 N   0  0  0  0  0  0  0  0  0  0  0  0
   26.0529  -20.4204  -15.7189 C   0  0  0  0  0  0  0  0  0  0  0  0
   26.4874  -19.2319  -15.5672 O   0  0  0  0  0  0  0  0  0  0  0  0
   19.1136  -22.2615  -16.0209 O   0  0  0  0  0  0  0  0  0  0  0  0
   20.1860  -21.4768  -15.5873 C   0  0  0  0  0  0  0  0  0  0  0  0
   20.1765  -20.1002  -15.7411 C   0  0  0  0  0  0  0  0  0  0  0  0
   21.2130  -19.2930  -15.3273 C   0  0  0  0  0  0  0  0  0  0  0  0
   22.3225  -19.8476  -14.7307 C   0  0  0  0  0  0  0  0  0  0  0  0
   23.4720  -19.0290  -14.2635 C   0  0  0  0  0  0  0  0  0  0  0  0
   24.5807  -19.9406  -13.7279 C   0  0  2  0  0  0  0  0  0  0  0  0
   25.0135  -20.7833  -14.8245 N   0  0  0  0  0  0  0  0  0  0  0  0
   24.0848  -20.7450  -12.5820 C   0  0  0  0  0  0  0  0  0  0  0  0
   23.6562  -21.8818  -12.8286 O   0  0  0  0  0  0  0  0  0  0  0  0
   22.3552  -21.2157  -14.5666 C   0  0  0  0  0  0  0  0  0  0  0  0
   21.3054  -22.0059  -14.9887 C   0  0  0  0  0  0  0  0  0  0  0  0
   26.7094  -19.7158   -8.0024 C   0  0  0  0  0  0  0  0  0  0  0  0
   25.9767  -20.4801   -9.1099 C   0  0  0  0  0  0  0  0  0  0  0  0
   24.5104  -20.3380   -8.8830 C   0  0  2  0  0  0  0  0  0  0  0  0
   24.1961  -21.1507   -7.6227 C   0  0  0  0  0  0  0  0  0  0  0  0
   23.7236  -20.8765  -10.0583 C   0  0  2  0  0  0  0  0  0  0  0  0
   24.1054  -20.2296  -11.2792 N   0  0  0  0  0  0  0  0  0  0  0  0
   22.2779  -20.8925   -9.8303 C   0  0  0  0  0  0  0  0  0  0  0  0
   21.5753  -21.9314   -9.2715 O   0  0  0  0  0  0  0  0  0  0  0  0
   21.6001  -19.8651  -10.1731 O   0  0  0  0  0  0  0  0  0  0  0  0
  2  1  1  1
  3  2  1  0
  4  2  1  0
  4  5  1  6
  6  7  2  0
  6  4  1  0
  9  8  1  0
 10  9  2  0
 11 12  2  0
 11 10  1  0
 12 18  1  0
 14 13  1  6
 13 12  1  0
 14 15  1  0
 15  6  1  0
 16 17  2  0
 16 14  1  0
 18 19  2  0
 19  9  1  0
 20 21  1  0
 21 22  1  0
 22 24  1  0
 22 23  1  1
 24 25  1  6
 25 16  1  0
 26 24  1  0
 27 26  1  0
 28 26  2  0
M  END
$$$$
