VYI.pdb
     RDKit          3D

 28 28  0  0  1  0  0  0  0  0999 V2000
   29.8580  -18.8630  -16.0409 C   0  0  0  0  0  0  0  0  0  0  0  0
   28.8709  -18.7051  -14.8734 C   0  0  2  0  0  0  0  0  0  0  0  0
   29.6246  -19.0812  -13.6419 C   0  0  0  0  0  0  0  0  0  0  0  0
   27.6725  -19.5889  -15.1633 C   0  0  2  0  0  0  0  0  0  0  0  0
   27.0855  -19.1301  -16.4366 N   0  0  0  0  0  0  0  0  0  0  0  0
   26.6243  -19.5355  -14.1477 C   0  0  0  0  0  0  0  0  0  0  0  0
   25.9705  -18.4539  -13.9828 O   0  0  0  0  0  0  0  0  0  0  0  0
   19.4487  -19.9937   -9.5215 O   0  0  0  0  0  0  0  0  0  0  0  0
   20.5481  -20.2723  -10.3383 C   0  0  0  0  0  0  0  0  0  0  0  0
   21.3919  -21.3370  -10.0680 C   0  0  0  0  0  0  0  0  0  0  0  0
   22.4846  -21.6438  -10.8483 C   0  0  0  0  0  0  0  0  0  0  0  0
   22.7791  -20.8780  -11.9535 C   0  0  0  0  0  0  0  0  0  0  0  0
   23.9437  -21.1592  -12.8335 C   0  0  0  0  0  0  0  0  0  0  0  0
   25.1931  -20.4600  -12.2881 C   0  0  2  0  0  0  0  0  0  0  0  0
   26.2333  -20.5938  -13.2880 N   0  0  0  0  0  0  0  0  0  0  0  0
   25.6001  -21.0588  -10.9912 C   0  0  0  0  0  0  0  0  0  0  0  0
   26.1475  -22.1706  -11.0252 O   0  0  0  0  0  0  0  0  0  0  0  0
   21.9539  -19.8128  -12.2432 C   0  0  0  0  0  0  0  0  0  0  0  0
   20.8639  -19.5231  -11.4476 C   0  0  0  0  0  0  0  0  0  0  0  0
   28.4863  -18.7400   -7.2918 C   0  0  0  0  0  0  0  0  0  0  0  0
   27.7547  -19.8068   -8.1129 C   0  0  0  0  0  0  0  0  0  0  0  0
   26.3536  -19.9002   -7.6130 C   0  0  2  0  0  0  0  0  0  0  0  0
   26.4517  -20.4024   -6.1688 C   0  0  0  0  0  0  0  0  0  0  0  0
   25.5425  -20.8690   -8.4461 C   0  0  2  0  0  0  0  0  0  0  0  0
   25.3698  -20.3852   -9.7844 N   0  0  0  0  0  0  0  0  0  0  0  0
   24.2926  -21.2802   -7.8052 C   0  0  0  0  0  0  0  0  0  0  0  0
   24.1362  -22.3907   -7.0129 O   0  0  0  0  0  0  0  0  0  0  0  0
   23.2538  -20.5590   -7.9873 O   0  0  0  0  0  0  0  0  0  0  0  0
  2  1  1  6
  3  2  1  0
  4  2  1  0
  4  5  1  6
  6  7  2  0
  6  4  1  0
  9  8  1  0
 10  9  2  0
 11 12  2  0
 11 10  1  0
 12 18  1  0
 14 13  1  6
 13 12  1  0
 14 15  1  0
 15  6  1  0
 16 17  2  0
 16 14  1  0
 18 19  2  0
 19  9  1  0
 20 21  1  0
 21 22  1  0
 22 24  1  0
 22 23  1  1
 24 25  1  6
 25 16  1  0
 26 24  1  0
 27 26  1  0
 28 26  2  0
M  END
$$$$
