VYI.pdb
     RDKit          3D

 28 28  0  0  1  0  0  0  0  0999 V2000
   28.3977  -19.2732  -12.8196 C   0  0  0  0  0  0  0  0  0  0  0  0
   28.2887  -19.5867  -14.3204 C   0  0  2  0  0  0  0  0  0  0  0  0
   29.2300  -18.6543  -15.0063 C   0  0  0  0  0  0  0  0  0  0  0  0
   26.8362  -19.4104  -14.7214 C   0  0  2  0  0  0  0  0  0  0  0  0
   26.4856  -17.9958  -14.4929 N   0  0  0  0  0  0  0  0  0  0  0  0
   25.8968  -20.2284  -13.9589 C   0  0  0  0  0  0  0  0  0  0  0  0
   25.8298  -21.4800  -14.1898 O   0  0  0  0  0  0  0  0  0  0  0  0
   29.0078  -21.2043   -8.2804 O   0  0  0  0  0  0  0  0  0  0  0  0
   27.7780  -20.9570   -8.8969 C   0  0  0  0  0  0  0  0  0  0  0  0
   27.3461  -21.7202   -9.9691 C   0  0  0  0  0  0  0  0  0  0  0  0
   26.1418  -21.5079  -10.6029 C   0  0  0  0  0  0  0  0  0  0  0  0
   25.3068  -20.5003  -10.1765 C   0  0  0  0  0  0  0  0  0  0  0  0
   23.9957  -20.2227  -10.8199 C   0  0  0  0  0  0  0  0  0  0  0  0
   24.0415  -20.6261  -12.2972 C   0  0  2  0  0  0  0  0  0  0  0  0
   25.0136  -19.7706  -12.9477 N   0  0  0  0  0  0  0  0  0  0  0  0
   22.6970  -20.4949  -12.9144 C   0  0  0  0  0  0  0  0  0  0  0  0
   22.2643  -19.3474  -13.0962 O   0  0  0  0  0  0  0  0  0  0  0  0
   25.7147  -19.7270   -9.1111 C   0  0  0  0  0  0  0  0  0  0  0  0
   26.9258  -19.9570   -8.4903 C   0  0  0  0  0  0  0  0  0  0  0  0
   19.4664  -23.4422  -17.0543 C   0  0  0  0  0  0  0  0  0  0  0  0
   19.3388  -22.6443  -15.7525 C   0  0  0  0  0  0  0  0  0  0  0  0
   20.6764  -22.6058  -15.0962 C   0  0  2  0  0  0  0  0  0  0  0  0
   20.9774  -24.0445  -14.6633 C   0  0  0  0  0  0  0  0  0  0  0  0
   20.6642  -21.6919  -13.8899 C   0  0  2  0  0  0  0  0  0  0  0  0
   21.9564  -21.6291  -13.2726 N   0  0  0  0  0  0  0  0  0  0  0  0
   19.5796  -21.9840  -12.9515 C   0  0  0  0  0  0  0  0  0  0  0  0
   19.7188  -22.6616  -11.7655 O   0  0  0  0  0  0  0  0  0  0  0  0
   18.4022  -21.5834  -13.2443 O   0  0  0  0  0  0  0  0  0  0  0  0
  2  1  1  1
  3  2  1  0
  4  2  1  0
  4  5  1  1
  6  7  2  0
  6  4  1  0
  9  8  1  0
 10  9  2  0
 11 12  2  0
 11 10  1  0
 12 18  1  0
 14 13  1  1
 13 12  1  0
 14 15  1  0
 15  6  1  0
 16 17  2  0
 16 14  1  0
 18 19  2  0
 19  9  1  0
 20 21  1  0
 21 22  1  0
 22 24  1  0
 22 23  1  1
 24 25  1  1
 25 16  1  0
 26 24  1  0
 27 26  1  0
 28 26  2  0
M  END
$$$$
