VYI.pdb
     RDKit          3D

 28 28  0  0  1  0  0  0  0  0999 V2000
   29.0517  -19.2285  -13.3097 C   0  0  0  0  0  0  0  0  0  0  0  0
   28.5742  -20.6386  -13.6919 C   0  0  2  0  0  0  0  0  0  0  0  0
   29.1564  -20.9215  -15.0362 C   0  0  0  0  0  0  0  0  0  0  0  0
   27.0574  -20.6335  -13.6598 C   0  0  2  0  0  0  0  0  0  0  0  0
   26.5995  -19.6581  -14.6673 N   0  0  0  0  0  0  0  0  0  0  0  0
   26.4830  -20.2453  -12.3744 C   0  0  0  0  0  0  0  0  0  0  0  0
   26.2534  -19.0136  -12.1405 O   0  0  0  0  0  0  0  0  0  0  0  0
   20.7051  -19.0457  -13.8462 O   0  0  0  0  0  0  0  0  0  0  0  0
   21.5564  -19.5818  -12.8759 C   0  0  0  0  0  0  0  0  0  0  0  0
   22.3450  -20.6883  -13.1450 C   0  0  0  0  0  0  0  0  0  0  0  0
   23.1959  -21.2456  -12.2164 C   0  0  0  0  0  0  0  0  0  0  0  0
   23.2905  -20.7026  -10.9551 C   0  0  0  0  0  0  0  0  0  0  0  0
   24.1902  -21.2592   -9.9108 C   0  0  0  0  0  0  0  0  0  0  0  0
   25.5914  -20.6558  -10.0510 C   0  0  2  0  0  0  0  0  0  0  0  0
   26.1360  -21.1184  -11.3117 N   0  0  0  0  0  0  0  0  0  0  0  0
   26.4474  -21.0562   -8.9051 C   0  0  0  0  0  0  0  0  0  0  0  0
   27.0688  -22.1242   -9.0055 O   0  0  0  0  0  0  0  0  0  0  0  0
   22.5155  -19.6009  -10.6633 C   0  0  0  0  0  0  0  0  0  0  0  0
   21.6693  -19.0584  -11.6091 C   0  0  0  0  0  0  0  0  0  0  0  0
   29.4696  -17.6859   -5.9326 C   0  0  0  0  0  0  0  0  0  0  0  0
   28.9162  -18.9539   -6.5911 C   0  0  0  0  0  0  0  0  0  0  0  0
   27.7252  -19.4008   -5.8145 C   0  0  2  0  0  0  0  0  0  0  0  0
   28.2452  -19.7867   -4.4259 C   0  0  0  0  0  0  0  0  0  0  0  0
   27.0636  -20.5930   -6.4715 C   0  0  2  0  0  0  0  0  0  0  0  0
   26.5413  -20.2514   -7.7620 N   0  0  0  0  0  0  0  0  0  0  0  0
   26.0952  -21.2688   -5.6069 C   0  0  0  0  0  0  0  0  0  0  0  0
   26.3956  -22.2542   -4.6991 O   0  0  0  0  0  0  0  0  0  0  0  0
   24.8672  -20.9262   -5.6908 O   0  0  0  0  0  0  0  0  0  0  0  0
  2  1  1  6
  3  2  1  0
  4  2  1  0
  4  5  1  6
  6  7  2  0
  6  4  1  0
  9  8  1  0
 10  9  2  0
 11 12  2  0
 11 10  1  0
 12 18  1  0
 14 13  1  1
 13 12  1  0
 14 15  1  0
 15  6  1  0
 16 17  2  0
 16 14  1  0
 18 19  2  0
 19  9  1  0
 20 21  1  0
 21 22  1  0
 22 24  1  0
 22 23  1  1
 24 25  1  6
 25 16  1  0
 26 24  1  0
 27 26  1  0
 28 26  2  0
M  END
$$$$
