VYI.pdb
     RDKit          3D

 28 28  0  0  1  0  0  0  0  0999 V2000
   28.6660  -19.2466  -16.8090 C   0  0  0  0  0  0  0  0  0  0  0  0
   27.9730  -18.6832  -15.5581 C   0  0  2  0  0  0  0  0  0  0  0  0
   28.3324  -17.2363  -15.5034 C   0  0  0  0  0  0  0  0  0  0  0  0
   28.4532  -19.4888  -14.3656 C   0  0  2  0  0  0  0  0  0  0  0  0
   28.6588  -20.8754  -14.8257 N   0  0  0  0  0  0  0  0  0  0  0  0
   27.5150  -19.5278  -13.2472 C   0  0  0  0  0  0  0  0  0  0  0  0
   27.2150  -18.4443  -12.6469 O   0  0  0  0  0  0  0  0  0  0  0  0
   19.8101  -19.2568  -10.3845 O   0  0  0  0  0  0  0  0  0  0  0  0
   21.0255  -19.8283  -10.7716 C   0  0  0  0  0  0  0  0  0  0  0  0
   21.5240  -19.6564  -12.0524 C   0  0  0  0  0  0  0  0  0  0  0  0
   22.7167  -20.2029  -12.4718 C   0  0  0  0  0  0  0  0  0  0  0  0
   23.4711  -20.9592  -11.6039 C   0  0  0  0  0  0  0  0  0  0  0  0
   24.7657  -21.5746  -11.9980 C   0  0  0  0  0  0  0  0  0  0  0  0
   25.9226  -20.6375  -11.6364 C   0  0  2  0  0  0  0  0  0  0  0  0
   26.8714  -20.6816  -12.7308 N   0  0  0  0  0  0  0  0  0  0  0  0
   26.5465  -21.0520  -10.3539 C   0  0  0  0  0  0  0  0  0  0  0  0
   27.3979  -21.9519  -10.4004 O   0  0  0  0  0  0  0  0  0  0  0  0
   22.9959  -21.1446  -10.3236 C   0  0  0  0  0  0  0  0  0  0  0  0
   21.7979  -20.5877   -9.9241 C   0  0  0  0  0  0  0  0  0  0  0  0
   28.8996  -19.1393   -5.3192 C   0  0  0  0  0  0  0  0  0  0  0  0
   27.9050  -20.1853   -5.8333 C   0  0  0  0  0  0  0  0  0  0  0  0
   27.4136  -19.7443   -7.1695 C   0  0  2  0  0  0  0  0  0  0  0  0
   26.5837  -18.4808   -6.9198 C   0  0  0  0  0  0  0  0  0  0  0  0
   26.5546  -20.8116   -7.8124 C   0  0  2  0  0  0  0  0  0  0  0  0
   26.1800  -20.4434   -9.1462 N   0  0  0  0  0  0  0  0  0  0  0  0
   25.4251  -21.2271   -6.9796 C   0  0  0  0  0  0  0  0  0  0  0  0
   24.1010  -21.0245   -7.2816 O   0  0  0  0  0  0  0  0  0  0  0  0
   25.6734  -21.8279   -5.8797 O   0  0  0  0  0  0  0  0  0  0  0  0
  2  1  1  6
  3  2  1  0
  4  2  1  0
  4  5  1  6
  6  7  2  0
  6  4  1  0
  9  8  1  0
 10  9  2  0
 11 12  2  0
 11 10  1  0
 12 18  1  0
 14 13  1  6
 13 12  1  0
 14 15  1  0
 15  6  1  0
 16 17  2  0
 16 14  1  0
 18 19  2  0
 19  9  1  0
 20 21  1  0
 21 22  1  0
 22 24  1  0
 22 23  1  1
 24 25  1  6
 25 16  1  0
 26 24  1  0
 27 26  1  0
 28 26  2  0
M  END
$$$$
