VYI.pdb
     RDKit          3D

 28 28  0  0  1  0  0  0  0  0999 V2000
   28.2106  -15.6749  -20.1086 C   0  0  0  0  0  0  0  0  0  0  0  0
   26.9543  -14.7919  -20.0409 C   0  0  2  0  0  0  0  0  0  0  0  0
   27.3655  -13.5419  -19.3378 C   0  0  0  0  0  0  0  0  0  0  0  0
   25.8761  -15.5827  -19.3240 C   0  0  2  0  0  0  0  0  0  0  0  0
   25.6326  -16.8070  -20.1102 N   0  0  0  0  0  0  0  0  0  0  0  0
   24.6021  -14.8812  -19.1908 C   0  0  0  0  0  0  0  0  0  0  0  0
   24.0771  -14.3412  -20.2190 O   0  0  0  0  0  0  0  0  0  0  0  0
   16.6378  -11.9022  -17.1450 O   0  0  0  0  0  0  0  0  0  0  0  0
   17.8216  -12.6304  -17.2928 C   0  0  0  0  0  0  0  0  0  0  0  0
   18.4731  -13.1717  -16.1968 C   0  0  0  0  0  0  0  0  0  0  0  0
   19.6407  -13.8948  -16.3010 C   0  0  0  0  0  0  0  0  0  0  0  0
   20.2118  -14.1074  -17.5352 C   0  0  0  0  0  0  0  0  0  0  0  0
   21.4700  -14.8791  -17.7115 C   0  0  0  0  0  0  0  0  0  0  0  0
   22.6474  -13.9209  -17.9185 C   0  0  2  0  0  0  0  0  0  0  0  0
   23.8496  -14.7260  -17.9984 N   0  0  0  0  0  0  0  0  0  0  0  0
   22.7197  -12.9377  -16.8076 C   0  0  0  0  0  0  0  0  0  0  0  0
   23.1800  -13.3338  -15.7268 O   0  0  0  0  0  0  0  0  0  0  0  0
   19.5819  -13.5786  -18.6412 C   0  0  0  0  0  0  0  0  0  0  0  0
   18.4124  -12.8569  -18.5139 C   0  0  0  0  0  0  0  0  0  0  0  0
   23.5736   -9.0310  -14.1142 C   0  0  0  0  0  0  0  0  0  0  0  0
   23.2934   -8.3526  -15.4591 C   0  0  0  0  0  0  0  0  0  0  0  0
   23.1855   -9.4119  -16.5021 C   0  0  2  0  0  0  0  0  0  0  0  0
   22.5806   -8.7324  -17.7350 C   0  0  0  0  0  0  0  0  0  0  0  0
   22.2906  -10.5413  -16.0395 C   0  0  2  0  0  0  0  0  0  0  0  0
   22.2825  -11.6184  -16.9853 N   0  0  0  0  0  0  0  0  0  0  0  0
   20.9530  -10.0973  -15.6449 C   0  0  0  0  0  0  0  0  0  0  0  0
   20.5900   -9.7017  -14.3811 O   0  0  0  0  0  0  0  0  0  0  0  0
   20.0375  -10.0696  -16.5357 O   0  0  0  0  0  0  0  0  0  0  0  0
  2  1  1  1
  3  2  1  0
  4  2  1  0
  4  5  1  6
  6  7  2  0
  6  4  1  0
  9  8  1  0
 10  9  2  0
 11 12  2  0
 11 10  1  0
 12 18  1  0
 14 13  1  1
 13 12  1  0
 14 15  1  0
 15  6  1  0
 16 17  2  0
 16 14  1  0
 18 19  2  0
 19  9  1  0
 20 21  1  0
 21 22  1  0
 22 24  1  0
 22 23  1  6
 24 25  1  6
 25 16  1  0
 26 24  1  0
 27 26  1  0
 28 26  2  0
M  END
$$$$
