VYI.pdb
     RDKit          3D

 28 28  0  0  1  0  0  0  0  0999 V2000
   27.8647  -31.0592  -15.5796 C   0  0  0  0  0  0  0  0  0  0  0  0
   27.0228  -31.9993  -16.4570 C   0  0  2  0  0  0  0  0  0  0  0  0
   27.8692  -33.2032  -16.7025 C   0  0  0  0  0  0  0  0  0  0  0  0
   26.6451  -31.2380  -17.7138 C   0  0  2  0  0  0  0  0  0  0  0  0
   27.8592  -31.1317  -18.5450 N   0  0  0  0  0  0  0  0  0  0  0  0
   26.1529  -29.8842  -17.4734 C   0  0  0  0  0  0  0  0  0  0  0  0
   25.0347  -29.7228  -16.8834 O   0  0  0  0  0  0  0  0  0  0  0  0
   25.6396  -21.0776  -16.5221 O   0  0  0  0  0  0  0  0  0  0  0  0
   26.0864  -22.3887  -16.7088 C   0  0  0  0  0  0  0  0  0  0  0  0
   25.8076  -23.3809  -15.7834 C   0  0  0  0  0  0  0  0  0  0  0  0
   26.2298  -24.6835  -15.9314 C   0  0  0  0  0  0  0  0  0  0  0  0
   26.9636  -25.0487  -17.0371 C   0  0  0  0  0  0  0  0  0  0  0  0
   27.4470  -26.4379  -17.2524 C   0  0  0  0  0  0  0  0  0  0  0  0
   26.2627  -27.3653  -17.5432 C   0  0  2  0  0  0  0  0  0  0  0  0
   26.8041  -28.6773  -17.8358 N   0  0  0  0  0  0  0  0  0  0  0  0
   25.4568  -26.8408  -18.6752 C   0  0  0  0  0  0  0  0  0  0  0  0
   25.9415  -26.9392  -19.8120 O   0  0  0  0  0  0  0  0  0  0  0  0
   27.2537  -24.0789  -17.9724 C   0  0  0  0  0  0  0  0  0  0  0  0
   26.8207  -22.7792  -17.8042 C   0  0  0  0  0  0  0  0  0  0  0  0
   20.6058  -28.2080  -19.9119 C   0  0  0  0  0  0  0  0  0  0  0  0
   22.0266  -27.6346  -19.9228 C   0  0  0  0  0  0  0  0  0  0  0  0
   21.9676  -26.2328  -19.4201 C   0  0  2  0  0  0  0  0  0  0  0  0
   21.0569  -25.4729  -20.3900 C   0  0  0  0  0  0  0  0  0  0  0  0
   23.3441  -25.6041  -19.3991 C   0  0  2  0  0  0  0  0  0  0  0  0
   24.2006  -26.2603  -18.4554 N   0  0  0  0  0  0  0  0  0  0  0  0
   23.3150  -24.1483  -19.2513 C   0  0  0  0  0  0  0  0  0  0  0  0
   23.4854  -23.2446  -20.2710 O   0  0  0  0  0  0  0  0  0  0  0  0
   23.1162  -23.6625  -18.0864 O   0  0  0  0  0  0  0  0  0  0  0  0
  2  1  1  1
  3  2  1  0
  4  2  1  0
  4  5  1  6
  6  7  2  0
  6  4  1  0
  9  8  1  0
 10  9  2  0
 11 12  2  0
 11 10  1  0
 12 18  1  0
 14 13  1  6
 13 12  1  0
 14 15  1  0
 15  6  1  0
 16 17  2  0
 16 14  1  0
 18 19  2  0
 19  9  1  0
 20 21  1  0
 21 22  1  0
 22 24  1  0
 22 23  1  6
 24 25  1  1
 25 16  1  0
 26 24  1  0
 27 26  1  0
 28 26  2  0
M  END
$$$$
