YWV.pdb
     RDKit          3D

 34 36  0  0  1  0  0  0  0  0999 V2000
   12.5560  -31.7612    2.6126 O   0  0  0  0  0  0  0  0  0  0  0  0
   13.1770  -30.5536    2.8462 C   0  0  0  0  0  0  0  0  0  0  0  0
   14.4771  -30.5470    3.3197 C   0  0  0  0  0  0  0  0  0  0  0  0
   15.1249  -29.3491    3.5616 C   0  0  0  0  0  0  0  0  0  0  0  0
   14.4387  -28.1475    3.3177 C   0  0  0  0  0  0  0  0  0  0  0  0
   15.0958  -26.8584    3.5660 C   0  0  0  0  0  0  0  0  0  0  0  0
   15.4309  -26.1510    2.2422 C   0  0  2  0  0  0  0  0  0  0  0  0
   16.4931  -26.9434    1.5813 N   0  0  0  0  0  0  0  0  0  0  0  0
   16.0091  -24.8317    2.5210 C   0  0  0  0  0  0  0  0  0  0  0  0
   17.2450  -24.6674    2.7957 O   0  0  0  0  0  0  0  0  0  0  0  0
   13.1480  -28.1576    2.8477 C   0  0  0  0  0  0  0  0  0  0  0  0
   12.4946  -29.3513    2.6048 C   0  0  0  0  0  0  0  0  0  0  0  0
   15.2037  -23.6739    2.4920 N   0  0  0  0  0  0  0  0  0  0  0  0
   15.7532  -22.3539    2.8697 C   0  0  1  0  0  0  0  0  0  0  0  0
   15.1901  -21.4149    1.8016 C   0  0  0  0  0  0  0  0  0  0  0  0
   15.5218  -20.0000    2.0203 C   0  0  0  0  0  0  0  0  0  0  0  0
   16.7716  -19.4715    2.1334 C   0  0  0  0  0  0  0  0  0  0  0  0
   16.6381  -18.1559    2.3455 N   0  0  0  0  0  0  0  0  0  0  0  0
   15.3243  -17.8301    2.3699 C   0  0  0  0  0  0  0  0  0  0  0  0
   14.6848  -16.6174    2.5457 C   0  0  0  0  0  0  0  0  0  0  0  0
   13.2998  -16.5082    2.5244 C   0  0  0  0  0  0  0  0  0  0  0  0
   12.5975  -17.6642    2.3210 C   0  0  0  0  0  0  0  0  0  0  0  0
   13.2207  -18.8763    2.1458 C   0  0  0  0  0  0  0  0  0  0  0  0
   14.6066  -18.9737    2.1683 C   0  0  0  0  0  0  0  0  0  0  0  0
   15.3366  -22.0717    4.2221 C   0  0  0  0  0  0  0  0  0  0  0  0
   14.2067  -22.4169    4.6701 O   0  0  0  0  0  0  0  0  0  0  0  0
   17.9136  -21.5889    7.4729 C   0  0  0  0  0  0  0  0  0  0  0  0
   16.4045  -21.7453    7.5603 C   0  0  2  0  0  0  0  0  0  0  0  0
   16.1222  -23.2192    7.3622 C   0  0  0  0  0  0  0  0  0  0  0  0
   15.7058  -20.9984    6.4537 C   0  0  2  0  0  0  0  0  0  0  0  0
   16.1823  -21.3862    5.1406 N   0  0  0  0  0  0  0  0  0  0  0  0
   15.8372  -19.5714    6.6441 C   0  0  0  0  0  0  0  0  0  0  0  0
   16.5494  -18.8856    5.8560 O   0  0  0  0  0  0  0  0  0  0  0  0
   15.2199  -18.8513    7.6684 O   0  0  0  0  0  0  0  0  0  0  0  0
  2 12  2  0
  2  1  1  0
  3  2  1  0
  4  5  1  0
  4  3  2  0
  5 11  2  0
  6  5  1  0
  7  9  1  0
  7  6  1  0
  7  8  1  1
  9 13  1  0
  9 10  2  0
 11 12  1  0
 13 14  1  0
 14 25  1  0
 14 15  1  6
 16 24  1  0
 16 15  1  0
 17 16  2  0
 18 17  1  0
 18 19  1  0
 19 24  2  0
 20 19  1  0
 20 21  2  0
 21 22  1  0
 22 23  2  0
 24 23  1  0
 25 26  2  0
 25 31  1  0
 28 27  1  6
 28 29  1  0
 30 32  1  0
 30 28  1  0
 30 31  1  6
 32 34  1  0
 33 32  2  0
M  END
$$$$
