YWV.pdb
     RDKit          3D

 34 36  0  0  1  0  0  0  0  0999 V2000
   15.1128  -15.1044  -18.4000 O   0  0  0  0  0  0  0  0  0  0  0  0
   16.0949  -14.2638  -17.9232 C   0  0  0  0  0  0  0  0  0  0  0  0
   16.7227  -13.3978  -18.8010 C   0  0  0  0  0  0  0  0  0  0  0  0
   17.7111  -12.5423  -18.3491 C   0  0  0  0  0  0  0  0  0  0  0  0
   18.0614  -12.5716  -16.9888 C   0  0  0  0  0  0  0  0  0  0  0  0
   19.1079  -11.6786  -16.4763 C   0  0  0  0  0  0  0  0  0  0  0  0
   20.4771  -12.0390  -17.0767 C   0  0  2  0  0  0  0  0  0  0  0  0
   20.8445  -13.3748  -16.5538 N   0  0  0  0  0  0  0  0  0  0  0  0
   21.4939  -11.1046  -16.5811 C   0  0  0  0  0  0  0  0  0  0  0  0
   22.0668  -11.2495  -15.4493 O   0  0  0  0  0  0  0  0  0  0  0  0
   17.4363  -13.4326  -16.1200 C   0  0  0  0  0  0  0  0  0  0  0  0
   16.4484  -14.2908  -16.5653 C   0  0  0  0  0  0  0  0  0  0  0  0
   21.8846   -9.9916  -17.3549 N   0  0  0  0  0  0  0  0  0  0  0  0
   22.8578   -9.0066  -16.8356 C   0  0  1  0  0  0  0  0  0  0  0  0
   23.9279   -8.9538  -17.9271 C   0  0  0  0  0  0  0  0  0  0  0  0
   24.8165  -10.1243  -17.9446 C   0  0  0  0  0  0  0  0  0  0  0  0
   24.9082  -11.0541  -18.9352 C   0  0  0  0  0  0  0  0  0  0  0  0
   25.8158  -11.9629  -18.5559 N   0  0  0  0  0  0  0  0  0  0  0  0
   26.3092  -11.6325  -17.3392 C   0  0  0  0  0  0  0  0  0  0  0  0
   27.2593  -12.2408  -16.5405 C   0  0  0  0  0  0  0  0  0  0  0  0
   27.6281  -11.7148  -15.3086 C   0  0  0  0  0  0  0  0  0  0  0  0
   27.0019  -10.5615  -14.9230 C   0  0  0  0  0  0  0  0  0  0  0  0
   26.0552   -9.9471  -15.7068 C   0  0  0  0  0  0  0  0  0  0  0  0
   25.6944  -10.4818  -16.9376 C   0  0  0  0  0  0  0  0  0  0  0  0
   22.1529   -7.7694  -16.6013 C   0  0  0  0  0  0  0  0  0  0  0  0
   21.3342   -7.2867  -17.4339 O   0  0  0  0  0  0  0  0  0  0  0  0
   21.5581   -6.1585  -12.7205 C   0  0  0  0  0  0  0  0  0  0  0  0
   20.7574   -5.8077  -13.9635 C   0  0  2  0  0  0  0  0  0  0  0  0
   19.7599   -6.9307  -14.1520 C   0  0  0  0  0  0  0  0  0  0  0  0
   21.6304   -5.7677  -15.1911 C   0  0  2  0  0  0  0  0  0  0  0  0
   22.3360   -7.0158  -15.4066 N   0  0  0  0  0  0  0  0  0  0  0  0
   22.5590   -4.6623  -15.1165 C   0  0  0  0  0  0  0  0  0  0  0  0
   22.1327   -3.4726  -15.0773 O   0  0  0  0  0  0  0  0  0  0  0  0
   23.9479   -4.7986  -15.0835 O   0  0  0  0  0  0  0  0  0  0  0  0
  2 12  2  0
  2  1  1  0
  3  2  1  0
  4  5  1  0
  4  3  2  0
  5 11  2  0
  6  5  1  0
  7  9  1  0
  7  6  1  0
  7  8  1  1
  9 13  1  0
  9 10  2  0
 11 12  1  0
 13 14  1  0
 14 25  1  0
 14 15  1  6
 16 24  1  0
 16 15  1  0
 17 16  2  0
 18 17  1  0
 18 19  1  0
 19 24  2  0
 20 19  1  0
 20 21  2  0
 21 22  1  0
 22 23  2  0
 24 23  1  0
 25 26  2  0
 25 31  1  0
 28 27  1  1
 28 29  1  0
 30 32  1  0
 30 28  1  0
 30 31  1  1
 32 34  1  0
 33 32  2  0
M  END
$$$$
