YWV.pdb
     RDKit          3D

 34 36  0  0  1  0  0  0  0  0999 V2000
   29.1610  -15.9584  -18.4350 O   0  0  0  0  0  0  0  0  0  0  0  0
   28.5009  -16.8055  -17.5717 C   0  0  0  0  0  0  0  0  0  0  0  0
   28.0350  -18.0189  -18.0460 C   0  0  0  0  0  0  0  0  0  0  0  0
   27.3701  -18.8890  -17.2010 C   0  0  0  0  0  0  0  0  0  0  0  0
   27.1796  -18.5163  -15.8597 C   0  0  0  0  0  0  0  0  0  0  0  0
   26.4761  -19.4150  -14.9364 C   0  0  0  0  0  0  0  0  0  0  0  0
   27.4441  -19.9912  -13.8895 C   0  0  2  0  0  0  0  0  0  0  0  0
   28.3218  -20.9555  -14.5914 N   0  0  0  0  0  0  0  0  0  0  0  0
   26.6913  -20.7625  -12.8940 C   0  0  0  0  0  0  0  0  0  0  0  0
   26.3026  -21.9605  -13.1037 O   0  0  0  0  0  0  0  0  0  0  0  0
   27.6433  -17.3109  -15.3920 C   0  0  0  0  0  0  0  0  0  0  0  0
   28.3077  -16.4364  -16.2316 C   0  0  0  0  0  0  0  0  0  0  0  0
   26.3662  -20.1972  -11.6431 N   0  0  0  0  0  0  0  0  0  0  0  0
   25.3563  -20.8238  -10.7631 C   0  0  1  0  0  0  0  0  0  0  0  0
   25.7002  -20.2734   -9.3781 C   0  0  0  0  0  0  0  0  0  0  0  0
   27.0684  -20.5825   -8.9392 C   0  0  0  0  0  0  0  0  0  0  0  0
   27.9958  -21.3002   -9.6312 C   0  0  0  0  0  0  0  0  0  0  0  0
   29.1004  -21.3694   -8.8771 N   0  0  0  0  0  0  0  0  0  0  0  0
   28.8988  -20.7078   -7.7132 C   0  0  0  0  0  0  0  0  0  0  0  0
   29.7271  -20.4907   -6.6282 C   0  0  0  0  0  0  0  0  0  0  0  0
   29.3107  -19.7610   -5.5215 C   0  0  0  0  0  0  0  0  0  0  0  0
   28.0358  -19.2668   -5.5584 C   0  0  0  0  0  0  0  0  0  0  0  0
   27.2019  -19.4761   -6.6303 C   0  0  0  0  0  0  0  0  0  0  0  0
   27.6291  -20.2070   -7.7321 C   0  0  0  0  0  0  0  0  0  0  0  0
   24.0509  -20.4663  -11.2632 C   0  0  0  0  0  0  0  0  0  0  0  0
   23.7073  -19.2676  -11.4674 O   0  0  0  0  0  0  0  0  0  0  0  0
   21.6472  -23.2272  -13.4069 C   0  0  0  0  0  0  0  0  0  0  0  0
   21.5456  -21.7125  -13.4744 C   0  0  2  0  0  0  0  0  0  0  0  0
   22.6602  -21.2567  -14.3918 C   0  0  0  0  0  0  0  0  0  0  0  0
   21.7827  -21.0814  -12.1268 C   0  0  2  0  0  0  0  0  0  0  0  0
   23.0663  -21.4509  -11.5632 N   0  0  0  0  0  0  0  0  0  0  0  0
   20.7102  -21.4136  -11.2161 C   0  0  0  0  0  0  0  0  0  0  0  0
   20.9415  -22.1051  -10.1832 O   0  0  0  0  0  0  0  0  0  0  0  0
   19.3811  -21.0212  -11.3848 O   0  0  0  0  0  0  0  0  0  0  0  0
  2 12  2  0
  2  1  1  0
  3  2  1  0
  4  5  1  0
  4  3  2  0
  5 11  2  0
  6  5  1  0
  7  9  1  0
  7  6  1  0
  7  8  1  6
  9 13  1  0
  9 10  2  0
 11 12  1  0
 13 14  1  0
 14 25  1  0
 14 15  1  1
 16 24  1  0
 16 15  1  0
 17 16  2  0
 18 17  1  0
 18 19  1  0
 19 24  2  0
 20 19  1  0
 20 21  2  0
 21 22  1  0
 22 23  2  0
 24 23  1  0
 25 26  2  0
 25 31  1  0
 28 27  1  1
 28 29  1  0
 30 32  1  0
 30 28  1  0
 30 31  1  1
 32 34  1  0
 33 32  2  0
M  END
$$$$
