YWV.pdb
     RDKit          3D

 34 36  0  0  1  0  0  0  0  0999 V2000
   22.6426  -12.6450  -19.8542 O   0  0  0  0  0  0  0  0  0  0  0  0
   22.9068  -13.7336  -19.0518 C   0  0  0  0  0  0  0  0  0  0  0  0
   21.9918  -14.7704  -19.0031 C   0  0  0  0  0  0  0  0  0  0  0  0
   22.2322  -15.8757  -18.2070 C   0  0  0  0  0  0  0  0  0  0  0  0
   23.4176  -15.9222  -17.4541 C   0  0  0  0  0  0  0  0  0  0  0  0
   23.7030  -17.0793  -16.5969 C   0  0  0  0  0  0  0  0  0  0  0  0
   24.8890  -17.8889  -17.1474 C   0  0  2  0  0  0  0  0  0  0  0  0
   24.4008  -18.6234  -18.3369 N   0  0  0  0  0  0  0  0  0  0  0  0
   25.2897  -18.9045  -16.1673 C   0  0  0  0  0  0  0  0  0  0  0  0
   24.6410  -19.9915  -16.0000 O   0  0  0  0  0  0  0  0  0  0  0  0
   24.3238  -14.8911  -17.5045 C   0  0  0  0  0  0  0  0  0  0  0  0
   24.0890  -13.7833  -18.2974 C   0  0  0  0  0  0  0  0  0  0  0  0
   26.4310  -18.7133  -15.3605 N   0  0  0  0  0  0  0  0  0  0  0  0
   26.7963  -19.6916  -14.3133 C   0  0  1  0  0  0  0  0  0  0  0  0
   28.2745  -19.3981  -14.0520 C   0  0  0  0  0  0  0  0  0  0  0  0
   28.8653  -20.2246  -12.9900 C   0  0  0  0  0  0  0  0  0  0  0  0
   29.3202  -21.5015  -13.1191 C   0  0  0  0  0  0  0  0  0  0  0  0
   29.7598  -21.8988  -11.9181 N   0  0  0  0  0  0  0  0  0  0  0  0
   29.5959  -20.8990  -11.0200 C   0  0  0  0  0  0  0  0  0  0  0  0
   29.8981  -20.8190   -9.6737 C   0  0  0  0  0  0  0  0  0  0  0  0
   29.6492  -19.6703   -8.9327 C   0  0  0  0  0  0  0  0  0  0  0  0
   29.0875  -18.6188   -9.6033 C   0  0  0  0  0  0  0  0  0  0  0  0
   28.7813  -18.6854  -10.9413 C   0  0  0  0  0  0  0  0  0  0  0  0
   29.0351  -19.8393  -11.6727 C   0  0  0  0  0  0  0  0  0  0  0  0
   25.9171  -19.4842  -13.1881 C   0  0  0  0  0  0  0  0  0  0  0  0
   25.5925  -18.3319  -12.7837 O   0  0  0  0  0  0  0  0  0  0  0  0
   22.9758  -22.2044  -11.8060 C   0  0  0  0  0  0  0  0  0  0  0  0
   23.1244  -20.7351  -11.4477 C   0  0  2  0  0  0  0  0  0  0  0  0
   22.5962  -19.9573  -12.6341 C   0  0  0  0  0  0  0  0  0  0  0  0
   24.5706  -20.3536  -11.2646 C   0  0  2  0  0  0  0  0  0  0  0  0
   25.3549  -20.5743  -12.4638 N   0  0  0  0  0  0  0  0  0  0  0  0
   25.1432  -21.0622  -10.1421 C   0  0  0  0  0  0  0  0  0  0  0  0
   26.0975  -21.8725  -10.3188 O   0  0  0  0  0  0  0  0  0  0  0  0
   24.7152  -20.9252   -8.8204 O   0  0  0  0  0  0  0  0  0  0  0  0
  2 12  2  0
  2  1  1  0
  3  2  1  0
  4  5  1  0
  4  3  2  0
  5 11  2  0
  6  5  1  0
  7  9  1  0
  7  6  1  0
  7  8  1  6
  9 13  1  0
  9 10  2  0
 11 12  1  0
 13 14  1  0
 14 25  1  0
 14 15  1  1
 16 24  1  0
 16 15  1  0
 17 16  2  0
 18 17  1  0
 18 19  1  0
 19 24  2  0
 20 19  1  0
 20 21  2  0
 21 22  1  0
 22 23  2  0
 24 23  1  0
 25 26  2  0
 25 31  1  0
 28 27  1  6
 28 29  1  0
 30 32  1  0
 30 28  1  0
 30 31  1  6
 32 34  1  0
 33 32  2  0
M  END
$$$$
