YWV.pdb
     RDKit          3D

 34 36  0  0  1  0  0  0  0  0999 V2000
   28.6721  -15.9973  -18.0136 O   0  0  0  0  0  0  0  0  0  0  0  0
   28.1768  -16.8995  -17.0975 C   0  0  0  0  0  0  0  0  0  0  0  0
   27.8646  -16.4603  -15.8230 C   0  0  0  0  0  0  0  0  0  0  0  0
   27.3647  -17.3442  -14.8839 C   0  0  0  0  0  0  0  0  0  0  0  0
   27.1819  -18.6884  -15.2499 C   0  0  0  0  0  0  0  0  0  0  0  0
   26.6554  -19.6536  -14.2770 C   0  0  0  0  0  0  0  0  0  0  0  0
   27.7348  -20.0424  -13.2529 C   0  0  2  0  0  0  0  0  0  0  0  0
   28.6645  -20.9738  -13.9317 N   0  0  0  0  0  0  0  0  0  0  0  0
   27.1218  -20.7952  -12.1528 C   0  0  0  0  0  0  0  0  0  0  0  0
   26.8285  -22.0342  -12.2478 O   0  0  0  0  0  0  0  0  0  0  0  0
   27.4928  -19.1212  -16.5159 C   0  0  0  0  0  0  0  0  0  0  0  0
   27.9938  -18.2431  -17.4588 C   0  0  0  0  0  0  0  0  0  0  0  0
   26.8316  -20.1644  -10.9248 N   0  0  0  0  0  0  0  0  0  0  0  0
   25.8151  -20.7189  -10.0049 C   0  0  1  0  0  0  0  0  0  0  0  0
   26.1560  -20.0679   -8.6634 C   0  0  0  0  0  0  0  0  0  0  0  0
   27.5184  -20.3554   -8.1931 C   0  0  0  0  0  0  0  0  0  0  0  0
   28.5274  -20.9020   -8.9262 C   0  0  0  0  0  0  0  0  0  0  0  0
   29.5946  -21.0166   -8.1252 N   0  0  0  0  0  0  0  0  0  0  0  0
   29.2889  -20.5523   -6.8907 C   0  0  0  0  0  0  0  0  0  0  0  0
   30.0440  -20.4515   -5.7375 C   0  0  0  0  0  0  0  0  0  0  0  0
   29.5224  -19.9246   -4.5624 C   0  0  0  0  0  0  0  0  0  0  0  0
   28.2197  -19.5096   -4.6028 C   0  0  0  0  0  0  0  0  0  0  0  0
   27.4576  -19.6050   -5.7423 C   0  0  0  0  0  0  0  0  0  0  0  0
   27.9899  -20.1332   -6.9121 C   0  0  0  0  0  0  0  0  0  0  0  0
   24.5134  -20.3939  -10.5361 C   0  0  0  0  0  0  0  0  0  0  0  0
   24.0734  -19.2101  -10.5771 O   0  0  0  0  0  0  0  0  0  0  0  0
   21.3522  -21.3286  -14.0834 C   0  0  0  0  0  0  0  0  0  0  0  0
   22.5782  -21.6654  -13.2511 C   0  0  2  0  0  0  0  0  0  0  0  0
   22.5643  -23.1683  -13.0708 C   0  0  0  0  0  0  0  0  0  0  0  0
   22.5038  -21.0450  -11.8800 C   0  0  2  0  0  0  0  0  0  0  0  0
   23.6426  -21.3951  -11.0539 N   0  0  0  0  0  0  0  0  0  0  0  0
   21.2670  -21.4088  -11.2257 C   0  0  0  0  0  0  0  0  0  0  0  0
   20.1594  -21.0142  -11.6904 O   0  0  0  0  0  0  0  0  0  0  0  0
   21.1842  -22.1922  -10.0732 O   0  0  0  0  0  0  0  0  0  0  0  0
  2 12  2  0
  2  1  1  0
  3  2  1  0
  4  5  1  0
  4  3  2  0
  5 11  2  0
  6  5  1  0
  7  9  1  0
  7  6  1  0
  7  8  1  6
  9 13  1  0
  9 10  2  0
 11 12  1  0
 13 14  1  0
 14 25  1  0
 14 15  1  1
 16 24  1  0
 16 15  1  0
 17 16  2  0
 18 17  1  0
 18 19  1  0
 19 24  2  0
 20 19  1  0
 20 21  2  0
 21 22  1  0
 22 23  2  0
 24 23  1  0
 25 26  2  0
 25 31  1  0
 28 27  1  6
 28 29  1  0
 30 32  1  0
 30 28  1  0
 30 31  1  1
 32 34  1  0
 33 32  2  0
M  END
$$$$
