YTD.pdb
     RDKit          3D

 28 28  0  0  1  0  0  0  0  0999 V2000
    6.6597  -11.6389   18.7371 O   0  0  0  0  0  0  0  0  0  0  0  0
    7.2995  -12.6450   19.4472 C   0  0  0  0  0  0  0  0  0  0  0  0
    6.5823  -13.4922   20.2801 C   0  0  0  0  0  0  0  0  0  0  0  0
    7.2866  -14.4689   20.9541 C   0  0  0  0  0  0  0  0  0  0  0  0
    8.6533  -14.6044   20.8101 C   0  0  0  0  0  0  0  0  0  0  0  0
    9.4048  -15.6636   21.5434 C   0  0  0  0  0  0  0  0  0  0  0  0
    9.8040  -16.7452   20.5558 C   0  0  2  0  0  0  0  0  0  0  0  0
    8.6678  -17.5171   20.1020 N   0  0  0  0  0  0  0  0  0  0  0  0
   10.8688  -17.6075   21.1199 C   0  0  0  0  0  0  0  0  0  0  0  0
   10.5532  -18.4147   22.0256 O   0  0  0  0  0  0  0  0  0  0  0  0
    9.3465  -13.7479   19.9739 C   0  0  0  0  0  0  0  0  0  0  0  0
    8.6587  -12.7699   19.2959 C   0  0  0  0  0  0  0  0  0  0  0  0
   12.9245  -19.9331   19.2186 C   0  0  0  0  0  0  0  0  0  0  0  0
   13.9194  -19.1431   20.0280 C   0  0  1  0  0  0  0  0  0  0  0  0
   14.3256  -18.0471   19.2103 O   0  0  0  0  0  0  0  0  0  0  0  0
   13.2346  -18.4989   21.2084 C   0  0  2  0  0  0  0  0  0  0  0  0
   12.2168  -17.5588   20.6830 N   0  0  0  0  0  0  0  0  0  0  0  0
   14.1309  -17.7845   22.1307 C   0  0  0  0  0  0  0  0  0  0  0  0
   14.2799  -16.5225   21.9402 O   0  0  0  0  0  0  0  0  0  0  0  0
   14.8536  -18.3088   23.2099 N   0  0  0  0  0  0  0  0  0  0  0  0
   15.7787  -17.5253   24.0136 C   0  0  1  0  0  0  0  0  0  0  0  0
   16.3692  -18.4437   25.0708 C   0  0  0  0  0  0  0  0  0  0  0  0
   16.0995  -17.9243   26.4492 C   0  0  0  0  0  0  0  0  0  0  0  0
   15.6119  -16.7801   26.6363 O   0  0  0  0  0  0  0  0  0  0  0  0
   16.8641  -16.9471   23.2042 C   0  0  0  0  0  0  0  0  0  0  0  0
   17.2285  -17.5506   22.0252 O   0  0  0  0  0  0  0  0  0  0  0  0
   16.3900  -18.7142   27.5488 O   0  0  0  0  0  0  0  0  0  0  0  0
   17.4478  -15.9182   23.5856 O   0  0  0  0  0  0  0  0  0  0  0  0
  1  2  1  0
  2 12  2  0
  3  4  2  0
  3  2  1  0
  4  5  1  0
  5  6  1  0
  5 11  2  0
  6  7  1  0
  7  8  1  1
  9 17  1  0
  9  7  1  0
 10  9  2  0
 12 11  1  0
 14 13  1  6
 14 16  1  0
 15 14  1  0
 16 18  1  0
 16 17  1  6
 18 20  1  0
 19 18  2  0
 20 21  1  0
 21 25  1  0
 21 22  1  1
 22 23  1  0
 23 27  1  0
 24 23  2  0
 25 26  1  0
 28 25  2  0
M  END
$$$$
