YTD.pdb
     RDKit          3D

 28 28  0  0  1  0  0  0  0  0999 V2000
    5.1335  -10.6708   28.5696 O   0  0  0  0  0  0  0  0  0  0  0  0
    5.8733  -11.5521   27.7939 C   0  0  0  0  0  0  0  0  0  0  0  0
    7.1035  -12.0222   28.2314 C   0  0  0  0  0  0  0  0  0  0  0  0
    7.7816  -12.8958   27.4062 C   0  0  0  0  0  0  0  0  0  0  0  0
    7.2620  -13.2920   26.1896 C   0  0  0  0  0  0  0  0  0  0  0  0
    8.0033  -14.2367   25.3052 C   0  0  0  0  0  0  0  0  0  0  0  0
    7.0151  -15.2318   24.7240 C   0  0  2  0  0  0  0  0  0  0  0  0
    6.3931  -16.0447   25.7463 N   0  0  0  0  0  0  0  0  0  0  0  0
    7.6548  -16.0581   23.6734 C   0  0  0  0  0  0  0  0  0  0  0  0
    8.0033  -17.2242   23.9738 O   0  0  0  0  0  0  0  0  0  0  0  0
    6.0335  -12.8099   25.7749 C   0  0  0  0  0  0  0  0  0  0  0  0
    5.3462  -11.9388   26.5862 C   0  0  0  0  0  0  0  0  0  0  0  0
    6.5337  -15.9061   20.1048 C   0  0  0  0  0  0  0  0  0  0  0  0
    8.0231  -16.1054   19.9986 C   0  0  1  0  0  0  0  0  0  0  0  0
    8.5769  -14.8359   19.6574 O   0  0  0  0  0  0  0  0  0  0  0  0
    8.6039  -16.4171   21.3562 C   0  0  2  0  0  0  0  0  0  0  0  0
    7.8873  -15.5902   22.3553 N   0  0  0  0  0  0  0  0  0  0  0  0
   10.0517  -16.1870   21.4783 C   0  0  0  0  0  0  0  0  0  0  0  0
   10.4241  -15.1132   22.0777 O   0  0  0  0  0  0  0  0  0  0  0  0
   11.0958  -17.0010   21.0211 N   0  0  0  0  0  0  0  0  0  0  0  0
   12.4749  -16.8622   21.4620 C   0  0  1  0  0  0  0  0  0  0  0  0
   12.5202  -17.1668   22.9502 C   0  0  0  0  0  0  0  0  0  0  0  0
   13.9258  -17.1337   23.4658 C   0  0  0  0  0  0  0  0  0  0  0  0
   14.9035  -16.9480   22.6965 O   0  0  0  0  0  0  0  0  0  0  0  0
   13.3806  -17.7761   20.7462 C   0  0  0  0  0  0  0  0  0  0  0  0
   12.8590  -18.8143   20.0135 O   0  0  0  0  0  0  0  0  0  0  0  0
   14.1646  -17.3106   24.8182 O   0  0  0  0  0  0  0  0  0  0  0  0
   14.6108  -17.6091   20.8048 O   0  0  0  0  0  0  0  0  0  0  0  0
  1  2  1  0
  2 12  2  0
  3  4  2  0
  3  2  1  0
  4  5  1  0
  5  6  1  0
  5 11  2  0
  6  7  1  0
  7  8  1  1
  9 17  1  0
  9  7  1  0
 10  9  2  0
 12 11  1  0
 14 13  1  1
 14 16  1  0
 15 14  1  0
 16 18  1  0
 16 17  1  1
 18 20  1  0
 19 18  2  0
 20 21  1  0
 21 25  1  0
 21 22  1  1
 22 23  1  0
 23 27  1  0
 24 23  2  0
 25 26  1  0
 28 25  2  0
M  END
$$$$
