YTD.pdb
     RDKit          3D

 28 28  0  0  1  0  0  0  0  0999 V2000
    4.9073  -10.6200   28.3246 O   0  0  0  0  0  0  0  0  0  0  0  0
    5.6917  -11.5496   27.6566 C   0  0  0  0  0  0  0  0  0  0  0  0
    6.7435  -12.1850   28.3014 C   0  0  0  0  0  0  0  0  0  0  0  0
    7.4792  -13.0973   27.5730 C   0  0  0  0  0  0  0  0  0  0  0  0
    7.1860  -13.3727   26.2520 C   0  0  0  0  0  0  0  0  0  0  0  0
    7.9879  -14.3605   25.4737 C   0  0  0  0  0  0  0  0  0  0  0  0
    7.0349  -15.2692   24.7183 C   0  0  2  0  0  0  0  0  0  0  0  0
    6.2783  -16.1258   25.6053 N   0  0  0  0  0  0  0  0  0  0  0  0
    7.7560  -16.0449   23.6820 C   0  0  0  0  0  0  0  0  0  0  0  0
    8.1270  -17.2073   23.9699 O   0  0  0  0  0  0  0  0  0  0  0  0
    6.1326  -12.7265   25.6306 C   0  0  0  0  0  0  0  0  0  0  0  0
    5.3905  -11.8151   26.3433 C   0  0  0  0  0  0  0  0  0  0  0  0
    7.1045  -15.0644   19.9555 C   0  0  0  0  0  0  0  0  0  0  0  0
    8.4748  -15.6868   20.0189 C   0  0  1  0  0  0  0  0  0  0  0  0
    9.4078  -14.6080   20.0347 O   0  0  0  0  0  0  0  0  0  0  0  0
    8.6721  -16.3751   21.3473 C   0  0  2  0  0  0  0  0  0  0  0  0
    8.0415  -15.5332   22.3909 N   0  0  0  0  0  0  0  0  0  0  0  0
   10.0745  -16.6341   21.7087 C   0  0  0  0  0  0  0  0  0  0  0  0
   10.5106  -16.0871   22.7866 O   0  0  0  0  0  0  0  0  0  0  0  0
   11.0122  -17.4147   21.0209 N   0  0  0  0  0  0  0  0  0  0  0  0
   12.3399  -17.7136   21.5342 C   0  0  1  0  0  0  0  0  0  0  0  0
   12.1742  -18.5379   22.8003 C   0  0  0  0  0  0  0  0  0  0  0  0
   12.5894  -17.7591   24.0101 C   0  0  0  0  0  0  0  0  0  0  0  0
   13.0445  -16.5904   23.9146 O   0  0  0  0  0  0  0  0  0  0  0  0
   13.1538  -18.4638   20.5633 C   0  0  0  0  0  0  0  0  0  0  0  0
   12.5924  -18.8740   19.3787 O   0  0  0  0  0  0  0  0  0  0  0  0
   12.4733  -18.3298   25.2663 O   0  0  0  0  0  0  0  0  0  0  0  0
   14.3428  -18.7244   20.8144 O   0  0  0  0  0  0  0  0  0  0  0  0
  1  2  1  0
  2 12  2  0
  3  4  2  0
  3  2  1  0
  4  5  1  0
  5  6  1  0
  5 11  2  0
  6  7  1  0
  7  8  1  1
  9 17  1  0
  9  7  1  0
 10  9  2  0
 12 11  1  0
 14 13  1  1
 14 16  1  0
 15 14  1  0
 16 18  1  0
 16 17  1  1
 18 20  1  0
 19 18  2  0
 20 21  1  0
 21 25  1  0
 21 22  1  1
 22 23  1  0
 23 27  1  0
 24 23  2  0
 25 26  1  0
 28 25  2  0
M  END
$$$$
