YTD.pdb
     RDKit          3D

 28 28  0  0  1  0  0  0  0  0999 V2000
   19.0887  -14.5269   14.1727 O   0  0  0  0  0  0  0  0  0  0  0  0
   18.2423  -14.3944   15.2644 C   0  0  0  0  0  0  0  0  0  0  0  0
   17.9900  -13.1480   15.8198 C   0  0  0  0  0  0  0  0  0  0  0  0
   17.1379  -13.0944   16.9038 C   0  0  0  0  0  0  0  0  0  0  0  0
   16.5545  -14.2338   17.4219 C   0  0  0  0  0  0  0  0  0  0  0  0
   15.6349  -14.1647   18.5941 C   0  0  0  0  0  0  0  0  0  0  0  0
   14.2300  -14.5002   18.1272 C   0  0  2  0  0  0  0  0  0  0  0  0
   13.7128  -13.5169   17.2007 N   0  0  0  0  0  0  0  0  0  0  0  0
   13.3243  -14.7019   19.2825 C   0  0  0  0  0  0  0  0  0  0  0  0
   12.7945  -13.6893   19.7977 O   0  0  0  0  0  0  0  0  0  0  0  0
   16.8212  -15.4653   16.8511 C   0  0  0  0  0  0  0  0  0  0  0  0
   17.6681  -15.5345   15.7707 C   0  0  0  0  0  0  0  0  0  0  0  0
   10.2208  -16.1470   19.6118 C   0  0  0  0  0  0  0  0  0  0  0  0
   10.9682  -16.8811   20.6943 C   0  0  1  0  0  0  0  0  0  0  0  0
   11.4342  -18.0962   20.1102 O   0  0  0  0  0  0  0  0  0  0  0  0
   12.2263  -16.1310   21.0577 C   0  0  2  0  0  0  0  0  0  0  0  0
   13.0344  -15.9794   19.8249 N   0  0  0  0  0  0  0  0  0  0  0  0
   13.0442  -16.7633   22.1043 C   0  0  0  0  0  0  0  0  0  0  0  0
   13.9793  -17.5547   21.7167 O   0  0  0  0  0  0  0  0  0  0  0  0
   12.9367  -16.6107   23.4925 N   0  0  0  0  0  0  0  0  0  0  0  0
   13.6982  -17.3989   24.4487 C   0  0  1  0  0  0  0  0  0  0  0  0
   14.7416  -16.4888   25.0754 C   0  0  0  0  0  0  0  0  0  0  0  0
   15.9411  -16.3520   24.1894 C   0  0  0  0  0  0  0  0  0  0  0  0
   16.0143  -16.9509   23.0858 O   0  0  0  0  0  0  0  0  0  0  0  0
   12.8436  -17.9660   25.5051 C   0  0  0  0  0  0  0  0  0  0  0  0
   13.3640  -18.8914   26.3768 O   0  0  0  0  0  0  0  0  0  0  0  0
   16.9985  -15.5505   24.5855 O   0  0  0  0  0  0  0  0  0  0  0  0
   11.6575  -17.6093   25.6077 O   0  0  0  0  0  0  0  0  0  0  0  0
  1  2  1  0
  2 12  2  0
  3  4  2  0
  3  2  1  0
  4  5  1  0
  5  6  1  0
  5 11  2  0
  6  7  1  0
  7  8  1  6
  9 17  1  0
  9  7  1  0
 10  9  2  0
 12 11  1  0
 14 13  1  6
 14 16  1  0
 15 14  1  0
 16 18  1  0
 16 17  1  6
 18 20  1  0
 19 18  2  0
 20 21  1  0
 21 25  1  0
 21 22  1  1
 22 23  1  0
 23 27  1  0
 24 23  2  0
 25 26  1  0
 28 25  2  0
M  END
$$$$
