YTD.pdb
     RDKit          3D

 28 28  0  0  1  0  0  0  0  0999 V2000
    6.5706  -12.3931   18.0445 O   0  0  0  0  0  0  0  0  0  0  0  0
    7.1565  -12.9891   19.1523 C   0  0  0  0  0  0  0  0  0  0  0  0
    6.4102  -13.2602   20.2904 C   0  0  0  0  0  0  0  0  0  0  0  0
    7.0611  -13.8541   21.3523 C   0  0  0  0  0  0  0  0  0  0  0  0
    8.4041  -14.1697   21.2922 C   0  0  0  0  0  0  0  0  0  0  0  0
    9.0980  -14.8114   22.4459 C   0  0  0  0  0  0  0  0  0  0  0  0
    9.1771  -16.3061   22.1924 C   0  0  2  0  0  0  0  0  0  0  0  0
    7.9074  -16.9648   22.4087 N   0  0  0  0  0  0  0  0  0  0  0  0
   10.2623  -16.9201   22.9928 C   0  0  0  0  0  0  0  0  0  0  0  0
   10.1030  -17.0026   24.2335 O   0  0  0  0  0  0  0  0  0  0  0  0
    9.1273  -13.8898   20.1467 C   0  0  0  0  0  0  0  0  0  0  0  0
    8.4926  -13.2983   19.0806 C   0  0  0  0  0  0  0  0  0  0  0  0
   11.1300  -20.1853   23.2146 C   0  0  0  0  0  0  0  0  0  0  0  0
   12.4576  -19.5722   22.8532 C   0  0  1  0  0  0  0  0  0  0  0  0
   12.5239  -19.5638   21.4283 O   0  0  0  0  0  0  0  0  0  0  0  0
   12.4791  -18.1136   23.2398 C   0  0  2  0  0  0  0  0  0  0  0  0
   11.4621  -17.4136   22.4205 N   0  0  0  0  0  0  0  0  0  0  0  0
   13.7811  -17.4485   23.0770 C   0  0  0  0  0  0  0  0  0  0  0  0
   13.8454  -16.4915   22.2219 O   0  0  0  0  0  0  0  0  0  0  0  0
   14.9803  -17.7250   23.7458 N   0  0  0  0  0  0  0  0  0  0  0  0
   16.2543  -17.1170   23.3953 C   0  0  1  0  0  0  0  0  0  0  0  0
   16.5890  -16.0898   24.4642 C   0  0  0  0  0  0  0  0  0  0  0  0
   17.9624  -15.5280   24.2622 C   0  0  0  0  0  0  0  0  0  0  0  0
   18.3634  -15.1657   23.1265 O   0  0  0  0  0  0  0  0  0  0  0  0
   17.3383  -18.1099   23.3124 C   0  0  0  0  0  0  0  0  0  0  0  0
   17.1058  -19.4049   23.7072 O   0  0  0  0  0  0  0  0  0  0  0  0
   18.8173  -15.4006   25.3441 O   0  0  0  0  0  0  0  0  0  0  0  0
   18.4581  -17.7781   22.8872 O   0  0  0  0  0  0  0  0  0  0  0  0
  1  2  1  0
  2 12  2  0
  3  4  2  0
  3  2  1  0
  4  5  1  0
  5  6  1  0
  5 11  2  0
  6  7  1  0
  7  8  1  1
  9 17  1  0
  9  7  1  0
 10  9  2  0
 12 11  1  0
 14 13  1  6
 14 16  1  0
 15 14  1  0
 16 18  1  0
 16 17  1  6
 18 20  1  0
 19 18  2  0
 20 21  1  0
 21 25  1  0
 21 22  1  1
 22 23  1  0
 23 27  1  0
 24 23  2  0
 25 26  1  0
 28 25  2  0
M  END
$$$$
