YTD.pdb
     RDKit          3D

 28 28  0  0  1  0  0  0  0  0999 V2000
    5.3786  -10.3683   28.3292 O   0  0  0  0  0  0  0  0  0  0  0  0
    6.0852  -11.3417   27.6371 C   0  0  0  0  0  0  0  0  0  0  0  0
    6.8988  -12.2419   28.3105 C   0  0  0  0  0  0  0  0  0  0  0  0
    7.5704  -13.1816   27.5554 C   0  0  0  0  0  0  0  0  0  0  0  0
    7.4426  -13.2305   26.1813 C   0  0  0  0  0  0  0  0  0  0  0  0
    8.1732  -14.2503   25.3746 C   0  0  0  0  0  0  0  0  0  0  0  0
    7.1587  -15.1943   24.7549 C   0  0  2  0  0  0  0  0  0  0  0  0
    6.4318  -15.9473   25.7536 N   0  0  0  0  0  0  0  0  0  0  0  0
    7.8029  -16.0787   23.7557 C   0  0  0  0  0  0  0  0  0  0  0  0
    7.9646  -17.2850   24.0560 O   0  0  0  0  0  0  0  0  0  0  0  0
    6.6255  -12.3224   25.5322 C   0  0  0  0  0  0  0  0  0  0  0  0
    5.9501  -11.3804   26.2710 C   0  0  0  0  0  0  0  0  0  0  0  0
    7.2612  -15.2413   20.0894 C   0  0  0  0  0  0  0  0  0  0  0  0
    8.5811  -15.9666   20.1191 C   0  0  1  0  0  0  0  0  0  0  0  0
    9.5922  -14.9709   19.9744 O   0  0  0  0  0  0  0  0  0  0  0  0
    8.8219  -16.5517   21.4892 C   0  0  2  0  0  0  0  0  0  0  0  0
    8.2401  -15.6228   22.4862 N   0  0  0  0  0  0  0  0  0  0  0  0
   10.2343  -16.8000   21.8174 C   0  0  0  0  0  0  0  0  0  0  0  0
   10.7663  -16.0494   22.7144 O   0  0  0  0  0  0  0  0  0  0  0  0
   11.0893  -17.7663   21.2723 N   0  0  0  0  0  0  0  0  0  0  0  0
   12.4995  -17.8745   21.6117 C   0  0  1  0  0  0  0  0  0  0  0  0
   13.0986  -16.4787   21.5603 C   0  0  0  0  0  0  0  0  0  0  0  0
   14.5619  -16.5068   21.8774 C   0  0  0  0  0  0  0  0  0  0  0  0
   15.3669  -17.1989   21.2029 O   0  0  0  0  0  0  0  0  0  0  0  0
   12.7049  -18.4475   22.9522 C   0  0  0  0  0  0  0  0  0  0  0  0
   13.9229  -18.9915   23.2798 O   0  0  0  0  0  0  0  0  0  0  0  0
   15.0490  -15.7574   22.9350 O   0  0  0  0  0  0  0  0  0  0  0  0
   11.7808  -18.4391   23.7833 O   0  0  0  0  0  0  0  0  0  0  0  0
  1  2  1  0
  2 12  2  0
  3  4  2  0
  3  2  1  0
  4  5  1  0
  5  6  1  0
  5 11  2  0
  6  7  1  0
  7  8  1  1
  9 17  1  0
  9  7  1  0
 10  9  2  0
 12 11  1  0
 14 13  1  1
 14 16  1  0
 15 14  1  0
 16 18  1  0
 16 17  1  1
 18 20  1  0
 19 18  2  0
 20 21  1  0
 21 25  1  0
 21 22  1  1
 22 23  1  0
 23 27  1  0
 24 23  2  0
 25 26  1  0
 28 25  2  0
M  END
$$$$
