YTD.pdb
     RDKit          3D

 28 28  0  0  1  0  0  0  0  0999 V2000
    7.4003  -10.5784   27.1862 O   0  0  0  0  0  0  0  0  0  0  0  0
    7.1669  -11.9097   26.8719 C   0  0  0  0  0  0  0  0  0  0  0  0
    8.1731  -12.6987   26.3325 C   0  0  0  0  0  0  0  0  0  0  0  0
    7.8669  -14.0132   26.0454 C   0  0  0  0  0  0  0  0  0  0  0  0
    6.6091  -14.5311   26.2831 C   0  0  0  0  0  0  0  0  0  0  0  0
    6.2887  -15.9534   25.9690 C   0  0  0  0  0  0  0  0  0  0  0  0
    7.5771  -16.6717   25.6101 C   0  0  2  0  0  0  0  0  0  0  0  0
    8.7362  -16.0454   26.2075 N   0  0  0  0  0  0  0  0  0  0  0  0
    7.7154  -16.8041   24.1409 C   0  0  0  0  0  0  0  0  0  0  0  0
    6.8198  -17.4232   23.5196 O   0  0  0  0  0  0  0  0  0  0  0  0
    5.6222  -13.7251   26.8215 C   0  0  0  0  0  0  0  0  0  0  0  0
    5.9122  -12.4134   27.1127 C   0  0  0  0  0  0  0  0  0  0  0  0
    7.6261  -14.4974   21.5815 C   0  0  0  0  0  0  0  0  0  0  0  0
    8.9120  -15.2064   21.2454 C   0  0  1  0  0  0  0  0  0  0  0  0
    9.9623  -14.4325   21.8220 O   0  0  0  0  0  0  0  0  0  0  0  0
    8.9796  -16.5302   21.9669 C   0  0  2  0  0  0  0  0  0  0  0  0
    8.8076  -16.2653   23.4146 N   0  0  0  0  0  0  0  0  0  0  0  0
   10.2210  -17.2899   21.7525 C   0  0  0  0  0  0  0  0  0  0  0  0
   11.0642  -17.3169   22.7217 O   0  0  0  0  0  0  0  0  0  0  0  0
   10.6096  -18.0026   20.6110 N   0  0  0  0  0  0  0  0  0  0  0  0
   11.9000  -18.6597   20.4747 C   0  0  1  0  0  0  0  0  0  0  0  0
   11.9215  -19.3679   19.1302 C   0  0  0  0  0  0  0  0  0  0  0  0
   13.2162  -20.0908   18.9211 C   0  0  0  0  0  0  0  0  0  0  0  0
   14.0366  -19.7273   18.0396 O   0  0  0  0  0  0  0  0  0  0  0  0
   13.0185  -17.7048   20.5443 C   0  0  0  0  0  0  0  0  0  0  0  0
   12.7746  -16.3605   20.4020 O   0  0  0  0  0  0  0  0  0  0  0  0
   13.5261  -21.1850   19.7111 O   0  0  0  0  0  0  0  0  0  0  0  0
   14.1776  -18.1130   20.7309 O   0  0  0  0  0  0  0  0  0  0  0  0
  1  2  1  0
  2 12  2  0
  3  4  2  0
  3  2  1  0
  4  5  1  0
  5  6  1  0
  5 11  2  0
  6  7  1  0
  7  8  1  6
  9 17  1  0
  9  7  1  0
 10  9  2  0
 12 11  1  0
 14 13  1  1
 14 16  1  0
 15 14  1  0
 16 18  1  0
 16 17  1  1
 18 20  1  0
 19 18  2  0
 20 21  1  0
 21 25  1  0
 21 22  1  6
 22 23  1  0
 23 27  1  0
 24 23  2  0
 25 26  1  0
 28 25  2  0
M  END
$$$$
