VWI.pdb
     RDKit          3D

 30 31  0  0  1  0  0  0  0  0999 V2000
    7.5538  -15.9857   17.8407 C   0  0  0  0  0  0  0  0  0  0  0  0
    8.2267  -16.0129   19.1686 C   0  0  1  0  0  0  0  0  0  0  0  0
    9.7332  -16.0367   19.1051 C   0  0  0  0  0  0  0  0  0  0  0  0
    7.6937  -14.9914   20.1514 C   0  0  2  0  0  0  0  0  0  0  0  0
    8.0303  -13.6339   19.6776 N   0  0  0  0  0  0  0  0  0  0  0  0
    8.2324  -15.1373   21.5146 C   0  0  0  0  0  0  0  0  0  0  0  0
    9.2745  -14.4738   21.8463 O   0  0  0  0  0  0  0  0  0  0  0  0
    7.7032  -15.9581   22.5267 N   0  0  0  0  0  0  0  0  0  0  0  0
    8.2480  -16.0084   23.8907 C   0  0  1  0  0  0  0  0  0  0  0  0
    7.1423  -16.1472   24.8924 C   0  0  0  0  0  0  0  0  0  0  0  0
    6.6263  -14.9307   25.4842 C   0  0  0  0  0  0  0  0  0  0  0  0
    5.3905  -14.8780   26.1409 C   0  0  0  0  0  0  0  0  0  0  0  0
    5.2427  -13.6222   26.5707 N   0  0  0  0  0  0  0  0  0  0  0  0
    6.3083  -12.8465   26.2349 C   0  0  0  0  0  0  0  0  0  0  0  0
    6.6116  -11.5197   26.4468 C   0  0  0  0  0  0  0  0  0  0  0  0
    7.7824  -10.9748   25.9873 C   0  0  0  0  0  0  0  0  0  0  0  0
    8.6747  -11.7771   25.2970 C   0  0  0  0  0  0  0  0  0  0  0  0
    8.3488  -13.0981   25.0987 C   0  0  0  0  0  0  0  0  0  0  0  0
    7.1842  -13.6883   25.5430 C   0  0  0  0  0  0  0  0  0  0  0  0
    9.3841  -16.9291   24.0294 C   0  0  0  0  0  0  0  0  0  0  0  0
    9.3972  -18.0658   23.4533 O   0  0  0  0  0  0  0  0  0  0  0  0
   15.2596  -17.3099   24.1006 C   0  0  0  0  0  0  0  0  0  0  0  0
   14.1988  -17.3495   25.1259 C   0  0  0  0  0  0  0  0  0  0  0  0
   12.8946  -16.7392   24.8677 C   0  0  2  0  0  0  0  0  0  0  0  0
   12.7464  -15.3581   25.5086 C   0  0  0  0  0  0  0  0  0  0  0  0
   11.6356  -17.5432   25.0488 C   0  0  2  0  0  0  0  0  0  0  0  0
   10.5246  -16.6085   24.7977 N   0  0  0  0  0  0  0  0  0  0  0  0
   11.4560  -18.2562   26.2956 C   0  0  0  0  0  0  0  0  0  0  0  0
   12.0584  -19.3189   26.5824 O   0  0  0  0  0  0  0  0  0  0  0  0
   10.5810  -17.8188   27.3146 O   0  0  0  0  0  0  0  0  0  0  0  0
  2  1  1  6
  2  3  1  0
  4  2  1  0
  4  5  1  6
  6  4  1  0
  6  7  2  0
  8  6  1  0
  9  8  1  0
 10 11  1  0
  9 10  1  1
 11 19  1  0
 12 11  2  0
 12 13  1  0
 13 14  1  0
 14 15  1  0
 15 16  2  0
 17 16  1  0
 18 17  2  0
 19 14  2  0
 19 18  1  0
 20 21  2  0
 20  9  1  0
 23 22  1  0
 23 24  1  0
 24 26  1  0
 24 25  1  1
 26 27  1  1
 26 28  1  0
 27 20  1  0
 28 30  1  0
 29 28  2  0
M  END
$$$$
