VWI.pdb
     RDKit          3D

 30 31  0  0  1  0  0  0  0  0999 V2000
   12.5591  -17.3363   19.3477 C   0  0  0  0  0  0  0  0  0  0  0  0
   11.3816  -18.2438   19.4301 C   0  0  1  0  0  0  0  0  0  0  0  0
   11.3696  -19.3467   18.4017 C   0  0  0  0  0  0  0  0  0  0  0  0
   11.0808  -18.7386   20.8295 C   0  0  2  0  0  0  0  0  0  0  0  0
    9.9249  -19.6564   20.7865 N   0  0  0  0  0  0  0  0  0  0  0  0
   10.7656  -17.6646   21.7871 C   0  0  0  0  0  0  0  0  0  0  0  0
   11.6242  -16.7378   21.9876 O   0  0  0  0  0  0  0  0  0  0  0  0
    9.5778  -17.5456   22.5308 N   0  0  0  0  0  0  0  0  0  0  0  0
    9.3576  -16.4955   23.5352 C   0  0  1  0  0  0  0  0  0  0  0  0
    7.9495  -15.9882   23.4636 C   0  0  0  0  0  0  0  0  0  0  0  0
    7.7236  -14.6039   23.8226 C   0  0  0  0  0  0  0  0  0  0  0  0
    8.2088  -13.5379   23.0549 C   0  0  0  0  0  0  0  0  0  0  0  0
    7.8063  -12.4188   23.6626 N   0  0  0  0  0  0  0  0  0  0  0  0
    7.0854  -12.6866   24.7845 C   0  0  0  0  0  0  0  0  0  0  0  0
    6.4748  -11.8868   25.7251 C   0  0  0  0  0  0  0  0  0  0  0  0
    5.7987  -12.4269   26.7882 C   0  0  0  0  0  0  0  0  0  0  0  0
    5.7309  -13.8037   26.9154 C   0  0  0  0  0  0  0  0  0  0  0  0
    6.3485  -14.5801   25.9633 C   0  0  0  0  0  0  0  0  0  0  0  0
    7.0382  -14.0807   24.8784 C   0  0  0  0  0  0  0  0  0  0  0  0
    9.8650  -16.8495   24.8673 C   0  0  0  0  0  0  0  0  0  0  0  0
    9.7698  -18.0351   25.3254 O   0  0  0  0  0  0  0  0  0  0  0  0
   10.0222  -12.5204   28.1874 C   0  0  0  0  0  0  0  0  0  0  0  0
   10.5032  -13.6653   27.3898 C   0  0  0  0  0  0  0  0  0  0  0  0
   10.4084  -15.0273   27.9153 C   0  0  2  0  0  0  0  0  0  0  0  0
   10.8961  -15.1427   29.3607 C   0  0  0  0  0  0  0  0  0  0  0  0
   10.9037  -16.1886   27.0967 C   0  0  2  0  0  0  0  0  0  0  0  0
   10.4911  -15.9059   25.7108 N   0  0  0  0  0  0  0  0  0  0  0  0
   10.5160  -17.5228   27.5026 C   0  0  0  0  0  0  0  0  0  0  0  0
    9.3490  -17.9714   27.3950 O   0  0  0  0  0  0  0  0  0  0  0  0
   11.4215  -18.4525   28.0604 O   0  0  0  0  0  0  0  0  0  0  0  0
  2  1  1  1
  2  3  1  0
  4  2  1  0
  4  5  1  6
  6  4  1  0
  6  7  2  0
  8  6  1  0
  9  8  1  0
 10 11  1  0
  9 10  1  1
 11 19  1  0
 12 11  2  0
 12 13  1  0
 13 14  1  0
 14 15  1  0
 15 16  2  0
 17 16  1  0
 18 17  2  0
 19 14  2  0
 19 18  1  0
 20 21  2  0
 20  9  1  0
 23 22  1  0
 23 24  1  0
 24 26  1  0
 24 25  1  1
 26 27  1  6
 26 28  1  0
 27 20  1  0
 28 30  1  0
 29 28  2  0
M  END
$$$$
