VWI.pdb
     RDKit          3D

 30 31  0  0  1  0  0  0  0  0999 V2000
   12.7226  -19.0528   21.7086 C   0  0  0  0  0  0  0  0  0  0  0  0
   12.8440  -18.0792   20.5887 C   0  0  1  0  0  0  0  0  0  0  0  0
   13.5189  -18.6259   19.3559 C   0  0  0  0  0  0  0  0  0  0  0  0
   11.5632  -17.3330   20.2784 C   0  0  2  0  0  0  0  0  0  0  0  0
   11.8284  -16.3143   19.2429 N   0  0  0  0  0  0  0  0  0  0  0  0
   10.9752  -16.6475   21.4420 C   0  0  0  0  0  0  0  0  0  0  0  0
   11.5758  -15.6311   21.9346 O   0  0  0  0  0  0  0  0  0  0  0  0
    9.7802  -17.0045   22.0921 N   0  0  0  0  0  0  0  0  0  0  0  0
    9.2286  -16.2582   23.2317 C   0  0  1  0  0  0  0  0  0  0  0  0
    7.7420  -16.1241   23.1008 C   0  0  0  0  0  0  0  0  0  0  0  0
    7.0414  -15.4354   24.1643 C   0  0  0  0  0  0  0  0  0  0  0  0
    6.1734  -16.0938   25.0443 C   0  0  0  0  0  0  0  0  0  0  0  0
    5.7223  -15.1685   25.8952 N   0  0  0  0  0  0  0  0  0  0  0  0
    6.2424  -13.9409   25.6261 C   0  0  0  0  0  0  0  0  0  0  0  0
    6.0819  -12.7020   26.2063 C   0  0  0  0  0  0  0  0  0  0  0  0
    6.7373  -11.5992   25.7234 C   0  0  0  0  0  0  0  0  0  0  0  0
    7.5761  -11.7377   24.6309 C   0  0  0  0  0  0  0  0  0  0  0  0
    7.7195  -12.9848   24.0698 C   0  0  0  0  0  0  0  0  0  0  0  0
    7.0811  -14.1206   24.5221 C   0  0  0  0  0  0  0  0  0  0  0  0
    9.7383  -16.7189   24.5299 C   0  0  0  0  0  0  0  0  0  0  0  0
   10.0567  -17.9369   24.7288 O   0  0  0  0  0  0  0  0  0  0  0  0
   10.0461  -12.5953   28.2755 C   0  0  0  0  0  0  0  0  0  0  0  0
   10.4253  -13.7187   27.3965 C   0  0  0  0  0  0  0  0  0  0  0  0
   10.2715  -15.1007   27.8512 C   0  0  2  0  0  0  0  0  0  0  0  0
   10.9448  -15.3618   29.1998 C   0  0  0  0  0  0  0  0  0  0  0  0
   10.5286  -16.2404   26.9032 C   0  0  2  0  0  0  0  0  0  0  0  0
    9.9118  -15.8445   25.6250 N   0  0  0  0  0  0  0  0  0  0  0  0
   10.1111  -17.5672   27.3037 C   0  0  0  0  0  0  0  0  0  0  0  0
    8.9336  -17.9877   27.1981 O   0  0  0  0  0  0  0  0  0  0  0  0
   10.9965  -18.5208   27.8535 O   0  0  0  0  0  0  0  0  0  0  0  0
  2  1  1  1
  2  3  1  0
  4  2  1  0
  4  5  1  6
  6  4  1  0
  6  7  2  0
  8  6  1  0
  9  8  1  0
 10 11  1  0
  9 10  1  1
 11 19  1  0
 12 11  2  0
 12 13  1  0
 13 14  1  0
 14 15  1  0
 15 16  2  0
 17 16  1  0
 18 17  2  0
 19 14  2  0
 19 18  1  0
 20 21  2  0
 20  9  1  0
 23 22  1  0
 23 24  1  0
 24 26  1  0
 24 25  1  1
 26 27  1  6
 26 28  1  0
 27 20  1  0
 28 30  1  0
 29 28  2  0
M  END
$$$$
