VWI.pdb
     RDKit          3D

 30 31  0  0  1  0  0  0  0  0999 V2000
   12.5193  -19.2824   19.3912 C   0  0  0  0  0  0  0  0  0  0  0  0
   12.2291  -18.4531   20.5932 C   0  0  1  0  0  0  0  0  0  0  0  0
   13.3999  -18.2748   21.5267 C   0  0  0  0  0  0  0  0  0  0  0  0
   11.5145  -17.1532   20.2881 C   0  0  2  0  0  0  0  0  0  0  0  0
   12.4625  -16.2075   19.6659 N   0  0  0  0  0  0  0  0  0  0  0  0
   10.9386  -16.4963   21.4741 C   0  0  0  0  0  0  0  0  0  0  0  0
   11.6279  -15.6144   22.0933 O   0  0  0  0  0  0  0  0  0  0  0  0
    9.6652  -16.7446   22.0172 N   0  0  0  0  0  0  0  0  0  0  0  0
    9.1539  -16.0653   23.2160 C   0  0  1  0  0  0  0  0  0  0  0  0
    7.6600  -15.9627   23.1639 C   0  0  0  0  0  0  0  0  0  0  0  0
    6.9989  -15.3248   24.2829 C   0  0  0  0  0  0  0  0  0  0  0  0
    6.2980  -16.0483   25.2558 C   0  0  0  0  0  0  0  0  0  0  0  0
    5.8373  -15.1543   26.1346 N   0  0  0  0  0  0  0  0  0  0  0  0
    6.1939  -13.8861   25.7965 C   0  0  0  0  0  0  0  0  0  0  0  0
    5.9604  -12.6567   26.3720 C   0  0  0  0  0  0  0  0  0  0  0  0
    6.4430  -11.5037   25.8093 C   0  0  0  0  0  0  0  0  0  0  0  0
    7.1792  -11.5809   24.6394 C   0  0  0  0  0  0  0  0  0  0  0  0
    7.3985  -12.8197   24.0848 C   0  0  0  0  0  0  0  0  0  0  0  0
    6.9332  -14.0045   24.6158 C   0  0  0  0  0  0  0  0  0  0  0  0
    9.7378  -16.5721   24.4649 C   0  0  0  0  0  0  0  0  0  0  0  0
   10.2370  -17.7422   24.5427 O   0  0  0  0  0  0  0  0  0  0  0  0
    9.4418  -12.8528   28.6127 C   0  0  0  0  0  0  0  0  0  0  0  0
   10.0136  -13.8347   27.6707 C   0  0  0  0  0  0  0  0  0  0  0  0
    9.9334  -15.2678   27.9539 C   0  0  2  0  0  0  0  0  0  0  0  0
   10.5066  -15.6367   29.3234 C   0  0  0  0  0  0  0  0  0  0  0  0
   10.3628  -16.2679   26.9149 C   0  0  2  0  0  0  0  0  0  0  0  0
    9.7873  -15.7958   25.6434 N   0  0  0  0  0  0  0  0  0  0  0  0
   10.0598  -17.6641   27.1470 C   0  0  0  0  0  0  0  0  0  0  0  0
   10.8877  -18.4893   27.6033 O   0  0  0  0  0  0  0  0  0  0  0  0
    8.7944  -18.2328   26.8813 O   0  0  0  0  0  0  0  0  0  0  0  0
  2  1  1  6
  2  3  1  0
  4  2  1  0
  4  5  1  1
  6  4  1  0
  6  7  2  0
  8  6  1  0
  9  8  1  0
 10 11  1  0
  9 10  1  1
 11 19  1  0
 12 11  2  0
 12 13  1  0
 13 14  1  0
 14 15  1  0
 15 16  2  0
 17 16  1  0
 18 17  2  0
 19 14  2  0
 19 18  1  0
 20 21  2  0
 20  9  1  0
 23 22  1  0
 23 24  1  0
 24 26  1  0
 24 25  1  1
 26 27  1  6
 26 28  1  0
 27 20  1  0
 28 30  1  0
 29 28  2  0
M  END
$$$$
