VWI.pdb
     RDKit          3D

 30 31  0  0  1  0  0  0  0  0999 V2000
   13.1409  -18.6352   21.7546 C   0  0  0  0  0  0  0  0  0  0  0  0
   12.7035  -17.8831   20.5464 C   0  0  1  0  0  0  0  0  0  0  0  0
   13.2624  -18.4077   19.2477 C   0  0  0  0  0  0  0  0  0  0  0  0
   11.2122  -17.6263   20.4859 C   0  0  2  0  0  0  0  0  0  0  0  0
   10.8990  -16.8416   19.2749 N   0  0  0  0  0  0  0  0  0  0  0  0
   10.6864  -16.8883   21.6472 C   0  0  0  0  0  0  0  0  0  0  0  0
   11.0568  -15.6785   21.8356 O   0  0  0  0  0  0  0  0  0  0  0  0
    9.7875  -17.3907   22.6052 N   0  0  0  0  0  0  0  0  0  0  0  0
    9.3494  -16.6235   23.7798 C   0  0  1  0  0  0  0  0  0  0  0  0
    7.8535  -16.5563   23.8343 C   0  0  0  0  0  0  0  0  0  0  0  0
    7.2445  -15.2455   23.7501 C   0  0  0  0  0  0  0  0  0  0  0  0
    6.8374  -14.6807   22.5351 C   0  0  0  0  0  0  0  0  0  0  0  0
    6.3108  -13.4889   22.8283 N   0  0  0  0  0  0  0  0  0  0  0  0
    6.3481  -13.2371   24.1644 C   0  0  0  0  0  0  0  0  0  0  0  0
    5.9391  -12.1703   24.9338 C   0  0  0  0  0  0  0  0  0  0  0  0
    6.1016  -12.1701   26.2948 C   0  0  0  0  0  0  0  0  0  0  0  0
    6.6890  -13.2656   26.9042 C   0  0  0  0  0  0  0  0  0  0  0  0
    7.0886  -14.3177   26.1143 C   0  0  0  0  0  0  0  0  0  0  0  0
    6.9446  -14.3612   24.7434 C   0  0  0  0  0  0  0  0  0  0  0  0
   10.0385  -17.0114   25.0175 C   0  0  0  0  0  0  0  0  0  0  0  0
   10.7394  -18.0736   25.0875 O   0  0  0  0  0  0  0  0  0  0  0  0
   10.4825  -12.8787   28.7020 C   0  0  0  0  0  0  0  0  0  0  0  0
   10.7865  -14.0655   27.8789 C   0  0  0  0  0  0  0  0  0  0  0  0
   10.4644  -15.4072   28.3648 C   0  0  2  0  0  0  0  0  0  0  0  0
   11.0535  -15.6971   29.7466 C   0  0  0  0  0  0  0  0  0  0  0  0
   10.6299  -16.5979   27.4599 C   0  0  2  0  0  0  0  0  0  0  0  0
    9.9722  -16.2321   26.1932 N   0  0  0  0  0  0  0  0  0  0  0  0
   10.1762  -17.8862   27.9391 C   0  0  0  0  0  0  0  0  0  0  0  0
   10.8919  -18.6719   28.6062 O   0  0  0  0  0  0  0  0  0  0  0  0
    8.8755  -18.3829   27.7006 O   0  0  0  0  0  0  0  0  0  0  0  0
  2  1  1  1
  2  3  1  0
  4  2  1  0
  4  5  1  6
  6  4  1  0
  6  7  2  0
  8  6  1  0
  9  8  1  0
 10 11  1  0
  9 10  1  1
 11 19  1  0
 12 11  2  0
 12 13  1  0
 13 14  1  0
 14 15  1  0
 15 16  2  0
 17 16  1  0
 18 17  2  0
 19 14  2  0
 19 18  1  0
 20 21  2  0
 20  9  1  0
 23 22  1  0
 23 24  1  0
 24 26  1  0
 24 25  1  1
 26 27  1  6
 26 28  1  0
 27 20  1  0
 28 30  1  0
 29 28  2  0
M  END
$$$$
