VWI.pdb
     RDKit          3D

 30 31  0  0  1  0  0  0  0  0999 V2000
   12.4795  -17.7536   21.1717 C   0  0  0  0  0  0  0  0  0  0  0  0
   11.8266  -17.0212   20.0518 C   0  0  1  0  0  0  0  0  0  0  0  0
   12.2688  -17.4578   18.6778 C   0  0  0  0  0  0  0  0  0  0  0  0
   10.3216  -16.9122   20.1804 C   0  0  2  0  0  0  0  0  0  0  0  0
    9.7990  -16.0504   19.1013 N   0  0  0  0  0  0  0  0  0  0  0  0
    9.8719  -16.3464   21.4640 C   0  0  0  0  0  0  0  0  0  0  0  0
   10.0558  -15.1016   21.6940 O   0  0  0  0  0  0  0  0  0  0  0  0
    9.2385  -17.0553   22.5006 N   0  0  0  0  0  0  0  0  0  0  0  0
    8.9055  -16.4558   23.8005 C   0  0  1  0  0  0  0  0  0  0  0  0
    7.5041  -16.8079   24.1969 C   0  0  0  0  0  0  0  0  0  0  0  0
    6.6802  -15.7463   24.7359 C   0  0  0  0  0  0  0  0  0  0  0  0
    5.3297  -15.9305   25.0575 C   0  0  0  0  0  0  0  0  0  0  0  0
    4.8917  -14.7638   25.5377 N   0  0  0  0  0  0  0  0  0  0  0  0
    5.8745  -13.8237   25.5503 C   0  0  0  0  0  0  0  0  0  0  0  0
    5.9104  -12.5035   25.9414 C   0  0  0  0  0  0  0  0  0  0  0  0
    7.0593  -11.7625   25.8426 C   0  0  0  0  0  0  0  0  0  0  0  0
    8.2039  -12.3565   25.3390 C   0  0  0  0  0  0  0  0  0  0  0  0
    8.1422  -13.6755   24.9556 C   0  0  0  0  0  0  0  0  0  0  0  0
    7.0098  -14.4584   25.0376 C   0  0  0  0  0  0  0  0  0  0  0  0
    9.9484  -16.6532   24.8159 C   0  0  0  0  0  0  0  0  0  0  0  0
   10.8847  -17.5029   24.6558 O   0  0  0  0  0  0  0  0  0  0  0  0
   10.3637  -12.5879   28.5964 C   0  0  0  0  0  0  0  0  0  0  0  0
   10.5949  -13.6891   27.6412 C   0  0  0  0  0  0  0  0  0  0  0  0
   10.7100  -15.0688   28.1138 C   0  0  2  0  0  0  0  0  0  0  0  0
   11.6730  -15.2153   29.2935 C   0  0  0  0  0  0  0  0  0  0  0  0
   10.9061  -16.1901   27.1297 C   0  0  2  0  0  0  0  0  0  0  0  0
    9.9797  -15.9131   26.0180 N   0  0  0  0  0  0  0  0  0  0  0  0
   10.7669  -17.5489   27.6086 C   0  0  0  0  0  0  0  0  0  0  0  0
    9.6614  -18.1206   27.7684 O   0  0  0  0  0  0  0  0  0  0  0  0
   11.8702  -18.3656   27.9419 O   0  0  0  0  0  0  0  0  0  0  0  0
  2  1  1  1
  2  3  1  0
  4  2  1  0
  4  5  1  6
  6  4  1  0
  6  7  2  0
  8  6  1  0
  9  8  1  0
 10 11  1  0
  9 10  1  1
 11 19  1  0
 12 11  2  0
 12 13  1  0
 13 14  1  0
 14 15  1  0
 15 16  2  0
 17 16  1  0
 18 17  2  0
 19 14  2  0
 19 18  1  0
 20 21  2  0
 20  9  1  0
 23 22  1  0
 23 24  1  0
 24 26  1  0
 24 25  1  1
 26 27  1  6
 26 28  1  0
 27 20  1  0
 28 30  1  0
 29 28  2  0
M  END
$$$$
