VWI.pdb
     RDKit          3D

 30 31  0  0  1  0  0  0  0  0999 V2000
   12.8793  -18.4296   21.4604 C   0  0  0  0  0  0  0  0  0  0  0  0
   12.6712  -17.6264   20.2242 C   0  0  1  0  0  0  0  0  0  0  0  0
   13.3089  -18.2070   18.9871 C   0  0  0  0  0  0  0  0  0  0  0  0
   11.2361  -17.1966   20.0019 C   0  0  2  0  0  0  0  0  0  0  0  0
   11.1675  -16.3094   18.8236 N   0  0  0  0  0  0  0  0  0  0  0  0
   10.6461  -16.4746   21.1423 C   0  0  0  0  0  0  0  0  0  0  0  0
   11.0666  -15.2987   21.4193 O   0  0  0  0  0  0  0  0  0  0  0  0
    9.6327  -16.9584   21.9891 N   0  0  0  0  0  0  0  0  0  0  0  0
    9.1435  -16.2217   23.1630 C   0  0  1  0  0  0  0  0  0  0  0  0
    7.6460  -16.1733   23.1653 C   0  0  0  0  0  0  0  0  0  0  0  0
    7.0068  -15.4495   24.2441 C   0  0  0  0  0  0  0  0  0  0  0  0
    6.3527  -16.0952   25.3007 C   0  0  0  0  0  0  0  0  0  0  0  0
    5.9007  -15.1344   26.1107 N   0  0  0  0  0  0  0  0  0  0  0  0
    6.2190  -13.8954   25.6486 C   0  0  0  0  0  0  0  0  0  0  0  0
    5.9772  -12.6236   26.1192 C   0  0  0  0  0  0  0  0  0  0  0  0
    6.4168  -11.5173   25.4397 C   0  0  0  0  0  0  0  0  0  0  0  0
    7.1172  -11.6859   24.2575 C   0  0  0  0  0  0  0  0  0  0  0  0
    7.3457  -12.9655   23.8091 C   0  0  0  0  0  0  0  0  0  0  0  0
    6.9231  -14.1060   24.4593 C   0  0  0  0  0  0  0  0  0  0  0  0
    9.7930  -16.6279   24.4163 C   0  0  0  0  0  0  0  0  0  0  0  0
   10.2654  -17.8010   24.5746 O   0  0  0  0  0  0  0  0  0  0  0  0
   10.3684  -12.4332   28.1191 C   0  0  0  0  0  0  0  0  0  0  0  0
   10.6830  -13.5975   27.2684 C   0  0  0  0  0  0  0  0  0  0  0  0
   10.3465  -14.9511   27.7098 C   0  0  2  0  0  0  0  0  0  0  0  0
   10.8683  -15.2664   29.1128 C   0  0  0  0  0  0  0  0  0  0  0  0
   10.5650  -16.1214   26.7897 C   0  0  2  0  0  0  0  0  0  0  0  0
    9.9384  -15.7466   25.5100 N   0  0  0  0  0  0  0  0  0  0  0  0
   10.1247  -17.4274   27.2322 C   0  0  0  0  0  0  0  0  0  0  0  0
   10.8786  -18.2667   27.7816 O   0  0  0  0  0  0  0  0  0  0  0  0
    8.7953  -17.8825   27.0878 O   0  0  0  0  0  0  0  0  0  0  0  0
  2  1  1  1
  2  3  1  0
  4  2  1  0
  4  5  1  6
  6  4  1  0
  6  7  2  0
  8  6  1  0
  9  8  1  0
 10 11  1  0
  9 10  1  1
 11 19  1  0
 12 11  2  0
 12 13  1  0
 13 14  1  0
 14 15  1  0
 15 16  2  0
 17 16  1  0
 18 17  2  0
 19 14  2  0
 19 18  1  0
 20 21  2  0
 20  9  1  0
 23 22  1  0
 23 24  1  0
 24 26  1  0
 24 25  1  1
 26 27  1  6
 26 28  1  0
 27 20  1  0
 28 30  1  0
 29 28  2  0
M  END
$$$$
