HAH.pdb
     RDKit          3D

 26 27  0  0  1  0  0  0  0  0999 V2000
   20.3919  -13.8081  -18.1764 N   0  0  0  0  0  0  0  0  0  0  0  0
   20.3690  -13.3391  -16.7988 C   0  0  1  0  0  0  0  0  0  0  0  0
   20.9376  -14.4307  -15.9226 C   0  0  0  0  0  0  0  0  0  0  0  0
   20.2206  -15.7039  -16.1047 C   0  0  0  0  0  0  0  0  0  0  0  0
   18.8625  -15.8959  -16.1871 C   0  0  0  0  0  0  0  0  0  0  0  0
   18.6330  -17.2324  -16.3359 N   0  0  0  0  0  0  0  0  0  0  0  0
   19.8088  -17.8601  -16.3466 C   0  0  0  0  0  0  0  0  0  0  0  0
   20.7863  -16.9185  -16.2042 N   0  0  0  0  0  0  0  0  0  0  0  0
   21.1739  -12.1151  -16.6292 C   0  0  0  0  0  0  0  0  0  0  0  0
   21.3425  -11.5600  -15.5147 O   0  0  0  0  0  0  0  0  0  0  0  0
   23.3579   -9.9718  -18.7776 C   0  0  0  0  0  0  0  0  0  0  0  0
   22.4874  -10.1895  -17.5567 C   0  0  2  0  0  0  0  0  0  0  0  0
   21.8265  -11.4658  -17.7326 N   0  0  0  0  0  0  0  0  0  0  0  0
   21.4494   -9.1124  -17.4445 C   0  0  0  0  0  0  0  0  0  0  0  0
   20.3597   -9.1799  -18.0649 O   0  0  0  0  0  0  0  0  0  0  0  0
   21.6845   -7.9867  -16.6263 N   0  0  0  0  0  0  0  0  0  0  0  0
   20.7059   -6.8638  -16.6845 C   0  0  1  0  0  0  0  0  0  0  0  0
   19.7894   -6.9744  -15.5246 C   0  0  0  0  0  0  0  0  0  0  0  0
   18.8366   -5.8606  -15.4026 C   0  0  0  0  0  0  0  0  0  0  0  0
   18.6172   -4.7593  -16.1868 C   0  0  0  0  0  0  0  0  0  0  0  0
   17.5645   -4.0231  -15.7257 N   0  0  0  0  0  0  0  0  0  0  0  0
   17.1224   -4.6747  -14.6430 C   0  0  0  0  0  0  0  0  0  0  0  0
   17.8624   -5.7685  -14.4327 N   0  0  0  0  0  0  0  0  0  0  0  0
   21.5266   -5.6119  -16.6464 C   0  0  0  0  0  0  0  0  0  0  0  0
   22.6892   -5.5501  -16.2514 O   0  0  0  0  0  0  0  0  0  0  0  0
   20.9536   -4.4034  -17.0877 O   0  0  0  0  0  0  0  0  0  0  0  0
  2  9  1  0
  2  1  1  6
  3  2  1  0
  4  3  1  0
  5  4  2  0
  6  7  1  0
  6  5  1  0
  7  8  2  0
  8  4  1  0
  9 10  2  0
 12 11  1  6
 12 14  1  0
 13  9  1  0
 13 12  1  0
 14 15  2  0
 16 14  1  0
 16 17  1  0
 17 24  1  0
 17 18  1  1
 19 23  1  0
 19 18  1  0
 20 19  2  0
 21 20  1  0
 21 22  1  0
 22 23  2  0
 24 26  1  0
 25 24  2  0
M  END
$$$$
