HAH.pdb
     RDKit          3D

 26 27  0  0  1  0  0  0  0  0999 V2000
   20.4228  -15.9068  -16.1341 N   0  0  0  0  0  0  0  0  0  0  0  0
   20.5736  -14.7070  -16.9440 C   0  0  1  0  0  0  0  0  0  0  0  0
   19.2247  -14.3670  -17.5336 C   0  0  0  0  0  0  0  0  0  0  0  0
   18.7562  -15.4118  -18.4594 C   0  0  0  0  0  0  0  0  0  0  0  0
   19.2072  -15.6666  -19.7321 C   0  0  0  0  0  0  0  0  0  0  0  0
   18.4850  -16.7086  -20.2357 N   0  0  0  0  0  0  0  0  0  0  0  0
   17.6083  -17.0962  -19.3095 C   0  0  0  0  0  0  0  0  0  0  0  0
   17.7756  -16.2973  -18.2158 N   0  0  0  0  0  0  0  0  0  0  0  0
   21.0509  -13.5665  -16.1402 C   0  0  0  0  0  0  0  0  0  0  0  0
   20.3889  -13.0784  -15.1905 O   0  0  0  0  0  0  0  0  0  0  0  0
   24.1978  -11.5492  -15.9174 C   0  0  0  0  0  0  0  0  0  0  0  0
   22.7356  -11.7878  -15.6002 C   0  0  2  0  0  0  0  0  0  0  0  0
   22.3144  -12.9281  -16.3871 N   0  0  0  0  0  0  0  0  0  0  0  0
   21.9072  -10.5970  -15.9823 C   0  0  0  0  0  0  0  0  0  0  0  0
   21.5482  -10.3971  -17.1689 O   0  0  0  0  0  0  0  0  0  0  0  0
   21.5109   -9.6664  -14.9979 N   0  0  0  0  0  0  0  0  0  0  0  0
   20.6983   -8.4942  -15.4312 C   0  0  1  0  0  0  0  0  0  0  0  0
   19.2886   -8.7233  -15.0341 C   0  0  0  0  0  0  0  0  0  0  0  0
   18.4086   -7.5636  -15.2439 C   0  0  0  0  0  0  0  0  0  0  0  0
   18.6201   -6.3593  -15.8611 C   0  0  0  0  0  0  0  0  0  0  0  0
   17.4812   -5.6077  -15.8872 N   0  0  0  0  0  0  0  0  0  0  0  0
   16.5494   -6.3536  -15.2806 C   0  0  0  0  0  0  0  0  0  0  0  0
   17.0776   -7.5188  -14.8910 N   0  0  0  0  0  0  0  0  0  0  0  0
   21.3006   -7.3096  -14.7412 C   0  0  0  0  0  0  0  0  0  0  0  0
   21.9886   -7.3682  -13.7241 O   0  0  0  0  0  0  0  0  0  0  0  0
   21.0808   -6.0233  -15.2712 O   0  0  0  0  0  0  0  0  0  0  0  0
  2  9  1  0
  2  1  1  1
  3  2  1  0
  4  3  1  0
  5  4  2  0
  6  7  1  0
  6  5  1  0
  7  8  2  0
  8  4  1  0
  9 10  2  0
 12 11  1  6
 12 14  1  0
 13  9  1  0
 13 12  1  0
 14 15  2  0
 16 14  1  0
 16 17  1  0
 17 24  1  0
 17 18  1  1
 19 23  1  0
 19 18  1  0
 20 19  2  0
 21 20  1  0
 21 22  1  0
 22 23  2  0
 24 26  1  0
 25 24  2  0
M  END
$$$$
