HAH.pdb
     RDKit          3D

 26 27  0  0  1  0  0  0  0  0999 V2000
   18.9747  -12.3155  -17.6127 N   0  0  0  0  0  0  0  0  0  0  0  0
   18.6191  -10.9042  -17.6019 C   0  0  1  0  0  0  0  0  0  0  0  0
   17.4874  -10.7135  -16.6193 C   0  0  0  0  0  0  0  0  0  0  0  0
   16.2681  -11.4179  -17.0498 C   0  0  0  0  0  0  0  0  0  0  0  0
   15.4117  -11.0657  -18.0651 C   0  0  0  0  0  0  0  0  0  0  0  0
   14.4047  -11.9851  -18.1065 N   0  0  0  0  0  0  0  0  0  0  0  0
   14.6212  -12.8860  -17.1483 C   0  0  0  0  0  0  0  0  0  0  0  0
   15.7688  -12.5364  -16.4978 N   0  0  0  0  0  0  0  0  0  0  0  0
   19.7588  -10.0609  -17.1959 C   0  0  0  0  0  0  0  0  0  0  0  0
   20.3520  -10.2008  -16.0972 O   0  0  0  0  0  0  0  0  0  0  0  0
   21.8657   -7.4076  -18.7829 C   0  0  0  0  0  0  0  0  0  0  0  0
   21.3488   -8.1572  -17.5717 C   0  0  2  0  0  0  0  0  0  0  0  0
   20.2752   -9.0128  -18.0324 N   0  0  0  0  0  0  0  0  0  0  0  0
   20.8092   -7.2042  -16.5467 C   0  0  0  0  0  0  0  0  0  0  0  0
   19.6147   -6.8177  -16.5701 O   0  0  0  0  0  0  0  0  0  0  0  0
   21.6494   -6.7182  -15.5220 N   0  0  0  0  0  0  0  0  0  0  0  0
   21.0476   -5.8297  -14.4874 C   0  0  1  0  0  0  0  0  0  0  0  0
   21.0986   -6.5248  -13.1791 C   0  0  0  0  0  0  0  0  0  0  0  0
   20.1384   -7.6312  -13.0481 C   0  0  0  0  0  0  0  0  0  0  0  0
   19.2470   -8.1738  -13.9352 C   0  0  0  0  0  0  0  0  0  0  0  0
   18.6059   -9.2523  -13.3981 N   0  0  0  0  0  0  0  0  0  0  0  0
   19.1052   -9.3836  -12.1629 C   0  0  0  0  0  0  0  0  0  0  0  0
   20.0167   -8.4323  -11.9338 N   0  0  0  0  0  0  0  0  0  0  0  0
   21.8712   -4.5792  -14.5020 C   0  0  0  0  0  0  0  0  0  0  0  0
   22.8969   -4.4255  -15.1621 O   0  0  0  0  0  0  0  0  0  0  0  0
   21.4679   -3.4840  -13.7137 O   0  0  0  0  0  0  0  0  0  0  0  0
  2  9  1  0
  2  1  1  1
  3  2  1  0
  4  3  1  0
  5  4  2  0
  6  7  1  0
  6  5  1  0
  7  8  2  0
  8  4  1  0
  9 10  2  0
 12 11  1  6
 12 14  1  0
 13  9  1  0
 13 12  1  0
 14 15  2  0
 16 14  1  0
 16 17  1  0
 17 24  1  0
 17 18  1  1
 19 23  1  0
 19 18  1  0
 20 19  2  0
 21 20  1  0
 21 22  1  0
 22 23  2  0
 24 26  1  0
 25 24  2  0
M  END
$$$$
