HAH.pdb
     RDKit          3D

 26 27  0  0  1  0  0  0  0  0999 V2000
   20.8769  -14.7024  -20.0485 N   0  0  0  0  0  0  0  0  0  0  0  0
   20.2990  -13.9848  -18.9219 C   0  0  1  0  0  0  0  0  0  0  0  0
   20.6062  -14.7625  -17.6636 C   0  0  0  0  0  0  0  0  0  0  0  0
   19.9688  -16.0900  -17.6747 C   0  0  0  0  0  0  0  0  0  0  0  0
   18.6258  -16.3746  -17.6178 C   0  0  0  0  0  0  0  0  0  0  0  0
   18.4802  -17.7309  -17.6348 N   0  0  0  0  0  0  0  0  0  0  0  0
   19.6926  -18.2809  -17.7001 C   0  0  0  0  0  0  0  0  0  0  0  0
   20.6091  -17.2701  -17.7246 N   0  0  0  0  0  0  0  0  0  0  0  0
   20.8595  -12.6263  -18.7991 C   0  0  0  0  0  0  0  0  0  0  0  0
   22.0909  -12.3884  -18.8732 O   0  0  0  0  0  0  0  0  0  0  0  0
   19.5390   -9.1679  -18.9346 C   0  0  0  0  0  0  0  0  0  0  0  0
   20.6139  -10.1467  -18.5076 C   0  0  2  0  0  0  0  0  0  0  0  0
   20.0326  -11.4707  -18.5846 N   0  0  0  0  0  0  0  0  0  0  0  0
   21.0432   -9.8824  -17.0948 C   0  0  0  0  0  0  0  0  0  0  0  0
   20.5363  -10.4992  -16.1254 O   0  0  0  0  0  0  0  0  0  0  0  0
   22.0404   -8.9201  -16.8274 N   0  0  0  0  0  0  0  0  0  0  0  0
   22.3938   -8.6570  -15.4033 C   0  0  1  0  0  0  0  0  0  0  0  0
   23.8621   -8.4781  -15.3055 C   0  0  0  0  0  0  0  0  0  0  0  0
   24.6307   -9.7237  -15.4501 C   0  0  0  0  0  0  0  0  0  0  0  0
   24.2414  -11.0078  -15.7247 C   0  0  0  0  0  0  0  0  0  0  0  0
   25.3178  -11.8386  -15.8427 N   0  0  0  0  0  0  0  0  0  0  0  0
   26.3896  -11.0623  -15.6408 C   0  0  0  0  0  0  0  0  0  0  0  0
   26.0055   -9.8030  -15.4062 N   0  0  0  0  0  0  0  0  0  0  0  0
   21.6412   -7.4194  -15.0237 C   0  0  0  0  0  0  0  0  0  0  0  0
   21.1671   -6.6163  -15.8247 O   0  0  0  0  0  0  0  0  0  0  0  0
   21.4465   -7.1274  -13.6597 O   0  0  0  0  0  0  0  0  0  0  0  0
  2  9  1  0
  2  1  1  6
  3  2  1  0
  4  3  1  0
  5  4  2  0
  6  7  1  0
  6  5  1  0
  7  8  2  0
  8  4  1  0
  9 10  2  0
 12 11  1  1
 12 14  1  0
 13  9  1  0
 13 12  1  0
 14 15  2  0
 16 14  1  0
 16 17  1  0
 17 24  1  0
 17 18  1  6
 19 23  1  0
 19 18  1  0
 20 19  2  0
 21 20  1  0
 21 22  1  0
 22 23  2  0
 24 26  1  0
 25 24  2  0
M  END
$$$$
