HAH.pdb
     RDKit          3D

 26 27  0  0  1  0  0  0  0  0999 V2000
   35.2156  -23.0965    7.5041 N   0  0  0  0  0  0  0  0  0  0  0  0
   34.8611  -24.2782    6.7321 C   0  0  1  0  0  0  0  0  0  0  0  0
   34.9421  -23.9220    5.2661 C   0  0  0  0  0  0  0  0  0  0  0  0
   33.8746  -22.9868    4.8732 C   0  0  0  0  0  0  0  0  0  0  0  0
   32.8731  -22.4787    5.6650 C   0  0  0  0  0  0  0  0  0  0  0  0
   32.0946  -21.6671    4.8928 N   0  0  0  0  0  0  0  0  0  0  0  0
   32.5907  -21.6654    3.6557 C   0  0  0  0  0  0  0  0  0  0  0  0
   33.6868  -22.4782    3.6439 N   0  0  0  0  0  0  0  0  0  0  0  0
   35.7766  -25.4010    7.0077 C   0  0  0  0  0  0  0  0  0  0  0  0
   37.0071  -25.2431    7.2065 O   0  0  0  0  0  0  0  0  0  0  0  0
   35.4010  -29.0609    7.6901 C   0  0  0  0  0  0  0  0  0  0  0  0
   36.2419  -27.8356    7.3945 C   0  0  2  0  0  0  0  0  0  0  0  0
   35.3244  -26.7636    7.0690 N   0  0  0  0  0  0  0  0  0  0  0  0
   37.1443  -28.0801    6.2215 C   0  0  0  0  0  0  0  0  0  0  0  0
   36.7376  -27.9571    5.0399 O   0  0  0  0  0  0  0  0  0  0  0  0
   38.4879  -28.4588    6.4303 N   0  0  0  0  0  0  0  0  0  0  0  0
   39.3364  -28.7139    5.2316 C   0  0  1  0  0  0  0  0  0  0  0  0
   40.5689  -27.8976    5.3421 C   0  0  0  0  0  0  0  0  0  0  0  0
   40.3828  -26.4786    5.0029 C   0  0  0  0  0  0  0  0  0  0  0  0
   39.2710  -25.7677    4.6362 C   0  0  0  0  0  0  0  0  0  0  0  0
   39.5556  -24.4408    4.4906 N   0  0  0  0  0  0  0  0  0  0  0  0
   40.8594  -24.3242    4.7716 C   0  0  0  0  0  0  0  0  0  0  0  0
   41.3706  -25.5211    5.0787 N   0  0  0  0  0  0  0  0  0  0  0  0
   39.6219  -30.1837    5.2457 C   0  0  0  0  0  0  0  0  0  0  0  0
   39.2813  -30.9534    6.1418 O   0  0  0  0  0  0  0  0  0  0  0  0
   40.3293  -30.7545    4.1699 O   0  0  0  0  0  0  0  0  0  0  0  0
  2  9  1  0
  2  1  1  1
  3  2  1  0
  4  3  1  0
  5  4  2  0
  6  7  1  0
  6  5  1  0
  7  8  2  0
  8  4  1  0
  9 10  2  0
 12 11  1  6
 12 14  1  0
 13  9  1  0
 13 12  1  0
 14 15  2  0
 16 14  1  0
 16 17  1  0
 17 24  1  0
 17 18  1  1
 19 23  1  0
 19 18  1  0
 20 19  2  0
 21 20  1  0
 21 22  1  0
 22 23  2  0
 24 26  1  0
 25 24  2  0
M  END
$$$$
