HAH.pdb
     RDKit          3D

 26 27  0  0  1  0  0  0  0  0999 V2000
   19.1354  -17.1388  -16.3591 N   0  0  0  0  0  0  0  0  0  0  0  0
   18.7769  -16.2477  -15.2656 C   0  0  1  0  0  0  0  0  0  0  0  0
   20.0036  -16.0404  -14.4086 C   0  0  0  0  0  0  0  0  0  0  0  0
   20.4044  -17.2802  -13.7226 C   0  0  0  0  0  0  0  0  0  0  0  0
   21.4425  -18.1195  -14.0484 C   0  0  0  0  0  0  0  0  0  0  0  0
   21.4421  -19.1561  -13.1615 N   0  0  0  0  0  0  0  0  0  0  0  0
   20.4362  -18.9743  -12.3061 C   0  0  0  0  0  0  0  0  0  0  0  0
   19.7974  -17.8189  -12.6519 N   0  0  0  0  0  0  0  0  0  0  0  0
   18.3081  -14.9407  -15.7625 C   0  0  0  0  0  0  0  0  0  0  0  0
   19.0357  -14.1663  -16.4328 O   0  0  0  0  0  0  0  0  0  0  0  0
   15.0121  -13.1970  -15.9802 C   0  0  0  0  0  0  0  0  0  0  0  0
   16.5231  -13.2088  -16.0911 C   0  0  2  0  0  0  0  0  0  0  0  0
   16.9781  -14.4566  -15.5141 N   0  0  0  0  0  0  0  0  0  0  0  0
   17.1219  -12.0678  -15.3233 C   0  0  0  0  0  0  0  0  0  0  0  0
   17.4012  -12.1687  -14.1032 O   0  0  0  0  0  0  0  0  0  0  0  0
   17.3854  -10.8414  -15.9704 N   0  0  0  0  0  0  0  0  0  0  0  0
   17.9187   -9.7180  -15.1486 C   0  0  1  0  0  0  0  0  0  0  0  0
   19.2214   -9.2943  -15.7150 C   0  0  0  0  0  0  0  0  0  0  0  0
   19.1439   -8.8021  -17.0988 C   0  0  0  0  0  0  0  0  0  0  0  0
   18.6940   -9.3901  -18.2511 C   0  0  0  0  0  0  0  0  0  0  0  0
   18.7395   -8.5211  -19.3026 N   0  0  0  0  0  0  0  0  0  0  0  0
   19.2217   -7.3784  -18.7986 C   0  0  0  0  0  0  0  0  0  0  0  0
   19.4685   -7.5221  -17.4921 N   0  0  0  0  0  0  0  0  0  0  0  0
   16.8847   -8.6376  -15.2241 C   0  0  0  0  0  0  0  0  0  0  0  0
   15.8626   -8.6947  -15.9048 O   0  0  0  0  0  0  0  0  0  0  0  0
   17.0681   -7.4601  -14.4735 O   0  0  0  0  0  0  0  0  0  0  0  0
  2  9  1  0
  2  1  1  6
  3  2  1  0
  4  3  1  0
  5  4  2  0
  6  7  1  0
  6  5  1  0
  7  8  2  0
  8  4  1  0
  9 10  2  0
 12 11  1  1
 12 14  1  0
 13  9  1  0
 13 12  1  0
 14 15  2  0
 16 14  1  0
 16 17  1  0
 17 24  1  0
 17 18  1  6
 19 23  1  0
 19 18  1  0
 20 19  2  0
 21 20  1  0
 21 22  1  0
 22 23  2  0
 24 26  1  0
 25 24  2  0
M  END
$$$$
