HAH.pdb
     RDKit          3D

 26 27  0  0  1  0  0  0  0  0999 V2000
   29.5526  -34.7138   -6.1277 N   0  0  0  0  0  0  0  0  0  0  0  0
   28.1662  -34.8198   -5.6976 C   0  0  1  0  0  0  0  0  0  0  0  0
   27.8405  -36.2847   -5.5226 C   0  0  0  0  0  0  0  0  0  0  0  0
   27.8068  -36.9929   -6.8132 C   0  0  0  0  0  0  0  0  0  0  0  0
   27.0540  -36.6817   -7.9199 C   0  0  0  0  0  0  0  0  0  0  0  0
   27.3171  -37.6098   -8.8844 N   0  0  0  0  0  0  0  0  0  0  0  0
   28.2062  -38.4764   -8.3997 C   0  0  0  0  0  0  0  0  0  0  0  0
   28.5076  -38.0962   -7.1241 N   0  0  0  0  0  0  0  0  0  0  0  0
   27.9395  -34.1185   -4.4203 C   0  0  0  0  0  0  0  0  0  0  0  0
   28.7737  -34.1280   -3.4809 O   0  0  0  0  0  0  0  0  0  0  0  0
   25.3253  -31.8301   -3.0202 C   0  0  0  0  0  0  0  0  0  0  0  0
   26.5286  -32.7387   -2.8713 C   0  0  2  0  0  0  0  0  0  0  0  0
   26.7414  -33.3700   -4.1571 N   0  0  0  0  0  0  0  0  0  0  0  0
   26.2704  -33.7992   -1.8424 C   0  0  0  0  0  0  0  0  0  0  0  0
   25.7533  -34.9020   -2.1478 O   0  0  0  0  0  0  0  0  0  0  0  0
   26.6101  -33.5711   -0.4916 N   0  0  0  0  0  0  0  0  0  0  0  0
   26.3019  -34.6431    0.4972 C   0  0  1  0  0  0  0  0  0  0  0  0
   27.2675  -34.5451    1.6177 C   0  0  0  0  0  0  0  0  0  0  0  0
   28.6105  -35.0538    1.3004 C   0  0  0  0  0  0  0  0  0  0  0  0
   29.1178  -35.6466    0.1748 C   0  0  0  0  0  0  0  0  0  0  0  0
   30.4552  -35.8885    0.3005 N   0  0  0  0  0  0  0  0  0  0  0  0
   30.7845  -35.4394    1.5180 C   0  0  0  0  0  0  0  0  0  0  0  0
   29.7052  -34.9394    2.1292 N   0  0  0  0  0  0  0  0  0  0  0  0
   24.8918  -34.3937    0.9351 C   0  0  0  0  0  0  0  0  0  0  0  0
   24.1937  -33.4599    0.5453 O   0  0  0  0  0  0  0  0  0  0  0  0
   24.2954  -35.2741    1.8586 O   0  0  0  0  0  0  0  0  0  0  0  0
  2  9  1  0
  2  1  1  1
  3  2  1  0
  4  3  1  0
  5  4  2  0
  6  7  1  0
  6  5  1  0
  7  8  2  0
  8  4  1  0
  9 10  2  0
 12 11  1  6
 12 14  1  0
 13  9  1  0
 13 12  1  0
 14 15  2  0
 16 14  1  0
 16 17  1  0
 17 24  1  0
 17 18  1  1
 19 23  1  0
 19 18  1  0
 20 19  2  0
 21 20  1  0
 21 22  1  0
 22 23  2  0
 24 26  1  0
 25 24  2  0
M  END
$$$$
