HAH.pdb
     RDKit          3D

 26 27  0  0  1  0  0  0  0  0999 V2000
   25.3901  -19.2897  -17.6769 N   0  0  0  0  0  0  0  0  0  0  0  0
   25.8448  -18.5836  -16.4883 C   0  0  1  0  0  0  0  0  0  0  0  0
   24.7777  -17.5879  -16.0977 C   0  0  0  0  0  0  0  0  0  0  0  0
   24.8893  -16.3391  -16.8699 C   0  0  0  0  0  0  0  0  0  0  0  0
   23.8791  -15.6462  -17.4924 C   0  0  0  0  0  0  0  0  0  0  0  0
   24.4285  -14.5587  -18.1061 N   0  0  0  0  0  0  0  0  0  0  0  0
   25.7415  -14.5679  -17.8768 C   0  0  0  0  0  0  0  0  0  0  0  0
   26.0249  -15.6645  -17.1155 N   0  0  0  0  0  0  0  0  0  0  0  0
   26.0773  -19.5086  -15.3636 C   0  0  0  0  0  0  0  0  0  0  0  0
   25.2170  -20.3375  -14.9746 O   0  0  0  0  0  0  0  0  0  0  0  0
   28.9918  -20.4483  -13.2137 C   0  0  0  0  0  0  0  0  0  0  0  0
   27.5126  -20.4645  -13.5415 C   0  0  2  0  0  0  0  0  0  0  0  0
   27.3116  -19.5284  -14.6279 N   0  0  0  0  0  0  0  0  0  0  0  0
   26.7009  -20.0237  -12.3595 C   0  0  0  0  0  0  0  0  0  0  0  0
   26.4834  -18.8094  -12.1251 O   0  0  0  0  0  0  0  0  0  0  0  0
   26.1595  -20.9826  -11.4767 N   0  0  0  0  0  0  0  0  0  0  0  0
   25.4433  -20.4915  -10.2651 C   0  0  1  0  0  0  0  0  0  0  0  0
   24.1773  -21.2496  -10.1241 C   0  0  0  0  0  0  0  0  0  0  0  0
   23.1494  -20.8933  -11.1138 C   0  0  0  0  0  0  0  0  0  0  0  0
   23.0057  -19.7986  -11.9243 C   0  0  0  0  0  0  0  0  0  0  0  0
   21.9268  -19.9301  -12.7498 N   0  0  0  0  0  0  0  0  0  0  0  0
   21.3937  -21.1212  -12.4508 C   0  0  0  0  0  0  0  0  0  0  0  0
   22.1034  -21.7107  -11.4827 N   0  0  0  0  0  0  0  0  0  0  0  0
   26.3801  -20.7263   -9.1208 C   0  0  0  0  0  0  0  0  0  0  0  0
   27.3999  -21.4101   -9.1814 O   0  0  0  0  0  0  0  0  0  0  0  0
   26.0996  -20.1353   -7.8736 O   0  0  0  0  0  0  0  0  0  0  0  0
  2  9  1  0
  2  1  1  6
  3  2  1  0
  4  3  1  0
  5  4  2  0
  6  7  1  0
  6  5  1  0
  7  8  2  0
  8  4  1  0
  9 10  2  0
 12 11  1  1
 12 14  1  0
 13  9  1  0
 13 12  1  0
 14 15  2  0
 16 14  1  0
 16 17  1  0
 17 24  1  0
 17 18  1  1
 19 23  1  0
 19 18  1  0
 20 19  2  0
 21 20  1  0
 21 22  1  0
 22 23  2  0
 24 26  1  0
 25 24  2  0
M  END
$$$$
