HAH.pdb
     RDKit          3D

 26 27  0  0  1  0  0  0  0  0999 V2000
   20.6650  -12.8356  -18.6664 N   0  0  0  0  0  0  0  0  0  0  0  0
   21.5687  -11.7000  -18.7760 C   0  0  1  0  0  0  0  0  0  0  0  0
   21.0171  -10.7615  -19.8236 C   0  0  0  0  0  0  0  0  0  0  0  0
   20.9964  -11.3857  -21.1572 C   0  0  0  0  0  0  0  0  0  0  0  0
   19.9306  -11.9835  -21.7855 C   0  0  0  0  0  0  0  0  0  0  0  0
   20.3581  -12.4439  -22.9964 N   0  0  0  0  0  0  0  0  0  0  0  0
   21.6507  -12.1452  -23.1250 C   0  0  0  0  0  0  0  0  0  0  0  0
   22.0435  -11.4935  -21.9921 N   0  0  0  0  0  0  0  0  0  0  0  0
   21.6899  -10.9777  -17.4960 C   0  0  0  0  0  0  0  0  0  0  0  0
   20.6962  -10.6674  -16.7926 O   0  0  0  0  0  0  0  0  0  0  0  0
   24.4448  -10.0586  -15.1701 C   0  0  0  0  0  0  0  0  0  0  0  0
   23.0408   -9.8578  -15.7031 C   0  0  2  0  0  0  0  0  0  0  0  0
   22.9603  -10.5749  -16.9586 N   0  0  0  0  0  0  0  0  0  0  0  0
   22.7692   -8.4038  -15.9520 C   0  0  0  0  0  0  0  0  0  0  0  0
   23.1480   -7.8331  -17.0045 O   0  0  0  0  0  0  0  0  0  0  0  0
   22.0717   -7.6405  -14.9913 N   0  0  0  0  0  0  0  0  0  0  0  0
   21.8016   -6.2072  -15.2994 C   0  0  1  0  0  0  0  0  0  0  0  0
   20.3573   -6.0507  -15.5941 C   0  0  0  0  0  0  0  0  0  0  0  0
   19.9559   -6.5507  -16.9178 C   0  0  0  0  0  0  0  0  0  0  0  0
   20.1121   -6.0290  -18.1745 C   0  0  0  0  0  0  0  0  0  0  0  0
   19.6461   -6.8857  -19.1293 N   0  0  0  0  0  0  0  0  0  0  0  0
   19.1962   -7.9539  -18.4592 C   0  0  0  0  0  0  0  0  0  0  0  0
   19.3704   -7.7770  -17.1451 N   0  0  0  0  0  0  0  0  0  0  0  0
   22.2211   -5.4471  -14.0793 C   0  0  0  0  0  0  0  0  0  0  0  0
   22.4129   -5.9501  -12.9741 O   0  0  0  0  0  0  0  0  0  0  0  0
   22.4177   -4.0556  -14.1731 O   0  0  0  0  0  0  0  0  0  0  0  0
  2  9  1  0
  2  1  1  1
  3  2  1  0
  4  3  1  0
  5  4  2  0
  6  7  1  0
  6  5  1  0
  7  8  2  0
  8  4  1  0
  9 10  2  0
 12 11  1  6
 12 14  1  0
 13  9  1  0
 13 12  1  0
 14 15  2  0
 16 14  1  0
 16 17  1  0
 17 24  1  0
 17 18  1  1
 19 23  1  0
 19 18  1  0
 20 19  2  0
 21 20  1  0
 21 22  1  0
 22 23  2  0
 24 26  1  0
 25 24  2  0
M  END
$$$$
