HAH.pdb
     RDKit          3D

 26 27  0  0  1  0  0  0  0  0999 V2000
   45.9499   -6.4782   -7.7816 N   0  0  0  0  0  0  0  0  0  0  0  0
   45.0623   -7.4752   -8.3616 C   0  0  1  0  0  0  0  0  0  0  0  0
   44.1959   -8.0313   -7.2559 C   0  0  0  0  0  0  0  0  0  0  0  0
   44.9890   -8.7827   -6.2685 C   0  0  0  0  0  0  0  0  0  0  0  0
   46.1147   -9.5366   -6.4975 C   0  0  0  0  0  0  0  0  0  0  0  0
   46.5141  -10.0716   -5.3078 N   0  0  0  0  0  0  0  0  0  0  0  0
   45.6668   -9.6671   -4.3618 C   0  0  0  0  0  0  0  0  0  0  0  0
   44.7277   -8.8734   -4.9538 N   0  0  0  0  0  0  0  0  0  0  0  0
   44.1987   -6.8913   -9.4047 C   0  0  0  0  0  0  0  0  0  0  0  0
   43.7250   -5.7304   -9.3253 O   0  0  0  0  0  0  0  0  0  0  0  0
   43.0144   -7.8472  -12.8161 C   0  0  0  0  0  0  0  0  0  0  0  0
   42.8689   -7.0683  -11.5246 C   0  0  2  0  0  0  0  0  0  0  0  0
   43.8351   -7.6124  -10.5933 N   0  0  0  0  0  0  0  0  0  0  0  0
   41.4916   -7.2363  -10.9544 C   0  0  0  0  0  0  0  0  0  0  0  0
   40.4770   -6.7792  -11.5361 O   0  0  0  0  0  0  0  0  0  0  0  0
   41.3107   -7.9223   -9.7342 N   0  0  0  0  0  0  0  0  0  0  0  0
   39.9218   -8.0654   -9.2122 C   0  0  1  0  0  0  0  0  0  0  0  0
   39.8209   -9.3516   -8.4822 C   0  0  0  0  0  0  0  0  0  0  0  0
   38.5399   -9.5498   -7.7872 C   0  0  0  0  0  0  0  0  0  0  0  0
   37.3696   -8.8386   -7.8133 C   0  0  0  0  0  0  0  0  0  0  0  0
   36.4051   -9.4416   -7.0590 N   0  0  0  0  0  0  0  0  0  0  0  0
   36.9812  -10.5417   -6.5589 C   0  0  0  0  0  0  0  0  0  0  0  0
   38.2482  -10.6263   -6.9783 N   0  0  0  0  0  0  0  0  0  0  0  0
   39.7034   -6.8833   -8.3193 C   0  0  0  0  0  0  0  0  0  0  0  0
   38.6012   -6.4591   -7.9783 O   0  0  0  0  0  0  0  0  0  0  0  0
   40.8209   -6.1874   -7.8187 O   0  0  0  0  0  0  0  0  0  0  0  0
  2  9  1  0
  2  1  1  1
  3  2  1  0
  4  3  1  0
  5  4  2  0
  6  7  1  0
  6  5  1  0
  7  8  2  0
  8  4  1  0
  9 10  2  0
 12 11  1  6
 12 14  1  0
 13  9  1  0
 13 12  1  0
 14 15  2  0
 16 14  1  0
 16 17  1  0
 17 24  1  0
 17 18  1  1
 19 23  1  0
 19 18  1  0
 20 19  2  0
 21 20  1  0
 21 22  1  0
 22 23  2  0
 24 26  1  0
 25 24  2  0
M  END
$$$$
