HAH.pdb
     RDKit          3D

 26 27  0  0  1  0  0  0  0  0999 V2000
   26.4433  -35.9214  -14.2498 N   0  0  0  0  0  0  0  0  0  0  0  0
   26.8818  -35.0416  -13.1766 C   0  0  1  0  0  0  0  0  0  0  0  0
   26.3633  -33.6527  -13.4676 C   0  0  0  0  0  0  0  0  0  0  0  0
   27.1002  -33.0170  -14.5727 C   0  0  0  0  0  0  0  0  0  0  0  0
   27.3015  -33.5114  -15.8389 C   0  0  0  0  0  0  0  0  0  0  0  0
   28.0521  -32.6069  -16.5313 N   0  0  0  0  0  0  0  0  0  0  0  0
   28.3143  -31.5774  -15.7263 C   0  0  0  0  0  0  0  0  0  0  0  0
   27.7279  -31.8302  -14.5202 N   0  0  0  0  0  0  0  0  0  0  0  0
   26.3673  -35.4849  -11.8675 C   0  0  0  0  0  0  0  0  0  0  0  0
   25.1431  -35.6483  -11.6370 O   0  0  0  0  0  0  0  0  0  0  0  0
   27.6476  -37.1609   -8.8730 C   0  0  0  0  0  0  0  0  0  0  0  0
   26.6908  -36.1490   -9.4701 C   0  0  2  0  0  0  0  0  0  0  0  0
   27.2341  -35.7632  -10.7557 N   0  0  0  0  0  0  0  0  0  0  0  0
   26.5893  -34.9334   -8.5971 C   0  0  0  0  0  0  0  0  0  0  0  0
   27.3410  -33.9407   -8.7594 O   0  0  0  0  0  0  0  0  0  0  0  0
   25.6313  -34.8847   -7.5618 N   0  0  0  0  0  0  0  0  0  0  0  0
   25.5462  -33.6398   -6.7463 C   0  0  1  0  0  0  0  0  0  0  0  0
   24.1315  -33.1993   -6.7016 C   0  0  0  0  0  0  0  0  0  0  0  0
   23.6724  -32.5258   -7.9258 C   0  0  0  0  0  0  0  0  0  0  0  0
   24.2886  -32.3020   -9.1284 C   0  0  0  0  0  0  0  0  0  0  0  0
   23.4446  -31.6966  -10.0138 N   0  0  0  0  0  0  0  0  0  0  0  0
   22.2891  -31.5432   -9.3553 C   0  0  0  0  0  0  0  0  0  0  0  0
   22.4013  -32.0287   -8.1142 N   0  0  0  0  0  0  0  0  0  0  0  0
   26.0727  -34.0078   -5.3936 C   0  0  0  0  0  0  0  0  0  0  0  0
   26.3862  -35.1462   -5.0515 O   0  0  0  0  0  0  0  0  0  0  0  0
   26.2311  -32.9997   -4.4228 O   0  0  0  0  0  0  0  0  0  0  0  0
  2  9  1  0
  2  1  1  6
  3  2  1  0
  4  3  1  0
  5  4  2  0
  6  7  1  0
  6  5  1  0
  7  8  2  0
  8  4  1  0
  9 10  2  0
 12 11  1  1
 12 14  1  0
 13  9  1  0
 13 12  1  0
 14 15  2  0
 16 14  1  0
 16 17  1  0
 17 24  1  0
 17 18  1  1
 19 23  1  0
 19 18  1  0
 20 19  2  0
 21 20  1  0
 21 22  1  0
 22 23  2  0
 24 26  1  0
 25 24  2  0
M  END
$$$$
