HAH.pdb
     RDKit          3D

 26 27  0  0  1  0  0  0  0  0999 V2000
   23.7240  -11.6003  -17.7571 N   0  0  0  0  0  0  0  0  0  0  0  0
   23.8117  -10.6960  -16.6200 C   0  0  1  0  0  0  0  0  0  0  0  0
   25.2412  -10.2201  -16.5089 C   0  0  0  0  0  0  0  0  0  0  0  0
   26.1565  -11.3211  -16.1649 C   0  0  0  0  0  0  0  0  0  0  0  0
   25.8278  -12.6225  -15.8709 C   0  0  0  0  0  0  0  0  0  0  0  0
   26.9805  -13.2970  -15.5930 N   0  0  0  0  0  0  0  0  0  0  0  0
   28.0007  -12.4471  -15.7085 C   0  0  0  0  0  0  0  0  0  0  0  0
   27.4929  -11.2303  -16.0607 N   0  0  0  0  0  0  0  0  0  0  0  0
   22.9254   -9.5290  -16.7855 C   0  0  0  0  0  0  0  0  0  0  0  0
   22.9901   -8.7600  -17.7769 O   0  0  0  0  0  0  0  0  0  0  0  0
   19.6708   -8.5056  -15.4269 C   0  0  0  0  0  0  0  0  0  0  0  0
   20.9831   -8.1101  -16.0728 C   0  0  2  0  0  0  0  0  0  0  0  0
   21.9186   -9.1859  -15.8192 N   0  0  0  0  0  0  0  0  0  0  0  0
   21.5152   -6.8459  -15.4656 C   0  0  0  0  0  0  0  0  0  0  0  0
   22.1712   -6.8540  -14.3949 O   0  0  0  0  0  0  0  0  0  0  0  0
   21.2833   -5.6057  -16.0984 N   0  0  0  0  0  0  0  0  0  0  0  0
   21.7824   -4.3732  -15.4246 C   0  0  1  0  0  0  0  0  0  0  0  0
   22.4086   -3.4976  -16.4436 C   0  0  0  0  0  0  0  0  0  0  0  0
   23.7116   -3.9766  -16.9293 C   0  0  0  0  0  0  0  0  0  0  0  0
   24.5895   -4.8986  -16.4241 C   0  0  0  0  0  0  0  0  0  0  0  0
   25.6522   -5.0829  -17.2604 N   0  0  0  0  0  0  0  0  0  0  0  0
   25.4324   -4.2674  -18.2992 C   0  0  0  0  0  0  0  0  0  0  0  0
   24.2861   -3.6013  -18.1241 N   0  0  0  0  0  0  0  0  0  0  0  0
   20.5792   -3.7443  -14.7929 C   0  0  0  0  0  0  0  0  0  0  0  0
   20.6016   -2.7209  -14.1121 O   0  0  0  0  0  0  0  0  0  0  0  0
   19.3180   -4.3448  -14.9735 O   0  0  0  0  0  0  0  0  0  0  0  0
  2  9  1  0
  2  1  1  6
  3  2  1  0
  4  3  1  0
  5  4  2  0
  6  7  1  0
  6  5  1  0
  7  8  2  0
  8  4  1  0
  9 10  2  0
 12 11  1  1
 12 14  1  0
 13  9  1  0
 13 12  1  0
 14 15  2  0
 16 14  1  0
 16 17  1  0
 17 24  1  0
 17 18  1  6
 19 23  1  0
 19 18  1  0
 20 19  2  0
 21 20  1  0
 21 22  1  0
 22 23  2  0
 24 26  1  0
 25 24  2  0
M  END
$$$$
