HAH.pdb
     RDKit          3D

 26 27  0  0  1  0  0  0  0  0999 V2000
   24.3679  -31.2497   -9.7237 N   0  0  0  0  0  0  0  0  0  0  0  0
   24.5888  -32.5896   -9.2001 C   0  0  1  0  0  0  0  0  0  0  0  0
   25.8750  -33.1177   -9.7912 C   0  0  0  0  0  0  0  0  0  0  0  0
   25.7561  -33.3411  -11.2418 C   0  0  0  0  0  0  0  0  0  0  0  0
   24.7559  -34.0083  -11.9072 C   0  0  0  0  0  0  0  0  0  0  0  0
   25.0518  -33.9940  -13.2388 N   0  0  0  0  0  0  0  0  0  0  0  0
   26.2008  -33.3392  -13.4050 C   0  0  0  0  0  0  0  0  0  0  0  0
   26.6343  -32.9372  -12.1750 N   0  0  0  0  0  0  0  0  0  0  0  0
   24.6987  -32.5859   -7.7295 C   0  0  0  0  0  0  0  0  0  0  0  0
   25.3503  -31.7172   -7.0976 O   0  0  0  0  0  0  0  0  0  0  0  0
   22.9272  -34.2532   -4.9286 C   0  0  0  0  0  0  0  0  0  0  0  0
   24.1293  -33.5027   -5.4648 C   0  0  2  0  0  0  0  0  0  0  0  0
   24.0649  -33.5811   -6.9093 N   0  0  0  0  0  0  0  0  0  0  0  0
   25.4051  -34.1378   -4.9968 C   0  0  0  0  0  0  0  0  0  0  0  0
   26.0231  -34.9731   -5.7020 O   0  0  0  0  0  0  0  0  0  0  0  0
   25.9407  -33.8014   -3.7351 N   0  0  0  0  0  0  0  0  0  0  0  0
   27.2235  -34.4419   -3.3271 C   0  0  1  0  0  0  0  0  0  0  0  0
   27.7922  -33.6797   -2.1900 C   0  0  0  0  0  0  0  0  0  0  0  0
   28.9764  -34.3033   -1.5801 C   0  0  0  0  0  0  0  0  0  0  0  0
   29.7294  -35.3854   -1.9516 C   0  0  0  0  0  0  0  0  0  0  0  0
   30.7964  -35.5576   -1.1183 N   0  0  0  0  0  0  0  0  0  0  0  0
   30.7075  -34.5702   -0.2185 C   0  0  0  0  0  0  0  0  0  0  0  0
   29.6350  -33.8132   -0.4736 N   0  0  0  0  0  0  0  0  0  0  0  0
   26.8702  -35.8479   -2.9523 C   0  0  0  0  0  0  0  0  0  0  0  0
   25.8274  -36.1812   -2.3929 O   0  0  0  0  0  0  0  0  0  0  0  0
   27.7768  -36.8842   -3.2486 O   0  0  0  0  0  0  0  0  0  0  0  0
  2  9  1  0
  2  1  1  6
  3  2  1  0
  4  3  1  0
  5  4  2  0
  6  7  1  0
  6  5  1  0
  7  8  2  0
  8  4  1  0
  9 10  2  0
 12 11  1  1
 12 14  1  0
 13  9  1  0
 13 12  1  0
 14 15  2  0
 16 14  1  0
 16 17  1  0
 17 24  1  0
 17 18  1  1
 19 23  1  0
 19 18  1  0
 20 19  2  0
 21 20  1  0
 21 22  1  0
 22 23  2  0
 24 26  1  0
 25 24  2  0
M  END
$$$$
