YFW.pdb
     RDKit          3D

 38 41  0  0  1  0  0  0  0  0999 V2000
   23.0109  -18.3294  -25.1168 O   0  0  0  0  0  0  0  0  0  0  0  0
   22.4139  -17.6726  -24.0406 C   0  0  0  0  0  0  0  0  0  0  0  0
   21.3563  -18.2258  -23.3395 C   0  0  0  0  0  0  0  0  0  0  0  0
   20.7546  -17.5904  -22.2738 C   0  0  0  0  0  0  0  0  0  0  0  0
   21.1998  -16.3524  -21.8634 C   0  0  0  0  0  0  0  0  0  0  0  0
   20.6063  -15.6012  -20.7263 C   0  0  0  0  0  0  0  0  0  0  0  0
   21.5282  -14.4448  -20.4254 C   0  0  2  0  0  0  0  0  0  0  0  0
   22.8017  -15.0079  -20.0411 N   0  0  0  0  0  0  0  0  0  0  0  0
   21.0362  -13.5861  -19.3276 C   0  0  0  0  0  0  0  0  0  0  0  0
   21.5543  -13.7266  -18.1902 O   0  0  0  0  0  0  0  0  0  0  0  0
   22.2547  -15.7913  -22.5560 C   0  0  0  0  0  0  0  0  0  0  0  0
   22.8502  -16.4339  -23.6205 C   0  0  0  0  0  0  0  0  0  0  0  0
   20.0064  -12.6193  -19.5255 N   0  0  0  0  0  0  0  0  0  0  0  0
   19.6597  -11.7328  -18.4456 C   0  0  1  0  0  0  0  0  0  0  0  0
   20.0509  -10.3168  -18.7284 C   0  0  0  0  0  0  0  0  0  0  0  0
   19.4827   -9.9218  -20.0376 C   0  0  0  0  0  0  0  0  0  0  0  0
   20.1534  -10.0439  -21.2350 C   0  0  0  0  0  0  0  0  0  0  0  0
   19.5630   -9.6533  -22.4363 C   0  0  0  0  0  0  0  0  0  0  0  0
   18.2824   -9.1341  -22.4286 C   0  0  0  0  0  0  0  0  0  0  0  0
   17.5974   -9.0045  -21.2449 C   0  0  0  0  0  0  0  0  0  0  0  0
   18.2092   -9.4004  -20.0704 C   0  0  0  0  0  0  0  0  0  0  0  0
   18.2509  -11.9273  -18.0665 C   0  0  0  0  0  0  0  0  0  0  0  0
   17.8124  -11.3210  -17.0636 O   0  0  0  0  0  0  0  0  0  0  0  0
   17.3492  -12.7608  -18.7648 N   0  0  0  0  0  0  0  0  0  0  0  0
   15.9463  -12.9147  -18.4175 C   0  0  1  0  0  0  0  0  0  0  0  0
   15.1261  -13.4150  -19.5562 C   0  0  0  0  0  0  0  0  0  0  0  0
   15.6982  -14.6858  -20.0558 C   0  0  0  0  0  0  0  0  0  0  0  0
   15.9950  -15.8194  -19.3017 C   0  0  0  0  0  0  0  0  0  0  0  0
   16.5004  -16.7281  -20.1427 N   0  0  0  0  0  0  0  0  0  0  0  0
   16.5427  -16.2359  -21.3964 C   0  0  0  0  0  0  0  0  0  0  0  0
   16.9732  -16.7741  -22.6022 C   0  0  0  0  0  0  0  0  0  0  0  0
   16.8919  -16.0119  -23.7466 C   0  0  0  0  0  0  0  0  0  0  0  0
   16.3978  -14.7282  -23.7461 C   0  0  0  0  0  0  0  0  0  0  0  0
   15.9681  -14.1928  -22.5388 C   0  0  0  0  0  0  0  0  0  0  0  0
   16.0453  -14.9507  -21.3818 C   0  0  0  0  0  0  0  0  0  0  0  0
   15.8408  -13.8542  -17.2825 C   0  0  0  0  0  0  0  0  0  0  0  0
   16.8334  -14.5418  -16.9383 O   0  0  0  0  0  0  0  0  0  0  0  0
   14.6725  -14.0120  -16.5671 O   0  0  0  0  0  0  0  0  0  0  0  0
  2  3  2  0
  2  1  1  0
  4  3  1  0
  5  4  2  0
  6  5  1  0
  6  7  1  0
  7  8  1  1
  9  7  1  0
  9 10  2  0
 11  5  1  0
 11 12  2  0
 12  2  1  0
 13  9  1  0
 14 13  1  0
 14 15  1  6
 16 15  1  0
 16 17  2  0
 18 17  1  0
 19 18  2  0
 20 21  2  0
 20 19  1  0
 21 16  1  0
 22 14  1  0
 23 22  2  0
 24 22  1  0
 25 24  1  0
 25 26  1  6
 26 27  1  0
 27 35  1  0
 28 27  2  0
 28 29  1  0
 29 30  1  0
 30 31  1  0
 31 32  2  0
 33 32  1  0
 34 33  2  0
 35 30  2  0
 35 34  1  0
 36 25  1  0
 37 36  2  0
 38 36  1  0
M  END
$$$$
