YFW.pdb
     RDKit          3D

 38 41  0  0  1  0  0  0  0  0999 V2000
   17.2074  -29.0396  -16.9502 O   0  0  0  0  0  0  0  0  0  0  0  0
   17.8448  -29.3858  -15.7587 C   0  0  0  0  0  0  0  0  0  0  0  0
   17.2339  -30.1814  -14.8048 C   0  0  0  0  0  0  0  0  0  0  0  0
   17.8493  -30.5329  -13.6219 C   0  0  0  0  0  0  0  0  0  0  0  0
   19.1252  -30.0912  -13.3462 C   0  0  0  0  0  0  0  0  0  0  0  0
   19.8578  -30.4237  -12.0962 C   0  0  0  0  0  0  0  0  0  0  0  0
   19.0840  -29.8182  -10.9506 C   0  0  2  0  0  0  0  0  0  0  0  0
   19.1866  -28.3834  -11.0824 N   0  0  0  0  0  0  0  0  0  0  0  0
   19.6098  -30.2138   -9.6272 C   0  0  0  0  0  0  0  0  0  0  0  0
   20.4776  -29.4772   -9.0920 O   0  0  0  0  0  0  0  0  0  0  0  0
   19.7442  -29.2968  -14.2913 C   0  0  0  0  0  0  0  0  0  0  0  0
   19.1212  -28.9503  -15.4713 C   0  0  0  0  0  0  0  0  0  0  0  0
   19.1633  -31.3902   -8.9555 N   0  0  0  0  0  0  0  0  0  0  0  0
   19.7276  -31.7228   -7.6736 C   0  0  1  0  0  0  0  0  0  0  0  0
   18.8059  -32.5671   -6.8516 C   0  0  0  0  0  0  0  0  0  0  0  0
   19.4426  -32.8220   -5.5391 C   0  0  0  0  0  0  0  0  0  0  0  0
   20.1347  -33.9730   -5.2311 C   0  0  0  0  0  0  0  0  0  0  0  0
   20.7124  -34.1537   -3.9750 C   0  0  0  0  0  0  0  0  0  0  0  0
   20.5901  -33.1623   -3.0202 C   0  0  0  0  0  0  0  0  0  0  0  0
   19.9039  -32.0076   -3.3082 C   0  0  0  0  0  0  0  0  0  0  0  0
   19.3423  -31.8576   -4.5622 C   0  0  0  0  0  0  0  0  0  0  0  0
   21.0846  -32.2662   -7.8460 C   0  0  0  0  0  0  0  0  0  0  0  0
   21.2798  -33.1123   -8.7469 O   0  0  0  0  0  0  0  0  0  0  0  0
   22.1946  -31.8939   -7.0556 N   0  0  0  0  0  0  0  0  0  0  0  0
   23.5347  -32.4287   -7.2298 C   0  0  1  0  0  0  0  0  0  0  0  0
   24.5929  -31.4765   -6.7906 C   0  0  0  0  0  0  0  0  0  0  0  0
   25.9255  -32.0797   -7.0190 C   0  0  0  0  0  0  0  0  0  0  0  0
   26.5869  -32.2015   -8.2396 C   0  0  0  0  0  0  0  0  0  0  0  0
   27.7519  -32.8107   -7.9947 N   0  0  0  0  0  0  0  0  0  0  0  0
   27.8716  -33.0855   -6.6809 C   0  0  0  0  0  0  0  0  0  0  0  0
   28.8725  -33.6969   -5.9371 C   0  0  0  0  0  0  0  0  0  0  0  0
   28.7078  -33.8410   -4.5772 C   0  0  0  0  0  0  0  0  0  0  0  0
   27.5836  -33.4007   -3.9182 C   0  0  0  0  0  0  0  0  0  0  0  0
   26.5845  -32.7897   -4.6647 C   0  0  0  0  0  0  0  0  0  0  0  0
   26.7398  -32.6396   -6.0331 C   0  0  0  0  0  0  0  0  0  0  0  0
   23.6471  -33.6828   -6.4573 C   0  0  0  0  0  0  0  0  0  0  0  0
   23.2398  -33.7315   -5.2707 O   0  0  0  0  0  0  0  0  0  0  0  0
   24.1920  -34.8295   -6.9956 O   0  0  0  0  0  0  0  0  0  0  0  0
  2  3  2  0
  2  1  1  0
  4  3  1  0
  5  4  2  0
  6  5  1  0
  6  7  1  0
  7  8  1  6
  9  7  1  0
  9 10  2  0
 11  5  1  0
 11 12  2  0
 12  2  1  0
 13  9  1  0
 14 13  1  0
 14 15  1  6
 16 15  1  0
 16 17  2  0
 18 17  1  0
 19 18  2  0
 20 21  2  0
 20 19  1  0
 21 16  1  0
 22 14  1  0
 23 22  2  0
 24 22  1  0
 25 24  1  0
 25 26  1  1
 26 27  1  0
 27 35  1  0
 28 27  2  0
 28 29  1  0
 29 30  1  0
 30 31  1  0
 31 32  2  0
 33 32  1  0
 34 33  2  0
 35 30  2  0
 35 34  1  0
 36 25  1  0
 37 36  2  0
 38 36  1  0
M  END
$$$$
