YFW.pdb
     RDKit          3D

 38 41  0  0  1  0  0  0  0  0999 V2000
   22.7643  -22.1073  -23.1746 O   0  0  0  0  0  0  0  0  0  0  0  0
   23.6027  -22.2720  -22.0720 C   0  0  0  0  0  0  0  0  0  0  0  0
   24.9076  -22.7150  -22.2030 C   0  0  0  0  0  0  0  0  0  0  0  0
   25.7496  -22.8834  -21.1240 C   0  0  0  0  0  0  0  0  0  0  0  0
   25.3058  -22.6085  -19.8487 C   0  0  0  0  0  0  0  0  0  0  0  0
   26.1484  -22.7643  -18.6339 C   0  0  0  0  0  0  0  0  0  0  0  0
   26.8075  -21.4318  -18.3738 C   0  0  2  0  0  0  0  0  0  0  0  0
   28.0323  -21.4090  -19.1392 N   0  0  0  0  0  0  0  0  0  0  0  0
   27.1328  -21.2184  -16.9479 C   0  0  0  0  0  0  0  0  0  0  0  0
   28.1210  -21.8319  -16.4692 O   0  0  0  0  0  0  0  0  0  0  0  0
   24.0054  -22.1657  -19.7066 C   0  0  0  0  0  0  0  0  0  0  0  0
   23.1706  -22.0002  -20.7911 C   0  0  0  0  0  0  0  0  0  0  0  0
   26.3657  -20.3483  -16.1179 N   0  0  0  0  0  0  0  0  0  0  0  0
   26.8046  -20.0974  -14.7700 C   0  0  1  0  0  0  0  0  0  0  0  0
   27.0295  -18.6414  -14.5101 C   0  0  0  0  0  0  0  0  0  0  0  0
   28.1878  -18.1909  -15.3154 C   0  0  0  0  0  0  0  0  0  0  0  0
   29.4848  -18.5985  -15.0916 C   0  0  0  0  0  0  0  0  0  0  0  0
   30.5338  -18.1375  -15.8862 C   0  0  0  0  0  0  0  0  0  0  0  0
   30.2705  -17.2560  -16.9172 C   0  0  0  0  0  0  0  0  0  0  0  0
   28.9840  -16.8379  -17.1563 C   0  0  0  0  0  0  0  0  0  0  0  0
   27.9653  -17.3125  -16.3515 C   0  0  0  0  0  0  0  0  0  0  0  0
   25.9097  -20.7709  -13.8151 C   0  0  0  0  0  0  0  0  0  0  0  0
   24.7059  -20.9156  -14.1237 O   0  0  0  0  0  0  0  0  0  0  0  0
   26.3211  -21.2712  -12.5597 N   0  0  0  0  0  0  0  0  0  0  0  0
   25.4214  -21.8654  -11.5850 C   0  0  1  0  0  0  0  0  0  0  0  0
   26.1230  -22.2855  -10.3397 C   0  0  0  0  0  0  0  0  0  0  0  0
   26.3539  -21.1024   -9.4801 C   0  0  0  0  0  0  0  0  0  0  0  0
   25.4871  -20.0278   -9.2912 C   0  0  0  0  0  0  0  0  0  0  0  0
   26.0896  -19.1821   -8.4485 N   0  0  0  0  0  0  0  0  0  0  0  0
   27.2972  -19.6588   -8.0876 C   0  0  0  0  0  0  0  0  0  0  0  0
   28.2892  -19.1654   -7.2502 C   0  0  0  0  0  0  0  0  0  0  0  0
   29.4443  -19.8946   -7.0726 C   0  0  0  0  0  0  0  0  0  0  0  0
   29.6590  -21.1021   -7.6952 C   0  0  0  0  0  0  0  0  0  0  0  0
   28.6651  -21.5929   -8.5320 C   0  0  0  0  0  0  0  0  0  0  0  0
   27.4995  -20.8677   -8.7177 C   0  0  0  0  0  0  0  0  0  0  0  0
   24.3699  -20.8829  -11.2521 C   0  0  0  0  0  0  0  0  0  0  0  0
   23.2946  -21.2631  -10.7271 O   0  0  0  0  0  0  0  0  0  0  0  0
   24.5216  -19.5345  -11.4978 O   0  0  0  0  0  0  0  0  0  0  0  0
  2  3  2  0
  2  1  1  0
  4  3  1  0
  5  4  2  0
  6  5  1  0
  6  7  1  0
  7  8  1  6
  9  7  1  0
  9 10  2  0
 11  5  1  0
 11 12  2  0
 12  2  1  0
 13  9  1  0
 14 13  1  0
 14 15  1  1
 16 15  1  0
 16 17  2  0
 18 17  1  0
 19 18  2  0
 20 21  2  0
 20 19  1  0
 21 16  1  0
 22 14  1  0
 23 22  2  0
 24 22  1  0
 25 24  1  0
 25 26  1  1
 26 27  1  0
 27 35  1  0
 28 27  2  0
 28 29  1  0
 29 30  1  0
 30 31  1  0
 31 32  2  0
 33 32  1  0
 34 33  2  0
 35 30  2  0
 35 34  1  0
 36 25  1  0
 37 36  2  0
 38 36  1  0
M  END
$$$$
