YFW.pdb
     RDKit          3D

 38 41  0  0  1  0  0  0  0  0999 V2000
   16.8050  -25.1854  -10.8425 O   0  0  0  0  0  0  0  0  0  0  0  0
   17.8669  -24.2810  -10.8243 C   0  0  0  0  0  0  0  0  0  0  0  0
   19.1817  -24.6965  -10.7020 C   0  0  0  0  0  0  0  0  0  0  0  0
   20.2430  -23.8162  -10.6822 C   0  0  0  0  0  0  0  0  0  0  0  0
   20.0211  -22.4601  -10.7862 C   0  0  0  0  0  0  0  0  0  0  0  0
   21.1079  -21.4461  -10.7723 C   0  0  0  0  0  0  0  0  0  0  0  0
   21.9159  -21.6748   -9.5183 C   0  0  2  0  0  0  0  0  0  0  0  0
   21.0998  -21.2481   -8.4055 N   0  0  0  0  0  0  0  0  0  0  0  0
   23.1815  -20.9115   -9.5011 C   0  0  0  0  0  0  0  0  0  0  0  0
   23.1167  -19.6582   -9.5846 O   0  0  0  0  0  0  0  0  0  0  0  0
   18.7129  -22.0347  -10.9088 C   0  0  0  0  0  0  0  0  0  0  0  0
   17.6579  -22.9220  -10.9277 C   0  0  0  0  0  0  0  0  0  0  0  0
   24.4512  -21.5524   -9.3935 N   0  0  0  0  0  0  0  0  0  0  0  0
   25.6468  -20.7823   -9.6171 C   0  0  1  0  0  0  0  0  0  0  0  0
   26.8417  -21.3862   -8.9497 C   0  0  0  0  0  0  0  0  0  0  0  0
   27.0442  -20.7150   -7.6452 C   0  0  0  0  0  0  0  0  0  0  0  0
   27.0091  -19.3487   -7.4701 C   0  0  0  0  0  0  0  0  0  0  0  0
   27.2077  -18.7765   -6.2142 C   0  0  0  0  0  0  0  0  0  0  0  0
   27.4442  -19.5920   -5.1240 C   0  0  0  0  0  0  0  0  0  0  0  0
   27.4829  -20.9565   -5.2783 C   0  0  0  0  0  0  0  0  0  0  0  0
   27.2823  -21.4941   -6.5358 C   0  0  0  0  0  0  0  0  0  0  0  0
   25.8072  -20.5066  -11.0539 C   0  0  0  0  0  0  0  0  0  0  0  0
   25.3175  -21.3129  -11.8758 O   0  0  0  0  0  0  0  0  0  0  0  0
   26.4837  -19.3812  -11.5751 N   0  0  0  0  0  0  0  0  0  0  0  0
   26.6155  -19.0950  -12.9939 C   0  0  1  0  0  0  0  0  0  0  0  0
   27.3346  -17.8168  -13.2557 C   0  0  0  0  0  0  0  0  0  0  0  0
   27.3299  -17.5366  -14.7095 C   0  0  0  0  0  0  0  0  0  0  0  0
   26.3210  -16.9035  -15.4327 C   0  0  0  0  0  0  0  0  0  0  0  0
   26.7188  -16.8653  -16.7089 N   0  0  0  0  0  0  0  0  0  0  0  0
   27.9300  -17.4409  -16.8411 C   0  0  0  0  0  0  0  0  0  0  0  0
   28.7561  -17.6482  -17.9381 C   0  0  0  0  0  0  0  0  0  0  0  0
   29.9664  -18.2811  -17.7591 C   0  0  0  0  0  0  0  0  0  0  0  0
   30.3956  -18.7207  -16.5285 C   0  0  0  0  0  0  0  0  0  0  0  0
   29.5673  -18.5119  -15.4334 C   0  0  0  0  0  0  0  0  0  0  0  0
   28.3480  -17.8763  -15.6021 C   0  0  0  0  0  0  0  0  0  0  0  0
   27.3410  -20.2103  -13.6356 C   0  0  0  0  0  0  0  0  0  0  0  0
   26.9364  -20.6811  -14.7270 O   0  0  0  0  0  0  0  0  0  0  0  0
   28.4702  -20.7696  -13.0754 O   0  0  0  0  0  0  0  0  0  0  0  0
  2  3  2  0
  2  1  1  0
  4  3  1  0
  5  4  2  0
  6  5  1  0
  6  7  1  0
  7  8  1  1
  9  7  1  0
  9 10  2  0
 11  5  1  0
 11 12  2  0
 12  2  1  0
 13  9  1  0
 14 13  1  0
 14 15  1  6
 16 15  1  0
 16 17  2  0
 18 17  1  0
 19 18  2  0
 20 21  2  0
 20 19  1  0
 21 16  1  0
 22 14  1  0
 23 22  2  0
 24 22  1  0
 25 24  1  0
 25 26  1  1
 26 27  1  0
 27 35  1  0
 28 27  2  0
 28 29  1  0
 29 30  1  0
 30 31  1  0
 31 32  2  0
 33 32  1  0
 34 33  2  0
 35 30  2  0
 35 34  1  0
 36 25  1  0
 37 36  2  0
 38 36  1  0
M  END
$$$$
