YFW.pdb
     RDKit          3D

 38 41  0  0  1  0  0  0  0  0999 V2000
   22.0396  -23.9569  -21.0990 O   0  0  0  0  0  0  0  0  0  0  0  0
   22.8717  -23.7897  -19.9920 C   0  0  0  0  0  0  0  0  0  0  0  0
   22.5644  -22.9075  -18.9705 C   0  0  0  0  0  0  0  0  0  0  0  0
   23.3755  -22.7300  -17.8694 C   0  0  0  0  0  0  0  0  0  0  0  0
   24.5478  -23.4443  -17.7495 C   0  0  0  0  0  0  0  0  0  0  0  0
   25.4769  -23.3113  -16.5967 C   0  0  0  0  0  0  0  0  0  0  0  0
   26.1796  -21.9835  -16.7405 C   0  0  2  0  0  0  0  0  0  0  0  0
   27.2500  -22.1722  -17.6919 N   0  0  0  0  0  0  0  0  0  0  0  0
   26.7531  -21.4944  -15.4691 C   0  0  0  0  0  0  0  0  0  0  0  0
   27.8721  -21.9455  -15.1135 O   0  0  0  0  0  0  0  0  0  0  0  0
   24.8640  -24.3275  -18.7631 C   0  0  0  0  0  0  0  0  0  0  0  0
   24.0471  -24.4985  -19.8603 C   0  0  0  0  0  0  0  0  0  0  0  0
   26.0788  -20.5397  -14.6516 N   0  0  0  0  0  0  0  0  0  0  0  0
   26.7080  -20.0856  -13.4391 C   0  0  1  0  0  0  0  0  0  0  0  0
   26.8885  -18.6007  -13.4172 C   0  0  0  0  0  0  0  0  0  0  0  0
   27.8537  -18.2261  -14.4760 C   0  0  0  0  0  0  0  0  0  0  0  0
   29.2023  -18.5029  -14.4197 C   0  0  0  0  0  0  0  0  0  0  0  0
   30.0609  -18.1232  -15.4507 C   0  0  0  0  0  0  0  0  0  0  0  0
   29.5527  -17.4572  -16.5496 C   0  0  0  0  0  0  0  0  0  0  0  0
   28.2110  -17.1722  -16.6242 C   0  0  0  0  0  0  0  0  0  0  0  0
   27.3851  -17.5614  -15.5865 C   0  0  0  0  0  0  0  0  0  0  0  0
   26.0127  -20.6472  -12.2697 C   0  0  0  0  0  0  0  0  0  0  0  0
   24.7652  -20.7368  -12.3020 O   0  0  0  0  0  0  0  0  0  0  0  0
   26.6643  -21.0974  -11.0999 N   0  0  0  0  0  0  0  0  0  0  0  0
   25.9750  -21.4718   -9.8764 C   0  0  1  0  0  0  0  0  0  0  0  0
   26.9136  -21.8571   -8.7854 C   0  0  0  0  0  0  0  0  0  0  0  0
   27.2812  -20.6552   -8.0031 C   0  0  0  0  0  0  0  0  0  0  0  0
   26.8713  -19.3456   -8.2456 C   0  0  0  0  0  0  0  0  0  0  0  0
   27.4403  -18.5775   -7.3103 N   0  0  0  0  0  0  0  0  0  0  0  0
   28.1932  -19.3266   -6.4811 C   0  0  0  0  0  0  0  0  0  0  0  0
   28.9698  -19.0095   -5.3742 C   0  0  0  0  0  0  0  0  0  0  0  0
   29.6415  -20.0140   -4.7131 C   0  0  0  0  0  0  0  0  0  0  0  0
   29.5752  -21.3305   -5.1063 C   0  0  0  0  0  0  0  0  0  0  0  0
   28.7978  -21.6445   -6.2136 C   0  0  0  0  0  0  0  0  0  0  0  0
   28.1180  -20.6419   -6.8858 C   0  0  0  0  0  0  0  0  0  0  0  0
   25.1446  -20.3330   -9.4343 C   0  0  0  0  0  0  0  0  0  0  0  0
   24.2421  -20.5049   -8.5785 O   0  0  0  0  0  0  0  0  0  0  0  0
   25.3221  -19.0591   -9.9317 O   0  0  0  0  0  0  0  0  0  0  0  0
  2  3  2  0
  2  1  1  0
  4  3  1  0
  5  4  2  0
  6  5  1  0
  6  7  1  0
  7  8  1  6
  9  7  1  0
  9 10  2  0
 11  5  1  0
 11 12  2  0
 12  2  1  0
 13  9  1  0
 14 13  1  0
 14 15  1  1
 16 15  1  0
 16 17  2  0
 18 17  1  0
 19 18  2  0
 20 21  2  0
 20 19  1  0
 21 16  1  0
 22 14  1  0
 23 22  2  0
 24 22  1  0
 25 24  1  0
 25 26  1  1
 26 27  1  0
 27 35  1  0
 28 27  2  0
 28 29  1  0
 29 30  1  0
 30 31  1  0
 31 32  2  0
 33 32  1  0
 34 33  2  0
 35 30  2  0
 35 34  1  0
 36 25  1  0
 37 36  2  0
 38 36  1  0
M  END
$$$$
