YFW.pdb
     RDKit          3D

 38 41  0  0  1  0  0  0  0  0999 V2000
   17.8903  -20.3349  -19.4075 O   0  0  0  0  0  0  0  0  0  0  0  0
   18.1737  -18.9732  -19.3001 C   0  0  0  0  0  0  0  0  0  0  0  0
   18.6313  -18.2326  -20.3762 C   0  0  0  0  0  0  0  0  0  0  0  0
   18.9163  -16.8863  -20.2875 C   0  0  0  0  0  0  0  0  0  0  0  0
   18.7498  -16.2196  -19.0929 C   0  0  0  0  0  0  0  0  0  0  0  0
   19.0346  -14.7718  -18.9132 C   0  0  0  0  0  0  0  0  0  0  0  0
   20.5280  -14.5919  -19.0357 C   0  0  2  0  0  0  0  0  0  0  0  0
   21.1230  -15.1823  -17.8593 N   0  0  0  0  0  0  0  0  0  0  0  0
   20.9330  -13.1726  -19.1132 C   0  0  0  0  0  0  0  0  0  0  0  0
   21.0602  -12.5349  -18.0365 O   0  0  0  0  0  0  0  0  0  0  0  0
   18.2934  -16.9492  -18.0127 C   0  0  0  0  0  0  0  0  0  0  0  0
   18.0110  -18.2950  -18.1106 C   0  0  0  0  0  0  0  0  0  0  0  0
   21.1787  -12.5218  -20.3584 N   0  0  0  0  0  0  0  0  0  0  0  0
   21.7033  -11.1813  -20.3578 C   0  0  1  0  0  0  0  0  0  0  0  0
   23.1484  -11.1391  -20.7424 C   0  0  0  0  0  0  0  0  0  0  0  0
   23.3224  -11.8858  -22.0094 C   0  0  0  0  0  0  0  0  0  0  0  0
   23.2387  -11.3102  -23.2585 C   0  0  0  0  0  0  0  0  0  0  0  0
   23.4123  -12.0684  -24.4158 C   0  0  0  0  0  0  0  0  0  0  0  0
   23.6731  -13.4213  -24.3108 C   0  0  0  0  0  0  0  0  0  0  0  0
   23.7603  -14.0134  -23.0744 C   0  0  0  0  0  0  0  0  0  0  0  0
   23.5835  -13.2357  -21.9455 C   0  0  0  0  0  0  0  0  0  0  0  0
   20.8237  -10.2956  -21.1376 C   0  0  0  0  0  0  0  0  0  0  0  0
   20.2803  -10.7498  -22.1691 O   0  0  0  0  0  0  0  0  0  0  0  0
   20.5473   -8.9526  -20.7979 N   0  0  0  0  0  0  0  0  0  0  0  0
   19.7703   -8.0460  -21.6266 C   0  0  1  0  0  0  0  0  0  0  0  0
   19.6194   -6.6967  -21.0133 C   0  0  0  0  0  0  0  0  0  0  0  0
   18.6326   -5.9101  -21.7875 C   0  0  0  0  0  0  0  0  0  0  0  0
   17.2486   -6.0731  -21.7825 C   0  0  0  0  0  0  0  0  0  0  0  0
   16.7444   -5.1660  -22.6259 N   0  0  0  0  0  0  0  0  0  0  0  0
   17.7330   -4.4303  -23.1710 C   0  0  0  0  0  0  0  0  0  0  0  0
   17.7305   -3.3851  -24.0856 C   0  0  0  0  0  0  0  0  0  0  0  0
   18.9277   -2.8181  -24.4629 C   0  0  0  0  0  0  0  0  0  0  0  0
   20.1372   -3.2470  -23.9678 C   0  0  0  0  0  0  0  0  0  0  0  0
   20.1365   -4.2924  -23.0534 C   0  0  0  0  0  0  0  0  0  0  0  0
   18.9380   -4.8698  -22.6669 C   0  0  0  0  0  0  0  0  0  0  0  0
   20.4343   -7.9201  -22.9401 C   0  0  0  0  0  0  0  0  0  0  0  0
   21.6658   -7.6841  -23.0045 O   0  0  0  0  0  0  0  0  0  0  0  0
   19.7444   -8.0543  -24.1266 O   0  0  0  0  0  0  0  0  0  0  0  0
  2  3  2  0
  2  1  1  0
  4  3  1  0
  5  4  2  0
  6  5  1  0
  6  7  1  0
  7  8  1  1
  9  7  1  0
  9 10  2  0
 11  5  1  0
 11 12  2  0
 12  2  1  0
 13  9  1  0
 14 13  1  0
 14 15  1  6
 16 15  1  0
 16 17  2  0
 18 17  1  0
 19 18  2  0
 20 21  2  0
 20 19  1  0
 21 16  1  0
 22 14  1  0
 23 22  2  0
 24 22  1  0
 25 24  1  0
 25 26  1  1
 26 27  1  0
 27 35  1  0
 28 27  2  0
 28 29  1  0
 29 30  1  0
 30 31  1  0
 31 32  2  0
 33 32  1  0
 34 33  2  0
 35 30  2  0
 35 34  1  0
 36 25  1  0
 37 36  2  0
 38 36  1  0
M  END
$$$$
