YFW.pdb
     RDKit          3D

 38 41  0  0  1  0  0  0  0  0999 V2000
   22.0261  -28.1264  -21.8105 O   0  0  0  0  0  0  0  0  0  0  0  0
   21.8902  -28.0790  -20.4230 C   0  0  0  0  0  0  0  0  0  0  0  0
   22.9099  -28.4708  -19.5728 C   0  0  0  0  0  0  0  0  0  0  0  0
   22.7923  -28.4305  -18.1994 C   0  0  0  0  0  0  0  0  0  0  0  0
   21.6251  -27.9873  -17.6161 C   0  0  0  0  0  0  0  0  0  0  0  0
   21.4173  -27.9138  -16.1461 C   0  0  0  0  0  0  0  0  0  0  0  0
   21.3670  -26.4519  -15.7747 C   0  0  2  0  0  0  0  0  0  0  0  0
   22.6979  -25.9221  -15.9606 N   0  0  0  0  0  0  0  0  0  0  0  0
   20.9563  -26.2273  -14.3728 C   0  0  0  0  0  0  0  0  0  0  0  0
   21.8387  -26.3020  -13.4796 O   0  0  0  0  0  0  0  0  0  0  0  0
   20.6012  -27.5937  -18.4554 C   0  0  0  0  0  0  0  0  0  0  0  0
   20.7276  -27.6374  -19.8275 C   0  0  0  0  0  0  0  0  0  0  0  0
   19.6070  -25.9327  -14.0166 N   0  0  0  0  0  0  0  0  0  0  0  0
   19.2817  -25.6981  -12.6340 C   0  0  1  0  0  0  0  0  0  0  0  0
   18.4420  -24.4738  -12.4502 C   0  0  0  0  0  0  0  0  0  0  0  0
   17.1707  -24.6575  -13.1872 C   0  0  0  0  0  0  0  0  0  0  0  0
   17.0439  -24.5063  -14.5509 C   0  0  0  0  0  0  0  0  0  0  0  0
   15.8173  -24.6933  -15.1871 C   0  0  0  0  0  0  0  0  0  0  0  0
   14.7074  -25.0364  -14.4388 C   0  0  0  0  0  0  0  0  0  0  0  0
   14.8136  -25.1918  -13.0781 C   0  0  0  0  0  0  0  0  0  0  0  0
   16.0429  -24.9997  -12.4761 C   0  0  0  0  0  0  0  0  0  0  0  0
   18.7377  -26.9247  -12.0292 C   0  0  0  0  0  0  0  0  0  0  0  0
   18.0281  -27.6755  -12.7351 O   0  0  0  0  0  0  0  0  0  0  0  0
   18.9642  -27.3174  -10.6913 N   0  0  0  0  0  0  0  0  0  0  0  0
   18.3588  -28.4843  -10.0712 C   0  0  1  0  0  0  0  0  0  0  0  0
   18.8495  -28.7146   -8.6835 C   0  0  0  0  0  0  0  0  0  0  0  0
   17.8842  -28.1429   -7.7174 C   0  0  0  0  0  0  0  0  0  0  0  0
   16.7449  -28.7651   -7.2107 C   0  0  0  0  0  0  0  0  0  0  0  0
   16.1593  -27.8947   -6.3813 N   0  0  0  0  0  0  0  0  0  0  0  0
   16.8640  -26.7473   -6.3301 C   0  0  0  0  0  0  0  0  0  0  0  0
   16.6775  -25.5614   -5.6318 C   0  0  0  0  0  0  0  0  0  0  0  0
   17.5877  -24.5391   -5.7860 C   0  0  0  0  0  0  0  0  0  0  0  0
   18.6840  -24.6438   -6.6101 C   0  0  0  0  0  0  0  0  0  0  0  0
   18.8679  -25.8310   -7.3070 C   0  0  0  0  0  0  0  0  0  0  0  0
   17.9586  -26.8656   -7.1592 C   0  0  0  0  0  0  0  0  0  0  0  0
   16.8930  -28.3028  -10.0531 C   0  0  0  0  0  0  0  0  0  0  0  0
   16.3995  -27.1491  -10.0969 O   0  0  0  0  0  0  0  0  0  0  0  0
   16.0224  -29.3704   -9.9896 O   0  0  0  0  0  0  0  0  0  0  0  0
  2  3  2  0
  2  1  1  0
  4  3  1  0
  5  4  2  0
  6  5  1  0
  6  7  1  0
  7  8  1  1
  9  7  1  0
  9 10  2  0
 11  5  1  0
 11 12  2  0
 12  2  1  0
 13  9  1  0
 14 13  1  0
 14 15  1  6
 16 15  1  0
 16 17  2  0
 18 17  1  0
 19 18  2  0
 20 21  2  0
 20 19  1  0
 21 16  1  0
 22 14  1  0
 23 22  2  0
 24 22  1  0
 25 24  1  0
 25 26  1  1
 26 27  1  0
 27 35  1  0
 28 27  2  0
 28 29  1  0
 29 30  1  0
 30 31  1  0
 31 32  2  0
 33 32  1  0
 34 33  2  0
 35 30  2  0
 35 34  1  0
 36 25  1  0
 37 36  2  0
 38 36  1  0
M  END
$$$$
