MWF.pdb
     RDKit          3D

 34 36  0  0  1  0  0  0  0  0999 V2000
   27.3235  -21.8658  -19.1188 C   0  0  0  0  0  0  0  0  0  0  0  0
   26.8196  -23.5801  -19.2952 S   0  0  0  0  0  0  0  0  0  0  0  0
   26.0217  -24.1129  -17.7421 C   0  0  0  0  0  0  0  0  0  0  0  0
   26.5058  -23.1460  -16.6681 C   0  0  0  0  0  0  0  0  0  0  0  0
   25.9670  -23.5667  -15.3257 C   0  0  2  0  0  0  0  0  0  0  0  0
   24.5463  -23.7172  -15.3107 N   0  0  0  0  0  0  0  0  0  0  0  0
   26.3853  -22.5593  -14.3222 C   0  0  0  0  0  0  0  0  0  0  0  0
   27.6068  -22.2389  -14.2470 O   0  0  0  0  0  0  0  0  0  0  0  0
   25.5216  -21.9071  -13.4177 N   0  0  0  0  0  0  0  0  0  0  0  0
   25.9880  -20.8693  -12.5203 C   0  0  1  0  0  0  0  0  0  0  0  0
   25.2442  -19.5917  -12.7138 C   0  0  0  0  0  0  0  0  0  0  0  0
   25.5309  -18.8384  -13.9292 C   0  0  0  0  0  0  0  0  0  0  0  0
   24.5709  -18.2242  -14.7676 C   0  0  0  0  0  0  0  0  0  0  0  0
   25.1638  -17.5870  -15.7683 N   0  0  0  0  0  0  0  0  0  0  0  0
   26.4781  -17.7582  -15.6224 C   0  0  0  0  0  0  0  0  0  0  0  0
   27.5530  -17.3264  -16.3701 C   0  0  0  0  0  0  0  0  0  0  0  0
   28.8501  -17.6380  -16.0290 C   0  0  0  0  0  0  0  0  0  0  0  0
   29.1071  -18.4097  -14.9011 C   0  0  0  0  0  0  0  0  0  0  0  0
   28.0329  -18.8320  -14.1672 C   0  0  0  0  0  0  0  0  0  0  0  0
   26.7312  -18.5247  -14.4996 C   0  0  0  0  0  0  0  0  0  0  0  0
   26.0465  -21.3371  -11.1444 C   0  0  0  0  0  0  0  0  0  0  0  0
   25.3593  -22.3191  -10.7689 O   0  0  0  0  0  0  0  0  0  0  0  0
   26.8827  -20.7132  -10.1804 N   0  0  0  0  0  0  0  0  0  0  0  0
   26.7835  -20.9358   -8.7502 C   0  0  1  0  0  0  0  0  0  0  0  0
   27.8746  -20.0576   -8.1311 C   0  0  0  0  0  0  0  0  0  0  0  0
   27.8782  -20.0754   -6.6681 C   0  0  0  0  0  0  0  0  0  0  0  0
   26.9413  -20.8440   -6.0071 C   0  0  0  0  0  0  0  0  0  0  0  0
   26.8769  -20.9195   -4.6464 C   0  0  0  0  0  0  0  0  0  0  0  0
   27.7891  -20.1947   -3.9000 C   0  0  0  0  0  0  0  0  0  0  0  0
   28.7314  -19.4215   -4.5671 C   0  0  0  0  0  0  0  0  0  0  0  0
   28.7882  -19.3521   -5.9402 C   0  0  0  0  0  0  0  0  0  0  0  0
   25.4485  -20.5207   -8.2921 C   0  0  0  0  0  0  0  0  0  0  0  0
   24.8008  -19.5375   -8.7217 O   0  0  0  0  0  0  0  0  0  0  0  0
   24.8166  -21.2719   -7.2862 O   0  0  0  0  0  0  0  0  0  0  0  0
  1  2  1  0
  3  2  1  0
  4  3  1  0
  5  4  1  0
  5  6  1  6
  7  8  2  0
  7  5  1  0
  9  7  1  0
 10  9  1  0
 10 11  1  1
 11 12  1  0
 12 20  1  0
 12 13  2  0
 13 14  1  0
 15 16  2  0
 15 14  1  0
 17 16  1  0
 18 17  2  0
 19 18  1  0
 19 20  2  0
 20 15  1  0
 21 10  1  0
 22 21  2  0
 23 21  1  0
 24 23  1  0
 24 25  1  1
 25 26  1  0
 26 31  1  0
 27 26  2  0
 27 28  1  0
 28 29  2  0
 29 30  1  0
 31 30  2  0
 32 34  1  0
 32 24  1  0
 33 32  2  0
M  END
$$$$
