MWF.pdb
     RDKit          3D

 34 36  0  0  1  0  0  0  0  0999 V2000
   26.0352  -18.0827  -18.6757 C   0  0  0  0  0  0  0  0  0  0  0  0
   27.3872  -18.9229  -19.5063 S   0  0  0  0  0  0  0  0  0  0  0  0
   27.0155  -20.7095  -19.5580 C   0  0  0  0  0  0  0  0  0  0  0  0
   26.5510  -21.0825  -18.1552 C   0  0  0  0  0  0  0  0  0  0  0  0
   27.7329  -21.5145  -17.3269 C   0  0  2  0  0  0  0  0  0  0  0  0
   28.2904  -22.7608  -17.7474 N   0  0  0  0  0  0  0  0  0  0  0  0
   27.3007  -21.5988  -15.9117 C   0  0  0  0  0  0  0  0  0  0  0  0
   26.7592  -22.6647  -15.4981 O   0  0  0  0  0  0  0  0  0  0  0  0
   27.4418  -20.5701  -14.9570 N   0  0  0  0  0  0  0  0  0  0  0  0
   26.9451  -20.7037  -13.6022 C   0  0  1  0  0  0  0  0  0  0  0  0
   27.7428  -19.8960  -12.6358 C   0  0  0  0  0  0  0  0  0  0  0  0
   28.0940  -20.5352  -11.3729 C   0  0  0  0  0  0  0  0  0  0  0  0
   29.2055  -21.3832  -11.1559 C   0  0  0  0  0  0  0  0  0  0  0  0
   29.2601  -21.7669   -9.8875 N   0  0  0  0  0  0  0  0  0  0  0  0
   28.2265  -21.2050   -9.2598 C   0  0  0  0  0  0  0  0  0  0  0  0
   27.7981  -21.2667   -7.9508 C   0  0  0  0  0  0  0  0  0  0  0  0
   26.6742  -20.5983   -7.5196 C   0  0  0  0  0  0  0  0  0  0  0  0
   25.9339  -19.8324   -8.4135 C   0  0  0  0  0  0  0  0  0  0  0  0
   26.3688  -19.7785   -9.7092 C   0  0  0  0  0  0  0  0  0  0  0  0
   27.4927  -20.4429  -10.1504 C   0  0  0  0  0  0  0  0  0  0  0  0
   25.5081  -20.4892  -13.5346 C   0  0  0  0  0  0  0  0  0  0  0  0
   24.9871  -19.4602  -14.0319 O   0  0  0  0  0  0  0  0  0  0  0  0
   24.6427  -21.4309  -12.9167 N   0  0  0  0  0  0  0  0  0  0  0  0
   23.2140  -21.2389  -12.7532 C   0  0  1  0  0  0  0  0  0  0  0  0
   22.6504  -22.6362  -12.4794 C   0  0  0  0  0  0  0  0  0  0  0  0
   21.2056  -22.6482  -12.2487 C   0  0  0  0  0  0  0  0  0  0  0  0
   20.7367  -22.7156  -10.9522 C   0  0  0  0  0  0  0  0  0  0  0  0
   19.4067  -22.7283  -10.6487 C   0  0  0  0  0  0  0  0  0  0  0  0
   18.4915  -22.6712  -11.6850 C   0  0  0  0  0  0  0  0  0  0  0  0
   18.9653  -22.6035  -12.9895 C   0  0  0  0  0  0  0  0  0  0  0  0
   20.3092  -22.5911  -13.2851 C   0  0  0  0  0  0  0  0  0  0  0  0
   22.9785  -20.3417  -11.6113 C   0  0  0  0  0  0  0  0  0  0  0  0
   23.6516  -20.3107  -10.5546 O   0  0  0  0  0  0  0  0  0  0  0  0
   21.9138  -19.4267  -11.6804 O   0  0  0  0  0  0  0  0  0  0  0  0
  1  2  1  0
  3  2  1  0
  4  3  1  0
  5  4  1  0
  5  6  1  6
  7  8  2  0
  7  5  1  0
  9  7  1  0
 10  9  1  0
 10 11  1  1
 11 12  1  0
 12 20  1  0
 12 13  2  0
 13 14  1  0
 15 16  2  0
 15 14  1  0
 17 16  1  0
 18 17  2  0
 19 18  1  0
 19 20  2  0
 20 15  1  0
 21 10  1  0
 22 21  2  0
 23 21  1  0
 24 23  1  0
 24 25  1  1
 25 26  1  0
 26 31  1  0
 27 26  2  0
 27 28  1  0
 28 29  2  0
 29 30  1  0
 31 30  2  0
 32 34  1  0
 32 24  1  0
 33 32  2  0
M  END
$$$$
