MWF.pdb
     RDKit          3D

 34 36  0  0  1  0  0  0  0  0999 V2000
   26.2547  -16.3123  -14.8488 C   0  0  0  0  0  0  0  0  0  0  0  0
   27.7598  -16.5324  -15.8028 S   0  0  0  0  0  0  0  0  0  0  0  0
   28.7238  -17.8930  -15.0597 C   0  0  0  0  0  0  0  0  0  0  0  0
   27.7055  -18.8250  -14.4137 C   0  0  0  0  0  0  0  0  0  0  0  0
   28.4186  -19.9716  -13.7457 C   0  0  2  0  0  0  0  0  0  0  0  0
   29.2656  -20.7028  -14.6340 N   0  0  0  0  0  0  0  0  0  0  0  0
   27.3987  -20.8706  -13.1554 C   0  0  0  0  0  0  0  0  0  0  0  0
   26.9650  -21.8407  -13.8419 O   0  0  0  0  0  0  0  0  0  0  0  0
   26.8519  -20.7394  -11.8619 N   0  0  0  0  0  0  0  0  0  0  0  0
   25.6773  -21.4782  -11.4440 C   0  0  1  0  0  0  0  0  0  0  0  0
   25.6320  -21.6595   -9.9649 C   0  0  0  0  0  0  0  0  0  0  0  0
   26.4067  -20.7215   -9.1607 C   0  0  0  0  0  0  0  0  0  0  0  0
   25.9807  -19.4370   -8.7483 C   0  0  0  0  0  0  0  0  0  0  0  0
   26.9067  -18.8563   -7.9970 N   0  0  0  0  0  0  0  0  0  0  0  0
   27.9275  -19.7085   -7.8989 C   0  0  0  0  0  0  0  0  0  0  0  0
   29.1424  -19.6218   -7.2528 C   0  0  0  0  0  0  0  0  0  0  0  0
   30.0656  -20.6424   -7.2970 C   0  0  0  0  0  0  0  0  0  0  0  0
   29.7858  -21.8040   -8.0083 C   0  0  0  0  0  0  0  0  0  0  0  0
   28.5775  -21.8785   -8.6449 C   0  0  0  0  0  0  0  0  0  0  0  0
   27.6464  -20.8632   -8.6059 C   0  0  0  0  0  0  0  0  0  0  0  0
   24.4633  -20.9295  -12.0276 C   0  0  0  0  0  0  0  0  0  0  0  0
   24.2549  -19.6910  -12.0331 O   0  0  0  0  0  0  0  0  0  0  0  0
   23.4772  -21.7644  -12.6177 N   0  0  0  0  0  0  0  0  0  0  0  0
   22.3050  -21.2718  -13.3162 C   0  0  1  0  0  0  0  0  0  0  0  0
   22.3240  -21.9744  -14.6767 C   0  0  0  0  0  0  0  0  0  0  0  0
   21.9708  -23.3925  -14.6064 C   0  0  0  0  0  0  0  0  0  0  0  0
   22.9798  -24.3271  -14.4882 C   0  0  0  0  0  0  0  0  0  0  0  0
   22.7380  -25.6677  -14.4133 C   0  0  0  0  0  0  0  0  0  0  0  0
   21.4265  -26.1066  -14.4582 C   0  0  0  0  0  0  0  0  0  0  0  0
   20.4122  -25.1644  -14.5773 C   0  0  0  0  0  0  0  0  0  0  0  0
   20.6666  -23.8141  -14.6519 C   0  0  0  0  0  0  0  0  0  0  0  0
   21.1026  -21.6360  -12.5507 C   0  0  0  0  0  0  0  0  0  0  0  0
   21.0730  -22.3918  -11.5513 O   0  0  0  0  0  0  0  0  0  0  0  0
   19.8631  -21.1063  -12.9487 O   0  0  0  0  0  0  0  0  0  0  0  0
  1  2  1  0
  3  2  1  0
  4  3  1  0
  5  4  1  0
  5  6  1  6
  7  8  2  0
  7  5  1  0
  9  7  1  0
 10  9  1  0
 10 11  1  1
 11 12  1  0
 12 20  1  0
 12 13  2  0
 13 14  1  0
 15 16  2  0
 15 14  1  0
 17 16  1  0
 18 17  2  0
 19 18  1  0
 19 20  2  0
 20 15  1  0
 21 10  1  0
 22 21  2  0
 23 21  1  0
 24 23  1  0
 24 25  1  6
 25 26  1  0
 26 31  1  0
 27 26  2  0
 27 28  1  0
 28 29  2  0
 29 30  1  0
 31 30  2  0
 32 34  1  0
 32 24  1  0
 33 32  2  0
M  END
$$$$
