MWF.pdb
     RDKit          3D

 34 36  0  0  1  0  0  0  0  0999 V2000
   25.3816  -21.0291  -19.5141 C   0  0  0  0  0  0  0  0  0  0  0  0
   27.0533  -20.3964  -19.6838 S   0  0  0  0  0  0  0  0  0  0  0  0
   28.1097  -21.2063  -18.4346 C   0  0  0  0  0  0  0  0  0  0  0  0
   27.2881  -21.2454  -17.1515 C   0  0  0  0  0  0  0  0  0  0  0  0
   28.1101  -21.8438  -16.0400 C   0  0  2  0  0  0  0  0  0  0  0  0
   28.5605  -23.1697  -16.3231 N   0  0  0  0  0  0  0  0  0  0  0  0
   27.2936  -21.8340  -14.8031 C   0  0  0  0  0  0  0  0  0  0  0  0
   26.5295  -22.8136  -14.5646 O   0  0  0  0  0  0  0  0  0  0  0  0
   27.2904  -20.8030  -13.8405 N   0  0  0  0  0  0  0  0  0  0  0  0
   26.3557  -20.7865  -12.7332 C   0  0  1  0  0  0  0  0  0  0  0  0
   26.7939  -19.8608  -11.6498 C   0  0  0  0  0  0  0  0  0  0  0  0
   27.8015  -20.3609  -10.7216 C   0  0  0  0  0  0  0  0  0  0  0  0
   29.0489  -20.9244  -11.0795 C   0  0  0  0  0  0  0  0  0  0  0  0
   29.7454  -21.2435   -9.9969 N   0  0  0  0  0  0  0  0  0  0  0  0
   29.0047  -20.9127   -8.9386 C   0  0  0  0  0  0  0  0  0  0  0  0
   29.2294  -21.0279   -7.5833 C   0  0  0  0  0  0  0  0  0  0  0  0
   28.2994  -20.6205   -6.6532 C   0  0  0  0  0  0  0  0  0  0  0  0
   27.0907  -20.0741   -7.0705 C   0  0  0  0  0  0  0  0  0  0  0  0
   26.8792  -19.9648   -8.4174 C   0  0  0  0  0  0  0  0  0  0  0  0
   27.8039  -20.3684   -9.3561 C   0  0  0  0  0  0  0  0  0  0  0  0
   24.9889  -20.5867  -13.1887 C   0  0  0  0  0  0  0  0  0  0  0  0
   24.7005  -19.6411  -13.9634 O   0  0  0  0  0  0  0  0  0  0  0  0
   23.9359  -21.4509  -12.7863 N   0  0  0  0  0  0  0  0  0  0  0  0
   22.5472  -21.2749  -13.1676 C   0  0  1  0  0  0  0  0  0  0  0  0
   21.9848  -22.6931  -13.2999 C   0  0  0  0  0  0  0  0  0  0  0  0
   20.5508  -22.7280  -13.5884 C   0  0  0  0  0  0  0  0  0  0  0  0
   20.1263  -22.5421  -14.8886 C   0  0  0  0  0  0  0  0  0  0  0  0
   18.8094  -22.5627  -15.2445 C   0  0  0  0  0  0  0  0  0  0  0  0
   17.8617  -22.7789  -14.2597 C   0  0  0  0  0  0  0  0  0  0  0  0
   18.2909  -22.9657  -12.9514 C   0  0  0  0  0  0  0  0  0  0  0  0
   19.6218  -22.9432  -12.6027 C   0  0  0  0  0  0  0  0  0  0  0  0
   21.8506  -20.5274  -12.1091 C   0  0  0  0  0  0  0  0  0  0  0  0
   22.1858  -20.4846  -10.9022 O   0  0  0  0  0  0  0  0  0  0  0  0
   20.7059  -19.7857  -12.4483 O   0  0  0  0  0  0  0  0  0  0  0  0
  1  2  1  0
  3  2  1  0
  4  3  1  0
  5  4  1  0
  5  6  1  6
  7  8  2  0
  7  5  1  0
  9  7  1  0
 10  9  1  0
 10 11  1  1
 11 12  1  0
 12 20  1  0
 12 13  2  0
 13 14  1  0
 15 16  2  0
 15 14  1  0
 17 16  1  0
 18 17  2  0
 19 18  1  0
 19 20  2  0
 20 15  1  0
 21 10  1  0
 22 21  2  0
 23 21  1  0
 24 23  1  0
 24 25  1  1
 25 26  1  0
 26 31  1  0
 27 26  2  0
 27 28  1  0
 28 29  2  0
 29 30  1  0
 31 30  2  0
 32 34  1  0
 32 24  1  0
 33 32  2  0
M  END
$$$$
