MWF.pdb
     RDKit          3D

 34 36  0  0  1  0  0  0  0  0999 V2000
   26.6458  -17.1761  -20.8153 C   0  0  0  0  0  0  0  0  0  0  0  0
   25.5760  -15.9592  -20.0418 S   0  0  0  0  0  0  0  0  0  0  0  0
   25.8805  -15.9795  -18.2420 C   0  0  0  0  0  0  0  0  0  0  0  0
   25.3074  -17.2973  -17.7340 C   0  0  0  0  0  0  0  0  0  0  0  0
   26.4299  -18.2501  -17.4153 C   0  0  2  0  0  0  0  0  0  0  0  0
   26.8129  -19.0616  -18.5269 N   0  0  0  0  0  0  0  0  0  0  0  0
   26.0047  -19.1039  -16.2809 C   0  0  0  0  0  0  0  0  0  0  0  0
   25.3236  -20.1435  -16.5171 O   0  0  0  0  0  0  0  0  0  0  0  0
   26.2982  -18.8561  -14.9237 N   0  0  0  0  0  0  0  0  0  0  0  0
   25.8255  -19.7231  -13.8631 C   0  0  1  0  0  0  0  0  0  0  0  0
   26.6946  -19.6469  -12.6541 C   0  0  0  0  0  0  0  0  0  0  0  0
   26.3708  -20.5436  -11.5506 C   0  0  0  0  0  0  0  0  0  0  0  0
   26.2249  -21.9479  -11.6412 C   0  0  0  0  0  0  0  0  0  0  0  0
   25.9672  -22.4690  -10.4491 N   0  0  0  0  0  0  0  0  0  0  0  0
   25.9367  -21.4618   -9.5758 C   0  0  0  0  0  0  0  0  0  0  0  0
   25.7070  -21.4262   -8.2169 C   0  0  0  0  0  0  0  0  0  0  0  0
   25.7146  -20.2462   -7.5073 C   0  0  0  0  0  0  0  0  0  0  0  0
   25.9588  -19.0429   -8.1600 C   0  0  0  0  0  0  0  0  0  0  0  0
   26.1855  -19.0909   -9.5080 C   0  0  0  0  0  0  0  0  0  0  0  0
   26.1811  -20.2666  -10.2270 C   0  0  0  0  0  0  0  0  0  0  0  0
   24.4069  -19.5310  -13.6061 C   0  0  0  0  0  0  0  0  0  0  0  0
   23.9593  -18.4043  -13.2778 O   0  0  0  0  0  0  0  0  0  0  0  0
   23.4774  -20.5986  -13.7237 N   0  0  0  0  0  0  0  0  0  0  0  0
   22.0827  -20.5108  -13.3338 C   0  0  1  0  0  0  0  0  0  0  0  0
   21.2957  -20.5560  -14.6466 C   0  0  0  0  0  0  0  0  0  0  0  0
   21.2846  -19.2815  -15.3650 C   0  0  0  0  0  0  0  0  0  0  0  0
   20.5379  -18.2363  -14.8595 C   0  0  0  0  0  0  0  0  0  0  0  0
   20.4748  -17.0150  -15.4643 C   0  0  0  0  0  0  0  0  0  0  0  0
   21.1895  -16.8180  -16.6326 C   0  0  0  0  0  0  0  0  0  0  0  0
   21.9405  -17.8712  -17.1400 C   0  0  0  0  0  0  0  0  0  0  0  0
   21.9976  -19.0995  -16.5223 C   0  0  0  0  0  0  0  0  0  0  0  0
   21.7505  -21.6614  -12.4792 C   0  0  0  0  0  0  0  0  0  0  0  0
   22.4482  -22.6928  -12.3378 O   0  0  0  0  0  0  0  0  0  0  0  0
   20.5534  -21.6320  -11.7434 O   0  0  0  0  0  0  0  0  0  0  0  0
  1  2  1  0
  3  2  1  0
  4  3  1  0
  5  4  1  0
  5  6  1  6
  7  8  2  0
  7  5  1  0
  9  7  1  0
 10  9  1  0
 10 11  1  1
 11 12  1  0
 12 20  1  0
 12 13  2  0
 13 14  1  0
 15 16  2  0
 15 14  1  0
 17 16  1  0
 18 17  2  0
 19 18  1  0
 19 20  2  0
 20 15  1  0
 21 10  1  0
 22 21  2  0
 23 21  1  0
 24 23  1  0
 24 25  1  6
 25 26  1  0
 26 31  1  0
 27 26  2  0
 27 28  1  0
 28 29  2  0
 29 30  1  0
 31 30  2  0
 32 34  1  0
 32 24  1  0
 33 32  2  0
M  END
$$$$
