MWF.pdb
     RDKit          3D

 34 36  0  0  1  0  0  0  0  0999 V2000
   28.6181  -25.5529  -16.1759 C   0  0  0  0  0  0  0  0  0  0  0  0
   30.2461  -24.8708  -15.8475 S   0  0  0  0  0  0  0  0  0  0  0  0
   30.5148  -23.4491  -16.9606 C   0  0  0  0  0  0  0  0  0  0  0  0
   29.6030  -22.3390  -16.4515 C   0  0  0  0  0  0  0  0  0  0  0  0
   28.7981  -21.7784  -17.5948 C   0  0  2  0  0  0  0  0  0  0  0  0
   29.5821  -21.0200  -18.5174 N   0  0  0  0  0  0  0  0  0  0  0  0
   27.7158  -20.9373  -17.0309 C   0  0  0  0  0  0  0  0  0  0  0  0
   27.9880  -19.7626  -16.6483 O   0  0  0  0  0  0  0  0  0  0  0  0
   26.3723  -21.3384  -16.8773 N   0  0  0  0  0  0  0  0  0  0  0  0
   25.3857  -20.4944  -16.2335 C   0  0  1  0  0  0  0  0  0  0  0  0
   24.2060  -20.2496  -17.1116 C   0  0  0  0  0  0  0  0  0  0  0  0
   23.1421  -19.4121  -16.5699 C   0  0  0  0  0  0  0  0  0  0  0  0
   23.2909  -18.0851  -16.1023 C   0  0  0  0  0  0  0  0  0  0  0  0
   22.1228  -17.5938  -15.7109 N   0  0  0  0  0  0  0  0  0  0  0  0
   21.2095  -18.5464  -15.9017 C   0  0  0  0  0  0  0  0  0  0  0  0
   19.8518  -18.5831  -15.6646 C   0  0  0  0  0  0  0  0  0  0  0  0
   19.0948  -19.7009  -15.9353 C   0  0  0  0  0  0  0  0  0  0  0  0
   19.6962  -20.8378  -16.4638 C   0  0  0  0  0  0  0  0  0  0  0  0
   21.0435  -20.7894  -16.6950 C   0  0  0  0  0  0  0  0  0  0  0  0
   21.8097  -19.6753  -16.4284 C   0  0  0  0  0  0  0  0  0  0  0  0
   25.0621  -20.9711  -14.8981 C   0  0  0  0  0  0  0  0  0  0  0  0
   24.9829  -22.2009  -14.6555 O   0  0  0  0  0  0  0  0  0  0  0  0
   24.8334  -20.0729  -13.8217 N   0  0  0  0  0  0  0  0  0  0  0  0
   24.4554  -20.4853  -12.4831 C   0  0  1  0  0  0  0  0  0  0  0  0
   25.3744  -19.6965  -11.5459 C   0  0  0  0  0  0  0  0  0  0  0  0
   26.7592  -20.1687  -11.5523 C   0  0  0  0  0  0  0  0  0  0  0  0
   27.1458  -21.1174  -10.6271 C   0  0  0  0  0  0  0  0  0  0  0  0
   28.4152  -21.6135  -10.5660 C   0  0  0  0  0  0  0  0  0  0  0  0
   29.3525  -21.1448  -11.4697 C   0  0  0  0  0  0  0  0  0  0  0  0
   28.9616  -20.1898  -12.4002 C   0  0  0  0  0  0  0  0  0  0  0  0
   27.6784  -19.6958  -12.4537 C   0  0  0  0  0  0  0  0  0  0  0  0
   23.0443  -20.1374  -12.2549 C   0  0  0  0  0  0  0  0  0  0  0  0
   22.4379  -19.1681  -12.7680 O   0  0  0  0  0  0  0  0  0  0  0  0
   22.2818  -20.9431  -11.3918 O   0  0  0  0  0  0  0  0  0  0  0  0
  1  2  1  0
  3  2  1  0
  4  3  1  0
  5  4  1  0
  5  6  1  6
  7  8  2  0
  7  5  1  0
  9  7  1  0
 10  9  1  0
 10 11  1  6
 11 12  1  0
 12 20  1  0
 12 13  2  0
 13 14  1  0
 15 16  2  0
 15 14  1  0
 17 16  1  0
 18 17  2  0
 19 18  1  0
 19 20  2  0
 20 15  1  0
 21 10  1  0
 22 21  2  0
 23 21  1  0
 24 23  1  0
 24 25  1  1
 25 26  1  0
 26 31  1  0
 27 26  2  0
 27 28  1  0
 28 29  2  0
 29 30  1  0
 31 30  2  0
 32 34  1  0
 32 24  1  0
 33 32  2  0
M  END
$$$$
