MWF.pdb
     RDKit          3D

 34 36  0  0  1  0  0  0  0  0999 V2000
   30.4419  -16.7215  -17.4282 C   0  0  0  0  0  0  0  0  0  0  0  0
   29.3588  -17.5067  -16.2308 S   0  0  0  0  0  0  0  0  0  0  0  0
   28.0859  -16.3012  -15.7217 C   0  0  0  0  0  0  0  0  0  0  0  0
   27.3675  -16.9265  -14.5319 C   0  0  0  0  0  0  0  0  0  0  0  0
   26.7842  -18.2565  -14.9323 C   0  0  2  0  0  0  0  0  0  0  0  0
   25.8513  -18.1611  -16.0101 N   0  0  0  0  0  0  0  0  0  0  0  0
   26.1323  -18.8534  -13.7426 C   0  0  0  0  0  0  0  0  0  0  0  0
   25.1302  -18.2713  -13.2354 O   0  0  0  0  0  0  0  0  0  0  0  0
   26.5387  -20.0448  -13.1063 N   0  0  0  0  0  0  0  0  0  0  0  0
   25.8538  -20.5675  -11.9410 C   0  0  1  0  0  0  0  0  0  0  0  0
   25.0525  -21.7820  -12.2657 C   0  0  0  0  0  0  0  0  0  0  0  0
   23.8365  -21.5818  -13.0455 C   0  0  0  0  0  0  0  0  0  0  0  0
   23.6936  -21.8241  -14.4320 C   0  0  0  0  0  0  0  0  0  0  0  0
   22.4508  -21.5776  -14.8239 N   0  0  0  0  0  0  0  0  0  0  0  0
   21.7688  -21.1810  -13.7490 C   0  0  0  0  0  0  0  0  0  0  0  0
   20.4561  -20.7948  -13.5804 C   0  0  0  0  0  0  0  0  0  0  0  0
   19.9620  -20.4079  -12.3547 C   0  0  0  0  0  0  0  0  0  0  0  0
   20.7936  -20.3988  -11.2402 C   0  0  0  0  0  0  0  0  0  0  0  0
   22.0936  -20.7842  -11.4198 C   0  0  0  0  0  0  0  0  0  0  0  0
   22.5974  -21.1740  -12.6419 C   0  0  0  0  0  0  0  0  0  0  0  0
   26.7573  -20.7183  -10.8112 C   0  0  0  0  0  0  0  0  0  0  0  0
   27.8014  -21.4094  -10.9101 O   0  0  0  0  0  0  0  0  0  0  0  0
   26.5019  -20.0884   -9.5640 N   0  0  0  0  0  0  0  0  0  0  0  0
   27.1117  -20.4881   -8.3097 C   0  0  1  0  0  0  0  0  0  0  0  0
   27.8167  -19.2326   -7.7885 C   0  0  0  0  0  0  0  0  0  0  0  0
   28.3250  -19.3724   -6.4236 C   0  0  0  0  0  0  0  0  0  0  0  0
   29.5118  -20.0468   -6.2187 C   0  0  0  0  0  0  0  0  0  0  0  0
   30.0574  -20.2197   -4.9802 C   0  0  0  0  0  0  0  0  0  0  0  0
   29.3918  -19.6967   -3.8857 C   0  0  0  0  0  0  0  0  0  0  0  0
   28.1972  -19.0182   -4.0939 C   0  0  0  0  0  0  0  0  0  0  0  0
   27.6552  -18.8491   -5.3474 C   0  0  0  0  0  0  0  0  0  0  0  0
   26.0569  -20.9250   -7.3817 C   0  0  0  0  0  0  0  0  0  0  0  0
   24.8529  -20.5802   -7.4284 O   0  0  0  0  0  0  0  0  0  0  0  0
   26.3965  -21.8068   -6.3413 O   0  0  0  0  0  0  0  0  0  0  0  0
  1  2  1  0
  3  2  1  0
  4  3  1  0
  5  4  1  0
  5  6  1  6
  7  8  2  0
  7  5  1  0
  9  7  1  0
 10  9  1  0
 10 11  1  6
 11 12  1  0
 12 20  1  0
 12 13  2  0
 13 14  1  0
 15 16  2  0
 15 14  1  0
 17 16  1  0
 18 17  2  0
 19 18  1  0
 19 20  2  0
 20 15  1  0
 21 10  1  0
 22 21  2  0
 23 21  1  0
 24 23  1  0
 24 25  1  1
 25 26  1  0
 26 31  1  0
 27 26  2  0
 27 28  1  0
 28 29  2  0
 29 30  1  0
 31 30  2  0
 32 34  1  0
 32 24  1  0
 33 32  2  0
M  END
$$$$
