MWF.pdb
     RDKit          3D

 34 36  0  0  1  0  0  0  0  0999 V2000
   22.2803  -18.7480  -18.9342 C   0  0  0  0  0  0  0  0  0  0  0  0
   23.4748  -17.7609  -19.8410 S   0  0  0  0  0  0  0  0  0  0  0  0
   25.1172  -18.5402  -19.6744 C   0  0  0  0  0  0  0  0  0  0  0  0
   25.6251  -18.1573  -18.2894 C   0  0  0  0  0  0  0  0  0  0  0  0
   26.8477  -18.9710  -17.9538 C   0  0  2  0  0  0  0  0  0  0  0  0
   27.2011  -19.9048  -18.9756 N   0  0  0  0  0  0  0  0  0  0  0  0
   26.5957  -19.6806  -16.6771 C   0  0  0  0  0  0  0  0  0  0  0  0
   25.9786  -20.7847  -16.7004 O   0  0  0  0  0  0  0  0  0  0  0  0
   26.9922  -19.2243  -15.4027 N   0  0  0  0  0  0  0  0  0  0  0  0
   26.6819  -19.9573  -14.1917 C   0  0  1  0  0  0  0  0  0  0  0  0
   27.6625  -19.6752  -13.1047 C   0  0  0  0  0  0  0  0  0  0  0  0
   27.5789  -20.5049  -11.9083 C   0  0  0  0  0  0  0  0  0  0  0  0
   28.0764  -21.8230  -11.7793 C   0  0  0  0  0  0  0  0  0  0  0  0
   27.8727  -22.2813  -10.5515 N   0  0  0  0  0  0  0  0  0  0  0  0
   27.2591  -21.3161   -9.8661 C   0  0  0  0  0  0  0  0  0  0  0  0
   26.8096  -21.2522   -8.5642 C   0  0  0  0  0  0  0  0  0  0  0  0
   26.1824  -20.1332   -8.0640 C   0  0  0  0  0  0  0  0  0  0  0  0
   25.9856  -19.0230   -8.8779 C   0  0  0  0  0  0  0  0  0  0  0  0
   26.4360  -19.0980  -10.1673 C   0  0  0  0  0  0  0  0  0  0  0  0
   27.0658  -20.2128  -10.6771 C   0  0  0  0  0  0  0  0  0  0  0  0
   25.2876  -19.7967  -13.8105 C   0  0  0  0  0  0  0  0  0  0  0  0
   24.7613  -18.6574  -13.7608 O   0  0  0  0  0  0  0  0  0  0  0  0
   24.4696  -20.9130  -13.4904 N   0  0  0  0  0  0  0  0  0  0  0  0
   23.0990  -20.8116  -13.0255 C   0  0  1  0  0  0  0  0  0  0  0  0
   22.4735  -22.1779  -13.3203 C   0  0  0  0  0  0  0  0  0  0  0  0
   21.0719  -22.2787  -12.9125 C   0  0  0  0  0  0  0  0  0  0  0  0
   20.0926  -21.8122  -13.7662 C   0  0  0  0  0  0  0  0  0  0  0  0
   18.7632  -21.8706  -13.4654 C   0  0  0  0  0  0  0  0  0  0  0  0
   18.3829  -22.4205  -12.2539 C   0  0  0  0  0  0  0  0  0  0  0  0
   19.3701  -22.8894  -11.3958 C   0  0  0  0  0  0  0  0  0  0  0  0
   20.7086  -22.8260  -11.7086 C   0  0  0  0  0  0  0  0  0  0  0  0
   23.1023  -20.5332  -11.5809 C   0  0  0  0  0  0  0  0  0  0  0  0
   22.2936  -19.7898  -10.9775 O   0  0  0  0  0  0  0  0  0  0  0  0
   24.0850  -21.1389  -10.7792 O   0  0  0  0  0  0  0  0  0  0  0  0
  1  2  1  0
  3  2  1  0
  4  3  1  0
  5  4  1  0
  5  6  1  6
  7  8  2  0
  7  5  1  0
  9  7  1  0
 10  9  1  0
 10 11  1  1
 11 12  1  0
 12 20  1  0
 12 13  2  0
 13 14  1  0
 15 16  2  0
 15 14  1  0
 17 16  1  0
 18 17  2  0
 19 18  1  0
 19 20  2  0
 20 15  1  0
 21 10  1  0
 22 21  2  0
 23 21  1  0
 24 23  1  0
 24 25  1  1
 25 26  1  0
 26 31  1  0
 27 26  2  0
 27 28  1  0
 28 29  2  0
 29 30  1  0
 31 30  2  0
 32 34  1  0
 32 24  1  0
 33 32  2  0
M  END
$$$$
