MWF.pdb
     RDKit          3D

 34 36  0  0  1  0  0  0  0  0999 V2000
   29.7071  -27.4354  -18.7355 C   0  0  0  0  0  0  0  0  0  0  0  0
   29.1154  -25.9369  -17.9431 S   0  0  0  0  0  0  0  0  0  0  0  0
   30.5558  -24.9943  -17.3354 C   0  0  0  0  0  0  0  0  0  0  0  0
   29.9876  -23.7792  -16.6118 C   0  0  0  0  0  0  0  0  0  0  0  0
   29.1179  -22.9880  -17.5536 C   0  0  2  0  0  0  0  0  0  0  0  0
   29.8645  -22.1988  -18.4814 N   0  0  0  0  0  0  0  0  0  0  0  0
   28.2280  -22.1215  -16.7448 C   0  0  0  0  0  0  0  0  0  0  0  0
   28.7263  -21.1354  -16.1288 O   0  0  0  0  0  0  0  0  0  0  0  0
   26.8371  -22.3014  -16.5948 N   0  0  0  0  0  0  0  0  0  0  0  0
   26.0202  -21.3819  -15.8283 C   0  0  1  0  0  0  0  0  0  0  0  0
   24.7063  -21.1262  -16.4848 C   0  0  0  0  0  0  0  0  0  0  0  0
   23.7695  -20.2641  -15.7734 C   0  0  0  0  0  0  0  0  0  0  0  0
   23.9285  -18.8762  -15.5500 C   0  0  0  0  0  0  0  0  0  0  0  0
   22.8797  -18.3835  -14.9048 N   0  0  0  0  0  0  0  0  0  0  0  0
   22.0354  -19.3937  -14.6934 C   0  0  0  0  0  0  0  0  0  0  0  0
   20.8077  -19.4543  -14.0690 C   0  0  0  0  0  0  0  0  0  0  0  0
   20.1046  -20.6328  -13.9569 C   0  0  0  0  0  0  0  0  0  0  0  0
   20.6291  -21.8090  -14.4814 C   0  0  0  0  0  0  0  0  0  0  0  0
   21.8476  -21.7364  -15.0987 C   0  0  0  0  0  0  0  0  0  0  0  0
   22.5586  -20.5618  -15.2170 C   0  0  0  0  0  0  0  0  0  0  0  0
   25.9360  -21.7769  -14.4311 C   0  0  0  0  0  0  0  0  0  0  0  0
   25.7782  -22.9812  -14.1113 O   0  0  0  0  0  0  0  0  0  0  0  0
   26.0367  -20.8259  -13.3808 N   0  0  0  0  0  0  0  0  0  0  0  0
   25.8058  -21.1306  -11.9813 C   0  0  1  0  0  0  0  0  0  0  0  0
   27.1029  -20.7408  -11.2668 C   0  0  0  0  0  0  0  0  0  0  0  0
   26.9320  -20.5070   -9.8326 C   0  0  0  0  0  0  0  0  0  0  0  0
   25.6716  -20.6246   -9.2822 C   0  0  0  0  0  0  0  0  0  0  0  0
   25.4251  -20.4267   -7.9550 C   0  0  0  0  0  0  0  0  0  0  0  0
   26.4837  -20.0944   -7.1283 C   0  0  0  0  0  0  0  0  0  0  0  0
   27.7517  -19.9764   -7.6841 C   0  0  0  0  0  0  0  0  0  0  0  0
   27.9900  -20.1781   -9.0243 C   0  0  0  0  0  0  0  0  0  0  0  0
   24.6736  -20.3262  -11.4961 C   0  0  0  0  0  0  0  0  0  0  0  0
   24.4650  -19.1200  -11.7650 O   0  0  0  0  0  0  0  0  0  0  0  0
   23.7247  -20.9343  -10.6563 O   0  0  0  0  0  0  0  0  0  0  0  0
  1  2  1  0
  3  2  1  0
  4  3  1  0
  5  4  1  0
  5  6  1  6
  7  8  2  0
  7  5  1  0
  9  7  1  0
 10  9  1  0
 10 11  1  6
 11 12  1  0
 12 20  1  0
 12 13  2  0
 13 14  1  0
 15 16  2  0
 15 14  1  0
 17 16  1  0
 18 17  2  0
 19 18  1  0
 19 20  2  0
 20 15  1  0
 21 10  1  0
 22 21  2  0
 23 21  1  0
 24 23  1  0
 24 25  1  1
 25 26  1  0
 26 31  1  0
 27 26  2  0
 27 28  1  0
 28 29  2  0
 29 30  1  0
 31 30  2  0
 32 34  1  0
 32 24  1  0
 33 32  2  0
M  END
$$$$
