MWF.pdb
     RDKit          3D

 34 36  0  0  1  0  0  0  0  0999 V2000
   30.7242  -25.7692  -16.3061 C   0  0  0  0  0  0  0  0  0  0  0  0
   29.0747  -26.4625  -16.1581 S   0  0  0  0  0  0  0  0  0  0  0  0
   27.9740  -25.5959  -17.3287 C   0  0  0  0  0  0  0  0  0  0  0  0
   27.3877  -24.4177  -16.5600 C   0  0  0  0  0  0  0  0  0  0  0  0
   27.6336  -23.1414  -17.3215 C   0  0  2  0  0  0  0  0  0  0  0  0
   28.9944  -22.7091  -17.2723 N   0  0  0  0  0  0  0  0  0  0  0  0
   26.7435  -22.0932  -16.7686 C   0  0  0  0  0  0  0  0  0  0  0  0
   27.1861  -21.3268  -15.8647 O   0  0  0  0  0  0  0  0  0  0  0  0
   25.4103  -21.8659  -17.1694 N   0  0  0  0  0  0  0  0  0  0  0  0
   24.6118  -20.7921  -16.6132 C   0  0  1  0  0  0  0  0  0  0  0  0
   23.6172  -20.2733  -17.5953 C   0  0  0  0  0  0  0  0  0  0  0  0
   22.7621  -19.1778  -17.1530 C   0  0  0  0  0  0  0  0  0  0  0  0
   23.2060  -17.9149  -16.6952 C   0  0  0  0  0  0  0  0  0  0  0  0
   22.1742  -17.1335  -16.4058 N   0  0  0  0  0  0  0  0  0  0  0  0
   21.0667  -17.8332  -16.6545 C   0  0  0  0  0  0  0  0  0  0  0  0
   19.7300  -17.5206  -16.5261 C   0  0  0  0  0  0  0  0  0  0  0  0
   18.7375  -18.4221  -16.8395 C   0  0  0  0  0  0  0  0  0  0  0  0
   19.0699  -19.6910  -17.3010 C   0  0  0  0  0  0  0  0  0  0  0  0
   20.3990  -19.9895  -17.4245 C   0  0  0  0  0  0  0  0  0  0  0  0
   21.3997  -19.0941  -17.1145 C   0  0  0  0  0  0  0  0  0  0  0  0
   24.0573  -21.1521  -15.3177 C   0  0  0  0  0  0  0  0  0  0  0  0
   23.6910  -22.3296  -15.0794 O   0  0  0  0  0  0  0  0  0  0  0  0
   23.9173  -20.1967  -14.2760 N   0  0  0  0  0  0  0  0  0  0  0  0
   23.4675  -20.5152  -12.9339 C   0  0  1  0  0  0  0  0  0  0  0  0
   24.4099  -19.7477  -12.0024 C   0  0  0  0  0  0  0  0  0  0  0  0
   25.7891  -20.2349  -12.0363 C   0  0  0  0  0  0  0  0  0  0  0  0
   26.6943  -19.6195  -12.8773 C   0  0  0  0  0  0  0  0  0  0  0  0
   27.9989  -20.0085  -12.9680 C   0  0  0  0  0  0  0  0  0  0  0  0
   28.4302  -21.0639  -12.1839 C   0  0  0  0  0  0  0  0  0  0  0  0
   27.5175  -21.6822  -11.3381 C   0  0  0  0  0  0  0  0  0  0  0  0
   26.2036  -21.2821  -11.2537 C   0  0  0  0  0  0  0  0  0  0  0  0
   22.0784  -20.0582  -12.7730 C   0  0  0  0  0  0  0  0  0  0  0  0
   21.5128  -19.1795  -13.4648 O   0  0  0  0  0  0  0  0  0  0  0  0
   21.2896  -20.6386  -11.7648 O   0  0  0  0  0  0  0  0  0  0  0  0
  1  2  1  0
  3  2  1  0
  4  3  1  0
  5  4  1  0
  5  6  1  1
  7  8  2  0
  7  5  1  0
  9  7  1  0
 10  9  1  0
 10 11  1  6
 11 12  1  0
 12 20  1  0
 12 13  2  0
 13 14  1  0
 15 16  2  0
 15 14  1  0
 17 16  1  0
 18 17  2  0
 19 18  1  0
 19 20  2  0
 20 15  1  0
 21 10  1  0
 22 21  2  0
 23 21  1  0
 24 23  1  0
 24 25  1  1
 25 26  1  0
 26 31  1  0
 27 26  2  0
 27 28  1  0
 28 29  2  0
 29 30  1  0
 31 30  2  0
 32 34  1  0
 32 24  1  0
 33 32  2  0
M  END
$$$$
