MWF.pdb
     RDKit          3D

 34 36  0  0  1  0  0  0  0  0999 V2000
   33.6327  -23.4940   -8.4447 C   0  0  0  0  0  0  0  0  0  0  0  0
   34.5177  -23.0052   -9.9284 S   0  0  0  0  0  0  0  0  0  0  0  0
   33.4318  -23.2821  -11.3695 C   0  0  0  0  0  0  0  0  0  0  0  0
   32.2481  -22.3388  -11.1907 C   0  0  0  0  0  0  0  0  0  0  0  0
   31.2439  -22.5698  -12.2896 C   0  0  2  0  0  0  0  0  0  0  0  0
   31.7675  -22.3151  -13.5942 N   0  0  0  0  0  0  0  0  0  0  0  0
   30.0683  -21.7047  -12.0322 C   0  0  0  0  0  0  0  0  0  0  0  0
   30.2064  -20.6849  -11.2965 O   0  0  0  0  0  0  0  0  0  0  0  0
   28.7729  -21.9209  -12.5470 N   0  0  0  0  0  0  0  0  0  0  0  0
   27.6791  -21.0064  -12.2879 C   0  0  1  0  0  0  0  0  0  0  0  0
   26.7605  -20.8935  -13.4568 C   0  0  0  0  0  0  0  0  0  0  0  0
   25.6467  -19.9602  -13.3336 C   0  0  0  0  0  0  0  0  0  0  0  0
   25.7469  -18.5490  -13.3259 C   0  0  0  0  0  0  0  0  0  0  0  0
   24.5448  -17.9956  -13.2376 N   0  0  0  0  0  0  0  0  0  0  0  0
   23.6557  -18.9879  -13.1859 C   0  0  0  0  0  0  0  0  0  0  0  0
   22.2808  -18.9899  -13.0836 C   0  0  0  0  0  0  0  0  0  0  0  0
   21.5553  -20.1593  -13.0362 C   0  0  0  0  0  0  0  0  0  0  0  0
   22.2077  -21.3861  -13.0916 C   0  0  0  0  0  0  0  0  0  0  0  0
   23.5717  -21.3714  -13.1933 C   0  0  0  0  0  0  0  0  0  0  0  0
   24.3067  -20.2067  -13.2425 C   0  0  0  0  0  0  0  0  0  0  0  0
   27.0226  -21.3004  -11.0239 C   0  0  0  0  0  0  0  0  0  0  0  0
   26.8673  -22.4862  -10.6401 O   0  0  0  0  0  0  0  0  0  0  0  0
   26.5426  -20.2671  -10.1757 N   0  0  0  0  0  0  0  0  0  0  0  0
   25.8652  -20.4981   -8.9137 C   0  0  1  0  0  0  0  0  0  0  0  0
   26.1752  -19.2648   -8.0605 C   0  0  0  0  0  0  0  0  0  0  0  0
   27.0933  -19.5360   -6.9540 C   0  0  0  0  0  0  0  0  0  0  0  0
   26.8960  -20.6642   -6.1836 C   0  0  0  0  0  0  0  0  0  0  0  0
   27.7062  -20.9929   -5.1363 C   0  0  0  0  0  0  0  0  0  0  0  0
   28.7690  -20.1593   -4.8356 C   0  0  0  0  0  0  0  0  0  0  0  0
   28.9660  -19.0241   -5.6122 C   0  0  0  0  0  0  0  0  0  0  0  0
   28.1430  -18.7014   -6.6667 C   0  0  0  0  0  0  0  0  0  0  0  0
   24.4200  -20.6194   -9.1608 C   0  0  0  0  0  0  0  0  0  0  0  0
   23.7874  -20.0631  -10.0887 O   0  0  0  0  0  0  0  0  0  0  0  0
   23.6533  -21.4228   -8.2993 O   0  0  0  0  0  0  0  0  0  0  0  0
  1  2  1  0
  3  2  1  0
  4  3  1  0
  5  4  1  0
  5  6  1  6
  7  8  2  0
  7  5  1  0
  9  7  1  0
 10  9  1  0
 10 11  1  6
 11 12  1  0
 12 20  1  0
 12 13  2  0
 13 14  1  0
 15 16  2  0
 15 14  1  0
 17 16  1  0
 18 17  2  0
 19 18  1  0
 19 20  2  0
 20 15  1  0
 21 10  1  0
 22 21  2  0
 23 21  1  0
 24 23  1  0
 24 25  1  1
 25 26  1  0
 26 31  1  0
 27 26  2  0
 27 28  1  0
 28 29  2  0
 29 30  1  0
 31 30  2  0
 32 34  1  0
 32 24  1  0
 33 32  2  0
M  END
$$$$
