TGE.pdb
     RDKit          3D

 21 20  0  0  1  0  0  0  0  0999 V2000
    7.1828  -12.0148   19.2962 C   0  0  0  0  0  0  0  0  0  0  0  0
    8.1814  -13.1213   19.5678 C   0  0  1  0  0  0  0  0  0  0  0  0
    8.8521  -12.9627   20.7502 O   0  0  0  0  0  0  0  0  0  0  0  0
    7.5380  -14.4821   19.4899 C   0  0  2  0  0  0  0  0  0  0  0  0
    6.5549  -14.6422   20.5523 N   0  0  0  0  0  0  0  0  0  0  0  0
    8.4785  -15.6044   19.6024 C   0  0  0  0  0  0  0  0  0  0  0  0
    9.3476  -15.8741   18.7240 O   0  0  0  0  0  0  0  0  0  0  0  0
    8.4294  -16.4428   20.7467 N   0  0  0  0  0  0  0  0  0  0  0  0
    9.3835  -17.5158   20.9062 C   0  0  0  0  0  0  0  0  0  0  0  0
   10.4633  -17.2526   21.8565 C   0  0  0  0  0  0  0  0  0  0  0  0
   10.9868  -16.0799   21.8160 O   0  0  0  0  0  0  0  0  0  0  0  0
   10.9739  -18.1609   22.7974 N   0  0  0  0  0  0  0  0  0  0  0  0
   11.9342  -17.7236   23.8417 C   0  0  1  0  0  0  0  0  0  0  0  0
   11.6247  -18.4893   25.0965 C   0  0  0  0  0  0  0  0  0  0  0  0
   12.5132  -18.0557   26.2308 C   0  0  0  0  0  0  0  0  0  0  0  0
   12.2521  -18.8654   27.4565 C   0  0  0  0  0  0  0  0  0  0  0  0
   11.3326  -19.7143   27.4819 O   0  0  0  0  0  0  0  0  0  0  0  0
   13.3001  -17.9531   23.3203 C   0  0  0  0  0  0  0  0  0  0  0  0
   14.2833  -17.4038   23.9359 O   0  0  0  0  0  0  0  0  0  0  0  0
   13.0280  -18.6798   28.5724 O   0  0  0  0  0  0  0  0  0  0  0  0
   13.6202  -18.7155   22.2192 O   0  0  0  0  0  0  0  0  0  0  0  0
  2  1  1  1
  2  3  1  0
  4  2  1  0
  4  5  1  1
  6  4  1  0
  7  6  2  0
  8  6  1  0
  9 10  1  0
  9  8  1  0
 10 12  1  0
 11 10  2  0
 12 13  1  0
 13 18  1  0
 13 14  1  1
 15 14  1  0
 16 15  1  0
 17 16  2  0
 18 21  1  0
 19 18  2  0
 20 16  1  0
M  END
$$$$
