TGE.pdb
     RDKit          3D

 21 20  0  0  1  0  0  0  0  0999 V2000
    9.7681  -16.3636   16.2221 C   0  0  0  0  0  0  0  0  0  0  0  0
    9.0969  -16.0123   17.5341 C   0  0  1  0  0  0  0  0  0  0  0  0
    9.9441  -16.0794   18.6069 O   0  0  0  0  0  0  0  0  0  0  0  0
    8.4146  -14.6700   17.4675 C   0  0  2  0  0  0  0  0  0  0  0  0
    9.3727  -13.6282   17.1250 N   0  0  0  0  0  0  0  0  0  0  0  0
    7.7622  -14.2593   18.7175 C   0  0  0  0  0  0  0  0  0  0  0  0
    6.8286  -14.9156   19.2629 O   0  0  0  0  0  0  0  0  0  0  0  0
    8.1842  -13.0691   19.3656 N   0  0  0  0  0  0  0  0  0  0  0  0
    7.5863  -12.6695   20.6185 C   0  0  0  0  0  0  0  0  0  0  0  0
    8.0193  -13.4347   21.7870 C   0  0  0  0  0  0  0  0  0  0  0  0
    7.6049  -13.0167   22.9292 O   0  0  0  0  0  0  0  0  0  0  0  0
    8.8416  -14.5723   21.7697 N   0  0  0  0  0  0  0  0  0  0  0  0
    9.1416  -15.3199   23.0167 C   0  0  1  0  0  0  0  0  0  0  0  0
    8.5155  -16.6801   22.8959 C   0  0  0  0  0  0  0  0  0  0  0  0
    7.0249  -16.6115   23.0897 C   0  0  0  0  0  0  0  0  0  0  0  0
    6.4001  -17.9563   22.9262 C   0  0  0  0  0  0  0  0  0  0  0  0
    7.0994  -18.9632   22.6731 O   0  0  0  0  0  0  0  0  0  0  0  0
   10.6122  -15.3488   23.1803 C   0  0  0  0  0  0  0  0  0  0  0  0
   11.3399  -15.0330   22.1713 O   0  0  0  0  0  0  0  0  0  0  0  0
    5.0414  -18.0953   23.0541 O   0  0  0  0  0  0  0  0  0  0  0  0
   11.2840  -15.6865   24.3338 O   0  0  0  0  0  0  0  0  0  0  0  0
  2  1  1  6
  2  3  1  0
  4  2  1  0
  4  5  1  1
  6  4  1  0
  7  6  2  0
  8  6  1  0
  9 10  1  0
  9  8  1  0
 10 12  1  0
 11 10  2  0
 12 13  1  0
 13 18  1  0
 13 14  1  6
 15 14  1  0
 16 15  1  0
 17 16  2  0
 18 21  1  0
 19 18  2  0
 20 16  1  0
M  END
$$$$
