TGE.pdb
     RDKit          3D

 21 20  0  0  1  0  0  0  0  0999 V2000
    8.1176  -12.2605   18.8954 C   0  0  0  0  0  0  0  0  0  0  0  0
    7.9472  -13.6436   18.3012 C   0  0  1  0  0  0  0  0  0  0  0  0
    8.2921  -13.7073   16.9783 O   0  0  0  0  0  0  0  0  0  0  0  0
    8.6829  -14.6872   19.1021 C   0  0  2  0  0  0  0  0  0  0  0  0
    8.3273  -16.0236   18.6459 N   0  0  0  0  0  0  0  0  0  0  0  0
    8.4176  -14.6415   20.5458 C   0  0  0  0  0  0  0  0  0  0  0  0
    8.7933  -13.6921   21.2922 O   0  0  0  0  0  0  0  0  0  0  0  0
    7.7040  -15.7053   21.1573 N   0  0  0  0  0  0  0  0  0  0  0  0
    7.4141  -15.6707   22.5722 C   0  0  0  0  0  0  0  0  0  0  0  0
    8.5802  -15.7684   23.4491 C   0  0  0  0  0  0  0  0  0  0  0  0
    9.7180  -15.9206   22.8719 O   0  0  0  0  0  0  0  0  0  0  0  0
    8.5645  -15.7136   24.8518 N   0  0  0  0  0  0  0  0  0  0  0  0
    9.8214  -15.8062   25.6364 C   0  0  1  0  0  0  0  0  0  0  0  0
    9.5528  -15.2334   26.9989 C   0  0  0  0  0  0  0  0  0  0  0  0
   10.7594  -15.3597   27.8890 C   0  0  0  0  0  0  0  0  0  0  0  0
   10.4989  -14.7673   29.2333 C   0  0  0  0  0  0  0  0  0  0  0  0
    9.4076  -14.2101   29.4893 O   0  0  0  0  0  0  0  0  0  0  0  0
   10.2363  -17.2267   25.6539 C   0  0  0  0  0  0  0  0  0  0  0  0
   11.4893  -17.4903   25.7413 O   0  0  0  0  0  0  0  0  0  0  0  0
   11.4656  -14.8323   30.2044 O   0  0  0  0  0  0  0  0  0  0  0  0
    9.3892  -18.3102   25.5861 O   0  0  0  0  0  0  0  0  0  0  0  0
  2  1  1  1
  2  3  1  0
  4  2  1  0
  4  5  1  6
  6  4  1  0
  7  6  2  0
  8  6  1  0
  9 10  1  0
  9  8  1  0
 10 12  1  0
 11 10  2  0
 12 13  1  0
 13 18  1  0
 13 14  1  1
 15 14  1  0
 16 15  1  0
 17 16  2  0
 18 21  1  0
 19 18  2  0
 20 16  1  0
M  END
$$$$
