TGE.pdb
     RDKit          3D

 21 20  0  0  1  0  0  0  0  0999 V2000
    9.7335  -17.6836   17.2056 C   0  0  0  0  0  0  0  0  0  0  0  0
    8.3043  -17.2523   17.4639 C   0  0  1  0  0  0  0  0  0  0  0  0
    7.4208  -17.7342   16.5364 O   0  0  0  0  0  0  0  0  0  0  0  0
    7.8629  -17.6001   18.8624 C   0  0  2  0  0  0  0  0  0  0  0  0
    6.4516  -17.2893   19.0430 N   0  0  0  0  0  0  0  0  0  0  0  0
    8.5966  -16.8964   19.9221 C   0  0  0  0  0  0  0  0  0  0  0  0
    9.8497  -16.9792   20.0731 O   0  0  0  0  0  0  0  0  0  0  0  0
    7.8851  -16.0749   20.8351 N   0  0  0  0  0  0  0  0  0  0  0  0
    8.5971  -15.2834   21.8117 C   0  0  0  0  0  0  0  0  0  0  0  0
    9.3904  -16.0475   22.7735 C   0  0  0  0  0  0  0  0  0  0  0  0
    8.9377  -17.2063   23.0950 O   0  0  0  0  0  0  0  0  0  0  0  0
   10.5894  -15.6286   23.3717 N   0  0  0  0  0  0  0  0  0  0  0  0
   11.3419  -16.5223   24.2877 C   0  0  1  0  0  0  0  0  0  0  0  0
   12.7932  -16.1435   24.2056 C   0  0  0  0  0  0  0  0  0  0  0  0
   13.3674  -16.4805   22.8563 C   0  0  0  0  0  0  0  0  0  0  0  0
   14.8171  -16.1346   22.7884 C   0  0  0  0  0  0  0  0  0  0  0  0
   15.3949  -15.5947   23.7588 O   0  0  0  0  0  0  0  0  0  0  0  0
   10.7585  -16.3738   25.6397 C   0  0  0  0  0  0  0  0  0  0  0  0
    9.9945  -15.3668   25.8621 O   0  0  0  0  0  0  0  0  0  0  0  0
   15.5298  -16.4105   21.6493 O   0  0  0  0  0  0  0  0  0  0  0  0
   10.9607  -17.2306   26.6985 O   0  0  0  0  0  0  0  0  0  0  0  0
  2  1  1  6
  2  3  1  0
  4  2  1  0
  4  5  1  6
  6  4  1  0
  7  6  2  0
  8  6  1  0
  9 10  1  0
  9  8  1  0
 10 12  1  0
 11 10  2  0
 12 13  1  0
 13 18  1  0
 13 14  1  1
 15 14  1  0
 16 15  1  0
 17 16  2  0
 18 21  1  0
 19 18  2  0
 20 16  1  0
M  END
$$$$
