TGE.pdb
     RDKit          3D

 21 20  0  0  1  0  0  0  0  0999 V2000
    6.4143  -18.4316   17.9776 C   0  0  0  0  0  0  0  0  0  0  0  0
    7.3432  -18.0095   19.0975 C   0  0  1  0  0  0  0  0  0  0  0  0
    8.2924  -18.9503   19.3927 O   0  0  0  0  0  0  0  0  0  0  0  0
    7.9774  -16.6710   18.8189 C   0  0  2  0  0  0  0  0  0  0  0  0
    8.6826  -16.6968   17.5450 N   0  0  0  0  0  0  0  0  0  0  0  0
    8.9433  -16.2347   19.8355 C   0  0  0  0  0  0  0  0  0  0  0  0
   10.1965  -16.3016   19.6781 O   0  0  0  0  0  0  0  0  0  0  0  0
    8.4703  -15.7069   21.0653 N   0  0  0  0  0  0  0  0  0  0  0  0
    9.4027  -15.2486   22.0692 C   0  0  0  0  0  0  0  0  0  0  0  0
   10.1436  -16.3041   22.7588 C   0  0  0  0  0  0  0  0  0  0  0  0
    9.8364  -17.5129   22.4500 O   0  0  0  0  0  0  0  0  0  0  0  0
   11.1485  -16.1135   23.7203 N   0  0  0  0  0  0  0  0  0  0  0  0
   11.8257  -17.2692   24.3603 C   0  0  1  0  0  0  0  0  0  0  0  0
   13.2824  -17.2023   23.9997 C   0  0  0  0  0  0  0  0  0  0  0  0
   13.6818  -15.8053   23.6086 C   0  0  0  0  0  0  0  0  0  0  0  0
   15.1114  -15.7547   23.1846 C   0  0  0  0  0  0  0  0  0  0  0  0
   16.0256  -16.1054   23.9644 O   0  0  0  0  0  0  0  0  0  0  0  0
   11.5637  -17.1941   25.8150 C   0  0  0  0  0  0  0  0  0  0  0  0
   12.0598  -18.1079   26.5674 O   0  0  0  0  0  0  0  0  0  0  0  0
   15.4322  -15.3187   21.9241 O   0  0  0  0  0  0  0  0  0  0  0  0
   10.8268  -16.2179   26.4475 O   0  0  0  0  0  0  0  0  0  0  0  0
  2  1  1  6
  2  3  1  0
  4  2  1  0
  4  5  1  6
  6  4  1  0
  7  6  2  0
  8  6  1  0
  9 10  1  0
  9  8  1  0
 10 12  1  0
 11 10  2  0
 12 13  1  0
 13 18  1  0
 13 14  1  1
 15 14  1  0
 16 15  1  0
 17 16  2  0
 18 21  1  0
 19 18  2  0
 20 16  1  0
M  END
$$$$
