TGE.pdb
     RDKit          3D

 21 20  0  0  1  0  0  0  0  0999 V2000
   10.8762  -13.2447   19.3794 C   0  0  0  0  0  0  0  0  0  0  0  0
    9.4909  -12.6336   19.4308 C   0  0  1  0  0  0  0  0  0  0  0  0
    9.3285  -11.5940   18.5557 O   0  0  0  0  0  0  0  0  0  0  0  0
    8.4170  -13.6737   19.2395 C   0  0  2  0  0  0  0  0  0  0  0  0
    7.1002  -13.0520   19.2390 N   0  0  0  0  0  0  0  0  0  0  0  0
    8.3972  -14.7207   20.2691 C   0  0  0  0  0  0  0  0  0  0  0  0
    7.7128  -14.6401   21.3298 O   0  0  0  0  0  0  0  0  0  0  0  0
    9.1770  -15.8925   20.0867 N   0  0  0  0  0  0  0  0  0  0  0  0
    9.1382  -16.9543   21.0657 C   0  0  0  0  0  0  0  0  0  0  0  0
   10.1687  -16.8847   22.1008 C   0  0  0  0  0  0  0  0  0  0  0  0
   11.1239  -16.0490   21.9006 O   0  0  0  0  0  0  0  0  0  0  0  0
   10.2061  -17.6452   23.2802 N   0  0  0  0  0  0  0  0  0  0  0  0
   11.2744  -17.4403   24.2905 C   0  0  1  0  0  0  0  0  0  0  0  0
   10.9688  -18.3259   25.4647 C   0  0  0  0  0  0  0  0  0  0  0  0
   12.0794  -18.2860   26.4792 C   0  0  0  0  0  0  0  0  0  0  0  0
   11.7993  -19.2082   27.6180 C   0  0  0  0  0  0  0  0  0  0  0  0
   10.7350  -19.8655   27.6657 O   0  0  0  0  0  0  0  0  0  0  0  0
   12.5707  -17.7335   23.6392 C   0  0  0  0  0  0  0  0  0  0  0  0
   12.5895  -18.5967   22.6896 O   0  0  0  0  0  0  0  0  0  0  0  0
   12.7179  -19.3404   28.6282 O   0  0  0  0  0  0  0  0  0  0  0  0
   13.7783  -17.1555   23.9609 O   0  0  0  0  0  0  0  0  0  0  0  0
  2  1  1  6
  2  3  1  0
  4  2  1  0
  4  5  1  1
  6  4  1  0
  7  6  2  0
  8  6  1  0
  9 10  1  0
  9  8  1  0
 10 12  1  0
 11 10  2  0
 12 13  1  0
 13 18  1  0
 13 14  1  1
 15 14  1  0
 16 15  1  0
 17 16  2  0
 18 21  1  0
 19 18  2  0
 20 16  1  0
M  END
$$$$
