TGE.pdb
     RDKit          3D

 21 20  0  0  1  0  0  0  0  0999 V2000
    4.3651  -18.5383   21.2259 C   0  0  0  0  0  0  0  0  0  0  0  0
    5.5777  -18.7410   20.3406 C   0  0  1  0  0  0  0  0  0  0  0  0
    5.4146  -19.7464   19.4264 O   0  0  0  0  0  0  0  0  0  0  0  0
    5.9936  -17.4592   19.6656 C   0  0  2  0  0  0  0  0  0  0  0  0
    6.9253  -17.7340   18.5806 N   0  0  0  0  0  0  0  0  0  0  0  0
    6.6449  -16.4894   20.5555 C   0  0  0  0  0  0  0  0  0  0  0  0
    7.8957  -16.4434   20.7375 O   0  0  0  0  0  0  0  0  0  0  0  0
    5.8512  -15.5450   21.2574 N   0  0  0  0  0  0  0  0  0  0  0  0
    6.4724  -14.5728   22.1271 C   0  0  0  0  0  0  0  0  0  0  0  0
    6.9685  -15.1010   23.3973 C   0  0  0  0  0  0  0  0  0  0  0  0
    7.3923  -14.2371   24.2487 O   0  0  0  0  0  0  0  0  0  0  0  0
    7.0237  -16.4554   23.7623 N   0  0  0  0  0  0  0  0  0  0  0  0
    7.4972  -16.8678   25.1075 C   0  0  1  0  0  0  0  0  0  0  0  0
    7.1374  -18.3141   25.2951 C   0  0  0  0  0  0  0  0  0  0  0  0
    5.8022  -18.6267   24.6756 C   0  0  0  0  0  0  0  0  0  0  0  0
    5.4979  -20.0847   24.7638 C   0  0  0  0  0  0  0  0  0  0  0  0
    6.2842  -20.8715   25.3379 O   0  0  0  0  0  0  0  0  0  0  0  0
    8.9508  -16.5977   25.1743 C   0  0  0  0  0  0  0  0  0  0  0  0
    9.5866  -16.4298   24.0720 O   0  0  0  0  0  0  0  0  0  0  0  0
    4.3422  -20.5732   24.2095 O   0  0  0  0  0  0  0  0  0  0  0  0
    9.6970  -16.5061   26.3279 O   0  0  0  0  0  0  0  0  0  0  0  0
  2  1  1  6
  2  3  1  0
  4  2  1  0
  4  5  1  6
  6  4  1  0
  7  6  2  0
  8  6  1  0
  9 10  1  0
  9  8  1  0
 10 12  1  0
 11 10  2  0
 12 13  1  0
 13 18  1  0
 13 14  1  6
 15 14  1  0
 16 15  1  0
 17 16  2  0
 18 21  1  0
 19 18  2  0
 20 16  1  0
M  END
$$$$
