TGE.pdb
     RDKit          3D

 21 20  0  0  1  0  0  0  0  0999 V2000
    6.6783  -21.1255   15.7978 C   0  0  0  0  0  0  0  0  0  0  0  0
    7.2598  -20.4024   16.9954 C   0  0  1  0  0  0  0  0  0  0  0  0
    8.0052  -19.3069   16.6528 O   0  0  0  0  0  0  0  0  0  0  0  0
    6.1936  -20.0387   17.9968 C   0  0  2  0  0  0  0  0  0  0  0  0
    5.1503  -19.2440   17.3638 N   0  0  0  0  0  0  0  0  0  0  0  0
    6.6811  -19.2685   19.1482 C   0  0  0  0  0  0  0  0  0  0  0  0
    6.4010  -18.0499   19.3385 O   0  0  0  0  0  0  0  0  0  0  0  0
    7.5098  -19.9026   20.1104 N   0  0  0  0  0  0  0  0  0  0  0  0
    7.9482  -19.1823   21.2835 C   0  0  0  0  0  0  0  0  0  0  0  0
    7.8773  -19.9319   22.5370 C   0  0  0  0  0  0  0  0  0  0  0  0
    7.0571  -20.9205   22.5658 O   0  0  0  0  0  0  0  0  0  0  0  0
    8.6175  -19.6666   23.7000 N   0  0  0  0  0  0  0  0  0  0  0  0
    8.3925  -20.4430   24.9452 C   0  0  1  0  0  0  0  0  0  0  0  0
    9.6598  -20.3927   25.7503 C   0  0  0  0  0  0  0  0  0  0  0  0
   10.8634  -20.6558   24.8863 C   0  0  0  0  0  0  0  0  0  0  0  0
   12.1244  -20.5526   25.6770 C   0  0  0  0  0  0  0  0  0  0  0  0
   12.1129  -20.1181   26.8509 O   0  0  0  0  0  0  0  0  0  0  0  0
    7.2206  -19.8576   25.6339 C   0  0  0  0  0  0  0  0  0  0  0  0
    6.9025  -18.6442   25.3621 O   0  0  0  0  0  0  0  0  0  0  0  0
   13.3141  -20.9381   25.1135 O   0  0  0  0  0  0  0  0  0  0  0  0
    6.4251  -20.5046   26.5529 O   0  0  0  0  0  0  0  0  0  0  0  0
  2  1  1  6
  2  3  1  0
  4  2  1  0
  4  5  1  6
  6  4  1  0
  7  6  2  0
  8  6  1  0
  9 10  1  0
  9  8  1  0
 10 12  1  0
 11 10  2  0
 12 13  1  0
 13 18  1  0
 13 14  1  1
 15 14  1  0
 16 15  1  0
 17 16  2  0
 18 21  1  0
 19 18  2  0
 20 16  1  0
M  END
$$$$
