WDC.pdb
     RDKit          3D

 29 30  0  0  1  0  0  0  0  0999 V2000
   23.3427   -9.5323  -17.1067 N   0  0  0  0  0  0  0  0  0  0  0  0
   23.1535   -9.9180  -15.7457 C   0  0  1  0  0  0  0  0  0  0  0  0
   24.3360  -10.6451  -15.1351 C   0  0  0  0  0  0  0  0  0  0  0  0
   24.7093  -11.8390  -15.9371 C   0  0  0  0  0  0  0  0  0  0  0  0
   23.8862  -12.5888  -16.7719 C   0  0  0  0  0  0  0  0  0  0  0  0
   24.5927  -13.6031  -17.2895 N   0  0  0  0  0  0  0  0  0  0  0  0
   25.8744  -13.5783  -16.8406 C   0  0  0  0  0  0  0  0  0  0  0  0
   26.9732  -14.3750  -17.0714 C   0  0  0  0  0  0  0  0  0  0  0  0
   28.1800  -14.1122  -16.4793 C   0  0  0  0  0  0  0  0  0  0  0  0
   28.2745  -13.0254  -15.6408 C   0  0  0  0  0  0  0  0  0  0  0  0
   27.1677  -12.2324  -15.4152 C   0  0  0  0  0  0  0  0  0  0  0  0
   25.9340  -12.4688  -15.9951 C   0  0  0  0  0  0  0  0  0  0  0  0
   22.8066   -8.7369  -14.8751 C   0  0  0  0  0  0  0  0  0  0  0  0
   23.7568   -7.9375  -14.5944 O   0  0  0  0  0  0  0  0  0  0  0  0
   21.5070   -8.5009  -14.3831 N   0  0  0  0  0  0  0  0  0  0  0  0
   21.2983   -7.2346  -13.6531 C   0  0  1  0  0  0  0  0  0  0  0  0
   21.3598   -6.1861  -14.7649 C   0  0  0  0  0  0  0  0  0  0  0  0
   21.1568   -4.8204  -14.3593 C   0  0  0  0  0  0  0  0  0  0  0  0
   20.3886   -4.0370  -14.9408 O   0  0  0  0  0  0  0  0  0  0  0  0
   19.9397   -7.1986  -13.0809 C   0  0  0  0  0  0  0  0  0  0  0  0
   18.9773   -7.5538  -13.7940 O   0  0  0  0  0  0  0  0  0  0  0  0
   21.8714   -4.3574  -13.2430 O   0  0  0  0  0  0  0  0  0  0  0  0
   19.6228   -6.7883  -11.7574 N   0  0  0  0  0  0  0  0  0  0  0  0
   18.2481   -6.7902  -11.3206 C   0  0  1  0  0  0  0  0  0  0  0  0
   18.1776   -6.9928   -9.8022 C   0  0  0  0  0  0  0  0  0  0  0  0
   16.4645   -6.9758   -9.2374 S   0  0  0  0  0  0  0  0  0  0  0  0
   17.4956   -5.5884  -11.7222 C   0  0  0  0  0  0  0  0  0  0  0  0
   16.1782   -5.6115  -12.1135 O   0  0  0  0  0  0  0  0  0  0  0  0
   18.0712   -4.4733  -11.7135 O   0  0  0  0  0  0  0  0  0  0  0  0
  2  1  1  6
  2  3  1  0
  2 13  1  0
  3  4  1  0
  4 12  1  0
  5  4  2  0
  5  6  1  0
  6  7  1  0
  7  8  1  0
  8  9  2  0
 10  9  1  0
 11 10  2  0
 12  7  2  0
 12 11  1  0
 13 15  1  0
 13 14  2  0
 15 16  1  0
 16 20  1  0
 16 17  1  6
 17 18  1  0
 18 22  1  0
 19 18  2  0
 20 21  2  0
 23 20  1  0
 23 24  1  0
 24 27  1  0
 24 25  1  1
 26 25  1  0
 27 28  1  0
 29 27  2  0
M  END
$$$$
