WDC.pdb
     RDKit          3D

 29 30  0  0  1  0  0  0  0  0999 V2000
   25.1059  -19.0148  -17.0111 N   0  0  0  0  0  0  0  0  0  0  0  0
   25.5308  -18.9303  -15.6512 C   0  0  1  0  0  0  0  0  0  0  0  0
   25.7281  -17.5133  -15.1481 C   0  0  0  0  0  0  0  0  0  0  0  0
   26.2263  -16.6211  -16.2269 C   0  0  0  0  0  0  0  0  0  0  0  0
   27.0248  -16.9697  -17.3120 C   0  0  0  0  0  0  0  0  0  0  0  0
   27.2814  -15.8733  -18.0386 N   0  0  0  0  0  0  0  0  0  0  0  0
   26.6873  -14.7810  -17.4919 C   0  0  0  0  0  0  0  0  0  0  0  0
   26.6407  -13.4519  -17.8477 C   0  0  0  0  0  0  0  0  0  0  0  0
   25.9427  -12.5394  -17.1021 C   0  0  0  0  0  0  0  0  0  0  0  0
   25.2818  -12.9808  -15.9789 C   0  0  0  0  0  0  0  0  0  0  0  0
   25.3342  -14.3149  -15.6298 C   0  0  0  0  0  0  0  0  0  0  0  0
   26.0298  -15.2632  -16.3586 C   0  0  0  0  0  0  0  0  0  0  0  0
   24.5810  -19.6471  -14.7253 C   0  0  0  0  0  0  0  0  0  0  0  0
   23.4073  -19.8630  -15.1687 O   0  0  0  0  0  0  0  0  0  0  0  0
   24.9436  -20.0710  -13.4308 N   0  0  0  0  0  0  0  0  0  0  0  0
   24.4490  -21.3964  -13.0083 C   0  0  1  0  0  0  0  0  0  0  0  0
   25.1795  -22.3504  -13.9545 C   0  0  0  0  0  0  0  0  0  0  0  0
   24.7750  -23.7303  -13.8992 C   0  0  0  0  0  0  0  0  0  0  0  0
   23.6932  -24.1484  -14.3426 O   0  0  0  0  0  0  0  0  0  0  0  0
   24.9041  -21.6926  -11.6373 C   0  0  0  0  0  0  0  0  0  0  0  0
   24.8809  -22.8765  -11.2387 O   0  0  0  0  0  0  0  0  0  0  0  0
   25.6595  -24.6471  -13.3090 O   0  0  0  0  0  0  0  0  0  0  0  0
   25.3802  -20.7268  -10.7095 N   0  0  0  0  0  0  0  0  0  0  0  0
   26.4736  -21.0617   -9.8304 C   0  0  1  0  0  0  0  0  0  0  0  0
   27.7145  -21.4345  -10.6506 C   0  0  0  0  0  0  0  0  0  0  0  0
   29.0914  -21.8565   -9.5643 S   0  0  0  0  0  0  0  0  0  0  0  0
   26.7927  -20.0075   -8.8512 C   0  0  0  0  0  0  0  0  0  0  0  0
   27.0155  -20.2512   -7.5169 O   0  0  0  0  0  0  0  0  0  0  0  0
   26.8696  -18.8157   -9.2366 O   0  0  0  0  0  0  0  0  0  0  0  0
  2  1  1  6
  2  3  1  0
  2 13  1  0
  3  4  1  0
  4 12  1  0
  5  4  2  0
  5  6  1  0
  6  7  1  0
  7  8  1  0
  8  9  2  0
 10  9  1  0
 11 10  2  0
 12  7  2  0
 12 11  1  0
 13 15  1  0
 13 14  2  0
 15 16  1  0
 16 20  1  0
 16 17  1  6
 17 18  1  0
 18 22  1  0
 19 18  2  0
 20 21  2  0
 23 20  1  0
 23 24  1  0
 24 27  1  0
 24 25  1  6
 26 25  1  0
 27 28  1  0
 29 27  2  0
M  END
$$$$
