WDC.pdb
     RDKit          3D

 29 30  0  0  1  0  0  0  0  0999 V2000
   24.2235  -18.3659  -17.1381 N   0  0  0  0  0  0  0  0  0  0  0  0
   22.9615  -18.3417  -16.4721 C   0  0  1  0  0  0  0  0  0  0  0  0
   21.7982  -17.9392  -17.3580 C   0  0  0  0  0  0  0  0  0  0  0  0
   21.9449  -16.5417  -17.8410 C   0  0  0  0  0  0  0  0  0  0  0  0
   22.6770  -16.0981  -18.9382 C   0  0  0  0  0  0  0  0  0  0  0  0
   22.5812  -14.7638  -19.0196 N   0  0  0  0  0  0  0  0  0  0  0  0
   21.8083  -14.2725  -18.0166 C   0  0  0  0  0  0  0  0  0  0  0  0
   21.4060  -13.0031  -17.6674 C   0  0  0  0  0  0  0  0  0  0  0  0
   20.5982  -12.7853  -16.5830 C   0  0  0  0  0  0  0  0  0  0  0  0
   20.1918  -13.8707  -15.8414 C   0  0  0  0  0  0  0  0  0  0  0  0
   20.6002  -15.1397  -16.1989 C   0  0  0  0  0  0  0  0  0  0  0  0
   21.4161  -15.3960  -17.2864 C   0  0  0  0  0  0  0  0  0  0  0  0
   22.6460  -19.6680  -15.8282 C   0  0  0  0  0  0  0  0  0  0  0  0
   23.4301  -20.6337  -16.0991 O   0  0  0  0  0  0  0  0  0  0  0  0
   21.5486  -19.8609  -14.9649 N   0  0  0  0  0  0  0  0  0  0  0  0
   21.3782  -21.2178  -14.4082 C   0  0  1  0  0  0  0  0  0  0  0  0
   22.5519  -21.3368  -13.4348 C   0  0  0  0  0  0  0  0  0  0  0  0
   22.4100  -20.6404  -12.1836 C   0  0  0  0  0  0  0  0  0  0  0  0
   21.4727  -19.8666  -11.9293 O   0  0  0  0  0  0  0  0  0  0  0  0
   20.1349  -21.2880  -13.6184 C   0  0  0  0  0  0  0  0  0  0  0  0
   19.7626  -20.2734  -12.9916 O   0  0  0  0  0  0  0  0  0  0  0  0
   23.3909  -20.8542  -11.2021 O   0  0  0  0  0  0  0  0  0  0  0  0
   19.3026  -22.4349  -13.5079 N   0  0  0  0  0  0  0  0  0  0  0  0
   18.0002  -22.3144  -12.8997 C   0  0  1  0  0  0  0  0  0  0  0  0
   17.1797  -21.2375  -13.6198 C   0  0  0  0  0  0  0  0  0  0  0  0
   17.1370  -21.5520  -15.3956 S   0  0  0  0  0  0  0  0  0  0  0  0
   17.2542  -23.5839  -12.8369 C   0  0  0  0  0  0  0  0  0  0  0  0
   16.0576  -23.7308  -12.1770 O   0  0  0  0  0  0  0  0  0  0  0  0
   17.7204  -24.5979  -13.4107 O   0  0  0  0  0  0  0  0  0  0  0  0
  2  1  1  6
  2  3  1  0
  2 13  1  0
  3  4  1  0
  4 12  1  0
  5  4  2  0
  5  6  1  0
  6  7  1  0
  7  8  1  0
  8  9  2  0
 10  9  1  0
 11 10  2  0
 12  7  2  0
 12 11  1  0
 13 15  1  0
 13 14  2  0
 15 16  1  0
 16 20  1  0
 16 17  1  1
 17 18  1  0
 18 22  1  0
 19 18  2  0
 20 21  2  0
 23 20  1  0
 23 24  1  0
 24 27  1  0
 24 25  1  6
 26 25  1  0
 27 28  1  0
 29 27  2  0
M  END
$$$$
