WDC.pdb
     RDKit          3D

 29 30  0  0  1  0  0  0  0  0999 V2000
   23.2830  -34.6056  -12.8463 N   0  0  0  0  0  0  0  0  0  0  0  0
   23.9788  -33.6340  -12.0661 C   0  0  1  0  0  0  0  0  0  0  0  0
   23.1921  -32.3631  -11.8095 C   0  0  0  0  0  0  0  0  0  0  0  0
   22.7616  -31.7275  -13.0818 C   0  0  0  0  0  0  0  0  0  0  0  0
   21.5734  -31.0461  -13.3276 C   0  0  0  0  0  0  0  0  0  0  0  0
   21.5504  -30.6514  -14.6081 N   0  0  0  0  0  0  0  0  0  0  0  0
   22.6817  -31.0370  -15.2533 C   0  0  0  0  0  0  0  0  0  0  0  0
   23.1363  -30.8776  -16.5430 C   0  0  0  0  0  0  0  0  0  0  0  0
   24.3511  -31.3734  -16.9359 C   0  0  0  0  0  0  0  0  0  0  0  0
   25.1168  -32.0407  -16.0076 C   0  0  0  0  0  0  0  0  0  0  0  0
   24.6529  -32.1959  -14.7171 C   0  0  0  0  0  0  0  0  0  0  0  0
   23.4315  -31.7093  -14.2863 C   0  0  0  0  0  0  0  0  0  0  0  0
   24.4311  -34.2010  -10.7444 C   0  0  0  0  0  0  0  0  0  0  0  0
   23.7673  -35.1882  -10.2909 O   0  0  0  0  0  0  0  0  0  0  0  0
   25.5292  -33.6887  -10.0243 N   0  0  0  0  0  0  0  0  0  0  0  0
   25.9211  -34.4261   -8.8067 C   0  0  1  0  0  0  0  0  0  0  0  0
   27.3996  -34.7302   -9.0534 C   0  0  0  0  0  0  0  0  0  0  0  0
   28.0439  -35.5721   -8.0804 C   0  0  0  0  0  0  0  0  0  0  0  0
   29.2049  -35.9964   -8.1988 O   0  0  0  0  0  0  0  0  0  0  0  0
   25.8382  -33.5408   -7.6304 C   0  0  0  0  0  0  0  0  0  0  0  0
   26.3737  -32.4134   -7.6874 O   0  0  0  0  0  0  0  0  0  0  0  0
   27.3109  -35.9281   -6.9370 O   0  0  0  0  0  0  0  0  0  0  0  0
   25.1846  -33.8646   -6.4104 N   0  0  0  0  0  0  0  0  0  0  0  0
   25.2692  -32.9556   -5.2936 C   0  0  1  0  0  0  0  0  0  0  0  0
   24.0104  -33.0687   -4.4253 C   0  0  0  0  0  0  0  0  0  0  0  0
   22.5380  -32.6590   -5.3837 S   0  0  0  0  0  0  0  0  0  0  0  0
   26.4837  -33.1293   -4.4770 C   0  0  0  0  0  0  0  0  0  0  0  0
   26.8973  -32.2258   -3.5274 O   0  0  0  0  0  0  0  0  0  0  0  0
   27.1929  -34.1513   -4.6428 O   0  0  0  0  0  0  0  0  0  0  0  0
  2  1  1  1
  2  3  1  0
  2 13  1  0
  3  4  1  0
  4 12  1  0
  5  4  2  0
  5  6  1  0
  6  7  1  0
  7  8  1  0
  8  9  2  0
 10  9  1  0
 11 10  2  0
 12  7  2  0
 12 11  1  0
 13 15  1  0
 13 14  2  0
 15 16  1  0
 16 20  1  0
 16 17  1  6
 17 18  1  0
 18 22  1  0
 19 18  2  0
 20 21  2  0
 23 20  1  0
 23 24  1  0
 24 27  1  0
 24 25  1  1
 26 25  1  0
 27 28  1  0
 29 27  2  0
M  END
$$$$
