WKP.pdb
     RDKit          3D

 31 33  0  0  1  0  0  0  0  0999 V2000
    6.3177  -18.5120   25.2644 N   0  0  0  0  0  0  0  0  0  0  0  0
    6.5480  -17.0855   24.9904 C   0  0  1  0  0  0  0  0  0  0  0  0
    7.2515  -16.4642   26.1444 C   0  0  0  0  0  0  0  0  0  0  0  0
    6.6187  -15.1555   26.4493 C   0  0  0  0  0  0  0  0  0  0  0  0
    5.2892  -14.9565   26.6734 C   0  0  0  0  0  0  0  0  0  0  0  0
    5.0917  -13.6622   26.9159 N   0  0  0  0  0  0  0  0  0  0  0  0
    6.2685  -12.9905   26.8579 C   0  0  0  0  0  0  0  0  0  0  0  0
    6.5642  -11.6470   27.0375 C   0  0  0  0  0  0  0  0  0  0  0  0
    7.8798  -11.2665   26.9109 C   0  0  0  0  0  0  0  0  0  0  0  0
    8.8685  -12.1821   26.6171 C   0  0  0  0  0  0  0  0  0  0  0  0
    8.5340  -13.5134   26.4452 C   0  0  0  0  0  0  0  0  0  0  0  0
    7.2328  -13.9266   26.5643 C   0  0  0  0  0  0  0  0  0  0  0  0
    7.3183  -17.0119   23.7253 C   0  0  0  0  0  0  0  0  0  0  0  0
    8.1703  -17.9096   23.4325 O   0  0  0  0  0  0  0  0  0  0  0  0
    7.1770  -15.9710   22.7573 N   0  0  0  0  0  0  0  0  0  0  0  0
    8.0553  -15.7464   21.6450 C   0  0  1  0  0  0  0  0  0  0  0  0
    7.8488  -14.3330   21.0729 C   0  0  0  0  0  0  0  0  0  0  0  0
    8.7143  -14.0710   19.8783 C   0  0  0  0  0  0  0  0  0  0  0  0
    7.9969  -13.6848   18.6336 C   0  0  0  0  0  0  0  0  0  0  0  0
    9.0110  -13.4885   17.4987 C   0  0  0  0  0  0  0  0  0  0  0  0
    8.3657  -13.0500   16.2949 N   0  0  0  0  0  0  0  0  0  0  0  0
    9.4676  -16.0410   21.8194 C   0  0  0  0  0  0  0  0  0  0  0  0
   10.0939  -15.3018   22.6773 O   0  0  0  0  0  0  0  0  0  0  0  0
   10.2461  -17.0341   21.1720 N   0  0  0  0  0  0  0  0  0  0  0  0
    9.8740  -18.0640   20.2569 C   0  0  0  0  0  0  0  0  0  0  0  0
   11.0704  -18.1728   19.3351 C   0  0  0  0  0  0  0  0  0  0  0  0
   12.1716  -18.2304   20.4006 C   0  0  0  0  0  0  0  0  0  0  0  0
   11.7034  -17.1936   21.3642 C   0  0  1  0  0  0  0  0  0  0  0  0
   12.3970  -15.9338   21.0239 C   0  0  0  0  0  0  0  0  0  0  0  0
   13.6758  -15.6971   21.4702 O   0  0  0  0  0  0  0  0  0  0  0  0
   11.8169  -15.0828   20.3279 O   0  0  0  0  0  0  0  0  0  0  0  0
  2  1  1  1
  2 13  1  0
  3  4  1  0
  3  2  1  0
  4 12  1  0
  4  5  2  0
  5  6  1  0
  6  7  1  0
  7  8  2  0
  9  8  1  0
 10  9  2  0
 11 12  2  0
 11 10  1  0
 12  7  1  0
 13 14  2  0
 15 13  1  0
 15 16  1  0
 16 17  1  1
 18 17  1  0
 19 18  1  0
 20 19  1  0
 21 20  1  0
 22 16  1  0
 22 24  1  0
 23 22  2  0
 24 28  1  0
 25 24  1  0
 25 26  1  0
 26 27  1  0
 28 27  1  0
 28 29  1  6
 29 30  1  0
 31 29  2  0
M  END
$$$$
