WKP.pdb
     RDKit          3D

 31 33  0  0  1  0  0  0  0  0999 V2000
    6.4632  -18.3373   26.0021 N   0  0  0  0  0  0  0  0  0  0  0  0
    7.4041  -17.2466   25.7053 C   0  0  1  0  0  0  0  0  0  0  0  0
    8.7826  -17.6632   26.0779 C   0  0  0  0  0  0  0  0  0  0  0  0
    9.1461  -17.0307   27.3717 C   0  0  0  0  0  0  0  0  0  0  0  0
    9.4412  -17.7010   28.5210 C   0  0  0  0  0  0  0  0  0  0  0  0
    9.7201  -16.8092   29.4695 N   0  0  0  0  0  0  0  0  0  0  0  0
    9.6166  -15.5511   28.9737 C   0  0  0  0  0  0  0  0  0  0  0  0
    9.8089  -14.3141   29.5716 C   0  0  0  0  0  0  0  0  0  0  0  0
    9.6239  -13.1979   28.7894 C   0  0  0  0  0  0  0  0  0  0  0  0
    9.2616  -13.3011   27.4627 C   0  0  0  0  0  0  0  0  0  0  0  0
    9.0793  -14.5528   26.9023 C   0  0  0  0  0  0  0  0  0  0  0  0
    9.2554  -15.6855   27.6532 C   0  0  0  0  0  0  0  0  0  0  0  0
    7.2556  -16.9341   24.2633 C   0  0  0  0  0  0  0  0  0  0  0  0
    7.0659  -17.8629   23.4153 O   0  0  0  0  0  0  0  0  0  0  0  0
    7.3057  -15.6152   23.7170 N   0  0  0  0  0  0  0  0  0  0  0  0
    7.8221  -15.2712   22.4231 C   0  0  1  0  0  0  0  0  0  0  0  0
    7.9006  -13.7427   22.2639 C   0  0  0  0  0  0  0  0  0  0  0  0
    8.4254  -13.3372   20.9204 C   0  0  0  0  0  0  0  0  0  0  0  0
    7.4146  -13.2478   19.8326 C   0  0  0  0  0  0  0  0  0  0  0  0
    8.1014  -12.8140   18.5306 C   0  0  0  0  0  0  0  0  0  0  0  0
    8.5493  -13.9489   17.7760 N   0  0  0  0  0  0  0  0  0  0  0  0
    9.0534  -15.9082   21.9874 C   0  0  0  0  0  0  0  0  0  0  0  0
   10.1078  -15.6275   22.6831 O   0  0  0  0  0  0  0  0  0  0  0  0
    9.2471  -16.7981   20.9002 N   0  0  0  0  0  0  0  0  0  0  0  0
    8.3166  -17.3623   19.9770 C   0  0  0  0  0  0  0  0  0  0  0  0
    9.1034  -17.4528   18.6863 C   0  0  0  0  0  0  0  0  0  0  0  0
   10.3737  -18.1076   19.2420 C   0  0  0  0  0  0  0  0  0  0  0  0
   10.5621  -17.3525   20.5135 C   0  0  1  0  0  0  0  0  0  0  0  0
   11.5096  -16.2533   20.2343 C   0  0  0  0  0  0  0  0  0  0  0  0
   12.8452  -16.5144   20.0379 O   0  0  0  0  0  0  0  0  0  0  0  0
   11.0927  -15.0837   20.1769 O   0  0  0  0  0  0  0  0  0  0  0  0
  2  1  1  6
  2 13  1  0
  3  4  1  0
  3  2  1  0
  4 12  1  0
  4  5  2  0
  5  6  1  0
  6  7  1  0
  7  8  2  0
  9  8  1  0
 10  9  2  0
 11 12  2  0
 11 10  1  0
 12  7  1  0
 13 14  2  0
 15 13  1  0
 15 16  1  0
 16 17  1  1
 18 17  1  0
 19 18  1  0
 20 19  1  0
 21 20  1  0
 22 16  1  0
 22 24  1  0
 23 22  2  0
 24 28  1  0
 25 24  1  0
 25 26  1  0
 26 27  1  0
 28 27  1  0
 28 29  1  6
 29 30  1  0
 31 29  2  0
M  END
$$$$
