WKP.pdb
     RDKit          3D

 31 33  0  0  1  0  0  0  0  0999 V2000
    6.8705  -17.4884   26.1576 N   0  0  0  0  0  0  0  0  0  0  0  0
    7.2383  -16.2380   25.4765 C   0  0  1  0  0  0  0  0  0  0  0  0
    8.4753  -15.6830   26.0885 C   0  0  0  0  0  0  0  0  0  0  0  0
    8.1165  -14.5098   26.9257 C   0  0  0  0  0  0  0  0  0  0  0  0
    8.4366  -14.3532   28.2412 C   0  0  0  0  0  0  0  0  0  0  0  0
    7.9538  -13.1838   28.6563 N   0  0  0  0  0  0  0  0  0  0  0  0
    7.3149  -12.5539   27.6392 C   0  0  0  0  0  0  0  0  0  0  0  0
    6.6617  -11.3311   27.5877 C   0  0  0  0  0  0  0  0  0  0  0  0
    6.1025  -10.9628   26.3863 C   0  0  0  0  0  0  0  0  0  0  0  0
    6.1861  -11.7749   25.2748 C   0  0  0  0  0  0  0  0  0  0  0  0
    6.8462  -12.9874   25.3658 C   0  0  0  0  0  0  0  0  0  0  0  0
    7.4147  -13.3850   26.5476 C   0  0  0  0  0  0  0  0  0  0  0  0
    7.3911  -16.5635   24.0378 C   0  0  0  0  0  0  0  0  0  0  0  0
    7.5017  -17.7714   23.6551 O   0  0  0  0  0  0  0  0  0  0  0  0
    7.4224  -15.5908   22.9922 N   0  0  0  0  0  0  0  0  0  0  0  0
    7.9634  -15.7995   21.6796 C   0  0  1  0  0  0  0  0  0  0  0  0
    7.7805  -14.5396   20.8154 C   0  0  0  0  0  0  0  0  0  0  0  0
    8.2078  -14.7568   19.3958 C   0  0  0  0  0  0  0  0  0  0  0  0
    8.1102  -13.5705   18.5036 C   0  0  0  0  0  0  0  0  0  0  0  0
    8.5113  -13.9690   17.0770 C   0  0  0  0  0  0  0  0  0  0  0  0
    8.5354  -12.8294   16.2060 N   0  0  0  0  0  0  0  0  0  0  0  0
    9.3171  -16.3172   21.5729 C   0  0  0  0  0  0  0  0  0  0  0  0
   10.2456  -15.5702   22.0773 O   0  0  0  0  0  0  0  0  0  0  0  0
    9.7503  -17.5351   20.9892 N   0  0  0  0  0  0  0  0  0  0  0  0
    9.0109  -18.6042   20.4004 C   0  0  0  0  0  0  0  0  0  0  0  0
    9.9140  -19.0932   19.2875 C   0  0  0  0  0  0  0  0  0  0  0  0
   11.2196  -19.1955   20.0850 C   0  0  0  0  0  0  0  0  0  0  0  0
   11.1676  -17.9461   20.8966 C   0  0  1  0  0  0  0  0  0  0  0  0
   11.9432  -16.9190   20.1705 C   0  0  0  0  0  0  0  0  0  0  0  0
   13.2984  -16.7966   20.3682 O   0  0  0  0  0  0  0  0  0  0  0  0
   11.3629  -16.1606   19.3747 O   0  0  0  0  0  0  0  0  0  0  0  0
  2  1  1  1
  2 13  1  0
  3  4  1  0
  3  2  1  0
  4 12  1  0
  4  5  2  0
  5  6  1  0
  6  7  1  0
  7  8  2  0
  9  8  1  0
 10  9  2  0
 11 12  2  0
 11 10  1  0
 12  7  1  0
 13 14  2  0
 15 13  1  0
 15 16  1  0
 16 17  1  6
 18 17  1  0
 19 18  1  0
 20 19  1  0
 21 20  1  0
 22 16  1  0
 22 24  1  0
 23 22  2  0
 24 28  1  0
 25 24  1  0
 25 26  1  0
 26 27  1  0
 28 27  1  0
 28 29  1  6
 29 30  1  0
 31 29  2  0
M  END
$$$$
