ANM.pdb
     RDKit          3D

 22 21  0  0  1  0  0  0  0  0999 V2000
    7.2368  -16.3312   19.1753 C   0  0  0  0  0  0  0  0  0  0  0  0
    7.1523  -17.0872   20.4637 C   0  0  2  0  0  0  0  0  0  0  0  0
    6.3422  -16.4151   21.4587 N   0  0  0  0  0  0  0  0  0  0  0  0
    8.4888  -17.3164   21.0766 C   0  0  0  0  0  0  0  0  0  0  0  0
    9.2810  -18.0835   20.4640 O   0  0  0  0  0  0  0  0  0  0  0  0
   11.7825  -16.7694   19.2728 N   0  0  0  0  0  0  0  0  0  0  0  0
   12.0483  -16.5487   20.6906 C   0  0  0  0  0  0  0  0  0  0  0  0
   13.1808  -16.8702   21.0825 O   0  0  0  0  0  0  0  0  0  0  0  0
   11.0119  -15.9908   21.5130 C   0  0  0  0  0  0  0  0  0  0  0  0
   10.3868  -16.7738   22.6108 C   0  0  2  0  0  0  0  0  0  0  0  0
    8.9069  -16.7370   22.2752 N   0  0  0  0  0  0  0  0  0  0  0  0
   10.4954  -16.2102   23.9625 C   0  0  0  0  0  0  0  0  0  0  0  0
   11.6255  -15.8916   24.4638 O   0  0  0  0  0  0  0  0  0  0  0  0
    5.8809  -11.9554   25.9605 C   0  0  0  0  0  0  0  0  0  0  0  0
    7.5441  -12.1308   26.6361 S   0  0  0  0  0  0  0  0  0  0  0  0
    8.4547  -13.4008   25.7023 C   0  0  0  0  0  0  0  0  0  0  0  0
    8.4254  -14.6511   26.5128 C   0  0  0  0  0  0  0  0  0  0  0  0
    9.5351  -15.6288   26.2080 C   0  0  2  0  0  0  0  0  0  0  0  0
    9.3841  -15.9763   24.7901 N   0  0  0  0  0  0  0  0  0  0  0  0
    9.5299  -16.8219   27.0581 C   0  0  0  0  0  0  0  0  0  0  0  0
    9.3048  -18.0927   26.5123 O   0  0  0  0  0  0  0  0  0  0  0  0
    9.7225  -16.7585   28.2845 O   0  0  0  0  0  0  0  0  0  0  0  0
  2  1  1  6
  2  3  1  0
  4  2  1  0
  4 11  1  0
  5  4  2  0
  7  6  1  0
  7  8  2  0
  9  7  1  0
 10 11  1  0
 10  9  1  6
 10 12  1  0
 12 13  2  0
 12 19  1  0
 15 14  1  0
 16 15  1  0
 17 16  1  0
 18 17  1  1
 19 18  1  0
 20 18  1  0
 20 21  1  0
 22 20  2  0
M  END
$$$$
