ANM.pdb
     RDKit          3D

 22 21  0  0  1  0  0  0  0  0999 V2000
    7.5497  -12.9028   18.9126 C   0  0  0  0  0  0  0  0  0  0  0  0
    8.6506  -13.5254   19.7121 C   0  0  2  0  0  0  0  0  0  0  0  0
    9.4298  -14.4792   18.9498 N   0  0  0  0  0  0  0  0  0  0  0  0
    8.1445  -14.2422   20.9140 C   0  0  0  0  0  0  0  0  0  0  0  0
    7.3742  -13.6056   21.6839 O   0  0  0  0  0  0  0  0  0  0  0  0
    5.7755  -18.9745   22.7980 N   0  0  0  0  0  0  0  0  0  0  0  0
    7.1715  -18.5964   22.9920 C   0  0  0  0  0  0  0  0  0  0  0  0
    7.7533  -19.1511   23.9372 O   0  0  0  0  0  0  0  0  0  0  0  0
    7.7611  -17.6360   22.1021 C   0  0  0  0  0  0  0  0  0  0  0  0
    7.8131  -16.1907   22.4449 C   0  0  2  0  0  0  0  0  0  0  0  0
    8.4715  -15.5612   21.2307 N   0  0  0  0  0  0  0  0  0  0  0  0
    8.6589  -15.8174   23.5859 C   0  0  0  0  0  0  0  0  0  0  0  0
    9.9329  -15.8477   23.5101 O   0  0  0  0  0  0  0  0  0  0  0  0
    5.3453  -12.2113   26.9827 C   0  0  0  0  0  0  0  0  0  0  0  0
    7.0518  -11.6347   27.0763 S   0  0  0  0  0  0  0  0  0  0  0  0
    8.1117  -12.6831   26.0314 C   0  0  0  0  0  0  0  0  0  0  0  0
    8.2680  -13.9896   26.7311 C   0  0  0  0  0  0  0  0  0  0  0  0
    9.0150  -15.0420   25.9469 C   0  0  2  0  0  0  0  0  0  0  0  0
    8.1408  -15.3993   24.8234 N   0  0  0  0  0  0  0  0  0  0  0  0
    9.3889  -16.2197   26.7338 C   0  0  0  0  0  0  0  0  0  0  0  0
   10.4787  -16.1802   27.6137 O   0  0  0  0  0  0  0  0  0  0  0  0
    8.7632  -17.2909   26.6553 O   0  0  0  0  0  0  0  0  0  0  0  0
  2  1  1  6
  2  3  1  0
  4  2  1  0
  4 11  1  0
  5  4  2  0
  7  6  1  0
  7  8  2  0
  9  7  1  0
 10 11  1  0
 10  9  1  6
 10 12  1  0
 12 13  2  0
 12 19  1  0
 15 14  1  0
 16 15  1  0
 17 16  1  0
 18 17  1  1
 19 18  1  0
 20 18  1  0
 20 21  1  0
 22 20  2  0
M  END
$$$$
