ANM.pdb
     RDKit          3D

 22 21  0  0  1  0  0  0  0  0999 V2000
    7.6436  -13.9656   18.2851 C   0  0  0  0  0  0  0  0  0  0  0  0
    8.6215  -14.0572   19.4138 C   0  0  2  0  0  0  0  0  0  0  0  0
    9.8951  -14.6175   19.0112 N   0  0  0  0  0  0  0  0  0  0  0  0
    8.1165  -14.8933   20.5365 C   0  0  0  0  0  0  0  0  0  0  0  0
    6.9633  -14.6331   20.9767 O   0  0  0  0  0  0  0  0  0  0  0  0
    6.8319  -19.8718   22.5565 N   0  0  0  0  0  0  0  0  0  0  0  0
    8.1336  -19.2356   22.7312 C   0  0  0  0  0  0  0  0  0  0  0  0
    8.8434  -19.7013   23.6361 O   0  0  0  0  0  0  0  0  0  0  0  0
    8.4952  -18.1455   21.8694 C   0  0  0  0  0  0  0  0  0  0  0  0
    8.1745  -16.7379   22.2231 C   0  0  2  0  0  0  0  0  0  0  0  0
    8.8394  -15.9344   21.1202 N   0  0  0  0  0  0  0  0  0  0  0  0
    8.7468  -16.2300   23.4765 C   0  0  0  0  0  0  0  0  0  0  0  0
   10.0034  -16.0491   23.6111 O   0  0  0  0  0  0  0  0  0  0  0  0
    6.7870  -10.4414   26.6284 C   0  0  0  0  0  0  0  0  0  0  0  0
    6.4247  -12.1739   26.2809 S   0  0  0  0  0  0  0  0  0  0  0  0
    7.7695  -13.2218   26.9193 C   0  0  0  0  0  0  0  0  0  0  0  0
    7.4541  -14.6272   26.5366 C   0  0  0  0  0  0  0  0  0  0  0  0
    8.5687  -15.3538   25.8223 C   0  0  2  0  0  0  0  0  0  0  0  0
    7.9694  -15.9036   24.6006 N   0  0  0  0  0  0  0  0  0  0  0  0
    9.2107  -16.3982   26.6241 C   0  0  0  0  0  0  0  0  0  0  0  0
    8.9592  -17.7537   26.3735 O   0  0  0  0  0  0  0  0  0  0  0  0
    9.9961  -16.1298   27.5495 O   0  0  0  0  0  0  0  0  0  0  0  0
  2  1  1  6
  2  3  1  0
  4  2  1  0
  4 11  1  0
  5  4  2  0
  7  6  1  0
  7  8  2  0
  9  7  1  0
 10 11  1  0
 10  9  1  6
 10 12  1  0
 12 13  2  0
 12 19  1  0
 15 14  1  0
 16 15  1  0
 17 16  1  0
 18 17  1  1
 19 18  1  0
 20 18  1  0
 20 21  1  0
 22 20  2  0
M  END
$$$$
