ANM.pdb
     RDKit          3D

 22 21  0  0  1  0  0  0  0  0999 V2000
    7.0783  -13.0635   19.1125 C   0  0  0  0  0  0  0  0  0  0  0  0
    8.3877  -13.2753   19.8048 C   0  0  2  0  0  0  0  0  0  0  0  0
    9.4638  -13.5932   18.8889 N   0  0  0  0  0  0  0  0  0  0  0  0
    8.3303  -14.3767   20.8039 C   0  0  0  0  0  0  0  0  0  0  0  0
    7.3289  -14.4092   21.5703 O   0  0  0  0  0  0  0  0  0  0  0  0
    8.7095  -19.3818   20.4414 N   0  0  0  0  0  0  0  0  0  0  0  0
    9.7130  -18.3262   20.3512 C   0  0  0  0  0  0  0  0  0  0  0  0
   10.2511  -18.1882   19.2418 O   0  0  0  0  0  0  0  0  0  0  0  0
   10.0020  -17.5410   21.5182 C   0  0  0  0  0  0  0  0  0  0  0  0
    9.0924  -16.4545   21.9668 C   0  0  2  0  0  0  0  0  0  0  0  0
    9.3105  -15.3609   20.9369 N   0  0  0  0  0  0  0  0  0  0  0  0
    9.3980  -15.8370   23.2637 C   0  0  0  0  0  0  0  0  0  0  0  0
   10.5161  -15.2605   23.4811 O   0  0  0  0  0  0  0  0  0  0  0  0
    6.5758  -11.2187   27.1859 C   0  0  0  0  0  0  0  0  0  0  0  0
    5.9612  -12.4054   25.9744 S   0  0  0  0  0  0  0  0  0  0  0  0
    7.3608  -13.2886   25.2162 C   0  0  0  0  0  0  0  0  0  0  0  0
    7.6797  -14.4489   26.0956 C   0  0  0  0  0  0  0  0  0  0  0  0
    8.8644  -15.2730   25.6510 C   0  0  2  0  0  0  0  0  0  0  0  0
    8.4977  -15.8274   24.3425 N   0  0  0  0  0  0  0  0  0  0  0  0
    9.2464  -16.3268   26.5942 C   0  0  0  0  0  0  0  0  0  0  0  0
    9.1003  -17.6794   26.2589 O   0  0  0  0  0  0  0  0  0  0  0  0
    9.7105  -16.0691   27.7182 O   0  0  0  0  0  0  0  0  0  0  0  0
  2  1  1  6
  2  3  1  0
  4  2  1  0
  4 11  1  0
  5  4  2  0
  7  6  1  0
  7  8  2  0
  9  7  1  0
 10 11  1  0
 10  9  1  6
 10 12  1  0
 12 13  2  0
 12 19  1  0
 15 14  1  0
 16 15  1  0
 17 16  1  0
 18 17  1  1
 19 18  1  0
 20 18  1  0
 20 21  1  0
 22 20  2  0
M  END
$$$$
