ANM.pdb
     RDKit          3D

 22 21  0  0  1  0  0  0  0  0999 V2000
    6.8096  -19.2162   19.8295 C   0  0  0  0  0  0  0  0  0  0  0  0
    6.9315  -18.4349   21.0997 C   0  0  2  0  0  0  0  0  0  0  0  0
    5.7311  -17.6906   21.4202 N   0  0  0  0  0  0  0  0  0  0  0  0
    8.0504  -17.4547   21.0585 C   0  0  0  0  0  0  0  0  0  0  0  0
    9.2090  -17.9095   20.8531 O   0  0  0  0  0  0  0  0  0  0  0  0
    7.2526  -12.2956   20.1314 N   0  0  0  0  0  0  0  0  0  0  0  0
    7.5299  -13.7147   19.9350 C   0  0  0  0  0  0  0  0  0  0  0  0
    6.5683  -14.4047   19.5624 O   0  0  0  0  0  0  0  0  0  0  0  0
    8.8580  -14.2032   20.1788 C   0  0  0  0  0  0  0  0  0  0  0  0
    9.1323  -15.2080   21.2391 C   0  0  2  0  0  0  0  0  0  0  0  0
    7.8895  -16.0796   21.2324 N   0  0  0  0  0  0  0  0  0  0  0  0
    9.2454  -14.6987   22.6118 C   0  0  0  0  0  0  0  0  0  0  0  0
    9.0353  -13.4699   22.8870 O   0  0  0  0  0  0  0  0  0  0  0  0
    5.7636  -11.7503   26.6812 C   0  0  0  0  0  0  0  0  0  0  0  0
    7.2100  -12.8140   26.5079 S   0  0  0  0  0  0  0  0  0  0  0  0
    7.2451  -13.5342   24.8364 C   0  0  0  0  0  0  0  0  0  0  0  0
    7.6497  -14.9615   24.9787 C   0  0  0  0  0  0  0  0  0  0  0  0
    9.1394  -15.1907   25.0713 C   0  0  2  0  0  0  0  0  0  0  0  0
    9.5805  -15.5108   23.7086 N   0  0  0  0  0  0  0  0  0  0  0  0
    9.5246  -16.2370   26.0215 C   0  0  0  0  0  0  0  0  0  0  0  0
    9.9254  -15.9129   27.3245 O   0  0  0  0  0  0  0  0  0  0  0  0
    9.5125  -17.4419   25.7161 O   0  0  0  0  0  0  0  0  0  0  0  0
  2  1  1  6
  2  3  1  0
  4  2  1  0
  4 11  1  0
  5  4  2  0
  7  6  1  0
  7  8  2  0
  9  7  1  0
 10 11  1  0
 10  9  1  6
 10 12  1  0
 12 13  2  0
 12 19  1  0
 15 14  1  0
 16 15  1  0
 17 16  1  0
 18 17  1  6
 19 18  1  0
 20 18  1  0
 20 21  1  0
 22 20  2  0
M  END
$$$$
