ANM.pdb
     RDKit          3D

 22 21  0  0  1  0  0  0  0  0999 V2000
    8.5623  -12.2866   19.4176 C   0  0  0  0  0  0  0  0  0  0  0  0
    8.4417  -13.6787   18.8826 C   0  0  2  0  0  0  0  0  0  0  0  0
    7.2198  -13.8904   18.1344 N   0  0  0  0  0  0  0  0  0  0  0  0
    8.4734  -14.7057   19.9591 C   0  0  0  0  0  0  0  0  0  0  0  0
    7.3740  -15.0135   20.4957 O   0  0  0  0  0  0  0  0  0  0  0  0
   11.3172  -18.1857   18.8609 N   0  0  0  0  0  0  0  0  0  0  0  0
   10.3891  -18.2811   19.9830 C   0  0  0  0  0  0  0  0  0  0  0  0
    9.5048  -19.1452   19.8784 O   0  0  0  0  0  0  0  0  0  0  0  0
   10.5565  -17.3947   21.1001 C   0  0  0  0  0  0  0  0  0  0  0  0
    9.5095  -16.4068   21.4701 C   0  0  2  0  0  0  0  0  0  0  0  0
    9.6368  -15.3371   20.4007 N   0  0  0  0  0  0  0  0  0  0  0  0
    9.6913  -15.7060   22.7478 C   0  0  0  0  0  0  0  0  0  0  0  0
   10.7001  -14.9522   22.9576 O   0  0  0  0  0  0  0  0  0  0  0  0
    6.1926  -11.2134   27.8056 C   0  0  0  0  0  0  0  0  0  0  0  0
    6.2380  -12.3178   26.3802 S   0  0  0  0  0  0  0  0  0  0  0  0
    7.7412  -13.3425   26.4459 C   0  0  0  0  0  0  0  0  0  0  0  0
    7.7874  -14.1403   25.1879 C   0  0  0  0  0  0  0  0  0  0  0  0
    8.9769  -15.0627   25.0669 C   0  0  2  0  0  0  0  0  0  0  0  0
    8.7826  -15.8040   23.8151 N   0  0  0  0  0  0  0  0  0  0  0  0
    9.1499  -15.9667   26.2065 C   0  0  0  0  0  0  0  0  0  0  0  0
    9.6847  -15.5043   27.4163 O   0  0  0  0  0  0  0  0  0  0  0  0
    8.8336  -17.1674   26.1496 O   0  0  0  0  0  0  0  0  0  0  0  0
  2  1  1  1
  2  3  1  0
  4  2  1  0
  4 11  1  0
  5  4  2  0
  7  6  1  0
  7  8  2  0
  9  7  1  0
 10 11  1  0
 10  9  1  6
 10 12  1  0
 12 13  2  0
 12 19  1  0
 15 14  1  0
 16 15  1  0
 17 16  1  0
 18 17  1  1
 19 18  1  0
 20 18  1  0
 20 21  1  0
 22 20  2  0
M  END
$$$$
