ANM.pdb
     RDKit          3D

 22 21  0  0  1  0  0  0  0  0999 V2000
    8.3550  -12.1320   20.1982 C   0  0  0  0  0  0  0  0  0  0  0  0
    8.2588  -13.5139   19.6329 C   0  0  2  0  0  0  0  0  0  0  0  0
    7.0778  -13.7074   18.8170 N   0  0  0  0  0  0  0  0  0  0  0  0
    8.2298  -14.5598   20.6911 C   0  0  0  0  0  0  0  0  0  0  0  0
    7.1034  -14.8652   21.1701 O   0  0  0  0  0  0  0  0  0  0  0  0
    8.1568  -18.3509   20.3610 N   0  0  0  0  0  0  0  0  0  0  0  0
    9.5609  -18.3900   20.7563 C   0  0  0  0  0  0  0  0  0  0  0  0
   10.2404  -19.2915   20.2414 O   0  0  0  0  0  0  0  0  0  0  0  0
   10.0479  -17.4113   21.6874 C   0  0  0  0  0  0  0  0  0  0  0  0
    9.1744  -16.3205   22.1938 C   0  0  2  0  0  0  0  0  0  0  0  0
    9.3648  -15.2113   21.1752 N   0  0  0  0  0  0  0  0  0  0  0  0
    9.5442  -15.7314   23.4872 C   0  0  0  0  0  0  0  0  0  0  0  0
   10.6601  -15.1340   23.6537 O   0  0  0  0  0  0  0  0  0  0  0  0
    5.4108  -12.4589   26.1460 C   0  0  0  0  0  0  0  0  0  0  0  0
    6.9067  -12.0264   27.0564 S   0  0  0  0  0  0  0  0  0  0  0  0
    8.3340  -12.9021   26.3425 C   0  0  0  0  0  0  0  0  0  0  0  0
    8.0333  -14.3604   26.4034 C   0  0  0  0  0  0  0  0  0  0  0  0
    9.1482  -15.2572   25.9204 C   0  0  2  0  0  0  0  0  0  0  0  0
    8.7109  -15.7731   24.6179 N   0  0  0  0  0  0  0  0  0  0  0  0
    9.4838  -16.3432   26.8445 C   0  0  0  0  0  0  0  0  0  0  0  0
    9.2307  -17.6792   26.5061 O   0  0  0  0  0  0  0  0  0  0  0  0
   10.0009  -16.1285   27.9543 O   0  0  0  0  0  0  0  0  0  0  0  0
  2  1  1  1
  2  3  1  0
  4  2  1  0
  4 11  1  0
  5  4  2  0
  7  6  1  0
  7  8  2  0
  9  7  1  0
 10 11  1  0
 10  9  1  6
 10 12  1  0
 12 13  2  0
 12 19  1  0
 15 14  1  0
 16 15  1  0
 17 16  1  0
 18 17  1  1
 19 18  1  0
 20 18  1  0
 20 21  1  0
 22 20  2  0
M  END
$$$$
