TLR.pdb
     RDKit          3D

 27 26  0  0  1  0  0  0  0  0999 V2000
   29.0275  -18.5869  -14.7239 C   0  0  0  0  0  0  0  0  0  0  0  0
   28.0419  -19.2138  -13.7878 C   0  0  1  0  0  0  0  0  0  0  0  0
   26.8491  -19.5228  -14.4474 O   0  0  0  0  0  0  0  0  0  0  0  0
   28.5737  -20.3888  -13.0130 C   0  0  2  0  0  0  0  0  0  0  0  0
   28.8986  -21.4425  -13.9449 N   0  0  0  0  0  0  0  0  0  0  0  0
   27.6679  -20.8508  -11.9600 C   0  0  0  0  0  0  0  0  0  0  0  0
   26.9740  -21.8905  -12.1954 O   0  0  0  0  0  0  0  0  0  0  0  0
   27.8050  -18.9160   -6.6707 C   0  0  0  0  0  0  0  0  0  0  0  0
   27.7657  -20.0136   -7.7566 C   0  0  1  0  0  0  0  0  0  0  0  0
   27.8862  -21.3050   -7.0126 C   0  0  0  0  0  0  0  0  0  0  0  0
   26.5104  -19.7968   -8.5031 C   0  0  0  0  0  0  0  0  0  0  0  0
   26.3680  -20.4069   -9.8471 C   0  0  2  0  0  0  0  0  0  0  0  0
   27.4973  -20.2417  -10.7046 N   0  0  0  0  0  0  0  0  0  0  0  0
   25.0817  -20.0785  -10.5153 C   0  0  0  0  0  0  0  0  0  0  0  0
   24.8435  -18.9444  -11.0117 O   0  0  0  0  0  0  0  0  0  0  0  0
   18.8581  -22.9841  -14.4595 N   0  0  0  0  0  0  0  0  0  0  0  0
   19.6404  -22.7143  -15.6355 C   0  0  0  0  0  0  0  0  0  0  0  0
   18.9650  -22.3935  -16.6906 N   0  0  0  0  0  0  0  0  0  0  0  0
   21.0496  -22.7956  -15.6320 N   0  0  0  0  0  0  0  0  0  0  0  0
   21.7396  -23.0727  -14.4016 C   0  0  0  0  0  0  0  0  0  0  0  0
   21.6426  -21.8866  -13.4371 C   0  0  0  0  0  0  0  0  0  0  0  0
   22.8374  -21.8970  -12.5510 C   0  0  0  0  0  0  0  0  0  0  0  0
   22.8713  -20.8315  -11.5083 C   0  0  2  0  0  0  0  0  0  0  0  0
   24.0387  -21.0383  -10.6315 N   0  0  0  0  0  0  0  0  0  0  0  0
   21.6482  -20.8435  -10.6960 C   0  0  0  0  0  0  0  0  0  0  0  0
   21.7136  -21.2942   -9.4985 O   0  0  0  0  0  0  0  0  0  0  0  0
   20.4298  -20.3958  -11.1462 O   0  0  0  0  0  0  0  0  0  0  0  0
  2  1  1  6
  2  3  1  0
  4  2  1  0
  4  6  1  0
  4  5  1  6
  6 13  1  0
  7  6  2  0
  9  8  1  1
 10  9  1  0
 11  9  1  0
 12 11  1  1
 13 12  1  0
 14 12  1  0
 14 15  2  0
 16 17  1  0
 17 19  1  0
 17 18  2  0
 19 20  1  0
 20 21  1  0
 21 22  1  0
 23 22  1  6
 23 25  1  0
 23 24  1  0
 24 14  1  0
 25 27  1  0
 26 25  2  0
M  END
$$$$
