TLR.pdb
     RDKit          3D

 27 26  0  0  1  0  0  0  0  0999 V2000
   21.2244  -22.4759  -11.6582 C   0  0  0  0  0  0  0  0  0  0  0  0
   21.1428  -21.5321  -10.4992 C   0  0  1  0  0  0  0  0  0  0  0  0
   20.2697  -22.0135   -9.5199 O   0  0  0  0  0  0  0  0  0  0  0  0
   22.4733  -21.1374   -9.9179 C   0  0  2  0  0  0  0  0  0  0  0  0
   22.2388  -20.3124   -8.7566 N   0  0  0  0  0  0  0  0  0  0  0  0
   23.3600  -20.4842  -10.8821 C   0  0  0  0  0  0  0  0  0  0  0  0
   23.0223  -19.3335  -11.3060 O   0  0  0  0  0  0  0  0  0  0  0  0
   27.7955  -19.1093  -13.5951 C   0  0  0  0  0  0  0  0  0  0  0  0
   27.4991  -20.6153  -13.7666 C   0  0  1  0  0  0  0  0  0  0  0  0
   28.8389  -21.2651  -13.9019 C   0  0  0  0  0  0  0  0  0  0  0  0
   26.6932  -21.0035  -12.5919 C   0  0  0  0  0  0  0  0  0  0  0  0
   25.2978  -20.5120  -12.4932 C   0  0  2  0  0  0  0  0  0  0  0  0
   24.5585  -21.0213  -11.3832 N   0  0  0  0  0  0  0  0  0  0  0  0
   24.5474  -20.5928  -13.7735 C   0  0  0  0  0  0  0  0  0  0  0  0
   24.0205  -21.6610  -14.1866 O   0  0  0  0  0  0  0  0  0  0  0  0
   17.4661  -16.6919  -15.4710 N   0  0  0  0  0  0  0  0  0  0  0  0
   17.6887  -17.3725  -16.7180 C   0  0  0  0  0  0  0  0  0  0  0  0
   16.7260  -17.2872  -17.5772 N   0  0  0  0  0  0  0  0  0  0  0  0
   18.8796  -18.0835  -16.9805 N   0  0  0  0  0  0  0  0  0  0  0  0
   19.8905  -18.1715  -15.9622 C   0  0  0  0  0  0  0  0  0  0  0  0
   21.1691  -18.8129  -16.5101 C   0  0  0  0  0  0  0  0  0  0  0  0
   22.1552  -18.9263  -15.4021 C   0  0  0  0  0  0  0  0  0  0  0  0
   23.4919  -19.4642  -15.7863 C   0  0  2  0  0  0  0  0  0  0  0  0
   24.3820  -19.4552  -14.6107 N   0  0  0  0  0  0  0  0  0  0  0  0
   24.0984  -18.6652  -16.8584 C   0  0  0  0  0  0  0  0  0  0  0  0
   23.8939  -19.0164  -18.0734 O   0  0  0  0  0  0  0  0  0  0  0  0
   24.8762  -17.5549  -16.6348 O   0  0  0  0  0  0  0  0  0  0  0  0
  2  1  1  6
  2  3  1  0
  4  2  1  0
  4  6  1  0
  4  5  1  1
  6 13  1  0
  7  6  2  0
  9  8  1  1
 10  9  1  0
 11  9  1  0
 12 11  1  6
 13 12  1  0
 14 12  1  0
 14 15  2  0
 16 17  1  0
 17 19  1  0
 17 18  2  0
 19 20  1  0
 20 21  1  0
 21 22  1  0
 23 22  1  1
 23 25  1  0
 23 24  1  0
 24 14  1  0
 25 27  1  0
 26 25  2  0
M  END
$$$$
