TLR.pdb
     RDKit          3D

 27 26  0  0  1  0  0  0  0  0999 V2000
   32.2390  -34.1538    5.5307 C   0  0  0  0  0  0  0  0  0  0  0  0
   31.1440  -33.1337    5.5652 C   0  0  1  0  0  0  0  0  0  0  0  0
   30.3534  -33.2839    6.7078 O   0  0  0  0  0  0  0  0  0  0  0  0
   31.6057  -31.7129    5.3867 C   0  0  2  0  0  0  0  0  0  0  0  0
   30.4433  -30.8602    5.3085 N   0  0  0  0  0  0  0  0  0  0  0  0
   32.4962  -31.5291    4.2396 C   0  0  0  0  0  0  0  0  0  0  0  0
   31.9668  -31.4947    3.0836 O   0  0  0  0  0  0  0  0  0  0  0  0
   37.0664  -28.2773    4.1542 C   0  0  0  0  0  0  0  0  0  0  0  0
   35.6848  -28.8675    3.7960 C   0  0  1  0  0  0  0  0  0  0  0  0
   35.1692  -28.0106    2.6844 C   0  0  0  0  0  0  0  0  0  0  0  0
   35.9245  -30.2889    3.4765 C   0  0  0  0  0  0  0  0  0  0  0  0
   34.7589  -31.1603    3.1928 C   0  0  2  0  0  0  0  0  0  0  0  0
   33.8932  -31.3869    4.3051 N   0  0  0  0  0  0  0  0  0  0  0  0
   35.1134  -32.4108    2.4720 C   0  0  0  0  0  0  0  0  0  0  0  0
   35.3647  -33.4921    3.0695 O   0  0  0  0  0  0  0  0  0  0  0  0
   33.5313  -34.4144   -5.8876 N   0  0  0  0  0  0  0  0  0  0  0  0
   32.8445  -34.5872   -4.6361 C   0  0  0  0  0  0  0  0  0  0  0  0
   31.5541  -34.6269   -4.7113 N   0  0  0  0  0  0  0  0  0  0  0  0
   33.5375  -34.7049   -3.4120 N   0  0  0  0  0  0  0  0  0  0  0  0
   34.9533  -34.4586   -3.3735 C   0  0  0  0  0  0  0  0  0  0  0  0
   35.5177  -34.7095   -1.9718 C   0  0  0  0  0  0  0  0  0  0  0  0
   35.1136  -33.5824   -1.0891 C   0  0  0  0  0  0  0  0  0  0  0  0
   35.5901  -33.6701    0.3212 C   0  0  2  0  0  0  0  0  0  0  0  0
   35.1888  -32.4542    1.0525 N   0  0  0  0  0  0  0  0  0  0  0  0
   37.0504  -33.8108    0.3812 C   0  0  0  0  0  0  0  0  0  0  0  0
   37.7588  -32.7605    0.5719 O   0  0  0  0  0  0  0  0  0  0  0  0
   37.7068  -35.0102    0.2455 O   0  0  0  0  0  0  0  0  0  0  0  0
  2  1  1  1
  2  3  1  0
  4  2  1  0
  4  6  1  0
  4  5  1  6
  6 13  1  0
  7  6  2  0
  9  8  1  6
 10  9  1  0
 11  9  1  0
 12 11  1  1
 13 12  1  0
 14 12  1  0
 14 15  2  0
 16 17  1  0
 17 19  1  0
 17 18  2  0
 19 20  1  0
 20 21  1  0
 21 22  1  0
 23 22  1  6
 23 25  1  0
 23 24  1  0
 24 14  1  0
 25 27  1  0
 26 25  2  0
M  END
$$$$
