TLR.pdb
     RDKit          3D

 27 26  0  0  1  0  0  0  0  0999 V2000
   28.8074  -18.2615  -15.2502 C   0  0  0  0  0  0  0  0  0  0  0  0
   27.7429  -19.0119  -14.5121 C   0  0  1  0  0  0  0  0  0  0  0  0
   26.6517  -19.2824  -15.3423 O   0  0  0  0  0  0  0  0  0  0  0  0
   28.2255  -20.2472  -13.8016 C   0  0  2  0  0  0  0  0  0  0  0  0
   28.6563  -21.2058  -14.7915 N   0  0  0  0  0  0  0  0  0  0  0  0
   27.2366  -20.8159  -12.8844 C   0  0  0  0  0  0  0  0  0  0  0  0
   26.5889  -21.8376  -13.2775 O   0  0  0  0  0  0  0  0  0  0  0  0
   26.8441  -19.3587   -7.4113 C   0  0  0  0  0  0  0  0  0  0  0  0
   27.0768  -20.2143   -8.6759 C   0  0  1  0  0  0  0  0  0  0  0  0
   27.5106  -21.5524   -8.1690 C   0  0  0  0  0  0  0  0  0  0  0  0
   25.8074  -20.1738   -9.4288 C   0  0  0  0  0  0  0  0  0  0  0  0
   25.7920  -20.6753  -10.8242 C   0  0  2  0  0  0  0  0  0  0  0  0
   26.9388  -20.3281  -11.6001 N   0  0  0  0  0  0  0  0  0  0  0  0
   24.5128  -20.4152  -11.5348 C   0  0  0  0  0  0  0  0  0  0  0  0
   24.2488  -19.3078  -12.0764 O   0  0  0  0  0  0  0  0  0  0  0  0
   19.1177  -26.1475  -14.8658 N   0  0  0  0  0  0  0  0  0  0  0  0
   18.7673  -24.9993  -15.6574 C   0  0  0  0  0  0  0  0  0  0  0  0
   17.6665  -25.1019  -16.3282 N   0  0  0  0  0  0  0  0  0  0  0  0
   19.5744  -23.8418  -15.6954 N   0  0  0  0  0  0  0  0  0  0  0  0
   20.7635  -23.7811  -14.8898 C   0  0  0  0  0  0  0  0  0  0  0  0
   20.8505  -22.4503  -14.1364 C   0  0  0  0  0  0  0  0  0  0  0  0
   22.0635  -22.4711  -13.2756 C   0  0  0  0  0  0  0  0  0  0  0  0
   22.3039  -21.2349  -12.4769 C   0  0  2  0  0  0  0  0  0  0  0  0
   23.5065  -21.4144  -11.6428 N   0  0  0  0  0  0  0  0  0  0  0  0
   21.1570  -20.9291  -11.6125 C   0  0  0  0  0  0  0  0  0  0  0  0
   21.2680  -21.1360  -10.3530 O   0  0  0  0  0  0  0  0  0  0  0  0
   19.9644  -20.4296  -12.0769 O   0  0  0  0  0  0  0  0  0  0  0  0
  2  1  1  6
  2  3  1  0
  4  2  1  0
  4  6  1  0
  4  5  1  6
  6 13  1  0
  7  6  2  0
  9  8  1  1
 10  9  1  0
 11  9  1  0
 12 11  1  1
 13 12  1  0
 14 12  1  0
 14 15  2  0
 16 17  1  0
 17 19  1  0
 17 18  2  0
 19 20  1  0
 20 21  1  0
 21 22  1  0
 23 22  1  1
 23 25  1  0
 23 24  1  0
 24 14  1  0
 25 27  1  0
 26 25  2  0
M  END
$$$$
