TLR.pdb
     RDKit          3D

 27 26  0  0  1  0  0  0  0  0999 V2000
   20.3740  -23.5168   -9.9063 C   0  0  0  0  0  0  0  0  0  0  0  0
   20.0459  -22.9702   -8.5519 C   0  0  1  0  0  0  0  0  0  0  0  0
   19.2653  -23.8710   -7.8223 O   0  0  0  0  0  0  0  0  0  0  0  0
   21.2355  -22.4939   -7.7635 C   0  0  2  0  0  0  0  0  0  0  0  0
   20.7723  -22.0037   -6.4870 N   0  0  0  0  0  0  0  0  0  0  0  0
   22.0430  -21.4986   -8.4707 C   0  0  0  0  0  0  0  0  0  0  0  0
   21.5074  -20.3703   -8.7115 O   0  0  0  0  0  0  0  0  0  0  0  0
   27.6017  -20.5636   -8.3305 C   0  0  0  0  0  0  0  0  0  0  0  0
   26.0711  -20.3704   -8.2570 C   0  0  1  0  0  0  0  0  0  0  0  0
   25.8750  -18.9367   -7.8807 C   0  0  0  0  0  0  0  0  0  0  0  0
   25.5492  -20.7840   -9.5749 C   0  0  0  0  0  0  0  0  0  0  0  0
   24.0813  -20.8089   -9.7824 C   0  0  2  0  0  0  0  0  0  0  0  0
   23.3658  -21.6827   -8.9093 N   0  0  0  0  0  0  0  0  0  0  0  0
   23.6852  -20.9629  -11.2065 C   0  0  0  0  0  0  0  0  0  0  0  0
   23.6313  -22.0844  -11.7798 O   0  0  0  0  0  0  0  0  0  0  0  0
   23.1824  -16.5698  -17.8467 N   0  0  0  0  0  0  0  0  0  0  0  0
   21.8059  -16.9188  -18.0733 C   0  0  0  0  0  0  0  0  0  0  0  0
   21.4363  -16.9457  -19.3121 N   0  0  0  0  0  0  0  0  0  0  0  0
   20.9233  -17.2112  -17.0112 N   0  0  0  0  0  0  0  0  0  0  0  0
   21.4276  -17.2654  -15.6661 C   0  0  0  0  0  0  0  0  0  0  0  0
   21.8965  -18.6796  -15.3106 C   0  0  0  0  0  0  0  0  0  0  0  0
   22.3996  -18.6747  -13.9107 C   0  0  0  0  0  0  0  0  0  0  0  0
   22.9559  -19.9702  -13.4250 C   0  0  2  0  0  0  0  0  0  0  0  0
   23.3416  -19.8393  -12.0078 N   0  0  0  0  0  0  0  0  0  0  0  0
   24.1294  -20.3727  -14.2105 C   0  0  0  0  0  0  0  0  0  0  0  0
   25.2946  -20.1063  -13.7495 O   0  0  0  0  0  0  0  0  0  0  0  0
   24.0515  -21.0237  -15.4179 O   0  0  0  0  0  0  0  0  0  0  0  0
  2  1  1  6
  2  3  1  0
  4  2  1  0
  4  6  1  0
  4  5  1  1
  6 13  1  0
  7  6  2  0
  9  8  1  6
 10  9  1  0
 11  9  1  0
 12 11  1  6
 13 12  1  0
 14 12  1  0
 14 15  2  0
 16 17  1  0
 17 19  1  0
 17 18  2  0
 19 20  1  0
 20 21  1  0
 21 22  1  0
 23 22  1  6
 23 25  1  0
 23 24  1  0
 24 14  1  0
 25 27  1  0
 26 25  2  0
M  END
$$$$
