TLR.pdb
     RDKit          3D

 27 26  0  0  1  0  0  0  0  0999 V2000
   28.7554  -18.9369  -15.0233 C   0  0  0  0  0  0  0  0  0  0  0  0
   28.0756  -19.4802  -13.8053 C   0  0  1  0  0  0  0  0  0  0  0  0
   26.7163  -19.6997  -14.0445 O   0  0  0  0  0  0  0  0  0  0  0  0
   28.7404  -20.6882  -13.2032 C   0  0  2  0  0  0  0  0  0  0  0  0
   28.7157  -21.7560  -14.1746 N   0  0  0  0  0  0  0  0  0  0  0  0
   28.1565  -21.0987  -11.9252 C   0  0  0  0  0  0  0  0  0  0  0  0
   27.3479  -22.0805  -11.9363 O   0  0  0  0  0  0  0  0  0  0  0  0
   28.6162  -19.9609   -5.8652 C   0  0  0  0  0  0  0  0  0  0  0  0
   27.6208  -20.4133   -6.9561 C   0  0  1  0  0  0  0  0  0  0  0  0
   26.4057  -19.5661   -6.7531 C   0  0  0  0  0  0  0  0  0  0  0  0
   28.3305  -20.2521   -8.2408 C   0  0  0  0  0  0  0  0  0  0  0  0
   27.6669  -20.7166   -9.4828 C   0  0  2  0  0  0  0  0  0  0  0  0
   28.4129  -20.4985  -10.6802 N   0  0  0  0  0  0  0  0  0  0  0  0
   26.2500  -20.2828   -9.5973 C   0  0  0  0  0  0  0  0  0  0  0  0
   25.9176  -19.0741   -9.7314 O   0  0  0  0  0  0  0  0  0  0  0  0
   19.3364  -22.5408  -14.1772 N   0  0  0  0  0  0  0  0  0  0  0  0
   20.1488  -21.4518  -14.6483 C   0  0  0  0  0  0  0  0  0  0  0  0
   19.6040  -20.7018  -15.5500 N   0  0  0  0  0  0  0  0  0  0  0  0
   21.4517  -21.2224  -14.1561 N   0  0  0  0  0  0  0  0  0  0  0  0
   21.9772  -22.0711  -13.1216 C   0  0  0  0  0  0  0  0  0  0  0  0
   22.1307  -21.3033  -11.8050 C   0  0  0  0  0  0  0  0  0  0  0  0
   23.5034  -21.5327  -11.2795 C   0  0  0  0  0  0  0  0  0  0  0  0
   23.8111  -20.8697   -9.9797 C   0  0  2  0  0  0  0  0  0  0  0  0
   25.1810  -21.2200   -9.5611 N   0  0  0  0  0  0  0  0  0  0  0  0
   22.8656  -21.2831   -8.9351 C   0  0  0  0  0  0  0  0  0  0  0  0
   23.3037  -21.9839   -7.9562 O   0  0  0  0  0  0  0  0  0  0  0  0
   21.5304  -20.9596   -8.9444 O   0  0  0  0  0  0  0  0  0  0  0  0
  2  1  1  6
  2  3  1  0
  4  2  1  0
  4  6  1  0
  4  5  1  6
  6 13  1  0
  7  6  2  0
  9  8  1  1
 10  9  1  0
 11  9  1  0
 12 11  1  1
 13 12  1  0
 14 12  1  0
 14 15  2  0
 16 17  1  0
 17 19  1  0
 17 18  2  0
 19 20  1  0
 20 21  1  0
 21 22  1  0
 23 22  1  6
 23 25  1  0
 23 24  1  0
 24 14  1  0
 25 27  1  0
 26 25  2  0
M  END
$$$$
