TLR.pdb
     RDKit          3D

 27 26  0  0  1  0  0  0  0  0999 V2000
   24.9106  -10.2464  -14.5216 C   0  0  0  0  0  0  0  0  0  0  0  0
   26.1967   -9.9160  -15.2128 C   0  0  1  0  0  0  0  0  0  0  0  0
   27.2897  -10.4409  -14.5178 O   0  0  0  0  0  0  0  0  0  0  0  0
   26.2346  -10.2790  -16.6724 C   0  0  2  0  0  0  0  0  0  0  0  0
   27.4996   -9.8480  -17.2186 N   0  0  0  0  0  0  0  0  0  0  0  0
   25.1020   -9.7502  -17.4342 C   0  0  0  0  0  0  0  0  0  0  0  0
   25.2471   -8.6172  -17.9937 O   0  0  0  0  0  0  0  0  0  0  0  0
   21.4332   -9.3204  -21.0844 C   0  0  0  0  0  0  0  0  0  0  0  0
   20.9136  -10.3024  -20.0115 C   0  0  1  0  0  0  0  0  0  0  0  0
   20.1518  -11.3425  -20.7688 C   0  0  0  0  0  0  0  0  0  0  0  0
   22.1076  -10.7641  -19.2758 C   0  0  0  0  0  0  0  0  0  0  0  0
   22.7343   -9.8491  -18.2917 C   0  0  2  0  0  0  0  0  0  0  0  0
   23.8612  -10.3893  -17.6018 N   0  0  0  0  0  0  0  0  0  0  0  0
   21.7575   -9.1965  -17.3813 C   0  0  0  0  0  0  0  0  0  0  0  0
   21.2401   -9.7932  -16.3987 O   0  0  0  0  0  0  0  0  0  0  0  0
   21.4608   -5.9106  -10.2734 N   0  0  0  0  0  0  0  0  0  0  0  0
   20.0732   -5.8438  -10.6445 C   0  0  0  0  0  0  0  0  0  0  0  0
   19.2410   -5.7159   -9.6630 N   0  0  0  0  0  0  0  0  0  0  0  0
   19.6543   -5.9135  -11.9907 N   0  0  0  0  0  0  0  0  0  0  0  0
   20.5195   -6.5104  -12.9713 C   0  0  0  0  0  0  0  0  0  0  0  0
   19.8909   -6.4542  -14.3670 C   0  0  0  0  0  0  0  0  0  0  0  0
   20.8330   -7.0746  -15.3368 C   0  0  0  0  0  0  0  0  0  0  0  0
   20.3218   -7.2076  -16.7314 C   0  0  2  0  0  0  0  0  0  0  0  0
   21.3497   -7.8476  -17.5730 N   0  0  0  0  0  0  0  0  0  0  0  0
   19.9787   -5.8977  -17.2991 C   0  0  0  0  0  0  0  0  0  0  0  0
   20.6515   -5.4706  -18.3022 O   0  0  0  0  0  0  0  0  0  0  0  0
   18.9713   -5.0980  -16.8161 O   0  0  0  0  0  0  0  0  0  0  0  0
  2  1  1  1
  2  3  1  0
  4  2  1  0
  4  6  1  0
  4  5  1  6
  6 13  1  0
  7  6  2  0
  9  8  1  6
 10  9  1  0
 11  9  1  0
 12 11  1  1
 13 12  1  0
 14 12  1  0
 14 15  2  0
 16 17  1  0
 17 19  1  0
 17 18  2  0
 19 20  1  0
 20 21  1  0
 21 22  1  0
 23 22  1  1
 23 25  1  0
 23 24  1  0
 24 14  1  0
 25 27  1  0
 26 25  2  0
M  END
$$$$
