TLR.pdb
     RDKit          3D

 27 26  0  0  1  0  0  0  0  0999 V2000
   28.1840  -22.3290  -18.9458 C   0  0  0  0  0  0  0  0  0  0  0  0
   27.1122  -21.6049  -18.1922 C   0  0  1  0  0  0  0  0  0  0  0  0
   25.9444  -22.3692  -18.1211 O   0  0  0  0  0  0  0  0  0  0  0  0
   27.5318  -21.0965  -16.8398 C   0  0  2  0  0  0  0  0  0  0  0  0
   27.9886  -22.2162  -16.0513 N   0  0  0  0  0  0  0  0  0  0  0  0
   26.4868  -20.3350  -16.1534 C   0  0  0  0  0  0  0  0  0  0  0  0
   25.9822  -20.8440  -15.1027 O   0  0  0  0  0  0  0  0  0  0  0  0
   27.0333  -16.6958  -14.9145 C   0  0  0  0  0  0  0  0  0  0  0  0
   25.7056  -15.9805  -15.2478 C   0  0  1  0  0  0  0  0  0  0  0  0
   26.1055  -14.6463  -15.7918 C   0  0  0  0  0  0  0  0  0  0  0  0
   24.9841  -16.8798  -16.1701 C   0  0  0  0  0  0  0  0  0  0  0  0
   24.9776  -18.3348  -15.8846 C   0  0  2  0  0  0  0  0  0  0  0  0
   25.9898  -19.0836  -16.5572 N   0  0  0  0  0  0  0  0  0  0  0  0
   23.6314  -18.9554  -15.9925 C   0  0  0  0  0  0  0  0  0  0  0  0
   23.2436  -19.5625  -17.0270 O   0  0  0  0  0  0  0  0  0  0  0  0
   17.0434  -22.5181  -12.3389 N   0  0  0  0  0  0  0  0  0  0  0  0
   18.0438  -23.5296  -12.5485 C   0  0  0  0  0  0  0  0  0  0  0  0
   17.5926  -24.7268  -12.7368 N   0  0  0  0  0  0  0  0  0  0  0  0
   19.4231  -23.2297  -12.5477 N   0  0  0  0  0  0  0  0  0  0  0  0
   19.8528  -21.8749  -12.3321 C   0  0  0  0  0  0  0  0  0  0  0  0
   19.8863  -21.0921  -13.6483 C   0  0  0  0  0  0  0  0  0  0  0  0
   21.1871  -20.3763  -13.7414 C   0  0  0  0  0  0  0  0  0  0  0  0
   21.3874  -19.5695  -14.9794 C   0  0  2  0  0  0  0  0  0  0  0  0
   22.6981  -18.8964  -14.9210 N   0  0  0  0  0  0  0  0  0  0  0  0
   20.3319  -18.5604  -15.1330 C   0  0  0  0  0  0  0  0  0  0  0  0
   20.5507  -17.3754  -14.6978 O   0  0  0  0  0  0  0  0  0  0  0  0
   19.1161  -18.8126  -15.7208 O   0  0  0  0  0  0  0  0  0  0  0  0
  2  1  1  1
  2  3  1  0
  4  2  1  0
  4  6  1  0
  4  5  1  1
  6 13  1  0
  7  6  2  0
  9  8  1  6
 10  9  1  0
 11  9  1  0
 12 11  1  6
 13 12  1  0
 14 12  1  0
 14 15  2  0
 16 17  1  0
 17 19  1  0
 17 18  2  0
 19 20  1  0
 20 21  1  0
 21 22  1  0
 23 22  1  1
 23 25  1  0
 23 24  1  0
 24 14  1  0
 25 27  1  0
 26 25  2  0
M  END
$$$$
