TLR.pdb
     RDKit          3D

 27 26  0  0  1  0  0  0  0  0999 V2000
   31.0904  -26.0617  -19.1555 C   0  0  0  0  0  0  0  0  0  0  0  0
   30.3897  -24.8898  -18.5418 C   0  0  1  0  0  0  0  0  0  0  0  0
   29.2026  -25.2843  -17.9187 O   0  0  0  0  0  0  0  0  0  0  0  0
   31.2478  -24.0526  -17.6327 C   0  0  2  0  0  0  0  0  0  0  0  0
   31.8042  -24.9087  -16.6120 N   0  0  0  0  0  0  0  0  0  0  0  0
   30.5426  -22.9054  -17.0588 C   0  0  0  0  0  0  0  0  0  0  0  0
   30.2934  -22.9319  -15.8119 O   0  0  0  0  0  0  0  0  0  0  0  0
   30.3925  -17.5020  -19.1466 C   0  0  0  0  0  0  0  0  0  0  0  0
   30.7077  -18.6835  -18.2032 C   0  0  1  0  0  0  0  0  0  0  0  0
   31.2639  -18.0578  -16.9643 C   0  0  0  0  0  0  0  0  0  0  0  0
   29.4419  -19.4291  -18.0547 C   0  0  0  0  0  0  0  0  0  0  0  0
   29.4301  -20.6493  -17.2124 C   0  0  2  0  0  0  0  0  0  0  0  0
   30.1143  -21.7711  -17.7702 N   0  0  0  0  0  0  0  0  0  0  0  0
   28.0835  -20.9959  -16.6875 C   0  0  0  0  0  0  0  0  0  0  0  0
   27.2817  -21.7418  -17.3120 O   0  0  0  0  0  0  0  0  0  0  0  0
   25.5302  -20.2323   -9.0751 N   0  0  0  0  0  0  0  0  0  0  0  0
   24.3028  -20.7906   -9.5746 C   0  0  0  0  0  0  0  0  0  0  0  0
   23.2220  -20.3245   -9.0391 N   0  0  0  0  0  0  0  0  0  0  0  0
   24.2856  -21.7799  -10.5814 N   0  0  0  0  0  0  0  0  0  0  0  0
   25.3246  -21.7970  -11.5748 C   0  0  0  0  0  0  0  0  0  0  0  0
   24.9956  -20.8483  -12.7316 C   0  0  0  0  0  0  0  0  0  0  0  0
   26.2596  -20.5030  -13.4358 C   0  0  0  0  0  0  0  0  0  0  0  0
   26.3044  -20.8581  -14.8834 C   0  0  2  0  0  0  0  0  0  0  0  0
   27.6226  -20.4981  -15.4376 N   0  0  0  0  0  0  0  0  0  0  0  0
   25.2559  -20.1574  -15.6354 C   0  0  0  0  0  0  0  0  0  0  0  0
   25.5523  -19.0538  -16.2147 O   0  0  0  0  0  0  0  0  0  0  0  0
   23.9674  -20.6187  -15.7568 O   0  0  0  0  0  0  0  0  0  0  0  0
  2  1  1  1
  2  3  1  0
  4  2  1  0
  4  6  1  0
  4  5  1  1
  6 13  1  0
  7  6  2  0
  9  8  1  6
 10  9  1  0
 11  9  1  0
 12 11  1  6
 13 12  1  0
 14 12  1  0
 14 15  2  0
 16 17  1  0
 17 19  1  0
 17 18  2  0
 19 20  1  0
 20 21  1  0
 21 22  1  0
 23 22  1  1
 23 25  1  0
 23 24  1  0
 24 14  1  0
 25 27  1  0
 26 25  2  0
M  END
$$$$
