TLR.pdb
     RDKit          3D

 27 26  0  0  1  0  0  0  0  0999 V2000
   28.9508  -19.7628  -12.4207 C   0  0  0  0  0  0  0  0  0  0  0  0
   29.8407  -20.9663  -12.4416 C   0  0  1  0  0  0  0  0  0  0  0  0
   30.7543  -20.8971  -13.4969 O   0  0  0  0  0  0  0  0  0  0  0  0
   30.5190  -21.2666  -11.1327 C   0  0  2  0  0  0  0  0  0  0  0  0
   31.3029  -22.4689  -11.2886 N   0  0  0  0  0  0  0  0  0  0  0  0
   29.5919  -21.3614  -10.0039 C   0  0  0  0  0  0  0  0  0  0  0  0
   28.8133  -22.3664   -9.9651 O   0  0  0  0  0  0  0  0  0  0  0  0
   27.9838  -20.4757   -4.6567 C   0  0  0  0  0  0  0  0  0  0  0  0
   27.6878  -19.4277   -5.7519 C   0  0  1  0  0  0  0  0  0  0  0  0
   27.6544  -18.1142   -5.0382 C   0  0  0  0  0  0  0  0  0  0  0  0
   28.7439  -19.5990   -6.7694 C   0  0  0  0  0  0  0  0  0  0  0  0
   28.4363  -20.3856   -7.9881 C   0  0  2  0  0  0  0  0  0  0  0  0
   29.4865  -20.4329   -8.9537 N   0  0  0  0  0  0  0  0  0  0  0  0
   27.1149  -20.0617   -8.5864 C   0  0  0  0  0  0  0  0  0  0  0  0
   26.7850  -18.8893   -8.9122 O   0  0  0  0  0  0  0  0  0  0  0  0
   25.3263  -22.3601  -15.4090 N   0  0  0  0  0  0  0  0  0  0  0  0
   23.9051  -22.2202  -15.2404 C   0  0  0  0  0  0  0  0  0  0  0  0
   23.1796  -22.7814  -16.1519 N   0  0  0  0  0  0  0  0  0  0  0  0
   23.3462  -21.5167  -14.1517 N   0  0  0  0  0  0  0  0  0  0  0  0
   24.2072  -21.0174  -13.1144 C   0  0  0  0  0  0  0  0  0  0  0  0
   23.7633  -21.5248  -11.7390 C   0  0  0  0  0  0  0  0  0  0  0  0
   24.9618  -21.6347  -10.8646 C   0  0  0  0  0  0  0  0  0  0  0  0
   24.9231  -20.8166   -9.6184 C   0  0  2  0  0  0  0  0  0  0  0  0
   26.1407  -21.0696   -8.8261 N   0  0  0  0  0  0  0  0  0  0  0  0
   23.7425  -21.1390   -8.8072 C   0  0  0  0  0  0  0  0  0  0  0  0
   23.9009  -21.8453   -7.7502 O   0  0  0  0  0  0  0  0  0  0  0  0
   22.4695  -20.7241   -9.1156 O   0  0  0  0  0  0  0  0  0  0  0  0
  2  1  1  1
  2  3  1  0
  4  2  1  0
  4  6  1  0
  4  5  1  6
  6 13  1  0
  7  6  2  0
  9  8  1  1
 10  9  1  0
 11  9  1  0
 12 11  1  1
 13 12  1  0
 14 12  1  0
 14 15  2  0
 16 17  1  0
 17 19  1  0
 17 18  2  0
 19 20  1  0
 20 21  1  0
 21 22  1  0
 23 22  1  6
 23 25  1  0
 23 24  1  0
 24 14  1  0
 25 27  1  0
 26 25  2  0
M  END
$$$$
