TLR.pdb
     RDKit          3D

 27 26  0  0  1  0  0  0  0  0999 V2000
   28.7480  -18.3669  -14.5708 C   0  0  0  0  0  0  0  0  0  0  0  0
   27.7980  -19.1384  -13.7087 C   0  0  1  0  0  0  0  0  0  0  0  0
   26.6813  -19.5540  -14.4391 O   0  0  0  0  0  0  0  0  0  0  0  0
   28.4245  -20.2754  -12.9483 C   0  0  2  0  0  0  0  0  0  0  0  0
   28.8747  -21.2670  -13.8961 N   0  0  0  0  0  0  0  0  0  0  0  0
   27.5434  -20.8520  -11.9313 C   0  0  0  0  0  0  0  0  0  0  0  0
   26.9108  -21.9130  -12.2344 O   0  0  0  0  0  0  0  0  0  0  0  0
   27.4596  -19.2501   -6.4810 C   0  0  0  0  0  0  0  0  0  0  0  0
   27.6031  -20.1342   -7.7392 C   0  0  1  0  0  0  0  0  0  0  0  0
   28.0134  -21.4783   -7.2286 C   0  0  0  0  0  0  0  0  0  0  0  0
   26.3020  -20.0612   -8.4334 C   0  0  0  0  0  0  0  0  0  0  0  0
   26.2017  -20.5932   -9.8138 C   0  0  2  0  0  0  0  0  0  0  0  0
   27.3345  -20.3318  -10.6422 N   0  0  0  0  0  0  0  0  0  0  0  0
   24.9121  -20.2753  -10.4808 C   0  0  0  0  0  0  0  0  0  0  0  0
   24.6115  -19.1112  -10.8600 O   0  0  0  0  0  0  0  0  0  0  0  0
   20.1964  -25.6759  -13.7857 N   0  0  0  0  0  0  0  0  0  0  0  0
   19.6771  -24.7282  -14.7344 C   0  0  0  0  0  0  0  0  0  0  0  0
   18.4871  -24.9780  -15.1746 N   0  0  0  0  0  0  0  0  0  0  0  0
   20.4206  -23.6037  -15.1526 N   0  0  0  0  0  0  0  0  0  0  0  0
   21.6838  -23.3182  -14.5285 C   0  0  0  0  0  0  0  0  0  0  0  0
   21.5597  -22.1519  -13.5432 C   0  0  0  0  0  0  0  0  0  0  0  0
   22.7437  -22.1638  -12.6427 C   0  0  0  0  0  0  0  0  0  0  0  0
   22.7956  -21.0634  -11.6377 C   0  0  2  0  0  0  0  0  0  0  0  0
   23.9369  -21.2802  -10.7295 N   0  0  0  0  0  0  0  0  0  0  0  0
   21.5569  -21.0023  -10.8517 C   0  0  0  0  0  0  0  0  0  0  0  0
   21.5838  -21.4040   -9.6355 O   0  0  0  0  0  0  0  0  0  0  0  0
   20.3630  -20.5354  -11.3459 O   0  0  0  0  0  0  0  0  0  0  0  0
  2  1  1  6
  2  3  1  0
  4  2  1  0
  4  6  1  0
  4  5  1  6
  6 13  1  0
  7  6  2  0
  9  8  1  1
 10  9  1  0
 11  9  1  0
 12 11  1  1
 13 12  1  0
 14 12  1  0
 14 15  2  0
 16 17  1  0
 17 19  1  0
 17 18  2  0
 19 20  1  0
 20 21  1  0
 21 22  1  0
 23 22  1  6
 23 25  1  0
 23 24  1  0
 24 14  1  0
 25 27  1  0
 26 25  2  0
M  END
$$$$
