TLR.pdb
     RDKit          3D

 27 26  0  0  1  0  0  0  0  0999 V2000
   24.4273  -20.7167  -20.2818 C   0  0  0  0  0  0  0  0  0  0  0  0
   24.0810  -19.4165  -19.6257 C   0  0  1  0  0  0  0  0  0  0  0  0
   22.7236  -19.3654  -19.2973 O   0  0  0  0  0  0  0  0  0  0  0  0
   24.9541  -19.0533  -18.4555 C   0  0  2  0  0  0  0  0  0  0  0  0
   24.8437  -20.0944  -17.4614 N   0  0  0  0  0  0  0  0  0  0  0  0
   24.6613  -17.7320  -17.8977 C   0  0  0  0  0  0  0  0  0  0  0  0
   23.6858  -17.6389  -17.0868 O   0  0  0  0  0  0  0  0  0  0  0  0
   28.3182  -13.5508  -16.8524 C   0  0  0  0  0  0  0  0  0  0  0  0
   27.2177  -14.6104  -16.6253 C   0  0  1  0  0  0  0  0  0  0  0  0
   26.8546  -14.4943  -15.1795 C   0  0  0  0  0  0  0  0  0  0  0  0
   26.1528  -14.3005  -17.6000 C   0  0  0  0  0  0  0  0  0  0  0  0
   25.0154  -15.2422  -17.7338 C   0  0  2  0  0  0  0  0  0  0  0  0
   25.3683  -16.5507  -18.1822 N   0  0  0  0  0  0  0  0  0  0  0  0
   23.8557  -14.6725  -18.4683 C   0  0  0  0  0  0  0  0  0  0  0  0
   23.7496  -14.7325  -19.7232 O   0  0  0  0  0  0  0  0  0  0  0  0
   16.2925  -16.3946  -19.5035 N   0  0  0  0  0  0  0  0  0  0  0  0
   15.9573  -15.2281  -18.7324 C   0  0  0  0  0  0  0  0  0  0  0  0
   14.7221  -15.1451  -18.3586 N   0  0  0  0  0  0  0  0  0  0  0  0
   16.9160  -14.2439  -18.4087 N   0  0  0  0  0  0  0  0  0  0  0  0
   18.2876  -14.4385  -18.7927 C   0  0  0  0  0  0  0  0  0  0  0  0
   19.1426  -13.2253  -18.4138 C   0  0  0  0  0  0  0  0  0  0  0  0
   20.3899  -13.7087  -17.7630 C   0  0  0  0  0  0  0  0  0  0  0  0
   21.6527  -13.4137  -18.4992 C   0  0  2  0  0  0  0  0  0  0  0  0
   22.7912  -14.0216  -17.7860 N   0  0  0  0  0  0  0  0  0  0  0  0
   21.8732  -11.9669  -18.6181 C   0  0  0  0  0  0  0  0  0  0  0  0
   22.7680  -11.4220  -17.8808 O   0  0  0  0  0  0  0  0  0  0  0  0
   21.1733  -11.1576  -19.4799 O   0  0  0  0  0  0  0  0  0  0  0  0
  2  1  1  1
  2  3  1  0
  4  2  1  0
  4  6  1  0
  4  5  1  1
  6 13  1  0
  7  6  2  0
  9  8  1  6
 10  9  1  0
 11  9  1  0
 12 11  1  6
 13 12  1  0
 14 12  1  0
 14 15  2  0
 16 17  1  0
 17 19  1  0
 17 18  2  0
 19 20  1  0
 20 21  1  0
 21 22  1  0
 23 22  1  1
 23 25  1  0
 23 24  1  0
 24 14  1  0
 25 27  1  0
 26 25  2  0
M  END
$$$$
