EPW.pdb
     RDKit          3D

 31 33  0  0  1  0  0  0  0  0999 V2000
    7.9816  -18.9329   19.1498 N   0  0  0  0  0  0  0  0  0  0  0  0
    7.4652  -17.9578   20.0884 C   0  0  1  0  0  0  0  0  0  0  0  0
    6.7662  -18.7256   21.1663 C   0  0  0  0  0  0  0  0  0  0  0  0
    7.7396  -19.4574   22.0170 C   0  0  0  0  0  0  0  0  0  0  0  0
    6.9712  -20.1487   23.1164 C   0  0  0  0  0  0  0  0  0  0  0  0
    7.3013  -20.0151   24.3142 O   0  0  0  0  0  0  0  0  0  0  0  0
    8.4668  -16.9927   20.5312 C   0  0  0  0  0  0  0  0  0  0  0  0
    9.7058  -17.2889   20.5329 O   0  0  0  0  0  0  0  0  0  0  0  0
    5.8918  -20.9327   22.7478 O   0  0  0  0  0  0  0  0  0  0  0  0
    8.1630  -15.6595   20.9920 N   0  0  0  0  0  0  0  0  0  0  0  0
    6.8130  -15.1943   21.1431 C   0  0  0  0  0  0  0  0  0  0  0  0
    6.9014  -13.7547   21.5113 C   0  0  0  0  0  0  0  0  0  0  0  0
    8.3058  -13.3579   21.1294 C   0  0  0  0  0  0  0  0  0  0  0  0
    9.1102  -14.6457   21.3456 C   0  0  1  0  0  0  0  0  0  0  0  0
    9.4298  -14.6543   22.8066 C   0  0  0  0  0  0  0  0  0  0  0  0
    9.4811  -13.5636   23.4270 O   0  0  0  0  0  0  0  0  0  0  0  0
    9.6777  -15.8432   23.5222 N   0  0  0  0  0  0  0  0  0  0  0  0
   10.1614  -15.9201   24.8739 C   0  0  1  0  0  0  0  0  0  0  0  0
    9.0838  -16.3768   25.8389 C   0  0  0  0  0  0  0  0  0  0  0  0
    7.8902  -15.5106   25.7892 C   0  0  0  0  0  0  0  0  0  0  0  0
    6.6276  -15.9167   25.3830 C   0  0  0  0  0  0  0  0  0  0  0  0
    5.7727  -14.8598   25.4621 N   0  0  0  0  0  0  0  0  0  0  0  0
    6.4406  -13.7818   25.9067 C   0  0  0  0  0  0  0  0  0  0  0  0
    5.9987  -12.4960   26.1438 C   0  0  0  0  0  0  0  0  0  0  0  0
    6.9014  -11.5588   26.6059 C   0  0  0  0  0  0  0  0  0  0  0  0
    8.2114  -11.9408   26.8137 C   0  0  0  0  0  0  0  0  0  0  0  0
    8.6340  -13.2448   26.5672 C   0  0  0  0  0  0  0  0  0  0  0  0
    7.7385  -14.1737   26.1090 C   0  0  0  0  0  0  0  0  0  0  0  0
   11.2527  -16.9300   24.9222 C   0  0  0  0  0  0  0  0  0  0  0  0
   12.0409  -17.1018   26.0519 O   0  0  0  0  0  0  0  0  0  0  0  0
   11.4913  -17.6610   23.9307 O   0  0  0  0  0  0  0  0  0  0  0  0
  2  1  1  6
  2  3  1  0
  3  4  1  0
  5  9  1  0
  5  4  1  0
  6  5  2  0
  7 10  1  0
  7  2  1  0
  8  7  2  0
 10 11  1  0
 11 12  1  0
 12 13  1  0
 14 15  1  1
 14 10  1  0
 14 13  1  0
 15 16  2  0
 17 18  1  0
 17 15  1  0
 18 29  1  0
 18 19  1  1
 20 19  1  0
 21 20  2  0
 22 21  1  0
 23 22  1  0
 23 28  2  0
 24 23  1  0
 25 24  2  0
 25 26  1  0
 26 27  2  0
 27 28  1  0
 28 20  1  0
 29 31  2  0
 29 30  1  0
M  END
$$$$
