EPW.pdb
     RDKit          3D

 31 33  0  0  1  0  0  0  0  0999 V2000
    8.6575  -18.6486   18.5952 N   0  0  0  0  0  0  0  0  0  0  0  0
    7.9527  -17.8797   19.6006 C   0  0  1  0  0  0  0  0  0  0  0  0
    7.2872  -18.8658   20.5088 C   0  0  0  0  0  0  0  0  0  0  0  0
    6.4551  -19.8246   19.7373 C   0  0  0  0  0  0  0  0  0  0  0  0
    5.8040  -20.7703   20.7163 C   0  0  0  0  0  0  0  0  0  0  0  0
    4.5706  -20.7418   20.9151 O   0  0  0  0  0  0  0  0  0  0  0  0
    8.7848  -16.8692   20.2461 C   0  0  0  0  0  0  0  0  0  0  0  0
   10.0225  -17.0800   20.4614 O   0  0  0  0  0  0  0  0  0  0  0  0
    6.6224  -21.6659   21.3824 O   0  0  0  0  0  0  0  0  0  0  0  0
    8.3052  -15.5813   20.6860 N   0  0  0  0  0  0  0  0  0  0  0  0
    6.9211  -15.2106   20.5923 C   0  0  0  0  0  0  0  0  0  0  0  0
    6.8355  -13.7874   21.0200 C   0  0  0  0  0  0  0  0  0  0  0  0
    8.2546  -13.2844   20.9275 C   0  0  0  0  0  0  0  0  0  0  0  0
    9.0939  -14.5272   21.2489 C   0  0  1  0  0  0  0  0  0  0  0  0
    9.1324  -14.5849   22.7429 C   0  0  0  0  0  0  0  0  0  0  0  0
    8.6611  -13.6263   23.4034 O   0  0  0  0  0  0  0  0  0  0  0  0
    9.6791  -15.6771   23.4464 N   0  0  0  0  0  0  0  0  0  0  0  0
   10.2031  -15.6322   24.7845 C   0  0  1  0  0  0  0  0  0  0  0  0
    9.2025  -16.1407   25.8049 C   0  0  0  0  0  0  0  0  0  0  0  0
    7.9531  -15.3556   25.7968 C   0  0  0  0  0  0  0  0  0  0  0  0
    6.6998  -15.8564   25.4764 C   0  0  0  0  0  0  0  0  0  0  0  0
    5.7822  -14.8548   25.5715 N   0  0  0  0  0  0  0  0  0  0  0  0
    6.4005  -13.7211   25.9433 C   0  0  0  0  0  0  0  0  0  0  0  0
    5.8879  -12.4590   26.1652 C   0  0  0  0  0  0  0  0  0  0  0  0
    6.7504  -11.4499   26.5454 C   0  0  0  0  0  0  0  0  0  0  0  0
    8.0923  -11.7391   26.6895 C   0  0  0  0  0  0  0  0  0  0  0  0
    8.5864  -13.0208   26.4599 C   0  0  0  0  0  0  0  0  0  0  0  0
    7.7307  -14.0210   26.0830 C   0  0  0  0  0  0  0  0  0  0  0  0
   11.3916  -16.5245   24.8504 C   0  0  0  0  0  0  0  0  0  0  0  0
   11.7813  -17.3048   23.7705 O   0  0  0  0  0  0  0  0  0  0  0  0
   12.0804  -16.5951   25.8968 O   0  0  0  0  0  0  0  0  0  0  0  0
  2  1  1  6
  2  3  1  0
  3  4  1  0
  5  9  1  0
  5  4  1  0
  6  5  2  0
  7 10  1  0
  7  2  1  0
  8  7  2  0
 10 11  1  0
 11 12  1  0
 12 13  1  0
 14 15  1  1
 14 10  1  0
 14 13  1  0
 15 16  2  0
 17 18  1  0
 17 15  1  0
 18 29  1  0
 18 19  1  1
 20 19  1  0
 21 20  2  0
 22 21  1  0
 23 22  1  0
 23 28  2  0
 24 23  1  0
 25 24  2  0
 25 26  1  0
 26 27  2  0
 27 28  1  0
 28 20  1  0
 29 31  2  0
 29 30  1  0
M  END
$$$$
