EPW.pdb
     RDKit          3D

 31 33  0  0  1  0  0  0  0  0999 V2000
   10.8262  -17.4971   17.5819 N   0  0  0  0  0  0  0  0  0  0  0  0
    9.9700  -17.8844   18.6844 C   0  0  1  0  0  0  0  0  0  0  0  0
   10.3279  -19.2953   19.0326 C   0  0  0  0  0  0  0  0  0  0  0  0
    9.9915  -20.2210   17.9206 C   0  0  0  0  0  0  0  0  0  0  0  0
   11.2714  -20.8627   17.4442 C   0  0  0  0  0  0  0  0  0  0  0  0
   12.0896  -21.3462   18.2556 O   0  0  0  0  0  0  0  0  0  0  0  0
    9.9761  -16.9276   19.7866 C   0  0  0  0  0  0  0  0  0  0  0  0
   11.0713  -16.4900   20.2680 O   0  0  0  0  0  0  0  0  0  0  0  0
   11.5026  -20.8944   16.0799 O   0  0  0  0  0  0  0  0  0  0  0  0
    8.7872  -16.4033   20.4144 N   0  0  0  0  0  0  0  0  0  0  0  0
    7.4695  -16.7712   19.9784 C   0  0  0  0  0  0  0  0  0  0  0  0
    6.5172  -15.9454   20.7703 C   0  0  0  0  0  0  0  0  0  0  0  0
    7.3644  -14.8264   21.3230 C   0  0  0  0  0  0  0  0  0  0  0  0
    8.7397  -15.4797   21.5074 C   0  0  1  0  0  0  0  0  0  0  0  0
    8.6582  -16.1721   22.8305 C   0  0  0  0  0  0  0  0  0  0  0  0
    8.4197  -17.4048   22.8611 O   0  0  0  0  0  0  0  0  0  0  0  0
    8.8389  -15.4953   24.0537 N   0  0  0  0  0  0  0  0  0  0  0  0
    9.7367  -15.8919   25.1042 C   0  0  1  0  0  0  0  0  0  0  0  0
    9.5305  -15.0772   26.3670 C   0  0  0  0  0  0  0  0  0  0  0  0
    8.1589  -14.5419   26.4650 C   0  0  0  0  0  0  0  0  0  0  0  0
    6.9999  -15.2976   26.3661 C   0  0  0  0  0  0  0  0  0  0  0  0
    5.9209  -14.4781   26.5011 N   0  0  0  0  0  0  0  0  0  0  0  0
    6.3433  -13.2156   26.6845 C   0  0  0  0  0  0  0  0  0  0  0  0
    5.6221  -12.0530   26.8661 C   0  0  0  0  0  0  0  0  0  0  0  0
    6.3077  -10.8663   27.0346 C   0  0  0  0  0  0  0  0  0  0  0  0
    7.6877  -10.8853   27.0153 C   0  0  0  0  0  0  0  0  0  0  0  0
    8.3939  -12.0714   26.8304 C   0  0  0  0  0  0  0  0  0  0  0  0
    7.7135  -13.2478   26.6634 C   0  0  0  0  0  0  0  0  0  0  0  0
    9.4566  -17.3125   25.4458 C   0  0  0  0  0  0  0  0  0  0  0  0
   10.3290  -18.0642   26.2209 O   0  0  0  0  0  0  0  0  0  0  0  0
    8.4118  -17.8740   25.0368 O   0  0  0  0  0  0  0  0  0  0  0  0
  2  1  1  6
  2  3  1  0
  3  4  1  0
  5  9  1  0
  5  4  1  0
  6  5  2  0
  7 10  1  0
  7  2  1  0
  8  7  2  0
 10 11  1  0
 11 12  1  0
 12 13  1  0
 14 15  1  1
 14 10  1  0
 14 13  1  0
 15 16  2  0
 17 18  1  0
 17 15  1  0
 18 29  1  0
 18 19  1  1
 20 19  1  0
 21 20  2  0
 22 21  1  0
 23 22  1  0
 23 28  2  0
 24 23  1  0
 25 24  2  0
 25 26  1  0
 26 27  2  0
 27 28  1  0
 28 20  1  0
 29 31  2  0
 29 30  1  0
M  END
$$$$
