EPW.pdb
     RDKit          3D

 31 33  0  0  1  0  0  0  0  0999 V2000
    7.1044  -19.5507   20.2137 N   0  0  0  0  0  0  0  0  0  0  0  0
    6.8885  -18.4891   21.1754 C   0  0  1  0  0  0  0  0  0  0  0  0
    6.5170  -19.1473   22.4672 C   0  0  0  0  0  0  0  0  0  0  0  0
    7.7137  -19.7140   23.1406 C   0  0  0  0  0  0  0  0  0  0  0  0
    7.2851  -20.2412   24.4880 C   0  0  0  0  0  0  0  0  0  0  0  0
    6.0998  -20.1407   24.8708 O   0  0  0  0  0  0  0  0  0  0  0  0
    7.9858  -17.5284   21.2342 C   0  0  0  0  0  0  0  0  0  0  0  0
    9.1663  -17.8607   20.8897 O   0  0  0  0  0  0  0  0  0  0  0  0
    8.2515  -20.8374   25.2792 O   0  0  0  0  0  0  0  0  0  0  0  0
    7.8457  -16.1603   21.6711 N   0  0  0  0  0  0  0  0  0  0  0  0
    6.6233  -15.6617   22.2356 C   0  0  0  0  0  0  0  0  0  0  0  0
    6.8200  -14.2011   22.4450 C   0  0  0  0  0  0  0  0  0  0  0  0
    8.0087  -13.8577   21.5821 C   0  0  0  0  0  0  0  0  0  0  0  0
    8.8488  -15.1406   21.6074 C   0  0  1  0  0  0  0  0  0  0  0  0
    9.6447  -15.0498   22.8704 C   0  0  0  0  0  0  0  0  0  0  0  0
   10.5424  -14.1766   22.9650 O   0  0  0  0  0  0  0  0  0  0  0  0
    9.4286  -15.9086   23.9671 N   0  0  0  0  0  0  0  0  0  0  0  0
   10.2624  -15.9998   25.1347 C   0  0  1  0  0  0  0  0  0  0  0  0
    9.4770  -15.7799   26.4136 C   0  0  0  0  0  0  0  0  0  0  0  0
    8.1704  -15.1426   26.1605 C   0  0  0  0  0  0  0  0  0  0  0  0
    7.0164  -15.8138   25.7838 C   0  0  0  0  0  0  0  0  0  0  0  0
    6.0054  -14.9136   25.6365 N   0  0  0  0  0  0  0  0  0  0  0  0
    6.4671  -13.6806   25.9055 C   0  0  0  0  0  0  0  0  0  0  0  0
    5.8171  -12.4632   25.8887 C   0  0  0  0  0  0  0  0  0  0  0  0
    6.5307  -11.3255   26.2099 C   0  0  0  0  0  0  0  0  0  0  0  0
    7.8665  -11.4463   26.5357 C   0  0  0  0  0  0  0  0  0  0  0  0
    8.5009  -12.6861   26.5458 C   0  0  0  0  0  0  0  0  0  0  0  0
    7.7928  -13.8139   26.2273 C   0  0  0  0  0  0  0  0  0  0  0  0
   10.8297  -17.3737   25.1968 C   0  0  0  0  0  0  0  0  0  0  0  0
   10.3898  -18.3855   24.3544 O   0  0  0  0  0  0  0  0  0  0  0  0
   11.7313  -17.6561   26.0225 O   0  0  0  0  0  0  0  0  0  0  0  0
  2  1  1  6
  2  3  1  0
  3  4  1  0
  5  9  1  0
  5  4  1  0
  6  5  2  0
  7 10  1  0
  7  2  1  0
  8  7  2  0
 10 11  1  0
 11 12  1  0
 12 13  1  0
 14 15  1  1
 14 10  1  0
 14 13  1  0
 15 16  2  0
 17 18  1  0
 17 15  1  0
 18 29  1  0
 18 19  1  1
 20 19  1  0
 21 20  2  0
 22 21  1  0
 23 22  1  0
 23 28  2  0
 24 23  1  0
 25 24  2  0
 25 26  1  0
 26 27  2  0
 27 28  1  0
 28 20  1  0
 29 31  2  0
 29 30  1  0
M  END
$$$$
