EPW.pdb
     RDKit          3D

 31 33  0  0  1  0  0  0  0  0999 V2000
    8.3677  -18.3512   18.5611 N   0  0  0  0  0  0  0  0  0  0  0  0
    8.0008  -17.9657   19.9085 C   0  0  1  0  0  0  0  0  0  0  0  0
    8.0042  -19.2165   20.7304 C   0  0  0  0  0  0  0  0  0  0  0  0
    7.0057  -20.1918   20.2218 C   0  0  0  0  0  0  0  0  0  0  0  0
    7.0968  -21.4374   21.0686 C   0  0  0  0  0  0  0  0  0  0  0  0
    6.2839  -21.6470   21.9942 O   0  0  0  0  0  0  0  0  0  0  0  0
    8.7885  -16.8519   20.4274 C   0  0  0  0  0  0  0  0  0  0  0  0
   10.0551  -16.8271   20.2934 O   0  0  0  0  0  0  0  0  0  0  0  0
    8.1112  -22.3341   20.7813 O   0  0  0  0  0  0  0  0  0  0  0  0
    8.2307  -15.7131   21.1161 N   0  0  0  0  0  0  0  0  0  0  0  0
    6.8254  -15.6001   21.3883 C   0  0  0  0  0  0  0  0  0  0  0  0
    6.6191  -14.2546   21.9906 C   0  0  0  0  0  0  0  0  0  0  0  0
    7.8703  -13.4910   21.6344 C   0  0  0  0  0  0  0  0  0  0  0  0
    8.9528  -14.5770   21.6037 C   0  0  1  0  0  0  0  0  0  0  0  0
    9.3689  -14.7406   23.0309 C   0  0  0  0  0  0  0  0  0  0  0  0
    9.7231  -13.7278   23.6837 O   0  0  0  0  0  0  0  0  0  0  0  0
    9.3805  -15.9921   23.6795 N   0  0  0  0  0  0  0  0  0  0  0  0
    9.8702  -16.2409   25.0080 C   0  0  1  0  0  0  0  0  0  0  0  0
    8.7554  -16.6211   25.9637 C   0  0  0  0  0  0  0  0  0  0  0  0
    7.6676  -15.6240   25.9732 C   0  0  0  0  0  0  0  0  0  0  0  0
    6.3766  -15.8493   25.5187 C   0  0  0  0  0  0  0  0  0  0  0  0
    5.6439  -14.7124   25.6767 N   0  0  0  0  0  0  0  0  0  0  0  0
    6.4185  -13.7577   26.2191 C   0  0  0  0  0  0  0  0  0  0  0  0
    6.1184  -12.4541   26.5590 C   0  0  0  0  0  0  0  0  0  0  0  0
    7.1102  -11.6668   27.1097 C   0  0  0  0  0  0  0  0  0  0  0  0
    8.3643  -12.2109   27.3003 C   0  0  0  0  0  0  0  0  0  0  0  0
    8.6435  -13.5294   26.9493 C   0  0  0  0  0  0  0  0  0  0  0  0
    7.6596  -14.3096   26.4033 C   0  0  0  0  0  0  0  0  0  0  0  0
   10.8122  -17.3909   24.9503 C   0  0  0  0  0  0  0  0  0  0  0  0
   11.6021  -17.7447   26.0356 O   0  0  0  0  0  0  0  0  0  0  0  0
   10.9179  -18.0786   23.9062 O   0  0  0  0  0  0  0  0  0  0  0  0
  2  1  1  6
  2  3  1  0
  3  4  1  0
  5  9  1  0
  5  4  1  0
  6  5  2  0
  7 10  1  0
  7  2  1  0
  8  7  2  0
 10 11  1  0
 11 12  1  0
 12 13  1  0
 14 15  1  1
 14 10  1  0
 14 13  1  0
 15 16  2  0
 17 18  1  0
 17 15  1  0
 18 29  1  0
 18 19  1  1
 20 19  1  0
 21 20  2  0
 22 21  1  0
 23 22  1  0
 23 28  2  0
 24 23  1  0
 25 24  2  0
 25 26  1  0
 26 27  2  0
 27 28  1  0
 28 20  1  0
 29 31  2  0
 29 30  1  0
M  END
$$$$
