EPW.pdb
     RDKit          3D

 31 33  0  0  1  0  0  0  0  0999 V2000
    8.2489  -13.2168   17.4731 N   0  0  0  0  0  0  0  0  0  0  0  0
    8.4765  -14.5637   17.9555 C   0  0  1  0  0  0  0  0  0  0  0  0
    9.8437  -14.9611   17.4941 C   0  0  0  0  0  0  0  0  0  0  0  0
   10.8755  -14.5794   18.4923 C   0  0  0  0  0  0  0  0  0  0  0  0
   12.1867  -15.1926   18.0660 C   0  0  0  0  0  0  0  0  0  0  0  0
   12.8135  -15.9629   18.8245 O   0  0  0  0  0  0  0  0  0  0  0  0
    8.2066  -14.7220   19.3811 C   0  0  0  0  0  0  0  0  0  0  0  0
    8.4128  -13.7655   20.1968 O   0  0  0  0  0  0  0  0  0  0  0  0
   12.6655  -14.8700   16.8082 O   0  0  0  0  0  0  0  0  0  0  0  0
    7.6984  -15.9311   19.9828 N   0  0  0  0  0  0  0  0  0  0  0  0
    7.5775  -17.1571   19.2452 C   0  0  0  0  0  0  0  0  0  0  0  0
    6.9099  -18.1309   20.1517 C   0  0  0  0  0  0  0  0  0  0  0  0
    6.2903  -17.2742   21.2277 C   0  0  0  0  0  0  0  0  0  0  0  0
    7.2542  -16.0861   21.3351 C   0  0  1  0  0  0  0  0  0  0  0  0
    8.3466  -16.5625   22.2388 C   0  0  0  0  0  0  0  0  0  0  0  0
    9.2189  -17.3430   21.7836 O   0  0  0  0  0  0  0  0  0  0  0  0
    8.4396  -16.1698   23.5893 N   0  0  0  0  0  0  0  0  0  0  0  0
    9.5546  -16.4264   24.4599 C   0  0  1  0  0  0  0  0  0  0  0  0
    9.6013  -15.4572   25.6257 C   0  0  0  0  0  0  0  0  0  0  0  0
    8.2814  -14.8590   25.9042 C   0  0  0  0  0  0  0  0  0  0  0  0
    7.0996  -15.5702   26.0514 C   0  0  0  0  0  0  0  0  0  0  0  0
    6.0828  -14.6986   26.2976 N   0  0  0  0  0  0  0  0  0  0  0  0
    6.5676  -13.4454   26.3147 C   0  0  0  0  0  0  0  0  0  0  0  0
    5.9217  -12.2437   26.5228 C   0  0  0  0  0  0  0  0  0  0  0  0
    6.6613  -11.0781   26.4883 C   0  0  0  0  0  0  0  0  0  0  0  0
    8.0181  -11.1565   26.2472 C   0  0  0  0  0  0  0  0  0  0  0  0
    8.6480  -12.3812   26.0400 C   0  0  0  0  0  0  0  0  0  0  0  0
    7.9141  -13.5367   26.0744 C   0  0  0  0  0  0  0  0  0  0  0  0
    9.3979  -17.7922   25.0285 C   0  0  0  0  0  0  0  0  0  0  0  0
   10.4587  -18.4646   25.6197 O   0  0  0  0  0  0  0  0  0  0  0  0
    8.2892  -18.3782   24.9875 O   0  0  0  0  0  0  0  0  0  0  0  0
  2  1  1  1
  2  3  1  0
  3  4  1  0
  5  9  1  0
  5  4  1  0
  6  5  2  0
  7 10  1  0
  7  2  1  0
  8  7  2  0
 10 11  1  0
 11 12  1  0
 12 13  1  0
 14 15  1  1
 14 10  1  0
 14 13  1  0
 15 16  2  0
 17 18  1  0
 17 15  1  0
 18 29  1  0
 18 19  1  1
 20 19  1  0
 21 20  2  0
 22 21  1  0
 23 22  1  0
 23 28  2  0
 24 23  1  0
 25 24  2  0
 25 26  1  0
 26 27  2  0
 27 28  1  0
 28 20  1  0
 29 31  2  0
 29 30  1  0
M  END
$$$$
