EPW.pdb
     RDKit          3D

 31 33  0  0  1  0  0  0  0  0999 V2000
    7.9871  -19.0019   18.6409 N   0  0  0  0  0  0  0  0  0  0  0  0
    7.5479  -17.7501   19.2227 C   0  0  1  0  0  0  0  0  0  0  0  0
    6.7471  -18.0976   20.4384 C   0  0  0  0  0  0  0  0  0  0  0  0
    7.5914  -18.7703   21.4590 C   0  0  0  0  0  0  0  0  0  0  0  0
    6.7259  -19.0663   22.6591 C   0  0  0  0  0  0  0  0  0  0  0  0
    5.4834  -19.1462   22.5524 O   0  0  0  0  0  0  0  0  0  0  0  0
    8.6301  -16.7902   19.4171 C   0  0  0  0  0  0  0  0  0  0  0  0
    9.8340  -17.1809   19.5614 O   0  0  0  0  0  0  0  0  0  0  0  0
    7.3591  -19.2447   23.8768 O   0  0  0  0  0  0  0  0  0  0  0  0
    8.4491  -15.3593   19.4624 N   0  0  0  0  0  0  0  0  0  0  0  0
    7.1493  -14.7528   19.3950 C   0  0  0  0  0  0  0  0  0  0  0  0
    7.3720  -13.2819   19.3449 C   0  0  0  0  0  0  0  0  0  0  0  0
    8.8208  -13.1375   18.9505 C   0  0  0  0  0  0  0  0  0  0  0  0
    9.4828  -14.3745   19.5701 C   0  0  1  0  0  0  0  0  0  0  0  0
    9.7534  -13.9907   20.9900 C   0  0  0  0  0  0  0  0  0  0  0  0
    9.8045  -12.7733   21.2945 O   0  0  0  0  0  0  0  0  0  0  0  0
    9.9551  -14.9439   22.0087 N   0  0  0  0  0  0  0  0  0  0  0  0
    9.3673  -14.9034   23.3201 C   0  0  1  0  0  0  0  0  0  0  0  0
    7.8517  -14.8752   23.2638 C   0  0  0  0  0  0  0  0  0  0  0  0
    7.2494  -14.7011   24.5997 C   0  0  0  0  0  0  0  0  0  0  0  0
    6.5739  -15.6873   25.3035 C   0  0  0  0  0  0  0  0  0  0  0  0
    6.1532  -15.1764   26.4936 N   0  0  0  0  0  0  0  0  0  0  0  0
    6.5343  -13.8909   26.5836 C   0  0  0  0  0  0  0  0  0  0  0  0
    6.3369  -12.9725   27.5947 C   0  0  0  0  0  0  0  0  0  0  0  0
    6.8372  -11.6951   27.4378 C   0  0  0  0  0  0  0  0  0  0  0  0
    7.5159  -11.3829   26.2772 C   0  0  0  0  0  0  0  0  0  0  0  0
    7.7028  -12.3270   25.2704 C   0  0  0  0  0  0  0  0  0  0  0  0
    7.2064  -13.5935   25.4266 C   0  0  0  0  0  0  0  0  0  0  0  0
    9.7582  -16.1423   24.0451 C   0  0  0  0  0  0  0  0  0  0  0  0
    9.9191  -17.3544   23.3881 O   0  0  0  0  0  0  0  0  0  0  0  0
    9.9547  -16.1225   25.2841 O   0  0  0  0  0  0  0  0  0  0  0  0
  2  1  1  1
  2  3  1  0
  3  4  1  0
  5  9  1  0
  5  4  1  0
  6  5  2  0
  7 10  1  0
  7  2  1  0
  8  7  2  0
 10 11  1  0
 11 12  1  0
 12 13  1  0
 14 15  1  1
 14 10  1  0
 14 13  1  0
 15 16  2  0
 17 18  1  0
 17 15  1  0
 18 29  1  0
 18 19  1  6
 20 19  1  0
 21 20  2  0
 22 21  1  0
 23 22  1  0
 23 28  2  0
 24 23  1  0
 25 24  2  0
 25 26  1  0
 26 27  2  0
 27 28  1  0
 28 20  1  0
 29 31  2  0
 29 30  1  0
M  END
$$$$
