EPW.pdb
     RDKit          3D

 31 33  0  0  1  0  0  0  0  0999 V2000
    8.7041  -18.9531   18.9154 N   0  0  0  0  0  0  0  0  0  0  0  0
    8.1397  -18.3604   20.1107 C   0  0  1  0  0  0  0  0  0  0  0  0
    8.0268  -19.4569   21.1231 C   0  0  0  0  0  0  0  0  0  0  0  0
    6.9466  -20.4096   20.7595 C   0  0  0  0  0  0  0  0  0  0  0  0
    7.1493  -21.6726   21.5601 C   0  0  0  0  0  0  0  0  0  0  0  0
    7.9790  -22.5355   21.2015 O   0  0  0  0  0  0  0  0  0  0  0  0
    8.8367  -17.1533   20.5436 C   0  0  0  0  0  0  0  0  0  0  0  0
   10.0818  -17.0009   20.3217 O   0  0  0  0  0  0  0  0  0  0  0  0
    6.3837  -21.8370   22.7013 O   0  0  0  0  0  0  0  0  0  0  0  0
    8.2074  -16.0562   21.2383 N   0  0  0  0  0  0  0  0  0  0  0  0
    6.8301  -16.0992   21.6420 C   0  0  0  0  0  0  0  0  0  0  0  0
    6.5143  -14.7593   22.2082 C   0  0  0  0  0  0  0  0  0  0  0  0
    7.6225  -13.8700   21.7018 C   0  0  0  0  0  0  0  0  0  0  0  0
    8.8243  -14.8182   21.6080 C   0  0  1  0  0  0  0  0  0  0  0  0
    9.3873  -14.8576   22.9931 C   0  0  0  0  0  0  0  0  0  0  0  0
    9.9085  -13.8194   23.4702 O   0  0  0  0  0  0  0  0  0  0  0  0
    9.3578  -16.0189   23.7916 N   0  0  0  0  0  0  0  0  0  0  0  0
    9.8863  -16.1312   25.1239 C   0  0  1  0  0  0  0  0  0  0  0  0
    8.8081  -16.4638   26.1377 C   0  0  0  0  0  0  0  0  0  0  0  0
    7.6704  -15.5268   26.0663 C   0  0  0  0  0  0  0  0  0  0  0  0
    6.3773  -15.8703   25.7001 C   0  0  0  0  0  0  0  0  0  0  0  0
    5.5920  -14.7588   25.7429 N   0  0  0  0  0  0  0  0  0  0  0  0
    6.3345  -13.7059   26.1252 C   0  0  0  0  0  0  0  0  0  0  0  0
    5.9786  -12.3851   26.3083 C   0  0  0  0  0  0  0  0  0  0  0  0
    6.9469  -11.4867   26.7109 C   0  0  0  0  0  0  0  0  0  0  0  0
    8.2340  -11.9411   26.9154 C   0  0  0  0  0  0  0  0  0  0  0  0
    8.5693  -13.2793   26.7241 C   0  0  0  0  0  0  0  0  0  0  0  0
    7.6088  -14.1696   26.3249 C   0  0  0  0  0  0  0  0  0  0  0  0
   10.8689  -17.2480   25.1434 C   0  0  0  0  0  0  0  0  0  0  0  0
   11.6884  -17.4822   26.2391 O   0  0  0  0  0  0  0  0  0  0  0  0
   10.9833  -18.0159   24.1578 O   0  0  0  0  0  0  0  0  0  0  0  0
  2  1  1  6
  2  3  1  0
  3  4  1  0
  5  9  1  0
  5  4  1  0
  6  5  2  0
  7 10  1  0
  7  2  1  0
  8  7  2  0
 10 11  1  0
 11 12  1  0
 12 13  1  0
 14 15  1  1
 14 10  1  0
 14 13  1  0
 15 16  2  0
 17 18  1  0
 17 15  1  0
 18 29  1  0
 18 19  1  1
 20 19  1  0
 21 20  2  0
 22 21  1  0
 23 22  1  0
 23 28  2  0
 24 23  1  0
 25 24  2  0
 25 26  1  0
 26 27  2  0
 27 28  1  0
 28 20  1  0
 29 31  2  0
 29 30  1  0
M  END
$$$$
