EPW.pdb
     RDKit          3D

 31 33  0  0  1  0  0  0  0  0999 V2000
    6.0757  -14.7353   19.6248 N   0  0  0  0  0  0  0  0  0  0  0  0
    7.4635  -14.9655   19.9704 C   0  0  1  0  0  0  0  0  0  0  0  0
    8.1289  -13.6252   19.9962 C   0  0  0  0  0  0  0  0  0  0  0  0
    8.0211  -12.9506   18.6771 C   0  0  0  0  0  0  0  0  0  0  0  0
    9.1826  -13.4015   17.8259 C   0  0  0  0  0  0  0  0  0  0  0  0
   10.3441  -13.4308   18.2859 O   0  0  0  0  0  0  0  0  0  0  0  0
    7.6348  -15.7926   21.1608 C   0  0  0  0  0  0  0  0  0  0  0  0
    6.7926  -15.7486   22.1155 O   0  0  0  0  0  0  0  0  0  0  0  0
    8.9124  -13.7793   16.5222 O   0  0  0  0  0  0  0  0  0  0  0  0
    8.7327  -16.7066   21.3644 N   0  0  0  0  0  0  0  0  0  0  0  0
    9.7738  -16.8765   20.3903 C   0  0  0  0  0  0  0  0  0  0  0  0
   10.6445  -17.9753   20.8906 C   0  0  0  0  0  0  0  0  0  0  0  0
    9.8029  -18.6744   21.9290 C   0  0  0  0  0  0  0  0  0  0  0  0
    8.9401  -17.5454   22.5060 C   0  0  1  0  0  0  0  0  0  0  0  0
    9.8053  -16.8940   23.5375 C   0  0  0  0  0  0  0  0  0  0  0  0
   10.8939  -16.3774   23.1836 O   0  0  0  0  0  0  0  0  0  0  0  0
    9.4484  -16.8347   24.8999 N   0  0  0  0  0  0  0  0  0  0  0  0
   10.2503  -16.2690   25.9505 C   0  0  1  0  0  0  0  0  0  0  0  0
    9.8648  -14.8330   26.2505 C   0  0  0  0  0  0  0  0  0  0  0  0
    8.4019  -14.6394   26.2530 C   0  0  0  0  0  0  0  0  0  0  0  0
    7.4641  -15.6530   26.1215 C   0  0  0  0  0  0  0  0  0  0  0  0
    6.2150  -15.1126   26.1656 N   0  0  0  0  0  0  0  0  0  0  0  0
    6.3131  -13.7815   26.3216 C   0  0  0  0  0  0  0  0  0  0  0  0
    5.3265  -12.8212   26.4179 C   0  0  0  0  0  0  0  0  0  0  0  0
    5.6988  -11.5010   26.5762 C   0  0  0  0  0  0  0  0  0  0  0  0
    7.0422  -11.1893   26.6324 C   0  0  0  0  0  0  0  0  0  0  0  0
    8.0201  -12.1761   26.5329 C   0  0  0  0  0  0  0  0  0  0  0  0
    7.6503  -13.4851   26.3759 C   0  0  0  0  0  0  0  0  0  0  0  0
   10.0168  -17.0562   27.1911 C   0  0  0  0  0  0  0  0  0  0  0  0
   10.7961  -16.8809   28.3263 O   0  0  0  0  0  0  0  0  0  0  0  0
    9.0980  -17.9091   27.2433 O   0  0  0  0  0  0  0  0  0  0  0  0
  2  1  1  1
  2  3  1  0
  3  4  1  0
  5  9  1  0
  5  4  1  0
  6  5  2  0
  7 10  1  0
  7  2  1  0
  8  7  2  0
 10 11  1  0
 11 12  1  0
 12 13  1  0
 14 15  1  1
 14 10  1  0
 14 13  1  0
 15 16  2  0
 17 18  1  0
 17 15  1  0
 18 29  1  0
 18 19  1  1
 20 19  1  0
 21 20  2  0
 22 21  1  0
 23 22  1  0
 23 28  2  0
 24 23  1  0
 25 24  2  0
 25 26  1  0
 26 27  2  0
 27 28  1  0
 28 20  1  0
 29 31  2  0
 29 30  1  0
M  END
$$$$
