EPW.pdb
     RDKit          3D

 31 33  0  0  1  0  0  0  0  0999 V2000
    6.6733  -19.4194   20.2254 N   0  0  0  0  0  0  0  0  0  0  0  0
    6.5900  -18.2269   21.0437 C   0  0  1  0  0  0  0  0  0  0  0  0
    6.0637  -18.6557   22.3775 C   0  0  0  0  0  0  0  0  0  0  0  0
    7.0564  -19.4933   23.0985 C   0  0  0  0  0  0  0  0  0  0  0  0
    6.4731  -19.8556   24.4422 C   0  0  0  0  0  0  0  0  0  0  0  0
    5.3327  -19.4675   24.7744 O   0  0  0  0  0  0  0  0  0  0  0  0
    7.8236  -17.4469   21.0585 C   0  0  0  0  0  0  0  0  0  0  0  0
    8.9430  -17.9865   20.7782 O   0  0  0  0  0  0  0  0  0  0  0  0
    7.2471  -20.6306   25.2882 O   0  0  0  0  0  0  0  0  0  0  0  0
    7.8930  -16.0417   21.3793 N   0  0  0  0  0  0  0  0  0  0  0  0
    6.7722  -15.3277   21.9230 C   0  0  0  0  0  0  0  0  0  0  0  0
    7.1807  -13.8985   22.0026 C   0  0  0  0  0  0  0  0  0  0  0  0
    8.3781  -13.8017   21.0903 C   0  0  0  0  0  0  0  0  0  0  0  0
    9.0280  -15.1858   21.2089 C   0  0  1  0  0  0  0  0  0  0  0  0
    9.8685  -15.1074   22.4436 C   0  0  0  0  0  0  0  0  0  0  0  0
   10.8863  -14.3717   22.4438 O   0  0  0  0  0  0  0  0  0  0  0  0
    9.5647  -15.8293   23.6156 N   0  0  0  0  0  0  0  0  0  0  0  0
   10.3836  -15.8910   24.7956 C   0  0  1  0  0  0  0  0  0  0  0  0
    9.9128  -14.9250   25.8662 C   0  0  0  0  0  0  0  0  0  0  0  0
    8.4410  -14.8695   25.9561 C   0  0  0  0  0  0  0  0  0  0  0  0
    7.5923  -15.9563   25.8057 C   0  0  0  0  0  0  0  0  0  0  0  0
    6.3041  -15.5389   25.9492 N   0  0  0  0  0  0  0  0  0  0  0  0
    6.2907  -14.2164   26.1877 C   0  0  0  0  0  0  0  0  0  0  0  0
    5.2288  -13.3603   26.3976 C   0  0  0  0  0  0  0  0  0  0  0  0
    5.4890  -12.0232   26.6239 C   0  0  0  0  0  0  0  0  0  0  0  0
    6.8000  -11.5914   26.6319 C   0  0  0  0  0  0  0  0  0  0  0  0
    7.8554  -12.4744   26.4176 C   0  0  0  0  0  0  0  0  0  0  0  0
    7.5967  -13.8002   26.1933 C   0  0  0  0  0  0  0  0  0  0  0  0
   10.2811  -17.2621   25.3636 C   0  0  0  0  0  0  0  0  0  0  0  0
   11.1837  -17.7322   26.3077 O   0  0  0  0  0  0  0  0  0  0  0  0
    9.3648  -18.0379   24.9991 O   0  0  0  0  0  0  0  0  0  0  0  0
  2  1  1  6
  2  3  1  0
  3  4  1  0
  5  9  1  0
  5  4  1  0
  6  5  2  0
  7 10  1  0
  7  2  1  0
  8  7  2  0
 10 11  1  0
 11 12  1  0
 12 13  1  0
 14 15  1  1
 14 10  1  0
 14 13  1  0
 15 16  2  0
 17 18  1  0
 17 15  1  0
 18 29  1  0
 18 19  1  1
 20 19  1  0
 21 20  2  0
 22 21  1  0
 23 22  1  0
 23 28  2  0
 24 23  1  0
 25 24  2  0
 25 26  1  0
 26 27  2  0
 27 28  1  0
 28 20  1  0
 29 31  2  0
 29 30  1  0
M  END
$$$$
