LNS.pdb
     RDKit          3D

 23 22  0  0  1  0  0  0  0  0999 V2000
   13.5460   -5.2547   -8.8090 C   0  0  0  0  0  0  0  0  0  0  0  0
   13.8678   -6.2268   -7.6924 C   0  0  2  0  0  0  0  0  0  0  0  0
   14.0434   -5.4951   -6.3803 C   0  0  0  0  0  0  0  0  0  0  0  0
   15.0807   -7.0760   -8.0085 C   0  0  0  0  0  0  0  0  0  0  0  0
   14.9006   -7.7849   -9.3327 C   0  0  2  0  0  0  0  0  0  0  0  0
   13.8872   -8.8019   -9.2687 N   0  0  0  0  0  0  0  0  0  0  0  0
   16.1653   -8.3115   -9.8653 C   0  0  0  0  0  0  0  0  0  0  0  0
   16.6545   -9.4177   -9.5737 O   0  0  0  0  0  0  0  0  0  0  0  0
   19.6033   -9.2515  -13.3833 N   0  0  0  0  0  0  0  0  0  0  0  0
   18.2712   -9.7824  -13.3657 C   0  0  0  0  0  0  0  0  0  0  0  0
   18.0109  -10.7535  -14.0869 O   0  0  0  0  0  0  0  0  0  0  0  0
   17.2665   -9.1590  -12.4972 C   0  0  0  0  0  0  0  0  0  0  0  0
   17.8860   -8.0682  -11.6768 C   0  0  2  0  0  0  0  0  0  0  0  0
   16.9038   -7.5070  -10.7894 N   0  0  0  0  0  0  0  0  0  0  0  0
   18.3527   -6.9514  -12.5749 C   0  0  0  0  0  0  0  0  0  0  0  0
   17.5564   -6.3107  -13.3125 O   0  0  0  0  0  0  0  0  0  0  0  0
   22.2998   -6.4121  -13.1264 O   0  0  0  0  0  0  0  0  0  0  0  0
   21.6545   -5.1771  -13.0186 C   0  0  0  0  0  0  0  0  0  0  0  0
   20.1730   -5.4234  -13.2973 C   0  0  2  0  0  0  0  0  0  0  0  0
   19.7322   -6.6090  -12.5916 N   0  0  0  0  0  0  0  0  0  0  0  0
   20.0219   -5.5771  -14.7543 C   0  0  0  0  0  0  0  0  0  0  0  0
   20.2925   -4.5999  -15.4931 O   0  0  0  0  0  0  0  0  0  0  0  0
   19.5948   -6.7487  -15.3540 O   0  0  0  0  0  0  0  0  0  0  0  0
  2  1  1  6
  2  3  1  0
  4  2  1  0
  5  4  1  0
  5  6  1  1
  7  5  1  0
  7  8  2  0
  9 10  1  0
 10 11  2  0
 10 12  1  0
 13 12  1  6
 13 14  1  0
 14  7  1  0
 15 20  1  0
 15 13  1  0
 16 15  2  0
 18 17  1  0
 19 18  1  6
 19 20  1  0
 19 21  1  0
 21 22  2  0
 21 23  1  0
M  END
$$$$
