LNS.pdb
     RDKit          3D

 23 22  0  0  1  0  0  0  0  0999 V2000
   44.5036  -14.0136   -8.8970 C   0  0  0  0  0  0  0  0  0  0  0  0
   43.1308  -14.2330   -8.2945 C   0  0  2  0  0  0  0  0  0  0  0  0
   42.6664  -15.6538   -8.5253 C   0  0  0  0  0  0  0  0  0  0  0  0
   42.1153  -13.2374   -8.8135 C   0  0  0  0  0  0  0  0  0  0  0  0
   42.6105  -11.8221   -8.6131 C   0  0  2  0  0  0  0  0  0  0  0  0
   42.7986  -11.5061   -7.2237 N   0  0  0  0  0  0  0  0  0  0  0  0
   41.7614  -10.8286   -9.2856 C   0  0  0  0  0  0  0  0  0  0  0  0
   41.4392  -10.8643  -10.4869 O   0  0  0  0  0  0  0  0  0  0  0  0
   38.0824   -9.6788   -8.8965 N   0  0  0  0  0  0  0  0  0  0  0  0
   38.3959   -8.6063   -7.9975 C   0  0  0  0  0  0  0  0  0  0  0  0
   37.5506   -8.2702   -7.1588 O   0  0  0  0  0  0  0  0  0  0  0  0
   39.7021   -7.9467   -8.1022 C   0  0  0  0  0  0  0  0  0  0  0  0
   40.5560   -8.6325   -9.1255 C   0  0  2  0  0  0  0  0  0  0  0  0
   41.2579   -9.7308   -8.5188 N   0  0  0  0  0  0  0  0  0  0  0  0
   41.6014   -7.6791   -9.6451 C   0  0  0  0  0  0  0  0  0  0  0  0
   42.5319   -7.2455   -8.9139 O   0  0  0  0  0  0  0  0  0  0  0  0
   44.4731   -6.0526  -12.7595 O   0  0  0  0  0  0  0  0  0  0  0  0
   43.5271   -7.0095  -12.3816 C   0  0  0  0  0  0  0  0  0  0  0  0
   42.5003   -6.2973  -11.5032 C   0  0  2  0  0  0  0  0  0  0  0  0
   41.5372   -7.2553  -11.0004 N   0  0  0  0  0  0  0  0  0  0  0  0
   41.8523   -5.2686  -12.3346 C   0  0  0  0  0  0  0  0  0  0  0  0
   42.2815   -4.0911  -12.2772 O   0  0  0  0  0  0  0  0  0  0  0  0
   40.7894   -5.5341  -13.1799 O   0  0  0  0  0  0  0  0  0  0  0  0
  2  1  1  6
  2  3  1  0
  4  2  1  0
  5  4  1  0
  5  6  1  1
  7  5  1  0
  7  8  2  0
  9 10  1  0
 10 11  2  0
 10 12  1  0
 13 12  1  1
 13 14  1  0
 14  7  1  0
 15 20  1  0
 15 13  1  0
 16 15  2  0
 18 17  1  0
 19 18  1  6
 19 20  1  0
 19 21  1  0
 21 22  2  0
 21 23  1  0
M  END
$$$$
