LNS.pdb
     RDKit          3D

 23 22  0  0  1  0  0  0  0  0999 V2000
   21.3516  -10.1849  -22.9087 C   0  0  0  0  0  0  0  0  0  0  0  0
   20.5130  -11.1265  -22.0687 C   0  0  2  0  0  0  0  0  0  0  0  0
   19.5176  -11.8700  -22.9314 C   0  0  0  0  0  0  0  0  0  0  0  0
   19.8181  -10.4091  -20.9310 C   0  0  0  0  0  0  0  0  0  0  0  0
   20.8128   -9.5994  -20.1290 C   0  0  2  0  0  0  0  0  0  0  0  0
   21.7795  -10.4317  -19.4669 N   0  0  0  0  0  0  0  0  0  0  0  0
   20.1597   -8.6749  -19.1914 C   0  0  0  0  0  0  0  0  0  0  0  0
   19.3285   -7.8060  -19.5115 O   0  0  0  0  0  0  0  0  0  0  0  0
   18.5591   -6.5044  -14.9399 N   0  0  0  0  0  0  0  0  0  0  0  0
   18.6197   -7.9211  -14.7258 C   0  0  0  0  0  0  0  0  0  0  0  0
   18.0711   -8.3925  -13.7219 O   0  0  0  0  0  0  0  0  0  0  0  0
   19.3270   -8.7599  -15.6997 C   0  0  0  0  0  0  0  0  0  0  0  0
   19.8766   -7.9213  -16.8137 C   0  0  2  0  0  0  0  0  0  0  0  0
   20.4910   -8.7649  -17.8026 N   0  0  0  0  0  0  0  0  0  0  0  0
   20.9544   -7.0089  -16.2868 C   0  0  0  0  0  0  0  0  0  0  0  0
   22.0843   -7.4435  -15.9359 O   0  0  0  0  0  0  0  0  0  0  0  0
   22.4712   -2.4903  -15.7283 O   0  0  0  0  0  0  0  0  0  0  0  0
   21.3787   -3.2826  -16.0914 C   0  0  0  0  0  0  0  0  0  0  0  0
   21.7233   -4.7197  -15.7054 C   0  0  2  0  0  0  0  0  0  0  0  0
   20.6902   -5.6162  -16.1819 N   0  0  0  0  0  0  0  0  0  0  0  0
   21.8379   -4.7625  -14.2376 C   0  0  0  0  0  0  0  0  0  0  0  0
   20.7872   -4.8100  -13.5537 O   0  0  0  0  0  0  0  0  0  0  0  0
   23.0500   -4.7530  -13.5700 O   0  0  0  0  0  0  0  0  0  0  0  0
  2  1  1  6
  2  3  1  0
  4  2  1  0
  5  4  1  0
  5  6  1  1
  7  5  1  0
  7  8  2  0
  9 10  1  0
 10 11  2  0
 10 12  1  0
 13 12  1  1
 13 14  1  0
 14  7  1  0
 15 20  1  0
 15 13  1  0
 16 15  2  0
 18 17  1  0
 19 18  1  1
 19 20  1  0
 19 21  1  0
 21 22  2  0
 21 23  1  0
M  END
$$$$
