LNS.pdb
     RDKit          3D

 23 22  0  0  1  0  0  0  0  0999 V2000
   20.5837  -13.9077  -20.1306 C   0  0  0  0  0  0  0  0  0  0  0  0
   19.5145  -14.1978  -19.0971 C   0  0  2  0  0  0  0  0  0  0  0  0
   18.4148  -15.0504  -19.6900 C   0  0  0  0  0  0  0  0  0  0  0  0
   18.9525  -12.9308  -18.4881 C   0  0  0  0  0  0  0  0  0  0  0  0
   20.0589  -12.1021  -17.8738 C   0  0  2  0  0  0  0  0  0  0  0  0
   20.8307  -12.8512  -16.9205 N   0  0  0  0  0  0  0  0  0  0  0  0
   19.5660  -10.8410  -17.3020 C   0  0  0  0  0  0  0  0  0  0  0  0
   18.8942   -9.9945  -17.9188 O   0  0  0  0  0  0  0  0  0  0  0  0
   18.3586   -8.4529  -11.8951 N   0  0  0  0  0  0  0  0  0  0  0  0
   18.2026   -8.5331  -13.3184 C   0  0  0  0  0  0  0  0  0  0  0  0
   17.6790   -7.5817  -13.9115 O   0  0  0  0  0  0  0  0  0  0  0  0
   18.6667   -9.7349  -14.0202 C   0  0  0  0  0  0  0  0  0  0  0  0
   19.3844   -9.3618  -15.2819 C   0  0  2  0  0  0  0  0  0  0  0  0
   19.8707  -10.5465  -15.9356 N   0  0  0  0  0  0  0  0  0  0  0  0
   20.5889   -8.5159  -14.9573 C   0  0  0  0  0  0  0  0  0  0  0  0
   21.6502   -9.0149  -14.4955 O   0  0  0  0  0  0  0  0  0  0  0  0
   23.1541   -4.7167  -15.8981 O   0  0  0  0  0  0  0  0  0  0  0  0
   21.9665   -5.4079  -16.1529 C   0  0  0  0  0  0  0  0  0  0  0  0
   21.6972   -6.2931  -14.9376 C   0  0  2  0  0  0  0  0  0  0  0  0
   20.5277   -7.1131  -15.1781 N   0  0  0  0  0  0  0  0  0  0  0  0
   21.5006   -5.4010  -13.7821 C   0  0  0  0  0  0  0  0  0  0  0  0
   20.3498   -4.9560  -13.5552 O   0  0  0  0  0  0  0  0  0  0  0  0
   22.5239   -5.0262  -12.9294 O   0  0  0  0  0  0  0  0  0  0  0  0
  2  1  1  6
  2  3  1  0
  4  2  1  0
  5  4  1  0
  5  6  1  1
  7  5  1  0
  7  8  2  0
  9 10  1  0
 10 11  2  0
 10 12  1  0
 13 12  1  1
 13 14  1  0
 14  7  1  0
 15 20  1  0
 15 13  1  0
 16 15  2  0
 18 17  1  0
 19 18  1  6
 19 20  1  0
 19 21  1  0
 21 22  2  0
 21 23  1  0
M  END
$$$$
