LNS.pdb
     RDKit          3D

 23 22  0  0  1  0  0  0  0  0999 V2000
   28.5246  -22.3090  -10.3491 C   0  0  0  0  0  0  0  0  0  0  0  0
   29.0641  -21.3224  -11.3646 C   0  0  2  0  0  0  0  0  0  0  0  0
   30.3646  -20.7177  -10.8842 C   0  0  0  0  0  0  0  0  0  0  0  0
   28.0556  -20.2454  -11.7037 C   0  0  0  0  0  0  0  0  0  0  0  0
   26.7761  -20.8624  -12.2239 C   0  0  2  0  0  0  0  0  0  0  0  0
   27.0262  -22.0131  -13.0479 N   0  0  0  0  0  0  0  0  0  0  0  0
   25.9160  -19.8840  -12.9046 C   0  0  0  0  0  0  0  0  0  0  0  0
   25.4910  -18.8325  -12.3928 O   0  0  0  0  0  0  0  0  0  0  0  0
   27.9490  -18.3201  -15.8885 N   0  0  0  0  0  0  0  0  0  0  0  0
   26.5963  -17.8516  -15.8028 C   0  0  0  0  0  0  0  0  0  0  0  0
   26.3918  -16.7051  -15.3846 O   0  0  0  0  0  0  0  0  0  0  0  0
   25.5055  -18.7433  -16.2118 C   0  0  0  0  0  0  0  0  0  0  0  0
   24.7344  -19.2125  -15.0152 C   0  0  2  0  0  0  0  0  0  0  0  0
   25.5274  -20.1418  -14.2570 N   0  0  0  0  0  0  0  0  0  0  0  0
   23.4981  -19.9523  -15.4580 C   0  0  0  0  0  0  0  0  0  0  0  0
   23.5577  -21.0925  -15.9919 O   0  0  0  0  0  0  0  0  0  0  0  0
   20.0713  -19.4487  -13.6607 O   0  0  0  0  0  0  0  0  0  0  0  0
   20.2285  -20.5292  -14.5330 C   0  0  0  0  0  0  0  0  0  0  0  0
   21.0302  -20.0217  -15.7301 C   0  0  2  0  0  0  0  0  0  0  0  0
   22.2259  -19.3472  -15.2684 N   0  0  0  0  0  0  0  0  0  0  0  0
   20.1557  -19.1093  -16.4866 C   0  0  0  0  0  0  0  0  0  0  0  0
   19.0726  -19.5520  -16.9390 O   0  0  0  0  0  0  0  0  0  0  0  0
   20.4680  -17.7826  -16.7258 O   0  0  0  0  0  0  0  0  0  0  0  0
  2  1  1  1
  2  3  1  0
  4  2  1  0
  5  4  1  0
  5  6  1  6
  7  5  1  0
  7  8  2  0
  9 10  1  0
 10 11  2  0
 10 12  1  0
 13 12  1  6
 13 14  1  0
 14  7  1  0
 15 20  1  0
 15 13  1  0
 16 15  2  0
 18 17  1  0
 19 18  1  1
 19 20  1  0
 19 21  1  0
 21 22  2  0
 21 23  1  0
M  END
$$$$
