LNS.pdb
     RDKit          3D

 23 22  0  0  1  0  0  0  0  0999 V2000
   18.2820  -15.3690  -15.0276 C   0  0  0  0  0  0  0  0  0  0  0  0
   18.7670  -15.0453  -16.4260 C   0  0  2  0  0  0  0  0  0  0  0  0
   19.5870  -16.1866  -16.9853 C   0  0  0  0  0  0  0  0  0  0  0  0
   19.5406  -13.7448  -16.4737 C   0  0  0  0  0  0  0  0  0  0  0  0
   18.6432  -12.5809  -16.1153 C   0  0  2  0  0  0  0  0  0  0  0  0
   17.3060  -12.7555  -16.6125 N   0  0  0  0  0  0  0  0  0  0  0  0
   19.2095  -11.2875  -16.5235 C   0  0  0  0  0  0  0  0  0  0  0  0
   20.3614  -10.8994  -16.2577 O   0  0  0  0  0  0  0  0  0  0  0  0
   19.4325   -7.4825  -21.0834 N   0  0  0  0  0  0  0  0  0  0  0  0
   19.4345   -7.7787  -19.6803 C   0  0  0  0  0  0  0  0  0  0  0  0
   19.9419   -6.9606  -18.9029 O   0  0  0  0  0  0  0  0  0  0  0  0
   18.8379   -9.0359  -19.2159 C   0  0  0  0  0  0  0  0  0  0  0  0
   18.8631   -9.1075  -17.7190 C   0  0  2  0  0  0  0  0  0  0  0  0
   18.3909  -10.3940  -17.2837 N   0  0  0  0  0  0  0  0  0  0  0  0
   17.9263   -8.0789  -17.1393 C   0  0  0  0  0  0  0  0  0  0  0  0
   16.6754   -8.2322  -17.1530 O   0  0  0  0  0  0  0  0  0  0  0  0
   16.3405   -5.6522  -13.9026 O   0  0  0  0  0  0  0  0  0  0  0  0
   17.0351   -6.6384  -14.6085 C   0  0  0  0  0  0  0  0  0  0  0  0
   17.6000   -5.9735  -15.8623 C   0  0  2  0  0  0  0  0  0  0  0  0
   18.4685   -6.8999  -16.5592 N   0  0  0  0  0  0  0  0  0  0  0  0
   18.3330   -4.7721  -15.4275 C   0  0  0  0  0  0  0  0  0  0  0  0
   19.5858   -4.7758  -15.4927 O   0  0  0  0  0  0  0  0  0  0  0  0
   17.7088   -3.6339  -14.9484 O   0  0  0  0  0  0  0  0  0  0  0  0
  2  1  1  1
  2  3  1  0
  4  2  1  0
  5  4  1  0
  5  6  1  6
  7  5  1  0
  7  8  2  0
  9 10  1  0
 10 11  2  0
 10 12  1  0
 13 12  1  6
 13 14  1  0
 14  7  1  0
 15 20  1  0
 15 13  1  0
 16 15  2  0
 18 17  1  0
 19 18  1  1
 19 20  1  0
 19 21  1  0
 21 22  2  0
 21 23  1  0
M  END
$$$$
