LNS.pdb
     RDKit          3D

 23 22  0  0  1  0  0  0  0  0999 V2000
   18.2713  -10.2800  -14.2453 C   0  0  0  0  0  0  0  0  0  0  0  0
   17.2400  -11.0699  -13.4655 C   0  0  2  0  0  0  0  0  0  0  0  0
   16.4934  -12.0195  -14.3757 C   0  0  0  0  0  0  0  0  0  0  0  0
   16.2821  -10.1700  -12.7141 C   0  0  0  0  0  0  0  0  0  0  0  0
   17.0438   -9.1855  -11.8544 C   0  0  2  0  0  0  0  0  0  0  0  0
   17.7275   -9.8318  -10.7679 N   0  0  0  0  0  0  0  0  0  0  0  0
   16.1987   -8.0794  -11.3826 C   0  0  0  0  0  0  0  0  0  0  0  0
   15.4681   -7.3820  -12.1093 O   0  0  0  0  0  0  0  0  0  0  0  0
   13.1002   -8.0835   -8.8823 N   0  0  0  0  0  0  0  0  0  0  0  0
   13.9224   -7.7533   -7.7547 C   0  0  0  0  0  0  0  0  0  0  0  0
   13.5655   -8.1290   -6.6310 O   0  0  0  0  0  0  0  0  0  0  0  0
   15.1533   -6.9848   -7.9702 C   0  0  0  0  0  0  0  0  0  0  0  0
   15.3669   -6.7351   -9.4326 C   0  0  2  0  0  0  0  0  0  0  0  0
   16.2026   -7.7655   -9.9869 N   0  0  0  0  0  0  0  0  0  0  0  0
   16.0934   -5.4294   -9.6304 C   0  0  0  0  0  0  0  0  0  0  0  0
   17.3329   -5.3181   -9.4304 O   0  0  0  0  0  0  0  0  0  0  0  0
   14.7604   -2.9986  -12.2695 O   0  0  0  0  0  0  0  0  0  0  0  0
   16.0508   -2.7374  -11.8005 C   0  0  0  0  0  0  0  0  0  0  0  0
   16.0494   -3.0387  -10.3030 C   0  0  2  0  0  0  0  0  0  0  0  0
   15.3601   -4.2883  -10.0554 N   0  0  0  0  0  0  0  0  0  0  0  0
   15.3794   -1.9122   -9.6311 C   0  0  0  0  0  0  0  0  0  0  0  0
   14.2860   -2.1215   -9.0527 O   0  0  0  0  0  0  0  0  0  0  0  0
   15.8954   -0.6285   -9.6043 O   0  0  0  0  0  0  0  0  0  0  0  0
  2  1  1  6
  2  3  1  0
  4  2  1  0
  5  4  1  0
  5  6  1  1
  7  5  1  0
  7  8  2  0
  9 10  1  0
 10 11  2  0
 10 12  1  0
 13 12  1  1
 13 14  1  0
 14  7  1  0
 15 20  1  0
 15 13  1  0
 16 15  2  0
 18 17  1  0
 19 18  1  6
 19 20  1  0
 19 21  1  0
 21 22  2  0
 21 23  1  0
M  END
$$$$
