LNS.pdb
     RDKit          3D

 23 22  0  0  1  0  0  0  0  0999 V2000
   25.1773  -11.6442  -19.4021 C   0  0  0  0  0  0  0  0  0  0  0  0
   24.9069  -11.5217  -17.9163 C   0  0  2  0  0  0  0  0  0  0  0  0
   25.0004  -12.8727  -17.2426 C   0  0  0  0  0  0  0  0  0  0  0  0
   23.5737  -10.8631  -17.6325 C   0  0  0  0  0  0  0  0  0  0  0  0
   23.6868   -9.9251  -16.4510 C   0  0  2  0  0  0  0  0  0  0  0  0
   23.9559  -10.6274  -15.2263 N   0  0  0  0  0  0  0  0  0  0  0  0
   22.5218   -9.0381  -16.3235 C   0  0  0  0  0  0  0  0  0  0  0  0
   22.1219   -8.2572  -17.2057 O   0  0  0  0  0  0  0  0  0  0  0  0
   18.9668   -9.8911  -16.1887 N   0  0  0  0  0  0  0  0  0  0  0  0
   18.8115   -9.8339  -14.7642 C   0  0  0  0  0  0  0  0  0  0  0  0
   17.9698  -10.5670  -14.2302 O   0  0  0  0  0  0  0  0  0  0  0  0
   19.6518   -8.9124  -13.9916 C   0  0  0  0  0  0  0  0  0  0  0  0
   20.6321   -8.2188  -14.8884 C   0  0  2  0  0  0  0  0  0  0  0  0
   21.7789   -9.0595  -15.1011 N   0  0  0  0  0  0  0  0  0  0  0  0
   21.1303   -6.9586  -14.2284 C   0  0  0  0  0  0  0  0  0  0  0  0
   21.9497   -6.9854  -13.2710 O   0  0  0  0  0  0  0  0  0  0  0  0
   23.4104   -3.3627  -14.3105 O   0  0  0  0  0  0  0  0  0  0  0  0
   22.8070   -4.5483  -14.7388 C   0  0  0  0  0  0  0  0  0  0  0  0
   21.3439   -4.4851  -14.3047 C   0  0  2  0  0  0  0  0  0  0  0  0
   20.6630   -5.7013  -14.6987 N   0  0  0  0  0  0  0  0  0  0  0  0
   20.7477   -3.3019  -14.9483 C   0  0  0  0  0  0  0  0  0  0  0  0
   20.3438   -3.4009  -16.1319 O   0  0  0  0  0  0  0  0  0  0  0  0
   20.6092   -2.0807  -14.3125 O   0  0  0  0  0  0  0  0  0  0  0  0
  2  1  1  6
  2  3  1  0
  4  2  1  0
  5  4  1  0
  5  6  1  1
  7  5  1  0
  7  8  2  0
  9 10  1  0
 10 11  2  0
 10 12  1  0
 13 12  1  1
 13 14  1  0
 14  7  1  0
 15 20  1  0
 15 13  1  0
 16 15  2  0
 18 17  1  0
 19 18  1  6
 19 20  1  0
 19 21  1  0
 21 22  2  0
 21 23  1  0
M  END
$$$$
