ERN.pdb
     RDKit          3D

 29 28  0  0  1  0  0  0  0  0999 V2000
   24.5445  -15.3923  -18.6487 N   0  0  0  0  0  0  0  0  0  0  0  0
   23.2085  -15.6896  -18.0361 C   0  0  1  0  0  0  0  0  0  0  0  0
   22.2269  -15.3086  -19.0788 C   0  0  0  0  0  0  0  0  0  0  0  0
   21.9534  -13.8510  -19.2607 C   0  0  0  0  0  0  0  0  0  0  0  0
   23.1176  -13.0469  -19.6717 C   0  0  0  0  0  0  0  0  0  0  0  0
   23.9007  -12.6082  -18.7992 O   0  0  0  0  0  0  0  0  0  0  0  0
   23.2895  -17.1004  -17.6773 C   0  0  0  0  0  0  0  0  0  0  0  0
   23.0990  -18.0692  -18.4541 O   0  0  0  0  0  0  0  0  0  0  0  0
   23.3638  -12.7676  -20.9893 O   0  0  0  0  0  0  0  0  0  0  0  0
   28.4394  -23.0540  -15.7753 N   0  0  0  0  0  0  0  0  0  0  0  0
   28.3367  -21.8607  -16.5449 C   0  0  0  0  0  0  0  0  0  0  0  0
   28.8977  -21.8190  -17.6871 N   0  0  0  0  0  0  0  0  0  0  0  0
   27.6135  -20.7787  -15.9967 N   0  0  0  0  0  0  0  0  0  0  0  0
   26.8244  -20.9713  -14.7787 C   0  0  0  0  0  0  0  0  0  0  0  0
   25.4253  -20.5484  -15.0103 C   0  0  0  0  0  0  0  0  0  0  0  0
   25.1569  -19.2035  -15.5631 C   0  0  0  0  0  0  0  0  0  0  0  0
   23.7580  -18.8079  -15.9086 C   0  0  2  0  0  0  0  0  0  0  0  0
   23.6166  -17.4505  -16.3235 N   0  0  0  0  0  0  0  0  0  0  0  0
   22.8235  -19.0904  -14.7878 C   0  0  0  0  0  0  0  0  0  0  0  0
   22.8724  -18.4261  -13.7214 O   0  0  0  0  0  0  0  0  0  0  0  0
   28.8902  -20.9749  -18.2811 N   0  0  0  0  0  0  0  0  0  0  0  0
   20.1419  -19.3265  -11.3049 C   0  0  0  0  0  0  0  0  0  0  0  0
   19.7762  -18.4910  -12.4238 O   0  0  0  0  0  0  0  0  0  0  0  0
   19.1925  -17.4175  -12.1772 C   0  0  0  0  0  0  0  0  0  0  0  0
   20.0936  -18.9161  -13.7952 C   0  0  2  0  0  0  0  0  0  0  0  0
   20.7769  -20.2505  -13.8553 N   0  0  0  0  0  0  0  0  0  0  0  0
   21.8429  -20.1118  -14.8672 C   0  0  0  0  0  0  0  0  0  0  0  0
   19.9240  -21.3933  -14.1361 O   0  0  0  0  0  0  0  0  0  0  0  0
   19.2510  -22.1480  -13.2101 O   0  0  0  0  0  0  0  0  0  0  0  0
  2  1  1  6
  2  3  1  0
  3  4  1  0
  5  4  1  0
  5  9  1  0
  6  5  2  0
  7 18  1  0
  7  2  1  0
  8  7  2  0
 11 10  1  0
 11 13  1  0
 12 11  2  0
 13 14  1  0
 15 14  1  0
 17 16  1  1
 16 15  1  0
 17 18  1  0
 19 26  1  0
 19 17  1  0
 20 19  2  0
 22 21  1  0
 22 23  2  0
 25 24  1  1
 24 22  1  0
 25 27  1  0
 25 26  1  0
 27 28  1  0
 29 27  2  0
M  END
$$$$
