ERN.pdb
     RDKit          3D

 29 28  0  0  1  0  0  0  0  0999 V2000
   19.0686  -24.4418   -9.2410 N   0  0  0  0  0  0  0  0  0  0  0  0
   18.5698  -24.2645  -10.6441 C   0  0  1  0  0  0  0  0  0  0  0  0
   17.0933  -24.2801  -10.5198 C   0  0  0  0  0  0  0  0  0  0  0  0
   16.2997  -24.0452  -11.7638 C   0  0  0  0  0  0  0  0  0  0  0  0
   16.0089  -25.2548  -12.5532 C   0  0  0  0  0  0  0  0  0  0  0  0
   15.4746  -25.1403  -13.6795 O   0  0  0  0  0  0  0  0  0  0  0  0
   19.1907  -23.0217  -11.0863 C   0  0  0  0  0  0  0  0  0  0  0  0
   19.2790  -21.9637  -10.4146 O   0  0  0  0  0  0  0  0  0  0  0  0
   16.3103  -26.5047  -12.0824 O   0  0  0  0  0  0  0  0  0  0  0  0
   25.4760  -23.9523  -14.3662 N   0  0  0  0  0  0  0  0  0  0  0  0
   25.1329  -22.9140  -15.2778 C   0  0  0  0  0  0  0  0  0  0  0  0
   25.4081  -23.0671  -16.5114 N   0  0  0  0  0  0  0  0  0  0  0  0
   24.5014  -21.7610  -14.7619 N   0  0  0  0  0  0  0  0  0  0  0  0
   24.0894  -21.7217  -13.3577 C   0  0  0  0  0  0  0  0  0  0  0  0
   22.8619  -22.5263  -13.1680 C   0  0  0  0  0  0  0  0  0  0  0  0
   21.5924  -22.0640  -13.7688 C   0  0  0  0  0  0  0  0  0  0  0  0
   20.4112  -21.7947  -12.8940 C   0  0  2  0  0  0  0  0  0  0  0  0
   19.7653  -22.9671  -12.4013 N   0  0  0  0  0  0  0  0  0  0  0  0
   19.4190  -20.9245  -13.5779 C   0  0  0  0  0  0  0  0  0  0  0  0
   18.5898  -21.4045  -14.3922 O   0  0  0  0  0  0  0  0  0  0  0  0
   25.2005  -22.3478  -17.2221 N   0  0  0  0  0  0  0  0  0  0  0  0
   16.7464  -16.6963  -15.1412 C   0  0  0  0  0  0  0  0  0  0  0  0
   17.2132  -16.5217  -13.7864 O   0  0  0  0  0  0  0  0  0  0  0  0
   16.7766  -15.5455  -13.1458 C   0  0  0  0  0  0  0  0  0  0  0  0
   18.1699  -17.4770  -13.2081 C   0  0  2  0  0  0  0  0  0  0  0  0
   18.4485  -18.6475  -14.1045 N   0  0  0  0  0  0  0  0  0  0  0  0
   19.3612  -19.5265  -13.3469 C   0  0  0  0  0  0  0  0  0  0  0  0
   18.9838  -18.3330  -15.4186 O   0  0  0  0  0  0  0  0  0  0  0  0
   20.2728  -18.5398  -15.8383 O   0  0  0  0  0  0  0  0  0  0  0  0
  2  1  1  1
  2  3  1  0
  3  4  1  0
  5  4  1  0
  5  9  1  0
  6  5  2  0
  7 18  1  0
  7  2  1  0
  8  7  2  0
 11 10  1  0
 11 13  1  0
 12 11  2  0
 13 14  1  0
 15 14  1  0
 17 16  1  6
 16 15  1  0
 17 18  1  0
 19 26  1  0
 19 17  1  0
 20 19  2  0
 22 21  1  0
 22 23  2  0
 25 24  1  1
 24 22  1  0
 25 27  1  0
 25 26  1  0
 27 28  1  0
 29 27  2  0
M  END
$$$$
