ERN.pdb
     RDKit          3D

 29 28  0  0  1  0  0  0  0  0999 V2000
   18.3990  -24.1052   -6.9704 N   0  0  0  0  0  0  0  0  0  0  0  0
   19.2509  -24.0651   -8.2038 C   0  0  1  0  0  0  0  0  0  0  0  0
   18.6978  -25.1295   -9.0739 C   0  0  0  0  0  0  0  0  0  0  0  0
   18.9058  -26.5442   -8.6404 C   0  0  0  0  0  0  0  0  0  0  0  0
   18.3714  -27.5616   -9.5625 C   0  0  0  0  0  0  0  0  0  0  0  0
   17.1552  -27.8544   -9.5169 O   0  0  0  0  0  0  0  0  0  0  0  0
   19.1319  -22.6895   -8.6719 C   0  0  0  0  0  0  0  0  0  0  0  0
   18.0724  -22.0158   -8.7145 O   0  0  0  0  0  0  0  0  0  0  0  0
   19.1761  -28.1959  -10.4707 O   0  0  0  0  0  0  0  0  0  0  0  0
   25.8887  -22.3686  -11.5872 N   0  0  0  0  0  0  0  0  0  0  0  0
   25.1283  -21.7405  -12.6140 C   0  0  0  0  0  0  0  0  0  0  0  0
   25.2035  -22.1996  -13.7991 N   0  0  0  0  0  0  0  0  0  0  0  0
   24.3256  -20.6334  -12.2612 N   0  0  0  0  0  0  0  0  0  0  0  0
   24.0462  -20.3548  -10.8514 C   0  0  0  0  0  0  0  0  0  0  0  0
   22.8002  -21.0379  -10.4381 C   0  0  0  0  0  0  0  0  0  0  0  0
   21.5517  -20.2555  -10.3146 C   0  0  0  0  0  0  0  0  0  0  0  0
   20.2527  -20.9596  -10.0912 C   0  0  2  0  0  0  0  0  0  0  0  0
   20.3123  -22.0120   -9.1302 N   0  0  0  0  0  0  0  0  0  0  0  0
   19.6909  -21.4757  -11.3669 C   0  0  0  0  0  0  0  0  0  0  0  0
   19.8893  -22.6637  -11.7277 O   0  0  0  0  0  0  0  0  0  0  0  0
   24.7347  -21.7504  -14.6015 N   0  0  0  0  0  0  0  0  0  0  0  0
   15.2785  -21.8728  -11.8195 C   0  0  0  0  0  0  0  0  0  0  0  0
   16.0055  -22.0491  -13.0540 O   0  0  0  0  0  0  0  0  0  0  0  0
   15.3698  -21.9370  -14.1204 C   0  0  0  0  0  0  0  0  0  0  0  0
   17.4447  -22.3494  -13.0248 C   0  0  1  0  0  0  0  0  0  0  0  0
   18.2968  -21.1937  -13.4600 N   0  0  0  0  0  0  0  0  0  0  0  0
   18.9125  -20.6612  -12.2284 C   0  0  0  0  0  0  0  0  0  0  0  0
   17.6212  -20.1483  -14.2102 O   0  0  0  0  0  0  0  0  0  0  0  0
   17.4388  -20.1158  -15.5689 O   0  0  0  0  0  0  0  0  0  0  0  0
  2  1  1  1
  2  3  1  0
  3  4  1  0
  5  4  1  0
  5  9  1  0
  6  5  2  0
  7 18  1  0
  7  2  1  0
  8  7  2  0
 11 10  1  0
 11 13  1  0
 12 11  2  0
 13 14  1  0
 15 14  1  0
 17 16  1  6
 16 15  1  0
 17 18  1  0
 19 26  1  0
 19 17  1  0
 20 19  2  0
 22 21  1  0
 22 23  2  0
 25 24  1  6
 24 22  1  0
 25 27  1  0
 25 26  1  0
 27 28  1  0
 29 27  2  0
M  END
$$$$
