ERN.pdb
     RDKit          3D

 29 28  0  0  1  0  0  0  0  0999 V2000
   25.2878  -23.2991  -15.0118 N   0  0  0  0  0  0  0  0  0  0  0  0
   25.4609  -21.8997  -15.5222 C   0  0  1  0  0  0  0  0  0  0  0  0
   26.3475  -22.0397  -16.7013 C   0  0  0  0  0  0  0  0  0  0  0  0
   27.5926  -22.8476  -16.5288 C   0  0  0  0  0  0  0  0  0  0  0  0
   28.8170  -22.2231  -17.0594 C   0  0  0  0  0  0  0  0  0  0  0  0
   28.7498  -21.0910  -17.5894 O   0  0  0  0  0  0  0  0  0  0  0  0
   24.0985  -21.4387  -15.7608 C   0  0  0  0  0  0  0  0  0  0  0  0
   23.5067  -21.4344  -16.8690 O   0  0  0  0  0  0  0  0  0  0  0  0
   30.0301  -22.8536  -16.9859 O   0  0  0  0  0  0  0  0  0  0  0  0
   16.7710  -22.3489  -11.2270 N   0  0  0  0  0  0  0  0  0  0  0  0
   17.5562  -23.1373  -12.1151 C   0  0  0  0  0  0  0  0  0  0  0  0
   17.3435  -24.3914  -12.1708 N   0  0  0  0  0  0  0  0  0  0  0  0
   18.5364  -22.4822  -12.8926 N   0  0  0  0  0  0  0  0  0  0  0  0
   18.6779  -21.0273  -12.8130 C   0  0  0  0  0  0  0  0  0  0  0  0
   19.6172  -20.5528  -13.8535 C   0  0  0  0  0  0  0  0  0  0  0  0
   21.0381  -20.9557  -13.7850 C   0  0  0  0  0  0  0  0  0  0  0  0
   22.0026  -20.4551  -14.8108 C   0  0  2  0  0  0  0  0  0  0  0  0
   23.3343  -20.9406  -14.6516 N   0  0  0  0  0  0  0  0  0  0  0  0
   22.0126  -18.9698  -14.8644 C   0  0  0  0  0  0  0  0  0  0  0  0
   23.0800  -18.3237  -14.7086 O   0  0  0  0  0  0  0  0  0  0  0  0
   17.8807  -25.0208  -12.7878 N   0  0  0  0  0  0  0  0  0  0  0  0
   21.0515  -14.1076  -16.1152 C   0  0  0  0  0  0  0  0  0  0  0  0
   21.9266  -15.0715  -16.7389 O   0  0  0  0  0  0  0  0  0  0  0  0
   22.7136  -14.6576  -17.6125 C   0  0  0  0  0  0  0  0  0  0  0  0
   21.8702  -16.4851  -16.3380 C   0  0  1  0  0  0  0  0  0  0  0  0
   20.8593  -16.7526  -15.2620 N   0  0  0  0  0  0  0  0  0  0  0  0
   20.8312  -18.2187  -15.0915 C   0  0  0  0  0  0  0  0  0  0  0  0
   19.5267  -16.2192  -15.4901 O   0  0  0  0  0  0  0  0  0  0  0  0
   18.4903  -16.8682  -16.1105 O   0  0  0  0  0  0  0  0  0  0  0  0
  2  1  1  6
  2  3  1  0
  3  4  1  0
  5  4  1  0
  5  9  1  0
  6  5  2  0
  7 18  1  0
  7  2  1  0
  8  7  2  0
 11 10  1  0
 11 13  1  0
 12 11  2  0
 13 14  1  0
 15 14  1  0
 17 16  1  1
 16 15  1  0
 17 18  1  0
 19 26  1  0
 19 17  1  0
 20 19  2  0
 22 21  1  0
 22 23  2  0
 25 24  1  1
 24 22  1  0
 25 27  1  0
 25 26  1  0
 27 28  1  0
 29 27  2  0
M  END
$$$$
