ERN.pdb
     RDKit          3D

 29 28  0  0  1  0  0  0  0  0999 V2000
   17.2107  -22.2297  -11.1886 N   0  0  0  0  0  0  0  0  0  0  0  0
   17.5336  -22.6908  -12.5786 C   0  0  1  0  0  0  0  0  0  0  0  0
   16.2951  -22.4392  -13.3523 C   0  0  0  0  0  0  0  0  0  0  0  0
   15.1632  -23.3958  -13.1614 C   0  0  0  0  0  0  0  0  0  0  0  0
   14.2828  -23.0966  -12.0185 C   0  0  0  0  0  0  0  0  0  0  0  0
   14.0716  -21.9043  -11.7007 O   0  0  0  0  0  0  0  0  0  0  0  0
   18.7170  -21.9203  -12.9413 C   0  0  0  0  0  0  0  0  0  0  0  0
   18.7949  -20.6671  -12.9824 O   0  0  0  0  0  0  0  0  0  0  0  0
   13.6885  -24.0948  -11.2939 O   0  0  0  0  0  0  0  0  0  0  0  0
   25.0306  -24.7291  -16.1745 N   0  0  0  0  0  0  0  0  0  0  0  0
   25.8234  -23.5468  -16.1511 C   0  0  0  0  0  0  0  0  0  0  0  0
   26.5366  -23.2681  -17.1682 N   0  0  0  0  0  0  0  0  0  0  0  0
   25.7766  -22.7403  -14.9928 N   0  0  0  0  0  0  0  0  0  0  0  0
   24.8643  -23.0845  -13.9008 C   0  0  0  0  0  0  0  0  0  0  0  0
   23.6586  -22.2284  -13.9601 C   0  0  0  0  0  0  0  0  0  0  0  0
   22.3593  -22.7748  -13.5135 C   0  0  0  0  0  0  0  0  0  0  0  0
   21.1251  -21.9393  -13.6221 C   0  0  2  0  0  0  0  0  0  0  0  0
   19.9202  -22.6246  -13.2860 N   0  0  0  0  0  0  0  0  0  0  0  0
   20.9986  -21.3346  -14.9740 C   0  0  0  0  0  0  0  0  0  0  0  0
   20.6277  -22.0229  -15.9587 O   0  0  0  0  0  0  0  0  0  0  0  0
   27.2511  -22.5231  -17.1605 N   0  0  0  0  0  0  0  0  0  0  0  0
   20.7541  -17.8711  -18.8702 C   0  0  0  0  0  0  0  0  0  0  0  0
   20.4382  -17.2477  -17.6071 O   0  0  0  0  0  0  0  0  0  0  0  0
   19.9950  -16.0829  -17.6322 C   0  0  0  0  0  0  0  0  0  0  0  0
   20.6420  -17.9843  -16.3509 C   0  0  2  0  0  0  0  0  0  0  0  0
   21.1747  -19.3711  -16.5607 N   0  0  0  0  0  0  0  0  0  0  0  0
   21.2873  -19.9671  -15.2148 C   0  0  0  0  0  0  0  0  0  0  0  0
   22.4269  -19.4710  -17.2917 O   0  0  0  0  0  0  0  0  0  0  0  0
   22.5668  -19.5182  -18.6550 O   0  0  0  0  0  0  0  0  0  0  0  0
  2  1  1  1
  2  3  1  0
  3  4  1  0
  5  4  1  0
  5  9  1  0
  6  5  2  0
  7 18  1  0
  7  2  1  0
  8  7  2  0
 11 10  1  0
 11 13  1  0
 12 11  2  0
 13 14  1  0
 15 14  1  0
 17 16  1  6
 16 15  1  0
 17 18  1  0
 19 26  1  0
 19 17  1  0
 20 19  2  0
 22 21  1  0
 22 23  2  0
 25 24  1  6
 24 22  1  0
 25 27  1  0
 25 26  1  0
 27 28  1  0
 29 27  2  0
M  END
$$$$
