ERN.pdb
     RDKit          3D

 29 28  0  0  1  0  0  0  0  0999 V2000
   28.5312  -21.8105  -16.8789 N   0  0  0  0  0  0  0  0  0  0  0  0
   28.0559  -20.6068  -16.1212 C   0  0  1  0  0  0  0  0  0  0  0  0
   27.6578  -19.6390  -17.1703 C   0  0  0  0  0  0  0  0  0  0  0  0
   28.7528  -18.9861  -17.9496 C   0  0  0  0  0  0  0  0  0  0  0  0
   28.5825  -19.0247  -19.4126 C   0  0  0  0  0  0  0  0  0  0  0  0
   29.5874  -19.1698  -20.1449 O   0  0  0  0  0  0  0  0  0  0  0  0
   27.0034  -21.1259  -15.2559 C   0  0  0  0  0  0  0  0  0  0  0  0
   26.1593  -22.0022  -15.5686 O   0  0  0  0  0  0  0  0  0  0  0  0
   27.3476  -18.9054  -19.9915 O   0  0  0  0  0  0  0  0  0  0  0  0
   22.5261  -20.0627   -9.4314 N   0  0  0  0  0  0  0  0  0  0  0  0
   22.9401  -20.9749   -8.4198 C   0  0  0  0  0  0  0  0  0  0  0  0
   22.0560  -21.4939   -7.6648 N   0  0  0  0  0  0  0  0  0  0  0  0
   24.3191  -21.2576   -8.3063 N   0  0  0  0  0  0  0  0  0  0  0  0
   25.2769  -20.5803   -9.1821 C   0  0  0  0  0  0  0  0  0  0  0  0
   25.0750  -21.0128  -10.5829 C   0  0  0  0  0  0  0  0  0  0  0  0
   26.0287  -20.5701  -11.6225 C   0  0  0  0  0  0  0  0  0  0  0  0
   25.8574  -21.0323  -13.0332 C   0  0  2  0  0  0  0  0  0  0  0  0
   26.8941  -20.6136  -13.9188 N   0  0  0  0  0  0  0  0  0  0  0  0
   24.5360  -20.6256  -13.5789 C   0  0  0  0  0  0  0  0  0  0  0  0
   24.2920  -19.4233  -13.8547 O   0  0  0  0  0  0  0  0  0  0  0  0
   22.2873  -22.1661   -6.9163 N   0  0  0  0  0  0  0  0  0  0  0  0
   19.7586  -20.7760  -15.6641 C   0  0  0  0  0  0  0  0  0  0  0  0
   20.5630  -21.9032  -16.0717 O   0  0  0  0  0  0  0  0  0  0  0  0
   20.1196  -22.6309  -16.9815 C   0  0  0  0  0  0  0  0  0  0  0  0
   21.8556  -22.1598  -15.4195 C   0  0  1  0  0  0  0  0  0  0  0  0
   22.1861  -21.1585  -14.3520 N   0  0  0  0  0  0  0  0  0  0  0  0
   23.4988  -21.5642  -13.8119 C   0  0  0  0  0  0  0  0  0  0  0  0
   21.2017  -21.0039  -13.2940 O   0  0  0  0  0  0  0  0  0  0  0  0
   20.1054  -20.1807  -13.3223 O   0  0  0  0  0  0  0  0  0  0  0  0
  2  1  1  6
  2  3  1  0
  3  4  1  0
  5  4  1  0
  5  9  1  0
  6  5  2  0
  7 18  1  0
  7  2  1  0
  8  7  2  0
 11 10  1  0
 11 13  1  0
 12 11  2  0
 13 14  1  0
 15 14  1  0
 17 16  1  1
 16 15  1  0
 17 18  1  0
 19 26  1  0
 19 17  1  0
 20 19  2  0
 22 21  1  0
 22 23  2  0
 25 24  1  6
 24 22  1  0
 25 27  1  0
 25 26  1  0
 27 28  1  0
 29 27  2  0
M  END
$$$$
