NPD.pdb
     RDKit          3D

 24 24  0  0  1  0  0  0  0  0999 V2000
    7.0749  -19.2882   15.9369 N   0  0  0  0  0  0  0  0  0  0  0  0
    6.9504  -17.9017   16.1865 C   0  0  0  0  0  0  0  0  0  0  0  0
    6.3439  -17.1604   15.3789 O   0  0  0  0  0  0  0  0  0  0  0  0
    7.5321  -17.2986   17.4035 C   0  0  0  0  0  0  0  0  0  0  0  0
    8.3223  -16.0402   17.0438 C   0  0  2  0  0  0  0  0  0  0  0  0
    9.2097  -16.3863   15.9330 N   0  0  0  0  0  0  0  0  0  0  0  0
    9.2041  -15.6876   18.2108 C   0  0  0  0  0  0  0  0  0  0  0  0
   10.2377  -16.4041   18.3195 O   0  0  0  0  0  0  0  0  0  0  0  0
    8.8415  -14.6463   19.0517 N   0  0  0  0  0  0  0  0  0  0  0  0
    8.3795  -13.3318   18.5678 C   0  0  0  0  0  0  0  0  0  0  0  0
    7.1239  -13.1795   19.4026 C   0  0  0  0  0  0  0  0  0  0  0  0
    7.3245  -14.0660   20.6131 C   0  0  0  0  0  0  0  0  0  0  0  0
    8.8241  -14.4673   20.4503 C   0  0  1  0  0  0  0  0  0  0  0  0
    9.1571  -15.5410   21.3489 C   0  0  0  0  0  0  0  0  0  0  0  0
    8.5367  -16.6019   21.4421 O   0  0  0  0  0  0  0  0  0  0  0  0
   10.2994  -15.3838   22.2148 N   0  0  0  0  0  0  0  0  0  0  0  0
   10.5882  -16.4165   23.2009 C   0  0  1  0  0  0  0  0  0  0  0  0
   12.0624  -16.5237   23.3982 C   0  0  0  0  0  0  0  0  0  0  0  0
   12.6892  -16.8881   22.1080 C   0  0  0  0  0  0  0  0  0  0  0  0
   12.2779  -17.9089   21.5110 O   0  0  0  0  0  0  0  0  0  0  0  0
    9.9405  -16.0806   24.4967 C   0  0  0  0  0  0  0  0  0  0  0  0
    9.8858  -17.0049   25.5219 O   0  0  0  0  0  0  0  0  0  0  0  0
   13.7018  -16.1460   21.5494 O   0  0  0  0  0  0  0  0  0  0  0  0
    9.4260  -14.9544   24.6990 O   0  0  0  0  0  0  0  0  0  0  0  0
  2  3  2  0
  2  1  1  0
  4  2  1  0
  5  7  1  0
  5  4  1  0
  5  6  1  6
  7  8  2  0
  9 13  1  0
  9  7  1  0
 10  9  1  0
 11 10  1  0
 11 12  1  0
 12 13  1  0
 13 14  1  1
 14 15  2  0
 14 16  1  0
 16 17  1  0
 17 21  1  0
 17 18  1  1
 19 18  1  0
 20 19  2  0
 21 24  2  0
 21 22  1  0
 23 19  1  0
M  END
$$$$
