NPD.pdb
     RDKit          3D

 24 24  0  0  1  0  0  0  0  0999 V2000
    5.2788  -18.7509   17.2234 N   0  0  0  0  0  0  0  0  0  0  0  0
    6.4549  -18.1782   16.6856 C   0  0  0  0  0  0  0  0  0  0  0  0
    6.5935  -18.0515   15.4469 O   0  0  0  0  0  0  0  0  0  0  0  0
    7.5437  -17.7177   17.5719 C   0  0  0  0  0  0  0  0  0  0  0  0
    8.0301  -16.3351   17.1369 C   0  0  2  0  0  0  0  0  0  0  0  0
    8.7471  -16.5039   15.8726 N   0  0  0  0  0  0  0  0  0  0  0  0
    9.0359  -15.8503   18.1454 C   0  0  0  0  0  0  0  0  0  0  0  0
   10.1185  -16.4995   18.1569 O   0  0  0  0  0  0  0  0  0  0  0  0
    8.7233  -14.7714   18.9586 N   0  0  0  0  0  0  0  0  0  0  0  0
    8.0466  -13.5543   18.4726 C   0  0  0  0  0  0  0  0  0  0  0  0
    6.9526  -13.4372   19.5148 C   0  0  0  0  0  0  0  0  0  0  0  0
    7.4595  -14.1852   20.7293 C   0  0  0  0  0  0  0  0  0  0  0  0
    8.9390  -14.4647   20.3179 C   0  0  1  0  0  0  0  0  0  0  0  0
    9.5389  -15.4158   21.2162 C   0  0  0  0  0  0  0  0  0  0  0  0
    9.0243  -16.4803   21.5640 O   0  0  0  0  0  0  0  0  0  0  0  0
   10.8403  -15.1198   21.7623 N   0  0  0  0  0  0  0  0  0  0  0  0
   11.4460  -16.0580   22.6978 C   0  0  1  0  0  0  0  0  0  0  0  0
   12.8198  -15.5980   23.0511 C   0  0  0  0  0  0  0  0  0  0  0  0
   13.4498  -16.6117   23.9264 C   0  0  0  0  0  0  0  0  0  0  0  0
   13.6845  -17.7468   23.4532 O   0  0  0  0  0  0  0  0  0  0  0  0
   10.6236  -16.1495   23.9334 C   0  0  0  0  0  0  0  0  0  0  0  0
    9.8466  -15.0851   24.3476 O   0  0  0  0  0  0  0  0  0  0  0  0
   13.7820  -16.3473   25.2332 O   0  0  0  0  0  0  0  0  0  0  0  0
   10.6094  -17.1895   24.6350 O   0  0  0  0  0  0  0  0  0  0  0  0
  2  3  2  0
  2  1  1  0
  4  2  1  0
  5  7  1  0
  5  4  1  0
  5  6  1  6
  7  8  2  0
  9 13  1  0
  9  7  1  0
 10  9  1  0
 11 10  1  0
 11 12  1  0
 12 13  1  0
 13 14  1  1
 14 15  2  0
 14 16  1  0
 16 17  1  0
 17 21  1  0
 17 18  1  1
 19 18  1  0
 20 19  2  0
 21 24  2  0
 21 22  1  0
 23 19  1  0
M  END
$$$$
