NPD.pdb
     RDKit          3D

 24 24  0  0  1  0  0  0  0  0999 V2000
    7.4434  -18.5224   15.1096 N   0  0  0  0  0  0  0  0  0  0  0  0
    7.0074  -17.9640   16.3337 C   0  0  0  0  0  0  0  0  0  0  0  0
    5.7867  -17.7919   16.5571 O   0  0  0  0  0  0  0  0  0  0  0  0
    7.9809  -17.5721   17.3738 C   0  0  0  0  0  0  0  0  0  0  0  0
    8.3895  -16.1102   17.1912 C   0  0  2  0  0  0  0  0  0  0  0  0
    9.1800  -16.0295   15.9625 N   0  0  0  0  0  0  0  0  0  0  0  0
    9.3059  -15.7320   18.3229 C   0  0  0  0  0  0  0  0  0  0  0  0
   10.3470  -16.4405   18.4111 O   0  0  0  0  0  0  0  0  0  0  0  0
    8.9638  -14.6780   19.1567 N   0  0  0  0  0  0  0  0  0  0  0  0
    8.4190  -13.3972   18.6686 C   0  0  0  0  0  0  0  0  0  0  0  0
    7.2203  -13.2636   19.5861 C   0  0  0  0  0  0  0  0  0  0  0  0
    7.5393  -14.1031   20.8048 C   0  0  0  0  0  0  0  0  0  0  0  0
    9.0380  -14.4550   20.5471 C   0  0  1  0  0  0  0  0  0  0  0  0
    9.4741  -15.4867   21.4508 C   0  0  0  0  0  0  0  0  0  0  0  0
    8.8937  -16.5588   21.6314 O   0  0  0  0  0  0  0  0  0  0  0  0
   10.6791  -15.2693   22.2125 N   0  0  0  0  0  0  0  0  0  0  0  0
   11.1109  -16.2873   23.1609 C   0  0  1  0  0  0  0  0  0  0  0  0
   12.4475  -15.9240   23.7132 C   0  0  0  0  0  0  0  0  0  0  0  0
   13.4549  -16.0415   22.6353 C   0  0  0  0  0  0  0  0  0  0  0  0
   13.0726  -15.9450   21.4470 O   0  0  0  0  0  0  0  0  0  0  0  0
   10.1307  -16.3968   24.2739 C   0  0  0  0  0  0  0  0  0  0  0  0
   10.0511  -17.5453   25.0373 O   0  0  0  0  0  0  0  0  0  0  0  0
   14.7873  -16.2523   22.8968 O   0  0  0  0  0  0  0  0  0  0  0  0
    9.3495  -15.4557   24.5533 O   0  0  0  0  0  0  0  0  0  0  0  0
  2  3  2  0
  2  1  1  0
  4  2  1  0
  5  7  1  0
  5  4  1  0
  5  6  1  6
  7  8  2  0
  9 13  1  0
  9  7  1  0
 10  9  1  0
 11 10  1  0
 11 12  1  0
 12 13  1  0
 13 14  1  1
 14 15  2  0
 14 16  1  0
 16 17  1  0
 17 21  1  0
 17 18  1  1
 19 18  1  0
 20 19  2  0
 21 24  2  0
 21 22  1  0
 23 19  1  0
M  END
$$$$
