NPD.pdb
     RDKit          3D

 24 24  0  0  1  0  0  0  0  0999 V2000
    7.3766  -17.6210   14.5997 N   0  0  0  0  0  0  0  0  0  0  0  0
    7.9467  -17.5340   15.8912 C   0  0  0  0  0  0  0  0  0  0  0  0
    8.7223  -18.4256   16.3071 O   0  0  0  0  0  0  0  0  0  0  0  0
    7.6400  -16.3912   16.7761 C   0  0  0  0  0  0  0  0  0  0  0  0
    8.7405  -15.3347   16.6755 C   0  0  2  0  0  0  0  0  0  0  0  0
    9.7301  -15.8271   15.7166 N   0  0  0  0  0  0  0  0  0  0  0  0
    9.4331  -15.2470   18.0082 C   0  0  0  0  0  0  0  0  0  0  0  0
   10.3068  -16.1373   18.2024 O   0  0  0  0  0  0  0  0  0  0  0  0
    9.0836  -14.2402   18.8955 N   0  0  0  0  0  0  0  0  0  0  0  0
    8.8147  -12.8495   18.4843 C   0  0  0  0  0  0  0  0  0  0  0  0
    7.4937  -12.6250   19.1923 C   0  0  0  0  0  0  0  0  0  0  0  0
    7.4644  -13.6190   20.3337 C   0  0  0  0  0  0  0  0  0  0  0  0
    8.9246  -14.1689   20.2948 C   0  0  1  0  0  0  0  0  0  0  0  0
    9.0429  -15.3389   21.1245 C   0  0  0  0  0  0  0  0  0  0  0  0
    8.3474  -16.3511   21.0210 O   0  0  0  0  0  0  0  0  0  0  0  0
   10.0446  -15.3480   22.1618 N   0  0  0  0  0  0  0  0  0  0  0  0
   10.4210  -16.6162   22.7718 C   0  0  1  0  0  0  0  0  0  0  0  0
   10.9766  -17.5284   21.7312 C   0  0  0  0  0  0  0  0  0  0  0  0
   11.2916  -18.8306   22.3601 C   0  0  0  0  0  0  0  0  0  0  0  0
   10.7136  -19.1335   23.4286 O   0  0  0  0  0  0  0  0  0  0  0  0
   11.4442  -16.3911   23.8273 C   0  0  0  0  0  0  0  0  0  0  0  0
   11.4496  -17.1497   24.9818 O   0  0  0  0  0  0  0  0  0  0  0  0
   12.1930  -19.7107   21.8115 O   0  0  0  0  0  0  0  0  0  0  0  0
   12.3293  -15.5106   23.7041 O   0  0  0  0  0  0  0  0  0  0  0  0
  2  3  2  0
  2  1  1  0
  4  2  1  0
  5  7  1  0
  5  4  1  0
  5  6  1  6
  7  8  2  0
  9 13  1  0
  9  7  1  0
 10  9  1  0
 11 10  1  0
 11 12  1  0
 12 13  1  0
 13 14  1  1
 14 15  2  0
 14 16  1  0
 16 17  1  0
 17 21  1  0
 17 18  1  6
 19 18  1  0
 20 19  2  0
 21 24  2  0
 21 22  1  0
 23 19  1  0
M  END
$$$$
