NPD.pdb
     RDKit          3D

 24 24  0  0  1  0  0  0  0  0999 V2000
    9.5483  -17.6366   15.6316 N   0  0  0  0  0  0  0  0  0  0  0  0
    8.2799  -17.6522   16.2572 C   0  0  0  0  0  0  0  0  0  0  0  0
    7.6350  -18.7209   16.3644 O   0  0  0  0  0  0  0  0  0  0  0  0
    7.6892  -16.4101   16.7970 C   0  0  0  0  0  0  0  0  0  0  0  0
    8.6406  -15.2337   16.5776 C   0  0  2  0  0  0  0  0  0  0  0  0
    9.5682  -15.6169   15.5128 N   0  0  0  0  0  0  0  0  0  0  0  0
    9.4620  -15.0526   17.8251 C   0  0  0  0  0  0  0  0  0  0  0  0
   10.4461  -15.8374   17.9209 O   0  0  0  0  0  0  0  0  0  0  0  0
    9.1020  -14.0800   18.7457 N   0  0  0  0  0  0  0  0  0  0  0  0
    8.6341  -12.7335   18.3669 C   0  0  0  0  0  0  0  0  0  0  0  0
    7.3831  -12.6493   19.2180 C   0  0  0  0  0  0  0  0  0  0  0  0
    7.5928  -13.6257   20.3557 C   0  0  0  0  0  0  0  0  0  0  0  0
    9.0923  -14.0092   20.1539 C   0  0  1  0  0  0  0  0  0  0  0  0
    9.4330  -15.1479   20.9654 C   0  0  0  0  0  0  0  0  0  0  0  0
    8.8840  -16.2495   20.9022 O   0  0  0  0  0  0  0  0  0  0  0  0
   10.4940  -15.0106   21.9323 N   0  0  0  0  0  0  0  0  0  0  0  0
   10.9150  -16.1797   22.6927 C   0  0  1  0  0  0  0  0  0  0  0  0
   12.3268  -16.0055   23.1403 C   0  0  0  0  0  0  0  0  0  0  0  0
   13.2197  -16.1737   21.9721 C   0  0  0  0  0  0  0  0  0  0  0  0
   12.7923  -16.8055   20.9793 O   0  0  0  0  0  0  0  0  0  0  0  0
   10.0394  -16.3581   23.8814 C   0  0  0  0  0  0  0  0  0  0  0  0
    9.1218  -15.3887   24.2371 O   0  0  0  0  0  0  0  0  0  0  0  0
   14.4947  -15.6620   21.9441 O   0  0  0  0  0  0  0  0  0  0  0  0
   10.1057  -17.3879   24.5949 O   0  0  0  0  0  0  0  0  0  0  0  0
  2  3  2  0
  2  1  1  0
  4  2  1  0
  5  7  1  0
  5  4  1  0
  5  6  1  6
  7  8  2  0
  9 13  1  0
  9  7  1  0
 10  9  1  0
 11 10  1  0
 11 12  1  0
 12 13  1  0
 13 14  1  1
 14 15  2  0
 14 16  1  0
 16 17  1  0
 17 21  1  0
 17 18  1  1
 19 18  1  0
 20 19  2  0
 21 24  2  0
 21 22  1  0
 23 19  1  0
M  END
$$$$
