NPD.pdb
     RDKit          3D

 24 24  0  0  1  0  0  0  0  0999 V2000
    6.8135  -18.2173   16.2913 N   0  0  0  0  0  0  0  0  0  0  0  0
    6.3414  -18.4446   17.6050 C   0  0  0  0  0  0  0  0  0  0  0  0
    5.4294  -19.2764   17.8198 O   0  0  0  0  0  0  0  0  0  0  0  0
    6.9131  -17.7071   18.7506 C   0  0  0  0  0  0  0  0  0  0  0  0
    8.0012  -16.7464   18.2707 C   0  0  2  0  0  0  0  0  0  0  0  0
    8.8882  -17.5011   17.3848 N   0  0  0  0  0  0  0  0  0  0  0  0
    8.8242  -16.3339   19.4607 C   0  0  0  0  0  0  0  0  0  0  0  0
    9.5883  -17.2351   19.9050 O   0  0  0  0  0  0  0  0  0  0  0  0
    8.6965  -15.0497   19.9683 N   0  0  0  0  0  0  0  0  0  0  0  0
    8.5750  -13.8478   19.1220 C   0  0  0  0  0  0  0  0  0  0  0  0
    7.3687  -13.1996   19.7710 C   0  0  0  0  0  0  0  0  0  0  0  0
    7.3178  -13.7452   21.1822 C   0  0  0  0  0  0  0  0  0  0  0  0
    8.6825  -14.4980   21.2659 C   0  0  1  0  0  0  0  0  0  0  0  0
    8.7244  -15.3331   22.4373 C   0  0  0  0  0  0  0  0  0  0  0  0
    7.8003  -16.0493   22.8272 O   0  0  0  0  0  0  0  0  0  0  0  0
    9.9295  -15.3472   23.2292 N   0  0  0  0  0  0  0  0  0  0  0  0
   10.1099  -16.3942   24.2259 C   0  0  1  0  0  0  0  0  0  0  0  0
   10.1358  -17.7261   23.5557 C   0  0  0  0  0  0  0  0  0  0  0  0
   10.3589  -18.7697   24.5811 C   0  0  0  0  0  0  0  0  0  0  0  0
    9.5735  -18.8287   25.5543 O   0  0  0  0  0  0  0  0  0  0  0  0
   11.3869  -16.1864   24.9592 C   0  0  0  0  0  0  0  0  0  0  0  0
   12.3915  -15.4034   24.4243 O   0  0  0  0  0  0  0  0  0  0  0  0
   11.3946  -19.6689   24.4987 O   0  0  0  0  0  0  0  0  0  0  0  0
   11.5916  -16.7123   26.0796 O   0  0  0  0  0  0  0  0  0  0  0  0
  2  3  2  0
  2  1  1  0
  4  2  1  0
  5  7  1  0
  5  4  1  0
  5  6  1  6
  7  8  2  0
  9 13  1  0
  9  7  1  0
 10  9  1  0
 11 10  1  0
 11 12  1  0
 12 13  1  0
 13 14  1  1
 14 15  2  0
 14 16  1  0
 16 17  1  0
 17 21  1  0
 17 18  1  6
 19 18  1  0
 20 19  2  0
 21 24  2  0
 21 22  1  0
 23 19  1  0
M  END
$$$$
