NPD.pdb
     RDKit          3D

 24 24  0  0  1  0  0  0  0  0999 V2000
   10.5479  -15.8162   12.9761 N   0  0  0  0  0  0  0  0  0  0  0  0
    9.9624  -16.2828   14.1761 C   0  0  0  0  0  0  0  0  0  0  0  0
    9.1621  -17.2466   14.1622 O   0  0  0  0  0  0  0  0  0  0  0  0
   10.2816  -15.6443   15.4697 C   0  0  0  0  0  0  0  0  0  0  0  0
    9.0804  -15.7293   16.4116 C   0  0  2  0  0  0  0  0  0  0  0  0
    8.2170  -14.5844   16.1202 N   0  0  0  0  0  0  0  0  0  0  0  0
    9.5738  -15.5535   17.8220 C   0  0  0  0  0  0  0  0  0  0  0  0
   10.4037  -16.4273   18.1977 O   0  0  0  0  0  0  0  0  0  0  0  0
    9.1070  -14.4918   18.5823 N   0  0  0  0  0  0  0  0  0  0  0  0
    8.6243  -13.2246   18.0020 C   0  0  0  0  0  0  0  0  0  0  0  0
    7.3067  -13.0921   18.7388 C   0  0  0  0  0  0  0  0  0  0  0  0
    7.4583  -13.9102   20.0035 C   0  0  0  0  0  0  0  0  0  0  0  0
    8.9817  -14.2481   19.9655 C   0  0  1  0  0  0  0  0  0  0  0  0
    9.2957  -15.2615   20.9380 C   0  0  0  0  0  0  0  0  0  0  0  0
    8.8149  -16.3962   20.9557 O   0  0  0  0  0  0  0  0  0  0  0  0
   10.2420  -14.9457   21.9793 N   0  0  0  0  0  0  0  0  0  0  0  0
   10.7683  -16.0218   22.8083 C   0  0  1  0  0  0  0  0  0  0  0  0
   12.2553  -16.0565   22.7012 C   0  0  0  0  0  0  0  0  0  0  0  0
   12.7700  -17.1294   23.5811 C   0  0  0  0  0  0  0  0  0  0  0  0
   12.1788  -18.2330   23.5863 O   0  0  0  0  0  0  0  0  0  0  0  0
   10.3811  -15.8084   24.2282 C   0  0  0  0  0  0  0  0  0  0  0  0
    9.6966  -14.6718   24.6126 O   0  0  0  0  0  0  0  0  0  0  0  0
   13.8687  -16.9525   24.3871 O   0  0  0  0  0  0  0  0  0  0  0  0
   10.6622  -16.6483   25.1168 O   0  0  0  0  0  0  0  0  0  0  0  0
  2  3  2  0
  2  1  1  0
  4  2  1  0
  5  7  1  0
  5  4  1  0
  5  6  1  6
  7  8  2  0
  9 13  1  0
  9  7  1  0
 10  9  1  0
 11 10  1  0
 11 12  1  0
 12 13  1  0
 13 14  1  1
 14 15  2  0
 14 16  1  0
 16 17  1  0
 17 21  1  0
 17 18  1  1
 19 18  1  0
 20 19  2  0
 21 24  2  0
 21 22  1  0
 23 19  1  0
M  END
$$$$
