NPD.pdb
     RDKit          3D

 24 24  0  0  1  0  0  0  0  0999 V2000
    8.0675  -18.1372   14.1347 N   0  0  0  0  0  0  0  0  0  0  0  0
    7.6777  -17.0185   14.9075 C   0  0  0  0  0  0  0  0  0  0  0  0
    6.7576  -16.2632   14.5169 O   0  0  0  0  0  0  0  0  0  0  0  0
    8.3464  -16.7172   16.1901 C   0  0  0  0  0  0  0  0  0  0  0  0
    8.8963  -15.2907   16.1770 C   0  0  2  0  0  0  0  0  0  0  0  0
    9.8992  -15.2207   15.1139 N   0  0  0  0  0  0  0  0  0  0  0  0
    9.6208  -15.0528   17.4741 C   0  0  0  0  0  0  0  0  0  0  0  0
   10.6862  -15.7168   17.6065 O   0  0  0  0  0  0  0  0  0  0  0  0
    9.0959  -14.1605   18.3967 N   0  0  0  0  0  0  0  0  0  0  0  0
    8.5021  -12.8619   18.0271 C   0  0  0  0  0  0  0  0  0  0  0  0
    7.1993  -12.9489   18.7963 C   0  0  0  0  0  0  0  0  0  0  0  0
    7.4479  -13.9362   19.9166 C   0  0  0  0  0  0  0  0  0  0  0  0
    8.9909  -14.1421   19.8028 C   0  0  1  0  0  0  0  0  0  0  0  0
    9.4081  -15.2641   20.6017 C   0  0  0  0  0  0  0  0  0  0  0  0
    9.0219  -16.4241   20.4460 O   0  0  0  0  0  0  0  0  0  0  0  0
   10.3486  -15.0354   21.6706 N   0  0  0  0  0  0  0  0  0  0  0  0
   10.8386  -16.1724   22.4383 C   0  0  1  0  0  0  0  0  0  0  0  0
   12.3173  -16.0684   22.6009 C   0  0  0  0  0  0  0  0  0  0  0  0
   12.8133  -17.3075   23.2404 C   0  0  0  0  0  0  0  0  0  0  0  0
   12.0300  -18.2781   23.3500 O   0  0  0  0  0  0  0  0  0  0  0  0
   10.1958  -16.1983   23.7790 C   0  0  0  0  0  0  0  0  0  0  0  0
    9.3043  -15.2129   24.1563 O   0  0  0  0  0  0  0  0  0  0  0  0
   14.0976  -17.4244   23.7146 O   0  0  0  0  0  0  0  0  0  0  0  0
   10.4411  -17.1100   24.6053 O   0  0  0  0  0  0  0  0  0  0  0  0
  2  3  2  0
  2  1  1  0
  4  2  1  0
  5  7  1  0
  5  4  1  0
  5  6  1  6
  7  8  2  0
  9 13  1  0
  9  7  1  0
 10  9  1  0
 11 10  1  0
 11 12  1  0
 12 13  1  0
 13 14  1  1
 14 15  2  0
 14 16  1  0
 16 17  1  0
 17 21  1  0
 17 18  1  1
 19 18  1  0
 20 19  2  0
 21 24  2  0
 21 22  1  0
 23 19  1  0
M  END
$$$$
