NPD.pdb
     RDKit          3D

 24 24  0  0  1  0  0  0  0  0999 V2000
    7.3144  -15.6975   14.6342 N   0  0  0  0  0  0  0  0  0  0  0  0
    8.0342  -16.6920   15.3366 C   0  0  0  0  0  0  0  0  0  0  0  0
    8.3112  -17.7846   14.7896 O   0  0  0  0  0  0  0  0  0  0  0  0
    8.4743  -16.4639   16.7285 C   0  0  0  0  0  0  0  0  0  0  0  0
    9.5053  -15.3362   16.7786 C   0  0  2  0  0  0  0  0  0  0  0  0
   10.6781  -15.7850   16.0275 N   0  0  0  0  0  0  0  0  0  0  0  0
    9.9447  -15.1622   18.2071 C   0  0  0  0  0  0  0  0  0  0  0  0
   10.8677  -15.9438   18.5684 O   0  0  0  0  0  0  0  0  0  0  0  0
    9.3359  -14.1988   18.9972 N   0  0  0  0  0  0  0  0  0  0  0  0
    8.9652  -12.8582   18.5063 C   0  0  0  0  0  0  0  0  0  0  0  0
    7.5308  -12.7965   18.9914 C   0  0  0  0  0  0  0  0  0  0  0  0
    7.4438  -13.7739   20.1441 C   0  0  0  0  0  0  0  0  0  0  0  0
    8.9484  -14.1334   20.3514 C   0  0  1  0  0  0  0  0  0  0  0  0
    9.0775  -15.2698   21.2250 C   0  0  0  0  0  0  0  0  0  0  0  0
    8.4793  -16.3384   21.0865 O   0  0  0  0  0  0  0  0  0  0  0  0
    9.9688  -15.1714   22.3543 N   0  0  0  0  0  0  0  0  0  0  0  0
   10.2522  -16.3654   23.1392 C   0  0  1  0  0  0  0  0  0  0  0  0
   11.6932  -16.7247   23.0039 C   0  0  0  0  0  0  0  0  0  0  0  0
   11.9641  -17.9215   23.8315 C   0  0  0  0  0  0  0  0  0  0  0  0
   11.1799  -18.8940   23.7505 O   0  0  0  0  0  0  0  0  0  0  0  0
    9.9375  -16.1211   24.5720 C   0  0  0  0  0  0  0  0  0  0  0  0
    9.4431  -14.9010   24.9906 O   0  0  0  0  0  0  0  0  0  0  0  0
   13.0420  -17.9971   24.6803 O   0  0  0  0  0  0  0  0  0  0  0  0
   10.1101  -17.0094   25.4410 O   0  0  0  0  0  0  0  0  0  0  0  0
  2  3  2  0
  2  1  1  0
  4  2  1  0
  5  7  1  0
  5  4  1  0
  5  6  1  6
  7  8  2  0
  9 13  1  0
  9  7  1  0
 10  9  1  0
 11 10  1  0
 11 12  1  0
 12 13  1  0
 13 14  1  6
 14 15  2  0
 14 16  1  0
 16 17  1  0
 17 21  1  0
 17 18  1  1
 19 18  1  0
 20 19  2  0
 21 24  2  0
 21 22  1  0
 23 19  1  0
M  END
$$$$
