GFL.pdb
     RDKit          3D

 24 24  0  0  1  0  0  0  0  0999 V2000
   12.0462  -17.0265   19.7719 N   0  0  0  0  0  0  0  0  0  0  0  0
   10.8042  -17.3933   20.3804 C   0  0  0  0  0  0  0  0  0  0  0  0
   10.5725  -16.6422   21.6638 C   0  0  0  0  0  0  0  0  0  0  0  0
   11.5229  -16.0910   22.2715 O   0  0  0  0  0  0  0  0  0  0  0  0
    9.2755  -16.5325   22.2280 N   0  0  0  0  0  0  0  0  0  0  0  0
    8.9017  -15.8794   23.4271 C   0  0  1  0  0  0  0  0  0  0  0  0
    7.4595  -15.4198   23.4296 C   0  0  0  0  0  0  0  0  0  0  0  0
    7.1618  -14.4146   24.4796 C   0  0  0  0  0  0  0  0  0  0  0  0
    6.4313  -14.7930   25.6210 C   0  0  0  0  0  0  0  0  0  0  0  0
    6.1449  -13.8764   26.5762 C   0  0  0  0  0  0  0  0  0  0  0  0
    6.5442  -12.5824   26.4708 C   0  0  0  0  0  0  0  0  0  0  0  0
    7.2531  -12.1926   25.3737 C   0  0  0  0  0  0  0  0  0  0  0  0
    7.5554  -13.1209   24.3836 C   0  0  0  0  0  0  0  0  0  0  0  0
    9.3107  -16.5396   24.6630 C   0  0  0  0  0  0  0  0  0  0  0  0
    9.4515  -17.8111   24.6287 O   0  0  0  0  0  0  0  0  0  0  0  0
   11.3347  -13.7444   27.2707 C   0  0  0  0  0  0  0  0  0  0  0  0
   10.1431  -14.2467   28.0842 C   0  0  2  0  0  0  0  0  0  0  0  0
    9.9388  -13.4291   29.2983 C   0  0  0  0  0  0  0  0  0  0  0  0
   10.1595  -15.7217   28.2588 C   0  0  0  0  0  0  0  0  0  0  0  0
   10.1061  -16.5756   27.0604 C   0  0  2  0  0  0  0  0  0  0  0  0
    9.5655  -15.9150   25.8896 N   0  0  0  0  0  0  0  0  0  0  0  0
    9.5043  -17.9155   27.2670 C   0  0  0  0  0  0  0  0  0  0  0  0
    8.3649  -18.3380   26.5982 O   0  0  0  0  0  0  0  0  0  0  0  0
   10.0183  -18.7326   28.0736 O   0  0  0  0  0  0  0  0  0  0  0  0
  2  1  1  0
  3  2  1  0
  4  3  2  0
  5  3  1  0
  6 14  1  0
  6  5  1  0
  6  7  1  1
  8  7  1  0
  9  8  2  0
 10  9  1  0
 11 10  2  0
 11 12  1  0
 12 13  2  0
 13  8  1  0
 14 15  2  0
 17 16  1  1
 17 19  1  0
 18 17  1  0
 20 19  1  1
 21 20  1  0
 21 14  1  0
 22 23  1  0
 22 20  1  0
 24 22  2  0
M  END
$$$$
