GFL.pdb
     RDKit          3D

 24 24  0  0  1  0  0  0  0  0999 V2000
    8.5189  -20.3454   21.2034 N   0  0  0  0  0  0  0  0  0  0  0  0
    7.8400  -19.9092   22.3850 C   0  0  0  0  0  0  0  0  0  0  0  0
    8.1633  -18.4765   22.7130 C   0  0  0  0  0  0  0  0  0  0  0  0
    9.1014  -17.8758   22.1338 O   0  0  0  0  0  0  0  0  0  0  0  0
    7.4204  -17.7589   23.6855 N   0  0  0  0  0  0  0  0  0  0  0  0
    7.6640  -16.4536   24.1764 C   0  0  1  0  0  0  0  0  0  0  0  0
    6.4479  -15.8238   24.8210 C   0  0  0  0  0  0  0  0  0  0  0  0
    6.6089  -14.3746   25.0957 C   0  0  0  0  0  0  0  0  0  0  0  0
    6.1428  -13.8384   26.3101 C   0  0  0  0  0  0  0  0  0  0  0  0
    6.2749  -12.5138   26.5605 C   0  0  0  0  0  0  0  0  0  0  0  0
    6.8511  -11.6692   25.6664 C   0  0  0  0  0  0  0  0  0  0  0  0
    7.3100  -12.1660   24.4829 C   0  0  0  0  0  0  0  0  0  0  0  0
    7.1821  -13.5234   24.2098 C   0  0  0  0  0  0  0  0  0  0  0  0
    8.8919  -16.2848   24.9473 C   0  0  0  0  0  0  0  0  0  0  0  0
    9.9022  -15.7887   24.3382 O   0  0  0  0  0  0  0  0  0  0  0  0
   10.4797  -13.5666   27.1398 C   0  0  0  0  0  0  0  0  0  0  0  0
    9.8090  -14.4641   28.1784 C   0  0  2  0  0  0  0  0  0  0  0  0
    9.6635  -13.7696   29.4747 C   0  0  0  0  0  0  0  0  0  0  0  0
   10.3925  -15.8298   28.2062 C   0  0  0  0  0  0  0  0  0  0  0  0
   10.3525  -16.6403   26.9776 C   0  0  2  0  0  0  0  0  0  0  0  0
    9.0744  -16.6142   26.2956 N   0  0  0  0  0  0  0  0  0  0  0  0
   10.8781  -18.0206   27.1151 C   0  0  0  0  0  0  0  0  0  0  0  0
   12.1885  -18.2920   27.4799 O   0  0  0  0  0  0  0  0  0  0  0  0
   10.1369  -19.0141   26.9010 O   0  0  0  0  0  0  0  0  0  0  0  0
  2  1  1  0
  3  2  1  0
  4  3  2  0
  5  3  1  0
  6 14  1  0
  6  5  1  0
  6  7  1  1
  8  7  1  0
  9  8  2  0
 10  9  1  0
 11 10  2  0
 11 12  1  0
 12 13  2  0
 13  8  1  0
 14 15  2  0
 17 16  1  6
 17 19  1  0
 18 17  1  0
 20 19  1  1
 21 20  1  0
 21 14  1  0
 22 23  1  0
 22 20  1  0
 24 22  2  0
M  END
$$$$
