GFL.pdb
     RDKit          3D

 24 24  0  0  1  0  0  0  0  0999 V2000
    6.1865  -20.4266   24.5129 N   0  0  0  0  0  0  0  0  0  0  0  0
    6.0130  -19.0292   24.7673 C   0  0  0  0  0  0  0  0  0  0  0  0
    7.1628  -18.2210   24.2292 C   0  0  0  0  0  0  0  0  0  0  0  0
    8.1912  -18.7808   23.7758 O   0  0  0  0  0  0  0  0  0  0  0  0
    7.1229  -16.8029   24.2166 N   0  0  0  0  0  0  0  0  0  0  0  0
    8.1206  -15.9093   23.7582 C   0  0  1  0  0  0  0  0  0  0  0  0
    7.5735  -14.5493   23.3810 C   0  0  0  0  0  0  0  0  0  0  0  0
    7.2173  -13.7106   24.5520 C   0  0  0  0  0  0  0  0  0  0  0  0
    6.3519  -14.2197   25.5376 C   0  0  0  0  0  0  0  0  0  0  0  0
    6.0124  -13.4535   26.6018 C   0  0  0  0  0  0  0  0  0  0  0  0
    6.4853  -12.1895   26.7551 C   0  0  0  0  0  0  0  0  0  0  0  0
    7.3251  -11.6750   25.8127 C   0  0  0  0  0  0  0  0  0  0  0  0
    7.6835  -12.4480   24.7139 C   0  0  0  0  0  0  0  0  0  0  0  0
    9.3378  -15.8512   24.5617 C   0  0  0  0  0  0  0  0  0  0  0  0
   10.3796  -15.3519   24.0112 O   0  0  0  0  0  0  0  0  0  0  0  0
   10.3276  -13.3597   27.4708 C   0  0  0  0  0  0  0  0  0  0  0  0
    9.8548  -14.6387   28.1598 C   0  0  2  0  0  0  0  0  0  0  0  0
    9.4715  -14.3822   29.5639 C   0  0  0  0  0  0  0  0  0  0  0  0
   10.7639  -15.7859   27.9072 C   0  0  0  0  0  0  0  0  0  0  0  0
   10.7404  -16.4275   26.5821 C   0  0  2  0  0  0  0  0  0  0  0  0
    9.4786  -16.2907   25.8834 N   0  0  0  0  0  0  0  0  0  0  0  0
   11.2435  -17.8225   26.5479 C   0  0  0  0  0  0  0  0  0  0  0  0
   12.5242  -18.1689   26.9526 O   0  0  0  0  0  0  0  0  0  0  0  0
   10.5096  -18.7598   26.1416 O   0  0  0  0  0  0  0  0  0  0  0  0
  2  1  1  0
  3  2  1  0
  4  3  2  0
  5  3  1  0
  6 14  1  0
  6  5  1  0
  6  7  1  1
  8  7  1  0
  9  8  2  0
 10  9  1  0
 11 10  2  0
 11 12  1  0
 12 13  2  0
 13  8  1  0
 14 15  2  0
 17 16  1  1
 17 19  1  0
 18 17  1  0
 20 19  1  1
 21 20  1  0
 21 14  1  0
 22 23  1  0
 22 20  1  0
 24 22  2  0
M  END
$$$$
