GFL.pdb
     RDKit          3D

 24 24  0  0  1  0  0  0  0  0999 V2000
   11.5392  -16.9486   19.3516 N   0  0  0  0  0  0  0  0  0  0  0  0
   10.4401  -17.3894   20.1547 C   0  0  0  0  0  0  0  0  0  0  0  0
   10.3131  -16.5764   21.4148 C   0  0  0  0  0  0  0  0  0  0  0  0
   11.3236  -16.0738   21.9652 O   0  0  0  0  0  0  0  0  0  0  0  0
    9.0504  -16.3517   22.0211 N   0  0  0  0  0  0  0  0  0  0  0  0
    8.7752  -15.6599   23.2252 C   0  0  1  0  0  0  0  0  0  0  0  0
    7.3663  -15.1100   23.2868 C   0  0  0  0  0  0  0  0  0  0  0  0
    7.1585  -14.1402   24.3903 C   0  0  0  0  0  0  0  0  0  0  0  0
    7.5949  -12.8108   24.2424 C   0  0  0  0  0  0  0  0  0  0  0  0
    7.4202  -11.9245   25.2517 C   0  0  0  0  0  0  0  0  0  0  0  0
    6.8286  -12.2783   26.4221 C   0  0  0  0  0  0  0  0  0  0  0  0
    6.3980  -13.5609   26.5882 C   0  0  0  0  0  0  0  0  0  0  0  0
    6.5698  -14.4835   25.5622 C   0  0  0  0  0  0  0  0  0  0  0  0
    9.1999  -16.3277   24.4517 C   0  0  0  0  0  0  0  0  0  0  0  0
    9.0524  -17.5977   24.5082 O   0  0  0  0  0  0  0  0  0  0  0  0
   10.7212  -13.2218   28.7039 C   0  0  0  0  0  0  0  0  0  0  0  0
    9.9609  -14.4353   28.1715 C   0  0  2  0  0  0  0  0  0  0  0  0
    8.8359  -14.7962   29.0592 C   0  0  0  0  0  0  0  0  0  0  0  0
   10.8701  -15.5332   27.7540 C   0  0  0  0  0  0  0  0  0  0  0  0
   10.4613  -16.4037   26.6391 C   0  0  2  0  0  0  0  0  0  0  0  0
    9.7561  -15.7119   25.5792 N   0  0  0  0  0  0  0  0  0  0  0  0
    9.7724  -17.6559   27.0365 C   0  0  0  0  0  0  0  0  0  0  0  0
    8.4859  -17.9687   26.6231 O   0  0  0  0  0  0  0  0  0  0  0  0
   10.3443  -18.4955   27.7783 O   0  0  0  0  0  0  0  0  0  0  0  0
  2  1  1  0
  3  2  1  0
  4  3  2  0
  5  3  1  0
  6 14  1  0
  6  5  1  0
  6  7  1  1
  8  7  1  0
  9  8  2  0
 10  9  1  0
 11 10  2  0
 11 12  1  0
 12 13  2  0
 13  8  1  0
 14 15  2  0
 17 16  1  1
 17 19  1  0
 18 17  1  0
 20 19  1  1
 21 20  1  0
 21 14  1  0
 22 23  1  0
 22 20  1  0
 24 22  2  0
M  END
$$$$
