GFL.pdb
     RDKit          3D

 24 24  0  0  1  0  0  0  0  0999 V2000
    6.5926  -21.2748   23.8183 N   0  0  0  0  0  0  0  0  0  0  0  0
    6.0714  -19.9535   23.9910 C   0  0  0  0  0  0  0  0  0  0  0  0
    6.9448  -18.9222   23.3289 C   0  0  0  0  0  0  0  0  0  0  0  0
    8.1768  -19.1151   23.1827 O   0  0  0  0  0  0  0  0  0  0  0  0
    6.4061  -17.7006   22.8493 N   0  0  0  0  0  0  0  0  0  0  0  0
    7.1073  -16.5296   22.4734 C   0  0  1  0  0  0  0  0  0  0  0  0
    6.2278  -15.5016   21.7944 C   0  0  0  0  0  0  0  0  0  0  0  0
    6.9925  -14.4358   21.1011 C   0  0  0  0  0  0  0  0  0  0  0  0
    7.6700  -14.7294   19.9034 C   0  0  0  0  0  0  0  0  0  0  0  0
    8.3809  -13.7638   19.2733 C   0  0  0  0  0  0  0  0  0  0  0  0
    8.4651  -12.5000   19.7639 C   0  0  0  0  0  0  0  0  0  0  0  0
    7.8171  -12.1923   20.9230 C   0  0  0  0  0  0  0  0  0  0  0  0
    7.0831  -13.1718   21.5827 C   0  0  0  0  0  0  0  0  0  0  0  0
    7.9931  -15.9674   23.4882 C   0  0  0  0  0  0  0  0  0  0  0  0
    9.2016  -15.7269   23.1425 O   0  0  0  0  0  0  0  0  0  0  0  0
    7.9334  -11.8679   25.4258 C   0  0  0  0  0  0  0  0  0  0  0  0
    7.0826  -12.9986   26.0018 C   0  0  2  0  0  0  0  0  0  0  0  0
    5.9442  -12.4701   26.7822 C   0  0  0  0  0  0  0  0  0  0  0  0
    7.9064  -14.0560   26.6417 C   0  0  0  0  0  0  0  0  0  0  0  0
    8.5422  -15.0712   25.7854 C   0  0  2  0  0  0  0  0  0  0  0  0
    7.6487  -15.6634   24.8106 N   0  0  0  0  0  0  0  0  0  0  0  0
    9.3339  -16.0980   26.5060 C   0  0  0  0  0  0  0  0  0  0  0  0
    9.1394  -17.4594   26.3251 O   0  0  0  0  0  0  0  0  0  0  0  0
   10.2286  -15.7616   27.3236 O   0  0  0  0  0  0  0  0  0  0  0  0
  2  1  1  0
  3  2  1  0
  4  3  2  0
  5  3  1  0
  6 14  1  0
  6  5  1  0
  6  7  1  1
  8  7  1  0
  9  8  2  0
 10  9  1  0
 11 10  2  0
 11 12  1  0
 12 13  2  0
 13  8  1  0
 14 15  2  0
 17 16  1  1
 17 19  1  0
 18 17  1  0
 20 19  1  1
 21 20  1  0
 21 14  1  0
 22 23  1  0
 22 20  1  0
 24 22  2  0
M  END
$$$$
