GFL.pdb
     RDKit          3D

 24 24  0  0  1  0  0  0  0  0999 V2000
   12.2318  -17.1301   19.8296 N   0  0  0  0  0  0  0  0  0  0  0  0
   11.0793  -17.5727   20.5529 C   0  0  0  0  0  0  0  0  0  0  0  0
   10.7885  -16.6824   21.7309 C   0  0  0  0  0  0  0  0  0  0  0  0
   11.7065  -16.0434   22.3013 O   0  0  0  0  0  0  0  0  0  0  0  0
    9.4704  -16.5361   22.2346 N   0  0  0  0  0  0  0  0  0  0  0  0
    9.0605  -15.8765   23.4184 C   0  0  1  0  0  0  0  0  0  0  0  0
    7.6397  -15.3592   23.3497 C   0  0  0  0  0  0  0  0  0  0  0  0
    7.3028  -14.4117   24.4407 C   0  0  0  0  0  0  0  0  0  0  0  0
    6.5960  -14.8684   25.5683 C   0  0  0  0  0  0  0  0  0  0  0  0
    6.2739  -14.0050   26.5610 C   0  0  0  0  0  0  0  0  0  0  0  0
    6.6142  -12.6912   26.5069 C   0  0  0  0  0  0  0  0  0  0  0  0
    7.2991  -12.2259   25.4241 C   0  0  0  0  0  0  0  0  0  0  0  0
    7.6375  -13.0987   24.3960 C   0  0  0  0  0  0  0  0  0  0  0  0
    9.3773  -16.5610   24.6680 C   0  0  0  0  0  0  0  0  0  0  0  0
    9.3395  -17.8402   24.6609 O   0  0  0  0  0  0  0  0  0  0  0  0
   10.2952  -13.5029   27.1820 C   0  0  0  0  0  0  0  0  0  0  0  0
    9.7917  -14.4711   28.2511 C   0  0  2  0  0  0  0  0  0  0  0  0
    9.6953  -13.8118   29.5703 C   0  0  0  0  0  0  0  0  0  0  0  0
   10.4898  -15.7812   28.2009 C   0  0  0  0  0  0  0  0  0  0  0  0
   10.3010  -16.6375   27.0181 C   0  0  2  0  0  0  0  0  0  0  0  0
    9.7206  -15.9522   25.8810 N   0  0  0  0  0  0  0  0  0  0  0  0
    9.6351  -17.9369   27.2799 C   0  0  0  0  0  0  0  0  0  0  0  0
   10.2111  -18.9330   28.0545 O   0  0  0  0  0  0  0  0  0  0  0  0
    8.5002  -18.1853   26.7977 O   0  0  0  0  0  0  0  0  0  0  0  0
  2  1  1  0
  3  2  1  0
  4  3  2  0
  5  3  1  0
  6 14  1  0
  6  5  1  0
  6  7  1  6
  8  7  1  0
  9  8  2  0
 10  9  1  0
 11 10  2  0
 11 12  1  0
 12 13  2  0
 13  8  1  0
 14 15  2  0
 17 16  1  6
 17 19  1  0
 18 17  1  0
 20 19  1  1
 21 20  1  0
 21 14  1  0
 22 23  1  0
 22 20  1  0
 24 22  2  0
M  END
$$$$
