GFL.pdb
     RDKit          3D

 24 24  0  0  1  0  0  0  0  0999 V2000
   12.2633  -16.6358   19.8607 N   0  0  0  0  0  0  0  0  0  0  0  0
   11.0655  -17.1436   20.4563 C   0  0  0  0  0  0  0  0  0  0  0  0
   10.7168  -16.4023   21.7187 C   0  0  0  0  0  0  0  0  0  0  0  0
   11.6046  -15.8372   22.4035 O   0  0  0  0  0  0  0  0  0  0  0  0
    9.3764  -16.3177   22.1757 N   0  0  0  0  0  0  0  0  0  0  0  0
    8.9052  -15.7601   23.3886 C   0  0  1  0  0  0  0  0  0  0  0  0
    7.4309  -15.4189   23.3534 C   0  0  0  0  0  0  0  0  0  0  0  0
    7.0203  -14.4642   24.4124 C   0  0  0  0  0  0  0  0  0  0  0  0
    7.4288  -13.1199   24.3367 C   0  0  0  0  0  0  0  0  0  0  0  0
    7.0684  -12.2469   25.3076 C   0  0  0  0  0  0  0  0  0  0  0  0
    6.3135  -12.6284   26.3704 C   0  0  0  0  0  0  0  0  0  0  0  0
    5.9061  -13.9258   26.4651 C   0  0  0  0  0  0  0  0  0  0  0  0
    6.2676  -14.8350   25.4771 C   0  0  0  0  0  0  0  0  0  0  0  0
    9.3205  -16.4487   24.6068 C   0  0  0  0  0  0  0  0  0  0  0  0
    9.4412  -17.7214   24.5479 O   0  0  0  0  0  0  0  0  0  0  0  0
   11.4063  -13.6999   27.0238 C   0  0  0  0  0  0  0  0  0  0  0  0
   10.3191  -14.2002   27.9733 C   0  0  2  0  0  0  0  0  0  0  0  0
   10.2476  -13.3694   29.1934 C   0  0  0  0  0  0  0  0  0  0  0  0
   10.3669  -15.6728   28.1614 C   0  0  0  0  0  0  0  0  0  0  0  0
   10.1389  -16.5419   26.9949 C   0  0  2  0  0  0  0  0  0  0  0  0
    9.6014  -15.8502   25.8408 N   0  0  0  0  0  0  0  0  0  0  0  0
    9.4037  -17.7986   27.2788 C   0  0  0  0  0  0  0  0  0  0  0  0
    9.9442  -18.8309   28.0313 O   0  0  0  0  0  0  0  0  0  0  0  0
    8.2392  -17.9748   26.8372 O   0  0  0  0  0  0  0  0  0  0  0  0
  2  1  1  0
  3  2  1  0
  4  3  2  0
  5  3  1  0
  6 14  1  0
  6  5  1  0
  6  7  1  6
  8  7  1  0
  9  8  2  0
 10  9  1  0
 11 10  2  0
 11 12  1  0
 12 13  2  0
 13  8  1  0
 14 15  2  0
 17 16  1  1
 17 19  1  0
 18 17  1  0
 20 19  1  1
 21 20  1  0
 21 14  1  0
 22 23  1  0
 22 20  1  0
 24 22  2  0
M  END
$$$$
