DGE.pdb
     RDKit          3D

 22 21  0  0  1  0  0  0  0  0999 V2000
    9.2094  -17.3757   18.0500 N   0  0  0  0  0  0  0  0  0  0  0  0
   10.0412  -18.2901   18.7882 C   0  0  1  0  0  0  0  0  0  0  0  0
   10.8046  -19.1337   17.7780 C   0  0  0  0  0  0  0  0  0  0  0  0
    9.8707  -19.9928   17.0312 C   0  0  0  0  0  0  0  0  0  0  0  0
    8.6514  -20.0474   17.3596 O   0  0  0  0  0  0  0  0  0  0  0  0
   10.9568  -17.5398   19.6637 C   0  0  0  0  0  0  0  0  0  0  0  0
   12.1991  -17.5960   19.4968 O   0  0  0  0  0  0  0  0  0  0  0  0
   10.2812  -20.7637   15.9563 O   0  0  0  0  0  0  0  0  0  0  0  0
   10.4569  -16.7416   20.7083 N   0  0  0  0  0  0  0  0  0  0  0  0
   11.3054  -15.8812   21.4964 C   0  0  0  0  0  0  0  0  0  0  0  0
   11.9963  -16.7076   22.5356 C   0  0  0  0  0  0  0  0  0  0  0  0
   11.6216  -17.8716   22.8400 O   0  0  0  0  0  0  0  0  0  0  0  0
   13.1314  -16.1946   23.2364 N   0  0  0  0  0  0  0  0  0  0  0  0
   13.8689  -16.9618   24.2302 C   0  0  1  0  0  0  0  0  0  0  0  0
   15.2488  -16.3774   24.2744 C   0  0  0  0  0  0  0  0  0  0  0  0
   15.8498  -16.0982   22.9198 C   0  0  0  0  0  0  0  0  0  0  0  0
   17.1977  -15.5108   23.1519 C   0  0  0  0  0  0  0  0  0  0  0  0
   17.5777  -14.9707   24.2035 O   0  0  0  0  0  0  0  0  0  0  0  0
   13.1476  -16.8861   25.5015 C   0  0  0  0  0  0  0  0  0  0  0  0
   12.1727  -16.1238   25.7274 O   0  0  0  0  0  0  0  0  0  0  0  0
   18.1028  -15.5776   22.0930 O   0  0  0  0  0  0  0  0  0  0  0  0
   13.5288  -17.6942   26.5655 O   0  0  0  0  0  0  0  0  0  0  0  0
  2  1  1  6
  2  3  1  0
  3  4  1  0
  4  8  1  0
  5  4  2  0
  6  9  1  0
  6  2  1  0
  7  6  2  0
 10  9  1  0
 11 13  1  0
 11 10  1  0
 12 11  2  0
 14 13  1  0
 14 15  1  1
 15 16  1  0
 16 17  1  0
 17 18  2  0
 17 21  1  0
 19 14  1  0
 20 19  2  0
 22 19  1  0
M  END
$$$$
