DGE.pdb
     RDKit          3D

 22 21  0  0  1  0  0  0  0  0999 V2000
    9.9971  -17.8006   19.6218 N   0  0  0  0  0  0  0  0  0  0  0  0
    8.7457  -17.3779   19.0489 C   0  0  1  0  0  0  0  0  0  0  0  0
    8.1089  -18.5928   18.3904 C   0  0  0  0  0  0  0  0  0  0  0  0
    9.1547  -19.5029   17.8946 C   0  0  0  0  0  0  0  0  0  0  0  0
    9.7785  -19.2381   16.8276 O   0  0  0  0  0  0  0  0  0  0  0  0
    7.8777  -16.8178   20.0979 C   0  0  0  0  0  0  0  0  0  0  0  0
    6.7381  -16.3716   19.8215 O   0  0  0  0  0  0  0  0  0  0  0  0
    9.4936  -20.6668   18.5643 O   0  0  0  0  0  0  0  0  0  0  0  0
    8.3085  -16.7714   21.4359 N   0  0  0  0  0  0  0  0  0  0  0  0
    7.4870  -16.2345   22.4934 C   0  0  0  0  0  0  0  0  0  0  0  0
    8.3740  -15.5843   23.5087 C   0  0  0  0  0  0  0  0  0  0  0  0
    9.6309  -15.6622   23.4645 O   0  0  0  0  0  0  0  0  0  0  0  0
    7.8147  -14.8348   24.5895 N   0  0  0  0  0  0  0  0  0  0  0  0
    8.6137  -14.2794   25.6727 C   0  0  1  0  0  0  0  0  0  0  0  0
    7.6740  -13.4747   26.5195 C   0  0  0  0  0  0  0  0  0  0  0  0
    7.1749  -12.2107   25.8657 C   0  0  0  0  0  0  0  0  0  0  0  0
    6.2177  -11.5768   26.8131 C   0  0  0  0  0  0  0  0  0  0  0  0
    5.8099  -12.0814   27.8719 O   0  0  0  0  0  0  0  0  0  0  0  0
    9.2608  -15.3834   26.3831 C   0  0  0  0  0  0  0  0  0  0  0  0
    8.8134  -16.5576   26.4412 O   0  0  0  0  0  0  0  0  0  0  0  0
    5.7446  -10.3093   26.4741 O   0  0  0  0  0  0  0  0  0  0  0  0
   10.4570  -15.1694   27.0568 O   0  0  0  0  0  0  0  0  0  0  0  0
  2  1  1  1
  2  3  1  0
  3  4  1  0
  4  8  1  0
  5  4  2  0
  6  9  1  0
  6  2  1  0
  7  6  2  0
 10  9  1  0
 11 13  1  0
 11 10  1  0
 12 11  2  0
 14 13  1  0
 14 15  1  1
 15 16  1  0
 16 17  1  0
 17 18  2  0
 17 21  1  0
 19 14  1  0
 20 19  2  0
 22 19  1  0
M  END
$$$$
