DGE.pdb
     RDKit          3D

 22 21  0  0  1  0  0  0  0  0999 V2000
    7.9730  -12.9211   18.5359 N   0  0  0  0  0  0  0  0  0  0  0  0
    7.8282  -14.3532   18.5714 C   0  0  1  0  0  0  0  0  0  0  0  0
    9.1131  -14.9580   18.0252 C   0  0  0  0  0  0  0  0  0  0  0  0
    9.2612  -14.6223   16.5993 C   0  0  0  0  0  0  0  0  0  0  0  0
    8.2433  -14.5299   15.8558 O   0  0  0  0  0  0  0  0  0  0  0  0
    7.5689  -14.7968   19.9511 C   0  0  0  0  0  0  0  0  0  0  0  0
    7.3319  -16.0020   20.2070 O   0  0  0  0  0  0  0  0  0  0  0  0
   10.5001  -14.3974   16.0225 O   0  0  0  0  0  0  0  0  0  0  0  0
    7.5819  -13.8765   21.0146 N   0  0  0  0  0  0  0  0  0  0  0  0
    7.3569  -14.2746   22.3830 C   0  0  0  0  0  0  0  0  0  0  0  0
    8.6549  -14.7335   22.9701 C   0  0  0  0  0  0  0  0  0  0  0  0
    9.7361  -14.7244   22.3231 O   0  0  0  0  0  0  0  0  0  0  0  0
    8.7161  -15.2097   24.3163 N   0  0  0  0  0  0  0  0  0  0  0  0
    9.9673  -15.4708   25.0139 C   0  0  1  0  0  0  0  0  0  0  0  0
    9.7765  -14.9815   26.4182 C   0  0  0  0  0  0  0  0  0  0  0  0
   10.9692  -15.1904   27.3171 C   0  0  0  0  0  0  0  0  0  0  0  0
   10.6312  -14.5934   28.6381 C   0  0  0  0  0  0  0  0  0  0  0  0
    9.5628  -14.0278   28.9218 O   0  0  0  0  0  0  0  0  0  0  0  0
   10.2623  -16.9009   24.9150 C   0  0  0  0  0  0  0  0  0  0  0  0
    9.3976  -17.8014   24.7601 O   0  0  0  0  0  0  0  0  0  0  0  0
   11.6030  -14.6818   29.6345 O   0  0  0  0  0  0  0  0  0  0  0  0
   11.5763  -17.3459   24.9915 O   0  0  0  0  0  0  0  0  0  0  0  0
  2  1  1  1
  2  3  1  0
  3  4  1  0
  4  8  1  0
  5  4  2  0
  6  9  1  0
  6  2  1  0
  7  6  2  0
 10  9  1  0
 11 13  1  0
 11 10  1  0
 12 11  2  0
 14 13  1  0
 14 15  1  1
 15 16  1  0
 16 17  1  0
 17 18  2  0
 17 21  1  0
 19 14  1  0
 20 19  2  0
 22 19  1  0
M  END
$$$$
