DGE.pdb
     RDKit          3D

 22 21  0  0  1  0  0  0  0  0999 V2000
    9.8476  -17.9934   20.6755 N   0  0  0  0  0  0  0  0  0  0  0  0
   11.1424  -18.0627   20.0496 C   0  0  1  0  0  0  0  0  0  0  0  0
   11.0011  -17.5068   18.6403 C   0  0  0  0  0  0  0  0  0  0  0  0
   10.3454  -18.4981   17.7712 C   0  0  0  0  0  0  0  0  0  0  0  0
   10.0515  -19.6436   18.2176 O   0  0  0  0  0  0  0  0  0  0  0  0
   12.1211  -17.2935   20.8357 C   0  0  0  0  0  0  0  0  0  0  0  0
   13.3152  -17.1978   20.4627 O   0  0  0  0  0  0  0  0  0  0  0  0
   10.0282  -18.2225   16.4516 O   0  0  0  0  0  0  0  0  0  0  0  0
   11.7371  -16.6473   22.0244 N   0  0  0  0  0  0  0  0  0  0  0  0
   12.6273  -15.7757   22.7518 C   0  0  0  0  0  0  0  0  0  0  0  0
   13.6693  -16.6094   23.4297 C   0  0  0  0  0  0  0  0  0  0  0  0
   13.4548  -17.7917   23.8090 O   0  0  0  0  0  0  0  0  0  0  0  0
   14.9746  -16.0824   23.6773 N   0  0  0  0  0  0  0  0  0  0  0  0
   16.0154  -16.8245   24.3745 C   0  0  1  0  0  0  0  0  0  0  0  0
   17.2876  -16.0578   24.1710 C   0  0  0  0  0  0  0  0  0  0  0  0
   17.6400  -15.8099   22.7259 C   0  0  0  0  0  0  0  0  0  0  0  0
   18.9497  -15.1026   22.7102 C   0  0  0  0  0  0  0  0  0  0  0  0
   19.8180  -15.2122   21.8292 O   0  0  0  0  0  0  0  0  0  0  0  0
   15.6217  -16.9662   25.7770 C   0  0  0  0  0  0  0  0  0  0  0  0
   14.7450  -16.2684   26.3487 O   0  0  0  0  0  0  0  0  0  0  0  0
   19.2146  -14.2472   23.7794 O   0  0  0  0  0  0  0  0  0  0  0  0
   16.2307  -17.9263   26.5758 O   0  0  0  0  0  0  0  0  0  0  0  0
  2  1  1  1
  2  3  1  0
  3  4  1  0
  4  8  1  0
  5  4  2  0
  6  9  1  0
  6  2  1  0
  7  6  2  0
 10  9  1  0
 11 13  1  0
 11 10  1  0
 12 11  2  0
 14 13  1  0
 14 15  1  1
 15 16  1  0
 16 17  1  0
 17 18  2  0
 17 21  1  0
 19 14  1  0
 20 19  2  0
 22 19  1  0
M  END
$$$$
