DGE.pdb
     RDKit          3D

 22 21  0  0  1  0  0  0  0  0999 V2000
    7.4701  -16.6836   17.3743 N   0  0  0  0  0  0  0  0  0  0  0  0
    8.3495  -17.6362   16.7480 C   0  0  1  0  0  0  0  0  0  0  0  0
    9.1857  -16.8841   15.7233 C   0  0  0  0  0  0  0  0  0  0  0  0
    8.4045  -16.6726   14.4933 C   0  0  0  0  0  0  0  0  0  0  0  0
    7.2576  -17.1890   14.3683 O   0  0  0  0  0  0  0  0  0  0  0  0
    9.1967  -18.2805   17.7652 C   0  0  0  0  0  0  0  0  0  0  0  0
    9.9393  -19.2471   17.4675 O   0  0  0  0  0  0  0  0  0  0  0  0
    8.8845  -15.9122   13.4399 O   0  0  0  0  0  0  0  0  0  0  0  0
    9.1920  -17.8247   19.0957 N   0  0  0  0  0  0  0  0  0  0  0  0
   10.0124  -18.4240   20.1201 C   0  0  0  0  0  0  0  0  0  0  0  0
   10.9157  -17.3744   20.6882 C   0  0  0  0  0  0  0  0  0  0  0  0
   11.2260  -16.3287   20.0573 O   0  0  0  0  0  0  0  0  0  0  0  0
   11.4719  -17.5241   21.9963 N   0  0  0  0  0  0  0  0  0  0  0  0
   12.2377  -16.4796   22.6617 C   0  0  1  0  0  0  0  0  0  0  0  0
   11.8610  -16.5400   24.1116 C   0  0  0  0  0  0  0  0  0  0  0  0
   12.1788  -17.8526   24.7826 C   0  0  0  0  0  0  0  0  0  0  0  0
   11.7427  -17.7357   26.2010 C   0  0  0  0  0  0  0  0  0  0  0  0
   11.3495  -16.6941   26.7511 O   0  0  0  0  0  0  0  0  0  0  0  0
   13.6593  -16.7131   22.4040 C   0  0  0  0  0  0  0  0  0  0  0  0
   14.1350  -17.7729   21.9214 O   0  0  0  0  0  0  0  0  0  0  0  0
   11.7828  -18.8994   26.9686 O   0  0  0  0  0  0  0  0  0  0  0  0
   14.5898  -15.7235   22.6964 O   0  0  0  0  0  0  0  0  0  0  0  0
  2  1  1  1
  2  3  1  0
  3  4  1  0
  4  8  1  0
  5  4  2  0
  6  9  1  0
  6  2  1  0
  7  6  2  0
 10  9  1  0
 11 13  1  0
 11 10  1  0
 12 11  2  0
 14 13  1  0
 14 15  1  1
 15 16  1  0
 16 17  1  0
 17 18  2  0
 17 21  1  0
 19 14  1  0
 20 19  2  0
 22 19  1  0
M  END
$$$$
