DGE.pdb
     RDKit          3D

 22 21  0  0  1  0  0  0  0  0999 V2000
    9.2637  -17.8488   17.5676 N   0  0  0  0  0  0  0  0  0  0  0  0
    7.9599  -17.3374   17.9015 C   0  0  1  0  0  0  0  0  0  0  0  0
    7.1027  -18.5162   18.3384 C   0  0  0  0  0  0  0  0  0  0  0  0
    6.8974  -19.4361   17.2072 C   0  0  0  0  0  0  0  0  0  0  0  0
    7.3169  -19.1339   16.0539 O   0  0  0  0  0  0  0  0  0  0  0  0
    8.0747  -16.3307   18.9696 C   0  0  0  0  0  0  0  0  0  0  0  0
    7.0619  -15.7258   19.3970 O   0  0  0  0  0  0  0  0  0  0  0  0
    6.2477  -20.6501   17.3564 O   0  0  0  0  0  0  0  0  0  0  0  0
    9.3255  -16.0251   19.5355 N   0  0  0  0  0  0  0  0  0  0  0  0
    9.4850  -15.0226   20.5607 C   0  0  0  0  0  0  0  0  0  0  0  0
    9.2887  -15.6663   21.8977 C   0  0  0  0  0  0  0  0  0  0  0  0
    8.1509  -15.9651   22.3493 O   0  0  0  0  0  0  0  0  0  0  0  0
   10.4102  -15.9716   22.7294 N   0  0  0  0  0  0  0  0  0  0  0  0
   10.3331  -16.8665   23.8755 C   0  0  1  0  0  0  0  0  0  0  0  0
   10.6625  -18.2364   23.3631 C   0  0  0  0  0  0  0  0  0  0  0  0
   12.1229  -18.6007   23.4560 C   0  0  0  0  0  0  0  0  0  0  0  0
   12.2720  -19.9621   22.8728 C   0  0  0  0  0  0  0  0  0  0  0  0
   11.6418  -20.9716   23.2274 O   0  0  0  0  0  0  0  0  0  0  0  0
   11.2505  -16.3781   24.9060 C   0  0  0  0  0  0  0  0  0  0  0  0
   11.1714  -16.6635   26.1286 O   0  0  0  0  0  0  0  0  0  0  0  0
   13.2003  -20.1057   21.8419 O   0  0  0  0  0  0  0  0  0  0  0  0
   12.3002  -15.5365   24.5592 O   0  0  0  0  0  0  0  0  0  0  0  0
  2  1  1  1
  2  3  1  0
  3  4  1  0
  4  8  1  0
  5  4  2  0
  6  9  1  0
  6  2  1  0
  7  6  2  0
 10  9  1  0
 11 13  1  0
 11 10  1  0
 12 11  2  0
 14 13  1  0
 14 15  1  6
 15 16  1  0
 16 17  1  0
 17 18  2  0
 17 21  1  0
 19 14  1  0
 20 19  2  0
 22 19  1  0
M  END
$$$$
