DGE.pdb
     RDKit          3D

 22 21  0  0  1  0  0  0  0  0999 V2000
    9.9179  -16.6304   19.1939 N   0  0  0  0  0  0  0  0  0  0  0  0
    8.6459  -15.9559   19.2017 C   0  0  1  0  0  0  0  0  0  0  0  0
    7.5768  -16.9889   18.8775 C   0  0  0  0  0  0  0  0  0  0  0  0
    7.6937  -17.4104   17.4716 C   0  0  0  0  0  0  0  0  0  0  0  0
    8.6539  -18.1451   17.1028 O   0  0  0  0  0  0  0  0  0  0  0  0
    8.4145  -15.3371   20.5174 C   0  0  0  0  0  0  0  0  0  0  0  0
    7.7518  -14.2770   20.6237 O   0  0  0  0  0  0  0  0  0  0  0  0
    6.7729  -17.0270   16.5108 O   0  0  0  0  0  0  0  0  0  0  0  0
    8.9325  -15.9230   21.6864 N   0  0  0  0  0  0  0  0  0  0  0  0
    8.7072  -15.3621   22.9964 C   0  0  0  0  0  0  0  0  0  0  0  0
    9.3150  -16.2699   24.0195 C   0  0  0  0  0  0  0  0  0  0  0  0
    8.7919  -17.3666   24.3535 O   0  0  0  0  0  0  0  0  0  0  0  0
   10.5381  -15.9174   24.6695 N   0  0  0  0  0  0  0  0  0  0  0  0
   11.2788  -16.8329   25.5259 C   0  0  1  0  0  0  0  0  0  0  0  0
   12.7302  -16.5128   25.3288 C   0  0  0  0  0  0  0  0  0  0  0  0
   13.2243  -16.7086   23.9175 C   0  0  0  0  0  0  0  0  0  0  0  0
   14.6556  -16.3006   23.8946 C   0  0  0  0  0  0  0  0  0  0  0  0
   15.5950  -16.9363   24.4000 O   0  0  0  0  0  0  0  0  0  0  0  0
   10.8109  -16.6599   26.9018 C   0  0  0  0  0  0  0  0  0  0  0  0
   10.1003  -15.7019   27.3014 O   0  0  0  0  0  0  0  0  0  0  0  0
   14.9567  -15.1017   23.2487 O   0  0  0  0  0  0  0  0  0  0  0  0
   11.1492  -17.5942   27.8731 O   0  0  0  0  0  0  0  0  0  0  0  0
  2  1  1  1
  2  3  1  0
  3  4  1  0
  4  8  1  0
  5  4  2  0
  6  9  1  0
  6  2  1  0
  7  6  2  0
 10  9  1  0
 11 13  1  0
 11 10  1  0
 12 11  2  0
 14 13  1  0
 14 15  1  1
 15 16  1  0
 16 17  1  0
 17 18  2  0
 17 21  1  0
 19 14  1  0
 20 19  2  0
 22 19  1  0
M  END
$$$$
