DGE.pdb
     RDKit          3D

 22 21  0  0  1  0  0  0  0  0999 V2000
    8.6684  -18.5853   19.3551 N   0  0  0  0  0  0  0  0  0  0  0  0
    9.3808  -17.5007   18.7313 C   0  0  1  0  0  0  0  0  0  0  0  0
    9.1137  -17.5767   17.2353 C   0  0  0  0  0  0  0  0  0  0  0  0
    9.9617  -18.6137   16.6244 C   0  0  0  0  0  0  0  0  0  0  0  0
    9.4385  -19.5858   16.0089 O   0  0  0  0  0  0  0  0  0  0  0  0
    8.9311  -16.2165   19.2935 C   0  0  0  0  0  0  0  0  0  0  0  0
    9.5191  -15.1459   19.0066 O   0  0  0  0  0  0  0  0  0  0  0  0
   11.3441  -18.5687   16.6965 O   0  0  0  0  0  0  0  0  0  0  0  0
    7.8294  -16.1622   20.1661 N   0  0  0  0  0  0  0  0  0  0  0  0
    7.4003  -14.9355   20.7927 C   0  0  0  0  0  0  0  0  0  0  0  0
    8.1524  -14.7617   22.0750 C   0  0  0  0  0  0  0  0  0  0  0  0
    9.3985  -14.5790   22.1144 O   0  0  0  0  0  0  0  0  0  0  0  0
    7.4687  -14.7980   23.3297 N   0  0  0  0  0  0  0  0  0  0  0  0
    8.0874  -14.4020   24.5869 C   0  0  1  0  0  0  0  0  0  0  0  0
    7.0674  -13.5819   25.3183 C   0  0  0  0  0  0  0  0  0  0  0  0
    7.5539  -13.0032   26.6231 C   0  0  0  0  0  0  0  0  0  0  0  0
    6.4236  -12.2309   27.2075 C   0  0  0  0  0  0  0  0  0  0  0  0
    5.2598  -12.2167   26.7748 O   0  0  0  0  0  0  0  0  0  0  0  0
    8.5030  -15.6113   25.2989 C   0  0  0  0  0  0  0  0  0  0  0  0
    7.9467  -16.7341   25.1886 O   0  0  0  0  0  0  0  0  0  0  0  0
    6.7056  -11.4615   28.3361 O   0  0  0  0  0  0  0  0  0  0  0  0
    9.5845  -15.5672   26.1701 O   0  0  0  0  0  0  0  0  0  0  0  0
  2  1  1  1
  2  3  1  0
  3  4  1  0
  4  8  1  0
  5  4  2  0
  6  9  1  0
  6  2  1  0
  7  6  2  0
 10  9  1  0
 11 13  1  0
 11 10  1  0
 12 11  2  0
 14 13  1  0
 14 15  1  1
 15 16  1  0
 16 17  1  0
 17 18  2  0
 17 21  1  0
 19 14  1  0
 20 19  2  0
 22 19  1  0
M  END
$$$$
