DGE.pdb
     RDKit          3D

 22 21  0  0  1  0  0  0  0  0999 V2000
    6.6975  -17.4560   17.0061 N   0  0  0  0  0  0  0  0  0  0  0  0
    8.0846  -17.2833   16.6612 C   0  0  1  0  0  0  0  0  0  0  0  0
    8.1402  -16.4642   15.3800 C   0  0  0  0  0  0  0  0  0  0  0  0
    7.6547  -17.2687   14.2465 C   0  0  0  0  0  0  0  0  0  0  0  0
    6.8256  -16.7815   13.4262 O   0  0  0  0  0  0  0  0  0  0  0  0
    8.7947  -16.6101   17.7612 C   0  0  0  0  0  0  0  0  0  0  0  0
   10.0455  -16.5114   17.7562 O   0  0  0  0  0  0  0  0  0  0  0  0
    8.0783  -18.5701   14.0345 O   0  0  0  0  0  0  0  0  0  0  0  0
    8.0841  -16.0615   18.8438 N   0  0  0  0  0  0  0  0  0  0  0  0
    8.7265  -15.2804   19.8728 C   0  0  0  0  0  0  0  0  0  0  0  0
    9.4247  -16.2091   20.8164 C   0  0  0  0  0  0  0  0  0  0  0  0
    9.0543  -17.3996   20.9990 O   0  0  0  0  0  0  0  0  0  0  0  0
   10.5621  -15.7689   21.5616 N   0  0  0  0  0  0  0  0  0  0  0  0
   11.3221  -16.6406   22.4463 C   0  0  1  0  0  0  0  0  0  0  0  0
   12.7117  -16.0802   22.4978 C   0  0  0  0  0  0  0  0  0  0  0  0
   13.6441  -16.8137   23.4287 C   0  0  0  0  0  0  0  0  0  0  0  0
   14.9998  -16.2284   23.2407 C   0  0  0  0  0  0  0  0  0  0  0  0
   15.2533  -15.0182   23.1260 O   0  0  0  0  0  0  0  0  0  0  0  0
   10.6475  -16.6839   23.7443 C   0  0  0  0  0  0  0  0  0  0  0  0
    9.8413  -15.8131   24.1618 O   0  0  0  0  0  0  0  0  0  0  0  0
   16.0687  -17.1229   23.1902 O   0  0  0  0  0  0  0  0  0  0  0  0
   10.8811  -17.7425   24.6135 O   0  0  0  0  0  0  0  0  0  0  0  0
  2  1  1  1
  2  3  1  0
  3  4  1  0
  4  8  1  0
  5  4  2  0
  6  9  1  0
  6  2  1  0
  7  6  2  0
 10  9  1  0
 11 13  1  0
 11 10  1  0
 12 11  2  0
 14 13  1  0
 14 15  1  1
 15 16  1  0
 16 17  1  0
 17 18  2  0
 17 21  1  0
 19 14  1  0
 20 19  2  0
 22 19  1  0
M  END
$$$$
