DGE.pdb
     RDKit          3D

 22 21  0  0  1  0  0  0  0  0999 V2000
    7.9024  -16.3969   19.3337 N   0  0  0  0  0  0  0  0  0  0  0  0
    8.4358  -15.0772   19.5500 C   0  0  1  0  0  0  0  0  0  0  0  0
    7.6057  -14.1058   18.7239 C   0  0  0  0  0  0  0  0  0  0  0  0
    7.8916  -14.2909   17.2915 C   0  0  0  0  0  0  0  0  0  0  0  0
    7.3825  -15.2594   16.6586 O   0  0  0  0  0  0  0  0  0  0  0  0
    8.3847  -14.7445   20.9833 C   0  0  0  0  0  0  0  0  0  0  0  0
    8.8430  -13.6570   21.4094 O   0  0  0  0  0  0  0  0  0  0  0  0
    8.7154  -13.4271   16.5891 O   0  0  0  0  0  0  0  0  0  0  0  0
    7.8191  -15.6408   21.9077 N   0  0  0  0  0  0  0  0  0  0  0  0
    7.8091  -15.3823   23.3271 C   0  0  0  0  0  0  0  0  0  0  0  0
    9.0367  -15.9858   23.9346 C   0  0  0  0  0  0  0  0  0  0  0  0
   10.0209  -16.3663   23.2459 O   0  0  0  0  0  0  0  0  0  0  0  0
    9.1390  -16.1565   25.3500 N   0  0  0  0  0  0  0  0  0  0  0  0
   10.3315  -16.6729   26.0069 C   0  0  1  0  0  0  0  0  0  0  0  0
   10.1910  -16.3350   27.4609 C   0  0  0  0  0  0  0  0  0  0  0  0
   11.2924  -15.4606   28.0055 C   0  0  0  0  0  0  0  0  0  0  0  0
   10.6998  -14.6393   29.0964 C   0  0  0  0  0  0  0  0  0  0  0  0
    9.5387  -14.7392   29.5250 O   0  0  0  0  0  0  0  0  0  0  0  0
   10.4253  -18.1077   25.7339 C   0  0  0  0  0  0  0  0  0  0  0  0
    9.4545  -18.8405   25.4130 O   0  0  0  0  0  0  0  0  0  0  0  0
   11.5264  -13.6793   29.6797 O   0  0  0  0  0  0  0  0  0  0  0  0
   11.6528  -18.7527   25.8222 O   0  0  0  0  0  0  0  0  0  0  0  0
  2  1  1  1
  2  3  1  0
  3  4  1  0
  4  8  1  0
  5  4  2  0
  6  9  1  0
  6  2  1  0
  7  6  2  0
 10  9  1  0
 11 13  1  0
 11 10  1  0
 12 11  2  0
 14 13  1  0
 14 15  1  1
 15 16  1  0
 16 17  1  0
 17 18  2  0
 17 21  1  0
 19 14  1  0
 20 19  2  0
 22 19  1  0
M  END
$$$$
