DGE.pdb
     RDKit          3D

 22 21  0  0  1  0  0  0  0  0999 V2000
   14.9963  -18.6615   20.3937 N   0  0  0  0  0  0  0  0  0  0  0  0
   13.9574  -17.7185   20.0707 C   0  0  1  0  0  0  0  0  0  0  0  0
   13.9457  -17.5488   18.5587 C   0  0  0  0  0  0  0  0  0  0  0  0
   15.1469  -16.8162   18.1249 C   0  0  0  0  0  0  0  0  0  0  0  0
   15.7391  -16.0324   18.9203 O   0  0  0  0  0  0  0  0  0  0  0  0
   12.6616  -18.2108   20.5667 C   0  0  0  0  0  0  0  0  0  0  0  0
   12.1755  -19.2869   20.1425 O   0  0  0  0  0  0  0  0  0  0  0  0
   15.6699  -16.9525   16.8497 O   0  0  0  0  0  0  0  0  0  0  0  0
   11.9393  -17.4836   21.5297 N   0  0  0  0  0  0  0  0  0  0  0  0
   10.6441  -17.9059   22.0049 C   0  0  0  0  0  0  0  0  0  0  0  0
   10.8082  -18.5367   23.3523 C   0  0  0  0  0  0  0  0  0  0  0  0
    9.8363  -18.9846   24.0175 O   0  0  0  0  0  0  0  0  0  0  0  0
   12.1026  -18.6561   23.9466 N   0  0  0  0  0  0  0  0  0  0  0  0
   12.3396  -19.3370   25.2116 C   0  0  1  0  0  0  0  0  0  0  0  0
   13.7223  -19.9107   25.1284 C   0  0  0  0  0  0  0  0  0  0  0  0
   13.9088  -20.9277   24.0307 C   0  0  0  0  0  0  0  0  0  0  0  0
   15.3508  -21.2964   24.0163 C   0  0  0  0  0  0  0  0  0  0  0  0
   16.2590  -20.6786   24.5957 O   0  0  0  0  0  0  0  0  0  0  0  0
   12.1580  -18.3724   26.2972 C   0  0  0  0  0  0  0  0  0  0  0  0
   12.2113  -18.6542   27.5220 O   0  0  0  0  0  0  0  0  0  0  0  0
   15.7015  -22.4329   23.2879 O   0  0  0  0  0  0  0  0  0  0  0  0
   11.9065  -17.0374   26.0052 O   0  0  0  0  0  0  0  0  0  0  0  0
  2  1  1  6
  2  3  1  0
  3  4  1  0
  4  8  1  0
  5  4  2  0
  6  9  1  0
  6  2  1  0
  7  6  2  0
 10  9  1  0
 11 13  1  0
 11 10  1  0
 12 11  2  0
 14 13  1  0
 14 15  1  6
 15 16  1  0
 16 17  1  0
 17 18  2  0
 17 21  1  0
 19 14  1  0
 20 19  2  0
 22 19  1  0
M  END
$$$$
