IIW.pdb
     RDKit          3D

 31 32  0  0  1  0  0  0  0  0999 V2000
    7.7897  -11.8640   19.4736 C   0  0  0  0  0  0  0  0  0  0  0  0
    7.5931  -13.3488   19.3042 C   0  0  0  0  0  0  0  0  0  0  0  0
    7.5645  -14.0862   20.6091 C   0  0  2  0  0  0  0  0  0  0  0  0
    8.8383  -13.8901   21.3785 C   0  0  0  0  0  0  0  0  0  0  0  0
    7.3656  -15.5493   20.3546 C   0  0  2  0  0  0  0  0  0  0  0  0
    6.2184  -15.8215   19.5060 N   0  0  0  0  0  0  0  0  0  0  0  0
    7.2808  -16.3315   21.6246 C   0  0  0  0  0  0  0  0  0  0  0  0
    6.2719  -16.2110   22.3653 O   0  0  0  0  0  0  0  0  0  0  0  0
    7.1894  -21.4403   22.2364 C   0  0  0  0  0  0  0  0  0  0  0  0
    7.1776  -19.9657   22.4321 C   0  0  0  0  0  0  0  0  0  0  0  0
    8.3128  -19.3944   23.2086 C   0  0  2  0  0  0  0  0  0  0  0  0
    8.2781  -19.9941   24.6007 C   0  0  0  0  0  0  0  0  0  0  0  0
    8.2716  -17.8916   23.3484 C   0  0  2  0  0  0  0  0  0  0  0  0
    8.2918  -17.2290   22.0655 N   0  0  0  0  0  0  0  0  0  0  0  0
    9.2560  -17.3556   24.3145 C   0  0  0  0  0  0  0  0  0  0  0  0
   10.4698  -17.2658   23.9993 O   0  0  0  0  0  0  0  0  0  0  0  0
    8.8993  -16.9201   25.6197 N   0  0  0  0  0  0  0  0  0  0  0  0
    9.8980  -16.4105   26.5600 C   0  0  1  0  0  0  0  0  0  0  0  0
    9.3110  -15.2757   27.3827 C   0  0  0  0  0  0  0  0  0  0  0  0
    8.0412  -14.8115   26.7830 C   0  0  0  0  0  0  0  0  0  0  0  0
    6.9848  -15.5734   26.2782 C   0  0  0  0  0  0  0  0  0  0  0  0
    6.0574  -14.7042   25.8415 N   0  0  0  0  0  0  0  0  0  0  0  0
    6.4452  -13.4469   26.0310 C   0  0  0  0  0  0  0  0  0  0  0  0
    5.8939  -12.2059   25.7744 C   0  0  0  0  0  0  0  0  0  0  0  0
    6.5426  -11.0415   26.0872 C   0  0  0  0  0  0  0  0  0  0  0  0
    7.7866  -11.0911   26.6775 C   0  0  0  0  0  0  0  0  0  0  0  0
    8.3506  -12.3205   26.9402 C   0  0  0  0  0  0  0  0  0  0  0  0
    7.6816  -13.4859   26.6180 C   0  0  0  0  0  0  0  0  0  0  0  0
   10.3246  -17.4773   27.4980 C   0  0  0  0  0  0  0  0  0  0  0  0
   11.4610  -17.4150   28.2881 O   0  0  0  0  0  0  0  0  0  0  0  0
    9.6387  -18.5380   27.6211 O   0  0  0  0  0  0  0  0  0  0  0  0
  2  1  1  0
  2  3  1  0
  3  4  1  6
  5  3  1  0
  5  6  1  1
  7  5  1  0
  7  8  2  0
  9 10  1  0
 10 11  1  0
 11 13  1  0
 11 12  1  1
 13 14  1  6
 13 15  1  0
 14  7  1  0
 15 17  1  0
 16 15  2  0
 17 18  1  0
 18 19  1  1
 19 20  1  0
 20 21  2  0
 22 21  1  0
 23 22  1  0
 24 23  2  0
 25 24  1  0
 26 27  1  0
 26 25  2  0
 27 28  2  0
 28 20  1  0
 28 23  1  0
 29 18  1  0
 30 29  1  0
 31 29  2  0
M  END
$$$$
