IIW.pdb
     RDKit          3D

 31 32  0  0  1  0  0  0  0  0999 V2000
    6.2513  -11.0584   27.3148 C   0  0  0  0  0  0  0  0  0  0  0  0
    5.6638  -12.2538   26.6090 C   0  0  0  0  0  0  0  0  0  0  0  0
    6.7078  -13.1645   26.0363 C   0  0  2  0  0  0  0  0  0  0  0  0
    7.6610  -12.4176   25.1493 C   0  0  0  0  0  0  0  0  0  0  0  0
    6.0466  -14.2492   25.2420 C   0  0  2  0  0  0  0  0  0  0  0  0
    5.2244  -15.1238   26.0604 N   0  0  0  0  0  0  0  0  0  0  0  0
    7.0331  -15.0419   24.4481 C   0  0  0  0  0  0  0  0  0  0  0  0
    7.3525  -16.1980   24.8254 O   0  0  0  0  0  0  0  0  0  0  0  0
    7.4729  -14.0351   19.0516 C   0  0  0  0  0  0  0  0  0  0  0  0
    7.4305  -14.6394   20.4102 C   0  0  0  0  0  0  0  0  0  0  0  0
    8.7432  -14.8378   21.0850 C   0  0  2  0  0  0  0  0  0  0  0  0
    9.5202  -15.8790   20.3032 C   0  0  0  0  0  0  0  0  0  0  0  0
    8.6377  -15.3124   22.5144 C   0  0  2  0  0  0  0  0  0  0  0  0
    7.6531  -14.5649   23.2606 N   0  0  0  0  0  0  0  0  0  0  0  0
    9.9434  -15.4333   23.2002 C   0  0  0  0  0  0  0  0  0  0  0  0
   10.6854  -14.4272   23.3334 O   0  0  0  0  0  0  0  0  0  0  0  0
   10.4237  -16.6589   23.7367 N   0  0  0  0  0  0  0  0  0  0  0  0
   11.7375  -16.7570   24.3737 C   0  0  1  0  0  0  0  0  0  0  0  0
   11.6707  -17.6927   25.5692 C   0  0  0  0  0  0  0  0  0  0  0  0
   10.5783  -17.2847   26.4790 C   0  0  0  0  0  0  0  0  0  0  0  0
    9.3833  -17.9508   26.7610 C   0  0  0  0  0  0  0  0  0  0  0  0
    8.7165  -17.1880   27.6440 N   0  0  0  0  0  0  0  0  0  0  0  0
    9.3982  -16.0870   27.9444 C   0  0  0  0  0  0  0  0  0  0  0  0
    9.1817  -14.9990   28.7684 C   0  0  0  0  0  0  0  0  0  0  0  0
   10.0885  -13.9797   28.8830 C   0  0  0  0  0  0  0  0  0  0  0  0
   11.2603  -14.0248   28.1596 C   0  0  0  0  0  0  0  0  0  0  0  0
   11.4918  -15.1027   27.3331 C   0  0  0  0  0  0  0  0  0  0  0  0
   10.5655  -16.1229   27.2298 C   0  0  0  0  0  0  0  0  0  0  0  0
   12.7385  -17.3033   23.4253 C   0  0  0  0  0  0  0  0  0  0  0  0
   14.1043  -17.3251   23.6568 O   0  0  0  0  0  0  0  0  0  0  0  0
   12.3712  -17.7936   22.3138 O   0  0  0  0  0  0  0  0  0  0  0  0
  2  1  1  0
  2  3  1  0
  3  4  1  6
  5  3  1  0
  5  6  1  1
  7  5  1  0
  7  8  2  0
  9 10  1  0
 10 11  1  0
 11 13  1  0
 11 12  1  6
 13 14  1  1
 13 15  1  0
 14  7  1  0
 15 17  1  0
 16 15  2  0
 17 18  1  0
 18 19  1  1
 19 20  1  0
 20 21  2  0
 22 21  1  0
 23 22  1  0
 24 23  2  0
 25 24  1  0
 26 27  1  0
 26 25  2  0
 27 28  2  0
 28 20  1  0
 28 23  1  0
 29 18  1  0
 30 29  1  0
 31 29  2  0
M  END
$$$$
