IIW.pdb
     RDKit          3D

 31 32  0  0  1  0  0  0  0  0999 V2000
    6.0550  -22.0129   22.5060 C   0  0  0  0  0  0  0  0  0  0  0  0
    5.5722  -20.6123   22.2277 C   0  0  0  0  0  0  0  0  0  0  0  0
    6.5704  -19.5632   22.6154 C   0  0  2  0  0  0  0  0  0  0  0  0
    6.9504  -19.6753   24.0631 C   0  0  0  0  0  0  0  0  0  0  0  0
    5.9930  -18.2037   22.3638 C   0  0  2  0  0  0  0  0  0  0  0  0
    5.4494  -18.0629   21.0240 N   0  0  0  0  0  0  0  0  0  0  0  0
    6.9762  -17.1164   22.6520 C   0  0  0  0  0  0  0  0  0  0  0  0
    7.8379  -16.8098   21.7892 O   0  0  0  0  0  0  0  0  0  0  0  0
    5.4614  -13.2745   26.2446 C   0  0  0  0  0  0  0  0  0  0  0  0
    6.1323  -13.8486   25.0476 C   0  0  0  0  0  0  0  0  0  0  0  0
    7.4862  -14.4295   25.2656 C   0  0  2  0  0  0  0  0  0  0  0  0
    8.4739  -13.2856   25.3862 C   0  0  0  0  0  0  0  0  0  0  0  0
    7.9567  -15.3349   24.1526 C   0  0  2  0  0  0  0  0  0  0  0  0
    7.0047  -16.3832   23.8700 N   0  0  0  0  0  0  0  0  0  0  0  0
    9.3452  -15.8174   24.3235 C   0  0  0  0  0  0  0  0  0  0  0  0
   10.3043  -15.1821   23.8165 O   0  0  0  0  0  0  0  0  0  0  0  0
    9.6700  -16.9939   25.0520 N   0  0  0  0  0  0  0  0  0  0  0  0
   11.0226  -17.5524   25.0473 C   0  0  1  0  0  0  0  0  0  0  0  0
   11.9668  -16.6431   25.8159 C   0  0  0  0  0  0  0  0  0  0  0  0
   11.5428  -16.5408   27.2291 C   0  0  0  0  0  0  0  0  0  0  0  0
   11.3552  -17.5652   28.1601 C   0  0  0  0  0  0  0  0  0  0  0  0
   10.9678  -16.9784   29.3054 N   0  0  0  0  0  0  0  0  0  0  0  0
   10.8951  -15.6578   29.1722 C   0  0  0  0  0  0  0  0  0  0  0  0
   10.5599  -14.6092   30.0076 C   0  0  0  0  0  0  0  0  0  0  0  0
   10.5740  -13.3072   29.5845 C   0  0  0  0  0  0  0  0  0  0  0  0
   10.9319  -13.0157   28.2863 C   0  0  0  0  0  0  0  0  0  0  0  0
   11.2690  -14.0497   27.4402 C   0  0  0  0  0  0  0  0  0  0  0  0
   11.2495  -15.3581   27.8841 C   0  0  0  0  0  0  0  0  0  0  0  0
   11.0406  -18.8830   25.7022 C   0  0  0  0  0  0  0  0  0  0  0  0
   12.1657  -19.6838   25.8146 O   0  0  0  0  0  0  0  0  0  0  0  0
    9.9814  -19.3657   26.2080 O   0  0  0  0  0  0  0  0  0  0  0  0
  2  1  1  0
  2  3  1  0
  3  4  1  1
  5  3  1  0
  5  6  1  6
  7  5  1  0
  7  8  2  0
  9 10  1  0
 10 11  1  0
 11 13  1  0
 11 12  1  6
 13 14  1  1
 13 15  1  0
 14  7  1  0
 15 17  1  0
 16 15  2  0
 17 18  1  0
 18 19  1  1
 19 20  1  0
 20 21  2  0
 22 21  1  0
 23 22  1  0
 24 23  2  0
 25 24  1  0
 26 27  1  0
 26 25  2  0
 27 28  2  0
 28 20  1  0
 28 23  1  0
 29 18  1  0
 30 29  1  0
 31 29  2  0
M  END
$$$$
