IIW.pdb
     RDKit          3D

 31 32  0  0  1  0  0  0  0  0999 V2000
    7.5705  -22.5752   21.5550 C   0  0  0  0  0  0  0  0  0  0  0  0
    7.0856  -21.3557   20.8136 C   0  0  0  0  0  0  0  0  0  0  0  0
    7.9405  -20.1481   21.0544 C   0  0  2  0  0  0  0  0  0  0  0  0
    7.9638  -19.7730   22.5076 C   0  0  0  0  0  0  0  0  0  0  0  0
    7.4138  -18.9933   20.2583 C   0  0  2  0  0  0  0  0  0  0  0  0
    7.3264  -19.2832   18.8375 N   0  0  0  0  0  0  0  0  0  0  0  0
    8.2001  -17.7453   20.4955 C   0  0  0  0  0  0  0  0  0  0  0  0
    9.3173  -17.5967   19.9382 O   0  0  0  0  0  0  0  0  0  0  0  0
    6.4369  -12.8665   19.6656 C   0  0  0  0  0  0  0  0  0  0  0  0
    7.3424  -14.0161   19.9326 C   0  0  0  0  0  0  0  0  0  0  0  0
    7.7283  -14.2352   21.3543 C   0  0  2  0  0  0  0  0  0  0  0  0
    8.5672  -13.0537   21.8004 C   0  0  0  0  0  0  0  0  0  0  0  0
    8.5318  -15.4916   21.5898 C   0  0  2  0  0  0  0  0  0  0  0  0
    7.7586  -16.6837   21.3321 N   0  0  0  0  0  0  0  0  0  0  0  0
    9.2443  -15.5091   22.8867 C   0  0  0  0  0  0  0  0  0  0  0  0
   10.2698  -14.8019   23.0566 O   0  0  0  0  0  0  0  0  0  0  0  0
    8.8236  -16.3023   23.9886 N   0  0  0  0  0  0  0  0  0  0  0  0
    9.6260  -16.4126   25.2074 C   0  0  1  0  0  0  0  0  0  0  0  0
    8.7338  -16.3044   26.4327 C   0  0  0  0  0  0  0  0  0  0  0  0
    7.5595  -15.4548   26.1383 C   0  0  0  0  0  0  0  0  0  0  0  0
    6.3113  -15.8342   25.6390 C   0  0  0  0  0  0  0  0  0  0  0  0
    5.5788  -14.7117   25.5401 N   0  0  0  0  0  0  0  0  0  0  0  0
    6.2679  -13.6473   25.9392 C   0  0  0  0  0  0  0  0  0  0  0  0
    6.0035  -12.2947   26.0401 C   0  0  0  0  0  0  0  0  0  0  0  0
    6.9345  -11.4025   26.5003 C   0  0  0  0  0  0  0  0  0  0  0  0
    8.1807  -11.8517   26.8792 C   0  0  0  0  0  0  0  0  0  0  0  0
    8.4607  -13.1975   26.7848 C   0  0  0  0  0  0  0  0  0  0  0  0
    7.5090  -14.0841   26.3182 C   0  0  0  0  0  0  0  0  0  0  0  0
   10.3150  -17.7249   25.2623 C   0  0  0  0  0  0  0  0  0  0  0  0
   11.3380  -18.0344   26.1438 O   0  0  0  0  0  0  0  0  0  0  0  0
    9.9836  -18.6593   24.4698 O   0  0  0  0  0  0  0  0  0  0  0  0
  2  1  1  0
  2  3  1  0
  3  4  1  1
  5  3  1  0
  5  6  1  6
  7  5  1  0
  7  8  2  0
  9 10  1  0
 10 11  1  0
 11 13  1  0
 11 12  1  6
 13 14  1  1
 13 15  1  0
 14  7  1  0
 15 17  1  0
 16 15  2  0
 17 18  1  0
 18 19  1  1
 19 20  1  0
 20 21  2  0
 22 21  1  0
 23 22  1  0
 24 23  2  0
 25 24  1  0
 26 27  1  0
 26 25  2  0
 27 28  2  0
 28 20  1  0
 28 23  1  0
 29 18  1  0
 30 29  1  0
 31 29  2  0
M  END
$$$$
