IIW.pdb
     RDKit          3D

 31 32  0  0  1  0  0  0  0  0999 V2000
    5.0401  -21.2928   23.5114 C   0  0  0  0  0  0  0  0  0  0  0  0
    5.0648  -20.4269   22.2779 C   0  0  0  0  0  0  0  0  0  0  0  0
    6.1393  -19.3824   22.3198 C   0  0  2  0  0  0  0  0  0  0  0  0
    6.0057  -18.5055   23.5307 C   0  0  0  0  0  0  0  0  0  0  0  0
    6.0617  -18.5328   21.0881 C   0  0  2  0  0  0  0  0  0  0  0  0
    6.0638  -19.3154   19.8642 N   0  0  0  0  0  0  0  0  0  0  0  0
    7.1376  -17.4967   21.0545 C   0  0  0  0  0  0  0  0  0  0  0  0
    8.2984  -17.8145   20.6906 O   0  0  0  0  0  0  0  0  0  0  0  0
    7.0352  -12.6903   18.7994 C   0  0  0  0  0  0  0  0  0  0  0  0
    7.4579  -13.9472   19.4734 C   0  0  0  0  0  0  0  0  0  0  0  0
    7.6984  -13.8600   20.9406 C   0  0  2  0  0  0  0  0  0  0  0  0
    8.8835  -12.9422   21.1683 C   0  0  0  0  0  0  0  0  0  0  0  0
    8.0036  -15.1852   21.5966 C   0  0  2  0  0  0  0  0  0  0  0  0
    6.9326  -16.1369   21.4160 N   0  0  0  0  0  0  0  0  0  0  0  0
    8.4672  -15.0645   22.9967 C   0  0  0  0  0  0  0  0  0  0  0  0
    8.0985  -14.0937   23.7054 O   0  0  0  0  0  0  0  0  0  0  0  0
    9.3313  -16.0127   23.6088 N   0  0  0  0  0  0  0  0  0  0  0  0
   10.0326  -15.7191   24.8592 C   0  0  1  0  0  0  0  0  0  0  0  0
    9.1956  -16.1662   26.0460 C   0  0  0  0  0  0  0  0  0  0  0  0
    7.8980  -15.4566   26.0545 C   0  0  0  0  0  0  0  0  0  0  0  0
    6.6328  -15.9479   25.7240 C   0  0  0  0  0  0  0  0  0  0  0  0
    5.7704  -14.9297   25.8848 N   0  0  0  0  0  0  0  0  0  0  0  0
    6.3927  -13.8281   26.2927 C   0  0  0  0  0  0  0  0  0  0  0  0
    5.9969  -12.5404   26.6005 C   0  0  0  0  0  0  0  0  0  0  0  0
    6.8861  -11.5823   27.0075 C   0  0  0  0  0  0  0  0  0  0  0  0
    8.2232  -11.8960   27.1190 C   0  0  0  0  0  0  0  0  0  0  0  0
    8.6346  -13.1756   26.8159 C   0  0  0  0  0  0  0  0  0  0  0  0
    7.7232  -14.1303   26.4067 C   0  0  0  0  0  0  0  0  0  0  0  0
   11.3249  -16.4448   24.9161 C   0  0  0  0  0  0  0  0  0  0  0  0
   12.2389  -16.3336   25.9514 O   0  0  0  0  0  0  0  0  0  0  0  0
   11.6633  -17.2308   23.9789 O   0  0  0  0  0  0  0  0  0  0  0  0
  2  1  1  0
  2  3  1  0
  3  4  1  1
  5  3  1  0
  5  6  1  6
  7  5  1  0
  7  8  2  0
  9 10  1  0
 10 11  1  0
 11 13  1  0
 11 12  1  6
 13 14  1  1
 13 15  1  0
 14  7  1  0
 15 17  1  0
 16 15  2  0
 17 18  1  0
 18 19  1  1
 19 20  1  0
 20 21  2  0
 22 21  1  0
 23 22  1  0
 24 23  2  0
 25 24  1  0
 26 27  1  0
 26 25  2  0
 27 28  2  0
 28 20  1  0
 28 23  1  0
 29 18  1  0
 30 29  1  0
 31 29  2  0
M  END
$$$$
