IIW.pdb
     RDKit          3D

 31 32  0  0  1  0  0  0  0  0999 V2000
    6.3336  -19.9477   24.6100 C   0  0  0  0  0  0  0  0  0  0  0  0
    6.7313  -19.6276   23.1917 C   0  0  0  0  0  0  0  0  0  0  0  0
    5.6483  -18.9297   22.4254 C   0  0  2  0  0  0  0  0  0  0  0  0
    4.4223  -19.7871   22.3033 C   0  0  0  0  0  0  0  0  0  0  0  0
    6.1451  -18.5864   21.0542 C   0  0  2  0  0  0  0  0  0  0  0  0
    6.5487  -19.7562   20.2932 N   0  0  0  0  0  0  0  0  0  0  0  0
    7.2456  -17.5767   21.0944 C   0  0  0  0  0  0  0  0  0  0  0  0
    8.4403  -17.9514   20.9800 O   0  0  0  0  0  0  0  0  0  0  0  0
    6.6555  -12.6890   18.8402 C   0  0  0  0  0  0  0  0  0  0  0  0
    7.2681  -13.9290   19.3878 C   0  0  0  0  0  0  0  0  0  0  0  0
    7.7125  -13.8733   20.8082 C   0  0  2  0  0  0  0  0  0  0  0  0
    8.9278  -12.9700   20.8846 C   0  0  0  0  0  0  0  0  0  0  0  0
    8.0920  -15.2139   21.3899 C   0  0  2  0  0  0  0  0  0  0  0  0
    7.0279  -16.1811   21.2576 N   0  0  0  0  0  0  0  0  0  0  0  0
    8.6606  -15.1324   22.7537 C   0  0  0  0  0  0  0  0  0  0  0  0
    8.7553  -14.0223   23.3362 O   0  0  0  0  0  0  0  0  0  0  0  0
    9.1194  -16.2720   23.4687 N   0  0  0  0  0  0  0  0  0  0  0  0
    9.8574  -16.1452   24.7260 C   0  0  1  0  0  0  0  0  0  0  0  0
    8.9582  -16.4991   25.8986 C   0  0  0  0  0  0  0  0  0  0  0  0
    7.7871  -15.5967   25.9371 C   0  0  0  0  0  0  0  0  0  0  0  0
    6.4418  -15.9033   25.7191 C   0  0  0  0  0  0  0  0  0  0  0  0
    5.7574  -14.7554   25.8614 N   0  0  0  0  0  0  0  0  0  0  0  0
    6.5668  -13.7422   26.1535 C   0  0  0  0  0  0  0  0  0  0  0  0
    6.3937  -12.3927   26.3952 C   0  0  0  0  0  0  0  0  0  0  0  0
    7.4445  -11.5626   26.6800 C   0  0  0  0  0  0  0  0  0  0  0  0
    8.7231  -12.0738   26.7312 C   0  0  0  0  0  0  0  0  0  0  0  0
    8.9131  -13.4175   26.4927 C   0  0  0  0  0  0  0  0  0  0  0  0
    7.8408  -14.2409   26.2069 C   0  0  0  0  0  0  0  0  0  0  0  0
   11.0162  -17.0708   24.7472 C   0  0  0  0  0  0  0  0  0  0  0  0
   11.9583  -17.1208   25.7618 O   0  0  0  0  0  0  0  0  0  0  0  0
   11.2026  -17.8903   23.7961 O   0  0  0  0  0  0  0  0  0  0  0  0
  2  1  1  0
  2  3  1  0
  3  4  1  6
  5  3  1  0
  5  6  1  1
  7  5  1  0
  7  8  2  0
  9 10  1  0
 10 11  1  0
 11 13  1  0
 11 12  1  6
 13 14  1  1
 13 15  1  0
 14  7  1  0
 15 17  1  0
 16 15  2  0
 17 18  1  0
 18 19  1  1
 19 20  1  0
 20 21  2  0
 22 21  1  0
 23 22  1  0
 24 23  2  0
 25 24  1  0
 26 27  1  0
 26 25  2  0
 27 28  2  0
 28 20  1  0
 28 23  1  0
 29 18  1  0
 30 29  1  0
 31 29  2  0
M  END
$$$$
