IIW.pdb
     RDKit          3D

 31 32  0  0  1  0  0  0  0  0999 V2000
    6.9747  -11.8713   19.9908 C   0  0  0  0  0  0  0  0  0  0  0  0
    7.5544  -13.1990   19.5747 C   0  0  0  0  0  0  0  0  0  0  0  0
    7.7883  -14.1221   20.7326 C   0  0  2  0  0  0  0  0  0  0  0  0
    8.7555  -13.5330   21.7177 C   0  0  0  0  0  0  0  0  0  0  0  0
    8.3304  -15.4265   20.2330 C   0  0  2  0  0  0  0  0  0  0  0  0
    7.4543  -16.0664   19.2669 N   0  0  0  0  0  0  0  0  0  0  0  0
    8.6564  -16.3618   21.3515 C   0  0  0  0  0  0  0  0  0  0  0  0
    7.7396  -17.0313   21.8920 O   0  0  0  0  0  0  0  0  0  0  0  0
   12.1995  -20.1372   20.9075 C   0  0  0  0  0  0  0  0  0  0  0  0
   11.1031  -19.2458   21.3722 C   0  0  0  0  0  0  0  0  0  0  0  0
   11.3939  -18.4134   22.5724 C   0  0  2  0  0  0  0  0  0  0  0  0
   11.6170  -19.3454   23.7472 C   0  0  0  0  0  0  0  0  0  0  0  0
   10.2876  -17.4549   22.9425 C   0  0  2  0  0  0  0  0  0  0  0  0
    9.9702  -16.5524   21.8608 N   0  0  0  0  0  0  0  0  0  0  0  0
   10.4934  -16.7807   24.2436 C   0  0  0  0  0  0  0  0  0  0  0  0
   11.3442  -15.8617   24.3542 O   0  0  0  0  0  0  0  0  0  0  0  0
    9.7614  -17.1199   25.4138 N   0  0  0  0  0  0  0  0  0  0  0  0
   10.0554  -16.5067   26.7096 C   0  0  1  0  0  0  0  0  0  0  0  0
    8.7700  -16.2944   27.4917 C   0  0  0  0  0  0  0  0  0  0  0  0
    7.7882  -15.5514   26.6723 C   0  0  0  0  0  0  0  0  0  0  0  0
    6.7552  -16.0552   25.8783 C   0  0  0  0  0  0  0  0  0  0  0  0
    6.1384  -14.9943   25.3304 N   0  0  0  0  0  0  0  0  0  0  0  0
    6.7018  -13.8540   25.7166 C   0  0  0  0  0  0  0  0  0  0  0  0
    6.4715  -12.5156   25.4610 C   0  0  0  0  0  0  0  0  0  0  0  0
    7.2371  -11.5254   26.0159 C   0  0  0  0  0  0  0  0  0  0  0  0
    8.2751  -11.8574   26.8591 C   0  0  0  0  0  0  0  0  0  0  0  0
    8.5182  -13.1875   27.1245 C   0  0  0  0  0  0  0  0  0  0  0  0
    7.7353  -14.1739   26.5558 C   0  0  0  0  0  0  0  0  0  0  0  0
   10.9371  -17.3859   27.5156 C   0  0  0  0  0  0  0  0  0  0  0  0
   11.3027  -18.6717   27.1515 O   0  0  0  0  0  0  0  0  0  0  0  0
   11.4133  -16.9812   28.6202 O   0  0  0  0  0  0  0  0  0  0  0  0
  2  1  1  0
  2  3  1  0
  3  4  1  1
  5  3  1  0
  5  6  1  6
  7  5  1  0
  7  8  2  0
  9 10  1  0
 10 11  1  0
 11 13  1  0
 11 12  1  1
 13 14  1  6
 13 15  1  0
 14  7  1  0
 15 17  1  0
 16 15  2  0
 17 18  1  0
 18 19  1  1
 19 20  1  0
 20 21  2  0
 22 21  1  0
 23 22  1  0
 24 23  2  0
 25 24  1  0
 26 27  1  0
 26 25  2  0
 27 28  2  0
 28 20  1  0
 28 23  1  0
 29 18  1  0
 30 29  1  0
 31 29  2  0
M  END
$$$$
