RNV.pdb
     RDKit          3D

 27 26  0  0  1  0  0  0  0  0999 V2000
   30.8957  -20.0395  -20.4024 N   0  0  0  0  0  0  0  0  0  0  0  0
   29.6918  -19.3899  -20.8440 C   0  0  0  0  0  0  0  0  0  0  0  0
   29.3491  -19.5240  -22.0570 N   0  0  0  0  0  0  0  0  0  0  0  0
   28.9042  -18.6386  -19.9683 N   0  0  0  0  0  0  0  0  0  0  0  0
   28.9187  -18.7180  -18.5235 C   0  0  0  0  0  0  0  0  0  0  0  0
   28.1241  -19.8431  -17.9688 C   0  0  0  0  0  0  0  0  0  0  0  0
   27.6744  -19.8144  -16.5803 C   0  0  0  0  0  0  0  0  0  0  0  0
   28.1701  -20.9756  -15.7438 C   0  0  2  0  0  0  0  0  0  0  0  0
   28.5527  -22.1103  -16.4816 N   0  0  0  0  0  0  0  0  0  0  0  0
   27.1559  -21.2921  -14.6970 C   0  0  0  0  0  0  0  0  0  0  0  0
   26.2863  -22.1599  -14.9183 O   0  0  0  0  0  0  0  0  0  0  0  0
   28.5270  -19.1181  -22.5296 N   0  0  0  0  0  0  0  0  0  0  0  0
   24.4323  -21.4622  -10.3316 C   0  0  0  0  0  0  0  0  0  0  0  0
   25.5857  -20.6594  -10.0140 O   0  0  0  0  0  0  0  0  0  0  0  0
   25.8115  -20.2430   -8.8678 C   0  0  0  0  0  0  0  0  0  0  0  0
   26.4843  -20.3621  -11.1359 C   0  0  2  0  0  0  0  0  0  0  0  0
   26.0683  -20.9681  -12.4597 N   0  0  0  0  0  0  0  0  0  0  0  0
   27.1411  -20.6474  -13.4500 C   0  0  0  0  0  0  0  0  0  0  0  0
   24.7957  -20.4034  -12.8970 O   0  0  0  0  0  0  0  0  0  0  0  0
   24.7341  -19.1514  -13.1563 C   0  0  0  0  0  0  0  0  0  0  0  0
   22.0960  -22.6446  -14.9812 C   0  0  2  0  0  0  0  0  0  0  0  0
   22.1919  -21.1537  -14.9848 C   0  0  0  0  0  0  0  0  0  0  0  0
   21.0334  -20.5529  -15.7083 C   0  0  1  0  0  0  0  0  0  0  0  0
   22.3791  -20.5645  -13.5819 N   0  0  0  0  0  0  0  0  0  0  0  0
   23.6111  -21.1169  -13.0667 C   0  0  0  0  0  0  0  0  0  0  0  0
   21.1992  -20.7305  -12.7576 O   0  0  0  0  0  0  0  0  0  0  0  0
   20.1278  -19.8709  -12.9132 O   0  0  0  0  0  0  0  0  0  0  0  0
  2  1  1  0
  3  2  2  0
  4  2  1  0
  5  6  1  0
  5  4  1  0
  7  6  1  0
  8  7  1  0
  8  9  1  6
 10 17  1  0
 10  8  1  0
 11 10  2  0
 13 12  1  0
 14 13  2  0
 15 13  1  0
 16 15  1  1
 16 17  1  0
 18 19  2  0
 18 16  1  0
 21 20  1  6
 21 22  1  0
 23 24  1  6
 23 21  1  0
 24 18  1  0
 25 23  1  0
 26 25  1  0
 27 25  2  0
M  END
$$$$
