RNV.pdb
     RDKit          3D

 27 26  0  0  1  0  0  0  0  0999 V2000
   19.4337  -16.3458  -15.1081 N   0  0  0  0  0  0  0  0  0  0  0  0
   20.0664  -17.2220  -16.0560 C   0  0  0  0  0  0  0  0  0  0  0  0
   20.9944  -16.7514  -16.7801 N   0  0  0  0  0  0  0  0  0  0  0  0
   19.6880  -18.5612  -16.1778 N   0  0  0  0  0  0  0  0  0  0  0  0
   18.3958  -19.1184  -15.8406 C   0  0  0  0  0  0  0  0  0  0  0  0
   18.3270  -19.7150  -14.4826 C   0  0  0  0  0  0  0  0  0  0  0  0
   18.9063  -21.0298  -14.2243 C   0  0  0  0  0  0  0  0  0  0  0  0
   20.2225  -20.9913  -13.4759 C   0  0  2  0  0  0  0  0  0  0  0  0
   20.5082  -19.7635  -12.8523 N   0  0  0  0  0  0  0  0  0  0  0  0
   21.3163  -21.4355  -14.3874 C   0  0  0  0  0  0  0  0  0  0  0  0
   21.2125  -22.5188  -14.9988 O   0  0  0  0  0  0  0  0  0  0  0  0
   21.5008  -17.2244  -17.5441 N   0  0  0  0  0  0  0  0  0  0  0  0
   24.2913  -22.9740  -18.0477 C   0  0  0  0  0  0  0  0  0  0  0  0
   23.7815  -21.6274  -17.9962 O   0  0  0  0  0  0  0  0  0  0  0  0
   24.0962  -20.7644  -18.8293 C   0  0  0  0  0  0  0  0  0  0  0  0
   22.8604  -21.3363  -16.8910 C   0  0  1  0  0  0  0  0  0  0  0  0
   23.5249  -21.1525  -15.5429 N   0  0  0  0  0  0  0  0  0  0  0  0
   22.4753  -20.6706  -14.5940 C   0  0  0  0  0  0  0  0  0  0  0  0
   24.6028  -20.1734  -15.6394 O   0  0  0  0  0  0  0  0  0  0  0  0
   24.3235  -18.9861  -16.0279 C   0  0  0  0  0  0  0  0  0  0  0  0
   28.0472  -20.3927  -13.3828 C   0  0  2  0  0  0  0  0  0  0  0  0
   28.2477  -20.0720  -14.8281 C   0  0  0  0  0  0  0  0  0  0  0  0
   28.7422  -21.2688  -15.5696 C   0  0  2  0  0  0  0  0  0  0  0  0
   27.0075  -19.4479  -15.4784 N   0  0  0  0  0  0  0  0  0  0  0  0
   25.9416  -20.4136  -15.3378 C   0  0  0  0  0  0  0  0  0  0  0  0
   27.2761  -18.9688  -16.8190 O   0  0  0  0  0  0  0  0  0  0  0  0
   28.1044  -17.8776  -17.0040 O   0  0  0  0  0  0  0  0  0  0  0  0
  2  1  1  0
  3  2  2  0
  4  2  1  0
  5  6  1  0
  5  4  1  0
  7  6  1  0
  8  7  1  0
  8  9  1  6
 10 17  1  0
 10  8  1  0
 11 10  2  0
 13 12  1  0
 14 13  2  0
 15 13  1  0
 16 15  1  1
 16 17  1  0
 18 19  2  0
 18 16  1  0
 21 20  1  1
 21 22  1  0
 23 24  1  6
 23 21  1  0
 24 18  1  0
 25 23  1  0
 26 25  1  0
 27 25  2  0
M  END
$$$$
