RNV.pdb
     RDKit          3D

 27 26  0  0  1  0  0  0  0  0999 V2000
   30.1828  -23.1279  -16.5031 N   0  0  0  0  0  0  0  0  0  0  0  0
   29.7358  -23.0602  -17.8677 C   0  0  0  0  0  0  0  0  0  0  0  0
   29.8218  -24.1061  -18.5788 N   0  0  0  0  0  0  0  0  0  0  0  0
   29.2070  -21.8842  -18.4053 N   0  0  0  0  0  0  0  0  0  0  0  0
   28.7474  -20.7337  -17.6576 C   0  0  0  0  0  0  0  0  0  0  0  0
   28.2341  -21.0555  -16.3020 C   0  0  0  0  0  0  0  0  0  0  0  0
   27.0581  -20.3686  -15.7763 C   0  0  0  0  0  0  0  0  0  0  0  0
   25.8439  -21.2581  -15.6079 C   0  0  2  0  0  0  0  0  0  0  0  0
   25.5066  -22.0136  -16.7452 N   0  0  0  0  0  0  0  0  0  0  0  0
   24.7022  -20.4378  -15.1098 C   0  0  0  0  0  0  0  0  0  0  0  0
   24.8644  -19.6775  -14.1332 O   0  0  0  0  0  0  0  0  0  0  0  0
   29.6045  -24.2073  -19.5820 N   0  0  0  0  0  0  0  0  0  0  0  0
   20.2340  -17.9219  -14.7293 C   0  0  0  0  0  0  0  0  0  0  0  0
   20.3240  -18.3785  -16.0928 O   0  0  0  0  0  0  0  0  0  0  0  0
   19.5091  -18.0384  -16.9637 C   0  0  0  0  0  0  0  0  0  0  0  0
   21.4462  -19.2761  -16.3919 C   0  0  2  0  0  0  0  0  0  0  0  0
   22.3470  -19.5802  -15.2134 N   0  0  0  0  0  0  0  0  0  0  0  0
   23.4324  -20.4818  -15.7069 C   0  0  0  0  0  0  0  0  0  0  0  0
   21.5894  -20.2387  -14.1542 O   0  0  0  0  0  0  0  0  0  0  0  0
   21.0636  -21.3813  -14.3921 C   0  0  0  0  0  0  0  0  0  0  0  0
   20.7722  -18.3646  -10.3325 C   0  0  2  0  0  0  0  0  0  0  0  0
   21.0999  -19.8118  -10.5056 C   0  0  0  0  0  0  0  0  0  0  0  0
   20.6217  -20.6041   -9.3350 C   0  0  1  0  0  0  0  0  0  0  0  0
   20.6063  -20.3796  -11.8415 N   0  0  0  0  0  0  0  0  0  0  0  0
   21.3814  -19.7301  -12.8739 C   0  0  0  0  0  0  0  0  0  0  0  0
   19.1650  -20.3042  -11.9682 O   0  0  0  0  0  0  0  0  0  0  0  0
   18.3766  -21.3078  -11.4367 O   0  0  0  0  0  0  0  0  0  0  0  0
  2  1  1  0
  3  2  2  0
  4  2  1  0
  5  6  1  0
  5  4  1  0
  7  6  1  0
  8  7  1  0
  8  9  1  6
 10 17  1  0
 10  8  1  0
 11 10  2  0
 13 12  1  0
 14 13  2  0
 15 13  1  0
 16 15  1  6
 16 17  1  0
 18 19  2  0
 18 16  1  0
 21 20  1  1
 21 22  1  0
 23 24  1  1
 23 21  1  0
 24 18  1  0
 25 23  1  0
 26 25  1  0
 27 25  2  0
M  END
$$$$
