RNV.pdb
     RDKit          3D

 27 26  0  0  1  0  0  0  0  0999 V2000
   18.4275  -22.6262  -13.0490 N   0  0  0  0  0  0  0  0  0  0  0  0
   19.4288  -23.2104  -13.8991 C   0  0  0  0  0  0  0  0  0  0  0  0
   19.0902  -24.1757  -14.6476 N   0  0  0  0  0  0  0  0  0  0  0  0
   20.7402  -22.7293  -13.9196 N   0  0  0  0  0  0  0  0  0  0  0  0
   21.2185  -21.5236  -13.2781 C   0  0  0  0  0  0  0  0  0  0  0  0
   20.7504  -21.3528  -11.8793 C   0  0  0  0  0  0  0  0  0  0  0  0
   21.7059  -21.3606  -10.7757 C   0  0  0  0  0  0  0  0  0  0  0  0
   22.7842  -20.3024  -10.8815 C   0  0  2  0  0  0  0  0  0  0  0  0
   22.9813  -19.7917  -12.1770 N   0  0  0  0  0  0  0  0  0  0  0  0
   24.0436  -20.8257  -10.2777 C   0  0  0  0  0  0  0  0  0  0  0  0
   24.0090  -21.3959   -9.1678 O   0  0  0  0  0  0  0  0  0  0  0  0
   19.6847  -24.7050  -15.3036 N   0  0  0  0  0  0  0  0  0  0  0  0
   29.2370  -22.5564  -10.0536 C   0  0  0  0  0  0  0  0  0  0  0  0
   29.0052  -21.2574  -10.6320 O   0  0  0  0  0  0  0  0  0  0  0  0
   29.8744  -20.3730  -10.6519 C   0  0  0  0  0  0  0  0  0  0  0  0
   27.6692  -21.0418  -11.2007 C   0  0  1  0  0  0  0  0  0  0  0  0
   26.5358  -21.1009  -10.1984 N   0  0  0  0  0  0  0  0  0  0  0  0
   25.2869  -20.7063  -10.9187 C   0  0  0  0  0  0  0  0  0  0  0  0
   26.7897  -20.1827   -9.0929 O   0  0  0  0  0  0  0  0  0  0  0  0
   26.5439  -18.9373   -9.2577 C   0  0  0  0  0  0  0  0  0  0  0  0
   27.8515  -21.3829   -5.0592 C   0  0  2  0  0  0  0  0  0  0  0  0
   27.2760  -20.0768   -5.5007 C   0  0  0  0  0  0  0  0  0  0  0  0
   27.4466  -19.0406   -4.4407 C   0  0  1  0  0  0  0  0  0  0  0  0
   27.8110  -19.6190   -6.8626 N   0  0  0  0  0  0  0  0  0  0  0  0
   27.2842  -20.5428   -7.8411 C   0  0  0  0  0  0  0  0  0  0  0  0
   29.2481  -19.4355   -6.8516 O   0  0  0  0  0  0  0  0  0  0  0  0
   29.7835  -18.2425   -6.4030 O   0  0  0  0  0  0  0  0  0  0  0  0
  2  1  1  0
  3  2  2  0
  4  2  1  0
  5  6  1  0
  5  4  1  0
  7  6  1  0
  8  7  1  0
  8  9  1  6
 10 17  1  0
 10  8  1  0
 11 10  2  0
 13 12  1  0
 14 13  2  0
 15 13  1  0
 16 15  1  6
 16 17  1  0
 18 19  2  0
 18 16  1  0
 21 20  1  1
 21 22  1  0
 23 24  1  1
 23 21  1  0
 24 18  1  0
 25 23  1  0
 26 25  1  0
 27 25  2  0
M  END
$$$$
