RNV.pdb
     RDKit          3D

 27 26  0  0  1  0  0  0  0  0999 V2000
   19.2031  -28.1013  -12.2505 N   0  0  0  0  0  0  0  0  0  0  0  0
   20.1730  -27.1159  -11.8567 C   0  0  0  0  0  0  0  0  0  0  0  0
   21.3698  -27.2640  -12.2471 N   0  0  0  0  0  0  0  0  0  0  0  0
   19.8178  -26.0133  -11.0759 N   0  0  0  0  0  0  0  0  0  0  0  0
   19.2719  -26.0547   -9.7365 C   0  0  0  0  0  0  0  0  0  0  0  0
   17.8717  -25.5706   -9.6358 C   0  0  0  0  0  0  0  0  0  0  0  0
   17.1277  -25.7196   -8.3887 C   0  0  0  0  0  0  0  0  0  0  0  0
   17.0267  -27.1474   -7.8937 C   0  0  2  0  0  0  0  0  0  0  0  0
   16.1961  -27.9796   -8.6655 N   0  0  0  0  0  0  0  0  0  0  0  0
   16.6435  -27.1391   -6.4523 C   0  0  0  0  0  0  0  0  0  0  0  0
   15.4373  -27.1380   -6.1312 O   0  0  0  0  0  0  0  0  0  0  0  0
   22.1653  -26.6236  -12.1020 N   0  0  0  0  0  0  0  0  0  0  0  0
   19.0788  -26.4708   -0.9224 C   0  0  0  0  0  0  0  0  0  0  0  0
   18.1183  -27.2240   -1.6878 O   0  0  0  0  0  0  0  0  0  0  0  0
   17.1397  -27.7792   -1.1660 C   0  0  0  0  0  0  0  0  0  0  0  0
   18.3686  -27.2949   -3.1324 C   0  0  2  0  0  0  0  0  0  0  0  0
   17.1594  -27.0173   -4.0003 N   0  0  0  0  0  0  0  0  0  0  0  0
   17.5992  -27.1376   -5.4239 C   0  0  0  0  0  0  0  0  0  0  0  0
   16.6498  -25.6741   -3.7435 O   0  0  0  0  0  0  0  0  0  0  0  0
   17.3642  -24.6685   -4.0859 C   0  0  0  0  0  0  0  0  0  0  0  0
   12.9653  -22.5773   -3.4892 C   0  0  2  0  0  0  0  0  0  0  0  0
   13.6311  -23.8992   -3.6920 C   0  0  0  0  0  0  0  0  0  0  0  0
   13.8153  -24.1789   -5.1461 C   0  0  1  0  0  0  0  0  0  0  0  0
   14.9340  -24.0393   -2.8962 N   0  0  0  0  0  0  0  0  0  0  0  0
   15.4263  -25.3744   -3.1484 C   0  0  0  0  0  0  0  0  0  0  0  0
   14.7696  -23.6602   -1.5075 O   0  0  0  0  0  0  0  0  0  0  0  0
   14.9658  -22.3455   -1.1280 O   0  0  0  0  0  0  0  0  0  0  0  0
  2  1  1  0
  3  2  2  0
  4  2  1  0
  5  6  1  0
  5  4  1  0
  7  6  1  0
  8  7  1  0
  8  9  1  6
 10 17  1  0
 10  8  1  0
 11 10  2  0
 13 12  1  0
 14 13  2  0
 15 13  1  0
 16 15  1  1
 16 17  1  0
 18 19  2  0
 18 16  1  0
 21 20  1  6
 21 22  1  0
 23 24  1  1
 23 21  1  0
 24 18  1  0
 25 23  1  0
 26 25  1  0
 27 25  2  0
M  END
$$$$
