RNV.pdb
     RDKit          3D

 27 26  0  0  1  0  0  0  0  0999 V2000
   21.9372  -20.8523   -9.3135 N   0  0  0  0  0  0  0  0  0  0  0  0
   22.2776  -21.2519   -7.9752 C   0  0  0  0  0  0  0  0  0  0  0  0
   21.3411  -21.3722   -7.1294 N   0  0  0  0  0  0  0  0  0  0  0  0
   23.5987  -21.5163   -7.6059 N   0  0  0  0  0  0  0  0  0  0  0  0
   24.7148  -21.7123   -8.5057 C   0  0  0  0  0  0  0  0  0  0  0  0
   25.4478  -20.4664   -8.8451 C   0  0  0  0  0  0  0  0  0  0  0  0
   25.5798  -20.0439  -10.2362 C   0  0  0  0  0  0  0  0  0  0  0  0
   26.1786  -21.0937  -11.1490 C   0  0  2  0  0  0  0  0  0  0  0  0
   27.5496  -21.3347  -10.9475 N   0  0  0  0  0  0  0  0  0  0  0  0
   25.8630  -20.7477  -12.5650 C   0  0  0  0  0  0  0  0  0  0  0  0
   26.7585  -20.2942  -13.3070 O   0  0  0  0  0  0  0  0  0  0  0  0
   21.4171  -21.6442   -6.1374 N   0  0  0  0  0  0  0  0  0  0  0  0
   25.5169  -23.0599  -15.0849 C   0  0  0  0  0  0  0  0  0  0  0  0
   24.0918  -23.0372  -15.2953 O   0  0  0  0  0  0  0  0  0  0  0  0
   23.4534  -24.0440  -15.6370 C   0  0  0  0  0  0  0  0  0  0  0  0
   23.4359  -21.7419  -15.0790 C   0  0  2  0  0  0  0  0  0  0  0  0
   24.3461  -20.6485  -14.5606 N   0  0  0  0  0  0  0  0  0  0  0  0
   24.5802  -20.9185  -13.1091 C   0  0  0  0  0  0  0  0  0  0  0  0
   23.7178  -19.3427  -14.7339 O   0  0  0  0  0  0  0  0  0  0  0  0
   22.7107  -19.0420  -14.0032 C   0  0  0  0  0  0  0  0  0  0  0  0
   25.4712  -15.9781  -14.7173 C   0  0  2  0  0  0  0  0  0  0  0  0
   24.6104  -16.0483  -15.9363 C   0  0  0  0  0  0  0  0  0  0  0  0
   25.4425  -16.2526  -17.1580 C   0  0  2  0  0  0  0  0  0  0  0  0
   23.4838  -17.0807  -15.8125 N   0  0  0  0  0  0  0  0  0  0  0  0
   24.1228  -18.3655  -15.6405 C   0  0  0  0  0  0  0  0  0  0  0  0
   22.5231  -16.9734  -16.8916 O   0  0  0  0  0  0  0  0  0  0  0  0
   21.6239  -15.9235  -16.9071 O   0  0  0  0  0  0  0  0  0  0  0  0
  2  1  1  0
  3  2  2  0
  4  2  1  0
  5  6  1  0
  5  4  1  0
  7  6  1  0
  8  7  1  0
  8  9  1  6
 10 17  1  0
 10  8  1  0
 11 10  2  0
 13 12  1  0
 14 13  2  0
 15 13  1  0
 16 15  1  6
 16 17  1  0
 18 19  2  0
 18 16  1  0
 21 20  1  6
 21 22  1  0
 23 24  1  6
 23 21  1  0
 24 18  1  0
 25 23  1  0
 26 25  1  0
 27 25  2  0
M  END
$$$$
