RNV.pdb
     RDKit          3D

 27 26  0  0  1  0  0  0  0  0999 V2000
   22.6839  -21.8788  -15.6974 N   0  0  0  0  0  0  0  0  0  0  0  0
   21.9757  -22.0241  -14.4548 C   0  0  0  0  0  0  0  0  0  0  0  0
   20.9989  -22.8309  -14.4128 N   0  0  0  0  0  0  0  0  0  0  0  0
   22.3506  -21.3115  -13.3132 N   0  0  0  0  0  0  0  0  0  0  0  0
   23.4761  -20.4092  -13.2001 C   0  0  0  0  0  0  0  0  0  0  0  0
   24.7993  -21.0666  -13.3480 C   0  0  0  0  0  0  0  0  0  0  0  0
   25.8927  -20.7365  -12.4388 C   0  0  0  0  0  0  0  0  0  0  0  0
   25.7254  -21.2927  -11.0400 C   0  0  2  0  0  0  0  0  0  0  0  0
   24.4033  -21.2883  -10.5601 N   0  0  0  0  0  0  0  0  0  0  0  0
   26.6677  -20.5928  -10.1198 C   0  0  0  0  0  0  0  0  0  0  0  0
   27.8669  -20.4633  -10.4411 O   0  0  0  0  0  0  0  0  0  0  0  0
   20.3596  -23.0081  -13.6229 N   0  0  0  0  0  0  0  0  0  0  0  0
   28.7381  -17.7318   -6.3913 C   0  0  0  0  0  0  0  0  0  0  0  0
   27.3602  -17.3339   -6.5287 O   0  0  0  0  0  0  0  0  0  0  0  0
   26.8683  -16.4016   -5.8753 C   0  0  0  0  0  0  0  0  0  0  0  0
   26.5678  -18.1031   -7.4957 C   0  0  1  0  0  0  0  0  0  0  0  0
   27.2412  -19.3565   -8.0136 N   0  0  0  0  0  0  0  0  0  0  0  0
   26.2542  -20.0600   -8.8885 C   0  0  0  0  0  0  0  0  0  0  0  0
   27.6307  -20.2178   -6.9018 O   0  0  0  0  0  0  0  0  0  0  0  0
   26.7777  -21.0547   -6.4428 C   0  0  0  0  0  0  0  0  0  0  0  0
   31.4168  -19.7716   -4.9177 C   0  0  2  0  0  0  0  0  0  0  0  0
   30.7402  -21.0945   -5.0727 C   0  0  0  0  0  0  0  0  0  0  0  0
   31.2265  -22.0590   -4.0432 C   0  0  1  0  0  0  0  0  0  0  0  0
   29.2113  -20.9832   -5.0988 N   0  0  0  0  0  0  0  0  0  0  0  0
   28.8765  -20.2180   -6.2782 C   0  0  0  0  0  0  0  0  0  0  0  0
   28.6768  -20.5030   -3.8407 O   0  0  0  0  0  0  0  0  0  0  0  0
   28.5979  -21.3589   -2.7580 O   0  0  0  0  0  0  0  0  0  0  0  0
  2  1  1  0
  3  2  2  0
  4  2  1  0
  5  6  1  0
  5  4  1  0
  7  6  1  0
  8  7  1  0
  8  9  1  1
 10 17  1  0
 10  8  1  0
 11 10  2  0
 13 12  1  0
 14 13  2  0
 15 13  1  0
 16 15  1  6
 16 17  1  0
 18 19  2  0
 18 16  1  0
 21 20  1  6
 21 22  1  0
 23 24  1  6
 23 21  1  0
 24 18  1  0
 25 23  1  0
 26 25  1  0
 27 25  2  0
M  END
$$$$
