RNV.pdb
     RDKit          3D

 27 26  0  0  1  0  0  0  0  0999 V2000
   28.9769  -24.8110  -16.8762 N   0  0  0  0  0  0  0  0  0  0  0  0
   28.3928  -25.4882  -18.0017 C   0  0  0  0  0  0  0  0  0  0  0  0
   28.9482  -25.3575  -19.1337 N   0  0  0  0  0  0  0  0  0  0  0  0
   27.2518  -26.2824  -17.8642 N   0  0  0  0  0  0  0  0  0  0  0  0
   26.4030  -26.3641  -16.6951 C   0  0  0  0  0  0  0  0  0  0  0  0
   25.4142  -25.2619  -16.5839 C   0  0  0  0  0  0  0  0  0  0  0  0
   25.1550  -24.6310  -15.2932 C   0  0  0  0  0  0  0  0  0  0  0  0
   24.9127  -23.1379  -15.3704 C   0  0  2  0  0  0  0  0  0  0  0  0
   26.0485  -22.3449  -15.1268 N   0  0  0  0  0  0  0  0  0  0  0  0
   23.7683  -22.7819  -14.4826 C   0  0  0  0  0  0  0  0  0  0  0  0
   23.9621  -22.6032  -13.2625 O   0  0  0  0  0  0  0  0  0  0  0  0
   28.6986  -25.8270  -20.0176 N   0  0  0  0  0  0  0  0  0  0  0  0
   22.6531  -19.7969  -13.5657 C   0  0  0  0  0  0  0  0  0  0  0  0
   21.4702  -19.6687  -14.3782 O   0  0  0  0  0  0  0  0  0  0  0  0
   21.0645  -18.5733  -14.7948 C   0  0  0  0  0  0  0  0  0  0  0  0
   20.7694  -20.9212  -14.6862 C   0  0  2  0  0  0  0  0  0  0  0  0
   21.3757  -22.1585  -14.0583 N   0  0  0  0  0  0  0  0  0  0  0  0
   22.4607  -22.6318  -14.9711 C   0  0  0  0  0  0  0  0  0  0  0  0
   20.3612  -23.1960  -13.9032 O   0  0  0  0  0  0  0  0  0  0  0  0
   19.9069  -23.7747  -14.9508 C   0  0  0  0  0  0  0  0  0  0  0  0
   18.6350  -24.2985  -10.0599 C   0  0  2  0  0  0  0  0  0  0  0  0
   18.9970  -25.2523  -11.1512 C   0  0  0  0  0  0  0  0  0  0  0  0
   18.2702  -26.5448  -10.9840 C   0  0  1  0  0  0  0  0  0  0  0  0
   18.8176  -24.6533  -12.5510 N   0  0  0  0  0  0  0  0  0  0  0  0
   19.8286  -23.6302  -12.6913 C   0  0  0  0  0  0  0  0  0  0  0  0
   17.4486  -24.2510  -12.8019 O   0  0  0  0  0  0  0  0  0  0  0  0
   16.5703  -25.1398  -13.3933 O   0  0  0  0  0  0  0  0  0  0  0  0
  2  1  1  0
  3  2  2  0
  4  2  1  0
  5  6  1  0
  5  4  1  0
  7  6  1  0
  8  7  1  0
  8  9  1  1
 10 17  1  0
 10  8  1  0
 11 10  2  0
 13 12  1  0
 14 13  2  0
 15 13  1  0
 16 15  1  1
 16 17  1  0
 18 19  2  0
 18 16  1  0
 21 20  1  1
 21 22  1  0
 23 24  1  1
 23 21  1  0
 24 18  1  0
 25 23  1  0
 26 25  1  0
 27 25  2  0
M  END
$$$$
