RNV.pdb
     RDKit          3D

 27 26  0  0  1  0  0  0  0  0999 V2000
   16.1840  -19.5245  -17.6259 N   0  0  0  0  0  0  0  0  0  0  0  0
   16.1073  -19.6775  -16.1986 C   0  0  0  0  0  0  0  0  0  0  0  0
   14.9603  -19.7692  -15.6668 N   0  0  0  0  0  0  0  0  0  0  0  0
   17.2574  -19.7381  -15.4079 N   0  0  0  0  0  0  0  0  0  0  0  0
   18.5888  -19.3319  -15.8032 C   0  0  0  0  0  0  0  0  0  0  0  0
   19.2578  -20.2708  -16.7391 C   0  0  0  0  0  0  0  0  0  0  0  0
   20.5313  -20.8877  -16.3803 C   0  0  0  0  0  0  0  0  0  0  0  0
   21.6050  -19.9008  -15.9715 C   0  0  2  0  0  0  0  0  0  0  0  0
   22.1821  -19.1857  -17.0364 N   0  0  0  0  0  0  0  0  0  0  0  0
   22.6236  -20.6036  -15.1390 C   0  0  0  0  0  0  0  0  0  0  0  0
   22.2646  -21.2439  -14.1294 O   0  0  0  0  0  0  0  0  0  0  0  0
   14.7354  -19.8918  -14.6676 N   0  0  0  0  0  0  0  0  0  0  0  0
   27.0935  -22.3304  -13.2037 C   0  0  0  0  0  0  0  0  0  0  0  0
   27.3661  -22.0281  -14.5858 O   0  0  0  0  0  0  0  0  0  0  0  0
   28.4557  -22.2828  -15.1204 C   0  0  0  0  0  0  0  0  0  0  0  0
   26.2689  -21.3964  -15.3286 C   0  0  2  0  0  0  0  0  0  0  0  0
   24.9713  -21.2700  -14.5585 N   0  0  0  0  0  0  0  0  0  0  0  0
   23.9920  -20.5789  -15.4516 C   0  0  0  0  0  0  0  0  0  0  0  0
   25.1788  -20.4910  -13.3420 O   0  0  0  0  0  0  0  0  0  0  0  0
   25.3828  -19.2314  -13.4446 C   0  0  0  0  0  0  0  0  0  0  0  0
   24.5530  -22.0588   -9.3830 C   0  0  2  0  0  0  0  0  0  0  0  0
   24.4636  -20.6264   -9.7978 C   0  0  0  0  0  0  0  0  0  0  0  0
   24.5063  -19.7291   -8.6064 C   0  0  1  0  0  0  0  0  0  0  0  0
   25.5036  -20.2463  -10.8582 N   0  0  0  0  0  0  0  0  0  0  0  0
   25.1725  -21.0008  -12.0455 C   0  0  0  0  0  0  0  0  0  0  0  0
   26.8596  -20.3757  -10.3647 O   0  0  0  0  0  0  0  0  0  0  0  0
   27.3256  -19.4991   -9.4026 O   0  0  0  0  0  0  0  0  0  0  0  0
  2  1  1  0
  3  2  2  0
  4  2  1  0
  5  6  1  0
  5  4  1  0
  7  6  1  0
  8  7  1  0
  8  9  1  6
 10 17  1  0
 10  8  1  0
 11 10  2  0
 13 12  1  0
 14 13  2  0
 15 13  1  0
 16 15  1  6
 16 17  1  0
 18 19  2  0
 18 16  1  0
 21 20  1  1
 21 22  1  0
 23 24  1  6
 23 21  1  0
 24 18  1  0
 25 23  1  0
 26 25  1  0
 27 25  2  0
M  END
$$$$
