RNV.pdb
     RDKit          3D

 27 26  0  0  1  0  0  0  0  0999 V2000
   29.3933  -22.3140  -18.8870 N   0  0  0  0  0  0  0  0  0  0  0  0
   29.7332  -22.4453  -17.4964 C   0  0  0  0  0  0  0  0  0  0  0  0
   30.0525  -23.5931  -17.0635 N   0  0  0  0  0  0  0  0  0  0  0  0
   29.7285  -21.3442  -16.6366 N   0  0  0  0  0  0  0  0  0  0  0  0
   29.3473  -19.9917  -16.9818 C   0  0  0  0  0  0  0  0  0  0  0  0
   28.0041  -19.8792  -17.6047 C   0  0  0  0  0  0  0  0  0  0  0  0
   26.9198  -19.1996  -16.9021 C   0  0  0  0  0  0  0  0  0  0  0  0
   25.9022  -20.1335  -16.2807 C   0  0  2  0  0  0  0  0  0  0  0  0
   25.4498  -21.1590  -17.1303 N   0  0  0  0  0  0  0  0  0  0  0  0
   24.7823  -19.3283  -15.7133 C   0  0  0  0  0  0  0  0  0  0  0  0
   25.0247  -18.4247  -14.8868 O   0  0  0  0  0  0  0  0  0  0  0  0
   30.2177  -23.8758  -16.0854 N   0  0  0  0  0  0  0  0  0  0  0  0
   22.1701  -17.0076  -18.5817 C   0  0  0  0  0  0  0  0  0  0  0  0
   22.0737  -16.9666  -17.1447 O   0  0  0  0  0  0  0  0  0  0  0  0
   22.4466  -15.9879  -16.4804 C   0  0  0  0  0  0  0  0  0  0  0  0
   21.5032  -18.1606  -16.5096 C   0  0  2  0  0  0  0  0  0  0  0  0
   22.3559  -18.7655  -15.4143 N   0  0  0  0  0  0  0  0  0  0  0  0
   23.4444  -19.5443  -16.0799 C   0  0  0  0  0  0  0  0  0  0  0  0
   21.5504  -19.6454  -14.5736 O   0  0  0  0  0  0  0  0  0  0  0  0
   21.2221  -20.7975  -15.0248 C   0  0  0  0  0  0  0  0  0  0  0  0
   20.1294  -18.4425  -10.6840 C   0  0  2  0  0  0  0  0  0  0  0  0
   20.5180  -19.8427  -11.0307 C   0  0  0  0  0  0  0  0  0  0  0  0
   19.8972  -20.8123  -10.0814 C   0  0  1  0  0  0  0  0  0  0  0  0
   20.2387  -20.1938  -12.4967 N   0  0  0  0  0  0  0  0  0  0  0  0
   21.0955  -19.3439  -13.2918 C   0  0  0  0  0  0  0  0  0  0  0  0
   18.8238  -20.1602  -12.8066 O   0  0  0  0  0  0  0  0  0  0  0  0
   18.0390  -21.2687  -12.5491 O   0  0  0  0  0  0  0  0  0  0  0  0
  2  1  1  0
  3  2  2  0
  4  2  1  0
  5  6  1  0
  5  4  1  0
  7  6  1  0
  8  7  1  0
  8  9  1  6
 10 17  1  0
 10  8  1  0
 11 10  2  0
 13 12  1  0
 14 13  2  0
 15 13  1  0
 16 15  1  6
 16 17  1  0
 18 19  2  0
 18 16  1  0
 21 20  1  1
 21 22  1  0
 23 24  1  1
 23 21  1  0
 24 18  1  0
 25 23  1  0
 26 25  1  0
 27 25  2  0
M  END
$$$$
