RVC.pdb
     RDKit          3D

 25 24  0  0  1  0  0  0  0  0999 V2000
   28.0799  -27.6673  -18.2722 N   0  0  0  0  0  0  0  0  0  0  0  0
   27.1646  -27.6279  -17.1722 C   0  0  0  0  0  0  0  0  0  0  0  0
   26.2926  -28.5722  -17.0459 N   0  0  0  0  0  0  0  0  0  0  0  0
   27.2360  -26.5593  -16.2508 N   0  0  0  0  0  0  0  0  0  0  0  0
   28.3046  -25.5688  -16.4300 C   0  0  0  0  0  0  0  0  0  0  0  0
   27.9382  -24.5551  -17.4524 C   0  0  0  0  0  0  0  0  0  0  0  0
   26.8080  -23.6387  -17.1299 C   0  0  0  0  0  0  0  0  0  0  0  0
   27.0797  -22.2022  -17.3897 C   0  0  2  0  0  0  0  0  0  0  0  0
   28.5113  -21.9419  -17.3213 N   0  0  0  0  0  0  0  0  0  0  0  0
   26.4455  -21.3176  -16.3639 C   0  0  0  0  0  0  0  0  0  0  0  0
   27.0981  -20.4187  -15.7817 O   0  0  0  0  0  0  0  0  0  0  0  0
   25.5729  -28.5251  -16.2936 C   0  0  0  0  0  0  0  0  0  0  0  0
   23.2123  -19.5004  -17.1239 C   0  0  2  0  0  0  0  0  0  0  0  0
   23.0762  -20.1209  -15.7747 C   0  0  0  0  0  0  0  0  0  0  0  0
   22.2035  -19.3094  -14.8432 C   0  0  2  0  0  0  0  0  0  0  0  0
   24.4019  -20.4545  -15.1783 N   0  0  0  0  0  0  0  0  0  0  0  0
   25.0604  -21.4454  -15.9872 C   0  0  0  0  0  0  0  0  0  0  0  0
   24.2111  -21.0306  -13.8176 O   0  0  0  0  0  0  0  0  0  0  0  0
   23.4679  -22.0311  -13.6041 N   0  0  0  0  0  0  0  0  0  0  0  0
   24.8638  -20.4778  -12.6782 C   0  0  1  0  0  0  0  0  0  0  0  0
   24.5771  -20.9322  -11.3234 C   0  0  0  0  0  0  0  0  0  0  0  0
   25.4914  -20.2704  -10.3167 S   0  0  0  0  0  0  0  0  0  0  0  0
   25.0646  -20.7503   -8.6391 C   0  0  0  0  0  0  0  0  0  0  0  0
   23.1908  -20.5153  -10.9941 O   0  0  0  0  0  0  0  0  0  0  0  0
   22.3044  -21.3688  -10.3096 O   0  0  0  0  0  0  0  0  0  0  0  0
  2  1  1  0
  3  2  2  0
  4  2  1  0
  5  4  1  0
  6  5  1  0
  7  6  1  0
  8 10  1  0
  8  7  1  0
  8  9  1  1
 10 11  2  0
 10 16  1  0
 13 14  1  1
 13 12  1  0
 15 13  1  0
 15 16  1  1
 17 18  2  0
 17 15  1  0
 19 17  1  0
 20 19  1  0
 20 21  1  1
 21 22  1  0
 23 20  1  0
 24 23  1  0
 25 23  2  0
M  END
$$$$
