RVC.pdb
     RDKit          3D

 25 24  0  0  1  0  0  0  0  0999 V2000
   22.9081  -23.5841  -15.4945 N   0  0  0  0  0  0  0  0  0  0  0  0
   22.6409  -24.9904  -15.4871 C   0  0  0  0  0  0  0  0  0  0  0  0
   21.4743  -25.4106  -15.8486 N   0  0  0  0  0  0  0  0  0  0  0  0
   23.6575  -25.8856  -15.0859 N   0  0  0  0  0  0  0  0  0  0  0  0
   25.0452  -25.4079  -15.1196 C   0  0  0  0  0  0  0  0  0  0  0  0
   25.5397  -25.2768  -16.5144 C   0  0  0  0  0  0  0  0  0  0  0  0
   25.4503  -23.9299  -17.1461 C   0  0  0  0  0  0  0  0  0  0  0  0
   26.7564  -23.2574  -17.3622 C   0  0  2  0  0  0  0  0  0  0  0  0
   27.8042  -24.2491  -17.5635 N   0  0  0  0  0  0  0  0  0  0  0  0
   27.1720  -22.4465  -16.1762 C   0  0  0  0  0  0  0  0  0  0  0  0
   28.2155  -22.7140  -15.5340 O   0  0  0  0  0  0  0  0  0  0  0  0
   21.2185  -26.4141  -15.7326 C   0  0  0  0  0  0  0  0  0  0  0  0
   27.4209  -18.6039  -16.1182 C   0  0  2  0  0  0  0  0  0  0  0  0
   26.6142  -19.0582  -14.9492 C   0  0  0  0  0  0  0  0  0  0  0  0
   26.7629  -18.1510  -13.7481 C   0  0  2  0  0  0  0  0  0  0  0  0
   26.8636  -20.4921  -14.6232 N   0  0  0  0  0  0  0  0  0  0  0  0
   26.4047  -21.3211  -15.7057 C   0  0  0  0  0  0  0  0  0  0  0  0
   26.0980  -20.8714  -13.4026 O   0  0  0  0  0  0  0  0  0  0  0  0
   24.8705  -21.1727  -13.4399 N   0  0  0  0  0  0  0  0  0  0  0  0
   26.7173  -20.9147  -12.1203 C   0  0  2  0  0  0  0  0  0  0  0  0
   25.9590  -21.1627  -10.9006 C   0  0  0  0  0  0  0  0  0  0  0  0
   26.7858  -20.8656   -9.6695 S   0  0  0  0  0  0  0  0  0  0  0  0
   25.7805  -20.9289   -8.1821 C   0  0  0  0  0  0  0  0  0  0  0  0
   24.8075  -20.2256  -10.8895 O   0  0  0  0  0  0  0  0  0  0  0  0
   23.5073  -20.6551  -10.5611 O   0  0  0  0  0  0  0  0  0  0  0  0
  2  1  1  0
  3  2  2  0
  4  2  1  0
  5  4  1  0
  6  5  1  0
  7  6  1  0
  8 10  1  0
  8  7  1  0
  8  9  1  1
 10 11  2  0
 10 16  1  0
 13 14  1  1
 13 12  1  0
 15 13  1  0
 15 16  1  1
 17 18  2  0
 17 15  1  0
 19 17  1  0
 20 19  1  0
 20 21  1  6
 21 22  1  0
 23 20  1  0
 24 23  1  0
 25 23  2  0
M  END
$$$$
