RVC.pdb
     RDKit          3D

 25 24  0  0  1  0  0  0  0  0999 V2000
   23.3982  -28.0500  -15.4041 N   0  0  0  0  0  0  0  0  0  0  0  0
   24.3950  -28.6738  -16.2206 C   0  0  0  0  0  0  0  0  0  0  0  0
   24.1819  -29.8645  -16.6731 N   0  0  0  0  0  0  0  0  0  0  0  0
   25.5869  -27.9739  -16.5131 N   0  0  0  0  0  0  0  0  0  0  0  0
   25.8121  -26.6899  -15.8381 C   0  0  0  0  0  0  0  0  0  0  0  0
   25.4472  -25.5460  -16.7133 C   0  0  0  0  0  0  0  0  0  0  0  0
   25.2341  -24.2254  -16.0562 C   0  0  0  0  0  0  0  0  0  0  0  0
   24.4792  -24.2820  -14.7788 C   0  0  2  0  0  0  0  0  0  0  0  0
   23.0981  -24.6720  -15.0289 N   0  0  0  0  0  0  0  0  0  0  0  0
   24.4204  -22.9489  -14.1034 C   0  0  0  0  0  0  0  0  0  0  0  0
   23.4443  -22.1776  -14.2622 O   0  0  0  0  0  0  0  0  0  0  0  0
   24.9464  -30.3906  -17.1474 C   0  0  0  0  0  0  0  0  0  0  0  0
   25.0915  -22.0681  -10.4614 C   0  0  1  0  0  0  0  0  0  0  0  0
   25.9233  -21.1528  -11.2945 C   0  0  0  0  0  0  0  0  0  0  0  0
   26.0400  -19.7662  -10.7015 C   0  0  2  0  0  0  0  0  0  0  0  0
   25.4781  -21.1355  -12.7179 N   0  0  0  0  0  0  0  0  0  0  0  0
   25.4722  -22.4764  -13.2390 C   0  0  0  0  0  0  0  0  0  0  0  0
   26.4324  -20.3337  -13.5342 O   0  0  0  0  0  0  0  0  0  0  0  0
   27.6716  -20.5828  -13.5657 N   0  0  0  0  0  0  0  0  0  0  0  0
   25.9914  -19.2360  -14.3282 C   0  0  1  0  0  0  0  0  0  0  0  0
   26.7692  -18.7294  -15.4519 C   0  0  0  0  0  0  0  0  0  0  0  0
   27.1910  -19.8489  -16.3773 S   0  0  0  0  0  0  0  0  0  0  0  0
   28.8080  -19.5264  -17.0903 C   0  0  0  0  0  0  0  0  0  0  0  0
   25.8904  -17.8241  -16.2343 O   0  0  0  0  0  0  0  0  0  0  0  0
   26.4133  -16.9172  -17.1760 O   0  0  0  0  0  0  0  0  0  0  0  0
  2  1  1  0
  3  2  2  0
  4  2  1  0
  5  4  1  0
  6  5  1  0
  7  6  1  0
  8 10  1  0
  8  7  1  0
  8  9  1  6
 10 11  2  0
 10 16  1  0
 13 14  1  6
 13 12  1  0
 15 13  1  0
 15 16  1  6
 17 18  2  0
 17 15  1  0
 19 17  1  0
 20 19  1  0
 20 21  1  1
 21 22  1  0
 23 20  1  0
 24 23  1  0
 25 23  2  0
M  END
$$$$
