RVC.pdb
     RDKit          3D

 25 24  0  0  1  0  0  0  0  0999 V2000
   20.4454  -20.1120  -18.1354 N   0  0  0  0  0  0  0  0  0  0  0  0
   19.1335  -20.0010  -18.6975 C   0  0  0  0  0  0  0  0  0  0  0  0
   18.5855  -21.0446  -19.2254 N   0  0  0  0  0  0  0  0  0  0  0  0
   18.4686  -18.7550  -18.6614 N   0  0  0  0  0  0  0  0  0  0  0  0
   19.2423  -17.5757  -18.2544 C   0  0  0  0  0  0  0  0  0  0  0  0
   19.1162  -17.3216  -16.7960 C   0  0  0  0  0  0  0  0  0  0  0  0
   19.8554  -16.1525  -16.2409 C   0  0  0  0  0  0  0  0  0  0  0  0
   21.2980  -16.3944  -15.9855 C   0  0  2  0  0  0  0  0  0  0  0  0
   21.4650  -17.5233  -15.0800 N   0  0  0  0  0  0  0  0  0  0  0  0
   21.9527  -15.2258  -15.3202 C   0  0  0  0  0  0  0  0  0  0  0  0
   21.6620  -14.8940  -14.1462 O   0  0  0  0  0  0  0  0  0  0  0  0
   17.5901  -21.0162  -19.5328 C   0  0  0  0  0  0  0  0  0  0  0  0
   25.6919  -14.4391  -15.0654 C   0  0  1  0  0  0  0  0  0  0  0  0
   24.9993  -13.2404  -15.6197 C   0  0  0  0  0  0  0  0  0  0  0  0
   25.6473  -11.9417  -15.1941 C   0  0  2  0  0  0  0  0  0  0  0  0
   23.5329  -13.2690  -15.3489 N   0  0  0  0  0  0  0  0  0  0  0  0
   22.9463  -14.4195  -15.9829 C   0  0  0  0  0  0  0  0  0  0  0  0
   22.8908  -12.0543  -15.9252 O   0  0  0  0  0  0  0  0  0  0  0  0
   22.9252  -11.7925  -17.1618 N   0  0  0  0  0  0  0  0  0  0  0  0
   22.1984  -11.1187  -15.1036 C   0  0  1  0  0  0  0  0  0  0  0  0
   21.5221   -9.9521  -15.6566 C   0  0  0  0  0  0  0  0  0  0  0  0
   20.0685   -9.9112  -15.2410 S   0  0  0  0  0  0  0  0  0  0  0  0
   19.2558  -11.4794  -15.5687 C   0  0  0  0  0  0  0  0  0  0  0  0
   22.1727   -8.7447  -15.0882 O   0  0  0  0  0  0  0  0  0  0  0  0
   21.8523   -7.4499  -15.5395 O   0  0  0  0  0  0  0  0  0  0  0  0
  2  1  1  0
  3  2  2  0
  4  2  1  0
  5  4  1  0
  6  5  1  0
  7  6  1  0
  8 10  1  0
  8  7  1  0
  8  9  1  1
 10 11  2  0
 10 16  1  0
 13 14  1  1
 13 12  1  0
 15 13  1  0
 15 16  1  1
 17 18  2  0
 17 15  1  0
 19 17  1  0
 20 19  1  0
 20 21  1  6
 21 22  1  0
 23 20  1  0
 24 23  1  0
 25 23  2  0
M  END
$$$$
