RVC.pdb
     RDKit          3D

 25 24  0  0  1  0  0  0  0  0999 V2000
   22.6811  -21.0526   -7.5460 N   0  0  0  0  0  0  0  0  0  0  0  0
   21.5707  -20.8346   -8.4228 C   0  0  0  0  0  0  0  0  0  0  0  0
   20.4938  -20.2991   -7.9521 N   0  0  0  0  0  0  0  0  0  0  0  0
   21.6779  -21.2086   -9.7810 N   0  0  0  0  0  0  0  0  0  0  0  0
   22.8906  -21.9199  -10.2033 C   0  0  0  0  0  0  0  0  0  0  0  0
   23.1996  -21.6627  -11.6336 C   0  0  0  0  0  0  0  0  0  0  0  0
   24.1224  -20.5331  -11.9395 C   0  0  0  0  0  0  0  0  0  0  0  0
   25.4899  -20.9419  -12.3491 C   0  0  2  0  0  0  0  0  0  0  0  0
   26.2894  -21.2666  -11.1754 N   0  0  0  0  0  0  0  0  0  0  0  0
   26.2152  -19.8416  -13.0564 C   0  0  0  0  0  0  0  0  0  0  0  0
   26.9638  -19.0481  -12.4376 O   0  0  0  0  0  0  0  0  0  0  0  0
   19.6611  -20.1685   -8.5651 C   0  0  0  0  0  0  0  0  0  0  0  0
   28.5437  -20.0969  -15.9138 C   0  0  1  0  0  0  0  0  0  0  0  0
   27.5314  -19.0776  -16.3139 C   0  0  0  0  0  0  0  0  0  0  0  0
   28.1155  -17.9801  -17.1753 C   0  0  2  0  0  0  0  0  0  0  0  0
   26.7776  -18.5499  -15.1401 N   0  0  0  0  0  0  0  0  0  0  0  0
   26.0972  -19.6302  -14.4769 C   0  0  0  0  0  0  0  0  0  0  0  0
   25.7476  -17.5764  -15.5996 O   0  0  0  0  0  0  0  0  0  0  0  0
   24.6378  -17.9425  -16.0824 N   0  0  0  0  0  0  0  0  0  0  0  0
   25.9638  -16.1707  -15.5160 C   0  0  1  0  0  0  0  0  0  0  0  0
   24.9668  -15.2047  -15.9600 C   0  0  0  0  0  0  0  0  0  0  0  0
   24.7403  -14.1309  -14.9193 S   0  0  0  0  0  0  0  0  0  0  0  0
   23.6441  -12.8491  -15.5378 C   0  0  0  0  0  0  0  0  0  0  0  0
   25.5012  -14.5327  -17.1712 O   0  0  0  0  0  0  0  0  0  0  0  0
   26.8369  -14.0933  -17.2450 O   0  0  0  0  0  0  0  0  0  0  0  0
  2  1  1  0
  3  2  2  0
  4  2  1  0
  5  4  1  0
  6  5  1  0
  7  6  1  0
  8 10  1  0
  8  7  1  0
  8  9  1  1
 10 11  2  0
 10 16  1  0
 13 14  1  1
 13 12  1  0
 15 13  1  0
 15 16  1  1
 17 18  2  0
 17 15  1  0
 19 17  1  0
 20 19  1  0
 20 21  1  6
 21 22  1  0
 23 20  1  0
 24 23  1  0
 25 23  2  0
M  END
$$$$
