RVC.pdb
     RDKit          3D

 25 24  0  0  1  0  0  0  0  0999 V2000
   20.1823  -19.9026  -13.1611 N   0  0  0  0  0  0  0  0  0  0  0  0
   19.8074  -21.0478  -12.3884 C   0  0  0  0  0  0  0  0  0  0  0  0
   18.6706  -21.6163  -12.6179 N   0  0  0  0  0  0  0  0  0  0  0  0
   20.6879  -21.5302  -11.3944 N   0  0  0  0  0  0  0  0  0  0  0  0
   21.9431  -20.8006  -11.1769 C   0  0  0  0  0  0  0  0  0  0  0  0
   23.0288  -21.3172  -12.0497 C   0  0  0  0  0  0  0  0  0  0  0  0
   24.3484  -20.6284  -11.9771 C   0  0  0  0  0  0  0  0  0  0  0  0
   25.3919  -21.1896  -12.8721 C   0  0  2  0  0  0  0  0  0  0  0  0
   26.2588  -22.0929  -12.1274 N   0  0  0  0  0  0  0  0  0  0  0  0
   26.2810  -20.1254  -13.4321 C   0  0  0  0  0  0  0  0  0  0  0  0
   27.4438  -19.9484  -12.9967 O   0  0  0  0  0  0  0  0  0  0  0  0
   18.3973  -22.4744  -12.0934 C   0  0  0  0  0  0  0  0  0  0  0  0
   28.3912  -20.4381  -15.1072 C   0  0  2  0  0  0  0  0  0  0  0  0
   27.6576  -19.5428  -16.0474 C   0  0  0  0  0  0  0  0  0  0  0  0
   28.5670  -18.8953  -17.0680 C   0  0  2  0  0  0  0  0  0  0  0  0
   26.8053  -18.5544  -15.3253 N   0  0  0  0  0  0  0  0  0  0  0  0
   25.8578  -19.2486  -14.4946 C   0  0  0  0  0  0  0  0  0  0  0  0
   26.0380  -17.7386  -16.3078 O   0  0  0  0  0  0  0  0  0  0  0  0
   25.2246  -18.2542  -17.1273 N   0  0  0  0  0  0  0  0  0  0  0  0
   26.1833  -16.3228  -16.3729 C   0  0  1  0  0  0  0  0  0  0  0  0
   25.2406  -15.4786  -17.0959 C   0  0  0  0  0  0  0  0  0  0  0  0
   25.0346  -14.1563  -16.3911 S   0  0  0  0  0  0  0  0  0  0  0  0
   24.7901  -14.3928  -14.6271 C   0  0  0  0  0  0  0  0  0  0  0  0
   25.8339  -15.1778  -18.4231 O   0  0  0  0  0  0  0  0  0  0  0  0
   25.0816  -14.5774  -19.4509 O   0  0  0  0  0  0  0  0  0  0  0  0
  2  1  1  0
  3  2  2  0
  4  2  1  0
  5  4  1  0
  6  5  1  0
  7  6  1  0
  8 10  1  0
  8  7  1  0
  8  9  1  1
 10 11  2  0
 10 16  1  0
 13 14  1  1
 13 12  1  0
 15 13  1  0
 15 16  1  1
 17 18  2  0
 17 15  1  0
 19 17  1  0
 20 19  1  0
 20 21  1  6
 21 22  1  0
 23 20  1  0
 24 23  1  0
 25 23  2  0
M  END
$$$$
