ING.pdb
     RDKit          3D

 21 20  0  0  1  0  0  0  0  0999 V2000
   15.7495  -11.2023  -18.7669 C   0  0  0  0  0  0  0  0  0  0  0  0
   17.2282  -11.5926  -18.8969 C   0  0  0  0  0  0  0  0  0  0  0  0
   17.9601  -11.0002  -17.7381 C   0  0  2  0  0  0  0  0  0  0  0  0
   17.7913   -9.5014  -17.6476 C   0  0  0  0  0  0  0  0  0  0  0  0
   19.4219  -11.3230  -17.6720 C   0  0  2  0  0  0  0  0  0  0  0  0
   19.5158  -12.7895  -17.6721 N   0  0  0  0  0  0  0  0  0  0  0  0
   20.0080  -10.8279  -16.4231 C   0  0  0  0  0  0  0  0  0  0  0  0
   19.6331  -11.2403  -15.2792 O   0  0  0  0  0  0  0  0  0  0  0  0
   22.4205  -11.7419  -14.4695 N   0  0  0  0  0  0  0  0  0  0  0  0
   23.4298  -10.8426  -14.9141 C   0  0  0  0  0  0  0  0  0  0  0  0
   24.6481  -11.2441  -14.9641 O   0  0  0  0  0  0  0  0  0  0  0  0
   23.1000   -9.4611  -15.3131 C   0  0  0  0  0  0  0  0  0  0  0  0
   21.5806   -9.2375  -15.2535 C   0  0  2  0  0  0  0  0  0  0  0  0
   21.0462   -9.8401  -16.4476 N   0  0  0  0  0  0  0  0  0  0  0  0
   21.3301   -7.7483  -15.2535 C   0  0  0  0  0  0  0  0  0  0  0  0
   21.3529   -7.0643  -16.3094 O   0  0  0  0  0  0  0  0  0  0  0  0
   21.0618   -7.1038  -14.0341 N   0  0  0  0  0  0  0  0  0  0  0  0
   20.7512   -5.6905  -13.9096 C   0  0  0  0  0  0  0  0  0  0  0  0
   21.9086   -4.8258  -14.2253 C   0  0  0  0  0  0  0  0  0  0  0  0
   21.8597   -3.4530  -14.2506 O   0  0  0  0  0  0  0  0  0  0  0  0
   23.0331   -5.3416  -14.4932 O   0  0  0  0  0  0  0  0  0  0  0  0
  1  2  1  0
  3  2  1  0
  3  5  1  0
  3  4  1  6
  5  6  1  1
  5  7  1  0
  7 14  1  0
  7  8  2  0
 10  9  1  0
 10 12  1  0
 11 10  2  0
 13 12  1  6
 14 13  1  0
 15 13  1  0
 15 17  1  0
 16 15  2  0
 18 17  1  0
 18 19  1  0
 19 20  1  0
 21 19  2  0
M  END
$$$$
