ING.pdb
     RDKit          3D

 21 20  0  0  1  0  0  0  0  0999 V2000
   27.8444  -11.5666  -16.2766 C   0  0  0  0  0  0  0  0  0  0  0  0
   26.4688  -12.0159  -15.7648 C   0  0  0  0  0  0  0  0  0  0  0  0
   25.5213  -10.8756  -15.9417 C   0  0  2  0  0  0  0  0  0  0  0  0
   25.9620   -9.6327  -15.2039 C   0  0  0  0  0  0  0  0  0  0  0  0
   24.0960  -11.1666  -15.5823 C   0  0  2  0  0  0  0  0  0  0  0  0
   23.7263  -12.3769  -16.3292 N   0  0  0  0  0  0  0  0  0  0  0  0
   23.2173  -10.0764  -16.0156 C   0  0  0  0  0  0  0  0  0  0  0  0
   22.9967   -9.8200  -17.2424 O   0  0  0  0  0  0  0  0  0  0  0  0
   19.3341   -7.4478  -16.6256 N   0  0  0  0  0  0  0  0  0  0  0  0
   19.2587   -7.9091  -15.2816 C   0  0  0  0  0  0  0  0  0  0  0  0
   18.1076   -8.0398  -14.7283 O   0  0  0  0  0  0  0  0  0  0  0  0
   20.4772   -8.2346  -14.5162 C   0  0  0  0  0  0  0  0  0  0  0  0
   21.7163   -8.1365  -15.4201 C   0  0  2  0  0  0  0  0  0  0  0  0
   22.5619   -9.2426  -15.0513 N   0  0  0  0  0  0  0  0  0  0  0  0
   22.4024   -6.8238  -15.1264 C   0  0  0  0  0  0  0  0  0  0  0  0
   22.9061   -6.5670  -14.0022 O   0  0  0  0  0  0  0  0  0  0  0  0
   22.4824   -5.8560  -16.1419 N   0  0  0  0  0  0  0  0  0  0  0  0
   22.9872   -4.5082  -15.9463 C   0  0  0  0  0  0  0  0  0  0  0  0
   24.4402   -4.4047  -16.2008 C   0  0  0  0  0  0  0  0  0  0  0  0
   25.2368   -5.4659  -16.5571 O   0  0  0  0  0  0  0  0  0  0  0  0
   25.0260   -3.2875  -16.0963 O   0  0  0  0  0  0  0  0  0  0  0  0
  1  2  1  0
  3  2  1  0
  3  5  1  0
  3  4  1  1
  5  6  1  6
  5  7  1  0
  7 14  1  0
  7  8  2  0
 10  9  1  0
 10 12  1  0
 11 10  2  0
 13 12  1  1
 14 13  1  0
 15 13  1  0
 15 17  1  0
 16 15  2  0
 18 17  1  0
 18 19  1  0
 19 20  1  0
 21 19  2  0
M  END
$$$$
