ING.pdb
     RDKit          3D

 21 20  0  0  1  0  0  0  0  0999 V2000
   15.0389  -23.2135   -9.4506 C   0  0  0  0  0  0  0  0  0  0  0  0
   16.2965  -23.9151   -8.9194 C   0  0  0  0  0  0  0  0  0  0  0  0
   15.9446  -24.5605   -7.6199 C   0  0  2  0  0  0  0  0  0  0  0  0
   15.3199  -23.5943   -6.6403 C   0  0  0  0  0  0  0  0  0  0  0  0
   17.0693  -25.2766   -6.9360 C   0  0  2  0  0  0  0  0  0  0  0  0
   17.5089  -26.3265   -7.8654 N   0  0  0  0  0  0  0  0  0  0  0  0
   16.6031  -25.9220   -5.7054 C   0  0  0  0  0  0  0  0  0  0  0  0
   15.6395  -26.7529   -5.6897 O   0  0  0  0  0  0  0  0  0  0  0  0
   18.0698  -28.4241   -4.1477 N   0  0  0  0  0  0  0  0  0  0  0  0
   18.6336  -27.8003   -2.9997 C   0  0  0  0  0  0  0  0  0  0  0  0
   19.6765  -28.3153   -2.4562 O   0  0  0  0  0  0  0  0  0  0  0  0
   18.0390  -26.5788   -2.4245 C   0  0  0  0  0  0  0  0  0  0  0  0
   16.7719  -26.1865   -3.2009 C   0  0  2  0  0  0  0  0  0  0  0  0
   17.2299  -25.6328   -4.4492 N   0  0  0  0  0  0  0  0  0  0  0  0
   16.0385  -25.1413   -2.3948 C   0  0  0  0  0  0  0  0  0  0  0  0
   16.0941  -23.9161   -2.6762 O   0  0  0  0  0  0  0  0  0  0  0  0
   15.2670  -25.5494   -1.2936 N   0  0  0  0  0  0  0  0  0  0  0  0
   14.7494  -24.6462   -0.2807 C   0  0  0  0  0  0  0  0  0  0  0  0
   13.4015  -24.1359   -0.6119 C   0  0  0  0  0  0  0  0  0  0  0  0
   12.6837  -23.2812    0.1892 O   0  0  0  0  0  0  0  0  0  0  0  0
   12.8382  -24.4819   -1.6914 O   0  0  0  0  0  0  0  0  0  0  0  0
  1  2  1  0
  3  2  1  0
  3  5  1  0
  3  4  1  1
  5  6  1  6
  5  7  1  0
  7 14  1  0
  7  8  2  0
 10  9  1  0
 10 12  1  0
 11 10  2  0
 13 12  1  1
 14 13  1  0
 15 13  1  0
 15 17  1  0
 16 15  2  0
 18 17  1  0
 18 19  1  0
 19 20  1  0
 21 19  2  0
M  END
$$$$
