ING.pdb
     RDKit          3D

 21 20  0  0  1  0  0  0  0  0999 V2000
   20.4084  -26.9644  -15.8773 C   0  0  0  0  0  0  0  0  0  0  0  0
   20.5813  -25.5559  -15.2924 C   0  0  0  0  0  0  0  0  0  0  0  0
   20.6370  -25.6827  -13.8058 C   0  0  2  0  0  0  0  0  0  0  0  0
   21.8188  -26.4983  -13.3349 C   0  0  0  0  0  0  0  0  0  0  0  0
   19.3956  -26.2219  -13.1627 C   0  0  2  0  0  0  0  0  0  0  0  0
   18.3561  -25.2033  -13.3658 N   0  0  0  0  0  0  0  0  0  0  0  0
   19.5899  -26.3949  -11.7203 C   0  0  0  0  0  0  0  0  0  0  0  0
   20.4500  -27.1980  -11.2359 O   0  0  0  0  0  0  0  0  0  0  0  0
   19.0165  -25.9018   -6.6195 N   0  0  0  0  0  0  0  0  0  0  0  0
   18.5518  -24.7014   -7.2264 C   0  0  0  0  0  0  0  0  0  0  0  0
   18.2079  -23.7151   -6.4800 O   0  0  0  0  0  0  0  0  0  0  0  0
   18.4558  -24.5746   -8.6931 C   0  0  0  0  0  0  0  0  0  0  0  0
   18.8156  -25.9078   -9.3679 C   0  0  2  0  0  0  0  0  0  0  0  0
   18.8004  -25.6493  -10.7848 N   0  0  0  0  0  0  0  0  0  0  0  0
   17.7523  -26.9155   -9.0015 C   0  0  0  0  0  0  0  0  0  0  0  0
   16.5484  -26.7729   -9.3386 O   0  0  0  0  0  0  0  0  0  0  0  0
   18.1184  -28.0513   -8.2597 N   0  0  0  0  0  0  0  0  0  0  0  0
   17.2091  -29.1320   -7.9207 C   0  0  0  0  0  0  0  0  0  0  0  0
   16.3467  -28.8054   -6.7647 C   0  0  0  0  0  0  0  0  0  0  0  0
   16.3785  -29.4770   -5.5665 O   0  0  0  0  0  0  0  0  0  0  0  0
   15.5146  -27.8546   -6.8408 O   0  0  0  0  0  0  0  0  0  0  0  0
  1  2  1  0
  3  2  1  0
  3  5  1  0
  3  4  1  6
  5  6  1  1
  5  7  1  0
  7 14  1  0
  7  8  2  0
 10  9  1  0
 10 12  1  0
 11 10  2  0
 13 12  1  1
 14 13  1  0
 15 13  1  0
 15 17  1  0
 16 15  2  0
 18 17  1  0
 18 19  1  0
 19 20  1  0
 21 19  2  0
M  END
$$$$
