ING.pdb
     RDKit          3D

 21 20  0  0  1  0  0  0  0  0999 V2000
   26.5190  -20.4150   -8.2191 C   0  0  0  0  0  0  0  0  0  0  0  0
   26.4859  -21.3054   -9.4690 C   0  0  0  0  0  0  0  0  0  0  0  0
   25.4802  -20.7315  -10.4116 C   0  0  2  0  0  0  0  0  0  0  0  0
   24.0943  -20.6632   -9.8135 C   0  0  0  0  0  0  0  0  0  0  0  0
   25.3941  -21.4089  -11.7454 C   0  0  2  0  0  0  0  0  0  0  0  0
   26.7614  -21.4250  -12.2835 N   0  0  0  0  0  0  0  0  0  0  0  0
   24.5503  -20.6409  -12.6654 C   0  0  0  0  0  0  0  0  0  0  0  0
   24.9609  -19.5932  -13.2596 O   0  0  0  0  0  0  0  0  0  0  0  0
   21.5898  -20.0916  -17.1317 N   0  0  0  0  0  0  0  0  0  0  0  0
   21.0598  -20.5652  -15.8989 C   0  0  0  0  0  0  0  0  0  0  0  0
   19.8168  -20.3771  -15.6385 O   0  0  0  0  0  0  0  0  0  0  0  0
   21.9132  -21.2624  -14.9181 C   0  0  0  0  0  0  0  0  0  0  0  0
   22.3126  -20.3054  -13.7837 C   0  0  2  0  0  0  0  0  0  0  0  0
   23.2035  -21.0520  -12.9333 N   0  0  0  0  0  0  0  0  0  0  0  0
   21.0581  -19.9255  -13.0338 C   0  0  0  0  0  0  0  0  0  0  0  0
   20.4973  -20.7088  -12.2244 O   0  0  0  0  0  0  0  0  0  0  0  0
   20.4977  -18.6545  -13.2456 N   0  0  0  0  0  0  0  0  0  0  0  0
   19.4525  -18.0759  -12.4195 C   0  0  0  0  0  0  0  0  0  0  0  0
   18.2063  -17.8257  -13.1751 C   0  0  0  0  0  0  0  0  0  0  0  0
   17.0651  -17.2953  -12.6237 O   0  0  0  0  0  0  0  0  0  0  0  0
   18.1446  -18.1015  -14.4089 O   0  0  0  0  0  0  0  0  0  0  0  0
  1  2  1  0
  3  2  1  0
  3  5  1  0
  3  4  1  1
  5  6  1  6
  5  7  1  0
  7 14  1  0
  7  8  2  0
 10  9  1  0
 10 12  1  0
 11 10  2  0
 13 12  1  6
 14 13  1  0
 15 13  1  0
 15 17  1  0
 16 15  2  0
 18 17  1  0
 18 19  1  0
 19 20  1  0
 21 19  2  0
M  END
$$$$
