ING.pdb
     RDKit          3D

 21 20  0  0  1  0  0  0  0  0999 V2000
   18.4332  -13.8933  -17.3455 C   0  0  0  0  0  0  0  0  0  0  0  0
   17.9497  -12.4397  -17.2491 C   0  0  0  0  0  0  0  0  0  0  0  0
   19.0905  -11.6109  -16.7584 C   0  0  2  0  0  0  0  0  0  0  0  0
   19.7300  -12.1797  -15.5131 C   0  0  0  0  0  0  0  0  0  0  0  0
   18.7746  -10.1659  -16.5181 C   0  0  2  0  0  0  0  0  0  0  0  0
   18.3102   -9.6307  -17.8054 N   0  0  0  0  0  0  0  0  0  0  0  0
   19.9787   -9.4287  -16.1246 C   0  0  0  0  0  0  0  0  0  0  0  0
   20.5563   -9.6068  -15.0048 O   0  0  0  0  0  0  0  0  0  0  0  0
   23.3797  -10.3911  -18.6386 N   0  0  0  0  0  0  0  0  0  0  0  0
   23.3251   -9.4371  -17.5842 C   0  0  0  0  0  0  0  0  0  0  0  0
   23.7662   -9.7615  -16.4230 O   0  0  0  0  0  0  0  0  0  0  0  0
   22.7685   -8.0883  -17.8025 C   0  0  0  0  0  0  0  0  0  0  0  0
   21.7663   -7.7391  -16.6908 C   0  0  2  0  0  0  0  0  0  0  0  0
   20.5600   -8.4599  -17.0067 N   0  0  0  0  0  0  0  0  0  0  0  0
   21.5215   -6.2497  -16.7375 C   0  0  0  0  0  0  0  0  0  0  0  0
   21.3250   -5.6359  -17.8182 O   0  0  0  0  0  0  0  0  0  0  0  0
   21.5119   -5.5240  -15.5344 N   0  0  0  0  0  0  0  0  0  0  0  0
   21.3612   -4.0817  -15.4531 C   0  0  0  0  0  0  0  0  0  0  0  0
   21.4623   -3.5786  -14.0662 C   0  0  0  0  0  0  0  0  0  0  0  0
   21.5448   -4.3869  -12.9582 O   0  0  0  0  0  0  0  0  0  0  0  0
   21.4785   -2.3330  -13.8413 O   0  0  0  0  0  0  0  0  0  0  0  0
  1  2  1  0
  3  2  1  0
  3  5  1  0
  3  4  1  1
  5  6  1  6
  5  7  1  0
  7 14  1  0
  7  8  2  0
 10  9  1  0
 10 12  1  0
 11 10  2  0
 13 12  1  6
 14 13  1  0
 15 13  1  0
 15 17  1  0
 16 15  2  0
 18 17  1  0
 18 19  1  0
 19 20  1  0
 21 19  2  0
M  END
$$$$
