ING.pdb
     RDKit          3D

 21 20  0  0  1  0  0  0  0  0999 V2000
   22.5917  -14.2739  -20.4930 C   0  0  0  0  0  0  0  0  0  0  0  0
   22.1911  -14.3669  -19.0142 C   0  0  0  0  0  0  0  0  0  0  0  0
   21.5704  -13.0654  -18.6268 C   0  0  2  0  0  0  0  0  0  0  0  0
   22.4315  -11.8784  -18.9912 C   0  0  0  0  0  0  0  0  0  0  0  0
   21.1771  -12.9480  -17.1856 C   0  0  2  0  0  0  0  0  0  0  0  0
   20.2525  -14.0596  -16.9237 N   0  0  0  0  0  0  0  0  0  0  0  0
   20.4619  -11.6920  -16.9423 C   0  0  0  0  0  0  0  0  0  0  0  0
   19.5581  -11.2552  -17.7243 O   0  0  0  0  0  0  0  0  0  0  0  0
   16.9419   -9.8082  -15.8491 N   0  0  0  0  0  0  0  0  0  0  0  0
   17.9625  -10.4806  -15.1202 C   0  0  0  0  0  0  0  0  0  0  0  0
   17.8854  -11.7524  -14.9633 O   0  0  0  0  0  0  0  0  0  0  0  0
   19.1008   -9.7419  -14.5413 C   0  0  0  0  0  0  0  0  0  0  0  0
   20.2161   -9.5776  -15.5861 C   0  0  2  0  0  0  0  0  0  0  0  0
   20.7626  -10.8945  -15.7898 N   0  0  0  0  0  0  0  0  0  0  0  0
   21.2613   -8.6536  -15.0079 C   0  0  0  0  0  0  0  0  0  0  0  0
   22.1496   -9.0588  -14.2142 O   0  0  0  0  0  0  0  0  0  0  0  0
   21.2426   -7.2956  -15.3682 N   0  0  0  0  0  0  0  0  0  0  0  0
   22.2208   -6.3195  -14.9208 C   0  0  0  0  0  0  0  0  0  0  0  0
   22.0008   -5.8975  -13.5207 C   0  0  0  0  0  0  0  0  0  0  0  0
   22.8055   -5.0093  -12.8490 O   0  0  0  0  0  0  0  0  0  0  0  0
   21.0212   -6.3578  -12.8644 O   0  0  0  0  0  0  0  0  0  0  0  0
  1  2  1  0
  3  2  1  0
  3  5  1  0
  3  4  1  1
  5  6  1  6
  5  7  1  0
  7 14  1  0
  7  8  2  0
 10  9  1  0
 10 12  1  0
 11 10  2  0
 13 12  1  1
 14 13  1  0
 15 13  1  0
 15 17  1  0
 16 15  2  0
 18 17  1  0
 18 19  1  0
 19 20  1  0
 21 19  2  0
M  END
$$$$
