ING.pdb
     RDKit          3D

 21 20  0  0  1  0  0  0  0  0999 V2000
   21.8906  -11.5578  -21.5932 C   0  0  0  0  0  0  0  0  0  0  0  0
   22.6112  -10.9038  -20.4063 C   0  0  0  0  0  0  0  0  0  0  0  0
   21.6098  -10.0875  -19.6579 C   0  0  2  0  0  0  0  0  0  0  0  0
   20.8387   -9.1468  -20.5543 C   0  0  0  0  0  0  0  0  0  0  0  0
   22.1564   -9.3074  -18.5011 C   0  0  2  0  0  0  0  0  0  0  0  0
   22.8426  -10.2812  -17.6408 N   0  0  0  0  0  0  0  0  0  0  0  0
   21.0719   -8.6977  -17.7261 C   0  0  0  0  0  0  0  0  0  0  0  0
   20.3883   -7.7156  -18.1588 O   0  0  0  0  0  0  0  0  0  0  0  0
   17.4920   -9.8847  -16.7767 N   0  0  0  0  0  0  0  0  0  0  0  0
   17.9536  -10.4268  -15.5445 C   0  0  0  0  0  0  0  0  0  0  0  0
   17.3607  -11.4530  -15.0511 O   0  0  0  0  0  0  0  0  0  0  0  0
   19.0950   -9.8283  -14.8266 C   0  0  0  0  0  0  0  0  0  0  0  0
   19.6696   -8.6494  -15.6280 C   0  0  2  0  0  0  0  0  0  0  0  0
   20.7369   -9.1973  -16.4251 N   0  0  0  0  0  0  0  0  0  0  0  0
   20.2082   -7.6380  -14.6444 C   0  0  0  0  0  0  0  0  0  0  0  0
   19.4727   -7.0702  -13.7959 O   0  0  0  0  0  0  0  0  0  0  0  0
   21.5764   -7.3201  -14.6762 N   0  0  0  0  0  0  0  0  0  0  0  0
   22.2374   -6.4628  -13.7079 C   0  0  0  0  0  0  0  0  0  0  0  0
   21.9619   -5.0285  -13.9396 C   0  0  0  0  0  0  0  0  0  0  0  0
   21.1068   -4.5551  -14.9051 O   0  0  0  0  0  0  0  0  0  0  0  0
   22.5269   -4.1492  -13.2256 O   0  0  0  0  0  0  0  0  0  0  0  0
  1  2  1  0
  3  2  1  0
  3  5  1  0
  3  4  1  6
  5  6  1  1
  5  7  1  0
  7 14  1  0
  7  8  2  0
 10  9  1  0
 10 12  1  0
 11 10  2  0
 13 12  1  1
 14 13  1  0
 15 13  1  0
 15 17  1  0
 16 15  2  0
 18 17  1  0
 18 19  1  0
 19 20  1  0
 21 19  2  0
M  END
$$$$
