ING.pdb
     RDKit          3D

 21 20  0  0  1  0  0  0  0  0999 V2000
   28.3456  -21.2001  -17.8144 C   0  0  0  0  0  0  0  0  0  0  0  0
   28.5541  -20.5713  -16.4298 C   0  0  0  0  0  0  0  0  0  0  0  0
   27.5746  -21.1965  -15.4924 C   0  0  2  0  0  0  0  0  0  0  0  0
   27.6552  -22.7054  -15.4874 C   0  0  0  0  0  0  0  0  0  0  0  0
   26.1460  -20.7933  -15.6973 C   0  0  2  0  0  0  0  0  0  0  0  0
   26.1168  -19.3280  -15.5908 N   0  0  0  0  0  0  0  0  0  0  0  0
   25.2931  -21.3452  -14.6408 C   0  0  0  0  0  0  0  0  0  0  0  0
   24.9712  -22.5753  -14.5921 O   0  0  0  0  0  0  0  0  0  0  0  0
   25.7075  -22.4161  -11.2007 N   0  0  0  0  0  0  0  0  0  0  0  0
   25.3023  -21.1780  -10.6280 C   0  0  0  0  0  0  0  0  0  0  0  0
   25.8269  -20.8000   -9.5189 O   0  0  0  0  0  0  0  0  0  0  0  0
   24.2908  -20.3277  -11.2838 C   0  0  0  0  0  0  0  0  0  0  0  0
   23.8429  -20.9598  -12.6112 C   0  0  2  0  0  0  0  0  0  0  0  0
   24.7803  -20.4996  -13.6032 N   0  0  0  0  0  0  0  0  0  0  0  0
   22.4536  -20.4551  -12.9203 C   0  0  0  0  0  0  0  0  0  0  0  0
   22.2216  -19.2461  -13.1806 O   0  0  0  0  0  0  0  0  0  0  0  0
   21.3832  -21.3654  -12.9181 N   0  0  0  0  0  0  0  0  0  0  0  0
   20.0218  -21.0245  -13.2921 C   0  0  0  0  0  0  0  0  0  0  0  0
   19.3612  -22.0973  -14.0664 C   0  0  0  0  0  0  0  0  0  0  0  0
   18.2809  -22.8175  -13.6169 O   0  0  0  0  0  0  0  0  0  0  0  0
   19.7845  -22.4021  -15.2197 O   0  0  0  0  0  0  0  0  0  0  0  0
  1  2  1  0
  3  2  1  0
  3  5  1  0
  3  4  1  6
  5  6  1  1
  5  7  1  0
  7 14  1  0
  7  8  2  0
 10  9  1  0
 10 12  1  0
 11 10  2  0
 13 12  1  1
 14 13  1  0
 15 13  1  0
 15 17  1  0
 16 15  2  0
 18 17  1  0
 18 19  1  0
 19 20  1  0
 21 19  2  0
M  END
$$$$
