ING.pdb
     RDKit          3D

 21 20  0  0  1  0  0  0  0  0999 V2000
   18.1458  -12.6748  -16.3653 C   0  0  0  0  0  0  0  0  0  0  0  0
   18.8488  -11.3837  -16.8065 C   0  0  0  0  0  0  0  0  0  0  0  0
   18.8400  -10.4407  -15.6489 C   0  0  2  0  0  0  0  0  0  0  0  0
   18.2354  -11.0509  -14.4057 C   0  0  0  0  0  0  0  0  0  0  0  0
   18.1799   -9.1200  -15.9045 C   0  0  2  0  0  0  0  0  0  0  0  0
   18.5818   -8.7191  -17.2599 N   0  0  0  0  0  0  0  0  0  0  0  0
   18.6657   -8.1052  -14.9651 C   0  0  0  0  0  0  0  0  0  0  0  0
   18.4029   -8.1412  -13.7206 O   0  0  0  0  0  0  0  0  0  0  0  0
   21.3013   -4.2181  -12.9066 N   0  0  0  0  0  0  0  0  0  0  0  0
   22.1048   -5.0812  -13.7032 C   0  0  0  0  0  0  0  0  0  0  0  0
   23.3822   -4.9600  -13.6642 O   0  0  0  0  0  0  0  0  0  0  0  0
   21.4954   -6.1059  -14.5722 C   0  0  0  0  0  0  0  0  0  0  0  0
   19.9637   -5.9806  -14.5505 C   0  0  2  0  0  0  0  0  0  0  0  0
   19.4712   -7.0128  -15.4260 N   0  0  0  0  0  0  0  0  0  0  0  0
   19.6020   -4.6152  -15.0847 C   0  0  0  0  0  0  0  0  0  0  0  0
   20.0440   -3.5552  -14.5706 O   0  0  0  0  0  0  0  0  0  0  0  0
   18.7438   -4.5242  -16.1935 N   0  0  0  0  0  0  0  0  0  0  0  0
   18.2740   -3.2723  -16.7607 C   0  0  0  0  0  0  0  0  0  0  0  0
   17.1161   -2.7170  -16.0274 C   0  0  0  0  0  0  0  0  0  0  0  0
   16.9685   -1.3872  -15.7151 O   0  0  0  0  0  0  0  0  0  0  0  0
   16.1799   -3.4791  -15.6466 O   0  0  0  0  0  0  0  0  0  0  0  0
  1  2  1  0
  3  2  1  0
  3  5  1  0
  3  4  1  1
  5  6  1  6
  5  7  1  0
  7 14  1  0
  7  8  2  0
 10  9  1  0
 10 12  1  0
 11 10  2  0
 13 12  1  6
 14 13  1  0
 15 13  1  0
 15 17  1  0
 16 15  2  0
 18 17  1  0
 18 19  1  0
 19 20  1  0
 21 19  2  0
M  END
$$$$
