ING.pdb
     RDKit          3D

 21 20  0  0  1  0  0  0  0  0999 V2000
   21.9972  -17.0088  -18.7051 C   0  0  0  0  0  0  0  0  0  0  0  0
   23.1489  -16.2409  -19.3684 C   0  0  0  0  0  0  0  0  0  0  0  0
   23.7146  -15.3017  -18.3549 C   0  0  2  0  0  0  0  0  0  0  0  0
   22.6760  -14.3616  -17.7886 C   0  0  0  0  0  0  0  0  0  0  0  0
   24.8906  -14.4956  -18.8159 C   0  0  2  0  0  0  0  0  0  0  0  0
   25.8476  -15.4571  -19.3807 N   0  0  0  0  0  0  0  0  0  0  0  0
   25.5345  -13.8211  -17.6850 C   0  0  0  0  0  0  0  0  0  0  0  0
   26.2463  -14.4414  -16.8319 O   0  0  0  0  0  0  0  0  0  0  0  0
   27.5491  -10.1918  -14.6883 N   0  0  0  0  0  0  0  0  0  0  0  0
   27.9022  -10.1233  -16.0651 C   0  0  0  0  0  0  0  0  0  0  0  0
   28.9139   -9.4159  -16.4174 O   0  0  0  0  0  0  0  0  0  0  0  0
   27.1250  -10.8461  -17.0898 C   0  0  0  0  0  0  0  0  0  0  0  0
   26.0230  -11.6881  -16.4273 C   0  0  2  0  0  0  0  0  0  0  0  0
   25.3808  -12.4086  -17.4964 N   0  0  0  0  0  0  0  0  0  0  0  0
   25.0496  -10.7414  -15.7665 C   0  0  0  0  0  0  0  0  0  0  0  0
   25.3389  -10.1036  -14.7211 O   0  0  0  0  0  0  0  0  0  0  0  0
   23.7779  -10.5655  -16.3376 N   0  0  0  0  0  0  0  0  0  0  0  0
   22.7471   -9.7050  -15.7840 C   0  0  0  0  0  0  0  0  0  0  0  0
   22.8946   -8.2969  -16.2109 C   0  0  0  0  0  0  0  0  0  0  0  0
   23.0924   -7.2472  -15.3468 O   0  0  0  0  0  0  0  0  0  0  0  0
   22.8431   -7.9963  -17.4394 O   0  0  0  0  0  0  0  0  0  0  0  0
  1  2  1  0
  3  2  1  0
  3  5  1  0
  3  4  1  6
  5  6  1  1
  5  7  1  0
  7 14  1  0
  7  8  2  0
 10  9  1  0
 10 12  1  0
 11 10  2  0
 13 12  1  6
 14 13  1  0
 15 13  1  0
 15 17  1  0
 16 15  2  0
 18 17  1  0
 18 19  1  0
 19 20  1  0
 21 19  2  0
M  END
$$$$
