YLK.pdb
     RDKit          3D

 30 30  0  0  1  0  0  0  0  0999 V2000
   20.5580  -16.8437  -22.6053 O   0  0  0  0  0  0  0  0  0  0  0  0
   20.9275  -15.8171  -21.7336 C   0  0  0  0  0  0  0  0  0  0  0  0
   22.1394  -15.1732  -21.8382 C   0  0  0  0  0  0  0  0  0  0  0  0
   22.4624  -14.1657  -20.9563 C   0  0  0  0  0  0  0  0  0  0  0  0
   21.5810  -13.7908  -19.9625 C   0  0  0  0  0  0  0  0  0  0  0  0
   21.9719  -12.7091  -19.0451 C   0  0  0  0  0  0  0  0  0  0  0  0
   22.8101  -13.1801  -17.8956 C   0  0  2  0  0  0  0  0  0  0  0  0
   22.1845  -14.1830  -17.0909 N   0  0  0  0  0  0  0  0  0  0  0  0
   23.2814  -12.0149  -17.1148 C   0  0  0  0  0  0  0  0  0  0  0  0
   22.6632  -11.7313  -16.0571 O   0  0  0  0  0  0  0  0  0  0  0  0
   20.3617  -14.4268  -19.8444 C   0  0  0  0  0  0  0  0  0  0  0  0
   20.0566  -15.4328  -20.7365 C   0  0  0  0  0  0  0  0  0  0  0  0
   27.1104  -11.3867  -15.0930 C   0  0  0  0  0  0  0  0  0  0  0  0
   27.2277  -10.9307  -16.5572 C   0  0  2  0  0  0  0  0  0  0  0  0
   28.6795  -10.4671  -16.6988 C   0  0  0  0  0  0  0  0  0  0  0  0
   26.2620   -9.8159  -16.7286 C   0  0  0  0  0  0  0  0  0  0  0  0
   24.8239  -10.1744  -16.6239 C   0  0  2  0  0  0  0  0  0  0  0  0
   24.3764  -11.2100  -17.4867 N   0  0  0  0  0  0  0  0  0  0  0  0
   24.0389   -8.9288  -16.9609 C   0  0  0  0  0  0  0  0  0  0  0  0
   24.1157   -8.4387  -18.1183 O   0  0  0  0  0  0  0  0  0  0  0  0
   23.2241   -8.3229  -15.9746 N   0  0  0  0  0  0  0  0  0  0  0  0
   22.3029   -7.2197  -16.3049 C   0  0  1  0  0  0  0  0  0  0  0  0
   21.4070   -7.7466  -17.3717 C   0  0  0  0  0  0  0  0  0  0  0  0
   20.3126   -6.7698  -17.6772 C   0  0  0  0  0  0  0  0  0  0  0  0
   19.4359   -7.3018  -18.7703 C   0  0  0  0  0  0  0  0  0  0  0  0
   18.3335   -6.3367  -19.0930 C   0  0  0  0  0  0  0  0  0  0  0  0
   17.3982   -7.0220  -19.9735 N   0  0  0  0  0  0  0  0  0  0  0  0
   21.6704   -6.7770  -15.0624 C   0  0  0  0  0  0  0  0  0  0  0  0
   21.6695   -7.5824  -13.9438 O   0  0  0  0  0  0  0  0  0  0  0  0
   21.1179   -5.6651  -14.9755 O   0  0  0  0  0  0  0  0  0  0  0  0
  2  1  1  0
  3  2  2  0
  4  3  1  0
  5 11  1  0
  5  4  2  0
  6  5  1  0
  7  6  1  0
  7  8  1  1
  9  7  1  0
  9 10  2  0
 11 12  2  0
 12  2  1  0
 14 16  1  0
 14 13  1  1
 15 14  1  0
 17 16  1  6
 17 18  1  0
 18  9  1  0
 19 17  1  0
 20 19  2  0
 21 19  1  0
 22 21  1  0
 22 28  1  0
 22 23  1  6
 24 23  1  0
 25 24  1  0
 26 27  1  0
 26 25  1  0
 28 30  2  0
 28 29  1  0
M  END
$$$$
