YLK.pdb
     RDKit          3D

 30 30  0  0  1  0  0  0  0  0999 V2000
   21.1066  -18.3581  -17.5837 O   0  0  0  0  0  0  0  0  0  0  0  0
   21.5599  -18.8715  -16.3665 C   0  0  0  0  0  0  0  0  0  0  0  0
   22.1027  -18.0649  -15.3924 C   0  0  0  0  0  0  0  0  0  0  0  0
   22.5370  -18.6143  -14.2064 C   0  0  0  0  0  0  0  0  0  0  0  0
   22.4345  -19.9720  -13.9804 C   0  0  0  0  0  0  0  0  0  0  0  0
   22.9124  -20.5111  -12.6976 C   0  0  0  0  0  0  0  0  0  0  0  0
   24.4065  -20.5428  -12.5872 C   0  0  2  0  0  0  0  0  0  0  0  0
   25.0481  -21.3353  -13.5898 N   0  0  0  0  0  0  0  0  0  0  0  0
   24.7946  -20.9177  -11.2094 C   0  0  0  0  0  0  0  0  0  0  0  0
   24.7781  -22.1388  -10.9094 O   0  0  0  0  0  0  0  0  0  0  0  0
   21.8925  -20.7944  -14.9475 C   0  0  0  0  0  0  0  0  0  0  0  0
   21.4634  -20.2257  -16.1279 C   0  0  0  0  0  0  0  0  0  0  0  0
   27.3477  -18.9010   -5.9905 C   0  0  0  0  0  0  0  0  0  0  0  0
   26.5145  -20.0045   -6.6638 C   0  0  2  0  0  0  0  0  0  0  0  0
   27.3834  -21.2600   -6.5562 C   0  0  0  0  0  0  0  0  0  0  0  0
   26.3133  -19.5788   -8.0720 C   0  0  0  0  0  0  0  0  0  0  0  0
   25.4027  -20.4239   -8.8870 C   0  0  2  0  0  0  0  0  0  0  0  0
   25.1790  -19.9904  -10.2208 N   0  0  0  0  0  0  0  0  0  0  0  0
   24.0678  -20.4328   -8.1803 C   0  0  0  0  0  0  0  0  0  0  0  0
   23.3097  -19.4313   -8.2691 O   0  0  0  0  0  0  0  0  0  0  0  0
   23.6800  -21.5653   -7.4246 N   0  0  0  0  0  0  0  0  0  0  0  0
   22.3719  -21.6303   -6.7469 C   0  0  1  0  0  0  0  0  0  0  0  0
   21.7156  -22.8680   -7.2523 C   0  0  0  0  0  0  0  0  0  0  0  0
   20.4219  -23.1137   -6.5375 C   0  0  0  0  0  0  0  0  0  0  0  0
   19.7997  -24.3893   -7.0193 C   0  0  0  0  0  0  0  0  0  0  0  0
   18.4789  -24.6297   -6.3495 C   0  0  0  0  0  0  0  0  0  0  0  0
   17.8904  -25.8138   -6.9590 N   0  0  0  0  0  0  0  0  0  0  0  0
   22.6091  -21.5431   -5.3060 C   0  0  0  0  0  0  0  0  0  0  0  0
   21.6236  -21.0941   -4.4534 O   0  0  0  0  0  0  0  0  0  0  0  0
   23.7011  -21.8711   -4.8068 O   0  0  0  0  0  0  0  0  0  0  0  0
  2  1  1  0
  3  2  2  0
  4  3  1  0
  5 11  1  0
  5  4  2  0
  6  5  1  0
  7  6  1  0
  7  8  1  6
  9  7  1  0
  9 10  2  0
 11 12  2  0
 12  2  1  0
 14 16  1  0
 14 13  1  1
 15 14  1  0
 17 16  1  1
 17 18  1  0
 18  9  1  0
 19 17  1  0
 20 19  2  0
 21 19  1  0
 22 21  1  0
 22 28  1  0
 22 23  1  1
 24 23  1  0
 25 24  1  0
 26 27  1  0
 26 25  1  0
 28 30  2  0
 28 29  1  0
M  END
$$$$
