YLK.pdb
     RDKit          3D

 30 30  0  0  1  0  0  0  0  0999 V2000
   19.3775  -23.7922   -7.2177 O   0  0  0  0  0  0  0  0  0  0  0  0
   20.0311  -22.9609   -8.1301 C   0  0  0  0  0  0  0  0  0  0  0  0
   20.3899  -21.6707   -7.8129 C   0  0  0  0  0  0  0  0  0  0  0  0
   21.0334  -20.8860   -8.7443 C   0  0  0  0  0  0  0  0  0  0  0  0
   21.3250  -21.3798   -9.9997 C   0  0  0  0  0  0  0  0  0  0  0  0
   22.0136  -20.5028  -10.9595 C   0  0  0  0  0  0  0  0  0  0  0  0
   23.4514  -20.8684  -11.1713 C   0  0  2  0  0  0  0  0  0  0  0  0
   24.2709  -20.7058  -10.0108 N   0  0  0  0  0  0  0  0  0  0  0  0
   23.9741  -20.1585  -12.3597 C   0  0  0  0  0  0  0  0  0  0  0  0
   24.1588  -18.9182  -12.2652 O   0  0  0  0  0  0  0  0  0  0  0  0
   20.9716  -22.6717  -10.3332 C   0  0  0  0  0  0  0  0  0  0  0  0
   20.3282  -23.4415   -9.3874 C   0  0  0  0  0  0  0  0  0  0  0  0
   27.7380  -19.0235  -13.9259 C   0  0  0  0  0  0  0  0  0  0  0  0
   27.4056  -20.5240  -13.9846 C   0  0  2  0  0  0  0  0  0  0  0  0
   28.7028  -21.1855  -14.4562 C   0  0  0  0  0  0  0  0  0  0  0  0
   26.3071  -20.6725  -14.9725 C   0  0  0  0  0  0  0  0  0  0  0  0
   24.9965  -20.0887  -14.5861 C   0  0  2  0  0  0  0  0  0  0  0  0
   24.2749  -20.7889  -13.5833 N   0  0  0  0  0  0  0  0  0  0  0  0
   24.1438  -20.0696  -15.8327 C   0  0  0  0  0  0  0  0  0  0  0  0
   24.5958  -19.5530  -16.8883 O   0  0  0  0  0  0  0  0  0  0  0  0
   22.8449  -20.6319  -15.8046 N   0  0  0  0  0  0  0  0  0  0  0  0
   21.9423  -20.5490  -16.9678 C   0  0  1  0  0  0  0  0  0  0  0  0
   21.7204  -19.0955  -17.2050 C   0  0  0  0  0  0  0  0  0  0  0  0
   20.8604  -18.8790  -18.4126 C   0  0  0  0  0  0  0  0  0  0  0  0
   20.4673  -17.4363  -18.5147 C   0  0  0  0  0  0  0  0  0  0  0  0
   19.6381  -17.1905  -19.7408 C   0  0  0  0  0  0  0  0  0  0  0  0
   19.2633  -15.7836  -19.7385 N   0  0  0  0  0  0  0  0  0  0  0  0
   22.5443  -21.3173  -18.0575 C   0  0  0  0  0  0  0  0  0  0  0  0
   23.8207  -21.8248  -17.9434 O   0  0  0  0  0  0  0  0  0  0  0  0
   21.9263  -21.5374  -19.1153 O   0  0  0  0  0  0  0  0  0  0  0  0
  2  1  1  0
  3  2  2  0
  4  3  1  0
  5 11  1  0
  5  4  2  0
  6  5  1  0
  7  6  1  0
  7  8  1  1
  9  7  1  0
  9 10  2  0
 11 12  2  0
 12  2  1  0
 14 16  1  0
 14 13  1  6
 15 14  1  0
 17 16  1  6
 17 18  1  0
 18  9  1  0
 19 17  1  0
 20 19  2  0
 21 19  1  0
 22 21  1  0
 22 28  1  0
 22 23  1  6
 24 23  1  0
 25 24  1  0
 26 27  1  0
 26 25  1  0
 28 30  2  0
 28 29  1  0
M  END
$$$$
