YLK.pdb
     RDKit          3D

 30 30  0  0  1  0  0  0  0  0999 V2000
   22.7173  -20.3175   -8.6266 O   0  0  0  0  0  0  0  0  0  0  0  0
   23.5210  -20.4552   -9.7606 C   0  0  0  0  0  0  0  0  0  0  0  0
   23.1156  -20.0125  -10.9990 C   0  0  0  0  0  0  0  0  0  0  0  0
   23.9411  -20.1690  -12.0906 C   0  0  0  0  0  0  0  0  0  0  0  0
   25.1775  -20.7679  -11.9578 C   0  0  0  0  0  0  0  0  0  0  0  0
   26.0228  -20.9121  -13.1533 C   0  0  0  0  0  0  0  0  0  0  0  0
   25.4153  -21.7872  -14.2073 C   0  0  2  0  0  0  0  0  0  0  0  0
   24.6453  -22.8749  -13.6887 N   0  0  0  0  0  0  0  0  0  0  0  0
   26.4625  -22.2153  -15.1610 C   0  0  0  0  0  0  0  0  0  0  0  0
   27.2428  -21.3353  -15.6060 O   0  0  0  0  0  0  0  0  0  0  0  0
   25.5985  -21.2172  -10.7224 C   0  0  0  0  0  0  0  0  0  0  0  0
   24.7581  -21.0515   -9.6420 C   0  0  0  0  0  0  0  0  0  0  0  0
   29.5993  -27.1332  -17.0449 C   0  0  0  0  0  0  0  0  0  0  0  0
   29.3417  -25.6305  -17.2478 C   0  0  2  0  0  0  0  0  0  0  0  0
   30.5858  -24.9478  -16.6741 C   0  0  0  0  0  0  0  0  0  0  0  0
   28.1158  -25.3065  -16.4753 C   0  0  0  0  0  0  0  0  0  0  0  0
   27.7113  -23.8768  -16.4599 C   0  0  2  0  0  0  0  0  0  0  0  0
   26.6341  -23.5443  -15.5962 N   0  0  0  0  0  0  0  0  0  0  0  0
   27.2914  -23.5278  -17.8682 C   0  0  0  0  0  0  0  0  0  0  0  0
   26.1660  -23.9008  -18.2928 O   0  0  0  0  0  0  0  0  0  0  0  0
   28.1648  -22.7854  -18.6987 N   0  0  0  0  0  0  0  0  0  0  0  0
   27.7745  -22.3780  -20.0612 C   0  0  1  0  0  0  0  0  0  0  0  0
   27.1944  -21.0130  -19.9247 C   0  0  0  0  0  0  0  0  0  0  0  0
   26.8423  -20.4483  -21.2672 C   0  0  0  0  0  0  0  0  0  0  0  0
   26.2440  -19.0828  -21.1122 C   0  0  0  0  0  0  0  0  0  0  0  0
   25.8709  -18.5049  -22.4457 C   0  0  0  0  0  0  0  0  0  0  0  0
   25.1369  -17.2725  -22.1964 N   0  0  0  0  0  0  0  0  0  0  0  0
   28.9469  -22.5201  -20.9244 C   0  0  0  0  0  0  0  0  0  0  0  0
   28.8059  -22.7177  -22.2812 O   0  0  0  0  0  0  0  0  0  0  0  0
   30.1022  -22.4657  -20.4644 O   0  0  0  0  0  0  0  0  0  0  0  0
  2  1  1  0
  3  2  2  0
  4  3  1  0
  5 11  1  0
  5  4  2  0
  6  5  1  0
  7  6  1  0
  7  8  1  1
  9  7  1  0
  9 10  2  0
 11 12  2  0
 12  2  1  0
 14 16  1  0
 14 13  1  1
 15 14  1  0
 17 16  1  6
 17 18  1  0
 18  9  1  0
 19 17  1  0
 20 19  2  0
 21 19  1  0
 22 21  1  0
 22 28  1  0
 22 23  1  1
 24 23  1  0
 25 24  1  0
 26 27  1  0
 26 25  1  0
 28 30  2  0
 28 29  1  0
M  END
$$$$
