YLK.pdb
     RDKit          3D

 30 30  0  0  1  0  0  0  0  0999 V2000
   19.1320  -15.8391  -17.1780 O   0  0  0  0  0  0  0  0  0  0  0  0
   19.3827  -16.8089  -16.2047 C   0  0  0  0  0  0  0  0  0  0  0  0
   19.1523  -18.1465  -16.4325 C   0  0  0  0  0  0  0  0  0  0  0  0
   19.4140  -19.0688  -15.4435 C   0  0  0  0  0  0  0  0  0  0  0  0
   19.9076  -18.6666  -14.2189 C   0  0  0  0  0  0  0  0  0  0  0  0
   20.1712  -19.6895  -13.1948 C   0  0  0  0  0  0  0  0  0  0  0  0
   21.6308  -19.9571  -12.9857 C   0  0  2  0  0  0  0  0  0  0  0  0
   22.3099  -20.4277  -14.1528 N   0  0  0  0  0  0  0  0  0  0  0  0
   21.8104  -20.8378  -11.8103 C   0  0  0  0  0  0  0  0  0  0  0  0
   21.7208  -22.0791  -11.9909 O   0  0  0  0  0  0  0  0  0  0  0  0
   20.1439  -17.3287  -13.9748 C   0  0  0  0  0  0  0  0  0  0  0  0
   19.8757  -16.4209  -14.9773 C   0  0  0  0  0  0  0  0  0  0  0  0
   25.3185  -20.2962   -7.4367 C   0  0  0  0  0  0  0  0  0  0  0  0
   24.5481  -21.2514   -8.3638 C   0  0  2  0  0  0  0  0  0  0  0  0
   25.1821  -21.0425   -9.7412 C   0  0  0  0  0  0  0  0  0  0  0  0
   23.1283  -20.8184   -8.3268 C   0  0  0  0  0  0  0  0  0  0  0  0
   22.2715  -21.2892   -9.4458 C   0  0  2  0  0  0  0  0  0  0  0  0
   22.0743  -20.3680  -10.5085 N   0  0  0  0  0  0  0  0  0  0  0  0
   20.9168  -21.6016   -8.8555 C   0  0  0  0  0  0  0  0  0  0  0  0
   20.0854  -20.6724   -8.6791 O   0  0  0  0  0  0  0  0  0  0  0  0
   20.5927  -22.9344   -8.5055 N   0  0  0  0  0  0  0  0  0  0  0  0
   19.2828  -23.2837   -7.9254 C   0  0  1  0  0  0  0  0  0  0  0  0
   18.9190  -24.6031   -8.5128 C   0  0  0  0  0  0  0  0  0  0  0  0
   17.6080  -25.0837   -7.9696 C   0  0  0  0  0  0  0  0  0  0  0  0
   17.2640  -26.4191   -8.5568 C   0  0  0  0  0  0  0  0  0  0  0  0
   15.9351  -26.9012   -8.0542 C   0  0  0  0  0  0  0  0  0  0  0  0
   15.6624  -28.1779   -8.6989 N   0  0  0  0  0  0  0  0  0  0  0  0
   19.4048  -23.2139   -6.4693 C   0  0  0  0  0  0  0  0  0  0  0  0
   18.2847  -23.1569   -5.6681 O   0  0  0  0  0  0  0  0  0  0  0  0
   20.5170  -23.2055   -5.9107 O   0  0  0  0  0  0  0  0  0  0  0  0
  2  1  1  0
  3  2  2  0
  4  3  1  0
  5 11  1  0
  5  4  2  0
  6  5  1  0
  7  6  1  0
  7  8  1  6
  9  7  1  0
  9 10  2  0
 11 12  2  0
 12  2  1  0
 14 16  1  0
 14 13  1  1
 15 14  1  0
 17 16  1  1
 17 18  1  0
 18  9  1  0
 19 17  1  0
 20 19  2  0
 21 19  1  0
 22 21  1  0
 22 28  1  0
 22 23  1  1
 24 23  1  0
 25 24  1  0
 26 27  1  0
 26 25  1  0
 28 30  2  0
 28 29  1  0
M  END
$$$$
