YLK.pdb
     RDKit          3D

 30 30  0  0  1  0  0  0  0  0999 V2000
   17.9396  -22.5473  -10.7627 O   0  0  0  0  0  0  0  0  0  0  0  0
   17.7566  -23.1700   -9.5260 C   0  0  0  0  0  0  0  0  0  0  0  0
   18.8179  -23.6005   -8.7628 C   0  0  0  0  0  0  0  0  0  0  0  0
   18.5908  -24.2099   -7.5486 C   0  0  0  0  0  0  0  0  0  0  0  0
   17.3044  -24.3957   -7.0842 C   0  0  0  0  0  0  0  0  0  0  0  0
   17.1135  -25.0517   -5.7812 C   0  0  0  0  0  0  0  0  0  0  0  0
   17.7406  -26.4105   -5.7035 C   0  0  2  0  0  0  0  0  0  0  0  0
   17.3392  -27.2981   -6.7504 N   0  0  0  0  0  0  0  0  0  0  0  0
   17.5383  -26.9740   -4.3504 C   0  0  0  0  0  0  0  0  0  0  0  0
   16.6782  -27.8817   -4.2179 O   0  0  0  0  0  0  0  0  0  0  0  0
   16.2294  -23.9696   -7.8378 C   0  0  0  0  0  0  0  0  0  0  0  0
   16.4771  -23.3618   -9.0503 C   0  0  0  0  0  0  0  0  0  0  0  0
   19.0658  -30.0703   -1.7727 C   0  0  0  0  0  0  0  0  0  0  0  0
   19.9464  -28.8212   -1.9451 C   0  0  2  0  0  0  0  0  0  0  0  0
   21.2604  -29.1795   -1.2467 C   0  0  0  0  0  0  0  0  0  0  0  0
   19.2343  -27.7085   -1.2671 C   0  0  0  0  0  0  0  0  0  0  0  0
   18.0264  -27.1878   -1.9580 C   0  0  2  0  0  0  0  0  0  0  0  0
   18.2499  -26.5540   -3.2092 N   0  0  0  0  0  0  0  0  0  0  0  0
   17.4024  -26.1679   -1.0350 C   0  0  0  0  0  0  0  0  0  0  0  0
   17.8988  -25.0133   -0.9565 O   0  0  0  0  0  0  0  0  0  0  0  0
   16.2662  -26.5174   -0.2664 N   0  0  0  0  0  0  0  0  0  0  0  0
   15.6385  -25.5602    0.6633 C   0  0  1  0  0  0  0  0  0  0  0  0
   14.1723  -25.6655    0.4235 C   0  0  0  0  0  0  0  0  0  0  0  0
   13.6663  -24.4629   -0.3130 C   0  0  0  0  0  0  0  0  0  0  0  0
   12.2227  -24.6467   -0.6719 C   0  0  0  0  0  0  0  0  0  0  0  0
   11.7248  -23.5001   -1.5017 C   0  0  0  0  0  0  0  0  0  0  0  0
   10.3216  -23.7528   -1.7967 N   0  0  0  0  0  0  0  0  0  0  0  0
   16.1166  -25.8660    2.0115 C   0  0  0  0  0  0  0  0  0  0  0  0
   16.2051  -24.8802    2.9707 O   0  0  0  0  0  0  0  0  0  0  0  0
   16.4550  -27.0195    2.3342 O   0  0  0  0  0  0  0  0  0  0  0  0
  2  1  1  0
  3  2  2  0
  4  3  1  0
  5 11  1  0
  5  4  2  0
  6  5  1  0
  7  6  1  0
  7  8  1  6
  9  7  1  0
  9 10  2  0
 11 12  2  0
 12  2  1  0
 14 16  1  0
 14 13  1  1
 15 14  1  0
 17 16  1  1
 17 18  1  0
 18  9  1  0
 19 17  1  0
 20 19  2  0
 21 19  1  0
 22 21  1  0
 22 28  1  0
 22 23  1  1
 24 23  1  0
 25 24  1  0
 26 27  1  0
 26 25  1  0
 28 30  2  0
 28 29  1  0
M  END
$$$$
