YLK.pdb
     RDKit          3D

 30 30  0  0  1  0  0  0  0  0999 V2000
   29.0084  -13.6294  -18.0375 O   0  0  0  0  0  0  0  0  0  0  0  0
   28.2976  -14.6635  -17.4245 C   0  0  0  0  0  0  0  0  0  0  0  0
   27.9149  -15.7924  -18.1126 C   0  0  0  0  0  0  0  0  0  0  0  0
   27.2148  -16.7879  -17.4677 C   0  0  0  0  0  0  0  0  0  0  0  0
   26.8897  -16.6675  -16.1317 C   0  0  0  0  0  0  0  0  0  0  0  0
   26.1409  -17.7579  -15.4876 C   0  0  0  0  0  0  0  0  0  0  0  0
   26.9938  -18.9415  -15.1447 C   0  0  2  0  0  0  0  0  0  0  0  0
   27.5052  -19.6402  -16.2827 N   0  0  0  0  0  0  0  0  0  0  0  0
   26.2690  -19.8180  -14.1983 C   0  0  0  0  0  0  0  0  0  0  0  0
   25.8534  -20.9245  -14.6275 O   0  0  0  0  0  0  0  0  0  0  0  0
   27.2662  -15.5416  -15.4277 C   0  0  0  0  0  0  0  0  0  0  0  0
   27.9664  -14.5561  -16.0908 C   0  0  0  0  0  0  0  0  0  0  0  0
   25.5012  -20.9035   -8.2124 C   0  0  0  0  0  0  0  0  0  0  0  0
   25.0251  -21.2435   -9.6347 C   0  0  2  0  0  0  0  0  0  0  0  0
   25.4409  -22.7023   -9.8394 C   0  0  0  0  0  0  0  0  0  0  0  0
   25.7428  -20.3204  -10.5498 C   0  0  0  0  0  0  0  0  0  0  0  0
   25.3954  -20.4265  -11.9906 C   0  0  2  0  0  0  0  0  0  0  0  0
   26.0195  -19.4856  -12.8520 N   0  0  0  0  0  0  0  0  0  0  0  0
   23.9027  -20.2206  -12.0949 C   0  0  0  0  0  0  0  0  0  0  0  0
   23.3520  -19.3072  -11.4255 O   0  0  0  0  0  0  0  0  0  0  0  0
   23.1355  -21.0548  -12.9431 N   0  0  0  0  0  0  0  0  0  0  0  0
   21.6953  -20.8221  -13.1580 C   0  0  1  0  0  0  0  0  0  0  0  0
   21.4748  -20.9758  -14.6229 C   0  0  0  0  0  0  0  0  0  0  0  0
   20.0247  -20.8116  -14.9624 C   0  0  0  0  0  0  0  0  0  0  0  0
   19.8023  -21.0780  -16.4206 C   0  0  0  0  0  0  0  0  0  0  0  0
   18.3613  -20.8818  -16.7892 C   0  0  0  0  0  0  0  0  0  0  0  0
   18.2483  -21.0812  -18.2270 N   0  0  0  0  0  0  0  0  0  0  0  0
   20.9588  -21.7266  -12.2751 C   0  0  0  0  0  0  0  0  0  0  0  0
   21.2623  -23.0702  -12.2274 O   0  0  0  0  0  0  0  0  0  0  0  0
   20.0414  -21.3141  -11.5420 O   0  0  0  0  0  0  0  0  0  0  0  0
  2  1  1  0
  3  2  2  0
  4  3  1  0
  5 11  1  0
  5  4  2  0
  6  5  1  0
  7  6  1  0
  7  8  1  6
  9  7  1  0
  9 10  2  0
 11 12  2  0
 12  2  1  0
 14 16  1  0
 14 13  1  1
 15 14  1  0
 17 16  1  1
 17 18  1  0
 18  9  1  0
 19 17  1  0
 20 19  2  0
 21 19  1  0
 22 21  1  0
 22 28  1  0
 22 23  1  6
 24 23  1  0
 25 24  1  0
 26 27  1  0
 26 25  1  0
 28 30  2  0
 28 29  1  0
M  END
$$$$
