CES.pdb
     RDKit          3D

 22 21  0  0  1  0  0  0  0  0999 V2000
    7.5905  -14.3970   16.8826 N   0  0  0  0  0  0  0  0  0  0  0  0
    8.4754  -13.9304   17.9000 C   0  0  1  0  0  0  0  0  0  0  0  0
    7.8392  -12.8633   18.7638 C   0  0  0  0  0  0  0  0  0  0  0  0
    9.0376  -12.3376   20.0248 S   0  0  0  0  0  0  0  0  0  0  0  0
    8.9965  -15.0429   18.7284 C   0  0  0  0  0  0  0  0  0  0  0  0
    8.1966  -15.9285   19.1006 O   0  0  0  0  0  0  0  0  0  0  0  0
   10.3641  -15.1091   19.0938 N   0  0  0  0  0  0  0  0  0  0  0  0
   10.9010  -16.1815   19.9468 C   0  0  1  0  0  0  0  0  0  0  0  0
   12.2308  -16.6490   19.4354 C   0  0  0  0  0  0  0  0  0  0  0  0
   12.8218  -17.8153   20.1352 C   0  0  0  0  0  0  0  0  0  0  0  0
   14.1342  -18.1628   19.5010 C   0  0  0  0  0  0  0  0  0  0  0  0
   14.5407  -17.5072   18.5098 O   0  0  0  0  0  0  0  0  0  0  0  0
   10.8843  -15.7817   21.3681 C   0  0  0  0  0  0  0  0  0  0  0  0
   11.3143  -14.6595   21.7307 O   0  0  0  0  0  0  0  0  0  0  0  0
   14.9466  -19.1911   19.9550 O   0  0  0  0  0  0  0  0  0  0  0  0
    8.1445  -15.1873   23.5646 O   0  0  0  0  0  0  0  0  0  0  0  0
    8.9090  -16.0615   24.3006 C   0  0  0  0  0  0  0  0  0  0  0  0
   10.3290  -16.1894   23.7974 C   0  0  2  0  0  0  0  0  0  0  0  0
   10.3941  -16.6083   22.4199 N   0  0  0  0  0  0  0  0  0  0  0  0
   11.0212  -17.1596   24.6821 C   0  0  0  0  0  0  0  0  0  0  0  0
   11.0713  -16.9055   25.9066 O   0  0  0  0  0  0  0  0  0  0  0  0
   11.5950  -18.3047   24.1946 O   0  0  0  0  0  0  0  0  0  0  0  0
  2  1  1  6
  2  3  1  0
  3  4  1  0
  5  2  1  0
  5  7  1  0
  6  5  2  0
  8  7  1  0
  8 13  1  0
  8  9  1  6
 10  9  1  0
 10 11  1  0
 11 15  1  0
 11 12  2  0
 13 14  2  0
 13 19  1  0
 16 17  1  0
 18 17  1  1
 18 20  1  0
 19 18  1  0
 20 22  1  0
 21 20  2  0
M  END
$$$$
