CES.pdb
     RDKit          3D

 22 21  0  0  1  0  0  0  0  0999 V2000
   10.8329  -18.2354   20.3091 N   0  0  0  0  0  0  0  0  0  0  0  0
   11.7860  -19.0771   20.9564 C   0  0  1  0  0  0  0  0  0  0  0  0
   12.6172  -19.8639   19.9667 C   0  0  0  0  0  0  0  0  0  0  0  0
   11.5024  -20.7372   18.8276 S   0  0  0  0  0  0  0  0  0  0  0  0
   12.6503  -18.3148   21.8877 C   0  0  0  0  0  0  0  0  0  0  0  0
   12.8672  -17.1087   21.6405 O   0  0  0  0  0  0  0  0  0  0  0  0
   13.2201  -18.9286   23.0308 N   0  0  0  0  0  0  0  0  0  0  0  0
   14.0085  -18.1756   24.0193 C   0  0  1  0  0  0  0  0  0  0  0  0
   13.9198  -18.8209   25.3698 C   0  0  0  0  0  0  0  0  0  0  0  0
   12.5859  -18.7908   26.0173 C   0  0  0  0  0  0  0  0  0  0  0  0
   12.6309  -19.5876   27.2855 C   0  0  0  0  0  0  0  0  0  0  0  0
   13.6897  -20.1784   27.6134 O   0  0  0  0  0  0  0  0  0  0  0  0
   15.3813  -17.9403   23.5288 C   0  0  0  0  0  0  0  0  0  0  0  0
   16.0055  -18.8287   22.8989 O   0  0  0  0  0  0  0  0  0  0  0  0
   11.5457  -19.7142   28.1399 O   0  0  0  0  0  0  0  0  0  0  0  0
   18.5956  -14.8853   21.7417 O   0  0  0  0  0  0  0  0  0  0  0  0
   17.3999  -15.1345   22.3729 C   0  0  0  0  0  0  0  0  0  0  0  0
   17.3770  -16.4479   23.1215 C   0  0  2  0  0  0  0  0  0  0  0  0
   16.0956  -16.7228   23.7212 N   0  0  0  0  0  0  0  0  0  0  0  0
   18.4439  -16.3836   24.1512 C   0  0  0  0  0  0  0  0  0  0  0  0
   18.0986  -16.3617   25.3541 O   0  0  0  0  0  0  0  0  0  0  0  0
   19.7728  -16.3483   23.8180 O   0  0  0  0  0  0  0  0  0  0  0  0
  2  1  1  6
  2  3  1  0
  3  4  1  0
  5  2  1  0
  5  7  1  0
  6  5  2  0
  8  7  1  0
  8 13  1  0
  8  9  1  1
 10  9  1  0
 10 11  1  0
 11 15  1  0
 11 12  2  0
 13 14  2  0
 13 19  1  0
 16 17  1  0
 18 17  1  1
 18 20  1  0
 19 18  1  0
 20 22  1  0
 21 20  2  0
M  END
$$$$
