CES.pdb
     RDKit          3D

 22 21  0  0  1  0  0  0  0  0999 V2000
    5.2950  -12.6072   26.3280 N   0  0  0  0  0  0  0  0  0  0  0  0
    6.4239  -12.7626   25.4693 C   0  0  1  0  0  0  0  0  0  0  0  0
    7.6153  -11.9586   25.9424 C   0  0  0  0  0  0  0  0  0  0  0  0
    8.0795  -12.5216   27.6069 S   0  0  0  0  0  0  0  0  0  0  0  0
    6.7843  -14.1881   25.2869 C   0  0  0  0  0  0  0  0  0  0  0  0
    6.4394  -15.0032   26.1698 O   0  0  0  0  0  0  0  0  0  0  0  0
    7.5009  -14.6249   24.1450 N   0  0  0  0  0  0  0  0  0  0  0  0
    7.9468  -16.0176   23.9793 C   0  0  1  0  0  0  0  0  0  0  0  0
    8.3450  -16.2804   22.5578 C   0  0  0  0  0  0  0  0  0  0  0  0
    9.4411  -15.4360   22.0240 C   0  0  0  0  0  0  0  0  0  0  0  0
    9.6769  -15.7791   20.5846 C   0  0  0  0  0  0  0  0  0  0  0  0
   10.0450  -16.9386   20.2722 O   0  0  0  0  0  0  0  0  0  0  0  0
    8.9669  -16.3671   24.9881 C   0  0  0  0  0  0  0  0  0  0  0  0
    9.7801  -15.5097   25.4114 O   0  0  0  0  0  0  0  0  0  0  0  0
    9.5085  -14.8695   19.5512 O   0  0  0  0  0  0  0  0  0  0  0  0
    8.4545  -19.1501   27.8613 O   0  0  0  0  0  0  0  0  0  0  0  0
    9.5198  -18.2816   27.8969 C   0  0  0  0  0  0  0  0  0  0  0  0
   10.1131  -18.0010   26.5349 C   0  0  2  0  0  0  0  0  0  0  0  0
    9.1133  -17.6672   25.5520 N   0  0  0  0  0  0  0  0  0  0  0  0
   10.8738  -19.2098   26.1312 C   0  0  0  0  0  0  0  0  0  0  0  0
   10.5468  -19.7812   25.0667 O   0  0  0  0  0  0  0  0  0  0  0  0
   11.9063  -19.7028   26.8856 O   0  0  0  0  0  0  0  0  0  0  0  0
  2  1  1  1
  2  3  1  0
  3  4  1  0
  5  2  1  0
  5  7  1  0
  6  5  2  0
  8  7  1  0
  8 13  1  0
  8  9  1  6
 10  9  1  0
 10 11  1  0
 11 15  1  0
 11 12  2  0
 13 14  2  0
 13 19  1  0
 16 17  1  0
 18 17  1  1
 18 20  1  0
 19 18  1  0
 20 22  1  0
 21 20  2  0
M  END
$$$$
