CES.pdb
     RDKit          3D

 22 21  0  0  1  0  0  0  0  0999 V2000
    7.3825  -16.1388   18.4645 N   0  0  0  0  0  0  0  0  0  0  0  0
    8.0665  -15.3284   19.4191 C   0  0  1  0  0  0  0  0  0  0  0  0
    7.1804  -14.2380   19.9808 C   0  0  0  0  0  0  0  0  0  0  0  0
    8.1597  -13.2144   21.1193 S   0  0  0  0  0  0  0  0  0  0  0  0
    8.6610  -16.1415   20.5057 C   0  0  0  0  0  0  0  0  0  0  0  0
    7.9400  -16.9926   21.0701 O   0  0  0  0  0  0  0  0  0  0  0  0
   10.0105  -15.9659   20.9011 N   0  0  0  0  0  0  0  0  0  0  0  0
   10.6163  -16.7347   22.0000 C   0  0  1  0  0  0  0  0  0  0  0  0
   12.0939  -16.8815   21.7918 C   0  0  0  0  0  0  0  0  0  0  0  0
   12.5073  -17.7634   20.6733 C   0  0  0  0  0  0  0  0  0  0  0  0
   13.9983  -17.7196   20.5309 C   0  0  0  0  0  0  0  0  0  0  0  0
   14.5265  -16.8828   19.7575 O   0  0  0  0  0  0  0  0  0  0  0  0
   10.2227  -16.1793   23.3104 C   0  0  0  0  0  0  0  0  0  0  0  0
   10.4044  -14.9673   23.5815 O   0  0  0  0  0  0  0  0  0  0  0  0
   14.8507  -18.5696   21.2199 O   0  0  0  0  0  0  0  0  0  0  0  0
    6.9865  -17.1915   25.3860 O   0  0  0  0  0  0  0  0  0  0  0  0
    7.7726  -16.1220   25.7446 C   0  0  0  0  0  0  0  0  0  0  0  0
    9.2545  -16.4000   25.6320 C   0  0  2  0  0  0  0  0  0  0  0  0
    9.6210  -16.9460   24.3495 N   0  0  0  0  0  0  0  0  0  0  0  0
    9.6093  -17.3342   26.7294 C   0  0  0  0  0  0  0  0  0  0  0  0
   10.0446  -18.4660   26.4194 O   0  0  0  0  0  0  0  0  0  0  0  0
    9.4726  -16.9891   28.0486 O   0  0  0  0  0  0  0  0  0  0  0  0
  2  1  1  6
  2  3  1  0
  3  4  1  0
  5  2  1  0
  5  7  1  0
  6  5  2  0
  8  7  1  0
  8 13  1  0
  8  9  1  6
 10  9  1  0
 10 11  1  0
 11 15  1  0
 11 12  2  0
 13 14  2  0
 13 19  1  0
 16 17  1  0
 18 17  1  6
 18 20  1  0
 19 18  1  0
 20 22  1  0
 21 20  2  0
M  END
$$$$
