CES.pdb
     RDKit          3D

 22 21  0  0  1  0  0  0  0  0999 V2000
    8.2681  -14.7378   17.6234 N   0  0  0  0  0  0  0  0  0  0  0  0
    9.2014  -14.0202   18.4296 C   0  0  1  0  0  0  0  0  0  0  0  0
    8.5282  -13.3006   19.5779 C   0  0  0  0  0  0  0  0  0  0  0  0
    7.3601  -12.0828   18.9032 S   0  0  0  0  0  0  0  0  0  0  0  0
   10.2929  -14.8950   18.9182 C   0  0  0  0  0  0  0  0  0  0  0  0
   10.0326  -16.0971   19.1415 O   0  0  0  0  0  0  0  0  0  0  0  0
   11.6003  -14.3906   19.1296 N   0  0  0  0  0  0  0  0  0  0  0  0
   12.6908  -15.2249   19.6593 C   0  0  1  0  0  0  0  0  0  0  0  0
   14.0090  -14.8010   19.0839 C   0  0  0  0  0  0  0  0  0  0  0  0
   14.1757  -15.0045   17.6243 C   0  0  0  0  0  0  0  0  0  0  0  0
   15.5523  -14.5755   17.2168 C   0  0  0  0  0  0  0  0  0  0  0  0
   15.9112  -13.3844   17.3901 O   0  0  0  0  0  0  0  0  0  0  0  0
   12.6423  -15.2804   21.1340 C   0  0  0  0  0  0  0  0  0  0  0  0
   13.1761  -14.3856   21.8341 O   0  0  0  0  0  0  0  0  0  0  0  0
   16.4766  -15.4374   16.6453 O   0  0  0  0  0  0  0  0  0  0  0  0
    9.7464  -17.3478   23.1670 O   0  0  0  0  0  0  0  0  0  0  0  0
   10.5266  -16.4296   23.8293 C   0  0  0  0  0  0  0  0  0  0  0  0
   11.9442  -16.3575   23.3085 C   0  0  2  0  0  0  0  0  0  0  0  0
   12.0056  -16.3215   21.8690 N   0  0  0  0  0  0  0  0  0  0  0  0
   12.6675  -17.5383   23.8429 C   0  0  0  0  0  0  0  0  0  0  0  0
   12.6888  -17.7020   25.0835 O   0  0  0  0  0  0  0  0  0  0  0  0
   13.2997  -18.4347   23.0214 O   0  0  0  0  0  0  0  0  0  0  0  0
  2  1  1  1
  2  3  1  0
  3  4  1  0
  5  2  1  0
  5  7  1  0
  6  5  2  0
  8  7  1  0
  8 13  1  0
  8  9  1  1
 10  9  1  0
 10 11  1  0
 11 15  1  0
 11 12  2  0
 13 14  2  0
 13 19  1  0
 16 17  1  0
 18 17  1  6
 18 20  1  0
 19 18  1  0
 20 22  1  0
 21 20  2  0
M  END
$$$$
