CES.pdb
     RDKit          3D

 22 21  0  0  1  0  0  0  0  0999 V2000
    6.3800  -15.1574   19.8784 N   0  0  0  0  0  0  0  0  0  0  0  0
    7.7868  -14.9874   20.0461 C   0  0  1  0  0  0  0  0  0  0  0  0
    8.1837  -13.5279   20.0894 C   0  0  0  0  0  0  0  0  0  0  0  0
    7.4640  -12.7679   21.5751 S   0  0  0  0  0  0  0  0  0  0  0  0
    8.2900  -15.7099   21.2377 C   0  0  0  0  0  0  0  0  0  0  0  0
    7.4915  -15.9386   22.1720 O   0  0  0  0  0  0  0  0  0  0  0  0
    9.6393  -16.1342   21.3245 N   0  0  0  0  0  0  0  0  0  0  0  0
   10.1956  -16.7490   22.5405 C   0  0  1  0  0  0  0  0  0  0  0  0
   11.4661  -17.4820   22.2294 C   0  0  0  0  0  0  0  0  0  0  0  0
   12.1847  -18.0577   23.3920 C   0  0  0  0  0  0  0  0  0  0  0  0
   13.4038  -18.7850   22.9123 C   0  0  0  0  0  0  0  0  0  0  0  0
   14.4563  -18.7571   23.5971 O   0  0  0  0  0  0  0  0  0  0  0  0
   10.2971  -15.7591   23.6315 C   0  0  0  0  0  0  0  0  0  0  0  0
   10.9396  -14.6915   23.4802 O   0  0  0  0  0  0  0  0  0  0  0  0
   13.4396  -19.5050   21.7274 O   0  0  0  0  0  0  0  0  0  0  0  0
    7.4478  -14.8234   26.2557 O   0  0  0  0  0  0  0  0  0  0  0  0
    8.6199  -14.1092   26.1751 C   0  0  0  0  0  0  0  0  0  0  0  0
    9.8428  -14.9787   25.9896 C   0  0  2  0  0  0  0  0  0  0  0  0
    9.6937  -15.9236   24.9116 N   0  0  0  0  0  0  0  0  0  0  0  0
   10.0847  -15.6747   27.2780 C   0  0  0  0  0  0  0  0  0  0  0  0
   10.0411  -16.9255   27.2869 O   0  0  0  0  0  0  0  0  0  0  0  0
   10.3493  -14.9889   28.4346 O   0  0  0  0  0  0  0  0  0  0  0  0
  2  1  1  1
  2  3  1  0
  3  4  1  0
  5  2  1  0
  5  7  1  0
  6  5  2  0
  8  7  1  0
  8 13  1  0
  8  9  1  6
 10  9  1  0
 10 11  1  0
 11 15  1  0
 11 12  2  0
 13 14  2  0
 13 19  1  0
 16 17  1  0
 18 17  1  1
 18 20  1  0
 19 18  1  0
 20 22  1  0
 21 20  2  0
M  END
$$$$
