CES.pdb
     RDKit          3D

 22 21  0  0  1  0  0  0  0  0999 V2000
    7.5847  -14.2050   17.8340 N   0  0  0  0  0  0  0  0  0  0  0  0
    8.6558  -13.4568   18.4074 C   0  0  1  0  0  0  0  0  0  0  0  0
    8.1591  -12.3650   19.3299 C   0  0  0  0  0  0  0  0  0  0  0  0
    7.2326  -13.1269   20.6952 S   0  0  0  0  0  0  0  0  0  0  0  0
    9.6306  -14.3328   19.0984 C   0  0  0  0  0  0  0  0  0  0  0  0
    9.2236  -15.4194   19.5637 O   0  0  0  0  0  0  0  0  0  0  0  0
   10.9903  -13.9569   19.2329 N   0  0  0  0  0  0  0  0  0  0  0  0
   11.9886  -14.8262   19.8760 C   0  0  1  0  0  0  0  0  0  0  0  0
   13.3783  -14.3594   19.5614 C   0  0  0  0  0  0  0  0  0  0  0  0
   14.4804  -15.2028   20.0843 C   0  0  0  0  0  0  0  0  0  0  0  0
   15.7955  -14.6040   19.6879 C   0  0  0  0  0  0  0  0  0  0  0  0
   16.5328  -14.0843   20.5619 O   0  0  0  0  0  0  0  0  0  0  0  0
   11.6956  -14.9897   21.3140 C   0  0  0  0  0  0  0  0  0  0  0  0
   11.3057  -14.0207   22.0102 O   0  0  0  0  0  0  0  0  0  0  0  0
   16.2584  -14.5895   18.3805 O   0  0  0  0  0  0  0  0  0  0  0  0
    9.6381  -17.3029   24.7720 O   0  0  0  0  0  0  0  0  0  0  0  0
   10.0719  -17.1317   23.4786 C   0  0  0  0  0  0  0  0  0  0  0  0
   11.3978  -16.4122   23.3790 C   0  0  2  0  0  0  0  0  0  0  0  0
   11.8255  -16.2227   22.0157 N   0  0  0  0  0  0  0  0  0  0  0  0
   12.3885  -17.2122   24.1415 C   0  0  0  0  0  0  0  0  0  0  0  0
   12.1464  -17.4540   25.3454 O   0  0  0  0  0  0  0  0  0  0  0  0
   13.5398  -17.6819   23.5651 O   0  0  0  0  0  0  0  0  0  0  0  0
  2  1  1  1
  2  3  1  0
  3  4  1  0
  5  2  1  0
  5  7  1  0
  6  5  2  0
  8  7  1  0
  8 13  1  0
  8  9  1  1
 10  9  1  0
 10 11  1  0
 11 15  1  0
 11 12  2  0
 13 14  2  0
 13 19  1  0
 16 17  1  0
 18 17  1  6
 18 20  1  0
 19 18  1  0
 20 22  1  0
 21 20  2  0
M  END
$$$$
