THS.pdb
     RDKit          3D

 24 24  0  0  1  0  0  0  0  0999 V2000
   30.4585  -27.9773  -17.8143 C   0  0  0  0  0  0  0  0  0  0  0  0
   29.6564  -26.7777  -18.2689 C   0  0  1  0  0  0  0  0  0  0  0  0
   28.7411  -27.1072  -19.2428 O   0  0  0  0  0  0  0  0  0  0  0  0
   28.9840  -26.1884  -17.0577 C   0  0  2  0  0  0  0  0  0  0  0  0
   28.0518  -27.1381  -16.5077 N   0  0  0  0  0  0  0  0  0  0  0  0
   28.3361  -24.8799  -17.3477 C   0  0  0  0  0  0  0  0  0  0  0  0
   27.0906  -24.7899  -17.3157 O   0  0  0  0  0  0  0  0  0  0  0  0
   29.1791  -23.7815  -17.6512 N   0  0  0  0  0  0  0  0  0  0  0  0
   28.5883  -22.4577  -17.9397 C   0  0  1  0  0  0  0  0  0  0  0  0
   28.8517  -21.5654  -16.7934 C   0  0  0  0  0  0  0  0  0  0  0  0
   27.7031  -21.2464  -15.9327 C   0  0  0  0  0  0  0  0  0  0  0  0
   26.4070  -21.6489  -15.9998 C   0  0  0  0  0  0  0  0  0  0  0  0
   25.7503  -21.1450  -14.9461 N   0  0  0  0  0  0  0  0  0  0  0  0
   26.6287  -20.4407  -14.2347 C   0  0  0  0  0  0  0  0  0  0  0  0
   27.8292  -20.4836  -14.8107 N   0  0  0  0  0  0  0  0  0  0  0  0
   29.2861  -22.0400  -19.1867 C   0  0  0  0  0  0  0  0  0  0  0  0
   30.4224  -22.4670  -19.4302 O   0  0  0  0  0  0  0  0  0  0  0  0
   27.4449  -20.5790  -22.7017 O   0  0  0  0  0  0  0  0  0  0  0  0
   28.4912  -19.8693  -22.1285 C   0  0  0  0  0  0  0  0  0  0  0  0
   29.3981  -20.7839  -21.3274 C   0  0  2  0  0  0  0  0  0  0  0  0
   28.6604  -21.1496  -20.1100 N   0  0  0  0  0  0  0  0  0  0  0  0
   30.6230  -20.0292  -20.9407 C   0  0  0  0  0  0  0  0  0  0  0  0
   31.7059  -20.2223  -21.5533 O   0  0  0  0  0  0  0  0  0  0  0  0
   30.5397  -19.1197  -19.9011 O   0  0  0  0  0  0  0  0  0  0  0  0
  2  1  1  1
  2  4  1  0
  3  2  1  0
  4  5  1  6
  6  4  1  0
  7  6  2  0
  8  6  1  0
  9  8  1  0
  9 10  1  1
 10 11  1  0
 11 15  1  0
 11 12  2  0
 12 13  1  0
 14 13  1  0
 15 14  2  0
 16  9  1  0
 17 16  2  0
 18 19  1  0
 20 19  1  6
 20 22  1  0
 20 21  1  0
 21 16  1  0
 22 24  1  0
 23 22  2  0
M  END
$$$$
