THS.pdb
     RDKit          3D

 24 24  0  0  1  0  0  0  0  0999 V2000
   24.6949  -10.8607  -15.7705 C   0  0  0  0  0  0  0  0  0  0  0  0
   24.0994  -12.1651  -16.2530 C   0  0  1  0  0  0  0  0  0  0  0  0
   24.8056  -13.2553  -15.7974 O   0  0  0  0  0  0  0  0  0  0  0  0
   22.6640  -12.2105  -15.8011 C   0  0  2  0  0  0  0  0  0  0  0  0
   22.0973  -13.4982  -16.1080 N   0  0  0  0  0  0  0  0  0  0  0  0
   21.8538  -11.0986  -16.3696 C   0  0  0  0  0  0  0  0  0  0  0  0
   21.5614  -11.1091  -17.5840 O   0  0  0  0  0  0  0  0  0  0  0  0
   21.4470  -10.0645  -15.4894 N   0  0  0  0  0  0  0  0  0  0  0  0
   20.6717   -8.9183  -16.0087 C   0  0  1  0  0  0  0  0  0  0  0  0
   19.3223   -8.9539  -15.4110 C   0  0  0  0  0  0  0  0  0  0  0  0
   18.3353   -9.8217  -16.0702 C   0  0  0  0  0  0  0  0  0  0  0  0
   18.4489  -10.6223  -17.1623 C   0  0  0  0  0  0  0  0  0  0  0  0
   17.2899  -11.2721  -17.3355 N   0  0  0  0  0  0  0  0  0  0  0  0
   16.4695  -10.8800  -16.3624 C   0  0  0  0  0  0  0  0  0  0  0  0
   17.0784   -9.9955  -15.5739 N   0  0  0  0  0  0  0  0  0  0  0  0
   21.4776   -7.7423  -15.5797 C   0  0  0  0  0  0  0  0  0  0  0  0
   22.0491   -7.7538  -14.4814 O   0  0  0  0  0  0  0  0  0  0  0  0
   23.4899   -3.5143  -16.8545 O   0  0  0  0  0  0  0  0  0  0  0  0
   22.7018   -4.6087  -17.1832 C   0  0  0  0  0  0  0  0  0  0  0  0
   22.4817   -5.5051  -15.9796 C   0  0  2  0  0  0  0  0  0  0  0  0
   21.6011   -6.5960  -16.4208 N   0  0  0  0  0  0  0  0  0  0  0  0
   21.7870   -4.7240  -14.9180 C   0  0  0  0  0  0  0  0  0  0  0  0
   20.5315   -4.6303  -14.9195 O   0  0  0  0  0  0  0  0  0  0  0  0
   22.5507   -4.1106  -13.9405 O   0  0  0  0  0  0  0  0  0  0  0  0
  2  1  1  1
  2  4  1  0
  3  2  1  0
  4  5  1  6
  6  4  1  0
  7  6  2  0
  8  6  1  0
  9  8  1  0
  9 10  1  1
 10 11  1  0
 11 15  1  0
 11 12  2  0
 12 13  1  0
 14 13  1  0
 15 14  2  0
 16  9  1  0
 17 16  2  0
 18 19  1  0
 20 19  1  6
 20 22  1  0
 20 21  1  0
 21 16  1  0
 22 24  1  0
 23 22  2  0
M  END
$$$$
