THS.pdb
     RDKit          3D

 24 24  0  0  1  0  0  0  0  0999 V2000
   11.0172  -11.7312  -10.7150 C   0  0  0  0  0  0  0  0  0  0  0  0
   12.4352  -11.2827  -10.4374 C   0  0  1  0  0  0  0  0  0  0  0  0
   12.8567  -11.6508   -9.1797 O   0  0  0  0  0  0  0  0  0  0  0  0
   13.3197  -11.8654  -11.5073 C   0  0  2  0  0  0  0  0  0  0  0  0
   13.3397  -13.3008  -11.3942 N   0  0  0  0  0  0  0  0  0  0  0  0
   14.6918  -11.2885  -11.4869 C   0  0  0  0  0  0  0  0  0  0  0  0
   15.6037  -11.8920  -10.8832 O   0  0  0  0  0  0  0  0  0  0  0  0
   14.8995  -10.0613  -12.1654 N   0  0  0  0  0  0  0  0  0  0  0  0
   16.2441   -9.4481  -12.1829 C   0  0  1  0  0  0  0  0  0  0  0  0
   16.7961   -9.5638  -13.5473 C   0  0  0  0  0  0  0  0  0  0  0  0
   17.2541  -10.8989  -13.9588 C   0  0  0  0  0  0  0  0  0  0  0  0
   16.7372  -11.7737  -14.8611 C   0  0  0  0  0  0  0  0  0  0  0  0
   17.5515  -12.8350  -14.9390 N   0  0  0  0  0  0  0  0  0  0  0  0
   18.5606  -12.6196  -14.0969 C   0  0  0  0  0  0  0  0  0  0  0  0
   18.4079  -11.4465  -13.4841 N   0  0  0  0  0  0  0  0  0  0  0  0
   15.9807   -8.0426  -11.7688 C   0  0  0  0  0  0  0  0  0  0  0  0
   15.0607   -7.4056  -12.2987 O   0  0  0  0  0  0  0  0  0  0  0  0
   16.4442   -6.5762   -8.0882 O   0  0  0  0  0  0  0  0  0  0  0  0
   17.0653   -5.7781   -9.0391 C   0  0  0  0  0  0  0  0  0  0  0  0
   16.4831   -6.0181  -10.4189 C   0  0  2  0  0  0  0  0  0  0  0  0
   16.7779   -7.4158  -10.7647 N   0  0  0  0  0  0  0  0  0  0  0  0
   17.1703   -5.1250  -11.3935 C   0  0  0  0  0  0  0  0  0  0  0  0
   18.0158   -5.5969  -12.1981 O   0  0  0  0  0  0  0  0  0  0  0  0
   16.8577   -3.7770  -11.3907 O   0  0  0  0  0  0  0  0  0  0  0  0
  2  1  1  6
  2  4  1  0
  3  2  1  0
  4  5  1  1
  6  4  1  0
  7  6  2  0
  8  6  1  0
  9  8  1  0
  9 10  1  6
 10 11  1  0
 11 15  1  0
 11 12  2  0
 12 13  1  0
 14 13  1  0
 15 14  2  0
 16  9  1  0
 17 16  2  0
 18 19  1  0
 20 19  1  1
 20 22  1  0
 20 21  1  0
 21 16  1  0
 22 24  1  0
 23 22  2  0
M  END
$$$$
