THS.pdb
     RDKit          3D

 24 24  0  0  1  0  0  0  0  0999 V2000
   26.3844  -10.2825  -15.7282 C   0  0  0  0  0  0  0  0  0  0  0  0
   26.2850  -11.4666  -16.6648 C   0  0  1  0  0  0  0  0  0  0  0  0
   27.2007  -12.4472  -16.3568 O   0  0  0  0  0  0  0  0  0  0  0  0
   24.8747  -11.9891  -16.5976 C   0  0  2  0  0  0  0  0  0  0  0  0
   24.7787  -13.2271  -17.3266 N   0  0  0  0  0  0  0  0  0  0  0  0
   23.8756  -10.9904  -17.0671 C   0  0  0  0  0  0  0  0  0  0  0  0
   23.7796  -10.7436  -18.2878 O   0  0  0  0  0  0  0  0  0  0  0  0
   23.0684  -10.3576  -16.0886 N   0  0  0  0  0  0  0  0  0  0  0  0
   22.1343   -9.2837  -16.4872 C   0  0  1  0  0  0  0  0  0  0  0  0
   20.7628   -9.6965  -16.1291 C   0  0  0  0  0  0  0  0  0  0  0  0
   19.7014   -8.7016  -16.3422 C   0  0  0  0  0  0  0  0  0  0  0  0
   19.3872   -7.9624  -17.4382 C   0  0  0  0  0  0  0  0  0  0  0  0
   18.2891   -7.2443  -17.1661 N   0  0  0  0  0  0  0  0  0  0  0  0
   17.9271   -7.5361  -15.9182 C   0  0  0  0  0  0  0  0  0  0  0  0
   18.7689   -8.4227  -15.3888 N   0  0  0  0  0  0  0  0  0  0  0  0
   22.6193   -8.1084  -15.7127 C   0  0  0  0  0  0  0  0  0  0  0  0
   23.1048   -8.2704  -14.5853 O   0  0  0  0  0  0  0  0  0  0  0  0
   23.5274   -3.3456  -15.6287 O   0  0  0  0  0  0  0  0  0  0  0  0
   23.0683   -4.4564  -16.3232 C   0  0  0  0  0  0  0  0  0  0  0  0
   22.9693   -5.6668  -15.4144 C   0  0  2  0  0  0  0  0  0  0  0  0
   22.5319   -6.7908  -16.2541 N   0  0  0  0  0  0  0  0  0  0  0  0
   21.9314   -5.4068  -14.3776 C   0  0  0  0  0  0  0  0  0  0  0  0
   20.7238   -5.6779  -14.6083 O   0  0  0  0  0  0  0  0  0  0  0  0
   22.3261   -4.8651  -13.1670 O   0  0  0  0  0  0  0  0  0  0  0  0
  2  1  1  1
  2  4  1  0
  3  2  1  0
  4  5  1  6
  6  4  1  0
  7  6  2  0
  8  6  1  0
  9  8  1  0
  9 10  1  1
 10 11  1  0
 11 15  1  0
 11 12  2  0
 12 13  1  0
 14 13  1  0
 15 14  2  0
 16  9  1  0
 17 16  2  0
 18 19  1  0
 20 19  1  6
 20 22  1  0
 20 21  1  0
 21 16  1  0
 22 24  1  0
 23 22  2  0
M  END
$$$$
