THS.pdb
     RDKit          3D

 24 24  0  0  1  0  0  0  0  0999 V2000
   19.3799  -10.8385  -18.6329 C   0  0  0  0  0  0  0  0  0  0  0  0
   19.9869  -12.1170  -18.0981 C   0  0  1  0  0  0  0  0  0  0  0  0
   19.7021  -13.1991  -18.8998 O   0  0  0  0  0  0  0  0  0  0  0  0
   21.4715  -11.9024  -17.9693 C   0  0  2  0  0  0  0  0  0  0  0  0
   22.1121  -13.1385  -17.6013 N   0  0  0  0  0  0  0  0  0  0  0  0
   21.8068  -10.8016  -17.0250 C   0  0  0  0  0  0  0  0  0  0  0  0
   21.5782  -10.9464  -15.8055 O   0  0  0  0  0  0  0  0  0  0  0  0
   22.3790   -9.6228  -17.5656 N   0  0  0  0  0  0  0  0  0  0  0  0
   22.6969   -8.4847  -16.6778 C   0  0  1  0  0  0  0  0  0  0  0  0
   24.1140   -8.1186  -16.8714 C   0  0  0  0  0  0  0  0  0  0  0  0
   25.1116   -9.0184  -16.2741 C   0  0  0  0  0  0  0  0  0  0  0  0
   24.9568  -10.1697  -15.5692 C   0  0  0  0  0  0  0  0  0  0  0  0
   26.1705  -10.6673  -15.2956 N   0  0  0  0  0  0  0  0  0  0  0  0
   27.0655   -9.8355  -15.8256 C   0  0  0  0  0  0  0  0  0  0  0  0
   26.4506   -8.8198  -16.4298 N   0  0  0  0  0  0  0  0  0  0  0  0
   21.7471   -7.4297  -17.1265 C   0  0  0  0  0  0  0  0  0  0  0  0
   21.4948   -7.2989  -18.3315 O   0  0  0  0  0  0  0  0  0  0  0  0
   18.4618   -6.0760  -15.2097 O   0  0  0  0  0  0  0  0  0  0  0  0
   19.3574   -5.0697  -15.5446 C   0  0  0  0  0  0  0  0  0  0  0  0
   20.2511   -5.4936  -16.6945 C   0  0  2  0  0  0  0  0  0  0  0  0
   21.1202   -6.5624  -16.1823 N   0  0  0  0  0  0  0  0  0  0  0  0
   21.0974   -4.3360  -17.0986 C   0  0  0  0  0  0  0  0  0  0  0  0
   22.3455   -4.3774  -16.9387 O   0  0  0  0  0  0  0  0  0  0  0  0
   20.4815   -3.2256  -17.6487 O   0  0  0  0  0  0  0  0  0  0  0  0
  2  1  1  6
  2  4  1  0
  3  2  1  0
  4  5  1  1
  6  4  1  0
  7  6  2  0
  8  6  1  0
  9  8  1  0
  9 10  1  6
 10 11  1  0
 11 15  1  0
 11 12  2  0
 12 13  1  0
 14 13  1  0
 15 14  2  0
 16  9  1  0
 17 16  2  0
 18 19  1  0
 20 19  1  1
 20 22  1  0
 20 21  1  0
 21 16  1  0
 22 24  1  0
 23 22  2  0
M  END
$$$$
