THS.pdb
     RDKit          3D

 24 24  0  0  1  0  0  0  0  0999 V2000
   25.2723  -10.6013  -15.5918 C   0  0  0  0  0  0  0  0  0  0  0  0
   24.9039  -11.7114  -16.5515 C   0  0  1  0  0  0  0  0  0  0  0  0
   25.7752  -12.7740  -16.4714 O   0  0  0  0  0  0  0  0  0  0  0  0
   23.4912  -12.1332  -16.2463 C   0  0  2  0  0  0  0  0  0  0  0  0
   23.1356  -13.2679  -17.0584 N   0  0  0  0  0  0  0  0  0  0  0  0
   22.5191  -11.0161  -16.3984 C   0  0  0  0  0  0  0  0  0  0  0  0
   22.2665  -10.5716  -17.5381 O   0  0  0  0  0  0  0  0  0  0  0  0
   21.9176  -10.5028  -15.2219 N   0  0  0  0  0  0  0  0  0  0  0  0
   20.9804   -9.3635  -15.3111 C   0  0  1  0  0  0  0  0  0  0  0  0
   19.7809   -9.6774  -14.5098 C   0  0  0  0  0  0  0  0  0  0  0  0
   18.7195  -10.4367  -15.1871 C   0  0  0  0  0  0  0  0  0  0  0  0
   18.6526  -10.9313  -16.4509 C   0  0  0  0  0  0  0  0  0  0  0  0
   17.5071  -11.6143  -16.5801 N   0  0  0  0  0  0  0  0  0  0  0  0
   16.8733  -11.5448  -15.4109 C   0  0  0  0  0  0  0  0  0  0  0  0
   17.5878  -10.8333  -14.5402 N   0  0  0  0  0  0  0  0  0  0  0  0
   21.7748   -8.2282  -14.7665 C   0  0  0  0  0  0  0  0  0  0  0  0
   22.4553   -8.3858  -13.7443 O   0  0  0  0  0  0  0  0  0  0  0  0
   23.6284   -3.8335  -15.5979 O   0  0  0  0  0  0  0  0  0  0  0  0
   22.7797   -4.8618  -15.9841 C   0  0  0  0  0  0  0  0  0  0  0  0
   22.6600   -5.9102  -14.8945 C   0  0  2  0  0  0  0  0  0  0  0  0
   21.7628   -6.9541  -15.4095 N   0  0  0  0  0  0  0  0  0  0  0  0
   22.0361   -5.2874  -13.6935 C   0  0  0  0  0  0  0  0  0  0  0  0
   20.7835   -5.2705  -13.5672 O   0  0  0  0  0  0  0  0  0  0  0  0
   22.8613   -4.7337  -12.7306 O   0  0  0  0  0  0  0  0  0  0  0  0
  2  1  1  1
  2  4  1  0
  3  2  1  0
  4  5  1  6
  6  4  1  0
  7  6  2  0
  8  6  1  0
  9  8  1  0
  9 10  1  1
 10 11  1  0
 11 15  1  0
 11 12  2  0
 12 13  1  0
 14 13  1  0
 15 14  2  0
 16  9  1  0
 17 16  2  0
 18 19  1  0
 20 19  1  6
 20 22  1  0
 20 21  1  0
 21 16  1  0
 22 24  1  0
 23 22  2  0
M  END
$$$$
