CDK.pdb
     RDKit          3D

 24 23  0  0  1  0  0  0  0  0999 V2000
   20.2948  -13.1735  -16.5644 N   0  0  0  0  0  0  0  0  0  0  0  0
   19.0236  -12.4916  -16.7135 C   0  0  1  0  0  0  0  0  0  0  0  0
   17.9159  -13.5377  -16.6857 C   0  0  0  0  0  0  0  0  0  0  0  0
   16.3531  -12.8633  -17.2698 S   0  0  0  0  0  0  0  0  0  0  0  0
   18.8617  -11.5434  -15.5809 C   0  0  0  0  0  0  0  0  0  0  0  0
   18.9069  -11.9418  -14.3829 O   0  0  0  0  0  0  0  0  0  0  0  0
   18.6488  -10.1450  -15.8019 N   0  0  0  0  0  0  0  0  0  0  0  0
   18.3326   -9.2569  -14.7124 C   0  0  1  0  0  0  0  0  0  0  0  0
   18.8530   -7.8650  -14.8614 C   0  0  0  0  0  0  0  0  0  0  0  0
   20.2564   -7.8058  -14.4300 C   0  0  0  0  0  0  0  0  0  0  0  0
   20.8073   -8.8113  -13.9373 O   0  0  0  0  0  0  0  0  0  0  0  0
   16.8333   -9.1396  -14.6156 C   0  0  0  0  0  0  0  0  0  0  0  0
   16.1503   -9.0015  -15.6422 O   0  0  0  0  0  0  0  0  0  0  0  0
   21.0017   -6.6429  -14.5565 O   0  0  0  0  0  0  0  0  0  0  0  0
   16.1519   -9.1810  -13.3726 N   0  0  0  0  0  0  0  0  0  0  0  0
   14.7168   -9.0186  -13.2597 C   0  0  1  0  0  0  0  0  0  0  0  0
   14.1604   -9.8646  -12.1265 C   0  0  0  0  0  0  0  0  0  0  0  0
   12.6921   -9.8249  -12.0263 C   0  0  0  0  0  0  0  0  0  0  0  0
   12.1712  -10.7105  -10.9459 C   0  0  0  0  0  0  0  0  0  0  0  0
   10.6976  -10.8069  -10.8166 C   0  0  0  0  0  0  0  0  0  0  0  0
   10.1830  -11.7707   -9.9110 N   0  0  0  0  0  0  0  0  0  0  0  0
   14.3133   -7.6096  -13.1767 C   0  0  0  0  0  0  0  0  0  0  0  0
   15.1202   -6.5793  -12.7686 O   0  0  0  0  0  0  0  0  0  0  0  0
   13.1308   -7.3311  -13.5078 O   0  0  0  0  0  0  0  0  0  0  0  0
  2  1  1  1
  3  2  1  0
  4  3  1  0
  5  2  1  0
  5  6  2  0
  7  5  1  0
  8  7  1  0
  9 10  1  0
  8  9  1  6
 10 14  1  0
 10 11  2  0
 12  8  1  0
 13 12  2  0
 15 12  1  0
 16 15  1  0
 16 17  1  1
 17 18  1  0
 19 18  1  0
 20 19  1  0
 20 21  1  0
 22 16  1  0
 23 22  1  0
 24 22  2  0
M  END
$$$$
