CDK.pdb
     RDKit          3D

 24 23  0  0  1  0  0  0  0  0999 V2000
   34.1478  -28.8712  -18.8586 N   0  0  0  0  0  0  0  0  0  0  0  0
   32.8902  -28.7524  -19.5710 C   0  0  1  0  0  0  0  0  0  0  0  0
   32.7527  -29.9540  -20.4980 C   0  0  0  0  0  0  0  0  0  0  0  0
   33.1850  -29.5352  -22.1940 S   0  0  0  0  0  0  0  0  0  0  0  0
   31.7851  -28.7422  -18.5777 C   0  0  0  0  0  0  0  0  0  0  0  0
   31.9023  -29.3247  -17.4629 O   0  0  0  0  0  0  0  0  0  0  0  0
   30.5473  -28.0738  -18.8442 N   0  0  0  0  0  0  0  0  0  0  0  0
   29.5110  -27.9965  -17.8463 C   0  0  1  0  0  0  0  0  0  0  0  0
   29.0183  -26.6173  -17.5535 C   0  0  0  0  0  0  0  0  0  0  0  0
   28.0972  -26.6467  -16.4090 C   0  0  0  0  0  0  0  0  0  0  0  0
   28.0756  -27.6312  -15.6425 O   0  0  0  0  0  0  0  0  0  0  0  0
   28.3187  -28.7755  -18.3390 C   0  0  0  0  0  0  0  0  0  0  0  0
   27.9692  -28.6970  -19.5269 O   0  0  0  0  0  0  0  0  0  0  0  0
   27.2341  -25.5923  -16.1502 O   0  0  0  0  0  0  0  0  0  0  0  0
   27.5601  -29.6149  -17.4840 N   0  0  0  0  0  0  0  0  0  0  0  0
   26.3874  -30.3370  -17.9335 C   0  0  1  0  0  0  0  0  0  0  0  0
   25.9693  -31.3845  -16.9149 C   0  0  0  0  0  0  0  0  0  0  0  0
   24.8620  -32.2415  -17.3702 C   0  0  0  0  0  0  0  0  0  0  0  0
   24.4958  -33.2800  -16.3651 C   0  0  0  0  0  0  0  0  0  0  0  0
   23.4024  -34.2095  -16.7365 C   0  0  0  0  0  0  0  0  0  0  0  0
   23.0883  -35.2474  -15.8210 N   0  0  0  0  0  0  0  0  0  0  0  0
   25.2896  -29.4436  -18.3229 C   0  0  0  0  0  0  0  0  0  0  0  0
   24.4211  -29.6647  -19.3603 O   0  0  0  0  0  0  0  0  0  0  0  0
   25.1383  -28.3923  -17.6468 O   0  0  0  0  0  0  0  0  0  0  0  0
  2  1  1  1
  3  2  1  0
  4  3  1  0
  5  2  1  0
  5  6  2  0
  7  5  1  0
  8  7  1  0
  9 10  1  0
  8  9  1  6
 10 14  1  0
 10 11  2  0
 12  8  1  0
 13 12  2  0
 15 12  1  0
 16 15  1  0
 16 17  1  1
 17 18  1  0
 19 18  1  0
 20 19  1  0
 20 21  1  0
 22 16  1  0
 23 22  1  0
 24 22  2  0
M  END
$$$$
