CDK.pdb
     RDKit          3D

 24 23  0  0  1  0  0  0  0  0999 V2000
   15.8154  -11.8958  -16.4042 N   0  0  0  0  0  0  0  0  0  0  0  0
   16.6862  -11.5223  -15.3063 C   0  0  1  0  0  0  0  0  0  0  0  0
   17.8568  -12.4975  -15.2741 C   0  0  0  0  0  0  0  0  0  0  0  0
   17.3883  -14.0704  -14.5356 S   0  0  0  0  0  0  0  0  0  0  0  0
   17.1772  -10.1400  -15.5435 C   0  0  0  0  0  0  0  0  0  0  0  0
   17.6466   -9.7961  -16.6648 O   0  0  0  0  0  0  0  0  0  0  0  0
   17.1377   -9.1463  -14.5137 N   0  0  0  0  0  0  0  0  0  0  0  0
   17.5431   -7.7879  -14.7713 C   0  0  1  0  0  0  0  0  0  0  0  0
   16.8706   -6.7572  -13.9252 C   0  0  0  0  0  0  0  0  0  0  0  0
   15.4306   -6.7313  -14.2167 C   0  0  0  0  0  0  0  0  0  0  0  0
   14.5997   -6.9308  -13.3072 O   0  0  0  0  0  0  0  0  0  0  0  0
   19.0185   -7.6710  -14.4873 C   0  0  0  0  0  0  0  0  0  0  0  0
   19.4949   -8.1568  -13.4498 O   0  0  0  0  0  0  0  0  0  0  0  0
   14.9581   -6.4871  -15.4977 O   0  0  0  0  0  0  0  0  0  0  0  0
   19.9081   -7.0142  -15.3751 N   0  0  0  0  0  0  0  0  0  0  0  0
   21.3299   -6.9035  -15.1205 C   0  0  1  0  0  0  0  0  0  0  0  0
   22.1287   -7.0950  -16.3990 C   0  0  0  0  0  0  0  0  0  0  0  0
   23.5859   -7.0260  -16.2004 C   0  0  0  0  0  0  0  0  0  0  0  0
   24.3387   -7.0795  -17.4862 C   0  0  0  0  0  0  0  0  0  0  0  0
   25.8180   -7.0856  -17.3918 C   0  0  0  0  0  0  0  0  0  0  0  0
   26.5502   -7.0514  -18.6070 N   0  0  0  0  0  0  0  0  0  0  0  0
   21.6803   -5.6717  -14.4029 C   0  0  0  0  0  0  0  0  0  0  0  0
   21.0017   -4.4841  -14.4938 O   0  0  0  0  0  0  0  0  0  0  0  0
   22.6850   -5.7153  -13.6452 O   0  0  0  0  0  0  0  0  0  0  0  0
  2  1  1  6
  3  2  1  0
  4  3  1  0
  5  2  1  0
  5  6  2  0
  7  5  1  0
  8  7  1  0
  9 10  1  0
  8  9  1  1
 10 14  1  0
 10 11  2  0
 12  8  1  0
 13 12  2  0
 15 12  1  0
 16 15  1  0
 16 17  1  6
 17 18  1  0
 19 18  1  0
 20 19  1  0
 20 21  1  0
 22 16  1  0
 23 22  1  0
 24 22  2  0
M  END
$$$$
