CDK.pdb
     RDKit          3D

 24 23  0  0  1  0  0  0  0  0999 V2000
   28.0042  -21.6734   -9.9772 N   0  0  0  0  0  0  0  0  0  0  0  0
   26.6424  -21.1753   -9.9524 C   0  0  1  0  0  0  0  0  0  0  0  0
   26.6413  -19.8276   -9.2412 C   0  0  0  0  0  0  0  0  0  0  0  0
   26.7855  -20.0196   -7.4577 S   0  0  0  0  0  0  0  0  0  0  0  0
   26.1734  -21.0160  -11.3533 C   0  0  0  0  0  0  0  0  0  0  0  0
   26.8099  -20.3026  -12.1791 O   0  0  0  0  0  0  0  0  0  0  0  0
   24.9849  -21.6628  -11.8213 N   0  0  0  0  0  0  0  0  0  0  0  0
   24.5926  -21.5921  -13.2058 C   0  0  1  0  0  0  0  0  0  0  0  0
   24.1683  -22.8910  -13.8087 C   0  0  0  0  0  0  0  0  0  0  0  0
   25.0777  -23.2559  -14.9037 C   0  0  0  0  0  0  0  0  0  0  0  0
   25.9537  -22.4550  -15.2889 O   0  0  0  0  0  0  0  0  0  0  0  0
   23.4076  -20.6675  -13.3167 C   0  0  0  0  0  0  0  0  0  0  0  0
   22.5607  -20.6267  -12.4108 O   0  0  0  0  0  0  0  0  0  0  0  0
   24.9898  -24.4881  -15.5343 O   0  0  0  0  0  0  0  0  0  0  0  0
   23.2130  -19.8215  -14.4380 N   0  0  0  0  0  0  0  0  0  0  0  0
   22.0365  -18.9918  -14.5990 C   0  0  1  0  0  0  0  0  0  0  0  0
   22.2197  -18.0021  -15.7376 C   0  0  0  0  0  0  0  0  0  0  0  0
   21.0478  -17.1402  -15.9646 C   0  0  0  0  0  0  0  0  0  0  0  0
   21.2097  -16.2627  -17.1590 C   0  0  0  0  0  0  0  0  0  0  0  0
   20.1116  -15.3061  -17.4359 C   0  0  0  0  0  0  0  0  0  0  0  0
   20.2341  -14.4869  -18.5884 N   0  0  0  0  0  0  0  0  0  0  0  0
   20.8026  -19.7788  -14.7145 C   0  0  0  0  0  0  0  0  0  0  0  0
   19.6248  -19.5005  -14.0708 O   0  0  0  0  0  0  0  0  0  0  0  0
   20.8346  -20.7886  -15.4659 O   0  0  0  0  0  0  0  0  0  0  0  0
  2  1  1  6
  3  2  1  0
  4  3  1  0
  5  2  1  0
  5  6  2  0
  7  5  1  0
  8  7  1  0
  9 10  1  0
  8  9  1  1
 10 14  1  0
 10 11  2  0
 12  8  1  0
 13 12  2  0
 15 12  1  0
 16 15  1  0
 16 17  1  6
 17 18  1  0
 19 18  1  0
 20 19  1  0
 20 21  1  0
 22 16  1  0
 23 22  1  0
 24 22  2  0
M  END
$$$$
