CDK.pdb
     RDKit          3D

 24 23  0  0  1  0  0  0  0  0999 V2000
   18.3894  -11.9948  -15.5193 N   0  0  0  0  0  0  0  0  0  0  0  0
   18.1560  -10.5683  -15.6369 C   0  0  1  0  0  0  0  0  0  0  0  0
   16.6606  -10.3446  -15.8267 C   0  0  0  0  0  0  0  0  0  0  0  0
   15.7098  -11.0285  -14.4604 S   0  0  0  0  0  0  0  0  0  0  0  0
   18.6181   -9.9107  -14.3870 C   0  0  0  0  0  0  0  0  0  0  0  0
   18.8278  -10.5786  -13.3355 O   0  0  0  0  0  0  0  0  0  0  0  0
   18.8432   -8.4982  -14.3255 N   0  0  0  0  0  0  0  0  0  0  0  0
   19.3736   -7.8781  -13.1380 C   0  0  1  0  0  0  0  0  0  0  0  0
   20.4383   -6.8590  -13.3799 C   0  0  0  0  0  0  0  0  0  0  0  0
   20.9502   -6.3551  -12.0980 C   0  0  0  0  0  0  0  0  0  0  0  0
   20.8120   -7.0277  -11.0560 O   0  0  0  0  0  0  0  0  0  0  0  0
   18.2508   -7.1581  -12.4366 C   0  0  0  0  0  0  0  0  0  0  0  0
   17.5048   -6.3964  -13.0713 O   0  0  0  0  0  0  0  0  0  0  0  0
   21.5950   -5.1303  -12.0099 O   0  0  0  0  0  0  0  0  0  0  0  0
   18.0031   -7.3164  -11.0493 N   0  0  0  0  0  0  0  0  0  0  0  0
   16.8668   -6.7145  -10.3822 C   0  0  1  0  0  0  0  0  0  0  0  0
   15.9266   -7.7786   -9.8408 C   0  0  0  0  0  0  0  0  0  0  0  0
   14.7117   -7.2300   -9.2157 C   0  0  0  0  0  0  0  0  0  0  0  0
   13.8196   -8.2950   -8.6746 C   0  0  0  0  0  0  0  0  0  0  0  0
   12.5740   -7.8451   -8.0085 C   0  0  0  0  0  0  0  0  0  0  0  0
   11.6706   -8.8469   -7.5676 N   0  0  0  0  0  0  0  0  0  0  0  0
   17.2642   -5.7293   -9.3690 C   0  0  0  0  0  0  0  0  0  0  0  0
   16.5260   -4.6352   -8.9985 O   0  0  0  0  0  0  0  0  0  0  0  0
   18.3720   -5.9086   -8.7982 O   0  0  0  0  0  0  0  0  0  0  0  0
  2  1  1  1
  3  2  1  0
  4  3  1  0
  5  2  1  0
  5  6  2  0
  7  5  1  0
  8  7  1  0
  9 10  1  0
  8  9  1  6
 10 14  1  0
 10 11  2  0
 12  8  1  0
 13 12  2  0
 15 12  1  0
 16 15  1  0
 16 17  1  1
 17 18  1  0
 19 18  1  0
 20 19  1  0
 20 21  1  0
 22 16  1  0
 23 22  1  0
 24 22  2  0
M  END
$$$$
