CDK.pdb
     RDKit          3D

 24 23  0  0  1  0  0  0  0  0999 V2000
   19.2269  -11.9177  -15.7295 N   0  0  0  0  0  0  0  0  0  0  0  0
   20.3308  -11.1093  -16.2101 C   0  0  1  0  0  0  0  0  0  0  0  0
   20.2878  -11.1020  -17.7334 C   0  0  0  0  0  0  0  0  0  0  0  0
   20.9565  -12.6242  -18.4222 S   0  0  0  0  0  0  0  0  0  0  0  0
   20.1668   -9.7285  -15.6862 C   0  0  0  0  0  0  0  0  0  0  0  0
   19.0411   -9.1552  -15.6945 O   0  0  0  0  0  0  0  0  0  0  0  0
   21.2748   -8.9954  -15.1527 N   0  0  0  0  0  0  0  0  0  0  0  0
   21.1338   -7.6202  -14.7468 C   0  0  1  0  0  0  0  0  0  0  0  0
   22.1101   -7.1641  -13.7127 C   0  0  0  0  0  0  0  0  0  0  0  0
   21.8415   -5.7651  -13.3525 C   0  0  0  0  0  0  0  0  0  0  0  0
   20.7663   -5.4512  -12.8022 O   0  0  0  0  0  0  0  0  0  0  0  0
   21.3555   -6.7443  -15.9530 C   0  0  0  0  0  0  0  0  0  0  0  0
   22.3161   -6.9550  -16.7095 O   0  0  0  0  0  0  0  0  0  0  0  0
   22.7653   -4.7633  -13.6109 O   0  0  0  0  0  0  0  0  0  0  0  0
   20.4937   -5.6634  -16.2692 N   0  0  0  0  0  0  0  0  0  0  0  0
   20.7209   -4.7842  -17.3979 C   0  0  1  0  0  0  0  0  0  0  0  0
   19.7266   -5.0616  -18.5131 C   0  0  0  0  0  0  0  0  0  0  0  0
   19.9048   -4.1969  -19.6914 C   0  0  0  0  0  0  0  0  0  0  0  0
   18.9075   -4.4817  -20.7624 C   0  0  0  0  0  0  0  0  0  0  0  0
   19.0059   -3.6674  -21.9972 C   0  0  0  0  0  0  0  0  0  0  0  0
   17.9911   -3.8379  -22.9746 N   0  0  0  0  0  0  0  0  0  0  0  0
   20.7695   -3.3692  -17.0100 C   0  0  0  0  0  0  0  0  0  0  0  0
   21.4659   -2.3917  -17.6725 O   0  0  0  0  0  0  0  0  0  0  0  0
   20.1177   -3.0322  -15.9868 O   0  0  0  0  0  0  0  0  0  0  0  0
  2  1  1  1
  3  2  1  0
  4  3  1  0
  5  2  1  0
  5  6  2  0
  7  5  1  0
  8  7  1  0
  9 10  1  0
  8  9  1  1
 10 14  1  0
 10 11  2  0
 12  8  1  0
 13 12  2  0
 15 12  1  0
 16 15  1  0
 16 17  1  6
 17 18  1  0
 19 18  1  0
 20 19  1  0
 20 21  1  0
 22 16  1  0
 23 22  1  0
 24 22  2  0
M  END
$$$$
