CDK.pdb
     RDKit          3D

 24 23  0  0  1  0  0  0  0  0999 V2000
   22.0480  -11.6251  -16.2185 N   0  0  0  0  0  0  0  0  0  0  0  0
   21.3554  -10.5359  -16.8796 C   0  0  1  0  0  0  0  0  0  0  0  0
   20.0738  -11.0883  -17.4917 C   0  0  0  0  0  0  0  0  0  0  0  0
   20.4186  -12.1587  -18.8966 S   0  0  0  0  0  0  0  0  0  0  0  0
   21.0334   -9.4981  -15.8660 C   0  0  0  0  0  0  0  0  0  0  0  0
   20.4051   -9.7886  -14.8093 O   0  0  0  0  0  0  0  0  0  0  0  0
   21.4215   -8.1319  -16.0465 N   0  0  0  0  0  0  0  0  0  0  0  0
   21.0915   -7.1268  -15.0683 C   0  0  1  0  0  0  0  0  0  0  0  0
   22.1812   -6.1479  -14.7769 C   0  0  0  0  0  0  0  0  0  0  0  0
   21.8093   -5.3119  -13.6271 C   0  0  0  0  0  0  0  0  0  0  0  0
   21.1016   -5.7784  -12.7113 O   0  0  0  0  0  0  0  0  0  0  0  0
   19.9283   -6.3221  -15.5885 C   0  0  0  0  0  0  0  0  0  0  0  0
   19.9724   -5.8230  -16.7236 O   0  0  0  0  0  0  0  0  0  0  0  0
   22.2297   -3.9939  -13.5274 O   0  0  0  0  0  0  0  0  0  0  0  0
   18.7570   -6.1048  -14.8192 N   0  0  0  0  0  0  0  0  0  0  0  0
   17.5705   -5.4732  -15.3594 C   0  0  1  0  0  0  0  0  0  0  0  0
   16.3105   -6.1296  -14.8199 C   0  0  0  0  0  0  0  0  0  0  0  0
   15.0679   -5.5616  -15.3684 C   0  0  0  0  0  0  0  0  0  0  0  0
   13.8489   -6.1455  -14.7391 C   0  0  0  0  0  0  0  0  0  0  0  0
   12.5427   -5.7110  -15.2891 C   0  0  0  0  0  0  0  0  0  0  0  0
   11.3718   -6.1699  -14.6312 N   0  0  0  0  0  0  0  0  0  0  0  0
   17.5785   -4.0155  -15.1858 C   0  0  0  0  0  0  0  0  0  0  0  0
   17.1025   -3.1086  -16.0969 O   0  0  0  0  0  0  0  0  0  0  0  0
   18.0623   -3.5683  -14.1128 O   0  0  0  0  0  0  0  0  0  0  0  0
  2  1  1  1
  3  2  1  0
  4  3  1  0
  5  2  1  0
  5  6  2  0
  7  5  1  0
  8  7  1  0
  9 10  1  0
  8  9  1  6
 10 14  1  0
 10 11  2  0
 12  8  1  0
 13 12  2  0
 15 12  1  0
 16 15  1  0
 16 17  1  1
 17 18  1  0
 19 18  1  0
 20 19  1  0
 20 21  1  0
 22 16  1  0
 23 22  1  0
 24 22  2  0
M  END
$$$$
