CDK.pdb
     RDKit          3D

 24 23  0  0  1  0  0  0  0  0999 V2000
   26.8016  -16.4630  -17.8351 N   0  0  0  0  0  0  0  0  0  0  0  0
   27.7209  -16.9782  -16.8387 C   0  0  1  0  0  0  0  0  0  0  0  0
   27.9010  -15.9149  -15.7620 C   0  0  0  0  0  0  0  0  0  0  0  0
   26.3787  -15.6387  -14.8427 S   0  0  0  0  0  0  0  0  0  0  0  0
   27.1352  -18.2102  -16.2495 C   0  0  0  0  0  0  0  0  0  0  0  0
   25.9510  -18.5622  -16.5134 O   0  0  0  0  0  0  0  0  0  0  0  0
   27.8877  -19.0445  -15.3622 N   0  0  0  0  0  0  0  0  0  0  0  0
   27.3549  -20.2934  -14.8805 C   0  0  1  0  0  0  0  0  0  0  0  0
   28.3700  -21.3625  -14.6417 C   0  0  0  0  0  0  0  0  0  0  0  0
   28.6025  -22.1184  -15.8801 C   0  0  0  0  0  0  0  0  0  0  0  0
   27.8103  -22.0163  -16.8389 O   0  0  0  0  0  0  0  0  0  0  0  0
   26.6844  -20.0433  -13.5541 C   0  0  0  0  0  0  0  0  0  0  0  0
   27.2482  -19.3547  -12.6896 O   0  0  0  0  0  0  0  0  0  0  0  0
   29.6975  -22.9584  -16.0180 O   0  0  0  0  0  0  0  0  0  0  0  0
   25.4063  -20.5731  -13.2429 N   0  0  0  0  0  0  0  0  0  0  0  0
   24.7339  -20.3111  -11.9868 C   0  0  1  0  0  0  0  0  0  0  0  0
   23.2251  -20.3900  -12.1499 C   0  0  0  0  0  0  0  0  0  0  0  0
   22.4833  -20.1585  -10.8994 C   0  0  0  0  0  0  0  0  0  0  0  0
   21.0075  -20.2573  -11.0864 C   0  0  0  0  0  0  0  0  0  0  0  0
   20.1657  -19.9760   -9.8991 C   0  0  0  0  0  0  0  0  0  0  0  0
   18.7582  -20.0555  -10.0627 N   0  0  0  0  0  0  0  0  0  0  0  0
   25.2381  -21.1486  -10.8916 C   0  0  0  0  0  0  0  0  0  0  0  0
   25.4353  -20.7282   -9.6018 O   0  0  0  0  0  0  0  0  0  0  0  0
   25.5094  -22.3475  -11.1644 O   0  0  0  0  0  0  0  0  0  0  0  0
  2  1  1  6
  3  2  1  0
  4  3  1  0
  5  2  1  0
  5  6  2  0
  7  5  1  0
  8  7  1  0
  9 10  1  0
  8  9  1  1
 10 14  1  0
 10 11  2  0
 12  8  1  0
 13 12  2  0
 15 12  1  0
 16 15  1  0
 16 17  1  6
 17 18  1  0
 19 18  1  0
 20 19  1  0
 20 21  1  0
 22 16  1  0
 23 22  1  0
 24 22  2  0
M  END
$$$$
