ITY.pdb
     RDKit          3D

 28 28  0  0  1  0  0  0  0  0999 V2000
    8.6129  -11.4037   20.1394 C   0  0  0  0  0  0  0  0  0  0  0  0
    8.0493  -12.8370   20.1679 C   0  0  0  0  0  0  0  0  0  0  0  0
    9.1542  -13.7606   19.7291 C   0  0  2  0  0  0  0  0  0  0  0  0
    9.8319  -13.2456   18.4732 C   0  0  0  0  0  0  0  0  0  0  0  0
    8.8059  -15.1847   19.6757 C   0  0  2  0  0  0  0  0  0  0  0  0
    7.8504  -15.5348   18.6128 N   0  0  0  0  0  0  0  0  0  0  0  0
    8.5595  -15.9320   20.9046 C   0  0  0  0  0  0  0  0  0  0  0  0
    7.3326  -16.1862   21.2058 O   0  0  0  0  0  0  0  0  0  0  0  0
    8.9827  -19.2951   21.6386 C   0  0  0  0  0  0  0  0  0  0  0  0
    9.7133  -18.5896   22.7514 C   0  0  1  0  0  0  0  0  0  0  0  0
   11.0469  -18.4020   22.3250 O   0  0  0  0  0  0  0  0  0  0  0  0
    9.1592  -17.1986   22.9953 C   0  0  2  0  0  0  0  0  0  0  0  0
    9.4983  -16.4131   21.8179 N   0  0  0  0  0  0  0  0  0  0  0  0
    9.8515  -16.6810   24.2039 C   0  0  0  0  0  0  0  0  0  0  0  0
   10.9123  -16.0249   24.0722 O   0  0  0  0  0  0  0  0  0  0  0  0
    5.4958  -11.6567   25.8254 O   0  0  0  0  0  0  0  0  0  0  0  0
    6.3103  -12.7019   26.2700 C   0  0  0  0  0  0  0  0  0  0  0  0
    5.8412  -13.9838   26.4061 C   0  0  0  0  0  0  0  0  0  0  0  0
    6.6687  -14.9908   26.8464 C   0  0  0  0  0  0  0  0  0  0  0  0
    8.0035  -14.7684   27.1727 C   0  0  0  0  0  0  0  0  0  0  0  0
    8.8641  -15.8451   27.6494 C   0  0  0  0  0  0  0  0  0  0  0  0
    9.9094  -16.3309   26.7050 C   0  0  2  0  0  0  0  0  0  0  0  0
    9.3341  -16.9159   25.5044 N   0  0  0  0  0  0  0  0  0  0  0  0
   10.8444  -17.2269   27.3754 C   0  0  0  0  0  0  0  0  0  0  0  0
   11.0669  -18.5498   26.9769 O   0  0  0  0  0  0  0  0  0  0  0  0
    8.4578  -13.4613   27.0270 C   0  0  0  0  0  0  0  0  0  0  0  0
    7.6298  -12.4567   26.5868 C   0  0  0  0  0  0  0  0  0  0  0  0
   11.5020  -16.8287   28.3640 O   0  0  0  0  0  0  0  0  0  0  0  0
  1  2  1  0
  2  3  1  0
  3  4  1  6
  5  3  1  0
  5  7  1  0
  5  6  1  6
  7  8  2  0
 10 12  1  0
 10  9  1  6
 11 10  1  0
 12 14  1  0
 13  7  1  0
 12 13  1  6
 14 15  2  0
 16 17  1  0
 17 18  2  0
 18 19  1  0
 20 19  2  0
 20 21  1  0
 22 21  1  1
 22 24  1  0
 23 22  1  0
 23 14  1  0
 24 28  2  0
 24 25  1  0
 26 20  1  0
 27 17  1  0
 27 26  2  0
M  END
$$$$
