ITY.pdb
     RDKit          3D

 28 28  0  0  1  0  0  0  0  0999 V2000
    7.9761  -11.9174   19.5651 C   0  0  0  0  0  0  0  0  0  0  0  0
    7.6402  -13.3312   20.0762 C   0  0  0  0  0  0  0  0  0  0  0  0
    8.3491  -14.3109   19.1795 C   0  0  2  0  0  0  0  0  0  0  0  0
    8.0955  -13.9972   17.7170 C   0  0  0  0  0  0  0  0  0  0  0  0
    8.1736  -15.7263   19.5234 C   0  0  2  0  0  0  0  0  0  0  0  0
    6.8973  -16.3046   19.0740 N   0  0  0  0  0  0  0  0  0  0  0  0
    8.5698  -16.2225   20.8372 C   0  0  0  0  0  0  0  0  0  0  0  0
    7.6497  -16.3211   21.7338 O   0  0  0  0  0  0  0  0  0  0  0  0
    9.5514  -19.3554   22.1370 C   0  0  0  0  0  0  0  0  0  0  0  0
   10.6461  -18.4179   22.5756 C   0  0  1  0  0  0  0  0  0  0  0  0
   11.6503  -18.4514   21.5826 O   0  0  0  0  0  0  0  0  0  0  0  0
   10.1673  -16.9794   22.6288 C   0  0  2  0  0  0  0  0  0  0  0  0
    9.8427  -16.6074   21.2597 N   0  0  0  0  0  0  0  0  0  0  0  0
   11.3080  -16.1801   23.1465 C   0  0  0  0  0  0  0  0  0  0  0  0
   12.1185  -15.6684   22.3375 O   0  0  0  0  0  0  0  0  0  0  0  0
   10.1713  -17.0169   30.8188 O   0  0  0  0  0  0  0  0  0  0  0  0
   10.6392  -16.3372   29.6907 C   0  0  0  0  0  0  0  0  0  0  0  0
   10.0944  -15.1473   29.2790 C   0  0  0  0  0  0  0  0  0  0  0  0
   10.5777  -14.5029   28.1638 C   0  0  0  0  0  0  0  0  0  0  0  0
   11.6270  -15.0136   27.4049 C   0  0  0  0  0  0  0  0  0  0  0  0
   12.1195  -14.3234   26.2183 C   0  0  0  0  0  0  0  0  0  0  0  0
   12.5769  -15.1818   25.0893 C   0  0  2  0  0  0  0  0  0  0  0  0
   11.4968  -15.9855   24.5395 N   0  0  0  0  0  0  0  0  0  0  0  0
   13.7335  -15.9816   25.4756 C   0  0  0  0  0  0  0  0  0  0  0  0
   13.7170  -17.3792   25.5464 O   0  0  0  0  0  0  0  0  0  0  0  0
   12.1642  -16.2209   27.8408 C   0  0  0  0  0  0  0  0  0  0  0  0
   11.6803  -16.8631   28.9552 C   0  0  0  0  0  0  0  0  0  0  0  0
   14.8171  -15.4255   25.7666 O   0  0  0  0  0  0  0  0  0  0  0  0
  1  2  1  0
  2  3  1  0
  3  4  1  6
  5  3  1  0
  5  7  1  0
  5  6  1  1
  7  8  2  0
 10 12  1  0
 10  9  1  6
 11 10  1  0
 12 14  1  0
 13  7  1  0
 12 13  1  6
 14 15  2  0
 16 17  1  0
 17 18  2  0
 18 19  1  0
 20 19  2  0
 20 21  1  0
 22 21  1  1
 22 24  1  0
 23 22  1  0
 23 14  1  0
 24 28  2  0
 24 25  1  0
 26 20  1  0
 27 17  1  0
 27 26  2  0
M  END
$$$$
