ITY.pdb
     RDKit          3D

 28 28  0  0  1  0  0  0  0  0999 V2000
    7.5051  -11.7302   19.3995 C   0  0  0  0  0  0  0  0  0  0  0  0
    8.0952  -13.1268   19.1278 C   0  0  0  0  0  0  0  0  0  0  0  0
    7.9085  -13.9423   20.3794 C   0  0  2  0  0  0  0  0  0  0  0  0
    8.4742  -13.2243   21.5902 C   0  0  0  0  0  0  0  0  0  0  0  0
    8.3070  -15.3509   20.2832 C   0  0  2  0  0  0  0  0  0  0  0  0
    7.7646  -16.0548   19.1103 N   0  0  0  0  0  0  0  0  0  0  0  0
    8.3254  -16.1968   21.4721 C   0  0  0  0  0  0  0  0  0  0  0  0
    7.2379  -16.8202   21.7708 O   0  0  0  0  0  0  0  0  0  0  0  0
    9.6490  -19.3237   22.1219 C   0  0  0  0  0  0  0  0  0  0  0  0
   10.1979  -18.4716   23.2365 C   0  0  1  0  0  0  0  0  0  0  0  0
   11.4264  -17.9363   22.7895 O   0  0  0  0  0  0  0  0  0  0  0  0
    9.3077  -17.2770   23.5223 C   0  0  2  0  0  0  0  0  0  0  0  0
    9.3877  -16.4196   22.3490 N   0  0  0  0  0  0  0  0  0  0  0  0
    9.8821  -16.6065   24.7176 C   0  0  0  0  0  0  0  0  0  0  0  0
   10.7357  -15.7003   24.5645 O   0  0  0  0  0  0  0  0  0  0  0  0
    6.1534  -11.3606   25.6597 O   0  0  0  0  0  0  0  0  0  0  0  0
    6.8245  -12.4411   26.2390 C   0  0  0  0  0  0  0  0  0  0  0  0
    6.2630  -13.6904   26.3171 C   0  0  0  0  0  0  0  0  0  0  0  0
    6.9499  -14.7336   26.8937 C   0  0  0  0  0  0  0  0  0  0  0  0
    8.2293  -14.5818   27.4207 C   0  0  0  0  0  0  0  0  0  0  0  0
    8.9389  -15.6958   28.0393 C   0  0  0  0  0  0  0  0  0  0  0  0
   10.0098  -16.3381   27.2262 C   0  0  2  0  0  0  0  0  0  0  0  0
    9.4825  -16.9733   26.0290 N   0  0  0  0  0  0  0  0  0  0  0  0
   10.8104  -17.2462   28.0392 C   0  0  0  0  0  0  0  0  0  0  0  0
   11.6067  -16.8254   29.1102 O   0  0  0  0  0  0  0  0  0  0  0  0
    8.7792  -13.3069   27.3305 C   0  0  0  0  0  0  0  0  0  0  0  0
    8.0917  -12.2660   26.7539 C   0  0  0  0  0  0  0  0  0  0  0  0
   10.8119  -18.4750   27.7978 O   0  0  0  0  0  0  0  0  0  0  0  0
  1  2  1  0
  2  3  1  0
  3  4  1  1
  5  3  1  0
  5  7  1  0
  5  6  1  6
  7  8  2  0
 10 12  1  0
 10  9  1  6
 11 10  1  0
 12 14  1  0
 13  7  1  0
 12 13  1  6
 14 15  2  0
 16 17  1  0
 17 18  2  0
 18 19  1  0
 20 19  2  0
 20 21  1  0
 22 21  1  1
 22 24  1  0
 23 22  1  0
 23 14  1  0
 24 28  2  0
 24 25  1  0
 26 20  1  0
 27 17  1  0
 27 26  2  0
M  END
$$$$
