ITY.pdb
     RDKit          3D

 28 28  0  0  1  0  0  0  0  0999 V2000
    8.8804  -12.0019   19.1542 C   0  0  0  0  0  0  0  0  0  0  0  0
    7.5857  -12.8314   19.0620 C   0  0  0  0  0  0  0  0  0  0  0  0
    7.5476  -13.7358   20.2649 C   0  0  2  0  0  0  0  0  0  0  0  0
    7.9406  -12.9877   21.5250 C   0  0  0  0  0  0  0  0  0  0  0  0
    8.2211  -15.0295   20.1067 C   0  0  2  0  0  0  0  0  0  0  0  0
    7.9441  -15.7038   18.8285 N   0  0  0  0  0  0  0  0  0  0  0  0
    8.2880  -15.9692   21.2210 C   0  0  0  0  0  0  0  0  0  0  0  0
    7.2338  -16.6676   21.4692 O   0  0  0  0  0  0  0  0  0  0  0  0
    9.7703  -19.0638   21.6743 C   0  0  0  0  0  0  0  0  0  0  0  0
   10.2605  -18.2708   22.8578 C   0  0  1  0  0  0  0  0  0  0  0  0
   11.4779  -17.6620   22.4799 O   0  0  0  0  0  0  0  0  0  0  0  0
    9.3192  -17.1317   23.2009 C   0  0  2  0  0  0  0  0  0  0  0  0
    9.3653  -16.2120   22.0738 N   0  0  0  0  0  0  0  0  0  0  0  0
    9.8616  -16.5002   24.4319 C   0  0  0  0  0  0  0  0  0  0  0  0
   10.7746  -15.6457   24.3345 O   0  0  0  0  0  0  0  0  0  0  0  0
    6.0083  -11.2373   25.8829 O   0  0  0  0  0  0  0  0  0  0  0  0
    6.6948  -12.3592   26.3555 C   0  0  0  0  0  0  0  0  0  0  0  0
    6.1526  -13.6186   26.3079 C   0  0  0  0  0  0  0  0  0  0  0  0
    6.8542  -14.7029   26.7816 C   0  0  0  0  0  0  0  0  0  0  0  0
    8.1299  -14.5844   27.3259 C   0  0  0  0  0  0  0  0  0  0  0  0
    8.8553  -15.7429   27.8345 C   0  0  0  0  0  0  0  0  0  0  0  0
    9.9131  -16.3081   26.9501 C   0  0  2  0  0  0  0  0  0  0  0  0
    9.3652  -16.8467   25.7154 N   0  0  0  0  0  0  0  0  0  0  0  0
   10.7354  -17.2740   27.6696 C   0  0  0  0  0  0  0  0  0  0  0  0
   11.5269  -16.9426   28.7751 O   0  0  0  0  0  0  0  0  0  0  0  0
    8.6601  -13.2985   27.3639 C   0  0  0  0  0  0  0  0  0  0  0  0
    7.9579  -12.2164   26.8901 C   0  0  0  0  0  0  0  0  0  0  0  0
   10.7616  -18.4732   27.3098 O   0  0  0  0  0  0  0  0  0  0  0  0
  1  2  1  0
  2  3  1  0
  3  4  1  1
  5  3  1  0
  5  7  1  0
  5  6  1  6
  7  8  2  0
 10 12  1  0
 10  9  1  6
 11 10  1  0
 12 14  1  0
 13  7  1  0
 12 13  1  6
 14 15  2  0
 16 17  1  0
 17 18  2  0
 18 19  1  0
 20 19  2  0
 20 21  1  0
 22 21  1  1
 22 24  1  0
 23 22  1  0
 23 14  1  0
 24 28  2  0
 24 25  1  0
 26 20  1  0
 27 17  1  0
 27 26  2  0
M  END
$$$$
