ITY.pdb
     RDKit          3D

 28 28  0  0  1  0  0  0  0  0999 V2000
    7.5134  -12.0702   18.6903 C   0  0  0  0  0  0  0  0  0  0  0  0
    7.8883  -13.5117   18.2977 C   0  0  0  0  0  0  0  0  0  0  0  0
    8.1309  -14.2737   19.5732 C   0  0  2  0  0  0  0  0  0  0  0  0
    9.1344  -13.5567   20.4568 C   0  0  0  0  0  0  0  0  0  0  0  0
    8.3965  -15.7077   19.4139 C   0  0  2  0  0  0  0  0  0  0  0  0
    7.5414  -16.3749   18.4195 N   0  0  0  0  0  0  0  0  0  0  0  0
    8.6410  -16.5484   20.5813 C   0  0  0  0  0  0  0  0  0  0  0  0
    7.6126  -16.9529   21.2441 O   0  0  0  0  0  0  0  0  0  0  0  0
   10.7639  -19.6926   21.2621 C   0  0  0  0  0  0  0  0  0  0  0  0
   11.1408  -18.6168   22.2473 C   0  0  1  0  0  0  0  0  0  0  0  0
   12.2478  -17.9239   21.7089 O   0  0  0  0  0  0  0  0  0  0  0  0
   10.0414  -17.5825   22.3990 C   0  0  2  0  0  0  0  0  0  0  0  0
    9.8690  -16.9762   21.0871 N   0  0  0  0  0  0  0  0  0  0  0  0
   10.5372  -16.5905   23.3881 C   0  0  0  0  0  0  0  0  0  0  0  0
   11.1636  -15.5809   22.9865 O   0  0  0  0  0  0  0  0  0  0  0  0
    6.0457  -10.9117   27.9008 O   0  0  0  0  0  0  0  0  0  0  0  0
    6.6293  -11.9643   27.1903 C   0  0  0  0  0  0  0  0  0  0  0  0
    6.2739  -12.2562   25.8978 C   0  0  0  0  0  0  0  0  0  0  0  0
    6.8673  -13.2995   25.2255 C   0  0  0  0  0  0  0  0  0  0  0  0
    7.8432  -14.1024   25.8092 C   0  0  0  0  0  0  0  0  0  0  0  0
    8.4539  -15.2120   25.0862 C   0  0  0  0  0  0  0  0  0  0  0  0
    9.7416  -15.7319   25.6267 C   0  0  2  0  0  0  0  0  0  0  0  0
   10.3146  -16.7651   24.7788 N   0  0  0  0  0  0  0  0  0  0  0  0
    9.5925  -16.1596   27.0128 C   0  0  0  0  0  0  0  0  0  0  0  0
    9.0476  -17.3935   27.3858 O   0  0  0  0  0  0  0  0  0  0  0  0
    8.1882  -13.7881   27.1201 C   0  0  0  0  0  0  0  0  0  0  0  0
    7.5945  -12.7454   27.7900 C   0  0  0  0  0  0  0  0  0  0  0  0
    9.9597  -15.4116   27.9475 O   0  0  0  0  0  0  0  0  0  0  0  0
  1  2  1  0
  2  3  1  0
  3  4  1  6
  5  3  1  0
  5  7  1  0
  5  6  1  1
  7  8  2  0
 10 12  1  0
 10  9  1  6
 11 10  1  0
 12 14  1  0
 13  7  1  0
 12 13  1  6
 14 15  2  0
 16 17  1  0
 17 18  2  0
 18 19  1  0
 20 19  2  0
 20 21  1  0
 22 21  1  6
 22 24  1  0
 23 22  1  0
 23 14  1  0
 24 28  2  0
 24 25  1  0
 26 20  1  0
 27 17  1  0
 27 26  2  0
M  END
$$$$
