ITY.pdb
     RDKit          3D

 28 28  0  0  1  0  0  0  0  0999 V2000
    7.3849  -11.6056   19.3652 C   0  0  0  0  0  0  0  0  0  0  0  0
    8.0954  -12.8924   18.9047 C   0  0  0  0  0  0  0  0  0  0  0  0
    7.8475  -13.9407   19.9564 C   0  0  2  0  0  0  0  0  0  0  0  0
    8.1260  -13.3990   21.3458 C   0  0  0  0  0  0  0  0  0  0  0  0
    8.4506  -15.2528   19.6976 C   0  0  2  0  0  0  0  0  0  0  0  0
    8.1649  -15.7974   18.3607 N   0  0  0  0  0  0  0  0  0  0  0  0
    8.4394  -16.2874   20.7266 C   0  0  0  0  0  0  0  0  0  0  0  0
    7.3742  -17.0047   20.8319 O   0  0  0  0  0  0  0  0  0  0  0  0
    9.9046  -19.4784   21.2174 C   0  0  0  0  0  0  0  0  0  0  0  0
   10.2917  -18.6799   22.4349 C   0  0  1  0  0  0  0  0  0  0  0  0
   11.5167  -18.0391   22.1444 O   0  0  0  0  0  0  0  0  0  0  0  0
    9.3007  -17.5662   22.7160 C   0  0  2  0  0  0  0  0  0  0  0  0
    9.4511  -16.6048   21.6337 N   0  0  0  0  0  0  0  0  0  0  0  0
    9.6989  -16.9742   24.0195 C   0  0  0  0  0  0  0  0  0  0  0  0
   10.6240  -16.1279   24.0544 O   0  0  0  0  0  0  0  0  0  0  0  0
    6.5080  -11.1305   25.6943 O   0  0  0  0  0  0  0  0  0  0  0  0
    6.9315  -12.4032   26.0872 C   0  0  0  0  0  0  0  0  0  0  0  0
    6.0480  -13.3749   26.4836 C   0  0  0  0  0  0  0  0  0  0  0  0
    6.4969  -14.6182   26.8648 C   0  0  0  0  0  0  0  0  0  0  0  0
    7.8481  -14.9527   26.8698 C   0  0  0  0  0  0  0  0  0  0  0  0
    8.3080  -16.2719   27.2882 C   0  0  0  0  0  0  0  0  0  0  0  0
    9.4537  -16.8499   26.5306 C   0  0  2  0  0  0  0  0  0  0  0  0
    9.0515  -17.3493   25.2253 N   0  0  0  0  0  0  0  0  0  0  0  0
   10.1541  -17.8521   27.3254 C   0  0  0  0  0  0  0  0  0  0  0  0
   10.8515  -17.5554   28.5018 O   0  0  0  0  0  0  0  0  0  0  0  0
    8.7259  -13.9523   26.4640 C   0  0  0  0  0  0  0  0  0  0  0  0
    8.2757  -12.7110   26.0833 C   0  0  0  0  0  0  0  0  0  0  0  0
   10.1548  -19.0527   26.9695 O   0  0  0  0  0  0  0  0  0  0  0  0
  1  2  1  0
  2  3  1  0
  3  4  1  1
  5  3  1  0
  5  7  1  0
  5  6  1  6
  7  8  2  0
 10 12  1  0
 10  9  1  6
 11 10  1  0
 12 14  1  0
 13  7  1  0
 12 13  1  6
 14 15  2  0
 16 17  1  0
 17 18  2  0
 18 19  1  0
 20 19  2  0
 20 21  1  0
 22 21  1  1
 22 24  1  0
 23 22  1  0
 23 14  1  0
 24 28  2  0
 24 25  1  0
 26 20  1  0
 27 17  1  0
 27 26  2  0
M  END
$$$$
