ITY.pdb
     RDKit          3D

 28 28  0  0  1  0  0  0  0  0999 V2000
    7.6963  -11.2202   26.4337 C   0  0  0  0  0  0  0  0  0  0  0  0
    7.5334  -12.7456   26.5726 C   0  0  0  0  0  0  0  0  0  0  0  0
    6.4591  -13.1702   25.6071 C   0  0  2  0  0  0  0  0  0  0  0  0
    5.1846  -12.3757   25.8222 C   0  0  0  0  0  0  0  0  0  0  0  0
    6.2458  -14.6172   25.4927 C   0  0  2  0  0  0  0  0  0  0  0  0
    5.6434  -15.2363   26.6839 N   0  0  0  0  0  0  0  0  0  0  0  0
    7.2635  -15.4686   24.8856 C   0  0  0  0  0  0  0  0  0  0  0  0
    7.8407  -16.3340   25.6463 O   0  0  0  0  0  0  0  0  0  0  0  0
    7.0950  -16.5741   21.1687 C   0  0  0  0  0  0  0  0  0  0  0  0
    8.5439  -16.3989   21.5423 C   0  0  1  0  0  0  0  0  0  0  0  0
    8.9498  -15.1322   21.0665 O   0  0  0  0  0  0  0  0  0  0  0  0
    8.7358  -16.3547   23.0465 C   0  0  2  0  0  0  0  0  0  0  0  0
    7.7061  -15.4647   23.5623 N   0  0  0  0  0  0  0  0  0  0  0  0
   10.0933  -15.7958   23.2766 C   0  0  0  0  0  0  0  0  0  0  0  0
   10.3286  -14.6033   22.9671 O   0  0  0  0  0  0  0  0  0  0  0  0
   10.0983  -17.2583   30.0763 O   0  0  0  0  0  0  0  0  0  0  0  0
   10.6769  -16.7619   28.9050 C   0  0  0  0  0  0  0  0  0  0  0  0
   11.4249  -17.5527   28.0700 C   0  0  0  0  0  0  0  0  0  0  0  0
   11.9814  -17.0337   26.9240 C   0  0  0  0  0  0  0  0  0  0  0  0
   11.8196  -15.7012   26.5551 C   0  0  0  0  0  0  0  0  0  0  0  0
   12.4263  -15.1640   25.3426 C   0  0  0  0  0  0  0  0  0  0  0  0
   12.4473  -16.0618   24.1534 C   0  0  2  0  0  0  0  0  0  0  0  0
   11.1280  -16.5870   23.8398 N   0  0  0  0  0  0  0  0  0  0  0  0
   13.4488  -17.1105   24.3073 C   0  0  0  0  0  0  0  0  0  0  0  0
   14.8234  -16.8601   24.3861 O   0  0  0  0  0  0  0  0  0  0  0  0
   11.0574  -14.9178   27.4162 C   0  0  0  0  0  0  0  0  0  0  0  0
   10.5020  -15.4381   28.5605 C   0  0  0  0  0  0  0  0  0  0  0  0
   13.1002  -18.3113   24.3766 O   0  0  0  0  0  0  0  0  0  0  0  0
  1  2  1  0
  2  3  1  0
  3  4  1  1
  5  3  1  0
  5  7  1  0
  5  6  1  1
  7  8  2  0
 10 12  1  0
 10  9  1  1
 11 10  1  0
 12 14  1  0
 13  7  1  0
 12 13  1  1
 14 15  2  0
 16 17  1  0
 17 18  2  0
 18 19  1  0
 20 19  2  0
 20 21  1  0
 22 21  1  1
 22 24  1  0
 23 22  1  0
 23 14  1  0
 24 28  2  0
 24 25  1  0
 26 20  1  0
 27 17  1  0
 27 26  2  0
M  END
$$$$
