ITY.pdb
     RDKit          3D

 28 28  0  0  1  0  0  0  0  0999 V2000
    7.9577  -11.6284   19.2481 C   0  0  0  0  0  0  0  0  0  0  0  0
    8.3141  -13.0976   18.9529 C   0  0  0  0  0  0  0  0  0  0  0  0
    8.0897  -13.8757   20.2221 C   0  0  2  0  0  0  0  0  0  0  0  0
    8.7551  -13.1977   21.4049 C   0  0  0  0  0  0  0  0  0  0  0  0
    8.3530  -15.3165   20.1370 C   0  0  2  0  0  0  0  0  0  0  0  0
    7.7396  -15.9762   18.9734 N   0  0  0  0  0  0  0  0  0  0  0  0
    8.2986  -16.1498   21.3335 C   0  0  0  0  0  0  0  0  0  0  0  0
    7.1375  -16.5523   21.7212 O   0  0  0  0  0  0  0  0  0  0  0  0
    9.4028  -19.4924   22.0074 C   0  0  0  0  0  0  0  0  0  0  0  0
   10.0035  -18.6476   23.1006 C   0  0  1  0  0  0  0  0  0  0  0  0
   11.2748  -18.2242   22.6533 O   0  0  0  0  0  0  0  0  0  0  0  0
    9.2054  -17.3787   23.3341 C   0  0  2  0  0  0  0  0  0  0  0  0
    9.3616  -16.5726   22.1325 N   0  0  0  0  0  0  0  0  0  0  0  0
    9.8192  -16.7119   24.5117 C   0  0  0  0  0  0  0  0  0  0  0  0
   10.7890  -15.9346   24.3429 O   0  0  0  0  0  0  0  0  0  0  0  0
    5.7969  -11.5065   25.6392 O   0  0  0  0  0  0  0  0  0  0  0  0
    6.5434  -12.5541   26.1859 C   0  0  0  0  0  0  0  0  0  0  0  0
    6.0540  -13.8332   26.2658 C   0  0  0  0  0  0  0  0  0  0  0  0
    6.8141  -14.8426   26.8098 C   0  0  0  0  0  0  0  0  0  0  0  0
    8.0984  -14.6256   27.3008 C   0  0  0  0  0  0  0  0  0  0  0  0
    8.8864  -15.7047   27.8853 C   0  0  0  0  0  0  0  0  0  0  0  0
    9.9148  -16.3306   27.0071 C   0  0  2  0  0  0  0  0  0  0  0  0
    9.3280  -16.9390   25.8237 N   0  0  0  0  0  0  0  0  0  0  0  0
   10.7519  -17.2572   27.7602 C   0  0  0  0  0  0  0  0  0  0  0  0
   11.6136  -16.8585   28.7883 O   0  0  0  0  0  0  0  0  0  0  0  0
    8.5744  -13.3213   27.2095 C   0  0  0  0  0  0  0  0  0  0  0  0
    7.8139  -12.3143   26.6655 C   0  0  0  0  0  0  0  0  0  0  0  0
   10.7268  -18.4826   27.5032 O   0  0  0  0  0  0  0  0  0  0  0  0
  1  2  1  0
  2  3  1  0
  3  4  1  1
  5  3  1  0
  5  7  1  0
  5  6  1  6
  7  8  2  0
 10 12  1  0
 10  9  1  6
 11 10  1  0
 12 14  1  0
 13  7  1  0
 12 13  1  6
 14 15  2  0
 16 17  1  0
 17 18  2  0
 18 19  1  0
 20 19  2  0
 20 21  1  0
 22 21  1  1
 22 24  1  0
 23 22  1  0
 23 14  1  0
 24 28  2  0
 24 25  1  0
 26 20  1  0
 27 17  1  0
 27 26  2  0
M  END
$$$$
