GKD.pdb
     RDKit          3D

 22 21  0  0  1  0  0  0  0  0999 V2000
   16.8768  -12.4095  -14.1315 N   0  0  0  0  0  0  0  0  0  0  0  0
   16.5818  -11.0952  -14.6218 C   0  0  0  0  0  0  0  0  0  0  0  0
   17.6766  -10.5921  -15.5260 C   0  0  0  0  0  0  0  0  0  0  0  0
   18.7182  -11.2595  -15.7378 O   0  0  0  0  0  0  0  0  0  0  0  0
   17.5269   -9.3374  -16.1509 N   0  0  0  0  0  0  0  0  0  0  0  0
   18.5962   -8.7492  -17.0081 C   0  0  1  0  0  0  0  0  0  0  0  0
   17.8657   -8.2619  -18.2193 C   0  0  0  0  0  0  0  0  0  0  0  0
   17.3763   -9.2883  -19.1703 C   0  0  0  0  0  0  0  0  0  0  0  0
   16.6099   -8.6909  -20.3385 C   0  0  0  0  0  0  0  0  0  0  0  0
   16.0992   -9.7746  -21.2787 C   0  0  0  0  0  0  0  0  0  0  0  0
   15.2438   -9.1059  -22.2488 N   0  0  0  0  0  0  0  0  0  0  0  0
   19.2321   -7.7102  -16.1872 C   0  0  0  0  0  0  0  0  0  0  0  0
   18.6615   -7.2814  -15.1614 O   0  0  0  0  0  0  0  0  0  0  0  0
   20.4863   -7.1804  -16.5295 N   0  0  0  0  0  0  0  0  0  0  0  0
   21.0895   -6.1378  -15.6465 C   0  0  1  0  0  0  0  0  0  0  0  0
   21.3767   -6.7585  -14.3173 C   0  0  0  0  0  0  0  0  0  0  0  0
   22.0476   -5.8266  -13.4194 C   0  0  0  0  0  0  0  0  0  0  0  0
   22.0441   -4.5999  -13.6114 O   0  0  0  0  0  0  0  0  0  0  0  0
   22.3592   -5.7246  -16.2777 C   0  0  0  0  0  0  0  0  0  0  0  0
   23.0906   -4.8444  -15.7724 O   0  0  0  0  0  0  0  0  0  0  0  0
   22.7453   -6.2557  -12.2727 O   0  0  0  0  0  0  0  0  0  0  0  0
   22.7338   -6.3529  -17.4760 O   0  0  0  0  0  0  0  0  0  0  0  0
  2  1  1  0
  2  3  1  0
  3  4  2  0
  5  3  1  0
  5  6  1  0
  6 12  1  0
  6  7  1  6
  8  7  1  0
  9  8  1  0
  9 10  1  0
 10 11  1  0
 12 13  2  0
 14 12  1  0
 14 15  1  0
 15 19  1  0
 15 16  1  1
 17 18  2  0
 17 16  1  0
 19 20  2  0
 19 22  1  0
 21 17  1  0
M  END
$$$$
