GKD.pdb
     RDKit          3D

 22 21  0  0  1  0  0  0  0  0999 V2000
   20.0629  -13.8290  -17.4942 N   0  0  0  0  0  0  0  0  0  0  0  0
   19.3805  -13.7088  -16.2394 C   0  0  0  0  0  0  0  0  0  0  0  0
   18.3279  -12.6324  -16.2919 C   0  0  0  0  0  0  0  0  0  0  0  0
   18.1614  -11.9196  -17.3115 O   0  0  0  0  0  0  0  0  0  0  0  0
   17.5080  -12.4200  -15.1651 N   0  0  0  0  0  0  0  0  0  0  0  0
   16.3601  -11.4682  -15.1915 C   0  0  1  0  0  0  0  0  0  0  0  0
   15.3351  -12.1088  -14.3100 C   0  0  0  0  0  0  0  0  0  0  0  0
   14.2976  -12.9351  -14.9721 C   0  0  0  0  0  0  0  0  0  0  0  0
   13.3040  -13.5314  -13.9891 C   0  0  0  0  0  0  0  0  0  0  0  0
   12.1784  -14.2595  -14.7116 C   0  0  0  0  0  0  0  0  0  0  0  0
   11.2917  -14.7727  -13.6771 N   0  0  0  0  0  0  0  0  0  0  0  0
   16.8992  -10.1877  -14.7147 C   0  0  0  0  0  0  0  0  0  0  0  0
   17.7158  -10.1614  -13.7690 O   0  0  0  0  0  0  0  0  0  0  0  0
   16.5166   -8.9733  -15.3060 N   0  0  0  0  0  0  0  0  0  0  0  0
   17.0925   -7.7029  -14.7720 C   0  0  1  0  0  0  0  0  0  0  0  0
   17.8561   -7.0364  -15.8707 C   0  0  0  0  0  0  0  0  0  0  0  0
   18.3756   -5.7387  -15.4575 C   0  0  0  0  0  0  0  0  0  0  0  0
   18.2270   -5.2996  -14.3056 O   0  0  0  0  0  0  0  0  0  0  0  0
   15.9537   -6.8481  -14.3798 C   0  0  0  0  0  0  0  0  0  0  0  0
   14.7994   -7.0454  -14.8197 O   0  0  0  0  0  0  0  0  0  0  0  0
   19.0818   -4.8950  -16.3381 O   0  0  0  0  0  0  0  0  0  0  0  0
   16.1994   -5.7931  -13.4867 O   0  0  0  0  0  0  0  0  0  0  0  0
  2  1  1  0
  2  3  1  0
  3  4  2  0
  5  3  1  0
  5  6  1  0
  6 12  1  0
  6  7  1  1
  8  7  1  0
  9  8  1  0
  9 10  1  0
 10 11  1  0
 12 13  2  0
 14 12  1  0
 14 15  1  0
 15 19  1  0
 15 16  1  6
 17 18  2  0
 17 16  1  0
 19 20  2  0
 19 22  1  0
 21 17  1  0
M  END
$$$$
