GKD.pdb
     RDKit          3D

 22 21  0  0  1  0  0  0  0  0999 V2000
   17.8265  -25.8384   -4.0726 N   0  0  0  0  0  0  0  0  0  0  0  0
   17.2210  -26.3591   -5.2629 C   0  0  0  0  0  0  0  0  0  0  0  0
   18.0607  -26.0603   -6.4774 C   0  0  0  0  0  0  0  0  0  0  0  0
   19.1020  -25.3631   -6.4061 O   0  0  0  0  0  0  0  0  0  0  0  0
   17.6659  -26.5776   -7.7278 N   0  0  0  0  0  0  0  0  0  0  0  0
   18.4062  -26.2612   -8.9832 C   0  0  1  0  0  0  0  0  0  0  0  0
   18.5403  -27.5832   -9.6705 C   0  0  0  0  0  0  0  0  0  0  0  0
   19.9136  -28.0416   -9.9890 C   0  0  0  0  0  0  0  0  0  0  0  0
   19.9370  -29.3936  -10.6824 C   0  0  0  0  0  0  0  0  0  0  0  0
   21.3617  -29.9023  -10.8572 C   0  0  0  0  0  0  0  0  0  0  0  0
   21.2528  -31.2422  -11.4163 N   0  0  0  0  0  0  0  0  0  0  0  0
   17.5882  -25.2606   -9.6813 C   0  0  0  0  0  0  0  0  0  0  0  0
   16.3706  -25.1507   -9.4218 O   0  0  0  0  0  0  0  0  0  0  0  0
   18.1490  -24.4088  -10.6460 N   0  0  0  0  0  0  0  0  0  0  0  0
   17.2562  -23.4476  -11.3599 C   0  0  1  0  0  0  0  0  0  0  0  0
   18.1136  -22.4907  -12.1239 C   0  0  0  0  0  0  0  0  0  0  0  0
   17.3215  -21.6371  -13.0007 C   0  0  0  0  0  0  0  0  0  0  0  0
   16.2556  -21.1157  -12.6349 O   0  0  0  0  0  0  0  0  0  0  0  0
   16.4442  -24.2393  -12.3061 C   0  0  0  0  0  0  0  0  0  0  0  0
   16.9311  -25.1902  -12.9570 O   0  0  0  0  0  0  0  0  0  0  0  0
   17.7128  -21.3460  -14.3228 O   0  0  0  0  0  0  0  0  0  0  0  0
   15.0916  -23.8961  -12.4601 O   0  0  0  0  0  0  0  0  0  0  0  0
  2  1  1  0
  2  3  1  0
  3  4  2  0
  5  3  1  0
  5  6  1  0
  6 12  1  0
  6  7  1  6
  8  7  1  0
  9  8  1  0
  9 10  1  0
 10 11  1  0
 12 13  2  0
 14 12  1  0
 14 15  1  0
 15 19  1  0
 15 16  1  6
 17 18  2  0
 17 16  1  0
 19 20  2  0
 19 22  1  0
 21 17  1  0
M  END
$$$$
