GKD.pdb
     RDKit          3D

 22 21  0  0  1  0  0  0  0  0999 V2000
   19.8803  -16.2470  -21.3759 N   0  0  0  0  0  0  0  0  0  0  0  0
   20.6164  -15.6425  -20.3048 C   0  0  0  0  0  0  0  0  0  0  0  0
   19.7735  -15.5257  -19.0617 C   0  0  0  0  0  0  0  0  0  0  0  0
   18.5706  -15.1704  -19.1094 O   0  0  0  0  0  0  0  0  0  0  0  0
   20.3517  -15.8235  -17.8110 N   0  0  0  0  0  0  0  0  0  0  0  0
   19.5878  -15.6947  -16.5367 C   0  0  1  0  0  0  0  0  0  0  0  0
   20.2749  -16.6398  -15.6025 C   0  0  0  0  0  0  0  0  0  0  0  0
   19.5756  -16.9647  -14.3365 C   0  0  0  0  0  0  0  0  0  0  0  0
   20.2551  -18.0786  -13.5577 C   0  0  0  0  0  0  0  0  0  0  0  0
   19.4810  -18.4220  -12.2920 C   0  0  0  0  0  0  0  0  0  0  0  0
   20.2392  -19.4667  -11.6185 N   0  0  0  0  0  0  0  0  0  0  0  0
   19.6634  -14.2732  -16.1741 C   0  0  0  0  0  0  0  0  0  0  0  0
   20.7047  -13.6203  -16.4005 O   0  0  0  0  0  0  0  0  0  0  0  0
   18.5771  -13.6182  -15.5727 N   0  0  0  0  0  0  0  0  0  0  0  0
   18.7187  -12.1752  -15.2147 C   0  0  1  0  0  0  0  0  0  0  0  0
   18.9231  -11.3976  -16.4750 C   0  0  0  0  0  0  0  0  0  0  0  0
   18.9952   -9.9643  -16.2198 C   0  0  0  0  0  0  0  0  0  0  0  0
   18.0671   -9.1908  -16.5064 O   0  0  0  0  0  0  0  0  0  0  0  0
   17.4470  -11.7631  -14.5868 C   0  0  0  0  0  0  0  0  0  0  0  0
   17.2985  -10.6279  -14.0825 O   0  0  0  0  0  0  0  0  0  0  0  0
   20.1237   -9.3602  -15.6303 O   0  0  0  0  0  0  0  0  0  0  0  0
   16.3911  -12.6882  -14.5694 O   0  0  0  0  0  0  0  0  0  0  0  0
  2  1  1  0
  2  3  1  0
  3  4  2  0
  5  3  1  0
  5  6  1  0
  6 12  1  0
  6  7  1  1
  8  7  1  0
  9  8  1  0
  9 10  1  0
 10 11  1  0
 12 13  2  0
 14 12  1  0
 14 15  1  0
 15 19  1  0
 15 16  1  6
 17 18  2  0
 17 16  1  0
 19 20  2  0
 19 22  1  0
 21 17  1  0
M  END
$$$$
