GKD.pdb
     RDKit          3D

 22 21  0  0  1  0  0  0  0  0999 V2000
   19.3953  -14.1371  -20.2717 N   0  0  0  0  0  0  0  0  0  0  0  0
   18.1042  -13.6036  -20.5928 C   0  0  0  0  0  0  0  0  0  0  0  0
   17.4731  -12.9446  -19.3942 C   0  0  0  0  0  0  0  0  0  0  0  0
   16.3216  -12.4473  -19.4428 O   0  0  0  0  0  0  0  0  0  0  0  0
   18.1955  -12.8847  -18.1852 N   0  0  0  0  0  0  0  0  0  0  0  0
   17.6057  -12.3144  -16.9398 C   0  0  1  0  0  0  0  0  0  0  0  0
   17.8914  -13.3466  -15.8953 C   0  0  0  0  0  0  0  0  0  0  0  0
   16.9327  -14.4711  -15.7782 C   0  0  0  0  0  0  0  0  0  0  0  0
   17.3282  -15.4729  -14.7062 C   0  0  0  0  0  0  0  0  0  0  0  0
   16.3289  -16.6189  -14.6227 C   0  0  0  0  0  0  0  0  0  0  0  0
   16.8601  -17.5554  -13.6426 N   0  0  0  0  0  0  0  0  0  0  0  0
   18.2664  -11.0163  -16.7497 C   0  0  0  0  0  0  0  0  0  0  0  0
   19.4993  -10.9061  -16.9223 O   0  0  0  0  0  0  0  0  0  0  0  0
   17.5359   -9.8773  -16.3761 N   0  0  0  0  0  0  0  0  0  0  0  0
   18.2720   -8.6003  -16.1351 C   0  0  1  0  0  0  0  0  0  0  0  0
   17.5430   -7.4997  -16.8364 C   0  0  0  0  0  0  0  0  0  0  0  0
   18.1341   -6.1968  -16.5576 C   0  0  0  0  0  0  0  0  0  0  0  0
   19.1934   -5.8210  -17.0854 O   0  0  0  0  0  0  0  0  0  0  0  0
   18.2414   -8.3567  -14.6788 C   0  0  0  0  0  0  0  0  0  0  0  0
   17.5065   -9.0208  -13.9147 O   0  0  0  0  0  0  0  0  0  0  0  0
   17.5425   -5.2757  -15.6702 O   0  0  0  0  0  0  0  0  0  0  0  0
   19.0701   -7.3478  -14.1625 O   0  0  0  0  0  0  0  0  0  0  0  0
  2  1  1  0
  2  3  1  0
  3  4  2  0
  5  3  1  0
  5  6  1  0
  6 12  1  0
  6  7  1  1
  8  7  1  0
  9  8  1  0
  9 10  1  0
 10 11  1  0
 12 13  2  0
 14 12  1  0
 14 15  1  0
 15 19  1  0
 15 16  1  6
 17 18  2  0
 17 16  1  0
 19 20  2  0
 19 22  1  0
 21 17  1  0
M  END
$$$$
