EKL.pdb
     RDKit          3D

 27 26  0  0  1  0  0  0  0  0999 V2000
   13.6385   -8.9729   -9.0233 N   0  0  0  0  0  0  0  0  0  0  0  0
   14.2392   -7.8604   -9.7529 C   0  0  1  0  0  0  0  0  0  0  0  0
   14.4745   -6.7662   -8.7401 C   0  0  0  0  0  0  0  0  0  0  0  0
   13.1841   -6.0370   -8.4078 C   0  0  0  0  0  0  0  0  0  0  0  0
   13.4101   -4.9371   -7.4635 C   0  0  0  0  0  0  0  0  0  0  0  0
   14.6103   -4.6607   -7.1363 O   0  0  0  0  0  0  0  0  0  0  0  0
   15.4621   -8.3415  -10.4034 C   0  0  0  0  0  0  0  0  0  0  0  0
   16.0971   -9.3520   -9.9562 O   0  0  0  0  0  0  0  0  0  0  0  0
   12.3937   -4.2001   -6.9196 O   0  0  0  0  0  0  0  0  0  0  0  0
   16.0215   -7.7364  -11.5531 N   0  0  0  0  0  0  0  0  0  0  0  0
   17.1790   -8.3175  -12.2630 C   0  0  1  0  0  0  0  0  0  0  0  0
   16.8743   -8.1635  -13.7195 C   0  0  0  0  0  0  0  0  0  0  0  0
   16.1582   -9.2950  -14.3632 C   0  0  0  0  0  0  0  0  0  0  0  0
   15.9228   -8.9776  -15.8186 C   0  0  0  0  0  0  0  0  0  0  0  0
   15.2324  -10.0984  -16.5476 C   0  0  0  0  0  0  0  0  0  0  0  0
   14.0307  -10.4843  -15.8444 N   0  0  0  0  0  0  0  0  0  0  0  0
   18.3920   -7.5002  -11.9442 C   0  0  0  0  0  0  0  0  0  0  0  0
   18.3014   -6.2660  -11.8490 O   0  0  0  0  0  0  0  0  0  0  0  0
   24.0176   -9.0839  -10.0208 C   0  0  0  0  0  0  0  0  0  0  0  0
   23.0704   -7.9386  -10.2757 C   0  0  2  0  0  0  0  0  0  0  0  0
   23.0479   -6.8837   -9.2200 C   0  0  0  0  0  0  0  0  0  0  0  0
   21.7259   -8.3387  -10.7092 C   0  0  0  0  0  0  0  0  0  0  0  0
   20.8312   -7.3570  -11.3698 C   0  0  2  0  0  0  0  0  0  0  0  0
   19.6393   -8.1407  -11.7535 N   0  0  0  0  0  0  0  0  0  0  0  0
   21.3166   -6.7092  -12.5847 C   0  0  0  0  0  0  0  0  0  0  0  0
   21.2152   -7.3192  -13.6907 O   0  0  0  0  0  0  0  0  0  0  0  0
   21.8979   -5.4453  -12.6641 O   0  0  0  0  0  0  0  0  0  0  0  0
  2  1  1  1
  2  7  1  0
  3  2  1  0
  4  3  1  0
  5  4  1  0
  5  9  1  0
  6  5  2  0
  7  8  2  0
 10  7  1  0
 10 11  1  0
 11 12  1  6
 13 14  1  0
 13 12  1  0
 14 15  1  0
 16 15  1  0
 17 11  1  0
 17 18  2  0
 20 19  1  1
 20 21  1  0
 20 22  1  0
 23 22  1  6
 23 24  1  0
 24 17  1  0
 25 27  1  0
 25 23  1  0
 26 25  2  0
M  END
$$$$
