EKL.pdb
     RDKit          3D

 27 26  0  0  1  0  0  0  0  0999 V2000
   19.0650  -26.4126  -10.2145 N   0  0  0  0  0  0  0  0  0  0  0  0
   18.9436  -25.4592   -9.1159 C   0  0  1  0  0  0  0  0  0  0  0  0
   18.2765  -24.2328   -9.6899 C   0  0  0  0  0  0  0  0  0  0  0  0
   18.0431  -23.1812   -8.6189 C   0  0  0  0  0  0  0  0  0  0  0  0
   17.3905  -21.9861   -9.1651 C   0  0  0  0  0  0  0  0  0  0  0  0
   16.1175  -21.9665   -9.2202 O   0  0  0  0  0  0  0  0  0  0  0  0
   18.1870  -26.0959   -8.0334 C   0  0  0  0  0  0  0  0  0  0  0  0
   16.9125  -26.0901   -8.0232 O   0  0  0  0  0  0  0  0  0  0  0  0
   18.0852  -20.8977   -9.6178 O   0  0  0  0  0  0  0  0  0  0  0  0
   18.7971  -26.7527   -6.9392 N   0  0  0  0  0  0  0  0  0  0  0  0
   18.0084  -27.3908   -5.8659 C   0  0  1  0  0  0  0  0  0  0  0  0
   17.9962  -28.8508   -6.1916 C   0  0  0  0  0  0  0  0  0  0  0  0
   17.1596  -29.7114   -5.3160 C   0  0  0  0  0  0  0  0  0  0  0  0
   17.2870  -31.1488   -5.7545 C   0  0  0  0  0  0  0  0  0  0  0  0
   16.4240  -32.0766   -4.9430 C   0  0  0  0  0  0  0  0  0  0  0  0
   16.6245  -33.4427   -5.3680 N   0  0  0  0  0  0  0  0  0  0  0  0
   18.7300  -27.2014   -4.5681 C   0  0  0  0  0  0  0  0  0  0  0  0
   19.9511  -26.9792   -4.5636 O   0  0  0  0  0  0  0  0  0  0  0  0
   17.9647  -25.1491    0.8839 C   0  0  0  0  0  0  0  0  0  0  0  0
   18.9055  -25.9676    0.0360 C   0  0  2  0  0  0  0  0  0  0  0  0
   20.3502  -25.6161    0.1672 C   0  0  0  0  0  0  0  0  0  0  0  0
   18.4852  -26.1350   -1.3607 C   0  0  0  0  0  0  0  0  0  0  0  0
   18.7343  -27.4154   -2.0673 C   0  0  2  0  0  0  0  0  0  0  0  0
   18.0144  -27.2777   -3.3497 N   0  0  0  0  0  0  0  0  0  0  0  0
   18.2458  -28.6404   -1.4410 C   0  0  0  0  0  0  0  0  0  0  0  0
   19.0288  -29.3095   -0.7029 O   0  0  0  0  0  0  0  0  0  0  0  0
   16.9641  -29.1719   -1.5686 O   0  0  0  0  0  0  0  0  0  0  0  0
  2  1  1  6
  2  7  1  0
  3  2  1  0
  4  3  1  0
  5  4  1  0
  5  9  1  0
  6  5  2  0
  7  8  2  0
 10  7  1  0
 10 11  1  0
 11 12  1  6
 13 14  1  0
 13 12  1  0
 14 15  1  0
 16 15  1  0
 17 11  1  0
 17 18  2  0
 20 19  1  6
 20 21  1  0
 20 22  1  0
 23 22  1  1
 23 24  1  0
 24 17  1  0
 25 27  1  0
 25 23  1  0
 26 25  2  0
M  END
$$$$
