EKL.pdb
     RDKit          3D

 27 26  0  0  1  0  0  0  0  0999 V2000
   20.2139  -21.8656  -15.5603 N   0  0  0  0  0  0  0  0  0  0  0  0
   20.7125  -20.9902  -14.5039 C   0  0  1  0  0  0  0  0  0  0  0  0
   19.8043  -21.1981  -13.3163 C   0  0  0  0  0  0  0  0  0  0  0  0
   18.4563  -20.5317  -13.5310 C   0  0  0  0  0  0  0  0  0  0  0  0
   18.5366  -19.0769  -13.3583 C   0  0  0  0  0  0  0  0  0  0  0  0
   18.9789  -18.3784  -14.3280 O   0  0  0  0  0  0  0  0  0  0  0  0
   22.1154  -21.3302  -14.2462 C   0  0  0  0  0  0  0  0  0  0  0  0
   22.4340  -22.2511  -13.4247 O   0  0  0  0  0  0  0  0  0  0  0  0
   18.1615  -18.4405  -12.2066 O   0  0  0  0  0  0  0  0  0  0  0  0
   23.2021  -20.6784  -14.8747 N   0  0  0  0  0  0  0  0  0  0  0  0
   24.6045  -21.0661  -14.6214 C   0  0  1  0  0  0  0  0  0  0  0  0
   25.3959  -20.4579  -15.7357 C   0  0  0  0  0  0  0  0  0  0  0  0
   25.7666  -21.3680  -16.8500 C   0  0  0  0  0  0  0  0  0  0  0  0
   26.6490  -20.6324  -17.8271 C   0  0  0  0  0  0  0  0  0  0  0  0
   27.0614  -21.4929  -18.9905 C   0  0  0  0  0  0  0  0  0  0  0  0
   27.7852  -20.7047  -19.9612 N   0  0  0  0  0  0  0  0  0  0  0  0
   25.0451  -20.4435  -13.3332 C   0  0  0  0  0  0  0  0  0  0  0  0
   24.3765  -19.5297  -12.8250 O   0  0  0  0  0  0  0  0  0  0  0  0
   27.0212  -20.7845   -8.4398 C   0  0  0  0  0  0  0  0  0  0  0  0
   25.6700  -20.4644   -9.0276 C   0  0  2  0  0  0  0  0  0  0  0  0
   24.5007  -20.9603   -8.2435 C   0  0  0  0  0  0  0  0  0  0  0  0
   25.5465  -20.7340  -10.4656 C   0  0  0  0  0  0  0  0  0  0  0  0
   26.6362  -20.3463  -11.3944 C   0  0  2  0  0  0  0  0  0  0  0  0
   26.2253  -20.9007  -12.7005 N   0  0  0  0  0  0  0  0  0  0  0  0
   27.9742  -20.8628  -11.1213 C   0  0  0  0  0  0  0  0  0  0  0  0
   28.7920  -20.1432  -10.4741 O   0  0  0  0  0  0  0  0  0  0  0  0
   28.4670  -22.1080  -11.5064 O   0  0  0  0  0  0  0  0  0  0  0  0
  2  1  1  6
  2  7  1  0
  3  2  1  0
  4  3  1  0
  5  4  1  0
  5  9  1  0
  6  5  2  0
  7  8  2  0
 10  7  1  0
 10 11  1  0
 11 12  1  6
 13 14  1  0
 13 12  1  0
 14 15  1  0
 16 15  1  0
 17 11  1  0
 17 18  2  0
 20 19  1  1
 20 21  1  0
 20 22  1  0
 23 22  1  1
 23 24  1  0
 24 17  1  0
 25 27  1  0
 25 23  1  0
 26 25  2  0
M  END
$$$$
