EKL.pdb
     RDKit          3D

 27 26  0  0  1  0  0  0  0  0999 V2000
   17.5327  -14.3198  -17.5519 N   0  0  0  0  0  0  0  0  0  0  0  0
   18.9026  -14.0274  -17.9623 C   0  0  1  0  0  0  0  0  0  0  0  0
   19.0712  -14.6274  -19.3371 C   0  0  0  0  0  0  0  0  0  0  0  0
   17.9619  -14.1790  -20.2730 C   0  0  0  0  0  0  0  0  0  0  0  0
   18.1517  -14.7037  -21.6299 C   0  0  0  0  0  0  0  0  0  0  0  0
   17.1609  -15.2633  -22.2038 O   0  0  0  0  0  0  0  0  0  0  0  0
   19.0974  -12.5747  -17.9197 C   0  0  0  0  0  0  0  0  0  0  0  0
   20.2436  -12.0537  -18.1175 O   0  0  0  0  0  0  0  0  0  0  0  0
   19.3405  -14.6211  -22.3023 O   0  0  0  0  0  0  0  0  0  0  0  0
   18.0525  -11.6567  -17.6619 N   0  0  0  0  0  0  0  0  0  0  0  0
   18.2800  -10.1981  -17.6200 C   0  0  1  0  0  0  0  0  0  0  0  0
   16.9276   -9.5869  -17.4323 C   0  0  0  0  0  0  0  0  0  0  0  0
   16.3753   -8.8459  -18.5956 C   0  0  0  0  0  0  0  0  0  0  0  0
   15.0428   -8.2461  -18.2225 C   0  0  0  0  0  0  0  0  0  0  0  0
   14.4627   -7.4024  -19.3251 C   0  0  0  0  0  0  0  0  0  0  0  0
   13.2382   -6.7766  -18.8818 N   0  0  0  0  0  0  0  0  0  0  0  0
   19.1139   -9.8808  -16.4179 C   0  0  0  0  0  0  0  0  0  0  0  0
   19.0701  -10.6178  -15.4202 O   0  0  0  0  0  0  0  0  0  0  0  0
   23.9229  -10.9636  -14.8501 C   0  0  0  0  0  0  0  0  0  0  0  0
   22.9646   -9.8508  -14.5074 C   0  0  2  0  0  0  0  0  0  0  0  0
   22.5696   -9.7706  -13.0703 C   0  0  0  0  0  0  0  0  0  0  0  0
   21.8216   -9.7221  -15.4198 C   0  0  0  0  0  0  0  0  0  0  0  0
   20.9405   -8.5308  -15.3498 C   0  0  2  0  0  0  0  0  0  0  0  0
   19.9492   -8.7386  -16.4250 N   0  0  0  0  0  0  0  0  0  0  0  0
   21.5483   -7.2245  -15.5860 C   0  0  0  0  0  0  0  0  0  0  0  0
   21.7470   -6.8441  -16.7782 O   0  0  0  0  0  0  0  0  0  0  0  0
   21.9456   -6.3158  -14.6073 O   0  0  0  0  0  0  0  0  0  0  0  0
  2  1  1  6
  2  7  1  0
  3  2  1  0
  4  3  1  0
  5  4  1  0
  5  9  1  0
  6  5  2  0
  7  8  2  0
 10  7  1  0
 10 11  1  0
 11 12  1  1
 13 14  1  0
 13 12  1  0
 14 15  1  0
 16 15  1  0
 17 11  1  0
 17 18  2  0
 20 19  1  1
 20 21  1  0
 20 22  1  0
 23 22  1  6
 23 24  1  0
 24 17  1  0
 25 27  1  0
 25 23  1  0
 26 25  2  0
M  END
$$$$
