EKL.pdb
     RDKit          3D

 27 26  0  0  1  0  0  0  0  0999 V2000
   27.5639  -20.9523  -15.1458 N   0  0  0  0  0  0  0  0  0  0  0  0
   28.0215  -19.7467  -14.4617 C   0  0  1  0  0  0  0  0  0  0  0  0
   27.9068  -18.6218  -15.4616 C   0  0  0  0  0  0  0  0  0  0  0  0
   28.6058  -18.9701  -16.7644 C   0  0  0  0  0  0  0  0  0  0  0  0
   28.5670  -17.8542  -17.7163 C   0  0  0  0  0  0  0  0  0  0  0  0
   27.5987  -17.0294  -17.6388 O   0  0  0  0  0  0  0  0  0  0  0  0
   27.2033  -19.5592  -13.2595 C   0  0  0  0  0  0  0  0  0  0  0  0
   26.8264  -18.3995  -12.8886 O   0  0  0  0  0  0  0  0  0  0  0  0
   29.5189  -17.6624  -18.6802 O   0  0  0  0  0  0  0  0  0  0  0  0
   26.7766  -20.6260  -12.4344 N   0  0  0  0  0  0  0  0  0  0  0  0
   25.9143  -20.4113  -11.2547 C   0  0  1  0  0  0  0  0  0  0  0  0
   24.5888  -21.0043  -11.6140 C   0  0  0  0  0  0  0  0  0  0  0  0
   23.9476  -20.4790  -12.8470 C   0  0  0  0  0  0  0  0  0  0  0  0
   22.6641  -21.2282  -13.1039 C   0  0  0  0  0  0  0  0  0  0  0  0
   21.8766  -20.6455  -14.2461 C   0  0  0  0  0  0  0  0  0  0  0  0
   20.6718  -21.4127  -14.4631 N   0  0  0  0  0  0  0  0  0  0  0  0
   26.4817  -21.1826  -10.1039 C   0  0  0  0  0  0  0  0  0  0  0  0
   27.5302  -21.8309  -10.2481 O   0  0  0  0  0  0  0  0  0  0  0  0
   29.2656  -20.4519   -6.2683 C   0  0  0  0  0  0  0  0  0  0  0  0
   28.2692  -19.3895   -6.6586 C   0  0  2  0  0  0  0  0  0  0  0  0
   27.6073  -18.6879   -5.5196 C   0  0  0  0  0  0  0  0  0  0  0  0
   27.3228  -19.7909   -7.7069 C   0  0  0  0  0  0  0  0  0  0  0  0
   26.5889  -21.0755   -7.5985 C   0  0  2  0  0  0  0  0  0  0  0  0
   25.8173  -21.1692   -8.8546 N   0  0  0  0  0  0  0  0  0  0  0  0
   25.6311  -21.2178   -6.5059 C   0  0  0  0  0  0  0  0  0  0  0  0
   25.9802  -21.8381   -5.4576 O   0  0  0  0  0  0  0  0  0  0  0  0
   24.3279  -20.7250   -6.4883 O   0  0  0  0  0  0  0  0  0  0  0  0
  2  1  1  6
  2  7  1  0
  3  2  1  0
  4  3  1  0
  5  4  1  0
  5  9  1  0
  6  5  2  0
  7  8  2  0
 10  7  1  0
 10 11  1  0
 11 12  1  6
 13 14  1  0
 13 12  1  0
 14 15  1  0
 16 15  1  0
 17 11  1  0
 17 18  2  0
 20 19  1  1
 20 21  1  0
 20 22  1  0
 23 22  1  1
 23 24  1  0
 24 17  1  0
 25 27  1  0
 25 23  1  0
 26 25  2  0
M  END
$$$$
