EKL.pdb
     RDKit          3D

 27 26  0  0  1  0  0  0  0  0999 V2000
   27.5570  -21.5998  -14.6410 N   0  0  0  0  0  0  0  0  0  0  0  0
   27.9716  -20.2538  -14.2573 C   0  0  1  0  0  0  0  0  0  0  0  0
   27.7735  -19.3851  -15.4757 C   0  0  0  0  0  0  0  0  0  0  0  0
   27.1812  -20.1790  -16.6273 C   0  0  0  0  0  0  0  0  0  0  0  0
   27.6920  -19.7183  -17.9233 C   0  0  0  0  0  0  0  0  0  0  0  0
   27.2653  -18.6073  -18.3788 O   0  0  0  0  0  0  0  0  0  0  0  0
   27.1778  -19.8394  -13.0963 C   0  0  0  0  0  0  0  0  0  0  0  0
   27.2143  -18.6417  -12.6619 O   0  0  0  0  0  0  0  0  0  0  0  0
   28.6002  -20.4268  -18.6618 O   0  0  0  0  0  0  0  0  0  0  0  0
   26.3274  -20.7157  -12.3822 N   0  0  0  0  0  0  0  0  0  0  0  0
   25.5229  -20.2643  -11.2289 C   0  0  1  0  0  0  0  0  0  0  0  0
   24.1535  -20.8235  -11.4521 C   0  0  0  0  0  0  0  0  0  0  0  0
   23.3419  -20.1687  -12.5103 C   0  0  0  0  0  0  0  0  0  0  0  0
   21.9871  -20.8272  -12.5841 C   0  0  0  0  0  0  0  0  0  0  0  0
   21.0930  -20.1902  -13.6132 C   0  0  0  0  0  0  0  0  0  0  0  0
   19.8269  -20.8836  -13.6707 N   0  0  0  0  0  0  0  0  0  0  0  0
   26.0877  -20.8776   -9.9855 C   0  0  0  0  0  0  0  0  0  0  0  0
   26.6449  -21.9854  -10.0378 O   0  0  0  0  0  0  0  0  0  0  0  0
   27.5393  -20.5512   -4.6516 C   0  0  0  0  0  0  0  0  0  0  0  0
   28.2741  -19.9208   -5.8077 C   0  0  2  0  0  0  0  0  0  0  0  0
   29.1305  -18.7501   -5.4557 C   0  0  0  0  0  0  0  0  0  0  0  0
   27.4536  -19.6869   -7.0025 C   0  0  0  0  0  0  0  0  0  0  0  0
   26.5732  -20.7601   -7.5257 C   0  0  2  0  0  0  0  0  0  0  0  0
   25.9822  -20.1896   -8.7535 N   0  0  0  0  0  0  0  0  0  0  0  0
   25.4601  -21.1922   -6.6856 C   0  0  0  0  0  0  0  0  0  0  0  0
   24.3016  -20.7320   -6.9134 O   0  0  0  0  0  0  0  0  0  0  0  0
   25.5349  -22.0910   -5.6235 O   0  0  0  0  0  0  0  0  0  0  0  0
  2  1  1  6
  2  7  1  0
  3  2  1  0
  4  3  1  0
  5  4  1  0
  5  9  1  0
  6  5  2  0
  7  8  2  0
 10  7  1  0
 10 11  1  0
 11 12  1  6
 13 14  1  0
 13 12  1  0
 14 15  1  0
 16 15  1  0
 17 11  1  0
 17 18  2  0
 20 19  1  1
 20 21  1  0
 20 22  1  0
 23 22  1  1
 23 24  1  0
 24 17  1  0
 25 27  1  0
 25 23  1  0
 26 25  2  0
M  END
$$$$
