IWH.pdb
     RDKit          3D

 33 35  0  0  1  0  0  0  0  0999 V2000
    7.4988  -12.2191   20.4201 C   0  0  0  0  0  0  0  0  0  0  0  0
    7.3790  -13.6331   20.9974 C   0  0  0  0  0  0  0  0  0  0  0  0
    8.4682  -14.4483   20.3758 C   0  0  2  0  0  0  0  0  0  0  0  0
    8.1280  -14.5604   18.8837 C   0  0  0  0  0  0  0  0  0  0  0  0
    8.5908  -15.8353   20.9131 C   0  0  2  0  0  0  0  0  0  0  0  0
    7.3851  -16.6152   20.8184 N   0  0  0  0  0  0  0  0  0  0  0  0
    9.0635  -15.8803   22.3109 C   0  0  0  0  0  0  0  0  0  0  0  0
   10.1447  -15.2990   22.6681 O   0  0  0  0  0  0  0  0  0  0  0  0
    8.3767  -16.5564   23.3554 N   0  0  0  0  0  0  0  0  0  0  0  0
    8.8554  -16.6942   24.6890 C   0  0  1  0  0  0  0  0  0  0  0  0
    7.8287  -16.5493   25.7661 C   0  0  0  0  0  0  0  0  0  0  0  0
    7.1543  -15.2256   25.7115 C   0  0  0  0  0  0  0  0  0  0  0  0
    5.8846  -14.9810   25.1677 C   0  0  0  0  0  0  0  0  0  0  0  0
    5.5919  -13.6813   25.3140 N   0  0  0  0  0  0  0  0  0  0  0  0
    6.6131  -13.0512   25.9315 C   0  0  0  0  0  0  0  0  0  0  0  0
    6.7629  -11.7089   26.2884 C   0  0  0  0  0  0  0  0  0  0  0  0
    7.9240  -11.3190   26.9116 C   0  0  0  0  0  0  0  0  0  0  0  0
    8.8898  -12.2694   27.1567 C   0  0  0  0  0  0  0  0  0  0  0  0
    8.7423  -13.5912   26.8054 C   0  0  0  0  0  0  0  0  0  0  0  0
    7.5755  -13.9987   26.1767 C   0  0  0  0  0  0  0  0  0  0  0  0
    9.7040  -17.8860   24.8914 C   0  0  0  0  0  0  0  0  0  0  0  0
    9.2326  -19.0313   24.7572 O   0  0  0  0  0  0  0  0  0  0  0  0
   11.0596  -17.7152   25.2397 N   0  0  0  0  0  0  0  0  0  0  0  0
   11.9187  -18.8820   25.4417 C   0  0  1  0  0  0  0  0  0  0  0  0
   13.3471  -18.5528   25.0861 C   0  0  0  0  0  0  0  0  0  0  0  0
   13.5207  -18.0973   23.6947 C   0  0  0  0  0  0  0  0  0  0  0  0
   12.8641  -18.4886   22.5491 C   0  0  0  0  0  0  0  0  0  0  0  0
   13.3767  -17.8035   21.4989 N   0  0  0  0  0  0  0  0  0  0  0  0
   14.3272  -17.0039   21.9600 C   0  0  0  0  0  0  0  0  0  0  0  0
   14.4285  -17.1685   23.2890 N   0  0  0  0  0  0  0  0  0  0  0  0
   11.8660  -19.2743   26.8696 C   0  0  0  0  0  0  0  0  0  0  0  0
   11.0988  -18.6614   27.8261 O   0  0  0  0  0  0  0  0  0  0  0  0
   12.5777  -20.2542   27.2808 O   0  0  0  0  0  0  0  0  0  0  0  0
  2  1  1  0
  3  2  1  0
  3  4  1  6
  5  3  1  0
  5  6  1  1
  7  5  1  0
  7  8  2  0
  9  7  1  0
 10  9  1  0
 11 12  1  0
 10 11  1  1
 12 20  1  0
 13 12  2  0
 13 14  1  0
 14 15  1  0
 15 16  1  0
 16 17  2  0
 18 17  1  0
 19 18  2  0
 20 15  2  0
 20 19  1  0
 21 23  1  0
 21 10  1  0
 22 21  2  0
 24 23  1  0
 24 25  1  1
 25 26  1  0
 26 27  2  0
 27 28  1  0
 29 28  1  0
 30 26  1  0
 30 29  2  0
 31 24  1  0
 32 31  1  0
 33 31  2  0
M  END
$$$$
