IWH.pdb
     RDKit          3D

 33 35  0  0  1  0  0  0  0  0999 V2000
    7.4293  -13.0709   16.1200 C   0  0  0  0  0  0  0  0  0  0  0  0
    8.4722  -14.0178   16.7224 C   0  0  0  0  0  0  0  0  0  0  0  0
    8.2784  -13.9884   18.2053 C   0  0  2  0  0  0  0  0  0  0  0  0
    8.6557  -12.5734   18.6638 C   0  0  0  0  0  0  0  0  0  0  0  0
    9.1335  -14.9483   18.9635 C   0  0  2  0  0  0  0  0  0  0  0  0
    8.8797  -16.3323   18.6619 N   0  0  0  0  0  0  0  0  0  0  0  0
    9.0543  -14.7707   20.4269 C   0  0  0  0  0  0  0  0  0  0  0  0
    9.5075  -13.7196   20.9964 O   0  0  0  0  0  0  0  0  0  0  0  0
    8.4828  -15.7275   21.3088 N   0  0  0  0  0  0  0  0  0  0  0  0
    8.3838  -15.5764   22.7209 C   0  0  1  0  0  0  0  0  0  0  0  0
    7.0042  -15.6715   23.2892 C   0  0  0  0  0  0  0  0  0  0  0  0
    6.9602  -15.2314   24.7085 C   0  0  0  0  0  0  0  0  0  0  0  0
    6.7720  -16.0720   25.8156 C   0  0  0  0  0  0  0  0  0  0  0  0
    6.8132  -15.3341   26.9338 N   0  0  0  0  0  0  0  0  0  0  0  0
    7.0202  -14.0388   26.6172 C   0  0  0  0  0  0  0  0  0  0  0  0
    7.1293  -12.9142   27.4389 C   0  0  0  0  0  0  0  0  0  0  0  0
    7.3353  -11.6883   26.8532 C   0  0  0  0  0  0  0  0  0  0  0  0
    7.4250  -11.6221   25.4806 C   0  0  0  0  0  0  0  0  0  0  0  0
    7.3178  -12.7294   24.6716 C   0  0  0  0  0  0  0  0  0  0  0  0
    7.1106  -13.9728   25.2491 C   0  0  0  0  0  0  0  0  0  0  0  0
    9.3491  -16.4039   23.4723 C   0  0  0  0  0  0  0  0  0  0  0  0
    9.0782  -17.5829   23.7697 O   0  0  0  0  0  0  0  0  0  0  0  0
   10.5866  -15.8448   23.8521 N   0  0  0  0  0  0  0  0  0  0  0  0
   11.0783  -16.0101   25.2201 C   0  0  1  0  0  0  0  0  0  0  0  0
   10.1277  -15.3727   26.2026 C   0  0  0  0  0  0  0  0  0  0  0  0
   10.5680  -15.4781   27.6056 C   0  0  0  0  0  0  0  0  0  0  0  0
   11.6826  -16.0872   28.1378 C   0  0  0  0  0  0  0  0  0  0  0  0
   11.6571  -15.9399   29.4842 N   0  0  0  0  0  0  0  0  0  0  0  0
   10.5637  -15.2607   29.7983 C   0  0  0  0  0  0  0  0  0  0  0  0
    9.8912  -14.9723   28.6722 N   0  0  0  0  0  0  0  0  0  0  0  0
   11.1714  -17.4573   25.5241 C   0  0  0  0  0  0  0  0  0  0  0  0
   11.9233  -18.0027   26.5322 O   0  0  0  0  0  0  0  0  0  0  0  0
   10.5158  -18.2943   24.8130 O   0  0  0  0  0  0  0  0  0  0  0  0
  2  1  1  0
  3  2  1  0
  3  4  1  1
  5  3  1  0
  5  6  1  1
  7  5  1  0
  7  8  2  0
  9  7  1  0
 10  9  1  0
 11 12  1  0
 10 11  1  1
 12 20  1  0
 13 12  2  0
 13 14  1  0
 14 15  1  0
 15 16  1  0
 16 17  2  0
 18 17  1  0
 19 18  2  0
 20 15  2  0
 20 19  1  0
 21 23  1  0
 21 10  1  0
 22 21  2  0
 24 23  1  0
 24 25  1  1
 25 26  1  0
 26 27  2  0
 27 28  1  0
 29 28  1  0
 30 26  1  0
 30 29  2  0
 31 24  1  0
 32 31  1  0
 33 31  2  0
M  END
$$$$
