IWH.pdb
     RDKit          3D

 33 35  0  0  1  0  0  0  0  0999 V2000
    6.2530  -12.4937   18.9601 C   0  0  0  0  0  0  0  0  0  0  0  0
    6.7428  -13.9324   19.1532 C   0  0  0  0  0  0  0  0  0  0  0  0
    7.5531  -13.9488   20.4104 C   0  0  2  0  0  0  0  0  0  0  0  0
    8.7190  -12.9764   20.1875 C   0  0  0  0  0  0  0  0  0  0  0  0
    8.1375  -15.2778   20.7564 C   0  0  2  0  0  0  0  0  0  0  0  0
    7.1639  -16.3185   20.9553 N   0  0  0  0  0  0  0  0  0  0  0  0
    9.0208  -15.2373   21.9386 C   0  0  0  0  0  0  0  0  0  0  0  0
   10.1085  -14.5653   21.9355 O   0  0  0  0  0  0  0  0  0  0  0  0
    8.7475  -15.9240   23.1525 N   0  0  0  0  0  0  0  0  0  0  0  0
    9.6236  -15.9765   24.2734 C   0  0  1  0  0  0  0  0  0  0  0  0
    8.9780  -16.2724   25.5891 C   0  0  0  0  0  0  0  0  0  0  0  0
    7.8084  -15.3901   25.8411 C   0  0  0  0  0  0  0  0  0  0  0  0
    6.4638  -15.7557   25.6801 C   0  0  0  0  0  0  0  0  0  0  0  0
    5.6872  -14.7178   26.0211 N   0  0  0  0  0  0  0  0  0  0  0  0
    6.4582  -13.6777   26.4014 C   0  0  0  0  0  0  0  0  0  0  0  0
    6.1004  -12.3974   26.8308 C   0  0  0  0  0  0  0  0  0  0  0  0
    7.0976  -11.5096   27.1567 C   0  0  0  0  0  0  0  0  0  0  0  0
    8.4068  -11.9214   27.0453 C   0  0  0  0  0  0  0  0  0  0  0  0
    8.7592  -13.1822   26.6226 C   0  0  0  0  0  0  0  0  0  0  0  0
    7.7634  -14.0884   26.2912 C   0  0  0  0  0  0  0  0  0  0  0  0
   10.8228  -16.8083   24.0469 C   0  0  0  0  0  0  0  0  0  0  0  0
   10.7165  -18.0314   23.8358 O   0  0  0  0  0  0  0  0  0  0  0  0
   12.0959  -16.2026   24.0719 N   0  0  0  0  0  0  0  0  0  0  0  0
   13.2975  -17.0098   23.8602 C   0  0  1  0  0  0  0  0  0  0  0  0
   14.4729  -16.1268   23.5226 C   0  0  0  0  0  0  0  0  0  0  0  0
   15.7467  -16.8587   23.3987 C   0  0  0  0  0  0  0  0  0  0  0  0
   16.0066  -18.2056   23.5208 C   0  0  0  0  0  0  0  0  0  0  0  0
   17.3336  -18.4101   23.3410 N   0  0  0  0  0  0  0  0  0  0  0  0
   17.8991  -17.2338   23.1127 C   0  0  0  0  0  0  0  0  0  0  0  0
   16.9524  -16.2817   23.1440 N   0  0  0  0  0  0  0  0  0  0  0  0
   13.6046  -17.7481   25.1077 C   0  0  0  0  0  0  0  0  0  0  0  0
   13.1846  -17.3845   26.3608 O   0  0  0  0  0  0  0  0  0  0  0  0
   14.3147  -18.8105   25.0528 O   0  0  0  0  0  0  0  0  0  0  0  0
  2  1  1  0
  3  2  1  0
  3  4  1  6
  5  3  1  0
  5  6  1  1
  7  5  1  0
  7  8  2  0
  9  7  1  0
 10  9  1  0
 11 12  1  0
 10 11  1  1
 12 20  1  0
 13 12  2  0
 13 14  1  0
 14 15  1  0
 15 16  1  0
 16 17  2  0
 18 17  1  0
 19 18  2  0
 20 15  2  0
 20 19  1  0
 21 23  1  0
 21 10  1  0
 22 21  2  0
 24 23  1  0
 24 25  1  1
 25 26  1  0
 26 27  2  0
 27 28  1  0
 29 28  1  0
 30 26  1  0
 30 29  2  0
 31 24  1  0
 32 31  1  0
 33 31  2  0
M  END
$$$$
