IWH.pdb
     RDKit          3D

 33 35  0  0  1  0  0  0  0  0999 V2000
    6.9126  -11.9592   19.5363 C   0  0  0  0  0  0  0  0  0  0  0  0
    7.1893  -13.4660   19.5500 C   0  0  0  0  0  0  0  0  0  0  0  0
    7.8584  -13.7715   20.8524 C   0  0  2  0  0  0  0  0  0  0  0  0
    9.1886  -13.0065   20.8463 C   0  0  0  0  0  0  0  0  0  0  0  0
    8.1723  -15.2147   21.0669 C   0  0  2  0  0  0  0  0  0  0  0  0
    7.0291  -16.0858   20.9949 N   0  0  0  0  0  0  0  0  0  0  0  0
    8.8754  -15.4767   22.3383 C   0  0  0  0  0  0  0  0  0  0  0  0
    9.9490  -14.8549   22.6468 O   0  0  0  0  0  0  0  0  0  0  0  0
    8.4327  -16.4189   23.3059 N   0  0  0  0  0  0  0  0  0  0  0  0
    9.0893  -16.6882   24.5400 C   0  0  1  0  0  0  0  0  0  0  0  0
    8.2173  -16.6824   25.7546 C   0  0  0  0  0  0  0  0  0  0  0  0
    7.3279  -15.4918   25.7901 C   0  0  0  0  0  0  0  0  0  0  0  0
    5.9770  -15.4737   25.4126 C   0  0  0  0  0  0  0  0  0  0  0  0
    5.4901  -14.2389   25.5989 N   0  0  0  0  0  0  0  0  0  0  0  0
    6.4597  -13.4352   26.0836 C   0  0  0  0  0  0  0  0  0  0  0  0
    6.4246  -12.0805   26.4227 C   0  0  0  0  0  0  0  0  0  0  0  0
    7.5723  -11.4900   26.8946 C   0  0  0  0  0  0  0  0  0  0  0  0
    8.7077  -12.2603   27.0121 C   0  0  0  0  0  0  0  0  0  0  0  0
    8.7422  -13.5943   26.6784 C   0  0  0  0  0  0  0  0  0  0  0  0
    7.5913  -14.2033   26.2017 C   0  0  0  0  0  0  0  0  0  0  0  0
    9.9665  -17.8756   24.4953 C   0  0  0  0  0  0  0  0  0  0  0  0
    9.5236  -18.9783   24.1215 O   0  0  0  0  0  0  0  0  0  0  0  0
   11.3167  -17.7494   24.8814 N   0  0  0  0  0  0  0  0  0  0  0  0
   12.1603  -18.9385   25.0020 C   0  0  1  0  0  0  0  0  0  0  0  0
   13.4687  -18.7320   24.2804 C   0  0  0  0  0  0  0  0  0  0  0  0
   13.3116  -18.2443   22.8980 C   0  0  0  0  0  0  0  0  0  0  0  0
   12.6744  -18.8248   21.8239 C   0  0  0  0  0  0  0  0  0  0  0  0
   12.8060  -18.0111   20.7489 N   0  0  0  0  0  0  0  0  0  0  0  0
   13.5032  -16.9493   21.1255 C   0  0  0  0  0  0  0  0  0  0  0  0
   13.8184  -17.0733   22.4251 N   0  0  0  0  0  0  0  0  0  0  0  0
   12.4450  -19.1805   26.4359 C   0  0  0  0  0  0  0  0  0  0  0  0
   12.0049  -18.3943   27.4689 O   0  0  0  0  0  0  0  0  0  0  0  0
   13.1536  -20.1894   26.7763 O   0  0  0  0  0  0  0  0  0  0  0  0
  2  1  1  0
  3  2  1  0
  3  4  1  6
  5  3  1  0
  5  6  1  1
  7  5  1  0
  7  8  2  0
  9  7  1  0
 10  9  1  0
 11 12  1  0
 10 11  1  1
 12 20  1  0
 13 12  2  0
 13 14  1  0
 14 15  1  0
 15 16  1  0
 16 17  2  0
 18 17  1  0
 19 18  2  0
 20 15  2  0
 20 19  1  0
 21 23  1  0
 21 10  1  0
 22 21  2  0
 24 23  1  0
 24 25  1  6
 25 26  1  0
 26 27  2  0
 27 28  1  0
 29 28  1  0
 30 26  1  0
 30 29  2  0
 31 24  1  0
 32 31  1  0
 33 31  2  0
M  END
$$$$
