IWH.pdb
     RDKit          3D

 33 35  0  0  1  0  0  0  0  0999 V2000
    6.1001  -19.2914   19.6123 C   0  0  0  0  0  0  0  0  0  0  0  0
    6.7312  -17.8968   19.6769 C   0  0  0  0  0  0  0  0  0  0  0  0
    7.5381  -17.8447   20.9353 C   0  0  2  0  0  0  0  0  0  0  0  0
    6.5402  -17.9606   22.0952 C   0  0  0  0  0  0  0  0  0  0  0  0
    8.3063  -16.5800   21.1296 C   0  0  2  0  0  0  0  0  0  0  0  0
    9.1676  -16.2361   20.0293 N   0  0  0  0  0  0  0  0  0  0  0  0
    9.1097  -16.5692   22.3681 C   0  0  0  0  0  0  0  0  0  0  0  0
   10.2258  -17.1881   22.4442 O   0  0  0  0  0  0  0  0  0  0  0  0
    8.7233  -15.8881   23.5541 N   0  0  0  0  0  0  0  0  0  0  0  0
    9.2926  -16.1062   24.8406 C   0  0  1  0  0  0  0  0  0  0  0  0
    9.2240  -14.9498   25.7859 C   0  0  0  0  0  0  0  0  0  0  0  0
    7.8667  -14.3446   25.8202 C   0  0  0  0  0  0  0  0  0  0  0  0
    6.6614  -15.0548   25.9226 C   0  0  0  0  0  0  0  0  0  0  0  0
    5.6438  -14.1828   25.9491 N   0  0  0  0  0  0  0  0  0  0  0  0
    6.1211  -12.9232   25.8682 C   0  0  0  0  0  0  0  0  0  0  0  0
    5.4458  -11.7004   25.8534 C   0  0  0  0  0  0  0  0  0  0  0  0
    6.1809  -10.5435   25.7542 C   0  0  0  0  0  0  0  0  0  0  0  0
    7.5521  -10.6406   25.6732 C   0  0  0  0  0  0  0  0  0  0  0  0
    8.2171  -11.8447   25.6879 C   0  0  0  0  0  0  0  0  0  0  0  0
    7.4881  -13.0199   25.7884 C   0  0  0  0  0  0  0  0  0  0  0  0
    8.8528  -17.3653   25.4750 C   0  0  0  0  0  0  0  0  0  0  0  0
    7.6422  -17.6492   25.5502 O   0  0  0  0  0  0  0  0  0  0  0  0
    9.8204  -18.2478   25.9977 N   0  0  0  0  0  0  0  0  0  0  0  0
    9.4422  -19.2397   27.0044 C   0  0  1  0  0  0  0  0  0  0  0  0
    8.7374  -20.4056   26.3569 C   0  0  0  0  0  0  0  0  0  0  0  0
    9.4141  -20.9087   25.1476 C   0  0  0  0  0  0  0  0  0  0  0  0
   10.4608  -20.3701   24.4327 C   0  0  0  0  0  0  0  0  0  0  0  0
   10.7324  -21.1811   23.3822 N   0  0  0  0  0  0  0  0  0  0  0  0
    9.8875  -22.2008   23.4266 C   0  0  0  0  0  0  0  0  0  0  0  0
    9.0809  -22.0525   24.4900 N   0  0  0  0  0  0  0  0  0  0  0  0
   10.6686  -19.7393   27.6691 C   0  0  0  0  0  0  0  0  0  0  0  0
   11.9369  -19.2773   27.4301 O   0  0  0  0  0  0  0  0  0  0  0  0
   10.5788  -20.6740   28.5376 O   0  0  0  0  0  0  0  0  0  0  0  0
  2  1  1  0
  3  2  1  0
  3  4  1  1
  5  3  1  0
  5  6  1  6
  7  5  1  0
  7  8  2  0
  9  7  1  0
 10  9  1  0
 11 12  1  0
 10 11  1  1
 12 20  1  0
 13 12  2  0
 13 14  1  0
 14 15  1  0
 15 16  1  0
 16 17  2  0
 18 17  1  0
 19 18  2  0
 20 15  2  0
 20 19  1  0
 21 23  1  0
 21 10  1  0
 22 21  2  0
 24 23  1  0
 24 25  1  6
 25 26  1  0
 26 27  2  0
 27 28  1  0
 29 28  1  0
 30 26  1  0
 30 29  2  0
 31 24  1  0
 32 31  1  0
 33 31  2  0
M  END
$$$$
