IWH.pdb
     RDKit          3D

 33 35  0  0  1  0  0  0  0  0999 V2000
    7.7470  -18.1422   17.3688 C   0  0  0  0  0  0  0  0  0  0  0  0
    6.9065  -17.4553   18.4501 C   0  0  0  0  0  0  0  0  0  0  0  0
    7.8640  -16.9129   19.4632 C   0  0  2  0  0  0  0  0  0  0  0  0
    8.5425  -18.1267   20.1119 C   0  0  0  0  0  0  0  0  0  0  0  0
    7.2296  -16.1172   20.5549 C   0  0  2  0  0  0  0  0  0  0  0  0
    6.5578  -14.9266   20.1056 N   0  0  0  0  0  0  0  0  0  0  0  0
    8.1725  -15.7409   21.6267 C   0  0  0  0  0  0  0  0  0  0  0  0
    8.9390  -14.7239   21.5136 O   0  0  0  0  0  0  0  0  0  0  0  0
    8.3082  -16.4573   22.8466 N   0  0  0  0  0  0  0  0  0  0  0  0
    9.2349  -16.1387   23.8793 C   0  0  1  0  0  0  0  0  0  0  0  0
    8.7200  -16.2686   25.2770 C   0  0  0  0  0  0  0  0  0  0  0  0
    7.5795  -15.3500   25.5329 C   0  0  0  0  0  0  0  0  0  0  0  0
    6.2232  -15.7055   25.4910 C   0  0  0  0  0  0  0  0  0  0  0  0
    5.4826  -14.6311   25.7970 N   0  0  0  0  0  0  0  0  0  0  0  0
    6.2886  -13.5764   26.0399 C   0  0  0  0  0  0  0  0  0  0  0  0
    5.9743  -12.2601   26.3864 C   0  0  0  0  0  0  0  0  0  0  0  0
    7.0006  -11.3654   26.5728 C   0  0  0  0  0  0  0  0  0  0  0  0
    8.2949  -11.8060   26.4092 C   0  0  0  0  0  0  0  0  0  0  0  0
    8.6044  -13.1022   26.0681 C   0  0  0  0  0  0  0  0  0  0  0  0
    7.5789  -14.0158   25.8778 C   0  0  0  0  0  0  0  0  0  0  0  0
   10.5508  -16.7882   23.7127 C   0  0  0  0  0  0  0  0  0  0  0  0
   10.6433  -18.0291   23.6532 O   0  0  0  0  0  0  0  0  0  0  0  0
   11.7076  -15.9872   23.6211 N   0  0  0  0  0  0  0  0  0  0  0  0
   13.0156  -16.6074   23.4095 C   0  0  1  0  0  0  0  0  0  0  0  0
   14.0369  -15.5659   23.0255 C   0  0  0  0  0  0  0  0  0  0  0  0
   15.4163  -16.0828   22.9674 C   0  0  0  0  0  0  0  0  0  0  0  0
   15.9965  -17.1294   23.6491 C   0  0  0  0  0  0  0  0  0  0  0  0
   17.2969  -17.2203   23.2806 N   0  0  0  0  0  0  0  0  0  0  0  0
   17.5365  -16.2643   22.3952 C   0  0  0  0  0  0  0  0  0  0  0  0
   16.4080  -15.5647   22.1930 N   0  0  0  0  0  0  0  0  0  0  0  0
   13.4499  -17.2521   24.6709 C   0  0  0  0  0  0  0  0  0  0  0  0
   14.2324  -18.3747   24.7520 O   0  0  0  0  0  0  0  0  0  0  0  0
   13.0861  -16.7537   25.7913 O   0  0  0  0  0  0  0  0  0  0  0  0
  2  1  1  0
  3  2  1  0
  3  4  1  1
  5  3  1  0
  5  6  1  6
  7  5  1  0
  7  8  2  0
  9  7  1  0
 10  9  1  0
 11 12  1  0
 10 11  1  1
 12 20  1  0
 13 12  2  0
 13 14  1  0
 14 15  1  0
 15 16  1  0
 16 17  2  0
 18 17  1  0
 19 18  2  0
 20 15  2  0
 20 19  1  0
 21 23  1  0
 21 10  1  0
 22 21  2  0
 24 23  1  0
 24 25  1  1
 25 26  1  0
 26 27  2  0
 27 28  1  0
 29 28  1  0
 30 26  1  0
 30 29  2  0
 31 24  1  0
 32 31  1  0
 33 31  2  0
M  END
$$$$
