IWH.pdb
     RDKit          3D

 33 35  0  0  1  0  0  0  0  0999 V2000
    7.1941  -13.0047   17.2216 C   0  0  0  0  0  0  0  0  0  0  0  0
    7.8623  -14.3495   17.5258 C   0  0  0  0  0  0  0  0  0  0  0  0
    8.3458  -14.2827   18.9397 C   0  0  2  0  0  0  0  0  0  0  0  0
    9.4636  -13.2318   18.9664 C   0  0  0  0  0  0  0  0  0  0  0  0
    8.9172  -15.5584   19.4625 C   0  0  2  0  0  0  0  0  0  0  0  0
    7.9649  -16.6314   19.5738 N   0  0  0  0  0  0  0  0  0  0  0  0
    9.5959  -15.4040   20.7644 C   0  0  0  0  0  0  0  0  0  0  0  0
   10.7853  -14.9422   20.8456 O   0  0  0  0  0  0  0  0  0  0  0  0
    9.0027  -15.7465   22.0097 N   0  0  0  0  0  0  0  0  0  0  0  0
    9.3781  -15.1980   23.2686 C   0  0  1  0  0  0  0  0  0  0  0  0
    8.7389  -13.8945   23.6260 C   0  0  0  0  0  0  0  0  0  0  0  0
    7.7856  -14.0388   24.7575 C   0  0  0  0  0  0  0  0  0  0  0  0
    7.0412  -15.1906   25.0524 C   0  0  0  0  0  0  0  0  0  0  0  0
    6.3099  -14.9656   26.1529 N   0  0  0  0  0  0  0  0  0  0  0  0
    6.5361  -13.7133   26.6019 C   0  0  0  0  0  0  0  0  0  0  0  0
    6.0015  -13.0375   27.7015 C   0  0  0  0  0  0  0  0  0  0  0  0
    6.3998  -11.7433   27.9362 C   0  0  0  0  0  0  0  0  0  0  0  0
    7.3090  -11.1689   27.0762 C   0  0  0  0  0  0  0  0  0  0  0  0
    7.8355  -11.8344   25.9935 C   0  0  0  0  0  0  0  0  0  0  0  0
    7.4431  -13.1409   25.7452 C   0  0  0  0  0  0  0  0  0  0  0  0
    9.3108  -16.1692   24.3793 C   0  0  0  0  0  0  0  0  0  0  0  0
    8.2333  -16.7186   24.6778 O   0  0  0  0  0  0  0  0  0  0  0  0
   10.4830  -16.4706   25.1027 N   0  0  0  0  0  0  0  0  0  0  0  0
   10.5762  -17.7164   25.8641 C   0  0  1  0  0  0  0  0  0  0  0  0
   11.8982  -18.3949   25.6048 C   0  0  0  0  0  0  0  0  0  0  0  0
   12.0774  -18.8273   24.2068 C   0  0  0  0  0  0  0  0  0  0  0  0
   11.1504  -18.9549   23.1963 C   0  0  0  0  0  0  0  0  0  0  0  0
   11.7797  -19.4027   22.0834 N   0  0  0  0  0  0  0  0  0  0  0  0
   13.0630  -19.5554   22.3755 C   0  0  0  0  0  0  0  0  0  0  0  0
   13.2620  -19.2114   23.6583 N   0  0  0  0  0  0  0  0  0  0  0  0
   10.4818  -17.4028   27.3092 C   0  0  0  0  0  0  0  0  0  0  0  0
   10.3150  -16.1468   27.8324 O   0  0  0  0  0  0  0  0  0  0  0  0
   10.5590  -18.3493   28.1660 O   0  0  0  0  0  0  0  0  0  0  0  0
  2  1  1  0
  3  2  1  0
  3  4  1  6
  5  3  1  0
  5  6  1  1
  7  5  1  0
  7  8  2  0
  9  7  1  0
 10  9  1  0
 11 12  1  0
 10 11  1  1
 12 20  1  0
 13 12  2  0
 13 14  1  0
 14 15  1  0
 15 16  1  0
 16 17  2  0
 18 17  1  0
 19 18  2  0
 20 15  2  0
 20 19  1  0
 21 23  1  0
 21 10  1  0
 22 21  2  0
 24 23  1  0
 24 25  1  1
 25 26  1  0
 26 27  2  0
 27 28  1  0
 29 28  1  0
 30 26  1  0
 30 29  2  0
 31 24  1  0
 32 31  1  0
 33 31  2  0
M  END
$$$$
