IWH.pdb
     RDKit          3D

 33 35  0  0  1  0  0  0  0  0999 V2000
    6.8655  -12.6028   18.8924 C   0  0  0  0  0  0  0  0  0  0  0  0
    7.4727  -13.9978   19.0722 C   0  0  0  0  0  0  0  0  0  0  0  0
    8.0005  -14.0634   20.4703 C   0  0  2  0  0  0  0  0  0  0  0  0
    9.1499  -13.0498   20.5477 C   0  0  0  0  0  0  0  0  0  0  0  0
    8.5486  -15.3939   20.8663 C   0  0  2  0  0  0  0  0  0  0  0  0
    7.6029  -16.4745   20.7742 N   0  0  0  0  0  0  0  0  0  0  0  0
    9.1339  -15.4043   22.2216 C   0  0  0  0  0  0  0  0  0  0  0  0
   10.0573  -14.5854   22.5554 O   0  0  0  0  0  0  0  0  0  0  0  0
    8.7333  -16.3022   23.2479 N   0  0  0  0  0  0  0  0  0  0  0  0
    9.3474  -16.4014   24.5284 C   0  0  1  0  0  0  0  0  0  0  0  0
    8.4134  -16.5385   25.6879 C   0  0  0  0  0  0  0  0  0  0  0  0
    7.3591  -15.4905   25.6746 C   0  0  0  0  0  0  0  0  0  0  0  0
    5.9958  -15.7110   25.4288 C   0  0  0  0  0  0  0  0  0  0  0  0
    5.3431  -14.5439   25.5210 N   0  0  0  0  0  0  0  0  0  0  0  0
    6.2145  -13.5570   25.8171 C   0  0  0  0  0  0  0  0  0  0  0  0
    6.0008  -12.1891   26.0038 C   0  0  0  0  0  0  0  0  0  0  0  0
    7.0790  -11.3879   26.2941 C   0  0  0  0  0  0  0  0  0  0  0  0
    8.3237  -11.9692   26.3880 C   0  0  0  0  0  0  0  0  0  0  0  0
    8.5341  -13.3161   26.2044 C   0  0  0  0  0  0  0  0  0  0  0  0
    7.4552  -14.1364   25.9118 C   0  0  0  0  0  0  0  0  0  0  0  0
   10.4439  -17.3893   24.5825 C   0  0  0  0  0  0  0  0  0  0  0  0
   10.3114  -18.5139   24.0632 O   0  0  0  0  0  0  0  0  0  0  0  0
   11.6485  -17.0465   25.2303 N   0  0  0  0  0  0  0  0  0  0  0  0
   12.1462  -17.8647   26.3364 C   0  0  1  0  0  0  0  0  0  0  0  0
   11.1751  -17.8380   27.4903 C   0  0  0  0  0  0  0  0  0  0  0  0
   11.0755  -16.5231   28.1497 C   0  0  0  0  0  0  0  0  0  0  0  0
   11.7545  -15.3528   27.8928 C   0  0  0  0  0  0  0  0  0  0  0  0
   11.3398  -14.4082   28.7708 N   0  0  0  0  0  0  0  0  0  0  0  0
   10.4286  -14.9583   29.5597 C   0  0  0  0  0  0  0  0  0  0  0  0
   10.2554  -16.2401   29.1980 N   0  0  0  0  0  0  0  0  0  0  0  0
   12.2881  -19.2642   25.8710 C   0  0  0  0  0  0  0  0  0  0  0  0
   11.7847  -19.7572   24.6951 O   0  0  0  0  0  0  0  0  0  0  0  0
   12.9208  -20.1080   26.5945 O   0  0  0  0  0  0  0  0  0  0  0  0
  2  1  1  0
  3  2  1  0
  3  4  1  6
  5  3  1  0
  5  6  1  1
  7  5  1  0
  7  8  2  0
  9  7  1  0
 10  9  1  0
 11 12  1  0
 10 11  1  1
 12 20  1  0
 13 12  2  0
 13 14  1  0
 14 15  1  0
 15 16  1  0
 16 17  2  0
 18 17  1  0
 19 18  2  0
 20 15  2  0
 20 19  1  0
 21 23  1  0
 21 10  1  0
 22 21  2  0
 24 23  1  0
 24 25  1  1
 25 26  1  0
 26 27  2  0
 27 28  1  0
 29 28  1  0
 30 26  1  0
 30 29  2  0
 31 24  1  0
 32 31  1  0
 33 31  2  0
M  END
$$$$
