IWH.pdb
     RDKit          3D

 33 35  0  0  1  0  0  0  0  0999 V2000
    7.9749  -18.1314   17.6469 C   0  0  0  0  0  0  0  0  0  0  0  0
    7.1609  -17.2052   18.5563 C   0  0  0  0  0  0  0  0  0  0  0  0
    8.0026  -16.9336   19.7626 C   0  0  2  0  0  0  0  0  0  0  0  0
    8.3354  -18.3004   20.3756 C   0  0  0  0  0  0  0  0  0  0  0  0
    7.3318  -16.1200   20.8187 C   0  0  2  0  0  0  0  0  0  0  0  0
    6.8615  -14.8370   20.3675 N   0  0  0  0  0  0  0  0  0  0  0  0
    8.1702  -15.9115   22.0158 C   0  0  0  0  0  0  0  0  0  0  0  0
    9.0254  -14.9630   22.0739 O   0  0  0  0  0  0  0  0  0  0  0  0
    8.1027  -16.7258   23.1787 N   0  0  0  0  0  0  0  0  0  0  0  0
    8.9020  -16.5498   24.3435 C   0  0  1  0  0  0  0  0  0  0  0  0
    8.1543  -16.4330   25.6329 C   0  0  0  0  0  0  0  0  0  0  0  0
    7.2210  -15.2760   25.6272 C   0  0  0  0  0  0  0  0  0  0  0  0
    5.8697  -15.3223   25.2534 C   0  0  0  0  0  0  0  0  0  0  0  0
    5.3372  -14.1006   25.3955 N   0  0  0  0  0  0  0  0  0  0  0  0
    6.2768  -13.2438   25.8471 C   0  0  0  0  0  0  0  0  0  0  0  0
    6.1916  -11.8797   26.1361 C   0  0  0  0  0  0  0  0  0  0  0  0
    7.3172  -11.2296   26.5823 C   0  0  0  0  0  0  0  0  0  0  0  0
    8.4807  -11.9521   26.7248 C   0  0  0  0  0  0  0  0  0  0  0  0
    8.5646  -13.2954   26.4404 C   0  0  0  0  0  0  0  0  0  0  0  0
    7.4365  -13.9641   25.9901 C   0  0  0  0  0  0  0  0  0  0  0  0
   10.0236  -17.5058   24.4398 C   0  0  0  0  0  0  0  0  0  0  0  0
    9.8271  -18.7296   24.3149 O   0  0  0  0  0  0  0  0  0  0  0  0
   11.3256  -17.0187   24.6758 N   0  0  0  0  0  0  0  0  0  0  0  0
   12.4327  -17.9523   24.8833 C   0  0  1  0  0  0  0  0  0  0  0  0
   13.7381  -17.3236   24.4637 C   0  0  0  0  0  0  0  0  0  0  0  0
   13.8290  -17.0586   23.0163 C   0  0  0  0  0  0  0  0  0  0  0  0
   12.9691  -17.4081   21.9989 C   0  0  0  0  0  0  0  0  0  0  0  0
   13.4789  -16.9609   20.8262 N   0  0  0  0  0  0  0  0  0  0  0  0
   14.6241  -16.3481   21.0879 C   0  0  0  0  0  0  0  0  0  0  0  0
   14.8525  -16.3975   22.4104 N   0  0  0  0  0  0  0  0  0  0  0  0
   12.5122  -18.2884   26.3242 C   0  0  0  0  0  0  0  0  0  0  0  0
   13.3919  -19.1833   26.8760 O   0  0  0  0  0  0  0  0  0  0  0  0
   11.7146  -17.7225   27.1485 O   0  0  0  0  0  0  0  0  0  0  0  0
  2  1  1  0
  3  2  1  0
  3  4  1  1
  5  3  1  0
  5  6  1  6
  7  5  1  0
  7  8  2  0
  9  7  1  0
 10  9  1  0
 11 12  1  0
 10 11  1  1
 12 20  1  0
 13 12  2  0
 13 14  1  0
 14 15  1  0
 15 16  1  0
 16 17  2  0
 18 17  1  0
 19 18  2  0
 20 15  2  0
 20 19  1  0
 21 23  1  0
 21 10  1  0
 22 21  2  0
 24 23  1  0
 24 25  1  1
 25 26  1  0
 26 27  2  0
 27 28  1  0
 29 28  1  0
 30 26  1  0
 30 29  2  0
 31 24  1  0
 32 31  1  0
 33 31  2  0
M  END
$$$$
