TKS.pdb
     RDKit          3D

 23 22  0  0  1  0  0  0  0  0999 V2000
2658510.50004163916.00001592860.0000 C   0  0  0  0  0  0  0  0  0  0  0  0
2658511.50004163917.00001592860.1250 C   0  0  1  0  0  0  0  0  0  0  0  0
2658512.75004163918.00001592859.0000 O   0  0  0  0  0  0  0  0  0  0  0  0
2658509.50004163919.25001592858.3750 C   0  0  2  0  0  0  0  0  0  0  0  0
2658509.50004163916.75001592859.2500 N   0  0  0  0  0  0  0  0  0  0  0  0
2658510.25004163918.25001592857.8750 C   0  0  0  0  0  0  0  0  0  0  0  0
2658510.00004163918.50001592857.2500 O   0  0  0  0  0  0  0  0  0  0  0  0
2658510.00004163920.25001592857.6250 N   0  0  0  0  0  0  0  0  0  0  0  0
2658508.50004163920.50001592859.3750 C   0  0  1  0  0  0  0  0  0  0  0  0
2658508.50004163922.00001592860.0000 C   0  0  0  0  0  0  0  0  0  0  0  0
2658509.25004163922.75001592859.8750 C   0  0  0  0  0  0  0  0  0  0  0  0
2658507.50004163924.25001592862.2500 C   0  0  0  0  0  0  0  0  0  0  0  0
2658509.00004163923.00001592862.5000 C   0  0  0  0  0  0  0  0  0  0  0  0
2658508.25004163921.25001592862.2500 N   0  0  0  0  0  0  0  0  0  0  0  0
2658507.25004163921.25001592858.7500 C   0  0  0  0  0  0  0  0  0  0  0  0
2658505.75004163922.25001592858.3750 O   0  0  0  0  0  0  0  0  0  0  0  0
2658508.75004163922.00001592856.2500 O   0  0  0  0  0  0  0  0  0  0  0  0
2658507.50004163921.00001592855.3750 C   0  0  0  0  0  0  0  0  0  0  0  0
2658505.75004163921.25001592855.7500 C   0  0  2  0  0  0  0  0  0  0  0  0
2658508.00004163921.25001592856.7500 N   0  0  0  0  0  0  0  0  0  0  0  0
2658505.50004163919.25001592855.3750 C   0  0  0  0  0  0  0  0  0  0  0  0
2658507.00004163919.25001592854.6250 O   0  0  0  0  0  0  0  0  0  0  0  0
2658504.25004163919.75001592854.0000 O   0  0  0  0  0  0  0  0  0  0  0  0
  2  1  1  6
  2  4  1  0
  3  2  1  0
  4  5  1  1
  6  4  1  0
  6  7  2  0
  8  6  1  0
  9  8  1  0
 10 11  1  0
  9 10  1  1
 11 12  1  0
 12 13  1  0
 13 14  1  0
 15  9  1  0
 16 15  2  0
 17 18  1  0
 19 18  1  6
 19 20  1  0
 19 21  1  0
 20 15  1  0
 21 22  1  0
 23 21  2  0
M  END
$$$$
