TKS.pdb
     RDKit          3D

 23 22  0  0  1  0  0  0  0  0999 V2000
   10.6299  -19.9444   15.3283 C   0  0  0  0  0  0  0  0  0  0  0  0
    9.5095  -19.0140   14.9735 C   0  0  1  0  0  0  0  0  0  0  0  0
    9.5900  -18.8160   13.5800 O   0  0  0  0  0  0  0  0  0  0  0  0
    8.1477  -19.6255   15.2985 C   0  0  2  0  0  0  0  0  0  0  0  0
    7.1161  -18.7286   14.7503 N   0  0  0  0  0  0  0  0  0  0  0  0
    7.9423  -19.8021   16.7468 C   0  0  0  0  0  0  0  0  0  0  0  0
    7.7013  -18.7668   17.4488 O   0  0  0  0  0  0  0  0  0  0  0  0
    7.9903  -21.0339   17.4090 N   0  0  0  0  0  0  0  0  0  0  0  0
    7.8916  -21.1487   18.8660 C   0  0  1  0  0  0  0  0  0  0  0  0
    7.5796  -22.6118   19.1399 C   0  0  0  0  0  0  0  0  0  0  0  0
    7.5535  -22.8897   20.6257 C   0  0  0  0  0  0  0  0  0  0  0  0
    7.2146  -24.3335   20.9114 C   0  0  0  0  0  0  0  0  0  0  0  0
    7.1566  -24.6371   22.3920 C   0  0  0  0  0  0  0  0  0  0  0  0
    6.9601  -26.0668   22.5899 N   0  0  0  0  0  0  0  0  0  0  0  0
    9.2022  -20.7720   19.4399 C   0  0  0  0  0  0  0  0  0  0  0  0
   10.3127  -21.1093   18.9610 O   0  0  0  0  0  0  0  0  0  0  0  0
    9.4657  -18.0879   22.7003 O   0  0  0  0  0  0  0  0  0  0  0  0
   10.4512  -18.1528   21.7172 C   0  0  0  0  0  0  0  0  0  0  0  0
   10.5516  -19.5822   21.2006 C   0  0  2  0  0  0  0  0  0  0  0  0
    9.2910  -19.9622   20.6320 N   0  0  0  0  0  0  0  0  0  0  0  0
   10.9953  -20.5112   22.2670 C   0  0  0  0  0  0  0  0  0  0  0  0
   12.2913  -20.3973   22.7417 O   0  0  0  0  0  0  0  0  0  0  0  0
   10.2696  -21.4001   22.7717 O   0  0  0  0  0  0  0  0  0  0  0  0
  2  1  1  6
  2  4  1  0
  3  2  1  0
  4  5  1  1
  6  4  1  0
  6  7  2  0
  8  6  1  0
  9  8  1  0
 10 11  1  0
  9 10  1  6
 11 12  1  0
 12 13  1  0
 13 14  1  0
 15  9  1  0
 16 15  2  0
 17 18  1  0
 19 18  1  1
 19 20  1  0
 19 21  1  0
 20 15  1  0
 21 22  1  0
 23 21  2  0
M  END
$$$$
