TKS.pdb
     RDKit          3D

 23 22  0  0  1  0  0  0  0  0999 V2000
    9.2808  -14.2214   16.8589 C   0  0  0  0  0  0  0  0  0  0  0  0
    8.8629  -14.7103   18.2128 C   0  0  1  0  0  0  0  0  0  0  0  0
    9.7955  -14.1796   19.1271 O   0  0  0  0  0  0  0  0  0  0  0  0
    7.4720  -14.2018   18.5886 C   0  0  2  0  0  0  0  0  0  0  0  0
    7.5124  -12.7301   18.5512 N   0  0  0  0  0  0  0  0  0  0  0  0
    7.0483  -14.6594   19.9235 C   0  0  0  0  0  0  0  0  0  0  0  0
    6.9810  -13.7977   20.8593 O   0  0  0  0  0  0  0  0  0  0  0  0
    6.7094  -15.9804   20.2371 N   0  0  0  0  0  0  0  0  0  0  0  0
    6.2915  -16.3880   21.5805 C   0  0  1  0  0  0  0  0  0  0  0  0
    5.7178  -17.7877   21.4224 C   0  0  0  0  0  0  0  0  0  0  0  0
    4.2354  -17.7343   21.1304 C   0  0  0  0  0  0  0  0  0  0  0  0
    3.6601  -19.1177   20.9402 C   0  0  0  0  0  0  0  0  0  0  0  0
    2.1628  -19.1024   20.7265 C   0  0  0  0  0  0  0  0  0  0  0  0
    1.6872  -20.4614   20.5060 N   0  0  0  0  0  0  0  0  0  0  0  0
    7.4932  -16.4044   22.4434 C   0  0  0  0  0  0  0  0  0  0  0  0
    8.6319  -16.7799   22.0713 O   0  0  0  0  0  0  0  0  0  0  0  0
    7.4782  -14.3800   26.0624 O   0  0  0  0  0  0  0  0  0  0  0  0
    8.6647  -14.6001   25.3655 C   0  0  0  0  0  0  0  0  0  0  0  0
    8.5909  -15.9495   24.6625 C   0  0  2  0  0  0  0  0  0  0  0  0
    7.4305  -15.9735   23.8201 N   0  0  0  0  0  0  0  0  0  0  0  0
    8.6073  -17.0667   25.6365 C   0  0  0  0  0  0  0  0  0  0  0  0
    9.7083  -17.2006   26.4659 O   0  0  0  0  0  0  0  0  0  0  0  0
    7.6836  -17.9051   25.7602 O   0  0  0  0  0  0  0  0  0  0  0  0
  2  1  1  6
  2  4  1  0
  3  2  1  0
  4  5  1  1
  6  4  1  0
  6  7  2  0
  8  6  1  0
  9  8  1  0
 10 11  1  0
  9 10  1  6
 11 12  1  0
 12 13  1  0
 13 14  1  0
 15  9  1  0
 16 15  2  0
 17 18  1  0
 19 18  1  1
 19 20  1  0
 19 21  1  0
 20 15  1  0
 21 22  1  0
 23 21  2  0
M  END
$$$$
