TKS.pdb
     RDKit          3D

 23 22  0  0  1  0  0  0  0  0999 V2000
   10.2655  -13.1726   17.0497 C   0  0  0  0  0  0  0  0  0  0  0  0
    9.9944  -13.9848   18.2800 C   0  0  1  0  0  0  0  0  0  0  0  0
   10.7420  -13.3893   19.3162 O   0  0  0  0  0  0  0  0  0  0  0  0
    8.5161  -13.9455   18.6641 C   0  0  2  0  0  0  0  0  0  0  0  0
    8.1437  -12.5330   18.8522 N   0  0  0  0  0  0  0  0  0  0  0  0
    8.2346  -14.7076   19.8933 C   0  0  0  0  0  0  0  0  0  0  0  0
    7.9586  -14.0562   20.9526 O   0  0  0  0  0  0  0  0  0  0  0  0
    8.2458  -16.1042   19.9791 N   0  0  0  0  0  0  0  0  0  0  0  0
    7.8862  -16.8204   21.2052 C   0  0  1  0  0  0  0  0  0  0  0  0
    7.8071  -18.2876   20.8126 C   0  0  0  0  0  0  0  0  0  0  0  0
    7.5356  -19.1561   22.0199 C   0  0  0  0  0  0  0  0  0  0  0  0
    7.3517  -20.6033   21.6288 C   0  0  0  0  0  0  0  0  0  0  0  0
    6.9497  -21.4765   22.7965 C   0  0  0  0  0  0  0  0  0  0  0  0
    6.8496  -22.8621   22.3582 N   0  0  0  0  0  0  0  0  0  0  0  0
    8.9640  -16.5958   22.1936 C   0  0  0  0  0  0  0  0  0  0  0  0
   10.1910  -16.6727   21.9391 O   0  0  0  0  0  0  0  0  0  0  0  0
    7.8989  -15.5538   26.0258 O   0  0  0  0  0  0  0  0  0  0  0  0
    9.1501  -15.0974   25.6160 C   0  0  0  0  0  0  0  0  0  0  0  0
    9.6922  -16.0225   24.5340 C   0  0  2  0  0  0  0  0  0  0  0  0
    8.6619  -16.2613   23.5654 N   0  0  0  0  0  0  0  0  0  0  0  0
   10.2257  -17.2775   25.1150 C   0  0  0  0  0  0  0  0  0  0  0  0
   11.2916  -17.1942   25.9954 O   0  0  0  0  0  0  0  0  0  0  0  0
    9.7726  -18.4182   24.8604 O   0  0  0  0  0  0  0  0  0  0  0  0
  2  1  1  6
  2  4  1  0
  3  2  1  0
  4  5  1  1
  6  4  1  0
  6  7  2  0
  8  6  1  0
  9  8  1  0
 10 11  1  0
  9 10  1  6
 11 12  1  0
 12 13  1  0
 13 14  1  0
 15  9  1  0
 16 15  2  0
 17 18  1  0
 19 18  1  1
 19 20  1  0
 19 21  1  0
 20 15  1  0
 21 22  1  0
 23 21  2  0
M  END
$$$$
