TKS.pdb
     RDKit          3D

 23 22  0  0  1  0  0  0  0  0999 V2000
    8.1899  -13.4364   16.9743 C   0  0  0  0  0  0  0  0  0  0  0  0
    8.3797  -14.3424   18.1532 C   0  0  1  0  0  0  0  0  0  0  0  0
    9.7059  -14.1467   18.5894 O   0  0  0  0  0  0  0  0  0  0  0  0
    7.4343  -13.9803   19.2975 C   0  0  2  0  0  0  0  0  0  0  0  0
    7.6550  -12.5611   19.6233 N   0  0  0  0  0  0  0  0  0  0  0  0
    7.6563  -14.8112   20.4939 C   0  0  0  0  0  0  0  0  0  0  0  0
    8.2607  -14.2862   21.4848 O   0  0  0  0  0  0  0  0  0  0  0  0
    7.2449  -16.1426   20.6207 N   0  0  0  0  0  0  0  0  0  0  0  0
    7.5185  -16.9404   21.8184 C   0  0  1  0  0  0  0  0  0  0  0  0
    6.6409  -18.1763   21.6949 C   0  0  0  0  0  0  0  0  0  0  0  0
    5.1760  -17.8026   21.7109 C   0  0  0  0  0  0  0  0  0  0  0  0
    4.2983  -18.9974   21.4228 C   0  0  0  0  0  0  0  0  0  0  0  0
    2.8240  -18.6783   21.5330 C   0  0  0  0  0  0  0  0  0  0  0  0
    2.0444  -19.8873   21.3043 N   0  0  0  0  0  0  0  0  0  0  0  0
    8.9518  -17.3068   21.8009 C   0  0  0  0  0  0  0  0  0  0  0  0
    9.6132  -17.5452   20.7607 O   0  0  0  0  0  0  0  0  0  0  0  0
   12.1924  -15.5527   22.9525 O   0  0  0  0  0  0  0  0  0  0  0  0
   11.8143  -16.6330   22.1575 C   0  0  0  0  0  0  0  0  0  0  0  0
   11.1204  -17.6756   23.0246 C   0  0  2  0  0  0  0  0  0  0  0  0
    9.7097  -17.4178   23.0250 N   0  0  0  0  0  0  0  0  0  0  0  0
   11.6912  -17.7062   24.3922 C   0  0  0  0  0  0  0  0  0  0  0  0
   13.0408  -17.9819   24.5361 O   0  0  0  0  0  0  0  0  0  0  0  0
   11.0283  -17.4974   25.4355 O   0  0  0  0  0  0  0  0  0  0  0  0
  2  1  1  6
  2  4  1  0
  3  2  1  0
  4  5  1  1
  6  4  1  0
  6  7  2  0
  8  6  1  0
  9  8  1  0
 10 11  1  0
  9 10  1  6
 11 12  1  0
 12 13  1  0
 13 14  1  0
 15  9  1  0
 16 15  2  0
 17 18  1  0
 19 18  1  6
 19 20  1  0
 19 21  1  0
 20 15  1  0
 21 22  1  0
 23 21  2  0
M  END
$$$$
