TKS.pdb
     RDKit          3D

 23 22  0  0  1  0  0  0  0  0999 V2000
   19.6970  -20.5754   15.0840 C   0  0  0  0  0  0  0  0  0  0  0  0
   18.6067  -20.4666   16.1068 C   0  0  1  0  0  0  0  0  0  0  0  0
   18.9594  -19.3881   16.9434 O   0  0  0  0  0  0  0  0  0  0  0  0
   17.2580  -20.1571   15.4591 C   0  0  2  0  0  0  0  0  0  0  0  0
   17.3898  -18.8721   14.7516 N   0  0  0  0  0  0  0  0  0  0  0  0
   16.1660  -20.0784   16.4452 C   0  0  0  0  0  0  0  0  0  0  0  0
   15.9948  -18.9780   17.0636 O   0  0  0  0  0  0  0  0  0  0  0  0
   15.2968  -21.1318   16.7498 N   0  0  0  0  0  0  0  0  0  0  0  0
   14.2057  -20.9972   17.7177 C   0  0  1  0  0  0  0  0  0  0  0  0
   13.0642  -21.8371   17.1656 C   0  0  0  0  0  0  0  0  0  0  0  0
   12.1716  -21.0117   16.2670 C   0  0  0  0  0  0  0  0  0  0  0  0
   11.0737  -21.8510   15.6579 C   0  0  0  0  0  0  0  0  0  0  0  0
   10.2085  -21.0697   14.6943 C   0  0  0  0  0  0  0  0  0  0  0  0
    9.2564  -21.9676   14.0547 N   0  0  0  0  0  0  0  0  0  0  0  0
   14.6792  -21.5356   19.0119 C   0  0  0  0  0  0  0  0  0  0  0  0
   15.5612  -22.4205   19.1351 O   0  0  0  0  0  0  0  0  0  0  0  0
   13.0369  -20.0822   22.5578 O   0  0  0  0  0  0  0  0  0  0  0  0
   14.3559  -20.5299   22.6011 C   0  0  0  0  0  0  0  0  0  0  0  0
   14.5621  -21.5889   21.5258 C   0  0  2  0  0  0  0  0  0  0  0  0
   14.1366  -21.0597   20.2626 N   0  0  0  0  0  0  0  0  0  0  0  0
   13.8692  -22.8524   21.8732 C   0  0  0  0  0  0  0  0  0  0  0  0
   14.2745  -23.5347   23.0082 O   0  0  0  0  0  0  0  0  0  0  0  0
   12.9333  -23.3482   21.2026 O   0  0  0  0  0  0  0  0  0  0  0  0
  2  1  1  6
  2  4  1  0
  3  2  1  0
  4  5  1  1
  6  4  1  0
  6  7  2  0
  8  6  1  0
  9  8  1  0
 10 11  1  0
  9 10  1  6
 11 12  1  0
 12 13  1  0
 13 14  1  0
 15  9  1  0
 16 15  2  0
 17 18  1  0
 19 18  1  1
 19 20  1  0
 19 21  1  0
 20 15  1  0
 21 22  1  0
 23 21  2  0
M  END
$$$$
