TKS.pdb
     RDKit          3D

 23 22  0  0  1  0  0  0  0  0999 V2000
    7.8468  -13.7660   16.5259 C   0  0  0  0  0  0  0  0  0  0  0  0
    8.2729  -14.4552   17.7870 C   0  0  1  0  0  0  0  0  0  0  0  0
    9.6761  -14.3333   17.8462 O   0  0  0  0  0  0  0  0  0  0  0  0
    7.6752  -13.7846   19.0228 C   0  0  2  0  0  0  0  0  0  0  0  0
    8.0720  -12.3666   18.9941 N   0  0  0  0  0  0  0  0  0  0  0  0
    8.1315  -14.4090   20.2769 C   0  0  0  0  0  0  0  0  0  0  0  0
    9.1114  -13.8746   20.8909 O   0  0  0  0  0  0  0  0  0  0  0  0
    7.5594  -15.5521   20.8462 N   0  0  0  0  0  0  0  0  0  0  0  0
    8.1687  -16.2581   21.9758 C   0  0  1  0  0  0  0  0  0  0  0  0
    7.1901  -17.3631   22.3424 C   0  0  0  0  0  0  0  0  0  0  0  0
    7.7592  -18.2518   23.4249 C   0  0  0  0  0  0  0  0  0  0  0  0
    6.7798  -19.3290   23.8265 C   0  0  0  0  0  0  0  0  0  0  0  0
    7.3126  -20.2217   24.9251 C   0  0  0  0  0  0  0  0  0  0  0  0
    6.3524  -21.2814   25.2019 N   0  0  0  0  0  0  0  0  0  0  0  0
    9.4557  -16.8242   21.5152 C   0  0  0  0  0  0  0  0  0  0  0  0
    9.5928  -17.5435   20.4954 O   0  0  0  0  0  0  0  0  0  0  0  0
   13.1512  -15.3201   22.5322 O   0  0  0  0  0  0  0  0  0  0  0  0
   12.9409  -16.2153   21.4851 C   0  0  0  0  0  0  0  0  0  0  0  0
   11.9054  -17.2490   21.9089 C   0  0  2  0  0  0  0  0  0  0  0  0
   10.6818  -16.5762   22.2362 N   0  0  0  0  0  0  0  0  0  0  0  0
   12.4060  -18.0886   23.0231 C   0  0  0  0  0  0  0  0  0  0  0  0
   13.5683  -18.8160   22.8282 O   0  0  0  0  0  0  0  0  0  0  0  0
   11.8427  -18.1847   24.1389 O   0  0  0  0  0  0  0  0  0  0  0  0
  2  1  1  6
  2  4  1  0
  3  2  1  0
  4  5  1  1
  6  4  1  0
  6  7  2  0
  8  6  1  0
  9  8  1  0
 10 11  1  0
  9 10  1  6
 11 12  1  0
 12 13  1  0
 13 14  1  0
 15  9  1  0
 16 15  2  0
 17 18  1  0
 19 18  1  1
 19 20  1  0
 19 21  1  0
 20 15  1  0
 21 22  1  0
 23 21  2  0
M  END
$$$$
