DAS.pdb
     RDKit          3D

 20 19  0  0  1  0  0  0  0  0999 V2000
   12.8259  -16.7551   17.4187 N   0  0  0  0  0  0  0  0  0  0  0  0
   11.8105  -17.5425   18.0535 C   0  0  1  0  0  0  0  0  0  0  0  0
   12.2701  -18.9678   18.2412 C   0  0  0  0  0  0  0  0  0  0  0  0
   12.3250  -19.6710   16.9394 C   0  0  0  0  0  0  0  0  0  0  0  0
   11.2994  -19.7225   16.2348 O   0  0  0  0  0  0  0  0  0  0  0  0
   11.4728  -16.9311   19.3649 C   0  0  0  0  0  0  0  0  0  0  0  0
   12.4386  -16.4767   20.0433 O   0  0  0  0  0  0  0  0  0  0  0  0
   13.5138  -20.2782   16.4916 O   0  0  0  0  0  0  0  0  0  0  0  0
    8.3366  -15.8389   21.0187 C   0  0  0  0  0  0  0  0  0  0  0  0
    9.7921  -16.2044   21.0475 C   0  0  2  0  0  0  0  0  0  0  0  0
   10.1495  -16.8652   19.8204 N   0  0  0  0  0  0  0  0  0  0  0  0
   10.1017  -17.0732   22.2142 C   0  0  0  0  0  0  0  0  0  0  0  0
   10.0563  -18.3164   22.1921 O   0  0  0  0  0  0  0  0  0  0  0  0
   10.7827  -15.2104   25.9140 O   0  0  0  0  0  0  0  0  0  0  0  0
   11.5140  -16.3854   25.6924 C   0  0  0  0  0  0  0  0  0  0  0  0
   10.7667  -17.1924   24.6455 C   0  0  2  0  0  0  0  0  0  0  0  0
   10.4777  -16.4581   23.4529 N   0  0  0  0  0  0  0  0  0  0  0  0
    9.5739  -17.8335   25.2385 C   0  0  0  0  0  0  0  0  0  0  0  0
    9.6232  -18.7532   26.2722 O   0  0  0  0  0  0  0  0  0  0  0  0
    8.4482  -17.5269   24.7787 O   0  0  0  0  0  0  0  0  0  0  0  0
  2  1  1  1
  2  3  1  0
  3  4  1  0
  4  8  1  0
  5  4  2  0
  6  2  1  0
  6  7  2  0
 10  9  1  6
 10 11  1  0
 11  6  1  0
 12 13  2  0
 12 10  1  0
 14 15  1  0
 16 17  1  0
 16 15  1  1
 17 12  1  0
 18 16  1  0
 19 18  1  0
 20 18  2  0
M  END
$$$$
