DAS.pdb
     RDKit          3D

 20 19  0  0  1  0  0  0  0  0999 V2000
    9.6769  -17.3561   19.0268 N   0  0  0  0  0  0  0  0  0  0  0  0
    9.9984  -17.4415   20.4209 C   0  0  1  0  0  0  0  0  0  0  0  0
   11.4702  -17.7100   20.6207 C   0  0  0  0  0  0  0  0  0  0  0  0
   11.8236  -19.0591   20.1235 C   0  0  0  0  0  0  0  0  0  0  0  0
   11.0991  -20.0256   20.4266 O   0  0  0  0  0  0  0  0  0  0  0  0
    9.6095  -16.1711   21.0861 C   0  0  0  0  0  0  0  0  0  0  0  0
   10.5404  -15.5065   21.6259 O   0  0  0  0  0  0  0  0  0  0  0  0
   12.9608  -19.2614   19.3185 O   0  0  0  0  0  0  0  0  0  0  0  0
    6.6004  -14.0191   21.2029 C   0  0  0  0  0  0  0  0  0  0  0  0
    7.8704  -14.5456   21.8052 C   0  0  2  0  0  0  0  0  0  0  0  0
    8.2773  -15.7381   21.1106 N   0  0  0  0  0  0  0  0  0  0  0  0
    7.6985  -14.8231   23.2562 C   0  0  0  0  0  0  0  0  0  0  0  0
    7.3562  -13.9707   24.0956 O   0  0  0  0  0  0  0  0  0  0  0  0
    6.9126  -18.6931   24.6445 O   0  0  0  0  0  0  0  0  0  0  0  0
    6.5937  -17.5007   25.3086 C   0  0  0  0  0  0  0  0  0  0  0  0
    7.7541  -16.5434   25.1014 C   0  0  2  0  0  0  0  0  0  0  0  0
    7.9385  -16.1510   23.7387 N   0  0  0  0  0  0  0  0  0  0  0  0
    8.9837  -17.0758   25.7260 C   0  0  0  0  0  0  0  0  0  0  0  0
   10.1754  -17.2678   25.0478 O   0  0  0  0  0  0  0  0  0  0  0  0
    8.9472  -17.3721   26.9440 O   0  0  0  0  0  0  0  0  0  0  0  0
  2  1  1  6
  2  3  1  0
  3  4  1  0
  4  8  1  0
  5  4  2  0
  6  2  1  0
  6  7  2  0
 10  9  1  6
 10 11  1  0
 11  6  1  0
 12 13  2  0
 12 10  1  0
 14 15  1  0
 16 17  1  0
 16 15  1  6
 17 12  1  0
 18 16  1  0
 19 18  1  0
 20 18  2  0
M  END
$$$$
