DAS.pdb
     RDKit          3D

 20 19  0  0  1  0  0  0  0  0999 V2000
   14.2535  -14.6884   16.4442 N   0  0  0  0  0  0  0  0  0  0  0  0
   14.5304  -14.8885   17.8361 C   0  0  1  0  0  0  0  0  0  0  0  0
   15.4459  -13.8116   18.3654 C   0  0  0  0  0  0  0  0  0  0  0  0
   16.8168  -13.9893   17.8352 C   0  0  0  0  0  0  0  0  0  0  0  0
   17.2355  -15.1407   17.6114 O   0  0  0  0  0  0  0  0  0  0  0  0
   13.2493  -14.8941   18.5887 C   0  0  0  0  0  0  0  0  0  0  0  0
   12.7379  -13.7660   18.8445 O   0  0  0  0  0  0  0  0  0  0  0  0
   17.6473  -12.8807   17.5831 O   0  0  0  0  0  0  0  0  0  0  0  0
   10.6145  -17.3203   19.3737 C   0  0  0  0  0  0  0  0  0  0  0  0
   11.4266  -16.1175   19.7570 C   0  0  2  0  0  0  0  0  0  0  0  0
   12.6446  -16.0920   18.9914 N   0  0  0  0  0  0  0  0  0  0  0  0
   11.7286  -16.1189   21.2132 C   0  0  0  0  0  0  0  0  0  0  0  0
   12.8192  -16.4666   21.7010 O   0  0  0  0  0  0  0  0  0  0  0  0
    9.9885  -15.2251   25.6735 O   0  0  0  0  0  0  0  0  0  0  0  0
    9.6768  -15.1675   24.3083 C   0  0  0  0  0  0  0  0  0  0  0  0
   10.8456  -15.7735   23.5517 C   0  0  2  0  0  0  0  0  0  0  0  0
   10.7112  -15.6969   22.1301 N   0  0  0  0  0  0  0  0  0  0  0  0
   11.1250  -17.1414   24.0376 C   0  0  0  0  0  0  0  0  0  0  0  0
   12.0203  -17.4344   25.0522 O   0  0  0  0  0  0  0  0  0  0  0  0
   10.5150  -18.0958   23.4994 O   0  0  0  0  0  0  0  0  0  0  0  0
  2  1  1  6
  2  3  1  0
  3  4  1  0
  4  8  1  0
  5  4  2  0
  6  2  1  0
  6  7  2  0
 10  9  1  6
 10 11  1  0
 11  6  1  0
 12 13  2  0
 12 10  1  0
 14 15  1  0
 16 17  1  0
 16 15  1  1
 17 12  1  0
 18 16  1  0
 19 18  1  0
 20 18  2  0
M  END
$$$$
