DAS.pdb
     RDKit          3D

 20 19  0  0  1  0  0  0  0  0999 V2000
   13.1123  -15.7500   20.6937 N   0  0  0  0  0  0  0  0  0  0  0  0
   13.4930  -16.1251   22.0236 C   0  0  1  0  0  0  0  0  0  0  0  0
   14.6439  -15.2811   22.5147 C   0  0  0  0  0  0  0  0  0  0  0  0
   15.8847  -15.6181   21.7805 C   0  0  0  0  0  0  0  0  0  0  0  0
   15.8509  -16.5075   20.9095 O   0  0  0  0  0  0  0  0  0  0  0  0
   12.3204  -15.9746   22.9236 C   0  0  0  0  0  0  0  0  0  0  0  0
   11.7958  -14.8253   22.9827 O   0  0  0  0  0  0  0  0  0  0  0  0
   17.0940  -14.9506   22.0534 O   0  0  0  0  0  0  0  0  0  0  0  0
    9.9792  -18.2475   24.6361 C   0  0  0  0  0  0  0  0  0  0  0  0
   10.6926  -16.9302   24.5425 C   0  0  2  0  0  0  0  0  0  0  0  0
   11.8268  -17.0553   23.6660 N   0  0  0  0  0  0  0  0  0  0  0  0
   11.1239  -16.4598   25.8858 C   0  0  0  0  0  0  0  0  0  0  0  0
   12.2466  -16.6778   26.3761 O   0  0  0  0  0  0  0  0  0  0  0  0
   10.1065  -13.6977   29.7255 O   0  0  0  0  0  0  0  0  0  0  0  0
    9.6618  -14.0677   28.4489 C   0  0  0  0  0  0  0  0  0  0  0  0
   10.4789  -15.2724   28.0169 C   0  0  2  0  0  0  0  0  0  0  0  0
   10.2016  -15.7060   26.6827 N   0  0  0  0  0  0  0  0  0  0  0  0
   10.3722  -16.3569   29.0160 C   0  0  0  0  0  0  0  0  0  0  0  0
   11.1338  -16.4233   30.1703 O   0  0  0  0  0  0  0  0  0  0  0  0
    9.5419  -17.2732   28.8070 O   0  0  0  0  0  0  0  0  0  0  0  0
  2  1  1  6
  2  3  1  0
  3  4  1  0
  4  8  1  0
  5  4  2  0
  6  2  1  0
  6  7  2  0
 10  9  1  1
 10 11  1  0
 11  6  1  0
 12 13  2  0
 12 10  1  0
 14 15  1  0
 16 17  1  0
 16 15  1  1
 17 12  1  0
 18 16  1  0
 19 18  1  0
 20 18  2  0
M  END
$$$$
