DAS.pdb
     RDKit          3D

 20 19  0  0  1  0  0  0  0  0999 V2000
   -5.0465  -27.6551   27.9799 N   0  0  0  0  0  0  0  0  0  0  0  0
   -5.8904  -27.4509   29.1201 C   0  0  1  0  0  0  0  0  0  0  0  0
   -5.5178  -26.1824   29.8482 C   0  0  0  0  0  0  0  0  0  0  0  0
   -4.1454  -26.2819   30.3946 C   0  0  0  0  0  0  0  0  0  0  0  0
   -3.8164  -27.3049   31.0240 O   0  0  0  0  0  0  0  0  0  0  0  0
   -7.3055  -27.3927   28.6710 C   0  0  0  0  0  0  0  0  0  0  0  0
   -7.5347  -26.7565   27.6022 O   0  0  0  0  0  0  0  0  0  0  0  0
   -3.2143  -25.2414   30.2133 O   0  0  0  0  0  0  0  0  0  0  0  0
  -10.3517  -29.3089   29.4654 C   0  0  0  0  0  0  0  0  0  0  0  0
   -9.6819  -28.0833   28.9158 C   0  0  2  0  0  0  0  0  0  0  0  0
   -8.3287  -28.0132   29.3997 N   0  0  0  0  0  0  0  0  0  0  0  0
  -10.4306  -26.8532   29.2877 C   0  0  0  0  0  0  0  0  0  0  0  0
  -10.1169  -26.1007   30.2277 O   0  0  0  0  0  0  0  0  0  0  0  0
  -14.0928  -23.8820   28.0748 O   0  0  0  0  0  0  0  0  0  0  0  0
  -13.5117  -25.1266   27.7960 C   0  0  0  0  0  0  0  0  0  0  0  0
  -12.3747  -25.3259   28.7825 C   0  0  2  0  0  0  0  0  0  0  0  0
  -11.5913  -26.4947   28.5273 N   0  0  0  0  0  0  0  0  0  0  0  0
  -12.8741  -25.2511   30.1719 C   0  0  0  0  0  0  0  0  0  0  0  0
  -12.8707  -24.0953   30.9342 O   0  0  0  0  0  0  0  0  0  0  0  0
  -13.3288  -26.2969   30.6935 O   0  0  0  0  0  0  0  0  0  0  0  0
  2  1  1  6
  2  3  1  0
  3  4  1  0
  4  8  1  0
  5  4  2  0
  6  2  1  0
  6  7  2  0
 10  9  1  1
 10 11  1  0
 11  6  1  0
 12 13  2  0
 12 10  1  0
 14 15  1  0
 16 17  1  0
 16 15  1  6
 17 12  1  0
 18 16  1  0
 19 18  1  0
 20 18  2  0
M  END
$$$$
