DAS.pdb
     RDKit          3D

 20 19  0  0  1  0  0  0  0  0999 V2000
   10.9958  -20.5807   16.2258 N   0  0  0  0  0  0  0  0  0  0  0  0
   11.0103  -19.2503   16.7588 C   0  0  1  0  0  0  0  0  0  0  0  0
   10.0555  -18.3561   16.0059 C   0  0  0  0  0  0  0  0  0  0  0  0
   10.6205  -17.9864   14.6883 C   0  0  0  0  0  0  0  0  0  0  0  0
   11.7097  -18.4773   14.3367 O   0  0  0  0  0  0  0  0  0  0  0  0
   10.6450  -19.3014   18.1981 C   0  0  0  0  0  0  0  0  0  0  0  0
    9.4246  -19.4975   18.4660 O   0  0  0  0  0  0  0  0  0  0  0  0
    9.9467  -17.0927   13.8341 O   0  0  0  0  0  0  0  0  0  0  0  0
   12.0121  -20.3004   21.2671 C   0  0  0  0  0  0  0  0  0  0  0  0
   11.2741  -19.1760   20.6007 C   0  0  2  0  0  0  0  0  0  0  0  0
   11.6089  -19.1393   19.2019 N   0  0  0  0  0  0  0  0  0  0  0  0
   11.5908  -17.8734   21.2447 C   0  0  0  0  0  0  0  0  0  0  0  0
   12.4751  -17.0935   20.8475 O   0  0  0  0  0  0  0  0  0  0  0  0
    9.3046  -16.7019   24.5965 O   0  0  0  0  0  0  0  0  0  0  0  0
    9.8187  -15.6931   23.7704 C   0  0  0  0  0  0  0  0  0  0  0  0
   11.0639  -16.2476   23.1012 C   0  0  2  0  0  0  0  0  0  0  0  0
   10.8410  -17.4730   22.3986 N   0  0  0  0  0  0  0  0  0  0  0  0
   12.1811  -16.3243   24.0664 C   0  0  0  0  0  0  0  0  0  0  0  0
   12.8401  -15.2187   24.5767 O   0  0  0  0  0  0  0  0  0  0  0  0
   12.5561  -17.4587   24.4473 O   0  0  0  0  0  0  0  0  0  0  0  0
  2  1  1  6
  2  3  1  0
  3  4  1  0
  4  8  1  0
  5  4  2  0
  6  2  1  0
  6  7  2  0
 10  9  1  1
 10 11  1  0
 11  6  1  0
 12 13  2  0
 12 10  1  0
 14 15  1  0
 16 17  1  0
 16 15  1  1
 17 12  1  0
 18 16  1  0
 19 18  1  0
 20 18  2  0
M  END
$$$$
