DAS.pdb
     RDKit          3D

 20 19  0  0  1  0  0  0  0  0999 V2000
    7.9775  -16.8452   16.9509 N   0  0  0  0  0  0  0  0  0  0  0  0
    9.2135  -17.2428   17.5579 C   0  0  1  0  0  0  0  0  0  0  0  0
   10.3570  -17.1313   16.5791 C   0  0  0  0  0  0  0  0  0  0  0  0
   10.0858  -17.9415   15.3699 C   0  0  0  0  0  0  0  0  0  0  0  0
    9.1801  -18.7956   15.4034 O   0  0  0  0  0  0  0  0  0  0  0  0
    9.4656  -16.3887   18.7472 C   0  0  0  0  0  0  0  0  0  0  0  0
   10.6071  -16.4865   19.2830 O   0  0  0  0  0  0  0  0  0  0  0  0
   10.8341  -17.7598   14.1912 O   0  0  0  0  0  0  0  0  0  0  0  0
    7.5856  -13.7252   20.5643 C   0  0  0  0  0  0  0  0  0  0  0  0
    8.6793  -14.7458   20.4403 C   0  0  2  0  0  0  0  0  0  0  0  0
    8.4838  -15.5216   19.2444 N   0  0  0  0  0  0  0  0  0  0  0  0
    8.7202  -15.6325   21.6336 C   0  0  0  0  0  0  0  0  0  0  0  0
    7.7581  -16.3133   22.0324 O   0  0  0  0  0  0  0  0  0  0  0  0
   12.1105  -17.4420   22.5637 O   0  0  0  0  0  0  0  0  0  0  0  0
   10.9094  -17.8566   23.1552 C   0  0  0  0  0  0  0  0  0  0  0  0
   10.1177  -16.6063   23.4953 C   0  0  2  0  0  0  0  0  0  0  0  0
    9.9365  -15.7219   22.3863 N   0  0  0  0  0  0  0  0  0  0  0  0
   10.6872  -15.9393   24.6854 C   0  0  0  0  0  0  0  0  0  0  0  0
   10.7525  -16.5197   25.9407 O   0  0  0  0  0  0  0  0  0  0  0  0
   11.1392  -14.7771   24.5518 O   0  0  0  0  0  0  0  0  0  0  0  0
  2  1  1  6
  2  3  1  0
  3  4  1  0
  4  8  1  0
  5  4  2  0
  6  2  1  0
  6  7  2  0
 10  9  1  1
 10 11  1  0
 11  6  1  0
 12 13  2  0
 12 10  1  0
 14 15  1  0
 16 17  1  0
 16 15  1  6
 17 12  1  0
 18 16  1  0
 19 18  1  0
 20 18  2  0
M  END
$$$$
