DAS.pdb
     RDKit          3D

 20 19  0  0  1  0  0  0  0  0999 V2000
    9.3311  -17.6237   19.4665 N   0  0  0  0  0  0  0  0  0  0  0  0
    8.1780  -17.0567   20.1012 C   0  0  1  0  0  0  0  0  0  0  0  0
    7.1006  -18.0962   20.2931 C   0  0  0  0  0  0  0  0  0  0  0  0
    6.6528  -18.6267   18.9854 C   0  0  0  0  0  0  0  0  0  0  0  0
    6.3009  -17.8290   18.0962 O   0  0  0  0  0  0  0  0  0  0  0  0
    8.5801  -16.4808   21.4105 C   0  0  0  0  0  0  0  0  0  0  0  0
    9.5178  -17.0679   22.0234 O   0  0  0  0  0  0  0  0  0  0  0  0
    6.6196  -20.0121   18.7368 O   0  0  0  0  0  0  0  0  0  0  0  0
    7.5892  -13.4859   23.4135 C   0  0  0  0  0  0  0  0  0  0  0  0
    8.2951  -14.7959   23.2172 C   0  0  2  0  0  0  0  0  0  0  0  0
    7.9478  -15.3451   21.9335 N   0  0  0  0  0  0  0  0  0  0  0  0
    7.9535  -15.7546   24.3017 C   0  0  0  0  0  0  0  0  0  0  0  0
    6.8755  -16.3716   24.3759 O   0  0  0  0  0  0  0  0  0  0  0  0
    9.0250  -19.5238   26.2610 O   0  0  0  0  0  0  0  0  0  0  0  0
    8.9570  -18.4648   25.3454 C   0  0  0  0  0  0  0  0  0  0  0  0
    8.9251  -17.1755   26.1468 C   0  0  2  0  0  0  0  0  0  0  0  0
    8.9138  -15.9965   25.3376 N   0  0  0  0  0  0  0  0  0  0  0  0
    9.9953  -17.1720   27.1667 C   0  0  0  0  0  0  0  0  0  0  0  0
    9.9696  -17.9407   28.3179 O   0  0  0  0  0  0  0  0  0  0  0  0
   10.9875  -16.4281   26.9796 O   0  0  0  0  0  0  0  0  0  0  0  0
  2  1  1  1
  2  3  1  0
  3  4  1  0
  4  8  1  0
  5  4  2  0
  6  2  1  0
  6  7  2  0
 10  9  1  1
 10 11  1  0
 11  6  1  0
 12 13  2  0
 12 10  1  0
 14 15  1  0
 16 17  1  0
 16 15  1  6
 17 12  1  0
 18 16  1  0
 19 18  1  0
 20 18  2  0
M  END
$$$$
