DAS.pdb
     RDKit          3D

 20 19  0  0  1  0  0  0  0  0999 V2000
   11.7116  -15.1098   16.4385 N   0  0  0  0  0  0  0  0  0  0  0  0
   10.5764  -15.5383   17.2012 C   0  0  1  0  0  0  0  0  0  0  0  0
   10.7835  -16.9320   17.7422 C   0  0  0  0  0  0  0  0  0  0  0  0
   10.6586  -17.9331   16.6586 C   0  0  0  0  0  0  0  0  0  0  0  0
   11.6834  -18.3069   16.0577 O   0  0  0  0  0  0  0  0  0  0  0  0
   10.3509  -14.5799   18.3139 C   0  0  0  0  0  0  0  0  0  0  0  0
   11.3570  -14.2878   19.0224 O   0  0  0  0  0  0  0  0  0  0  0  0
    9.4043  -18.4637   16.3012 O   0  0  0  0  0  0  0  0  0  0  0  0
    7.4999  -12.4825   19.4886 C   0  0  0  0  0  0  0  0  0  0  0  0
    8.8335  -13.1479   19.6670 C   0  0  2  0  0  0  0  0  0  0  0  0
    9.0852  -14.0318   18.5600 N   0  0  0  0  0  0  0  0  0  0  0  0
    8.8898  -13.8955   20.9515 C   0  0  0  0  0  0  0  0  0  0  0  0
    8.7290  -13.3761   22.0707 O   0  0  0  0  0  0  0  0  0  0  0  0
    8.9496  -18.2604   23.0497 O   0  0  0  0  0  0  0  0  0  0  0  0
    8.9085  -17.5925   21.8182 C   0  0  0  0  0  0  0  0  0  0  0  0
    9.1987  -16.1268   22.0889 C   0  0  2  0  0  0  0  0  0  0  0  0
    9.1453  -15.3054   20.9195 N   0  0  0  0  0  0  0  0  0  0  0  0
   10.4587  -15.9788   22.8478 C   0  0  0  0  0  0  0  0  0  0  0  0
   10.6408  -16.4359   24.1419 O   0  0  0  0  0  0  0  0  0  0  0  0
   11.4223  -15.4047   22.2870 O   0  0  0  0  0  0  0  0  0  0  0  0
  2  1  1  1
  2  3  1  0
  3  4  1  0
  4  8  1  0
  5  4  2  0
  6  2  1  0
  6  7  2  0
 10  9  1  6
 10 11  1  0
 11  6  1  0
 12 13  2  0
 12 10  1  0
 14 15  1  0
 16 17  1  0
 16 15  1  6
 17 12  1  0
 18 16  1  0
 19 18  1  0
 20 18  2  0
M  END
$$$$
