DAS.pdb
     RDKit          3D

 20 19  0  0  1  0  0  0  0  0999 V2000
    8.9744  -16.8295   16.4391 N   0  0  0  0  0  0  0  0  0  0  0  0
    8.7309  -17.6190   17.6102 C   0  0  1  0  0  0  0  0  0  0  0  0
    9.5849  -18.8635   17.6104 C   0  0  0  0  0  0  0  0  0  0  0  0
    9.3223  -19.6730   16.3989 C   0  0  0  0  0  0  0  0  0  0  0  0
   10.1945  -19.7372   15.5122 O   0  0  0  0  0  0  0  0  0  0  0  0
    9.0140  -16.7974   18.8154 C   0  0  0  0  0  0  0  0  0  0  0  0
   10.2188  -16.4600   19.0005 O   0  0  0  0  0  0  0  0  0  0  0  0
    8.1073  -20.3659   16.2378 O   0  0  0  0  0  0  0  0  0  0  0  0
    6.9573  -15.0767   21.4003 C   0  0  0  0  0  0  0  0  0  0  0  0
    8.2484  -15.6345   20.8759 C   0  0  2  0  0  0  0  0  0  0  0  0
    7.9932  -16.4197   19.6976 N   0  0  0  0  0  0  0  0  0  0  0  0
    8.9340  -16.4561   21.9088 C   0  0  0  0  0  0  0  0  0  0  0  0
    8.7823  -17.6841   22.0398 O   0  0  0  0  0  0  0  0  0  0  0  0
   12.6113  -15.7821   23.1026 O   0  0  0  0  0  0  0  0  0  0  0  0
   11.8325  -15.8579   24.2654 C   0  0  0  0  0  0  0  0  0  0  0  0
   10.5072  -16.4918   23.8814 C   0  0  2  0  0  0  0  0  0  0  0  0
    9.8303  -15.8105   22.8219 N   0  0  0  0  0  0  0  0  0  0  0  0
    9.6625  -16.6932   25.0779 C   0  0  0  0  0  0  0  0  0  0  0  0
    9.9814  -17.5542   26.1142 O   0  0  0  0  0  0  0  0  0  0  0  0
    8.5916  -16.0459   25.1610 O   0  0  0  0  0  0  0  0  0  0  0  0
  2  1  1  6
  2  3  1  0
  3  4  1  0
  4  8  1  0
  5  4  2  0
  6  2  1  0
  6  7  2  0
 10  9  1  1
 10 11  1  0
 11  6  1  0
 12 13  2  0
 12 10  1  0
 14 15  1  0
 16 17  1  0
 16 15  1  1
 17 12  1  0
 18 16  1  0
 19 18  1  0
 20 18  2  0
M  END
$$$$
