CIF.pdb
     RDKit          3D

 26 26  0  0  1  0  0  0  0  0999 V2000
   22.9148  -22.8729  -15.1850 N   0  0  0  0  0  0  0  0  0  0  0  0
   23.0150  -21.7724  -14.2696 C   0  0  1  0  0  0  0  0  0  0  0  0
   21.8083  -21.8241  -13.3497 C   0  0  0  0  0  0  0  0  0  0  0  0
   20.3328  -21.6135  -14.3874 S   0  0  0  0  0  0  0  0  0  0  0  0
   24.2809  -21.8200  -13.4960 C   0  0  0  0  0  0  0  0  0  0  0  0
   24.6525  -22.8950  -13.0192 O   0  0  0  0  0  0  0  0  0  0  0  0
   28.2362  -21.4902  -14.4057 C   0  0  0  0  0  0  0  0  0  0  0  0
   27.8184  -20.0106  -14.3760 C   0  0  0  0  0  0  0  0  0  0  0  0
   27.3375  -19.7357  -13.0031 C   0  0  2  0  0  0  0  0  0  0  0  0
   28.5295  -19.8606  -12.0415 C   0  0  0  0  0  0  0  0  0  0  0  0
   26.2058  -20.5434  -12.4912 C   0  0  2  0  0  0  0  0  0  0  0  0
   25.0521  -20.6317  -13.3112 N   0  0  0  0  0  0  0  0  0  0  0  0
   25.9292  -20.3548  -11.0263 C   0  0  0  0  0  0  0  0  0  0  0  0
   25.0024  -19.5502  -10.7529 O   0  0  0  0  0  0  0  0  0  0  0  0
   26.6073  -20.9859   -9.9919 N   0  0  0  0  0  0  0  0  0  0  0  0
   26.3057  -20.8093   -8.5717 C   0  0  1  0  0  0  0  0  0  0  0  0
   27.1951  -21.6465   -7.7175 C   0  0  0  0  0  0  0  0  0  0  0  0
   27.8680  -20.8383   -6.6792 C   0  0  0  0  0  0  0  0  0  0  0  0
   28.4634  -21.4371   -5.5628 C   0  0  0  0  0  0  0  0  0  0  0  0
   29.1211  -20.7273   -4.5872 C   0  0  0  0  0  0  0  0  0  0  0  0
   29.2022  -19.3546   -4.7082 C   0  0  0  0  0  0  0  0  0  0  0  0
   28.6186  -18.7567   -5.8047 C   0  0  0  0  0  0  0  0  0  0  0  0
   27.9561  -19.4527   -6.7911 C   0  0  0  0  0  0  0  0  0  0  0  0
   26.4236  -19.3914   -8.2029 C   0  0  0  0  0  0  0  0  0  0  0  0
   27.2006  -18.4567   -8.8537 O   0  0  0  0  0  0  0  0  0  0  0  0
   25.7693  -18.9796   -7.2110 O   0  0  0  0  0  0  0  0  0  0  0  0
  2  1  1  6
  3  2  1  0
  3  4  1  0
  5  2  1  0
  5  6  2  0
  7  8  1  0
  9  8  1  0
  9 11  1  0
  9 10  1  1
 11 12  1  6
 12  5  1  0
 13 11  1  0
 13 15  1  0
 14 13  2  0
 16 15  1  0
 16 24  1  0
 16 17  1  1
 18 17  1  0
 19 18  2  0
 20 19  1  0
 21 22  1  0
 21 20  2  0
 22 23  2  0
 23 18  1  0
 24 26  2  0
 24 25  1  0
M  END
$$$$
