CIF.pdb
     RDKit          3D

 26 26  0  0  1  0  0  0  0  0999 V2000
   24.6253  -13.2644  -18.2098 N   0  0  0  0  0  0  0  0  0  0  0  0
   24.4231  -12.6100  -16.9488 C   0  0  1  0  0  0  0  0  0  0  0  0
   25.7893  -12.2919  -16.3679 C   0  0  0  0  0  0  0  0  0  0  0  0
   26.5857  -13.8751  -15.9715 S   0  0  0  0  0  0  0  0  0  0  0  0
   23.6046  -11.3805  -17.0974 C   0  0  0  0  0  0  0  0  0  0  0  0
   23.7307  -10.6953  -18.1150 O   0  0  0  0  0  0  0  0  0  0  0  0
   18.9933  -11.9524  -15.1438 C   0  0  0  0  0  0  0  0  0  0  0  0
   19.5870  -11.0973  -16.2757 C   0  0  0  0  0  0  0  0  0  0  0  0
   20.4367  -10.0724  -15.6285 C   0  0  2  0  0  0  0  0  0  0  0  0
   19.6909   -8.7297  -15.6743 C   0  0  0  0  0  0  0  0  0  0  0  0
   21.8135   -9.8881  -16.1441 C   0  0  2  0  0  0  0  0  0  0  0  0
   22.6857  -11.0038  -16.0704 N   0  0  0  0  0  0  0  0  0  0  0  0
   22.4366   -8.5712  -15.7760 C   0  0  0  0  0  0  0  0  0  0  0  0
   22.8394   -8.4798  -14.5885 O   0  0  0  0  0  0  0  0  0  0  0  0
   22.5886   -7.4866  -16.6298 N   0  0  0  0  0  0  0  0  0  0  0  0
   23.2141   -6.2181  -16.2574 C   0  0  1  0  0  0  0  0  0  0  0  0
   23.7112   -5.4833  -17.4552 C   0  0  0  0  0  0  0  0  0  0  0  0
   24.3259   -4.1918  -17.0831 C   0  0  0  0  0  0  0  0  0  0  0  0
   23.5570   -3.0287  -16.9586 C   0  0  0  0  0  0  0  0  0  0  0  0
   24.0821   -1.8134  -16.5904 C   0  0  0  0  0  0  0  0  0  0  0  0
   25.4349   -1.7286  -16.3289 C   0  0  0  0  0  0  0  0  0  0  0  0
   26.1994   -2.8694  -16.4491 C   0  0  0  0  0  0  0  0  0  0  0  0
   25.6896   -4.0946  -16.8166 C   0  0  0  0  0  0  0  0  0  0  0  0
   22.2638   -5.3888  -15.5027 C   0  0  0  0  0  0  0  0  0  0  0  0
   22.5497   -4.6942  -14.3465 O   0  0  0  0  0  0  0  0  0  0  0  0
   21.0855   -5.2959  -15.9323 O   0  0  0  0  0  0  0  0  0  0  0  0
  2  1  1  6
  3  2  1  0
  3  4  1  0
  5  2  1  0
  5  6  2  0
  7  8  1  0
  9  8  1  0
  9 11  1  0
  9 10  1  6
 11 12  1  1
 12  5  1  0
 13 11  1  0
 13 15  1  0
 14 13  2  0
 16 15  1  0
 16 24  1  0
 16 17  1  6
 18 17  1  0
 19 18  2  0
 20 19  1  0
 21 22  1  0
 21 20  2  0
 22 23  2  0
 23 18  1  0
 24 26  2  0
 24 25  1  0
M  END
$$$$
