CIF.pdb
     RDKit          3D

 26 26  0  0  1  0  0  0  0  0999 V2000
   19.7098   -3.8470  -16.1786 N   0  0  0  0  0  0  0  0  0  0  0  0
   19.2907   -4.0300  -14.8184 C   0  0  1  0  0  0  0  0  0  0  0  0
   17.9850   -3.2784  -14.6311 C   0  0  0  0  0  0  0  0  0  0  0  0
   17.4681   -3.5215  -12.9072 S   0  0  0  0  0  0  0  0  0  0  0  0
   19.1339   -5.4679  -14.4847 C   0  0  0  0  0  0  0  0  0  0  0  0
   18.5620   -6.2107  -15.2860 O   0  0  0  0  0  0  0  0  0  0  0  0
   22.6569   -9.2187  -13.6682 C   0  0  0  0  0  0  0  0  0  0  0  0
   21.4556   -8.3213  -14.0095 C   0  0  0  0  0  0  0  0  0  0  0  0
   20.6738   -8.1706  -12.7615 C   0  0  2  0  0  0  0  0  0  0  0  0
   20.2841   -9.5717  -12.2654 C   0  0  0  0  0  0  0  0  0  0  0  0
   19.4689   -7.3092  -12.7990 C   0  0  2  0  0  0  0  0  0  0  0  0
   19.6418   -5.9758  -13.2498 N   0  0  0  0  0  0  0  0  0  0  0  0
   18.5658   -7.4635  -11.6079 C   0  0  0  0  0  0  0  0  0  0  0  0
   19.0412   -7.0597  -10.5163 O   0  0  0  0  0  0  0  0  0  0  0  0
   17.2877   -8.0059  -11.6325 N   0  0  0  0  0  0  0  0  0  0  0  0
   16.4448   -8.1989  -10.4530 C   0  0  1  0  0  0  0  0  0  0  0  0
   15.4775   -7.0774  -10.2849 C   0  0  0  0  0  0  0  0  0  0  0  0
   14.6277   -7.2681   -9.0909 C   0  0  0  0  0  0  0  0  0  0  0  0
   13.3435   -7.8160   -9.1914 C   0  0  0  0  0  0  0  0  0  0  0  0
   12.5298   -8.0345   -8.1059 C   0  0  0  0  0  0  0  0  0  0  0  0
   12.9962   -7.6990   -6.8507 C   0  0  0  0  0  0  0  0  0  0  0  0
   14.2599   -7.1589   -6.7427 C   0  0  0  0  0  0  0  0  0  0  0  0
   15.0881   -6.9335   -7.8196 C   0  0  0  0  0  0  0  0  0  0  0  0
   15.7340   -9.4822  -10.5448 C   0  0  0  0  0  0  0  0  0  0  0  0
   15.5418  -10.3673   -9.5054 O   0  0  0  0  0  0  0  0  0  0  0  0
   15.2564   -9.8179  -11.6588 O   0  0  0  0  0  0  0  0  0  0  0  0
  2  1  1  6
  3  2  1  0
  3  4  1  0
  5  2  1  0
  5  6  2  0
  7  8  1  0
  9  8  1  0
  9 11  1  0
  9 10  1  6
 11 12  1  1
 12  5  1  0
 13 11  1  0
 13 15  1  0
 14 13  2  0
 16 15  1  0
 16 24  1  0
 16 17  1  6
 18 17  1  0
 19 18  2  0
 20 19  1  0
 21 22  1  0
 21 20  2  0
 22 23  2  0
 23 18  1  0
 24 26  2  0
 24 25  1  0
M  END
$$$$
