CIF.pdb
     RDKit          3D

 26 26  0  0  1  0  0  0  0  0999 V2000
   22.3800  -22.2899  -13.7525 N   0  0  0  0  0  0  0  0  0  0  0  0
   22.9903  -21.0852  -13.2673 C   0  0  1  0  0  0  0  0  0  0  0  0
   21.9311  -20.3004  -12.5143 C   0  0  0  0  0  0  0  0  0  0  0  0
   20.7433  -19.6860  -13.7430 S   0  0  0  0  0  0  0  0  0  0  0  0
   24.1589  -21.3770  -12.3998 C   0  0  0  0  0  0  0  0  0  0  0  0
   24.0538  -22.2353  -11.5205 O   0  0  0  0  0  0  0  0  0  0  0  0
   28.0974  -21.0943  -14.8175 C   0  0  0  0  0  0  0  0  0  0  0  0
   28.0263  -21.8743  -13.4942 C   0  0  0  0  0  0  0  0  0  0  0  0
   27.8451  -20.8700  -12.4219 C   0  0  2  0  0  0  0  0  0  0  0  0
   28.9396  -21.0902  -11.3661 C   0  0  0  0  0  0  0  0  0  0  0  0
   26.5243  -20.8006  -11.7541 C   0  0  2  0  0  0  0  0  0  0  0  0
   25.3850  -20.6682  -12.5880 N   0  0  0  0  0  0  0  0  0  0  0  0
   26.5057  -19.9496  -10.5157 C   0  0  0  0  0  0  0  0  0  0  0  0
   25.9522  -18.8278  -10.6420 O   0  0  0  0  0  0  0  0  0  0  0  0
   27.0428  -20.3070   -9.2861 N   0  0  0  0  0  0  0  0  0  0  0  0
   27.2198  -19.3911   -8.1595 C   0  0  1  0  0  0  0  0  0  0  0  0
   26.3127  -19.7368   -7.0285 C   0  0  0  0  0  0  0  0  0  0  0  0
   27.0732  -20.0971   -5.8136 C   0  0  0  0  0  0  0  0  0  0  0  0
   26.9217  -21.3481   -5.2041 C   0  0  0  0  0  0  0  0  0  0  0  0
   27.6265  -21.7344   -4.0896 C   0  0  0  0  0  0  0  0  0  0  0  0
   28.5309  -20.8489   -3.5385 C   0  0  0  0  0  0  0  0  0  0  0  0
   28.6865  -19.6147   -4.1325 C   0  0  0  0  0  0  0  0  0  0  0  0
   27.9886  -19.2118   -5.2492 C   0  0  0  0  0  0  0  0  0  0  0  0
   28.6213  -19.4004   -7.7166 C   0  0  0  0  0  0  0  0  0  0  0  0
   29.5292  -20.4105   -7.9535 O   0  0  0  0  0  0  0  0  0  0  0  0
   29.0438  -18.4124   -7.0633 O   0  0  0  0  0  0  0  0  0  0  0  0
  2  1  1  1
  3  2  1  0
  3  4  1  0
  5  2  1  0
  5  6  2  0
  7  8  1  0
  9  8  1  0
  9 11  1  0
  9 10  1  1
 11 12  1  6
 12  5  1  0
 13 11  1  0
 13 15  1  0
 14 13  2  0
 16 15  1  0
 16 24  1  0
 16 17  1  1
 18 17  1  0
 19 18  2  0
 20 19  1  0
 21 22  1  0
 21 20  2  0
 22 23  2  0
 23 18  1  0
 24 26  2  0
 24 25  1  0
M  END
$$$$
