CIF.pdb
     RDKit          3D

 26 26  0  0  1  0  0  0  0  0999 V2000
   28.8256  -24.0284  -19.3987 N   0  0  0  0  0  0  0  0  0  0  0  0
   28.6371  -24.5832  -18.0888 C   0  0  1  0  0  0  0  0  0  0  0  0
   27.9772  -23.5217  -17.2270 C   0  0  0  0  0  0  0  0  0  0  0  0
   29.2464  -22.2833  -16.8350 S   0  0  0  0  0  0  0  0  0  0  0  0
   27.8196  -25.8215  -18.1334 C   0  0  0  0  0  0  0  0  0  0  0  0
   26.9228  -25.9182  -18.9743 O   0  0  0  0  0  0  0  0  0  0  0  0
   29.7834  -30.9520  -17.4301 C   0  0  0  0  0  0  0  0  0  0  0  0
   29.1169  -29.6547  -17.9177 C   0  0  0  0  0  0  0  0  0  0  0  0
   28.0436  -29.3415  -16.9475 C   0  0  2  0  0  0  0  0  0  0  0  0
   27.0480  -30.5119  -16.9366 C   0  0  0  0  0  0  0  0  0  0  0  0
   27.3048  -28.0687  -17.1190 C   0  0  2  0  0  0  0  0  0  0  0  0
   28.0754  -26.8818  -17.2107 N   0  0  0  0  0  0  0  0  0  0  0  0
   26.0677  -27.9574  -16.2734 C   0  0  0  0  0  0  0  0  0  0  0  0
   26.2570  -27.5762  -15.0904 O   0  0  0  0  0  0  0  0  0  0  0  0
   24.7758  -28.2405  -16.6968 N   0  0  0  0  0  0  0  0  0  0  0  0
   23.5809  -28.1056  -15.8643 C   0  0  1  0  0  0  0  0  0  0  0  0
   23.3393  -26.6849  -15.4839 C   0  0  0  0  0  0  0  0  0  0  0  0
   22.9431  -25.8703  -16.6517 C   0  0  0  0  0  0  0  0  0  0  0  0
   23.8736  -25.0822  -17.3390 C   0  0  0  0  0  0  0  0  0  0  0  0
   23.5549  -24.3300  -18.4439 C   0  0  0  0  0  0  0  0  0  0  0  0
   22.2535  -24.3480  -18.9040 C   0  0  0  0  0  0  0  0  0  0  0  0
   21.3306  -25.1215  -18.2330 C   0  0  0  0  0  0  0  0  0  0  0  0
   21.6331  -25.8811  -17.1249 C   0  0  0  0  0  0  0  0  0  0  0  0
   22.4123  -28.6566  -16.5652 C   0  0  0  0  0  0  0  0  0  0  0  0
   22.4043  -29.1271  -17.8612 O   0  0  0  0  0  0  0  0  0  0  0  0
   21.3188  -28.7084  -15.9462 O   0  0  0  0  0  0  0  0  0  0  0  0
  2  1  1  6
  3  2  1  0
  3  4  1  0
  5  2  1  0
  5  6  2  0
  7  8  1  0
  9  8  1  0
  9 11  1  0
  9 10  1  6
 11 12  1  1
 12  5  1  0
 13 11  1  0
 13 15  1  0
 14 13  2  0
 16 15  1  0
 16 24  1  0
 16 17  1  6
 18 17  1  0
 19 18  2  0
 20 19  1  0
 21 22  1  0
 21 20  2  0
 22 23  2  0
 23 18  1  0
 24 26  2  0
 24 25  1  0
M  END
$$$$
