CIF.pdb
     RDKit          3D

 26 26  0  0  1  0  0  0  0  0999 V2000
   29.0251  -21.6575  -16.9351 N   0  0  0  0  0  0  0  0  0  0  0  0
   28.9283  -20.6426  -15.9254 C   0  0  1  0  0  0  0  0  0  0  0  0
   27.7642  -19.7380  -16.2882 C   0  0  0  0  0  0  0  0  0  0  0  0
   28.2672  -18.7730  -17.7422 S   0  0  0  0  0  0  0  0  0  0  0  0
   28.7482  -21.2320  -14.5750 C   0  0  0  0  0  0  0  0  0  0  0  0
   28.0295  -22.2258  -14.4453 O   0  0  0  0  0  0  0  0  0  0  0  0
   32.4750  -21.9899  -10.5279 C   0  0  0  0  0  0  0  0  0  0  0  0
   31.3654  -22.1078  -11.5860 C   0  0  0  0  0  0  0  0  0  0  0  0
   30.3095  -21.1452  -11.1988 C   0  0  2  0  0  0  0  0  0  0  0  0
   29.8250  -21.5047   -9.7856 C   0  0  0  0  0  0  0  0  0  0  0  0
   29.1406  -21.0008  -12.0977 C   0  0  2  0  0  0  0  0  0  0  0  0
   29.4024  -20.6494  -13.4464 N   0  0  0  0  0  0  0  0  0  0  0  0
   27.9696  -20.2947  -11.4746 C   0  0  0  0  0  0  0  0  0  0  0  0
   27.9436  -19.0484  -11.6381 O   0  0  0  0  0  0  0  0  0  0  0  0
   26.9524  -20.9062  -10.7537 N   0  0  0  0  0  0  0  0  0  0  0  0
   25.8422  -20.1965  -10.1189 C   0  0  1  0  0  0  0  0  0  0  0  0
   25.0673  -19.3984  -11.1108 C   0  0  0  0  0  0  0  0  0  0  0  0
   24.3231  -20.2688  -12.0451 C   0  0  0  0  0  0  0  0  0  0  0  0
   24.9219  -20.7695  -13.2071 C   0  0  0  0  0  0  0  0  0  0  0  0
   24.2763  -21.6016  -14.0897 C   0  0  0  0  0  0  0  0  0  0  0  0
   22.9718  -21.9658  -13.8228 C   0  0  0  0  0  0  0  0  0  0  0  0
   22.3745  -21.4772  -12.6805 C   0  0  0  0  0  0  0  0  0  0  0  0
   23.0067  -20.6429  -11.7858 C   0  0  0  0  0  0  0  0  0  0  0  0
   24.9637  -21.1498   -9.4262 C   0  0  0  0  0  0  0  0  0  0  0  0
   23.8867  -20.8154   -8.6329 O   0  0  0  0  0  0  0  0  0  0  0  0
   25.2016  -22.3779   -9.5551 O   0  0  0  0  0  0  0  0  0  0  0  0
  2  1  1  6
  3  2  1  0
  3  4  1  0
  5  2  1  0
  5  6  2  0
  7  8  1  0
  9  8  1  0
  9 11  1  0
  9 10  1  1
 11 12  1  6
 12  5  1  0
 13 11  1  0
 13 15  1  0
 14 13  2  0
 16 15  1  0
 16 24  1  0
 16 17  1  6
 18 17  1  0
 19 18  2  0
 20 19  1  0
 21 22  1  0
 21 20  2  0
 22 23  2  0
 23 18  1  0
 24 26  2  0
 24 25  1  0
M  END
$$$$
