CIF.pdb
     RDKit          3D

 26 26  0  0  1  0  0  0  0  0999 V2000
   24.8807  -24.2014  -15.9858 N   0  0  0  0  0  0  0  0  0  0  0  0
   24.4052  -23.5305  -14.8097 C   0  0  1  0  0  0  0  0  0  0  0  0
   23.8774  -24.5869  -13.8556 C   0  0  0  0  0  0  0  0  0  0  0  0
   22.3067  -25.1906  -14.5388 S   0  0  0  0  0  0  0  0  0  0  0  0
   25.4744  -22.7205  -14.1740 C   0  0  0  0  0  0  0  0  0  0  0  0
   26.6490  -23.0763  -14.2955 O   0  0  0  0  0  0  0  0  0  0  0  0
   26.6635  -17.7249  -15.0901 C   0  0  0  0  0  0  0  0  0  0  0  0
   26.6551  -19.2276  -14.7636 C   0  0  0  0  0  0  0  0  0  0  0  0
   26.2690  -19.3476  -13.3396 C   0  0  2  0  0  0  0  0  0  0  0  0
   27.3053  -18.5908  -12.4944 C   0  0  0  0  0  0  0  0  0  0  0  0
   26.0816  -20.7088  -12.7852 C   0  0  2  0  0  0  0  0  0  0  0  0
   25.1382  -21.5461  -13.4333 N   0  0  0  0  0  0  0  0  0  0  0  0
   26.0503  -20.7621  -11.2838 C   0  0  0  0  0  0  0  0  0  0  0  0
   24.9057  -20.7011  -10.7671 O   0  0  0  0  0  0  0  0  0  0  0  0
   27.1626  -20.8676  -10.4593 N   0  0  0  0  0  0  0  0  0  0  0  0
   27.1143  -20.8812   -8.9976 C   0  0  1  0  0  0  0  0  0  0  0  0
   28.4541  -20.6055   -8.4055 C   0  0  0  0  0  0  0  0  0  0  0  0
   28.3578  -20.3038   -6.9619 C   0  0  0  0  0  0  0  0  0  0  0  0
   28.6905  -21.2594   -5.9947 C   0  0  0  0  0  0  0  0  0  0  0  0
   28.6402  -21.0141   -4.6436 C   0  0  0  0  0  0  0  0  0  0  0  0
   28.2424  -19.7646   -4.2120 C   0  0  0  0  0  0  0  0  0  0  0  0
   27.9130  -18.8175   -5.1579 C   0  0  0  0  0  0  0  0  0  0  0  0
   27.9580  -19.0465   -6.5151 C   0  0  0  0  0  0  0  0  0  0  0  0
   26.1277  -19.9040   -8.5157 C   0  0  0  0  0  0  0  0  0  0  0  0
   25.1403  -20.1546   -7.5867 O   0  0  0  0  0  0  0  0  0  0  0  0
   26.1722  -18.7367   -8.9814 O   0  0  0  0  0  0  0  0  0  0  0  0
  2  1  1  6
  3  2  1  0
  3  4  1  0
  5  2  1  0
  5  6  2  0
  7  8  1  0
  9  8  1  0
  9 11  1  0
  9 10  1  1
 11 12  1  6
 12  5  1  0
 13 11  1  0
 13 15  1  0
 14 13  2  0
 16 15  1  0
 16 24  1  0
 16 17  1  1
 18 17  1  0
 19 18  2  0
 20 19  1  0
 21 22  1  0
 21 20  2  0
 22 23  2  0
 23 18  1  0
 24 26  2  0
 24 25  1  0
M  END
$$$$
