QCN.pdb
     RDKit          3D

 24 23  0  0  1  0  0  0  0  0999 V2000
   17.6516  -12.6894  -18.4031 N   0  0  0  0  0  0  0  0  0  0  0  0
   18.0995  -12.2916  -19.6952 C   0  0  0  0  0  0  0  0  0  0  0  0
   17.8910  -13.0804  -20.6389 O   0  0  0  0  0  0  0  0  0  0  0  0
   18.7715  -11.0230  -19.9000 C   0  0  0  0  0  0  0  0  0  0  0  0
   18.9875  -10.1380  -18.7388 C   0  0  0  0  0  0  0  0  0  0  0  0
   20.3036  -10.1925  -18.0516 C   0  0  2  0  0  0  0  0  0  0  0  0
   20.6277  -11.3969  -17.3680 N   0  0  0  0  0  0  0  0  0  0  0  0
   20.3242   -9.0629  -17.0764 C   0  0  0  0  0  0  0  0  0  0  0  0
   19.2787   -8.9712  -16.3468 O   0  0  0  0  0  0  0  0  0  0  0  0
   21.3562   -8.1377  -16.9090 N   0  0  0  0  0  0  0  0  0  0  0  0
   21.2363   -7.1486  -15.8369 C   0  0  1  0  0  0  0  0  0  0  0  0
   22.5463   -7.2796  -15.0487 C   0  0  0  0  0  0  0  0  0  0  0  0
   22.4971   -6.0205  -13.7537 S   0  0  0  0  0  0  0  0  0  0  0  0
   21.1720   -5.7794  -16.3706 C   0  0  0  0  0  0  0  0  0  0  0  0
   21.8742   -5.3742  -17.3397 O   0  0  0  0  0  0  0  0  0  0  0  0
   18.2551   -1.3922  -18.2970 N   0  0  0  0  0  0  0  0  0  0  0  0
   18.4488   -1.8591  -16.9954 C   0  0  0  0  0  0  0  0  0  0  0  0
   18.2980   -1.0538  -16.0294 O   0  0  0  0  0  0  0  0  0  0  0  0
   18.8166   -3.2317  -16.6575 C   0  0  0  0  0  0  0  0  0  0  0  0
   20.2176   -3.4517  -16.1964 C   0  0  2  0  0  0  0  0  0  0  0  0
   20.2865   -4.8645  -15.7796 N   0  0  0  0  0  0  0  0  0  0  0  0
   20.6496   -2.6404  -15.0531 C   0  0  0  0  0  0  0  0  0  0  0  0
   20.8671   -3.1810  -13.9464 O   0  0  0  0  0  0  0  0  0  0  0  0
   20.8233   -1.2834  -15.1717 O   0  0  0  0  0  0  0  0  0  0  0  0
  1  2  1  0
  2  4  1  0
  3  2  2  0
  5  4  1  0
  6  7  1  1
  6  5  1  0
  8  9  2  0
  8  6  1  0
 10  8  1  0
 11 10  1  0
 11 14  1  0
 11 12  1  1
 13 12  1  0
 14 21  1  0
 15 14  2  0
 16 17  1  0
 17 19  1  0
 18 17  2  0
 20 19  1  1
 20 22  1  0
 21 20  1  0
 22 23  2  0
 22 24  1  0
M  END
$$$$
