QCN.pdb
     RDKit          3D

 24 23  0  0  1  0  0  0  0  0999 V2000
   18.1779  -21.0030  -13.0878 N   0  0  0  0  0  0  0  0  0  0  0  0
   18.5347  -21.9532  -14.0869 C   0  0  0  0  0  0  0  0  0  0  0  0
   17.6407  -22.7286  -14.4814 O   0  0  0  0  0  0  0  0  0  0  0  0
   19.8824  -22.0146  -14.6185 C   0  0  0  0  0  0  0  0  0  0  0  0
   20.8674  -21.0089  -14.1751 C   0  0  0  0  0  0  0  0  0  0  0  0
   21.2766  -21.0111  -12.7469 C   0  0  2  0  0  0  0  0  0  0  0  0
   20.5308  -20.1880  -11.8585 N   0  0  0  0  0  0  0  0  0  0  0  0
   22.7074  -20.5883  -12.7110 C   0  0  0  0  0  0  0  0  0  0  0  0
   22.9184  -19.3918  -13.1081 O   0  0  0  0  0  0  0  0  0  0  0  0
   23.7871  -21.3691  -12.2942 N   0  0  0  0  0  0  0  0  0  0  0  0
   25.1227  -20.7707  -12.3037 C   0  0  1  0  0  0  0  0  0  0  0  0
   25.8997  -21.5550  -11.2380 C   0  0  0  0  0  0  0  0  0  0  0  0
   25.4549  -20.8352   -9.6415 S   0  0  0  0  0  0  0  0  0  0  0  0
   25.7988  -20.9804  -13.5932 C   0  0  0  0  0  0  0  0  0  0  0  0
   25.6567  -22.0216  -14.2947 O   0  0  0  0  0  0  0  0  0  0  0  0
   28.4301  -19.4364  -18.0013 N   0  0  0  0  0  0  0  0  0  0  0  0
   28.5012  -18.5226  -16.9480 C   0  0  0  0  0  0  0  0  0  0  0  0
   29.0011  -17.3791  -17.1649 O   0  0  0  0  0  0  0  0  0  0  0  0
   28.0318  -18.7897  -15.5909 C   0  0  0  0  0  0  0  0  0  0  0  0
   27.3687  -20.1057  -15.3622 C   0  0  2  0  0  0  0  0  0  0  0  0
   26.6505  -19.9767  -14.0809 N   0  0  0  0  0  0  0  0  0  0  0  0
   28.2646  -21.2613  -15.2431 C   0  0  0  0  0  0  0  0  0  0  0  0
   28.9070  -21.4511  -14.1869 O   0  0  0  0  0  0  0  0  0  0  0  0
   28.4155  -22.1512  -16.2780 O   0  0  0  0  0  0  0  0  0  0  0  0
  1  2  1  0
  2  4  1  0
  3  2  2  0
  5  4  1  0
  6  7  1  1
  6  5  1  0
  8  9  2  0
  8  6  1  0
 10  8  1  0
 11 10  1  0
 11 14  1  0
 11 12  1  1
 13 12  1  0
 14 21  1  0
 15 14  2  0
 16 17  1  0
 17 19  1  0
 18 17  2  0
 20 19  1  1
 20 22  1  0
 21 20  1  0
 22 23  2  0
 22 24  1  0
M  END
$$$$
