QCN.pdb
     RDKit          3D

 24 23  0  0  1  0  0  0  0  0999 V2000
   15.8266  -10.9039  -16.9078 N   0  0  0  0  0  0  0  0  0  0  0  0
   16.6470  -11.7974  -16.1616 C   0  0  0  0  0  0  0  0  0  0  0  0
   16.4034  -11.9126  -14.9435 O   0  0  0  0  0  0  0  0  0  0  0  0
   17.7208  -12.5382  -16.7948 C   0  0  0  0  0  0  0  0  0  0  0  0
   18.8380  -11.7895  -17.4027 C   0  0  0  0  0  0  0  0  0  0  0  0
   20.2233  -12.2458  -17.1197 C   0  0  2  0  0  0  0  0  0  0  0  0
   20.3746  -13.5375  -16.5441 N   0  0  0  0  0  0  0  0  0  0  0  0
   20.8281  -11.2347  -16.2036 C   0  0  0  0  0  0  0  0  0  0  0  0
   20.3056  -11.1937  -15.0377 O   0  0  0  0  0  0  0  0  0  0  0  0
   21.8771  -10.3666  -16.5119 N   0  0  0  0  0  0  0  0  0  0  0  0
   22.3383   -9.4385  -15.4785 C   0  0  1  0  0  0  0  0  0  0  0  0
   23.8691   -9.5096  -15.5575 C   0  0  0  0  0  0  0  0  0  0  0  0
   24.3597  -11.0239  -14.7024 S   0  0  0  0  0  0  0  0  0  0  0  0
   21.9400   -8.0547  -15.7794 C   0  0  0  0  0  0  0  0  0  0  0  0
   21.8610   -7.5902  -16.9517 O   0  0  0  0  0  0  0  0  0  0  0  0
   20.0164   -3.1482  -14.9022 N   0  0  0  0  0  0  0  0  0  0  0  0
   19.2611   -4.3171  -14.7882 C   0  0  0  0  0  0  0  0  0  0  0  0
   18.0009   -4.2233  -14.7024 O   0  0  0  0  0  0  0  0  0  0  0  0
   19.8248   -5.6643  -14.7625 C   0  0  0  0  0  0  0  0  0  0  0  0
   21.3038   -5.7708  -14.9202 C   0  0  2  0  0  0  0  0  0  0  0  0
   21.6286   -7.1944  -14.7148 N   0  0  0  0  0  0  0  0  0  0  0  0
   22.1062   -5.0003  -13.9638 C   0  0  0  0  0  0  0  0  0  0  0  0
   22.6122   -3.9087  -14.3051 O   0  0  0  0  0  0  0  0  0  0  0  0
   22.3167   -5.4560  -12.6857 O   0  0  0  0  0  0  0  0  0  0  0  0
  1  2  1  0
  2  4  1  0
  3  2  2  0
  5  4  1  0
  6  7  1  1
  6  5  1  0
  8  9  2  0
  8  6  1  0
 10  8  1  0
 11 10  1  0
 11 14  1  0
 11 12  1  6
 13 12  1  0
 14 21  1  0
 15 14  2  0
 16 17  1  0
 17 19  1  0
 18 17  2  0
 20 19  1  1
 20 22  1  0
 21 20  1  0
 22 23  2  0
 22 24  1  0
M  END
$$$$
