QCN.pdb
     RDKit          3D

 24 23  0  0  1  0  0  0  0  0999 V2000
   16.5398  -11.2261  -18.4004 N   0  0  0  0  0  0  0  0  0  0  0  0
   15.6452  -10.4316  -17.6278 C   0  0  0  0  0  0  0  0  0  0  0  0
   14.9142   -9.6316  -18.2458 O   0  0  0  0  0  0  0  0  0  0  0  0
   15.5916  -10.5492  -16.1835 C   0  0  0  0  0  0  0  0  0  0  0  0
   16.5027  -11.4976  -15.5137 C   0  0  0  0  0  0  0  0  0  0  0  0
   17.9547  -11.1836  -15.5002 C   0  0  2  0  0  0  0  0  0  0  0  0
   18.8554  -12.2821  -15.5710 N   0  0  0  0  0  0  0  0  0  0  0  0
   18.2166  -10.4243  -14.2424 C   0  0  0  0  0  0  0  0  0  0  0  0
   17.9850  -11.0780  -13.1686 O   0  0  0  0  0  0  0  0  0  0  0  0
   18.6757   -9.1088  -14.1544 N   0  0  0  0  0  0  0  0  0  0  0  0
   18.8874   -8.5335  -12.8254 C   0  0  1  0  0  0  0  0  0  0  0  0
   20.0266   -7.5248  -13.0234 C   0  0  0  0  0  0  0  0  0  0  0  0
   21.5672   -8.4661  -12.9510 S   0  0  0  0  0  0  0  0  0  0  0  0
   17.7058   -7.7873  -12.3661 C   0  0  0  0  0  0  0  0  0  0  0  0
   16.9292   -7.1627  -13.1427 O   0  0  0  0  0  0  0  0  0  0  0  0
   15.2174   -6.4801   -6.9926 N   0  0  0  0  0  0  0  0  0  0  0  0
   14.9852   -6.9398   -8.2905 C   0  0  0  0  0  0  0  0  0  0  0  0
   13.8406   -6.7653   -8.8040 O   0  0  0  0  0  0  0  0  0  0  0  0
   15.9815   -7.6168   -9.1165 C   0  0  0  0  0  0  0  0  0  0  0  0
   16.2770   -7.0016  -10.4424 C   0  0  2  0  0  0  0  0  0  0  0  0
   17.4152   -7.7603  -10.9930 N   0  0  0  0  0  0  0  0  0  0  0  0
   16.6686   -5.5880  -10.4187 C   0  0  0  0  0  0  0  0  0  0  0  0
   17.8254   -5.2629  -10.0717 O   0  0  0  0  0  0  0  0  0  0  0  0
   15.7827   -4.6008  -10.7738 O   0  0  0  0  0  0  0  0  0  0  0  0
  1  2  1  0
  2  4  1  0
  3  2  2  0
  5  4  1  0
  6  7  1  1
  6  5  1  0
  8  9  2  0
  8  6  1  0
 10  8  1  0
 11 10  1  0
 11 14  1  0
 11 12  1  6
 13 12  1  0
 14 21  1  0
 15 14  2  0
 16 17  1  0
 17 19  1  0
 18 17  2  0
 20 19  1  1
 20 22  1  0
 21 20  1  0
 22 23  2  0
 22 24  1  0
M  END
$$$$
