QCN.pdb
     RDKit          3D

 24 23  0  0  1  0  0  0  0  0999 V2000
   22.9278  -17.3822  -14.3593 N   0  0  0  0  0  0  0  0  0  0  0  0
   22.8028  -17.7760  -15.7223 C   0  0  0  0  0  0  0  0  0  0  0  0
   22.2475  -18.8694  -15.9513 O   0  0  0  0  0  0  0  0  0  0  0  0
   23.3037  -16.9392  -16.7953 C   0  0  0  0  0  0  0  0  0  0  0  0
   23.9344  -15.6490  -16.4547 C   0  0  0  0  0  0  0  0  0  0  0  0
   23.7506  -14.5103  -17.3910 C   0  0  2  0  0  0  0  0  0  0  0  0
   24.6291  -14.4419  -18.5075 N   0  0  0  0  0  0  0  0  0  0  0  0
   23.8977  -13.2641  -16.5833 C   0  0  0  0  0  0  0  0  0  0  0  0
   23.2027  -13.2403  -15.5109 O   0  0  0  0  0  0  0  0  0  0  0  0
   24.7034  -12.1683  -16.8985 N   0  0  0  0  0  0  0  0  0  0  0  0
   24.6755  -11.0061  -16.0093 C   0  0  1  0  0  0  0  0  0  0  0  0
   26.0498  -10.3497  -16.1963 C   0  0  0  0  0  0  0  0  0  0  0  0
   27.2544  -11.4417  -15.4081 S   0  0  0  0  0  0  0  0  0  0  0  0
   23.6554  -10.0318  -16.4266 C   0  0  0  0  0  0  0  0  0  0  0  0
   23.3902   -9.7728  -17.6345 O   0  0  0  0  0  0  0  0  0  0  0  0
   18.6884   -8.8571  -17.5503 N   0  0  0  0  0  0  0  0  0  0  0  0
   19.4278   -8.5247  -16.4134 C   0  0  0  0  0  0  0  0  0  0  0  0
   19.0447   -7.5511  -15.6994 O   0  0  0  0  0  0  0  0  0  0  0  0
   20.6301   -9.2295  -15.9760 C   0  0  0  0  0  0  0  0  0  0  0  0
   21.8507   -8.3985  -15.7675 C   0  0  2  0  0  0  0  0  0  0  0  0
   22.9311   -9.3465  -15.4385 N   0  0  0  0  0  0  0  0  0  0  0  0
   21.7813   -7.4231  -14.6739 C   0  0  0  0  0  0  0  0  0  0  0  0
   21.8245   -7.8091  -13.4850 O   0  0  0  0  0  0  0  0  0  0  0  0
   21.6691   -6.0785  -14.9291 O   0  0  0  0  0  0  0  0  0  0  0  0
  1  2  1  0
  2  4  1  0
  3  2  2  0
  5  4  1  0
  6  7  1  6
  6  5  1  0
  8  9  2  0
  8  6  1  0
 10  8  1  0
 11 10  1  0
 11 14  1  0
 11 12  1  6
 13 12  1  0
 14 21  1  0
 15 14  2  0
 16 17  1  0
 17 19  1  0
 18 17  2  0
 20 19  1  1
 20 22  1  0
 21 20  1  0
 22 23  2  0
 22 24  1  0
M  END
$$$$
