QCN.pdb
     RDKit          3D

 24 23  0  0  1  0  0  0  0  0999 V2000
   16.3192  -11.7136  -19.2142 N   0  0  0  0  0  0  0  0  0  0  0  0
   15.7931  -11.3834  -17.9325 C   0  0  0  0  0  0  0  0  0  0  0  0
   15.2307  -10.2761  -17.8150 O   0  0  0  0  0  0  0  0  0  0  0  0
   15.9107  -12.2981  -16.8135 C   0  0  0  0  0  0  0  0  0  0  0  0
   16.6573  -11.8640  -15.6167 C   0  0  0  0  0  0  0  0  0  0  0  0
   18.1417  -11.8674  -15.6773 C   0  0  2  0  0  0  0  0  0  0  0  0
   18.7919  -13.1260  -15.5511 N   0  0  0  0  0  0  0  0  0  0  0  0
   18.6166  -10.9666  -14.5864 C   0  0  0  0  0  0  0  0  0  0  0  0
   18.5291  -11.4623  -13.4115 O   0  0  0  0  0  0  0  0  0  0  0  0
   19.1273   -9.6771  -14.7463 N   0  0  0  0  0  0  0  0  0  0  0  0
   19.4920   -8.9200  -13.5480 C   0  0  1  0  0  0  0  0  0  0  0  0
   20.5503   -7.9214  -14.0351 C   0  0  0  0  0  0  0  0  0  0  0  0
   22.1224   -8.8116  -14.0691 S   0  0  0  0  0  0  0  0  0  0  0  0
   18.3528   -8.1459  -13.0313 C   0  0  0  0  0  0  0  0  0  0  0  0
   17.4463   -7.6625  -13.7668 O   0  0  0  0  0  0  0  0  0  0  0  0
   14.9515   -7.4267   -8.3981 N   0  0  0  0  0  0  0  0  0  0  0  0
   16.2122   -6.9102   -8.7041 C   0  0  0  0  0  0  0  0  0  0  0  0
   16.5524   -5.7961   -8.2067 O   0  0  0  0  0  0  0  0  0  0  0  0
   17.1869   -7.5710   -9.5683 C   0  0  0  0  0  0  0  0  0  0  0  0
   17.0757   -7.2961  -11.0298 C   0  0  2  0  0  0  0  0  0  0  0  0
   18.2570   -7.9257  -11.6483 N   0  0  0  0  0  0  0  0  0  0  0  0
   17.0854   -5.8812  -11.4171 C   0  0  0  0  0  0  0  0  0  0  0  0
   18.1712   -5.2888  -11.6031 O   0  0  0  0  0  0  0  0  0  0  0  0
   15.9145   -5.1833  -11.5827 O   0  0  0  0  0  0  0  0  0  0  0  0
  1  2  1  0
  2  4  1  0
  3  2  2  0
  5  4  1  0
  6  7  1  1
  6  5  1  0
  8  9  2  0
  8  6  1  0
 10  8  1  0
 11 10  1  0
 11 14  1  0
 11 12  1  6
 13 12  1  0
 14 21  1  0
 15 14  2  0
 16 17  1  0
 17 19  1  0
 18 17  2  0
 20 19  1  1
 20 22  1  0
 21 20  1  0
 22 23  2  0
 22 24  1  0
M  END
$$$$
