QCN.pdb
     RDKit          3D

 24 23  0  0  1  0  0  0  0  0999 V2000
   22.6343  -21.5798   -8.3047 N   0  0  0  0  0  0  0  0  0  0  0  0
   21.8707  -21.4467   -9.4995 C   0  0  0  0  0  0  0  0  0  0  0  0
   20.7904  -22.0679   -9.5579 O   0  0  0  0  0  0  0  0  0  0  0  0
   22.3345  -20.6246  -10.6002 C   0  0  0  0  0  0  0  0  0  0  0  0
   23.6160  -19.9062  -10.4594 C   0  0  0  0  0  0  0  0  0  0  0  0
   24.8372  -20.7017  -10.1713 C   0  0  2  0  0  0  0  0  0  0  0  0
   25.3539  -20.6383   -8.8477 N   0  0  0  0  0  0  0  0  0  0  0  0
   25.8873  -20.2334  -11.1228 C   0  0  0  0  0  0  0  0  0  0  0  0
   26.3177  -19.0507  -10.8999 O   0  0  0  0  0  0  0  0  0  0  0  0
   26.4122  -20.9598  -12.1934 N   0  0  0  0  0  0  0  0  0  0  0  0
   27.4420  -20.3312  -13.0219 C   0  0  1  0  0  0  0  0  0  0  0  0
   28.6486  -21.2725  -12.9101 C   0  0  0  0  0  0  0  0  0  0  0  0
   29.5424  -20.7901  -11.4157 S   0  0  0  0  0  0  0  0  0  0  0  0
   27.0422  -20.2846  -14.4368 C   0  0  0  0  0  0  0  0  0  0  0  0
   26.3374  -21.1738  -14.9926 O   0  0  0  0  0  0  0  0  0  0  0  0
   26.7764  -15.7941  -15.2985 N   0  0  0  0  0  0  0  0  0  0  0  0
   26.3399  -16.7321  -16.2361 C   0  0  0  0  0  0  0  0  0  0  0  0
   25.0995  -16.8239  -16.4755 O   0  0  0  0  0  0  0  0  0  0  0  0
   27.2221  -17.6301  -16.9769 C   0  0  0  0  0  0  0  0  0  0  0  0
   27.1201  -19.0820  -16.6519 C   0  0  2  0  0  0  0  0  0  0  0  0
   27.4603  -19.1987  -15.2218 N   0  0  0  0  0  0  0  0  0  0  0  0
   28.0290  -19.9676  -17.3878 C   0  0  0  0  0  0  0  0  0  0  0  0
   27.5978  -20.6649  -18.3323 O   0  0  0  0  0  0  0  0  0  0  0  0
   29.3598  -20.0492  -17.0594 O   0  0  0  0  0  0  0  0  0  0  0  0
  1  2  1  0
  2  4  1  0
  3  2  2  0
  5  4  1  0
  6  7  1  1
  6  5  1  0
  8  9  2  0
  8  6  1  0
 10  8  1  0
 11 10  1  0
 11 14  1  0
 11 12  1  6
 13 12  1  0
 14 21  1  0
 15 14  2  0
 16 17  1  0
 17 19  1  0
 18 17  2  0
 20 19  1  6
 20 22  1  0
 21 20  1  0
 22 23  2  0
 22 24  1  0
M  END
$$$$
