QCN.pdb
     RDKit          3D

 24 23  0  0  1  0  0  0  0  0999 V2000
   26.5614  -22.3788  -18.4641 N   0  0  0  0  0  0  0  0  0  0  0  0
   27.5694  -21.3753  -18.5364 C   0  0  0  0  0  0  0  0  0  0  0  0
   28.2515  -21.3263  -19.5798 O   0  0  0  0  0  0  0  0  0  0  0  0
   27.7917  -20.4530  -17.4398 C   0  0  0  0  0  0  0  0  0  0  0  0
   26.9370  -20.5556  -16.2410 C   0  0  0  0  0  0  0  0  0  0  0  0
   27.4878  -21.2428  -15.0445 C   0  0  2  0  0  0  0  0  0  0  0  0
   28.1650  -22.4748  -15.2599 N   0  0  0  0  0  0  0  0  0  0  0  0
   26.3402  -21.4775  -14.1197 C   0  0  0  0  0  0  0  0  0  0  0  0
   25.4881  -22.3343  -14.5364 O   0  0  0  0  0  0  0  0  0  0  0  0
   26.1360  -20.8570  -12.8859 N   0  0  0  0  0  0  0  0  0  0  0  0
   24.8909  -21.1311  -12.1671 C   0  0  1  0  0  0  0  0  0  0  0  0
   25.1393  -20.5892  -10.7532 C   0  0  0  0  0  0  0  0  0  0  0  0
   26.3331  -21.7015   -9.9770 S   0  0  0  0  0  0  0  0  0  0  0  0
   23.7613  -20.3826  -12.7396 C   0  0  0  0  0  0  0  0  0  0  0  0
   23.8888  -19.2796  -13.3426 O   0  0  0  0  0  0  0  0  0  0  0  0
   20.3202  -18.9065  -16.3011 N   0  0  0  0  0  0  0  0  0  0  0  0
   20.3474  -20.0960  -15.5703 C   0  0  0  0  0  0  0  0  0  0  0  0
   19.3536  -20.8782  -15.6406 O   0  0  0  0  0  0  0  0  0  0  0  0
   21.4566  -20.5151  -14.7174 C   0  0  0  0  0  0  0  0  0  0  0  0
   21.2943  -20.2859  -13.2528 C   0  0  2  0  0  0  0  0  0  0  0  0
   22.4673  -20.9122  -12.6154 N   0  0  0  0  0  0  0  0  0  0  0  0
   20.0999  -20.8788  -12.6412 C   0  0  0  0  0  0  0  0  0  0  0  0
   20.1325  -22.0523  -12.2097 O   0  0  0  0  0  0  0  0  0  0  0  0
   18.9319  -20.1654  -12.5297 O   0  0  0  0  0  0  0  0  0  0  0  0
  1  2  1  0
  2  4  1  0
  3  2  2  0
  5  4  1  0
  6  7  1  6
  6  5  1  0
  8  9  2  0
  8  6  1  0
 10  8  1  0
 11 10  1  0
 11 14  1  0
 11 12  1  1
 13 12  1  0
 14 21  1  0
 15 14  2  0
 16 17  1  0
 17 19  1  0
 18 17  2  0
 20 19  1  6
 20 22  1  0
 21 20  1  0
 22 23  2  0
 22 24  1  0
M  END
$$$$
