QCN.pdb
     RDKit          3D

 24 23  0  0  1  0  0  0  0  0999 V2000
   11.9222   -9.4848   -9.7815 N   0  0  0  0  0  0  0  0  0  0  0  0
   12.7398  -10.6350   -9.5899 C   0  0  0  0  0  0  0  0  0  0  0  0
   12.1724  -11.6829   -9.2208 O   0  0  0  0  0  0  0  0  0  0  0  0
   14.1717  -10.5849   -9.8131 C   0  0  0  0  0  0  0  0  0  0  0  0
   14.7825   -9.3050  -10.2219 C   0  0  0  0  0  0  0  0  0  0  0  0
   15.3409   -8.4253   -9.1629 C   0  0  2  0  0  0  0  0  0  0  0  0
   14.4215   -7.8724   -8.2292 N   0  0  0  0  0  0  0  0  0  0  0  0
   16.0490   -7.3122   -9.8607 C   0  0  0  0  0  0  0  0  0  0  0  0
   15.3101   -6.3098  -10.1490 O   0  0  0  0  0  0  0  0  0  0  0  0
   17.4010   -7.2852  -10.2079 N   0  0  0  0  0  0  0  0  0  0  0  0
   17.9174   -6.1046  -10.9017 C   0  0  1  0  0  0  0  0  0  0  0  0
   17.8432   -4.9844   -9.8556 C   0  0  0  0  0  0  0  0  0  0  0  0
   18.9005   -5.4918   -8.4810 S   0  0  0  0  0  0  0  0  0  0  0  0
   19.3302   -6.2731  -11.2753 C   0  0  0  0  0  0  0  0  0  0  0  0
   20.0750   -7.1763  -10.8000 O   0  0  0  0  0  0  0  0  0  0  0  0
   23.1657   -6.6484  -14.8009 N   0  0  0  0  0  0  0  0  0  0  0  0
   21.9253   -7.2807  -14.6945 C   0  0  0  0  0  0  0  0  0  0  0  0
   21.6858   -8.2824  -15.4317 O   0  0  0  0  0  0  0  0  0  0  0  0
   20.8649   -6.8680  -13.7788 C   0  0  0  0  0  0  0  0  0  0  0  0
   21.1515   -5.6850  -12.9173 C   0  0  2  0  0  0  0  0  0  0  0  0
   19.8924   -5.3888  -12.2092 N   0  0  0  0  0  0  0  0  0  0  0  0
   21.5511   -4.4621  -13.6222 C   0  0  0  0  0  0  0  0  0  0  0  0
   20.6949   -3.5992  -13.9165 O   0  0  0  0  0  0  0  0  0  0  0  0
   22.8607   -4.2401  -13.9704 O   0  0  0  0  0  0  0  0  0  0  0  0
  1  2  1  0
  2  4  1  0
  3  2  2  0
  5  4  1  0
  6  7  1  6
  6  5  1  0
  8  9  2  0
  8  6  1  0
 10  8  1  0
 11 10  1  0
 11 14  1  0
 11 12  1  1
 13 12  1  0
 14 21  1  0
 15 14  2  0
 16 17  1  0
 17 19  1  0
 18 17  2  0
 20 19  1  6
 20 22  1  0
 21 20  1  0
 22 23  2  0
 22 24  1  0
M  END
$$$$
