QCN.pdb
     RDKit          3D

 24 23  0  0  1  0  0  0  0  0999 V2000
   26.9006  -16.8583  -17.6343 N   0  0  0  0  0  0  0  0  0  0  0  0
   27.9533  -17.7090  -17.1908 C   0  0  0  0  0  0  0  0  0  0  0  0
   28.6410  -18.2697  -18.0677 O   0  0  0  0  0  0  0  0  0  0  0  0
   28.2096  -17.9136  -15.7784 C   0  0  0  0  0  0  0  0  0  0  0  0
   27.2470  -18.7066  -14.9893 C   0  0  0  0  0  0  0  0  0  0  0  0
   27.6892  -20.0238  -14.4631 C   0  0  2  0  0  0  0  0  0  0  0  0
   28.1196  -20.9895  -15.4143 N   0  0  0  0  0  0  0  0  0  0  0  0
   26.5408  -20.5838  -13.6918 C   0  0  0  0  0  0  0  0  0  0  0  0
   25.8442  -21.4470  -14.3268 O   0  0  0  0  0  0  0  0  0  0  0  0
   26.1853  -20.2490  -12.3838 N   0  0  0  0  0  0  0  0  0  0  0  0
   25.0068  -20.8894  -11.7980 C   0  0  1  0  0  0  0  0  0  0  0  0
   25.1263  -20.6059  -10.2947 C   0  0  0  0  0  0  0  0  0  0  0  0
   26.6509  -21.4012   -9.7395 S   0  0  0  0  0  0  0  0  0  0  0  0
   23.7619  -20.2653  -12.2719 C   0  0  0  0  0  0  0  0  0  0  0  0
   23.6757  -19.0524  -12.6150 O   0  0  0  0  0  0  0  0  0  0  0  0
   19.5727  -20.3682  -15.4211 N   0  0  0  0  0  0  0  0  0  0  0  0
   20.8199  -20.9615  -15.6259 C   0  0  0  0  0  0  0  0  0  0  0  0
   21.1096  -21.3897  -16.7822 O   0  0  0  0  0  0  0  0  0  0  0  0
   21.8352  -21.1266  -14.5889 C   0  0  0  0  0  0  0  0  0  0  0  0
   21.4610  -20.6864  -13.2141 C   0  0  2  0  0  0  0  0  0  0  0  0
   22.6004  -21.0497  -12.3515 N   0  0  0  0  0  0  0  0  0  0  0  0
   20.2661  -21.3178  -12.6433 C   0  0  0  0  0  0  0  0  0  0  0  0
   19.1969  -20.6747  -12.5572 O   0  0  0  0  0  0  0  0  0  0  0  0
   20.2951  -22.6158  -12.1961 O   0  0  0  0  0  0  0  0  0  0  0  0
  1  2  1  0
  2  4  1  0
  3  2  2  0
  5  4  1  0
  6  7  1  6
  6  5  1  0
  8  9  2  0
  8  6  1  0
 10  8  1  0
 11 10  1  0
 11 14  1  0
 11 12  1  1
 13 12  1  0
 14 21  1  0
 15 14  2  0
 16 17  1  0
 17 19  1  0
 18 17  2  0
 20 19  1  6
 20 22  1  0
 21 20  1  0
 22 23  2  0
 22 24  1  0
M  END
$$$$
