QCN.pdb
     RDKit          3D

 24 23  0  0  1  0  0  0  0  0999 V2000
   14.7877  -13.6556  -14.0659 N   0  0  0  0  0  0  0  0  0  0  0  0
   15.8033  -14.6224  -14.3156 C   0  0  0  0  0  0  0  0  0  0  0  0
   15.5927  -15.7861  -13.9185 O   0  0  0  0  0  0  0  0  0  0  0  0
   17.0300  -14.2640  -15.0008 C   0  0  0  0  0  0  0  0  0  0  0  0
   17.2466  -12.8538  -15.3786 C   0  0  0  0  0  0  0  0  0  0  0  0
   16.5193  -12.3257  -16.5616 C   0  0  2  0  0  0  0  0  0  0  0  0
   16.8544  -12.8796  -17.8279 N   0  0  0  0  0  0  0  0  0  0  0  0
   16.7693  -10.8549  -16.5961 C   0  0  0  0  0  0  0  0  0  0  0  0
   17.6725  -10.4882  -17.4229 O   0  0  0  0  0  0  0  0  0  0  0  0
   16.1183   -9.8901  -15.8250 N   0  0  0  0  0  0  0  0  0  0  0  0
   16.3709   -8.4787  -16.1185 C   0  0  1  0  0  0  0  0  0  0  0  0
   15.0421   -7.7795  -15.8023 C   0  0  0  0  0  0  0  0  0  0  0  0
   15.2852   -6.0248  -16.1584 S   0  0  0  0  0  0  0  0  0  0  0  0
   17.3946   -7.9164  -15.2241 C   0  0  0  0  0  0  0  0  0  0  0  0
   17.5349   -8.2645  -14.0176 O   0  0  0  0  0  0  0  0  0  0  0  0
   22.0058   -6.9884  -12.9592 N   0  0  0  0  0  0  0  0  0  0  0  0
   21.7182   -6.8666  -14.3201 C   0  0  0  0  0  0  0  0  0  0  0  0
   22.5858   -6.3474  -15.0830 O   0  0  0  0  0  0  0  0  0  0  0  0
   20.4707   -7.3029  -14.9420 C   0  0  0  0  0  0  0  0  0  0  0  0
   19.3348   -6.3374  -14.9054 C   0  0  2  0  0  0  0  0  0  0  0  0
   18.2685   -6.9397  -15.7268 N   0  0  0  0  0  0  0  0  0  0  0  0
   19.6086   -5.0063  -15.4579 C   0  0  0  0  0  0  0  0  0  0  0  0
   19.4409   -4.7864  -16.6776 O   0  0  0  0  0  0  0  0  0  0  0  0
   20.0500   -3.9827  -14.6559 O   0  0  0  0  0  0  0  0  0  0  0  0
  1  2  1  0
  2  4  1  0
  3  2  2  0
  5  4  1  0
  6  7  1  6
  6  5  1  0
  8  9  2  0
  8  6  1  0
 10  8  1  0
 11 10  1  0
 11 14  1  0
 11 12  1  1
 13 12  1  0
 14 21  1  0
 15 14  2  0
 16 17  1  0
 17 19  1  0
 18 17  2  0
 20 19  1  6
 20 22  1  0
 21 20  1  0
 22 23  2  0
 22 24  1  0
M  END
$$$$
