NYH.pdb
     RDKit          3D

 31 32  0  0  1  0  0  0  0  0999 V2000
   10.8911  -19.2977   18.6009 N   0  0  0  0  0  0  0  0  0  0  0  0
   11.0092  -17.9000   18.4330 C   0  0  0  0  0  0  0  0  0  0  0  0
   11.4635  -17.4890   17.3394 O   0  0  0  0  0  0  0  0  0  0  0  0
   10.6282  -16.9418   19.4679 C   0  0  0  0  0  0  0  0  0  0  0  0
   10.1506  -17.5585   20.7529 C   0  0  2  0  0  0  0  0  0  0  0  0
    8.9608  -18.3497   20.5246 N   0  0  0  0  0  0  0  0  0  0  0  0
    9.9420  -16.5562   21.8373 C   0  0  0  0  0  0  0  0  0  0  0  0
   10.9394  -15.9579   22.3160 O   0  0  0  0  0  0  0  0  0  0  0  0
    7.3119  -12.4004   17.8170 O   0  0  0  0  0  0  0  0  0  0  0  0
    7.3358  -12.8798   19.1425 C   0  0  0  0  0  0  0  0  0  0  0  0
    6.5215  -13.9168   19.5383 C   0  0  0  0  0  0  0  0  0  0  0  0
    6.5536  -14.3782   20.8398 C   0  0  0  0  0  0  0  0  0  0  0  0
    7.3849  -13.8380   21.7965 C   0  0  0  0  0  0  0  0  0  0  0  0
    7.4221  -14.3270   23.1766 C   0  0  0  0  0  0  0  0  0  0  0  0
    8.4786  -15.3315   23.4786 C   0  0  2  0  0  0  0  0  0  0  0  0
    8.6668  -16.2386   22.3645 N   0  0  0  0  0  0  0  0  0  0  0  0
    8.3289  -16.0771   24.7246 C   0  0  0  0  0  0  0  0  0  0  0  0
    8.2210  -15.4418   25.8268 O   0  0  0  0  0  0  0  0  0  0  0  0
    8.1958  -12.8013   21.3914 C   0  0  0  0  0  0  0  0  0  0  0  0
    8.1738  -12.3260   20.0824 C   0  0  0  0  0  0  0  0  0  0  0  0
    8.2894  -17.4856   24.8215 N   0  0  0  0  0  0  0  0  0  0  0  0
    8.1246  -18.1638   26.1179 C   0  0  1  0  0  0  0  0  0  0  0  0
    7.5935  -19.5417   25.7671 C   0  0  0  0  0  0  0  0  0  0  0  0
    7.4111  -20.4235   26.9170 C   0  0  0  0  0  0  0  0  0  0  0  0
    7.6035  -20.0989   28.2393 C   0  0  0  0  0  0  0  0  0  0  0  0
    7.3345  -21.1942   28.9960 N   0  0  0  0  0  0  0  0  0  0  0  0
    6.9758  -22.1989   28.1535 C   0  0  0  0  0  0  0  0  0  0  0  0
    7.0284  -21.7103   26.8910 N   0  0  0  0  0  0  0  0  0  0  0  0
    9.4294  -18.2859   26.8059 C   0  0  0  0  0  0  0  0  0  0  0  0
   10.5438  -18.3347   26.2425 O   0  0  0  0  0  0  0  0  0  0  0  0
    9.4475  -18.3537   28.2004 O   0  0  0  0  0  0  0  0  0  0  0  0
  2  4  1  0
  2  1  1  0
  3  2  2  0
  5  4  1  0
  5  6  1  6
  7  8  2  0
  7  5  1  0
  9 10  1  0
 10 20  2  0
 11 12  2  0
 11 10  1  0
 12 13  1  0
 13 14  1  0
 13 19  2  0
 15 14  1  6
 15 16  1  0
 16  7  1  0
 17 18  2  0
 17 15  1  0
 20 19  1  0
 21 17  1  0
 22 21  1  0
 22 23  1  6
 23 24  1  0
 24 25  2  0
 25 26  1  0
 27 26  1  0
 28 24  1  0
 28 27  2  0
 29 22  1  0
 30 29  2  0
 31 29  1  0
M  END
$$$$
