NYH.pdb
     RDKit          3D

 31 32  0  0  1  0  0  0  0  0999 V2000
   13.7547  -16.7427   15.7654 N   0  0  0  0  0  0  0  0  0  0  0  0
   14.4953  -16.7545   16.9683 C   0  0  0  0  0  0  0  0  0  0  0  0
   15.6019  -17.3432   16.9560 O   0  0  0  0  0  0  0  0  0  0  0  0
   14.0244  -16.1180   18.1961 C   0  0  0  0  0  0  0  0  0  0  0  0
   12.6396  -15.5390   18.1147 C   0  0  2  0  0  0  0  0  0  0  0  0
   12.6021  -14.4437   17.1699 N   0  0  0  0  0  0  0  0  0  0  0  0
   12.0990  -15.1340   19.4443 C   0  0  0  0  0  0  0  0  0  0  0  0
   12.5573  -14.1039   20.0018 O   0  0  0  0  0  0  0  0  0  0  0  0
    6.8806  -12.0573   17.4252 O   0  0  0  0  0  0  0  0  0  0  0  0
    7.4379  -12.8808   18.4245 C   0  0  0  0  0  0  0  0  0  0  0  0
    7.5782  -14.2367   18.2320 C   0  0  0  0  0  0  0  0  0  0  0  0
    8.1257  -15.0336   19.2184 C   0  0  0  0  0  0  0  0  0  0  0  0
    8.5537  -14.5277   20.4263 C   0  0  0  0  0  0  0  0  0  0  0  0
    9.1364  -15.3705   21.4728 C   0  0  0  0  0  0  0  0  0  0  0  0
   10.6191  -15.5014   21.4468 C   0  0  2  0  0  0  0  0  0  0  0  0
   11.0864  -15.8555   20.1218 N   0  0  0  0  0  0  0  0  0  0  0  0
   11.2111  -16.3820   22.4493 C   0  0  0  0  0  0  0  0  0  0  0  0
   11.1070  -17.6472   22.3130 O   0  0  0  0  0  0  0  0  0  0  0  0
    8.4094  -13.1705   20.6099 C   0  0  0  0  0  0  0  0  0  0  0  0
    7.8590  -12.3550   19.6239 C   0  0  0  0  0  0  0  0  0  0  0  0
   11.9140  -15.9437   23.5933 N   0  0  0  0  0  0  0  0  0  0  0  0
   12.4053  -16.8929   24.6058 C   0  0  1  0  0  0  0  0  0  0  0  0
   13.7343  -16.3178   25.0605 C   0  0  0  0  0  0  0  0  0  0  0  0
   14.7945  -16.3963   24.0592 C   0  0  0  0  0  0  0  0  0  0  0  0
   14.6857  -16.9051   22.7864 C   0  0  0  0  0  0  0  0  0  0  0  0
   15.8943  -16.8013   22.1754 N   0  0  0  0  0  0  0  0  0  0  0  0
   16.7552  -16.2311   23.0596 C   0  0  0  0  0  0  0  0  0  0  0  0
   16.0669  -15.9916   24.2016 N   0  0  0  0  0  0  0  0  0  0  0  0
   11.4669  -16.9602   25.7484 C   0  0  0  0  0  0  0  0  0  0  0  0
   10.4126  -16.2986   25.8601 O   0  0  0  0  0  0  0  0  0  0  0  0
   11.7578  -17.8268   26.8039 O   0  0  0  0  0  0  0  0  0  0  0  0
  2  4  1  0
  2  1  1  0
  3  2  2  0
  5  4  1  0
  5  6  1  6
  7  8  2  0
  7  5  1  0
  9 10  1  0
 10 20  2  0
 11 12  2  0
 11 10  1  0
 12 13  1  0
 13 14  1  0
 13 19  2  0
 15 14  1  6
 15 16  1  0
 16  7  1  0
 17 18  2  0
 17 15  1  0
 20 19  1  0
 21 17  1  0
 22 21  1  0
 22 23  1  1
 23 24  1  0
 24 25  2  0
 25 26  1  0
 27 26  1  0
 28 24  1  0
 28 27  2  0
 29 22  1  0
 30 29  2  0
 31 29  1  0
M  END
$$$$
