NYH.pdb
     RDKit          3D

 31 32  0  0  1  0  0  0  0  0999 V2000
    7.5093  -13.2418   17.4777 N   0  0  0  0  0  0  0  0  0  0  0  0
    8.3709  -14.2416   17.9815 C   0  0  0  0  0  0  0  0  0  0  0  0
    8.5737  -15.2440   17.2566 O   0  0  0  0  0  0  0  0  0  0  0  0
    9.0173  -14.1470   19.2882 C   0  0  0  0  0  0  0  0  0  0  0  0
    9.0096  -15.4192   20.0888 C   0  0  2  0  0  0  0  0  0  0  0  0
    7.8793  -16.2440   19.7201 N   0  0  0  0  0  0  0  0  0  0  0  0
    9.0571  -15.1813   21.5603 C   0  0  0  0  0  0  0  0  0  0  0  0
    9.9510  -14.4310   22.0290 O   0  0  0  0  0  0  0  0  0  0  0  0
    6.8258  -10.3099   27.3601 O   0  0  0  0  0  0  0  0  0  0  0  0
    6.8547  -11.5316   26.6573 C   0  0  0  0  0  0  0  0  0  0  0  0
    6.9869  -12.7306   27.3208 C   0  0  0  0  0  0  0  0  0  0  0  0
    7.0140  -13.9214   26.6216 C   0  0  0  0  0  0  0  0  0  0  0  0
    6.9124  -13.9763   25.2487 C   0  0  0  0  0  0  0  0  0  0  0  0
    6.9388  -15.2380   24.5054 C   0  0  0  0  0  0  0  0  0  0  0  0
    8.2503  -15.6082   23.9059 C   0  0  2  0  0  0  0  0  0  0  0  0
    8.1401  -15.7622   22.4694 N   0  0  0  0  0  0  0  0  0  0  0  0
    8.9309  -16.7588   24.4922 C   0  0  0  0  0  0  0  0  0  0  0  0
    8.4447  -17.9275   24.3250 O   0  0  0  0  0  0  0  0  0  0  0  0
    6.7804  -12.7722   24.5936 C   0  0  0  0  0  0  0  0  0  0  0  0
    6.7517  -11.5639   25.2859 C   0  0  0  0  0  0  0  0  0  0  0  0
   10.1202  -16.6915   25.2511 N   0  0  0  0  0  0  0  0  0  0  0  0
   10.7558  -17.9029   25.7953 C   0  0  1  0  0  0  0  0  0  0  0  0
   12.2458  -17.6246   25.7170 C   0  0  0  0  0  0  0  0  0  0  0  0
   12.7657  -17.5267   24.3557 C   0  0  0  0  0  0  0  0  0  0  0  0
   12.0574  -17.7086   23.1912 C   0  0  0  0  0  0  0  0  0  0  0  0
   12.9017  -17.5366   22.1413 N   0  0  0  0  0  0  0  0  0  0  0  0
   14.1313  -17.2487   22.6444 C   0  0  0  0  0  0  0  0  0  0  0  0
   14.0287  -17.2471   23.9953 N   0  0  0  0  0  0  0  0  0  0  0  0
   10.3539  -18.1077   27.2050 C   0  0  0  0  0  0  0  0  0  0  0  0
    9.6203  -17.3432   27.8676 O   0  0  0  0  0  0  0  0  0  0  0  0
   10.8175  -19.2411   27.8758 O   0  0  0  0  0  0  0  0  0  0  0  0
  2  4  1  0
  2  1  1  0
  3  2  2  0
  5  4  1  0
  5  6  1  1
  7  8  2  0
  7  5  1  0
  9 10  1  0
 10 20  2  0
 11 12  2  0
 11 10  1  0
 12 13  1  0
 13 14  1  0
 13 19  2  0
 15 14  1  1
 15 16  1  0
 16  7  1  0
 17 18  2  0
 17 15  1  0
 20 19  1  0
 21 17  1  0
 22 21  1  0
 22 23  1  1
 23 24  1  0
 24 25  2  0
 25 26  1  0
 27 26  1  0
 28 24  1  0
 28 27  2  0
 29 22  1  0
 30 29  2  0
 31 29  1  0
M  END
$$$$
