NYH.pdb
     RDKit          3D

 31 32  0  0  1  0  0  0  0  0999 V2000
   13.1635  -17.4070   16.0815 N   0  0  0  0  0  0  0  0  0  0  0  0
   12.5540  -16.1447   16.2570 C   0  0  0  0  0  0  0  0  0  0  0  0
   12.6832  -15.3104   15.3304 O   0  0  0  0  0  0  0  0  0  0  0  0
   11.7966  -15.7891   17.4546 C   0  0  0  0  0  0  0  0  0  0  0  0
   11.7543  -16.8554   18.5133 C   0  0  2  0  0  0  0  0  0  0  0  0
   10.7406  -17.8399   18.2019 N   0  0  0  0  0  0  0  0  0  0  0  0
   11.5784  -16.3043   19.8879 C   0  0  0  0  0  0  0  0  0  0  0  0
   12.5099  -15.6321   20.4001 O   0  0  0  0  0  0  0  0  0  0  0  0
    7.5158  -11.8391   17.7971 O   0  0  0  0  0  0  0  0  0  0  0  0
    7.8625  -12.6887   18.8673 C   0  0  0  0  0  0  0  0  0  0  0  0
    7.1851  -13.8667   19.0882 C   0  0  0  0  0  0  0  0  0  0  0  0
    7.5337  -14.6912   20.1400 C   0  0  0  0  0  0  0  0  0  0  0  0
    8.5579  -14.3882   21.0102 C   0  0  0  0  0  0  0  0  0  0  0  0
    8.9306  -15.2621   22.1250 C   0  0  0  0  0  0  0  0  0  0  0  0
   10.2395  -15.9587   21.9910 C   0  0  2  0  0  0  0  0  0  0  0  0
   10.4060  -16.5000   20.6573 N   0  0  0  0  0  0  0  0  0  0  0  0
   10.5408  -16.9741   22.9955 C   0  0  0  0  0  0  0  0  0  0  0  0
    9.7683  -17.9832   23.1187 O   0  0  0  0  0  0  0  0  0  0  0  0
    9.2298  -13.2081   20.7815 C   0  0  0  0  0  0  0  0  0  0  0  0
    8.8889  -12.3671   19.7248 C   0  0  0  0  0  0  0  0  0  0  0  0
   11.6490  -16.9390   23.8704 N   0  0  0  0  0  0  0  0  0  0  0  0
   11.8768  -17.9981   24.8674 C   0  0  1  0  0  0  0  0  0  0  0  0
   13.3591  -18.3088   24.7676 C   0  0  0  0  0  0  0  0  0  0  0  0
   13.7475  -18.9829   23.5315 C   0  0  0  0  0  0  0  0  0  0  0  0
   12.9159  -19.3472   22.4988 C   0  0  0  0  0  0  0  0  0  0  0  0
   13.6608  -19.9534   21.5383 N   0  0  0  0  0  0  0  0  0  0  0  0
   14.9510  -19.9688   21.9662 C   0  0  0  0  0  0  0  0  0  0  0  0
   14.9840  -19.3731   23.1825 N   0  0  0  0  0  0  0  0  0  0  0  0
   11.5544  -17.5063   26.2256 C   0  0  0  0  0  0  0  0  0  0  0  0
   11.5477  -18.2003   27.2649 O   0  0  0  0  0  0  0  0  0  0  0  0
   11.2274  -16.1588   26.3899 O   0  0  0  0  0  0  0  0  0  0  0  0
  2  4  1  0
  2  1  1  0
  3  2  2  0
  5  4  1  0
  5  6  1  6
  7  8  2  0
  7  5  1  0
  9 10  1  0
 10 20  2  0
 11 12  2  0
 11 10  1  0
 12 13  1  0
 13 14  1  0
 13 19  2  0
 15 14  1  6
 15 16  1  0
 16  7  1  0
 17 18  2  0
 17 15  1  0
 20 19  1  0
 21 17  1  0
 22 21  1  0
 22 23  1  1
 23 24  1  0
 24 25  2  0
 25 26  1  0
 27 26  1  0
 28 24  1  0
 28 27  2  0
 29 22  1  0
 30 29  2  0
 31 29  1  0
M  END
$$$$
