NYH.pdb
     RDKit          3D

 31 32  0  0  1  0  0  0  0  0999 V2000
    9.8598  -17.4244   16.9778 N   0  0  0  0  0  0  0  0  0  0  0  0
   10.6972  -17.6515   18.0927 C   0  0  0  0  0  0  0  0  0  0  0  0
   11.4661  -18.6403   18.0419 O   0  0  0  0  0  0  0  0  0  0  0  0
   10.6957  -16.7919   19.2740 C   0  0  0  0  0  0  0  0  0  0  0  0
   10.2508  -17.4647   20.5425 C   0  0  2  0  0  0  0  0  0  0  0  0
    9.0291  -18.2078   20.3213 N   0  0  0  0  0  0  0  0  0  0  0  0
   10.1165  -16.5182   21.6871 C   0  0  0  0  0  0  0  0  0  0  0  0
   11.1504  -15.9778   22.1572 O   0  0  0  0  0  0  0  0  0  0  0  0
    6.2848  -11.0897   27.6982 O   0  0  0  0  0  0  0  0  0  0  0  0
    6.5505  -11.9750   26.6337 C   0  0  0  0  0  0  0  0  0  0  0  0
    6.0639  -13.2628   26.6417 C   0  0  0  0  0  0  0  0  0  0  0  0
    6.3308  -14.1213   25.5931 C   0  0  0  0  0  0  0  0  0  0  0  0
    7.0835  -13.7458   24.5020 C   0  0  0  0  0  0  0  0  0  0  0  0
    7.3659  -14.6538   23.3881 C   0  0  0  0  0  0  0  0  0  0  0  0
    8.7414  -15.2221   23.3498 C   0  0  2  0  0  0  0  0  0  0  0  0
    8.8734  -16.1919   22.2813 N   0  0  0  0  0  0  0  0  0  0  0  0
    9.2532  -15.7697   24.6024 C   0  0  0  0  0  0  0  0  0  0  0  0
    9.8198  -14.9922   25.4418 O   0  0  0  0  0  0  0  0  0  0  0  0
    7.5659  -12.4559   24.5027 C   0  0  0  0  0  0  0  0  0  0  0  0
    7.3046  -11.5795   25.5533 C   0  0  0  0  0  0  0  0  0  0  0  0
    9.1721  -17.1278   24.9815 N   0  0  0  0  0  0  0  0  0  0  0  0
    9.6774  -17.5955   26.2828 C   0  0  1  0  0  0  0  0  0  0  0  0
    8.9063  -18.8733   26.5590 C   0  0  0  0  0  0  0  0  0  0  0  0
    9.3232  -19.5741   27.7706 C   0  0  0  0  0  0  0  0  0  0  0  0
   10.2392  -19.1365   28.6982 C   0  0  0  0  0  0  0  0  0  0  0  0
   10.3503  -20.0770   29.6718 N   0  0  0  0  0  0  0  0  0  0  0  0
    9.5094  -21.0976   29.3565 C   0  0  0  0  0  0  0  0  0  0  0  0
    8.8924  -20.7730   28.1949 N   0  0  0  0  0  0  0  0  0  0  0  0
   11.1259  -17.8882   26.1991 C   0  0  0  0  0  0  0  0  0  0  0  0
   11.7404  -18.2141   25.1608 O   0  0  0  0  0  0  0  0  0  0  0  0
   11.8953  -17.8003   27.3609 O   0  0  0  0  0  0  0  0  0  0  0  0
  2  4  1  0
  2  1  1  0
  3  2  2  0
  5  4  1  0
  5  6  1  6
  7  8  2  0
  7  5  1  0
  9 10  1  0
 10 20  2  0
 11 12  2  0
 11 10  1  0
 12 13  1  0
 13 14  1  0
 13 19  2  0
 15 14  1  1
 15 16  1  0
 16  7  1  0
 17 18  2  0
 17 15  1  0
 20 19  1  0
 21 17  1  0
 22 21  1  0
 22 23  1  6
 23 24  1  0
 24 25  2  0
 25 26  1  0
 27 26  1  0
 28 24  1  0
 28 27  2  0
 29 22  1  0
 30 29  2  0
 31 29  1  0
M  END
$$$$
