RCW.pdb
     RDKit          3D

 32 33  0  0  1  0  0  0  0  0999 V2000
   28.3051  -26.9794  -18.6465 N   0  0  0  0  0  0  0  0  0  0  0  0
   26.9902  -27.0940  -18.1769 C   0  0  0  0  0  0  0  0  0  0  0  0
   26.4911  -28.2629  -17.8564 N   0  0  0  0  0  0  0  0  0  0  0  0
   26.1502  -25.9524  -18.0286 N   0  0  0  0  0  0  0  0  0  0  0  0
   26.6757  -24.6359  -17.8191 C   0  0  0  0  0  0  0  0  0  0  0  0
   27.1892  -24.3599  -16.4402 C   0  0  0  0  0  0  0  0  0  0  0  0
   26.1328  -24.2996  -15.3911 C   0  0  0  0  0  0  0  0  0  0  0  0
   25.5270  -22.8915  -15.3033 C   0  0  2  0  0  0  0  0  0  0  0  0
   26.6364  -21.9683  -15.2490 N   0  0  0  0  0  0  0  0  0  0  0  0
   24.7240  -22.8302  -14.0553 C   0  0  0  0  0  0  0  0  0  0  0  0
   23.7625  -23.6146  -13.8544 O   0  0  0  0  0  0  0  0  0  0  0  0
   25.5175  -28.2752  -17.5023 N   0  0  0  0  0  0  0  0  0  0  0  0
   25.0376  -21.8578  -13.0412 C   0  0  1  0  0  0  0  0  0  0  0  0
   24.2194  -21.6819  -11.8462 C   0  0  0  0  0  0  0  0  0  0  0  0
   25.1016  -21.3304  -10.6852 S   0  0  0  0  0  0  0  0  0  0  0  0
   24.4654  -19.7570   -9.9938 C   0  0  0  0  0  0  0  0  0  0  0  0
   23.2560  -20.5827  -12.1501 O   0  0  0  0  0  0  0  0  0  0  0  0
   23.6687  -19.4212  -12.4898 N   0  0  0  0  0  0  0  0  0  0  0  0
   21.8568  -20.7252  -12.0911 C   0  0  1  0  0  0  0  0  0  0  0  0
   20.9580  -19.6399  -12.4057 C   0  0  0  0  0  0  0  0  0  0  0  0
   21.0688  -19.1971  -13.8425 C   0  0  0  0  0  0  0  0  0  0  0  0
   20.8995  -20.2674  -14.8205 C   0  0  0  0  0  0  0  0  0  0  0  0
   19.8529  -21.1441  -14.9396 N   0  0  0  0  0  0  0  0  0  0  0  0
   20.1064  -21.9571  -15.9707 C   0  0  0  0  0  0  0  0  0  0  0  0
   21.2872  -21.6370  -16.5279 C   0  0  0  0  0  0  0  0  0  0  0  0
   22.0066  -22.1542  -17.6020 C   0  0  0  0  0  0  0  0  0  0  0  0
   23.2188  -21.6162  -17.9563 C   0  0  0  0  0  0  0  0  0  0  0  0
   23.7487  -20.5546  -17.2578 C   0  0  0  0  0  0  0  0  0  0  0  0
   23.0270  -20.0565  -16.2018 C   0  0  0  0  0  0  0  0  0  0  0  0
   21.8005  -20.5742  -15.8156 C   0  0  0  0  0  0  0  0  0  0  0  0
   19.5261  -20.0635  -12.2236 O   0  0  0  0  0  0  0  0  0  0  0  0
   18.5890  -19.2400  -12.3219 O   0  0  0  0  0  0  0  0  0  0  0  0
  1  2  1  0
  2  3  2  0
  4  5  1  0
  4  2  1  0
  6  5  1  0
  7  6  1  0
  8 10  1  0
  8  7  1  0
  8  9  1  1
 10 11  2  0
 12 13  1  0
 12 10  1  0
 13 16  1  0
 13 14  1  6
 15 14  1  0
 16 17  2  0
 18 16  1  0
 18 19  1  0
 19 30  1  0
 19 20  1  1
 21 29  1  0
 21 20  1  0
 22 21  2  0
 23 22  1  0
 23 24  1  0
 24 25  1  0
 24 29  2  0
 25 26  2  0
 26 27  1  0
 28 27  2  0
 29 28  1  0
 30 31  2  0
 30 32  1  0
M  END
$$$$
