RCW.pdb
     RDKit          3D

 32 33  0  0  1  0  0  0  0  0999 V2000
   28.8984  -28.4380  -19.5037 N   0  0  0  0  0  0  0  0  0  0  0  0
   27.9273  -28.8864  -18.5990 C   0  0  0  0  0  0  0  0  0  0  0  0
   27.2172  -29.9586  -18.8526 N   0  0  0  0  0  0  0  0  0  0  0  0
   27.6761  -28.2003  -17.3755 N   0  0  0  0  0  0  0  0  0  0  0  0
   28.3297  -26.9707  -17.0377 C   0  0  0  0  0  0  0  0  0  0  0  0
   28.1378  -25.8510  -18.0127 C   0  0  0  0  0  0  0  0  0  0  0  0
   28.3306  -24.4917  -17.4338 C   0  0  0  0  0  0  0  0  0  0  0  0
   27.9537  -24.4710  -15.9455 C   0  0  2  0  0  0  0  0  0  0  0  0
   27.0523  -25.5793  -15.7333 N   0  0  0  0  0  0  0  0  0  0  0  0
   27.2762  -23.1769  -15.6765 C   0  0  0  0  0  0  0  0  0  0  0  0
   27.8216  -22.0797  -15.9577 O   0  0  0  0  0  0  0  0  0  0  0  0
   26.4732  -30.1992  -18.1730 N   0  0  0  0  0  0  0  0  0  0  0  0
   25.9660  -23.1572  -15.0807 C   0  0  2  0  0  0  0  0  0  0  0  0
   25.2920  -21.9165  -14.7134 C   0  0  0  0  0  0  0  0  0  0  0  0
   23.9956  -21.8133  -15.4607 S   0  0  0  0  0  0  0  0  0  0  0  0
   23.2423  -20.2087  -14.9952 C   0  0  0  0  0  0  0  0  0  0  0  0
   25.0669  -21.9769  -13.2389 O   0  0  0  0  0  0  0  0  0  0  0  0
   24.5962  -23.0302  -12.6876 N   0  0  0  0  0  0  0  0  0  0  0  0
   25.3444  -20.9151  -12.3573 C   0  0  1  0  0  0  0  0  0  0  0  0
   24.9977  -20.9661  -10.9566 C   0  0  0  0  0  0  0  0  0  0  0  0
   25.7781  -19.9738  -10.1326 C   0  0  0  0  0  0  0  0  0  0  0  0
   27.0801  -20.4539   -9.6799 C   0  0  0  0  0  0  0  0  0  0  0  0
   27.9722  -21.2414  -10.3597 N   0  0  0  0  0  0  0  0  0  0  0  0
   29.0357  -21.4397   -9.5734 C   0  0  0  0  0  0  0  0  0  0  0  0
   28.8639  -20.8050   -8.4009 C   0  0  0  0  0  0  0  0  0  0  0  0
   29.6468  -20.6893   -7.2552 C   0  0  0  0  0  0  0  0  0  0  0  0
   29.2082  -19.9589   -6.1788 C   0  0  0  0  0  0  0  0  0  0  0  0
   27.9860  -19.3256   -6.2090 C   0  0  0  0  0  0  0  0  0  0  0  0
   27.2266  -19.4496   -7.3458 C   0  0  0  0  0  0  0  0  0  0  0  0
   27.6369  -20.1786   -8.4510 C   0  0  0  0  0  0  0  0  0  0  0  0
   23.5505  -20.6104  -10.7521 O   0  0  0  0  0  0  0  0  0  0  0  0
   22.8931  -20.0307  -11.6453 O   0  0  0  0  0  0  0  0  0  0  0  0
  1  2  1  0
  2  3  2  0
  4  5  1  0
  4  2  1  0
  6  5  1  0
  7  6  1  0
  8 10  1  0
  8  7  1  0
  8  9  1  6
 10 11  2  0
 12 13  1  0
 12 10  1  0
 13 16  1  0
 13 14  1  6
 15 14  1  0
 16 17  2  0
 18 16  1  0
 18 19  1  0
 19 30  1  0
 19 20  1  1
 21 29  1  0
 21 20  1  0
 22 21  2  0
 23 22  1  0
 23 24  1  0
 24 25  1  0
 24 29  2  0
 25 26  2  0
 26 27  1  0
 28 27  2  0
 29 28  1  0
 30 31  2  0
 30 32  1  0
M  END
$$$$
