RCW.pdb
     RDKit          3D

 32 33  0  0  1  0  0  0  0  0999 V2000
   26.8536  -16.8497  -20.3666 N   0  0  0  0  0  0  0  0  0  0  0  0
   27.4234  -17.2804  -21.5718 C   0  0  0  0  0  0  0  0  0  0  0  0
   27.4468  -16.4960  -22.6217 N   0  0  0  0  0  0  0  0  0  0  0  0
   27.9974  -18.5782  -21.7022 N   0  0  0  0  0  0  0  0  0  0  0  0
   28.2975  -19.4014  -20.5684 C   0  0  0  0  0  0  0  0  0  0  0  0
   27.3606  -20.5461  -20.3383 C   0  0  0  0  0  0  0  0  0  0  0  0
   26.8836  -20.6775  -18.9328 C   0  0  0  0  0  0  0  0  0  0  0  0
   28.0638  -20.8636  -17.9684 C   0  0  2  0  0  0  0  0  0  0  0  0
   28.9993  -21.7448  -18.6273 N   0  0  0  0  0  0  0  0  0  0  0  0
   27.5313  -21.4855  -16.7292 C   0  0  0  0  0  0  0  0  0  0  0  0
   27.4538  -22.7338  -16.6024 O   0  0  0  0  0  0  0  0  0  0  0  0
   27.9349  -16.8536  -23.4627 N   0  0  0  0  0  0  0  0  0  0  0  0
   27.0887  -20.6578  -15.6378 C   0  0  2  0  0  0  0  0  0  0  0  0
   26.6905  -21.2108  -14.3478 C   0  0  0  0  0  0  0  0  0  0  0  0
   27.6644  -20.7715  -13.2951 S   0  0  0  0  0  0  0  0  0  0  0  0
   27.7397  -18.9421  -13.3736 C   0  0  0  0  0  0  0  0  0  0  0  0
   25.3183  -20.6930  -14.0699 O   0  0  0  0  0  0  0  0  0  0  0  0
   25.0214  -19.4678  -14.2835 N   0  0  0  0  0  0  0  0  0  0  0  0
   24.2673  -21.4825  -13.5659 C   0  0  2  0  0  0  0  0  0  0  0  0
   23.0187  -20.9100  -13.1212 C   0  0  0  0  0  0  0  0  0  0  0  0
   23.2190  -19.7431  -12.1880 C   0  0  0  0  0  0  0  0  0  0  0  0
   23.6696  -20.1094  -10.8487 C   0  0  0  0  0  0  0  0  0  0  0  0
   24.9229  -19.9698  -10.3123 N   0  0  0  0  0  0  0  0  0  0  0  0
   24.8926  -20.4328   -9.0580 C   0  0  0  0  0  0  0  0  0  0  0  0
   23.6570  -20.8705   -8.7602 C   0  0  0  0  0  0  0  0  0  0  0  0
   23.0946  -21.4357   -7.6187 C   0  0  0  0  0  0  0  0  0  0  0  0
   21.7706  -21.7977   -7.5968 C   0  0  0  0  0  0  0  0  0  0  0  0
   20.9712  -21.6098   -8.7020 C   0  0  0  0  0  0  0  0  0  0  0  0
   21.5410  -21.0514   -9.8190 C   0  0  0  0  0  0  0  0  0  0  0  0
   22.8735  -20.6741   -9.8774 C   0  0  0  0  0  0  0  0  0  0  0  0
   22.2370  -20.3656  -14.2855 O   0  0  0  0  0  0  0  0  0  0  0  0
   22.6791  -19.4222  -14.9786 O   0  0  0  0  0  0  0  0  0  0  0  0
  1  2  1  0
  2  3  2  0
  4  5  1  0
  4  2  1  0
  6  5  1  0
  7  6  1  0
  8 10  1  0
  8  7  1  0
  8  9  1  6
 10 11  2  0
 12 13  1  0
 12 10  1  0
 13 16  1  0
 13 14  1  6
 15 14  1  0
 16 17  2  0
 18 16  1  0
 18 19  1  0
 19 30  1  0
 19 20  1  1
 21 29  1  0
 21 20  1  0
 22 21  2  0
 23 22  1  0
 23 24  1  0
 24 25  1  0
 24 29  2  0
 25 26  2  0
 26 27  1  0
 28 27  2  0
 29 28  1  0
 30 31  2  0
 30 32  1  0
M  END
$$$$
