RCW.pdb
     RDKit          3D

 32 33  0  0  1  0  0  0  0  0999 V2000
   29.3213  -28.3835  -19.3406 N   0  0  0  0  0  0  0  0  0  0  0  0
   28.8448  -28.5424  -18.0328 C   0  0  0  0  0  0  0  0  0  0  0  0
   29.3891  -29.4160  -17.2213 N   0  0  0  0  0  0  0  0  0  0  0  0
   27.7587  -27.7649  -17.5364 N   0  0  0  0  0  0  0  0  0  0  0  0
   27.2532  -26.6201  -18.2343 C   0  0  0  0  0  0  0  0  0  0  0  0
   28.2005  -25.4666  -18.3496 C   0  0  0  0  0  0  0  0  0  0  0  0
   28.4725  -24.7634  -17.0644 C   0  0  0  0  0  0  0  0  0  0  0  0
   27.1659  -24.2934  -16.4093 C   0  0  2  0  0  0  0  0  0  0  0  0
   26.2535  -23.9840  -17.4852 N   0  0  0  0  0  0  0  0  0  0  0  0
   27.4794  -23.0791  -15.6135 C   0  0  0  0  0  0  0  0  0  0  0  0
   28.6660  -22.7317  -15.3863 O   0  0  0  0  0  0  0  0  0  0  0  0
   28.9510  -29.5255  -16.2888 N   0  0  0  0  0  0  0  0  0  0  0  0
   26.4151  -22.2688  -15.0817 C   0  0  2  0  0  0  0  0  0  0  0  0
   26.6532  -21.1952  -14.1230 C   0  0  0  0  0  0  0  0  0  0  0  0
   26.4304  -19.8713  -14.7916 S   0  0  0  0  0  0  0  0  0  0  0  0
   24.6631  -19.8116  -15.2727 C   0  0  0  0  0  0  0  0  0  0  0  0
   25.6911  -21.4073  -13.0014 O   0  0  0  0  0  0  0  0  0  0  0  0
   24.4755  -21.7318  -13.2297 N   0  0  0  0  0  0  0  0  0  0  0  0
   26.0276  -21.2733  -11.6411 C   0  0  2  0  0  0  0  0  0  0  0  0
   25.0810  -21.5386  -10.5836 C   0  0  0  0  0  0  0  0  0  0  0  0
   25.7471  -21.7057   -9.2416 C   0  0  0  0  0  0  0  0  0  0  0  0
   26.1438  -20.4546   -8.6027 C   0  0  0  0  0  0  0  0  0  0  0  0
   25.5292  -19.2326   -8.6858 N   0  0  0  0  0  0  0  0  0  0  0  0
   26.2262  -18.3649   -7.9442 C   0  0  0  0  0  0  0  0  0  0  0  0
   27.2772  -18.9844   -7.3798 C   0  0  0  0  0  0  0  0  0  0  0  0
   28.2980  -18.5540   -6.5363 C   0  0  0  0  0  0  0  0  0  0  0  0
   29.2650  -19.4280   -6.1054 C   0  0  0  0  0  0  0  0  0  0  0  0
   29.2461  -20.7477   -6.4977 C   0  0  0  0  0  0  0  0  0  0  0  0
   28.2331  -21.1558   -7.3292 C   0  0  0  0  0  0  0  0  0  0  0  0
   27.2405  -20.3019   -7.7841 C   0  0  0  0  0  0  0  0  0  0  0  0
   24.1277  -20.3864  -10.4199 O   0  0  0  0  0  0  0  0  0  0  0  0
   23.0077  -20.5429   -9.8843 O   0  0  0  0  0  0  0  0  0  0  0  0
  1  2  1  0
  2  3  2  0
  4  5  1  0
  4  2  1  0
  6  5  1  0
  7  6  1  0
  8 10  1  0
  8  7  1  0
  8  9  1  6
 10 11  2  0
 12 13  1  0
 12 10  1  0
 13 16  1  0
 13 14  1  6
 15 14  1  0
 16 17  2  0
 18 16  1  0
 18 19  1  0
 19 30  1  0
 19 20  1  6
 21 29  1  0
 21 20  1  0
 22 21  2  0
 23 22  1  0
 23 24  1  0
 24 25  1  0
 24 29  2  0
 25 26  2  0
 26 27  1  0
 28 27  2  0
 29 28  1  0
 30 31  2  0
 30 32  1  0
M  END
$$$$
