RCW.pdb
     RDKit          3D

 32 33  0  0  1  0  0  0  0  0999 V2000
   27.3313  -22.6052  -20.9050 N   0  0  0  0  0  0  0  0  0  0  0  0
   28.6876  -22.9067  -20.7253 C   0  0  0  0  0  0  0  0  0  0  0  0
   29.4751  -23.0986  -21.7554 N   0  0  0  0  0  0  0  0  0  0  0  0
   29.2606  -23.0141  -19.4250 N   0  0  0  0  0  0  0  0  0  0  0  0
   28.5600  -22.6092  -18.2425 C   0  0  0  0  0  0  0  0  0  0  0  0
   28.2266  -21.1521  -18.1592 C   0  0  0  0  0  0  0  0  0  0  0  0
   28.5511  -20.5209  -16.8491 C   0  0  0  0  0  0  0  0  0  0  0  0
   28.0768  -21.4011  -15.6839 C   0  0  2  0  0  0  0  0  0  0  0  0
   27.0451  -22.2628  -16.2118 N   0  0  0  0  0  0  0  0  0  0  0  0
   27.5307  -20.4982  -14.6386 C   0  0  0  0  0  0  0  0  0  0  0  0
   27.4946  -19.2523  -14.8011 O   0  0  0  0  0  0  0  0  0  0  0  0
   30.4541  -23.3700  -21.5524 N   0  0  0  0  0  0  0  0  0  0  0  0
   27.0270  -21.0425  -13.4047 C   0  0  1  0  0  0  0  0  0  0  0  0
   26.3331  -20.2258  -12.4148 C   0  0  0  0  0  0  0  0  0  0  0  0
   25.0360  -19.7399  -12.9902 S   0  0  0  0  0  0  0  0  0  0  0  0
   24.0717  -21.2279  -13.4536 C   0  0  0  0  0  0  0  0  0  0  0  0
   26.1076  -21.1006  -11.2264 O   0  0  0  0  0  0  0  0  0  0  0  0
   26.2803  -22.3655  -11.2981 N   0  0  0  0  0  0  0  0  0  0  0  0
   25.6992  -20.6245   -9.9661 C   0  0  1  0  0  0  0  0  0  0  0  0
   25.4827  -21.5057   -8.8430 C   0  0  0  0  0  0  0  0  0  0  0  0
   26.6853  -21.5932   -7.9381 C   0  0  0  0  0  0  0  0  0  0  0  0
   27.0986  -20.3200   -7.3559 C   0  0  0  0  0  0  0  0  0  0  0  0
   26.7930  -19.0557   -7.7877 N   0  0  0  0  0  0  0  0  0  0  0  0
   27.3779  -18.1813   -6.9619 C   0  0  0  0  0  0  0  0  0  0  0  0
   28.0559  -18.8374   -6.0044 C   0  0  0  0  0  0  0  0  0  0  0  0
   28.8240  -18.4176   -4.9215 C   0  0  0  0  0  0  0  0  0  0  0  0
   29.4159  -19.3327   -4.0868 C   0  0  0  0  0  0  0  0  0  0  0  0
   29.2628  -20.6840   -4.3023 C   0  0  0  0  0  0  0  0  0  0  0  0
   28.5026  -21.0811   -5.3740 C   0  0  0  0  0  0  0  0  0  0  0  0
   27.8905  -20.1860   -6.2374 C   0  0  0  0  0  0  0  0  0  0  0  0
   24.3620  -20.9996   -7.9765 O   0  0  0  0  0  0  0  0  0  0  0  0
   23.6280  -20.0577   -8.3507 O   0  0  0  0  0  0  0  0  0  0  0  0
  1  2  1  0
  2  3  2  0
  4  5  1  0
  4  2  1  0
  6  5  1  0
  7  6  1  0
  8 10  1  0
  8  7  1  0
  8  9  1  6
 10 11  2  0
 12 13  1  0
 12 10  1  0
 13 16  1  0
 13 14  1  6
 15 14  1  0
 16 17  2  0
 18 16  1  0
 18 19  1  0
 19 30  1  0
 19 20  1  1
 21 29  1  0
 21 20  1  0
 22 21  2  0
 23 22  1  0
 23 24  1  0
 24 25  1  0
 24 29  2  0
 25 26  2  0
 26 27  1  0
 28 27  2  0
 29 28  1  0
 30 31  2  0
 30 32  1  0
M  END
$$$$
