RCW.pdb
     RDKit          3D

 32 33  0  0  1  0  0  0  0  0999 V2000
   28.9070  -26.8307  -18.9056 N   0  0  0  0  0  0  0  0  0  0  0  0
   28.2355  -27.1317  -17.7135 C   0  0  0  0  0  0  0  0  0  0  0  0
   28.1051  -28.3723  -17.3111 N   0  0  0  0  0  0  0  0  0  0  0  0
   27.6731  -26.1083  -16.8967 N   0  0  0  0  0  0  0  0  0  0  0  0
   27.7099  -24.7247  -17.2673 C   0  0  0  0  0  0  0  0  0  0  0  0
   29.0777  -24.1353  -17.4195 C   0  0  0  0  0  0  0  0  0  0  0  0
   29.3858  -23.0397  -16.4578 C   0  0  0  0  0  0  0  0  0  0  0  0
   28.1843  -22.0973  -16.2970 C   0  0  2  0  0  0  0  0  0  0  0  0
   28.1628  -21.2535  -17.4689 N   0  0  0  0  0  0  0  0  0  0  0  0
   28.4110  -21.2938  -15.0686 C   0  0  0  0  0  0  0  0  0  0  0  0
   29.3664  -20.4815  -14.9827 O   0  0  0  0  0  0  0  0  0  0  0  0
   27.5990  -28.5249  -16.4201 N   0  0  0  0  0  0  0  0  0  0  0  0
   27.5283  -21.4342  -13.9401 C   0  0  2  0  0  0  0  0  0  0  0  0
   27.6225  -20.5789  -12.7619 C   0  0  0  0  0  0  0  0  0  0  0  0
   27.3194  -19.1619  -13.1489 S   0  0  0  0  0  0  0  0  0  0  0  0
   25.5822  -19.1321  -13.7321 C   0  0  0  0  0  0  0  0  0  0  0  0
   26.6266  -21.0997  -11.7793 O   0  0  0  0  0  0  0  0  0  0  0  0
   25.5345  -21.6371  -12.1712 N   0  0  0  0  0  0  0  0  0  0  0  0
   26.7981  -21.0464  -10.3831 C   0  0  2  0  0  0  0  0  0  0  0  0
   25.8275  -21.5962   -9.4662 C   0  0  0  0  0  0  0  0  0  0  0  0
   26.3673  -21.7268   -8.0647 C   0  0  0  0  0  0  0  0  0  0  0  0
   26.7512  -20.4627   -7.4437 C   0  0  0  0  0  0  0  0  0  0  0  0
   26.3690  -19.1963   -7.8014 N   0  0  0  0  0  0  0  0  0  0  0  0
   26.9538  -18.3330   -6.9639 C   0  0  0  0  0  0  0  0  0  0  0  0
   27.7062  -18.9985   -6.0706 C   0  0  0  0  0  0  0  0  0  0  0  0
   28.5065  -18.5918   -5.0062 C   0  0  0  0  0  0  0  0  0  0  0  0
   29.1785  -19.5144   -4.2435 C   0  0  0  0  0  0  0  0  0  0  0  0
   29.0755  -20.8605   -4.5144 C   0  0  0  0  0  0  0  0  0  0  0  0
   28.2825  -21.2447   -5.5669 C   0  0  0  0  0  0  0  0  0  0  0  0
   27.5899  -20.3417   -6.3582 C   0  0  0  0  0  0  0  0  0  0  0  0
   24.6290  -20.6940   -9.3543 O   0  0  0  0  0  0  0  0  0  0  0  0
   24.6493  -19.5295   -9.8119 O   0  0  0  0  0  0  0  0  0  0  0  0
  1  2  1  0
  2  3  2  0
  4  5  1  0
  4  2  1  0
  6  5  1  0
  7  6  1  0
  8 10  1  0
  8  7  1  0
  8  9  1  6
 10 11  2  0
 12 13  1  0
 12 10  1  0
 13 16  1  0
 13 14  1  6
 15 14  1  0
 16 17  2  0
 18 16  1  0
 18 19  1  0
 19 30  1  0
 19 20  1  6
 21 29  1  0
 21 20  1  0
 22 21  2  0
 23 22  1  0
 23 24  1  0
 24 25  1  0
 24 29  2  0
 25 26  2  0
 26 27  1  0
 28 27  2  0
 29 28  1  0
 30 31  2  0
 30 32  1  0
M  END
$$$$
