RCW.pdb
     RDKit          3D

 32 33  0  0  1  0  0  0  0  0999 V2000
   30.1177  -26.5504  -17.2623 N   0  0  0  0  0  0  0  0  0  0  0  0
   28.8203  -27.0384  -17.0593 C   0  0  0  0  0  0  0  0  0  0  0  0
   28.6198  -28.1741  -16.4364 N   0  0  0  0  0  0  0  0  0  0  0  0
   27.6757  -26.3237  -17.5174 N   0  0  0  0  0  0  0  0  0  0  0  0
   27.7628  -24.9957  -18.0485 C   0  0  0  0  0  0  0  0  0  0  0  0
   28.8768  -24.1567  -17.5042 C   0  0  0  0  0  0  0  0  0  0  0  0
   28.4279  -22.9595  -16.7393 C   0  0  0  0  0  0  0  0  0  0  0  0
   27.2669  -23.3132  -15.7988 C   0  0  2  0  0  0  0  0  0  0  0  0
   26.0747  -23.3532  -16.6129 N   0  0  0  0  0  0  0  0  0  0  0  0
   27.1774  -22.2371  -14.7790 C   0  0  0  0  0  0  0  0  0  0  0  0
   28.2076  -21.7358  -14.2617 O   0  0  0  0  0  0  0  0  0  0  0  0
   27.6375  -28.4895  -16.3420 N   0  0  0  0  0  0  0  0  0  0  0  0
   25.8917  -21.7437  -14.3600 C   0  0  2  0  0  0  0  0  0  0  0  0
   25.7464  -20.6445  -13.4118 C   0  0  0  0  0  0  0  0  0  0  0  0
   24.6323  -19.7450  -13.8581 S   0  0  0  0  0  0  0  0  0  0  0  0
   24.2349  -18.6515  -12.4421 C   0  0  0  0  0  0  0  0  0  0  0  0
   25.4481  -21.2642  -12.0868 O   0  0  0  0  0  0  0  0  0  0  0  0
   24.6304  -22.2421  -11.9869 N   0  0  0  0  0  0  0  0  0  0  0  0
   26.0222  -20.8399  -10.8735 C   0  0  1  0  0  0  0  0  0  0  0  0
   25.6441  -21.4094   -9.6017 C   0  0  0  0  0  0  0  0  0  0  0  0
   26.8087  -21.5225   -8.6511 C   0  0  0  0  0  0  0  0  0  0  0  0
   27.1613  -20.2778   -7.9750 C   0  0  0  0  0  0  0  0  0  0  0  0
   26.7627  -19.0047   -8.2888 N   0  0  0  0  0  0  0  0  0  0  0  0
   27.3198  -18.1655   -7.4090 C   0  0  0  0  0  0  0  0  0  0  0  0
   28.0699  -18.8531   -6.5307 C   0  0  0  0  0  0  0  0  0  0  0  0
   28.8469  -18.4754   -5.4387 C   0  0  0  0  0  0  0  0  0  0  0  0
   29.5231  -19.4161   -4.7022 C   0  0  0  0  0  0  0  0  0  0  0  0
   29.4475  -20.7520   -5.0273 C   0  0  0  0  0  0  0  0  0  0  0  0
   28.6773  -21.1075   -6.1064 C   0  0  0  0  0  0  0  0  0  0  0  0
   27.9812  -20.1857   -6.8726 C   0  0  0  0  0  0  0  0  0  0  0  0
   24.6378  -20.5354   -8.9042 O   0  0  0  0  0  0  0  0  0  0  0  0
   24.0847  -20.9031   -7.8436 O   0  0  0  0  0  0  0  0  0  0  0  0
  1  2  1  0
  2  3  2  0
  4  5  1  0
  4  2  1  0
  6  5  1  0
  7  6  1  0
  8 10  1  0
  8  7  1  0
  8  9  1  6
 10 11  2  0
 12 13  1  0
 12 10  1  0
 13 16  1  0
 13 14  1  6
 15 14  1  0
 16 17  2  0
 18 16  1  0
 18 19  1  0
 19 30  1  0
 19 20  1  1
 21 29  1  0
 21 20  1  0
 22 21  2  0
 23 22  1  0
 23 24  1  0
 24 25  1  0
 24 29  2  0
 25 26  2  0
 26 27  1  0
 28 27  2  0
 29 28  1  0
 30 31  2  0
 30 32  1  0
M  END
$$$$
