RCW.pdb
     RDKit          3D

 32 33  0  0  1  0  0  0  0  0999 V2000
   29.3855  -23.2836  -21.7680 N   0  0  0  0  0  0  0  0  0  0  0  0
   30.6409  -22.9391  -21.2504 C   0  0  0  0  0  0  0  0  0  0  0  0
   31.6387  -22.6456  -22.0482 N   0  0  0  0  0  0  0  0  0  0  0  0
   30.8804  -22.8928  -19.8464 N   0  0  0  0  0  0  0  0  0  0  0  0
   29.8523  -23.1579  -18.8841 C   0  0  0  0  0  0  0  0  0  0  0  0
   28.8679  -22.0501  -18.6725 C   0  0  0  0  0  0  0  0  0  0  0  0
   29.0566  -21.2939  -17.4026 C   0  0  0  0  0  0  0  0  0  0  0  0
   28.0926  -21.7948  -16.3176 C   0  0  2  0  0  0  0  0  0  0  0  0
   26.7658  -21.7321  -16.8844 N   0  0  0  0  0  0  0  0  0  0  0  0
   28.2170  -20.8787  -15.1552 C   0  0  0  0  0  0  0  0  0  0  0  0
   28.9862  -19.8848  -15.1822 O   0  0  0  0  0  0  0  0  0  0  0  0
   32.5624  -22.4904  -21.6053 N   0  0  0  0  0  0  0  0  0  0  0  0
   27.4484  -21.1171  -13.9616 C   0  0  1  0  0  0  0  0  0  0  0  0
   27.4866  -20.2176  -12.8136 C   0  0  0  0  0  0  0  0  0  0  0  0
   26.9157  -18.8866  -13.2038 S   0  0  0  0  0  0  0  0  0  0  0  0
   25.1327  -19.1515  -13.5346 C   0  0  0  0  0  0  0  0  0  0  0  0
   26.6747  -20.8646  -11.7409 O   0  0  0  0  0  0  0  0  0  0  0  0
   25.6153  -21.5224  -12.0236 N   0  0  0  0  0  0  0  0  0  0  0  0
   26.9947  -20.8088  -10.3711 C   0  0  2  0  0  0  0  0  0  0  0  0
   26.1867  -21.4554   -9.3643 C   0  0  0  0  0  0  0  0  0  0  0  0
   26.9228  -21.6339   -8.0608 C   0  0  0  0  0  0  0  0  0  0  0  0
   27.2223  -20.3892   -7.3595 C   0  0  0  0  0  0  0  0  0  0  0  0
   26.8857  -19.1122   -7.7255 N   0  0  0  0  0  0  0  0  0  0  0  0
   27.3579  -18.2747   -6.7958 C   0  0  0  0  0  0  0  0  0  0  0  0
   27.9926  -18.9673   -5.8343 C   0  0  0  0  0  0  0  0  0  0  0  0
   28.6510  -18.5932   -4.6658 C   0  0  0  0  0  0  0  0  0  0  0  0
   29.2230  -19.5388   -3.8515 C   0  0  0  0  0  0  0  0  0  0  0  0
   29.1581  -20.8762   -4.1725 C   0  0  0  0  0  0  0  0  0  0  0  0
   28.5055  -21.2282   -5.3277 C   0  0  0  0  0  0  0  0  0  0  0  0
   27.9166  -20.3013   -6.1735 C   0  0  0  0  0  0  0  0  0  0  0  0
   24.9784  -20.6224   -9.0342 O   0  0  0  0  0  0  0  0  0  0  0  0
   24.8814  -19.4377   -9.4253 O   0  0  0  0  0  0  0  0  0  0  0  0
  1  2  1  0
  2  3  2  0
  4  5  1  0
  4  2  1  0
  6  5  1  0
  7  6  1  0
  8 10  1  0
  8  7  1  0
  8  9  1  6
 10 11  2  0
 12 13  1  0
 12 10  1  0
 13 16  1  0
 13 14  1  1
 15 14  1  0
 16 17  2  0
 18 16  1  0
 18 19  1  0
 19 30  1  0
 19 20  1  6
 21 29  1  0
 21 20  1  0
 22 21  2  0
 23 22  1  0
 23 24  1  0
 24 25  1  0
 24 29  2  0
 25 26  2  0
 26 27  1  0
 28 27  2  0
 29 28  1  0
 30 31  2  0
 30 32  1  0
M  END
$$$$
