RCW.pdb
     RDKit          3D

 32 33  0  0  1  0  0  0  0  0999 V2000
   34.1849  -26.0074  -14.4807 N   0  0  0  0  0  0  0  0  0  0  0  0
   34.3300  -26.1778  -15.8637 C   0  0  0  0  0  0  0  0  0  0  0  0
   35.2500  -26.9752  -16.3492 N   0  0  0  0  0  0  0  0  0  0  0  0
   33.4880  -25.4971  -16.7902 N   0  0  0  0  0  0  0  0  0  0  0  0
   32.4832  -24.5652  -16.3718 C   0  0  0  0  0  0  0  0  0  0  0  0
   31.6852  -23.9412  -17.4741 C   0  0  0  0  0  0  0  0  0  0  0  0
   30.8620  -22.7732  -17.0522 C   0  0  0  0  0  0  0  0  0  0  0  0
   29.5250  -23.2325  -16.4529 C   0  0  2  0  0  0  0  0  0  0  0  0
   28.6035  -23.3676  -17.5566 N   0  0  0  0  0  0  0  0  0  0  0  0
   29.0739  -22.1764  -15.5110 C   0  0  0  0  0  0  0  0  0  0  0  0
   29.7175  -21.9124  -14.4639 O   0  0  0  0  0  0  0  0  0  0  0  0
   35.3728  -26.9771  -17.3779 N   0  0  0  0  0  0  0  0  0  0  0  0
   27.8756  -21.4274  -15.7851 C   0  0  1  0  0  0  0  0  0  0  0  0
   27.3314  -20.4511  -14.8475 C   0  0  0  0  0  0  0  0  0  0  0  0
   26.5253  -19.4337  -15.5990 S   0  0  0  0  0  0  0  0  0  0  0  0
   25.3272  -20.3628  -16.6287 C   0  0  0  0  0  0  0  0  0  0  0  0
   26.4833  -21.2146  -13.8851 O   0  0  0  0  0  0  0  0  0  0  0  0
   26.3960  -22.4885  -13.9519 N   0  0  0  0  0  0  0  0  0  0  0  0
   25.7317  -20.6182  -12.8550 C   0  0  1  0  0  0  0  0  0  0  0  0
   24.9586  -21.3961  -11.9159 C   0  0  0  0  0  0  0  0  0  0  0  0
   25.7953  -21.9264  -10.7795 C   0  0  0  0  0  0  0  0  0  0  0  0
   26.1960  -20.9195   -9.8016 C   0  0  0  0  0  0  0  0  0  0  0  0
   25.4604  -19.8658   -9.3254 N   0  0  0  0  0  0  0  0  0  0  0  0
   26.2129  -19.1973   -8.4448 C   0  0  0  0  0  0  0  0  0  0  0  0
   27.4174  -19.7834   -8.3324 C   0  0  0  0  0  0  0  0  0  0  0  0
   28.5497  -19.4988   -7.5735 C   0  0  0  0  0  0  0  0  0  0  0  0
   29.6686  -20.2890   -7.6627 C   0  0  0  0  0  0  0  0  0  0  0  0
   29.6952  -21.3790   -8.5034 C   0  0  0  0  0  0  0  0  0  0  0  0
   28.5709  -21.6458   -9.2445 C   0  0  0  0  0  0  0  0  0  0  0  0
   27.4239  -20.8703   -9.1803 C   0  0  0  0  0  0  0  0  0  0  0  0
   23.8938  -20.5506  -11.2723 O   0  0  0  0  0  0  0  0  0  0  0  0
   23.8951  -19.3049  -11.3917 O   0  0  0  0  0  0  0  0  0  0  0  0
  1  2  1  0
  2  3  2  0
  4  5  1  0
  4  2  1  0
  6  5  1  0
  7  6  1  0
  8 10  1  0
  8  7  1  0
  8  9  1  6
 10 11  2  0
 12 13  1  0
 12 10  1  0
 13 16  1  0
 13 14  1  6
 15 14  1  0
 16 17  2  0
 18 16  1  0
 18 19  1  0
 19 30  1  0
 19 20  1  1
 21 29  1  0
 21 20  1  0
 22 21  2  0
 23 22  1  0
 23 24  1  0
 24 25  1  0
 24 29  2  0
 25 26  2  0
 26 27  1  0
 28 27  2  0
 29 28  1  0
 30 31  2  0
 30 32  1  0
M  END
$$$$
