RCW.pdb
     RDKit          3D

 32 33  0  0  1  0  0  0  0  0999 V2000
   26.7866  -25.1887  -15.9425 N   0  0  0  0  0  0  0  0  0  0  0  0
   27.4602  -24.8943  -17.1351 C   0  0  0  0  0  0  0  0  0  0  0  0
   27.1888  -25.5477  -18.2386 N   0  0  0  0  0  0  0  0  0  0  0  0
   28.4584  -23.8792  -17.1955 N   0  0  0  0  0  0  0  0  0  0  0  0
   28.1838  -22.5129  -16.8623 C   0  0  0  0  0  0  0  0  0  0  0  0
   26.8887  -22.2718  -16.1510 C   0  0  0  0  0  0  0  0  0  0  0  0
   26.6135  -20.8403  -15.8430 C   0  0  0  0  0  0  0  0  0  0  0  0
   26.1364  -20.0917  -17.0959 C   0  0  2  0  0  0  0  0  0  0  0  0
   27.2133  -19.2115  -17.4849 N   0  0  0  0  0  0  0  0  0  0  0  0
   24.9277  -19.3162  -16.7170 C   0  0  0  0  0  0  0  0  0  0  0  0
   24.9086  -18.0606  -16.7749 O   0  0  0  0  0  0  0  0  0  0  0  0
   27.7118  -25.2693  -19.0884 N   0  0  0  0  0  0  0  0  0  0  0  0
   23.7415  -19.9989  -16.2707 C   0  0  2  0  0  0  0  0  0  0  0  0
   22.4819  -19.3033  -16.0303 C   0  0  0  0  0  0  0  0  0  0  0  0
   22.0309  -18.6369  -17.2960 S   0  0  0  0  0  0  0  0  0  0  0  0
   20.4038  -17.8719  -16.9412 C   0  0  0  0  0  0  0  0  0  0  0  0
   21.5045  -20.3388  -15.5823 O   0  0  0  0  0  0  0  0  0  0  0  0
   21.2996  -21.3938  -16.2751 N   0  0  0  0  0  0  0  0  0  0  0  0
   20.7494  -20.2468  -14.3978 C   0  0  1  0  0  0  0  0  0  0  0  0
   19.8741  -21.3075  -13.9578 C   0  0  0  0  0  0  0  0  0  0  0  0
   20.1738  -21.7563  -12.5502 C   0  0  0  0  0  0  0  0  0  0  0  0
   21.4435  -21.2713  -12.0176 C   0  0  0  0  0  0  0  0  0  0  0  0
   21.6602  -20.1859  -11.2095 N   0  0  0  0  0  0  0  0  0  0  0  0
   22.9719  -20.1076  -10.9608 C   0  0  0  0  0  0  0  0  0  0  0  0
   23.6174  -21.1095  -11.5827 C   0  0  0  0  0  0  0  0  0  0  0  0
   24.9571  -21.4821  -11.6537 C   0  0  0  0  0  0  0  0  0  0  0  0
   25.3403  -22.5798  -12.3836 C   0  0  0  0  0  0  0  0  0  0  0  0
   24.4090  -23.3351  -13.0603 C   0  0  0  0  0  0  0  0  0  0  0  0
   23.0926  -22.9543  -12.9800 C   0  0  0  0  0  0  0  0  0  0  0  0
   22.6694  -21.8525  -12.2532 C   0  0  0  0  0  0  0  0  0  0  0  0
   18.4431  -20.8440  -13.9372 O   0  0  0  0  0  0  0  0  0  0  0  0
   18.1474  -19.6447  -14.1375 O   0  0  0  0  0  0  0  0  0  0  0  0
  1  2  1  0
  2  3  2  0
  4  5  1  0
  4  2  1  0
  6  5  1  0
  7  6  1  0
  8 10  1  0
  8  7  1  0
  8  9  1  1
 10 11  2  0
 12 13  1  0
 12 10  1  0
 13 16  1  0
 13 14  1  6
 15 14  1  0
 16 17  2  0
 18 16  1  0
 18 19  1  0
 19 30  1  0
 19 20  1  1
 21 29  1  0
 21 20  1  0
 22 21  2  0
 23 22  1  0
 23 24  1  0
 24 25  1  0
 24 29  2  0
 25 26  2  0
 26 27  1  0
 28 27  2  0
 29 28  1  0
 30 31  2  0
 30 32  1  0
M  END
$$$$
