RCW.pdb
     RDKit          3D

 32 33  0  0  1  0  0  0  0  0999 V2000
   33.5370  -17.9159  -21.2499 N   0  0  0  0  0  0  0  0  0  0  0  0
   34.1259  -17.7690  -19.9873 C   0  0  0  0  0  0  0  0  0  0  0  0
   35.4038  -17.5023  -19.8693 N   0  0  0  0  0  0  0  0  0  0  0  0
   33.3641  -17.9013  -18.7903 N   0  0  0  0  0  0  0  0  0  0  0  0
   31.9396  -18.0558  -18.8011 C   0  0  0  0  0  0  0  0  0  0  0  0
   31.1538  -16.7820  -18.7646 C   0  0  0  0  0  0  0  0  0  0  0  0
   30.2826  -16.6311  -17.5654 C   0  0  0  0  0  0  0  0  0  0  0  0
   29.2540  -17.7685  -17.4882 C   0  0  2  0  0  0  0  0  0  0  0  0
   28.4237  -17.6536  -18.6642 N   0  0  0  0  0  0  0  0  0  0  0  0
   28.4557  -17.5628  -16.2527 C   0  0  0  0  0  0  0  0  0  0  0  0
   28.2829  -16.4166  -15.7663 O   0  0  0  0  0  0  0  0  0  0  0  0
   35.7740  -17.4000  -18.9071 N   0  0  0  0  0  0  0  0  0  0  0  0
   27.8587  -18.6881  -15.5822 C   0  0  1  0  0  0  0  0  0  0  0  0
   26.9902  -18.5358  -14.4200 C   0  0  0  0  0  0  0  0  0  0  0  0
   25.7153  -17.8634  -14.8350 S   0  0  0  0  0  0  0  0  0  0  0  0
   24.8209  -19.0439  -15.9144 C   0  0  0  0  0  0  0  0  0  0  0  0
   26.7353  -19.9110  -13.8981 O   0  0  0  0  0  0  0  0  0  0  0  0
   26.6183  -20.9054  -14.6934 N   0  0  0  0  0  0  0  0  0  0  0  0
   26.6064  -20.2216  -12.5312 C   0  0  1  0  0  0  0  0  0  0  0  0
   26.4247  -21.5752  -12.0626 C   0  0  0  0  0  0  0  0  0  0  0  0
   27.0967  -21.8215  -10.7358 C   0  0  0  0  0  0  0  0  0  0  0  0
   26.6881  -20.9094   -9.6718 C   0  0  0  0  0  0  0  0  0  0  0  0
   25.4542  -20.3489   -9.4682 N   0  0  0  0  0  0  0  0  0  0  0  0
   25.5224  -19.5777   -8.3777 C   0  0  0  0  0  0  0  0  0  0  0  0
   26.7639  -19.6183   -7.8639 C   0  0  0  0  0  0  0  0  0  0  0  0
   27.3600  -19.0129   -6.7607 C   0  0  0  0  0  0  0  0  0  0  0  0
   28.6817  -19.2396   -6.4672 C   0  0  0  0  0  0  0  0  0  0  0  0
   29.4455  -20.0699   -7.2566 C   0  0  0  0  0  0  0  0  0  0  0  0
   28.8427  -20.6588   -8.3402 C   0  0  0  0  0  0  0  0  0  0  0  0
   27.5116  -20.4529   -8.6669 C   0  0  0  0  0  0  0  0  0  0  0  0
   24.9669  -21.8703  -11.8372 O   0  0  0  0  0  0  0  0  0  0  0  0
   24.1224  -20.9495  -11.7680 O   0  0  0  0  0  0  0  0  0  0  0  0
  1  2  1  0
  2  3  2  0
  4  5  1  0
  4  2  1  0
  6  5  1  0
  7  6  1  0
  8 10  1  0
  8  7  1  0
  8  9  1  6
 10 11  2  0
 12 13  1  0
 12 10  1  0
 13 16  1  0
 13 14  1  1
 15 14  1  0
 16 17  2  0
 18 16  1  0
 18 19  1  0
 19 30  1  0
 19 20  1  1
 21 29  1  0
 21 20  1  0
 22 21  2  0
 23 22  1  0
 23 24  1  0
 24 25  1  0
 24 29  2  0
 25 26  2  0
 26 27  1  0
 28 27  2  0
 29 28  1  0
 30 31  2  0
 30 32  1  0
M  END
$$$$
