RCW.pdb
     RDKit          3D

 32 33  0  0  1  0  0  0  0  0999 V2000
   18.4351  -25.1278   -8.4229 N   0  0  0  0  0  0  0  0  0  0  0  0
   17.6006  -24.1817   -9.0321 C   0  0  0  0  0  0  0  0  0  0  0  0
   16.2965  -24.2853   -8.9509 N   0  0  0  0  0  0  0  0  0  0  0  0
   18.1329  -23.0765   -9.7573 N   0  0  0  0  0  0  0  0  0  0  0  0
   19.0046  -23.2456  -10.8819 C   0  0  0  0  0  0  0  0  0  0  0  0
   20.4560  -22.9945  -10.6146 C   0  0  0  0  0  0  0  0  0  0  0  0
   20.9190  -21.6241  -10.9718 C   0  0  0  0  0  0  0  0  0  0  0  0
   21.5959  -21.6158  -12.3500 C   0  0  2  0  0  0  0  0  0  0  0  0
   21.8029  -22.9975  -12.7156 N   0  0  0  0  0  0  0  0  0  0  0  0
   22.8921  -20.9054  -12.2043 C   0  0  0  0  0  0  0  0  0  0  0  0
   22.9413  -19.6737  -11.9577 O   0  0  0  0  0  0  0  0  0  0  0  0
   15.7378  -23.5763   -9.4594 N   0  0  0  0  0  0  0  0  0  0  0  0
   24.1306  -21.6253  -12.3454 C   0  0  1  0  0  0  0  0  0  0  0  0
   25.4275  -20.9571  -12.3537 C   0  0  0  0  0  0  0  0  0  0  0  0
   26.4097  -21.7651  -11.5587 S   0  0  0  0  0  0  0  0  0  0  0  0
   26.4363  -21.0543   -9.8697 C   0  0  0  0  0  0  0  0  0  0  0  0
   25.8409  -20.8516  -13.7842 O   0  0  0  0  0  0  0  0  0  0  0  0
   25.3148  -21.5994  -14.6781 N   0  0  0  0  0  0  0  0  0  0  0  0
   26.8129  -19.9498  -14.2571 C   0  0  1  0  0  0  0  0  0  0  0  0
   26.5719  -19.0774  -15.3820 C   0  0  0  0  0  0  0  0  0  0  0  0
   25.4792  -18.0747  -15.1107 C   0  0  0  0  0  0  0  0  0  0  0  0
   25.1771  -17.1904  -16.2320 C   0  0  0  0  0  0  0  0  0  0  0  0
   24.6195  -17.5193  -17.4399 N   0  0  0  0  0  0  0  0  0  0  0  0
   24.5199  -16.4033  -18.1700 C   0  0  0  0  0  0  0  0  0  0  0  0
   24.9960  -15.3561  -17.4745 C   0  0  0  0  0  0  0  0  0  0  0  0
   25.1239  -13.9995  -17.7611 C   0  0  0  0  0  0  0  0  0  0  0  0
   25.6613  -13.1370  -16.8381 C   0  0  0  0  0  0  0  0  0  0  0  0
   26.0849  -13.5944  -15.6105 C   0  0  0  0  0  0  0  0  0  0  0  0
   25.9517  -14.9344  -15.3438 C   0  0  0  0  0  0  0  0  0  0  0  0
   25.4142  -15.8340  -16.2510 C   0  0  0  0  0  0  0  0  0  0  0  0
   27.7969  -18.2632  -15.6975 O   0  0  0  0  0  0  0  0  0  0  0  0
   28.1490  -18.0537  -16.8799 O   0  0  0  0  0  0  0  0  0  0  0  0
  1  2  1  0
  2  3  2  0
  4  5  1  0
  4  2  1  0
  6  5  1  0
  7  6  1  0
  8 10  1  0
  8  7  1  0
  8  9  1  1
 10 11  2  0
 12 13  1  0
 12 10  1  0
 13 16  1  0
 13 14  1  6
 15 14  1  0
 16 17  2  0
 18 16  1  0
 18 19  1  0
 19 30  1  0
 19 20  1  6
 21 29  1  0
 21 20  1  0
 22 21  2  0
 23 22  1  0
 23 24  1  0
 24 25  1  0
 24 29  2  0
 25 26  2  0
 26 27  1  0
 28 27  2  0
 29 28  1  0
 30 31  2  0
 30 32  1  0
M  END
$$$$
