VTN.pdb
     RDKit          3D

 23 22  0  0  1  0  0  0  0  0999 V2000
   18.7591  -14.1368  -18.4305 C   0  0  0  0  0  0  0  0  0  0  0  0
   20.2915  -14.1709  -18.5033 C   0  0  2  0  0  0  0  0  0  0  0  0
   20.7063  -15.5576  -18.1305 C   0  0  0  0  0  0  0  0  0  0  0  0
   20.7828  -13.1250  -17.5448 C   0  0  2  0  0  0  0  0  0  0  0  0
   20.4722  -13.5442  -16.1901 N   0  0  0  0  0  0  0  0  0  0  0  0
   20.2512  -11.7702  -17.7957 C   0  0  0  0  0  0  0  0  0  0  0  0
   20.4487  -11.1933  -18.8839 O   0  0  0  0  0  0  0  0  0  0  0  0
   16.7536  -10.4501  -17.8757 C   0  0  0  0  0  0  0  0  0  0  0  0
   17.4902   -9.8035  -16.7429 C   0  0  1  0  0  0  0  0  0  0  0  0
   17.1383  -10.4682  -15.5654 O   0  0  0  0  0  0  0  0  0  0  0  0
   18.9757   -9.7602  -16.9418 C   0  0  2  0  0  0  0  0  0  0  0  0
   19.5045  -11.1024  -16.7967 N   0  0  0  0  0  0  0  0  0  0  0  0
   19.5518   -8.9234  -15.8358 C   0  0  0  0  0  0  0  0  0  0  0  0
   19.8210   -9.3641  -14.6970 O   0  0  0  0  0  0  0  0  0  0  0  0
   21.4674   -5.0515  -13.0726 N   0  0  0  0  0  0  0  0  0  0  0  0
   22.3137   -5.5089  -14.1063 C   0  0  0  0  0  0  0  0  0  0  0  0
   23.5188   -5.1361  -14.1001 O   0  0  0  0  0  0  0  0  0  0  0  0
   21.7957   -6.3893  -15.1464 C   0  0  0  0  0  0  0  0  0  0  0  0
   20.3198   -6.6876  -14.9916 C   0  0  2  0  0  0  0  0  0  0  0  0
   19.8262   -7.5344  -16.0442 N   0  0  0  0  0  0  0  0  0  0  0  0
   19.4852   -5.5109  -14.7401 C   0  0  0  0  0  0  0  0  0  0  0  0
   19.3345   -5.1420  -13.5225 O   0  0  0  0  0  0  0  0  0  0  0  0
   18.8338   -4.7433  -15.6767 O   0  0  0  0  0  0  0  0  0  0  0  0
  2  1  1  1
  2  3  1  0
  4  6  1  0
  4  2  1  0
  4  5  1  1
  6 12  1  0
  7  6  2  0
  9 10  1  0
  9  8  1  6
  9 11  1  0
 11 13  1  0
 11 12  1  1
 13 20  1  0
 13 14  2  0
 16 15  1  0
 16 18  1  0
 17 16  2  0
 19 21  1  0
 19 18  1  6
 20 19  1  0
 21 23  1  0
 22 21  2  0
M  END
$$$$
