VTN.pdb
     RDKit          3D

 23 22  0  0  1  0  0  0  0  0999 V2000
   22.7029  -13.6279  -14.1257 C   0  0  0  0  0  0  0  0  0  0  0  0
   22.6427  -14.6452  -15.2728 C   0  0  2  0  0  0  0  0  0  0  0  0
   23.9837  -14.6251  -15.9327 C   0  0  0  0  0  0  0  0  0  0  0  0
   21.5289  -14.1986  -16.1750 C   0  0  2  0  0  0  0  0  0  0  0  0
   21.3699  -15.1687  -17.2431 N   0  0  0  0  0  0  0  0  0  0  0  0
   21.7051  -12.8439  -16.7362 C   0  0  0  0  0  0  0  0  0  0  0  0
   22.6471  -12.5870  -17.5125 O   0  0  0  0  0  0  0  0  0  0  0  0
   19.6523  -11.0235  -19.0809 C   0  0  0  0  0  0  0  0  0  0  0  0
   19.6382  -10.2496  -17.7984 C   0  0  1  0  0  0  0  0  0  0  0  0
   18.4609  -10.5677  -17.1166 O   0  0  0  0  0  0  0  0  0  0  0  0
   20.8557  -10.4716  -16.9519 C   0  0  2  0  0  0  0  0  0  0  0  0
   20.8003  -11.8103  -16.3978 N   0  0  0  0  0  0  0  0  0  0  0  0
   20.7876   -9.5030  -15.8061 C   0  0  0  0  0  0  0  0  0  0  0  0
   20.2716   -9.7696  -14.6988 O   0  0  0  0  0  0  0  0  0  0  0  0
   22.3919   -3.9543  -14.0380 N   0  0  0  0  0  0  0  0  0  0  0  0
   22.4500   -5.3396  -13.7707 C   0  0  0  0  0  0  0  0  0  0  0  0
   22.4837   -5.7143  -12.5667 O   0  0  0  0  0  0  0  0  0  0  0  0
   22.4691   -6.3007  -14.8668 C   0  0  0  0  0  0  0  0  0  0  0  0
   21.2714   -7.2263  -14.8662 C   0  0  2  0  0  0  0  0  0  0  0  0
   21.3284   -8.1846  -15.9371 N   0  0  0  0  0  0  0  0  0  0  0  0
   19.9791   -6.5477  -14.7493 C   0  0  0  0  0  0  0  0  0  0  0  0
   19.7647   -5.8624  -13.6882 O   0  0  0  0  0  0  0  0  0  0  0  0
   18.9518   -6.5615  -15.6633 O   0  0  0  0  0  0  0  0  0  0  0  0
  2  1  1  1
  2  3  1  0
  4  6  1  0
  4  2  1  0
  4  5  1  6
  6 12  1  0
  7  6  2  0
  9 10  1  0
  9  8  1  6
  9 11  1  0
 11 13  1  0
 11 12  1  1
 13 20  1  0
 13 14  2  0
 16 15  1  0
 16 18  1  0
 17 16  2  0
 19 21  1  0
 19 18  1  6
 20 19  1  0
 21 23  1  0
 22 21  2  0
M  END
$$$$
