VTN.pdb
     RDKit          3D

 23 22  0  0  1  0  0  0  0  0999 V2000
   17.5556  -13.8889  -16.4788 C   0  0  0  0  0  0  0  0  0  0  0  0
   18.7427  -13.8569  -17.4505 C   0  0  2  0  0  0  0  0  0  0  0  0
   19.4362  -15.1748  -17.3215 C   0  0  0  0  0  0  0  0  0  0  0  0
   19.5956  -12.6928  -17.0366 C   0  0  2  0  0  0  0  0  0  0  0  0
   20.1409  -12.9539  -15.7168 N   0  0  0  0  0  0  0  0  0  0  0  0
   18.8995  -11.3905  -17.0540 C   0  0  0  0  0  0  0  0  0  0  0  0
   18.4928  -10.8929  -18.1231 O   0  0  0  0  0  0  0  0  0  0  0  0
   15.6984  -10.3881  -15.8694 C   0  0  0  0  0  0  0  0  0  0  0  0
   16.6904   -9.5998  -15.0705 C   0  0  1  0  0  0  0  0  0  0  0  0
   16.8444  -10.2299  -13.8329 O   0  0  0  0  0  0  0  0  0  0  0  0
   18.0026   -9.4052  -15.7693 C   0  0  2  0  0  0  0  0  0  0  0  0
   18.6828  -10.6832  -15.8480 N   0  0  0  0  0  0  0  0  0  0  0  0
   18.8375   -8.4988  -14.9110 C   0  0  0  0  0  0  0  0  0  0  0  0
   19.4371   -8.8738  -13.8798 O   0  0  0  0  0  0  0  0  0  0  0  0
   22.7126   -5.2778  -13.2993 N   0  0  0  0  0  0  0  0  0  0  0  0
   21.8440   -4.8699  -14.3352 C   0  0  0  0  0  0  0  0  0  0  0  0
   21.7503   -3.6370  -14.5848 O   0  0  0  0  0  0  0  0  0  0  0  0
   21.0823   -5.8582  -15.0892 C   0  0  0  0  0  0  0  0  0  0  0  0
   19.7625   -6.2134  -14.4388 C   0  0  2  0  0  0  0  0  0  0  0  0
   18.9872   -7.1158  -15.2471 N   0  0  0  0  0  0  0  0  0  0  0  0
   19.0021   -5.0654  -13.9407 C   0  0  0  0  0  0  0  0  0  0  0  0
   18.1110   -4.5657  -14.7138 O   0  0  0  0  0  0  0  0  0  0  0  0
   19.1367   -4.4518  -12.7175 O   0  0  0  0  0  0  0  0  0  0  0  0
  2  1  1  1
  2  3  1  0
  4  6  1  0
  4  2  1  0
  4  5  1  1
  6 12  1  0
  7  6  2  0
  9 10  1  0
  9  8  1  6
  9 11  1  0
 11 13  1  0
 11 12  1  1
 13 20  1  0
 13 14  2  0
 16 15  1  0
 16 18  1  0
 17 16  2  0
 19 21  1  0
 19 18  1  6
 20 19  1  0
 21 23  1  0
 22 21  2  0
M  END
$$$$
