VTN.pdb
     RDKit          3D

 23 22  0  0  1  0  0  0  0  0999 V2000
   14.6510  -12.4427  -10.4277 C   0  0  0  0  0  0  0  0  0  0  0  0
   14.8262  -11.0216  -10.9793 C   0  0  2  0  0  0  0  0  0  0  0  0
   16.1964  -10.9595  -11.5734 C   0  0  0  0  0  0  0  0  0  0  0  0
   14.6396  -10.0913   -9.8157 C   0  0  2  0  0  0  0  0  0  0  0  0
   13.3328  -10.3265   -9.2292 N   0  0  0  0  0  0  0  0  0  0  0  0
   14.8021   -8.6612  -10.1465 C   0  0  0  0  0  0  0  0  0  0  0  0
   13.9853   -8.0751  -10.8848 O   0  0  0  0  0  0  0  0  0  0  0  0
   14.5154   -5.6718   -8.2580 C   0  0  0  0  0  0  0  0  0  0  0  0
   15.9455   -5.7190   -8.7012 C   0  0  1  0  0  0  0  0  0  0  0  0
   16.7140   -6.1760   -7.6275 O   0  0  0  0  0  0  0  0  0  0  0  0
   16.1625   -6.5395   -9.9373 C   0  0  2  0  0  0  0  0  0  0  0  0
   15.8961   -7.9303   -9.6262 N   0  0  0  0  0  0  0  0  0  0  0  0
   17.6151   -6.4260  -10.3013 C   0  0  0  0  0  0  0  0  0  0  0  0
   18.5151   -7.1381   -9.8047 O   0  0  0  0  0  0  0  0  0  0  0  0
   21.9263   -5.7023  -12.8760 N   0  0  0  0  0  0  0  0  0  0  0  0
   21.1789   -6.8935  -12.7484 C   0  0  0  0  0  0  0  0  0  0  0  0
   21.7099   -7.9745  -13.1235 O   0  0  0  0  0  0  0  0  0  0  0  0
   19.8305   -6.8609  -12.1950 C   0  0  0  0  0  0  0  0  0  0  0  0
   19.3813   -5.4687  -11.8063 C   0  0  2  0  0  0  0  0  0  0  0  0
   18.0485   -5.4619  -11.2661 N   0  0  0  0  0  0  0  0  0  0  0  0
   19.6077   -4.4486  -12.8323 C   0  0  0  0  0  0  0  0  0  0  0  0
   18.7093   -4.3079  -13.7348 O   0  0  0  0  0  0  0  0  0  0  0  0
   20.6921   -3.6099  -12.9400 O   0  0  0  0  0  0  0  0  0  0  0  0
  2  1  1  1
  2  3  1  0
  4  6  1  0
  4  2  1  0
  4  5  1  6
  6 12  1  0
  7  6  2  0
  9 10  1  0
  9  8  1  1
  9 11  1  0
 11 13  1  0
 11 12  1  1
 13 20  1  0
 13 14  2  0
 16 15  1  0
 16 18  1  0
 17 16  2  0
 19 21  1  0
 19 18  1  6
 20 19  1  0
 21 23  1  0
 22 21  2  0
M  END
$$$$
