VTN.pdb
     RDKit          3D

 23 22  0  0  1  0  0  0  0  0999 V2000
   20.3734  -12.1493  -20.7314 C   0  0  0  0  0  0  0  0  0  0  0  0
   21.7726  -12.6102  -20.3023 C   0  0  2  0  0  0  0  0  0  0  0  0
   21.6787  -14.0799  -20.0463 C   0  0  0  0  0  0  0  0  0  0  0  0
   22.1222  -11.8143  -19.0782 C   0  0  2  0  0  0  0  0  0  0  0  0
   21.1806  -12.1370  -18.0215 N   0  0  0  0  0  0  0  0  0  0  0  0
   22.1689  -10.3540  -19.2935 C   0  0  0  0  0  0  0  0  0  0  0  0
   23.0562   -9.8364  -20.0011 O   0  0  0  0  0  0  0  0  0  0  0  0
   20.0387   -8.1257  -21.0823 C   0  0  0  0  0  0  0  0  0  0  0  0
   19.9622   -7.6971  -19.6491 C   0  0  1  0  0  0  0  0  0  0  0  0
   18.7876   -8.2227  -19.1048 O   0  0  0  0  0  0  0  0  0  0  0  0
   21.1714   -8.0734  -18.8463 C   0  0  2  0  0  0  0  0  0  0  0  0
   21.1999   -9.5150  -18.6945 N   0  0  0  0  0  0  0  0  0  0  0  0
   21.0048   -7.4763  -17.4783 C   0  0  0  0  0  0  0  0  0  0  0  0
   21.0103   -8.1445  -16.4215 O   0  0  0  0  0  0  0  0  0  0  0  0
   21.0451   -4.3295  -13.4944 N   0  0  0  0  0  0  0  0  0  0  0  0
   22.1119   -5.1505  -13.9208 C   0  0  0  0  0  0  0  0  0  0  0  0
   23.0946   -5.3033  -13.1447 O   0  0  0  0  0  0  0  0  0  0  0  0
   22.0656   -5.7993  -15.2255 C   0  0  0  0  0  0  0  0  0  0  0  0
   20.8336   -5.4358  -16.0263 C   0  0  2  0  0  0  0  0  0  0  0  0
   20.8243   -6.0655  -17.3193 N   0  0  0  0  0  0  0  0  0  0  0  0
   20.5352   -4.0028  -16.0654 C   0  0  0  0  0  0  0  0  0  0  0  0
   19.4629   -3.6059  -15.4874 O   0  0  0  0  0  0  0  0  0  0  0  0
   21.2867   -3.0172  -16.6611 O   0  0  0  0  0  0  0  0  0  0  0  0
  2  1  1  1
  2  3  1  0
  4  6  1  0
  4  2  1  0
  4  5  1  1
  6 12  1  0
  7  6  2  0
  9 10  1  0
  9  8  1  6
  9 11  1  0
 11 13  1  0
 11 12  1  1
 13 20  1  0
 13 14  2  0
 16 15  1  0
 16 18  1  0
 17 16  2  0
 19 21  1  0
 19 18  1  6
 20 19  1  0
 21 23  1  0
 22 21  2  0
M  END
$$$$
