VTN.pdb
     RDKit          3D

 23 22  0  0  1  0  0  0  0  0999 V2000
   16.5181  -13.5768  -16.9974 C   0  0  0  0  0  0  0  0  0  0  0  0
   18.0397  -13.7202  -17.1337 C   0  0  2  0  0  0  0  0  0  0  0  0
   18.3890  -15.0784  -16.6164 C   0  0  0  0  0  0  0  0  0  0  0  0
   18.6424  -12.6044  -16.3302 C   0  0  2  0  0  0  0  0  0  0  0  0
   18.3299  -12.8115  -14.9278 N   0  0  0  0  0  0  0  0  0  0  0  0
   18.2234  -11.2530  -16.7536 C   0  0  0  0  0  0  0  0  0  0  0  0
   18.5199  -10.8120  -17.8821 O   0  0  0  0  0  0  0  0  0  0  0  0
   15.3809   -7.3212  -16.0336 C   0  0  0  0  0  0  0  0  0  0  0  0
   15.8091   -8.7173  -15.6997 C   0  0  1  0  0  0  0  0  0  0  0  0
   14.8936   -9.5988  -16.2801 O   0  0  0  0  0  0  0  0  0  0  0  0
   17.2196   -9.0241  -16.1052 C   0  0  2  0  0  0  0  0  0  0  0  0
   17.4740  -10.4332  -15.8773 N   0  0  0  0  0  0  0  0  0  0  0  0
   18.1268   -8.2463  -15.1956 C   0  0  0  0  0  0  0  0  0  0  0  0
   18.5181   -8.6600  -14.0823 O   0  0  0  0  0  0  0  0  0  0  0  0
   21.7732   -5.1333  -13.4989 N   0  0  0  0  0  0  0  0  0  0  0  0
   21.9547   -6.4459  -13.9868 C   0  0  0  0  0  0  0  0  0  0  0  0
   23.0744   -6.9992  -13.8095 O   0  0  0  0  0  0  0  0  0  0  0  0
   20.8680   -7.1325  -14.6747 C   0  0  0  0  0  0  0  0  0  0  0  0
   19.6357   -6.2706  -14.8472 C   0  0  2  0  0  0  0  0  0  0  0  0
   18.5987   -6.9500  -15.5764 N   0  0  0  0  0  0  0  0  0  0  0  0
   19.9053   -4.9145  -15.3296 C   0  0  0  0  0  0  0  0  0  0  0  0
   19.4555   -4.5980  -16.4867 O   0  0  0  0  0  0  0  0  0  0  0  0
   20.5973   -3.9248  -14.6719 O   0  0  0  0  0  0  0  0  0  0  0  0
  2  1  1  1
  2  3  1  0
  4  6  1  0
  4  2  1  0
  4  5  1  1
  6 12  1  0
  7  6  2  0
  9 10  1  0
  9  8  1  6
  9 11  1  0
 11 13  1  0
 11 12  1  1
 13 20  1  0
 13 14  2  0
 16 15  1  0
 16 18  1  0
 17 16  2  0
 19 21  1  0
 19 18  1  6
 20 19  1  0
 21 23  1  0
 22 21  2  0
M  END
$$$$
