VTN.pdb
     RDKit          3D

 23 22  0  0  1  0  0  0  0  0999 V2000
   16.8581  -10.7082  -16.2785 C   0  0  0  0  0  0  0  0  0  0  0  0
   17.7355  -11.1727  -17.4485 C   0  0  2  0  0  0  0  0  0  0  0  0
   16.9150  -12.1389  -18.2407 C   0  0  0  0  0  0  0  0  0  0  0  0
   18.9594  -11.7920  -16.8383 C   0  0  2  0  0  0  0  0  0  0  0  0
   18.6218  -13.1146  -16.3441 N   0  0  0  0  0  0  0  0  0  0  0  0
   19.5794  -10.9879  -15.7659 C   0  0  0  0  0  0  0  0  0  0  0  0
   19.2085  -11.1021  -14.5804 O   0  0  0  0  0  0  0  0  0  0  0  0
   23.2402  -10.9138  -14.9177 C   0  0  0  0  0  0  0  0  0  0  0  0
   22.8005   -9.5237  -15.2610 C   0  0  1  0  0  0  0  0  0  0  0  0
   23.2114   -9.2528  -16.5687 O   0  0  0  0  0  0  0  0  0  0  0  0
   21.3298   -9.2980  -15.0758 C   0  0  2  0  0  0  0  0  0  0  0  0
   20.6109  -10.0691  -16.0712 N   0  0  0  0  0  0  0  0  0  0  0  0
   21.0616   -7.8453  -15.3465 C   0  0  0  0  0  0  0  0  0  0  0  0
   20.2777   -7.4347  -16.2299 O   0  0  0  0  0  0  0  0  0  0  0  0
   19.0451   -3.1407  -15.7363 N   0  0  0  0  0  0  0  0  0  0  0  0
   19.5935   -3.7461  -14.5846 C   0  0  0  0  0  0  0  0  0  0  0  0
   19.7886   -3.0263  -13.5672 O   0  0  0  0  0  0  0  0  0  0  0  0
   19.9202   -5.1669  -14.5845 C   0  0  0  0  0  0  0  0  0  0  0  0
   21.4026   -5.4357  -14.7311 C   0  0  2  0  0  0  0  0  0  0  0  0
   21.7166   -6.8309  -14.5783 N   0  0  0  0  0  0  0  0  0  0  0  0
   22.2617   -4.5477  -13.9451 C   0  0  0  0  0  0  0  0  0  0  0  0
   22.6251   -4.9511  -12.7846 O   0  0  0  0  0  0  0  0  0  0  0  0
   22.7316   -3.3097  -14.3160 O   0  0  0  0  0  0  0  0  0  0  0  0
  2  1  1  1
  2  3  1  0
  4  6  1  0
  4  2  1  0
  4  5  1  1
  6 12  1  0
  7  6  2  0
  9 10  1  0
  9  8  1  6
  9 11  1  0
 11 13  1  0
 11 12  1  6
 13 20  1  0
 13 14  2  0
 16 15  1  0
 16 18  1  0
 17 16  2  0
 19 21  1  0
 19 18  1  1
 20 19  1  0
 21 23  1  0
 22 21  2  0
M  END
$$$$
