VTN.pdb
     RDKit          3D

 23 22  0  0  1  0  0  0  0  0999 V2000
   17.3963  -11.0551  -16.2241 C   0  0  0  0  0  0  0  0  0  0  0  0
   18.1867  -11.6019  -17.4202 C   0  0  2  0  0  0  0  0  0  0  0  0
   17.3304  -12.6495  -18.0555 C   0  0  0  0  0  0  0  0  0  0  0  0
   19.4731  -12.1413  -16.8649 C   0  0  2  0  0  0  0  0  0  0  0  0
   19.2400  -13.4783  -16.3498 N   0  0  0  0  0  0  0  0  0  0  0  0
   20.0915  -11.2933  -15.8259 C   0  0  0  0  0  0  0  0  0  0  0  0
   19.7505  -11.3900  -14.6300 O   0  0  0  0  0  0  0  0  0  0  0  0
   23.8836  -10.9205  -15.2530 C   0  0  0  0  0  0  0  0  0  0  0  0
   23.2641   -9.5843  -15.5264 C   0  0  1  0  0  0  0  0  0  0  0  0
   23.5310   -9.2503  -16.8566 O   0  0  0  0  0  0  0  0  0  0  0  0
   21.7982   -9.5293  -15.2162 C   0  0  2  0  0  0  0  0  0  0  0  0
   21.0876  -10.3515  -16.1760 N   0  0  0  0  0  0  0  0  0  0  0  0
   21.3508   -8.1096  -15.4156 C   0  0  0  0  0  0  0  0  0  0  0  0
   20.8107   -7.6902  -16.4624 O   0  0  0  0  0  0  0  0  0  0  0  0
   20.4295   -3.0989  -14.7614 N   0  0  0  0  0  0  0  0  0  0  0  0
   19.5957   -3.9521  -14.0059 C   0  0  0  0  0  0  0  0  0  0  0  0
   18.5667   -3.4587  -13.4686 O   0  0  0  0  0  0  0  0  0  0  0  0
   19.9267   -5.3644  -13.8596 C   0  0  0  0  0  0  0  0  0  0  0  0
   21.2070   -5.7510  -14.5684 C   0  0  2  0  0  0  0  0  0  0  0  0
   21.5315   -7.1394  -14.3792 N   0  0  0  0  0  0  0  0  0  0  0  0
   22.3316   -4.8441  -14.3294 C   0  0  0  0  0  0  0  0  0  0  0  0
   22.1905   -3.6209  -14.6836 O   0  0  0  0  0  0  0  0  0  0  0  0
   23.5422   -5.1598  -13.7586 O   0  0  0  0  0  0  0  0  0  0  0  0
  2  1  1  1
  2  3  1  0
  4  6  1  0
  4  2  1  0
  4  5  1  1
  6 12  1  0
  7  6  2  0
  9 10  1  0
  9  8  1  6
  9 11  1  0
 11 13  1  0
 11 12  1  6
 13 20  1  0
 13 14  2  0
 16 15  1  0
 16 18  1  0
 17 16  2  0
 19 21  1  0
 19 18  1  1
 20 19  1  0
 21 23  1  0
 22 21  2  0
M  END
$$$$
