VTN.pdb
     RDKit          3D

 23 22  0  0  1  0  0  0  0  0999 V2000
   22.9551  -14.6083  -18.7118 C   0  0  0  0  0  0  0  0  0  0  0  0
   22.3172  -13.2736  -19.1196 C   0  0  2  0  0  0  0  0  0  0  0  0
   22.8616  -12.9348  -20.4699 C   0  0  0  0  0  0  0  0  0  0  0  0
   22.6983  -12.2821  -18.0586 C   0  0  2  0  0  0  0  0  0  0  0  0
   22.6710  -12.9417  -16.7658 N   0  0  0  0  0  0  0  0  0  0  0  0
   21.8598  -11.0667  -18.0308 C   0  0  0  0  0  0  0  0  0  0  0  0
   21.8168  -10.2926  -19.0079 O   0  0  0  0  0  0  0  0  0  0  0  0
   18.1710  -10.9284  -17.5626 C   0  0  0  0  0  0  0  0  0  0  0  0
   18.8103  -10.1455  -16.4570 C   0  0  1  0  0  0  0  0  0  0  0  0
   18.8204  -10.9466  -15.3124 O   0  0  0  0  0  0  0  0  0  0  0  0
   20.1782   -9.6351  -16.7982 C   0  0  2  0  0  0  0  0  0  0  0  0
   21.0874  -10.7612  -16.8855 N   0  0  0  0  0  0  0  0  0  0  0  0
   20.6326   -8.7724  -15.6560 C   0  0  0  0  0  0  0  0  0  0  0  0
   21.6976   -8.9546  -15.0266 O   0  0  0  0  0  0  0  0  0  0  0  0
   22.5093   -5.5140  -12.4373 N   0  0  0  0  0  0  0  0  0  0  0  0
   22.2978   -5.2208  -13.8022 C   0  0  0  0  0  0  0  0  0  0  0  0
   22.5923   -4.0666  -14.2174 O   0  0  0  0  0  0  0  0  0  0  0  0
   21.7537   -6.2348  -14.6973 C   0  0  0  0  0  0  0  0  0  0  0  0
   20.3491   -6.6610  -14.3283 C   0  0  2  0  0  0  0  0  0  0  0  0
   19.8368   -7.6652  -15.2214 N   0  0  0  0  0  0  0  0  0  0  0  0
   19.4208   -5.5538  -14.0902 C   0  0  0  0  0  0  0  0  0  0  0  0
   18.8827   -5.0025  -15.1139 O   0  0  0  0  0  0  0  0  0  0  0  0
   19.0539   -5.0289  -12.8733 O   0  0  0  0  0  0  0  0  0  0  0  0
  2  1  1  1
  2  3  1  0
  4  6  1  0
  4  2  1  0
  4  5  1  1
  6 12  1  0
  7  6  2  0
  9 10  1  0
  9  8  1  6
  9 11  1  0
 11 13  1  0
 11 12  1  1
 13 20  1  0
 13 14  2  0
 16 15  1  0
 16 18  1  0
 17 16  2  0
 19 21  1  0
 19 18  1  6
 20 19  1  0
 21 23  1  0
 22 21  2  0
M  END
$$$$
