VTN.pdb
     RDKit          3D

 23 22  0  0  1  0  0  0  0  0999 V2000
   18.7743  -19.4482  -19.1861 C   0  0  0  0  0  0  0  0  0  0  0  0
   19.2950  -19.7377  -17.7720 C   0  0  2  0  0  0  0  0  0  0  0  0
   18.5266  -20.9160  -17.2666 C   0  0  0  0  0  0  0  0  0  0  0  0
   19.0624  -18.4884  -16.9726 C   0  0  2  0  0  0  0  0  0  0  0  0
   17.6357  -18.2281  -16.9097 N   0  0  0  0  0  0  0  0  0  0  0  0
   19.7777  -17.2993  -17.4780 C   0  0  0  0  0  0  0  0  0  0  0  0
   21.0236  -17.2419  -17.4585 O   0  0  0  0  0  0  0  0  0  0  0  0
   20.0828  -16.0026  -20.8223 C   0  0  0  0  0  0  0  0  0  0  0  0
   19.3661  -14.9584  -20.0224 C   0  0  1  0  0  0  0  0  0  0  0  0
   17.9982  -15.0840  -20.2780 O   0  0  0  0  0  0  0  0  0  0  0  0
   19.6713  -15.0137  -18.5554 C   0  0  2  0  0  0  0  0  0  0  0  0
   19.0533  -16.1996  -17.9952 N   0  0  0  0  0  0  0  0  0  0  0  0
   19.0224  -13.8191  -17.9172 C   0  0  0  0  0  0  0  0  0  0  0  0
   17.8025  -13.7480  -17.6521 O   0  0  0  0  0  0  0  0  0  0  0  0
   18.3296   -9.2296  -15.6454 N   0  0  0  0  0  0  0  0  0  0  0  0
   19.4641   -9.8708  -15.1018 C   0  0  0  0  0  0  0  0  0  0  0  0
   19.9613   -9.4055  -14.0400 O   0  0  0  0  0  0  0  0  0  0  0  0
   20.0352  -11.0396  -15.7600 C   0  0  0  0  0  0  0  0  0  0  0  0
   19.2177  -11.5142  -16.9422 C   0  0  2  0  0  0  0  0  0  0  0  0
   19.8000  -12.6678  -17.5737 N   0  0  0  0  0  0  0  0  0  0  0  0
   18.8361  -10.4570  -17.8809 C   0  0  0  0  0  0  0  0  0  0  0  0
   19.5192  -10.3488  -18.9594 O   0  0  0  0  0  0  0  0  0  0  0  0
   17.8113   -9.5518  -17.7353 O   0  0  0  0  0  0  0  0  0  0  0  0
  2  1  1  6
  2  3  1  0
  4  6  1  0
  4  2  1  0
  4  5  1  6
  6 12  1  0
  7  6  2  0
  9 10  1  0
  9  8  1  6
  9 11  1  0
 11 13  1  0
 11 12  1  1
 13 20  1  0
 13 14  2  0
 16 15  1  0
 16 18  1  0
 17 16  2  0
 19 21  1  0
 19 18  1  1
 20 19  1  0
 21 23  1  0
 22 21  2  0
M  END
$$$$
