VTN.pdb
     RDKit          3D

 23 22  0  0  1  0  0  0  0  0999 V2000
   22.2589  -14.2395  -17.1222 C   0  0  0  0  0  0  0  0  0  0  0  0
   23.3350  -14.1721  -18.2140 C   0  0  2  0  0  0  0  0  0  0  0  0
   23.2047  -15.4238  -19.0205 C   0  0  0  0  0  0  0  0  0  0  0  0
   24.6518  -14.0575  -17.5021 C   0  0  2  0  0  0  0  0  0  0  0  0
   25.0177  -15.3599  -16.9756 N   0  0  0  0  0  0  0  0  0  0  0  0
   24.6775  -13.0454  -16.4269 C   0  0  0  0  0  0  0  0  0  0  0  0
   24.5772  -13.3774  -15.2287 O   0  0  0  0  0  0  0  0  0  0  0  0
   27.2846  -10.6757  -15.3986 C   0  0  0  0  0  0  0  0  0  0  0  0
   26.1039   -9.8652  -15.8379 C   0  0  1  0  0  0  0  0  0  0  0  0
   26.3612   -9.3942  -17.1279 O   0  0  0  0  0  0  0  0  0  0  0  0
   24.8045  -10.6092  -15.7597 C   0  0  2  0  0  0  0  0  0  0  0  0
   24.8170  -11.6737  -16.7440 N   0  0  0  0  0  0  0  0  0  0  0  0
   23.7147   -9.6495  -16.1428 C   0  0  0  0  0  0  0  0  0  0  0  0
   22.8933   -9.8596  -17.0618 O   0  0  0  0  0  0  0  0  0  0  0  0
   20.0647   -6.0955  -15.7084 N   0  0  0  0  0  0  0  0  0  0  0  0
   19.9339   -7.4876  -15.5110 C   0  0  0  0  0  0  0  0  0  0  0  0
   18.7735   -7.9665  -15.3870 O   0  0  0  0  0  0  0  0  0  0  0  0
   21.1171   -8.3376  -15.4551 C   0  0  0  0  0  0  0  0  0  0  0  0
   22.4096   -7.5686  -15.6256 C   0  0  2  0  0  0  0  0  0  0  0  0
   23.5647   -8.4070  -15.4488 N   0  0  0  0  0  0  0  0  0  0  0  0
   22.4722   -6.3117  -14.8770 C   0  0  0  0  0  0  0  0  0  0  0  0
   21.5197   -5.4723  -15.0496 O   0  0  0  0  0  0  0  0  0  0  0  0
   23.4524   -5.9222  -13.9947 O   0  0  0  0  0  0  0  0  0  0  0  0
  2  1  1  1
  2  3  1  0
  4  6  1  0
  4  2  1  0
  4  5  1  1
  6 12  1  0
  7  6  2  0
  9 10  1  0
  9  8  1  6
  9 11  1  0
 11 13  1  0
 11 12  1  6
 13 20  1  0
 13 14  2  0
 16 15  1  0
 16 18  1  0
 17 16  2  0
 19 21  1  0
 19 18  1  1
 20 19  1  0
 21 23  1  0
 22 21  2  0
M  END
$$$$
