VTN.pdb
     RDKit          3D

 23 22  0  0  1  0  0  0  0  0999 V2000
   18.6742  -14.8859  -19.6838 C   0  0  0  0  0  0  0  0  0  0  0  0
   18.3383  -15.4596  -18.3009 C   0  0  2  0  0  0  0  0  0  0  0  0
   17.0093  -16.1318  -18.4283 C   0  0  0  0  0  0  0  0  0  0  0  0
   18.3277  -14.2958  -17.3524 C   0  0  2  0  0  0  0  0  0  0  0  0
   17.1254  -13.5144  -17.5787 N   0  0  0  0  0  0  0  0  0  0  0  0
   19.5225  -13.4316  -17.4346 C   0  0  0  0  0  0  0  0  0  0  0  0
   20.6498  -13.8610  -17.1170 O   0  0  0  0  0  0  0  0  0  0  0  0
   21.3679  -12.0813  -20.1861 C   0  0  0  0  0  0  0  0  0  0  0  0
   20.7673  -10.9166  -19.4605 C   0  0  1  0  0  0  0  0  0  0  0  0
   19.5977  -10.5488  -20.1305 O   0  0  0  0  0  0  0  0  0  0  0  0
   20.5223  -11.1796  -18.0049 C   0  0  2  0  0  0  0  0  0  0  0  0
   19.4038  -12.0935  -17.8782 N   0  0  0  0  0  0  0  0  0  0  0  0
   20.1178   -9.8773  -17.3759 C   0  0  0  0  0  0  0  0  0  0  0  0
   18.9364   -9.5746  -17.0998 O   0  0  0  0  0  0  0  0  0  0  0  0
   21.9682   -9.2171  -14.3194 N   0  0  0  0  0  0  0  0  0  0  0  0
   20.9431   -8.2853  -14.0460 C   0  0  0  0  0  0  0  0  0  0  0  0
   20.8271   -7.8545  -12.8661 O   0  0  0  0  0  0  0  0  0  0  0  0
   20.0498   -7.8405  -15.1089 C   0  0  0  0  0  0  0  0  0  0  0  0
   20.7555   -7.6400  -16.4329 C   0  0  2  0  0  0  0  0  0  0  0  0
   21.1023   -8.8894  -17.0551 N   0  0  0  0  0  0  0  0  0  0  0  0
   21.8553   -6.6739  -16.3951 C   0  0  0  0  0  0  0  0  0  0  0  0
   23.0086   -7.0752  -16.7829 O   0  0  0  0  0  0  0  0  0  0  0  0
   21.7913   -5.3631  -15.9845 O   0  0  0  0  0  0  0  0  0  0  0  0
  2  1  1  6
  2  3  1  0
  4  6  1  0
  4  2  1  0
  4  5  1  6
  6 12  1  0
  7  6  2  0
  9 10  1  0
  9  8  1  6
  9 11  1  0
 11 13  1  0
 11 12  1  6
 13 20  1  0
 13 14  2  0
 16 15  1  0
 16 18  1  0
 17 16  2  0
 19 21  1  0
 19 18  1  1
 20 19  1  0
 21 23  1  0
 22 21  2  0
M  END
$$$$
