EKM.pdb
     RDKit          3D

 27 26  0  0  1  0  0  0  0  0999 V2000
   12.6616  -17.2960   18.4610 N   0  0  0  0  0  0  0  0  0  0  0  0
   11.8935  -17.9620   19.4846 C   0  0  1  0  0  0  0  0  0  0  0  0
   12.7550  -19.0423   20.0924 C   0  0  0  0  0  0  0  0  0  0  0  0
   14.2138  -18.6504   20.0115 C   0  0  0  0  0  0  0  0  0  0  0  0
   15.0660  -19.8560   19.9756 C   0  0  0  0  0  0  0  0  0  0  0  0
   14.7915  -20.8409   20.6880 O   0  0  0  0  0  0  0  0  0  0  0  0
   11.4879  -16.9500   20.4889 C   0  0  0  0  0  0  0  0  0  0  0  0
   12.3110  -16.1067   20.9072 O   0  0  0  0  0  0  0  0  0  0  0  0
   16.1645  -19.8873   19.1518 O   0  0  0  0  0  0  0  0  0  0  0  0
   10.1621  -16.9195   20.9931 N   0  0  0  0  0  0  0  0  0  0  0  0
    9.6660  -15.9074   21.8904 C   0  0  1  0  0  0  0  0  0  0  0  0
    8.1890  -15.7060   21.5765 C   0  0  0  0  0  0  0  0  0  0  0  0
    7.9303  -14.3291   21.0164 C   0  0  0  0  0  0  0  0  0  0  0  0
    7.7788  -14.3879   19.5341 C   0  0  0  0  0  0  0  0  0  0  0  0
    7.5884  -13.0817   18.8447 C   0  0  0  0  0  0  0  0  0  0  0  0
    7.5560  -13.2780   17.3864 N   0  0  0  0  0  0  0  0  0  0  0  0
    9.8639  -16.3058   23.3070 C   0  0  0  0  0  0  0  0  0  0  0  0
    9.9411  -17.5137   23.5811 O   0  0  0  0  0  0  0  0  0  0  0  0
   10.8295  -13.8723   30.7132 C   0  0  0  0  0  0  0  0  0  0  0  0
    9.7874  -13.6074   29.2527 S   0  0  0  0  0  0  0  0  0  0  0  0
   10.1073  -14.9253   28.0533 C   0  0  0  0  0  0  0  0  0  0  0  0
    9.7845  -14.4924   26.6413 C   0  0  0  0  0  0  0  0  0  0  0  0
   10.1060  -15.6656   25.7363 C   0  0  2  0  0  0  0  0  0  0  0  0
    9.9664  -15.3452   24.3485 N   0  0  0  0  0  0  0  0  0  0  0  0
    9.3722  -16.8974   26.1179 C   0  0  0  0  0  0  0  0  0  0  0  0
    9.8405  -17.7601   26.9006 O   0  0  0  0  0  0  0  0  0  0  0  0
    8.1074  -17.1214   25.5937 O   0  0  0  0  0  0  0  0  0  0  0  0
  2  1  1  6
  2  7  1  0
  3  2  1  0
  3  4  1  0
  4  5  1  0
  5  9  1  0
  5  6  2  0
  7 10  1  0
  7  8  2  0
 10 11  1  0
 11 12  1  1
 11 17  1  0
 13 14  1  0
 13 12  1  0
 15 16  1  0
 15 14  1  0
 17 18  2  0
 20 19  1  0
 20 21  1  0
 21 22  1  0
 23 22  1  1
 23 25  1  0
 24 23  1  0
 24 17  1  0
 25 26  2  0
 25 27  1  0
M  END
$$$$
