EKM.pdb
     RDKit          3D

 27 26  0  0  1  0  0  0  0  0999 V2000
   11.6453  -19.5449   19.8121 N   0  0  0  0  0  0  0  0  0  0  0  0
   11.4723  -19.3863   21.2356 C   0  0  1  0  0  0  0  0  0  0  0  0
   12.7781  -19.7303   21.9102 C   0  0  0  0  0  0  0  0  0  0  0  0
   13.6990  -20.4287   20.9343 C   0  0  0  0  0  0  0  0  0  0  0  0
   15.1090  -20.2067   21.3132 C   0  0  0  0  0  0  0  0  0  0  0  0
   15.9300  -19.7995   20.4688 O   0  0  0  0  0  0  0  0  0  0  0  0
   11.0688  -17.9843   21.4979 C   0  0  0  0  0  0  0  0  0  0  0  0
   11.9122  -17.0624   21.4499 O   0  0  0  0  0  0  0  0  0  0  0  0
   15.5125  -20.4514   22.6030 O   0  0  0  0  0  0  0  0  0  0  0  0
    9.7220  -17.6632   21.8076 N   0  0  0  0  0  0  0  0  0  0  0  0
    9.2495  -16.3236   22.0479 C   0  0  1  0  0  0  0  0  0  0  0  0
    7.9252  -16.1695   21.3109 C   0  0  0  0  0  0  0  0  0  0  0  0
    7.4704  -14.7310   21.2956 C   0  0  0  0  0  0  0  0  0  0  0  0
    8.0798  -14.0025   20.1461 C   0  0  0  0  0  0  0  0  0  0  0  0
    7.6424  -12.5910   19.9616 C   0  0  0  0  0  0  0  0  0  0  0  0
    8.2695  -12.0188   18.7592 N   0  0  0  0  0  0  0  0  0  0  0  0
    9.0875  -16.0669   23.5014 C   0  0  0  0  0  0  0  0  0  0  0  0
    8.4583  -16.8894   24.1853 O   0  0  0  0  0  0  0  0  0  0  0  0
    5.3713  -12.3747   26.3014 C   0  0  0  0  0  0  0  0  0  0  0  0
    6.7839  -12.0216   27.3826 S   0  0  0  0  0  0  0  0  0  0  0  0
    8.0762  -13.2542   27.0857 C   0  0  0  0  0  0  0  0  0  0  0  0
    8.1835  -13.6165   25.6219 C   0  0  0  0  0  0  0  0  0  0  0  0
    9.3855  -14.5298   25.4810 C   0  0  2  0  0  0  0  0  0  0  0  0
    9.6312  -14.9114   24.1236 N   0  0  0  0  0  0  0  0  0  0  0  0
    9.3300  -15.6910   26.4028 C   0  0  0  0  0  0  0  0  0  0  0  0
    9.8593  -15.6890   27.5412 O   0  0  0  0  0  0  0  0  0  0  0  0
    8.6655  -16.8413   26.0029 O   0  0  0  0  0  0  0  0  0  0  0  0
  2  1  1  6
  2  7  1  0
  3  2  1  0
  3  4  1  0
  4  5  1  0
  5  9  1  0
  5  6  2  0
  7 10  1  0
  7  8  2  0
 10 11  1  0
 11 12  1  6
 11 17  1  0
 13 14  1  0
 13 12  1  0
 15 16  1  0
 15 14  1  0
 17 18  2  0
 20 19  1  0
 20 21  1  0
 21 22  1  0
 23 22  1  6
 23 25  1  0
 24 23  1  0
 24 17  1  0
 25 26  2  0
 25 27  1  0
M  END
$$$$
