EKM.pdb
     RDKit          3D

 27 26  0  0  1  0  0  0  0  0999 V2000
   10.8219  -17.4318   19.8626 N   0  0  0  0  0  0  0  0  0  0  0  0
   11.3634  -17.8419   21.1354 C   0  0  1  0  0  0  0  0  0  0  0  0
   12.8122  -17.4212   21.1887 C   0  0  0  0  0  0  0  0  0  0  0  0
   13.3721  -17.3074   19.7880 C   0  0  0  0  0  0  0  0  0  0  0  0
   14.2145  -18.4800   19.4773 C   0  0  0  0  0  0  0  0  0  0  0  0
   14.5801  -19.2497   20.3866 O   0  0  0  0  0  0  0  0  0  0  0  0
   10.5632  -17.2002   22.2055 C   0  0  0  0  0  0  0  0  0  0  0  0
   10.4486  -15.9560   22.2517 O   0  0  0  0  0  0  0  0  0  0  0  0
   14.5941  -18.7189   18.1792 O   0  0  0  0  0  0  0  0  0  0  0  0
    9.9145  -17.9836   23.1946 N   0  0  0  0  0  0  0  0  0  0  0  0
    9.0160  -17.4464   24.1843 C   0  0  1  0  0  0  0  0  0  0  0  0
    8.0784  -18.5708   24.6053 C   0  0  0  0  0  0  0  0  0  0  0  0
    7.0083  -18.8094   23.5688 C   0  0  0  0  0  0  0  0  0  0  0  0
    6.8114  -20.2709   23.3478 C   0  0  0  0  0  0  0  0  0  0  0  0
    5.7563  -20.6467   22.3663 C   0  0  0  0  0  0  0  0  0  0  0  0
    5.6571  -22.1116   22.2645 N   0  0  0  0  0  0  0  0  0  0  0  0
    9.7639  -16.9074   25.3484 C   0  0  0  0  0  0  0  0  0  0  0  0
   10.7585  -17.5272   25.7564 O   0  0  0  0  0  0  0  0  0  0  0  0
    6.0448  -11.5352   26.9945 C   0  0  0  0  0  0  0  0  0  0  0  0
    7.8259  -11.7240   27.2791 S   0  0  0  0  0  0  0  0  0  0  0  0
    8.2681  -13.4714   27.1099 C   0  0  0  0  0  0  0  0  0  0  0  0
    9.7374  -13.7089   27.3745 C   0  0  0  0  0  0  0  0  0  0  0  0
    9.9846  -15.1931   27.1875 C   0  0  2  0  0  0  0  0  0  0  0  0
    9.3715  -15.7084   26.0014 N   0  0  0  0  0  0  0  0  0  0  0  0
    9.6490  -15.9835   28.3973 C   0  0  0  0  0  0  0  0  0  0  0  0
    8.6931  -16.7962   28.4423 O   0  0  0  0  0  0  0  0  0  0  0  0
   10.4180  -15.8288   29.5416 O   0  0  0  0  0  0  0  0  0  0  0  0
  2  1  1  6
  2  7  1  0
  3  2  1  0
  3  4  1  0
  4  5  1  0
  5  9  1  0
  5  6  2  0
  7 10  1  0
  7  8  2  0
 10 11  1  0
 11 12  1  1
 11 17  1  0
 13 14  1  0
 13 12  1  0
 15 16  1  0
 15 14  1  0
 17 18  2  0
 20 19  1  0
 20 21  1  0
 21 22  1  0
 23 22  1  1
 23 25  1  0
 24 23  1  0
 24 17  1  0
 25 26  2  0
 25 27  1  0
M  END
$$$$
