EKM.pdb
     RDKit          3D

 27 26  0  0  1  0  0  0  0  0999 V2000
   10.5704  -17.4140   18.9146 N   0  0  0  0  0  0  0  0  0  0  0  0
   10.5760  -18.3681   19.9968 C   0  0  1  0  0  0  0  0  0  0  0  0
   11.9649  -18.4030   20.5870 C   0  0  0  0  0  0  0  0  0  0  0  0
   12.6620  -17.0810   20.3536 C   0  0  0  0  0  0  0  0  0  0  0  0
   14.0304  -17.1196   20.9076 C   0  0  0  0  0  0  0  0  0  0  0  0
   14.2857  -16.5596   21.9912 O   0  0  0  0  0  0  0  0  0  0  0  0
    9.5642  -17.9419   20.9927 C   0  0  0  0  0  0  0  0  0  0  0  0
    9.2468  -16.7371   21.0982 O   0  0  0  0  0  0  0  0  0  0  0  0
   15.0226  -17.7768   20.2221 O   0  0  0  0  0  0  0  0  0  0  0  0
    8.9390  -18.8904   21.8427 N   0  0  0  0  0  0  0  0  0  0  0  0
    7.8393  -18.5817   22.7207 C   0  0  1  0  0  0  0  0  0  0  0  0
    7.2765  -19.9038   23.2266 C   0  0  0  0  0  0  0  0  0  0  0  0
    5.8618  -20.1168   22.7472 C   0  0  0  0  0  0  0  0  0  0  0  0
    5.3585  -21.4517   23.1809 C   0  0  0  0  0  0  0  0  0  0  0  0
    4.0371  -21.8619   22.6303 C   0  0  0  0  0  0  0  0  0  0  0  0
    3.6842  -23.2084   23.1086 N   0  0  0  0  0  0  0  0  0  0  0  0
    8.2803  -17.7203   23.8469 C   0  0  0  0  0  0  0  0  0  0  0  0
    9.4304  -17.8624   24.2909 O   0  0  0  0  0  0  0  0  0  0  0  0
    7.1746  -10.9898   26.4838 C   0  0  0  0  0  0  0  0  0  0  0  0
    6.2936  -12.4389   27.1268 S   0  0  0  0  0  0  0  0  0  0  0  0
    7.3078  -13.9138   26.8554 C   0  0  0  0  0  0  0  0  0  0  0  0
    6.8159  -14.7271   25.6799 C   0  0  0  0  0  0  0  0  0  0  0  0
    7.7988  -15.8659   25.4898 C   0  0  2  0  0  0  0  0  0  0  0  0
    7.4242  -16.7447   24.4242 N   0  0  0  0  0  0  0  0  0  0  0  0
    8.0870  -16.5867   26.7541 C   0  0  0  0  0  0  0  0  0  0  0  0
    7.4046  -17.5590   27.1604 O   0  0  0  0  0  0  0  0  0  0  0  0
    9.1581  -16.1794   27.5362 O   0  0  0  0  0  0  0  0  0  0  0  0
  2  1  1  6
  2  7  1  0
  3  2  1  0
  3  4  1  0
  4  5  1  0
  5  9  1  0
  5  6  2  0
  7 10  1  0
  7  8  2  0
 10 11  1  0
 11 12  1  1
 11 17  1  0
 13 14  1  0
 13 12  1  0
 15 16  1  0
 15 14  1  0
 17 18  2  0
 20 19  1  0
 20 21  1  0
 21 22  1  0
 23 22  1  1
 23 25  1  0
 24 23  1  0
 24 17  1  0
 25 26  2  0
 25 27  1  0
M  END
$$$$
