DTP.pdb
     RDKit          3D

 23 23  0  0  1  0  0  0  0  0999 V2000
   10.7762  -15.7949   18.9192 N   0  0  0  0  0  0  0  0  0  0  0  0
   11.2668  -15.0714   20.0999 C   0  0  1  0  0  0  0  0  0  0  0  0
   12.2605  -14.0562   19.5934 C   0  0  0  0  0  0  0  0  0  0  0  0
   13.5544  -14.7628   19.3955 C   0  0  0  0  0  0  0  0  0  0  0  0
   14.1207  -15.4467   20.2650 O   0  0  0  0  0  0  0  0  0  0  0  0
   10.1259  -14.4391   20.8041 C   0  0  0  0  0  0  0  0  0  0  0  0
    9.5103  -13.5234   20.1983 O   0  0  0  0  0  0  0  0  0  0  0  0
   14.1501  -14.6329   18.1423 O   0  0  0  0  0  0  0  0  0  0  0  0
    7.1220  -14.5558   20.7456 C   0  0  0  0  0  0  0  0  0  0  0  0
    7.3610  -14.8558   22.1816 C   0  0  1  0  0  0  0  0  0  0  0  0
    7.6899  -16.2386   22.2388 O   0  0  0  0  0  0  0  0  0  0  0  0
    8.5766  -14.1287   22.7824 C   0  0  2  0  0  0  0  0  0  0  0  0
    9.6993  -14.7991   22.0908 N   0  0  0  0  0  0  0  0  0  0  0  0
    8.6974  -14.3244   24.2325 C   0  0  0  0  0  0  0  0  0  0  0  0
    9.6022  -15.1428   24.6268 O   0  0  0  0  0  0  0  0  0  0  0  0
    7.9458  -13.7229   25.2658 N   0  0  0  0  0  0  0  0  0  0  0  0
    6.8237  -12.7969   25.0489 C   0  0  0  0  0  0  0  0  0  0  0  0
    7.0351  -11.7634   26.1489 C   0  0  0  0  0  0  0  0  0  0  0  0
    7.3975  -12.6642   27.2983 C   0  0  0  0  0  0  0  0  0  0  0  0
    8.1044  -13.8203   26.6857 C   0  0  1  0  0  0  0  0  0  0  0  0
    7.5293  -15.0667   27.2442 C   0  0  0  0  0  0  0  0  0  0  0  0
    6.7512  -15.7670   26.5776 O   0  0  0  0  0  0  0  0  0  0  0  0
    7.8671  -15.4494   28.5240 O   0  0  0  0  0  0  0  0  0  0  0  0
  2  1  1  6
  3  4  1  0
  3  2  1  0
  4  8  1  0
  4  5  2  0
  6  2  1  0
  7  6  2  0
 10  9  1  6
 10 12  1  0
 11 10  1  0
 12 14  1  0
 12 13  1  6
 13  6  1  0
 14 16  1  0
 15 14  2  0
 16 20  1  0
 16 17  1  0
 17 18  1  0
 19 18  1  0
 20 21  1  1
 20 19  1  0
 21 23  1  0
 22 21  2  0
M  END
$$$$
