DTP.pdb
     RDKit          3D

 23 23  0  0  1  0  0  0  0  0999 V2000
   11.9231  -16.7213   20.2332 N   0  0  0  0  0  0  0  0  0  0  0  0
   11.3952  -16.9979   21.5760 C   0  0  1  0  0  0  0  0  0  0  0  0
   12.5919  -17.2427   22.4607 C   0  0  0  0  0  0  0  0  0  0  0  0
   13.3522  -18.3787   21.8737 C   0  0  0  0  0  0  0  0  0  0  0  0
   12.8417  -19.4525   21.5122 O   0  0  0  0  0  0  0  0  0  0  0  0
   10.5815  -15.8474   22.0361 C   0  0  0  0  0  0  0  0  0  0  0  0
   11.1133  -14.7077   21.9846 O   0  0  0  0  0  0  0  0  0  0  0  0
   14.7269  -18.2006   21.7306 O   0  0  0  0  0  0  0  0  0  0  0  0
    7.1841  -14.6417   20.9347 C   0  0  0  0  0  0  0  0  0  0  0  0
    7.1592  -14.9517   22.3882 C   0  0  1  0  0  0  0  0  0  0  0  0
    6.8344  -16.3333   22.4840 O   0  0  0  0  0  0  0  0  0  0  0  0
    8.5236  -14.8106   23.0850 C   0  0  2  0  0  0  0  0  0  0  0  0
    9.2694  -15.9561   22.5194 N   0  0  0  0  0  0  0  0  0  0  0  0
    8.4343  -14.9466   24.5442 C   0  0  0  0  0  0  0  0  0  0  0  0
    9.0465  -15.9456   25.0651 O   0  0  0  0  0  0  0  0  0  0  0  0
    7.7608  -14.1138   25.4646 N   0  0  0  0  0  0  0  0  0  0  0  0
    6.9796  -12.9237   25.0941 C   0  0  0  0  0  0  0  0  0  0  0  0
    7.3359  -11.9404   26.2027 C   0  0  0  0  0  0  0  0  0  0  0  0
    7.2863  -12.8529   27.3979 C   0  0  0  0  0  0  0  0  0  0  0  0
    7.7097  -14.1865   26.8939 C   0  0  1  0  0  0  0  0  0  0  0  0
    6.7435  -15.1977   27.3839 C   0  0  0  0  0  0  0  0  0  0  0  0
    5.8760  -15.6702   26.6327 O   0  0  0  0  0  0  0  0  0  0  0  0
    6.8137  -15.6161   28.6948 O   0  0  0  0  0  0  0  0  0  0  0  0
  2  1  1  6
  3  4  1  0
  3  2  1  0
  4  8  1  0
  4  5  2  0
  6  2  1  0
  7  6  2  0
 10  9  1  6
 10 12  1  0
 11 10  1  0
 12 14  1  0
 12 13  1  6
 13  6  1  0
 14 16  1  0
 15 14  2  0
 16 20  1  0
 16 17  1  0
 17 18  1  0
 19 18  1  0
 20 21  1  6
 20 19  1  0
 21 23  1  0
 22 21  2  0
M  END
$$$$
