DTP.pdb
     RDKit          3D

 23 23  0  0  1  0  0  0  0  0999 V2000
   12.8512  -15.1348   19.3307 N   0  0  0  0  0  0  0  0  0  0  0  0
   12.0542  -15.8863   20.3096 C   0  0  1  0  0  0  0  0  0  0  0  0
   13.0377  -16.5181   21.2626 C   0  0  0  0  0  0  0  0  0  0  0  0
   13.8171  -17.5245   20.4928 C   0  0  0  0  0  0  0  0  0  0  0  0
   13.3111  -18.4235   19.8000 O   0  0  0  0  0  0  0  0  0  0  0  0
   11.1162  -14.9668   20.9968 C   0  0  0  0  0  0  0  0  0  0  0  0
   11.6029  -13.9280   21.5148 O   0  0  0  0  0  0  0  0  0  0  0  0
   15.2053  -17.4303   20.5711 O   0  0  0  0  0  0  0  0  0  0  0  0
    7.8189  -13.3292   19.7684 C   0  0  0  0  0  0  0  0  0  0  0  0
    7.6146  -14.2065   20.9507 C   0  0  1  0  0  0  0  0  0  0  0  0
    7.4346  -15.5190   20.4325 O   0  0  0  0  0  0  0  0  0  0  0  0
    8.8372  -14.3056   21.8794 C   0  0  2  0  0  0  0  0  0  0  0  0
    9.7350  -15.1866   21.1009 N   0  0  0  0  0  0  0  0  0  0  0  0
    8.5226  -14.9311   23.1699 C   0  0  0  0  0  0  0  0  0  0  0  0
    9.0801  -16.0605   23.4103 O   0  0  0  0  0  0  0  0  0  0  0  0
    7.6821  -14.4500   24.1977 N   0  0  0  0  0  0  0  0  0  0  0  0
    6.9025  -13.2049   24.1218 C   0  0  0  0  0  0  0  0  0  0  0  0
    7.0449  -12.6433   25.5314 C   0  0  0  0  0  0  0  0  0  0  0  0
    6.8706  -13.8998   26.3405 C   0  0  0  0  0  0  0  0  0  0  0  0
    7.4296  -14.9913   25.4992 C   0  0  1  0  0  0  0  0  0  0  0  0
    6.4559  -16.1083   25.4784 C   0  0  0  0  0  0  0  0  0  0  0  0
    5.7864  -16.3544   24.4627 O   0  0  0  0  0  0  0  0  0  0  0  0
    6.2952  -16.8824   26.6067 O   0  0  0  0  0  0  0  0  0  0  0  0
  2  1  1  6
  3  4  1  0
  3  2  1  0
  4  8  1  0
  4  5  2  0
  6  2  1  0
  7  6  2  0
 10  9  1  6
 10 12  1  0
 11 10  1  0
 12 14  1  0
 12 13  1  6
 13  6  1  0
 14 16  1  0
 15 14  2  0
 16 20  1  0
 16 17  1  0
 17 18  1  0
 19 18  1  0
 20 21  1  6
 20 19  1  0
 21 23  1  0
 22 21  2  0
M  END
$$$$
