DTP.pdb
     RDKit          3D

 23 23  0  0  1  0  0  0  0  0999 V2000
   10.7047  -14.8881   18.6617 N   0  0  0  0  0  0  0  0  0  0  0  0
   11.0700  -14.9054   20.0846 C   0  0  1  0  0  0  0  0  0  0  0  0
   12.1737  -13.8913   20.2520 C   0  0  0  0  0  0  0  0  0  0  0  0
   13.4407  -14.5392   19.8185 C   0  0  0  0  0  0  0  0  0  0  0  0
   14.1404  -14.1469   18.8693 O   0  0  0  0  0  0  0  0  0  0  0  0
    9.8796  -14.5823   20.9067 C   0  0  0  0  0  0  0  0  0  0  0  0
    9.2453  -13.5346   20.6161 O   0  0  0  0  0  0  0  0  0  0  0  0
   13.8473  -15.6587   20.5419 O   0  0  0  0  0  0  0  0  0  0  0  0
    6.2037  -16.1571   23.6567 C   0  0  0  0  0  0  0  0  0  0  0  0
    7.3847  -16.2070   22.7557 C   0  0  1  0  0  0  0  0  0  0  0  0
    6.8632  -16.1907   21.4324 O   0  0  0  0  0  0  0  0  0  0  0  0
    8.2958  -14.9703   22.8435 C   0  0  2  0  0  0  0  0  0  0  0  0
    9.4263  -15.3681   21.9762 N   0  0  0  0  0  0  0  0  0  0  0  0
    8.7797  -14.7153   24.2061 C   0  0  0  0  0  0  0  0  0  0  0  0
    9.8844  -15.2763   24.5362 O   0  0  0  0  0  0  0  0  0  0  0  0
    8.1887  -13.9226   25.2143 N   0  0  0  0  0  0  0  0  0  0  0  0
    7.0150  -13.0589   25.0138 C   0  0  0  0  0  0  0  0  0  0  0  0
    7.3693  -11.8283   25.8403 C   0  0  0  0  0  0  0  0  0  0  0  0
    7.9470  -12.4841   27.0650 C   0  0  0  0  0  0  0  0  0  0  0  0
    8.5825  -13.7377   26.5786 C   0  0  1  0  0  0  0  0  0  0  0  0
    8.1506  -14.8500   27.4576 C   0  0  0  0  0  0  0  0  0  0  0  0
    7.2800  -15.6545   27.0901 O   0  0  0  0  0  0  0  0  0  0  0  0
    8.7278  -14.9885   28.7009 O   0  0  0  0  0  0  0  0  0  0  0  0
  2  1  1  6
  3  4  1  0
  3  2  1  0
  4  8  1  0
  4  5  2  0
  6  2  1  0
  7  6  2  0
 10  9  1  1
 10 12  1  0
 11 10  1  0
 12 14  1  0
 12 13  1  6
 13  6  1  0
 14 16  1  0
 15 14  2  0
 16 20  1  0
 16 17  1  0
 17 18  1  0
 19 18  1  0
 20 21  1  1
 20 19  1  0
 21 23  1  0
 22 21  2  0
M  END
$$$$
