DTP.pdb
     RDKit          3D

 23 23  0  0  1  0  0  0  0  0999 V2000
    9.8420  -16.8471   19.1529 N   0  0  0  0  0  0  0  0  0  0  0  0
   10.3184  -16.6862   20.5333 C   0  0  1  0  0  0  0  0  0  0  0  0
   11.7529  -16.2302   20.4370 C   0  0  0  0  0  0  0  0  0  0  0  0
   12.6045  -17.4495   20.4063 C   0  0  0  0  0  0  0  0  0  0  0  0
   12.2768  -18.5210   19.8688 O   0  0  0  0  0  0  0  0  0  0  0  0
    9.4628  -15.7053   21.2425 C   0  0  0  0  0  0  0  0  0  0  0  0
    9.2118  -14.6239   20.6492 O   0  0  0  0  0  0  0  0  0  0  0  0
   13.8478  -17.3571   21.0290 O   0  0  0  0  0  0  0  0  0  0  0  0
    6.0965  -15.9753   21.8299 C   0  0  0  0  0  0  0  0  0  0  0  0
    6.6830  -15.7532   23.1775 C   0  0  1  0  0  0  0  0  0  0  0  0
    7.0342  -17.0428   23.6643 O   0  0  0  0  0  0  0  0  0  0  0  0
    7.9987  -14.9557   23.1673 C   0  0  2  0  0  0  0  0  0  0  0  0
    8.9242  -15.9117   22.5209 N   0  0  0  0  0  0  0  0  0  0  0  0
    8.4792  -14.6330   24.5166 C   0  0  0  0  0  0  0  0  0  0  0  0
    9.6088  -15.1347   24.8579 O   0  0  0  0  0  0  0  0  0  0  0  0
    7.8607  -13.8314   25.5011 N   0  0  0  0  0  0  0  0  0  0  0  0
    6.5683  -13.1502   25.3293 C   0  0  0  0  0  0  0  0  0  0  0  0
    6.8105  -11.8111   26.0156 C   0  0  0  0  0  0  0  0  0  0  0  0
    7.5608  -12.2669   27.2375 C   0  0  0  0  0  0  0  0  0  0  0  0
    8.3245  -13.4679   26.8063 C   0  0  1  0  0  0  0  0  0  0  0  0
    8.1147  -14.5381   27.8097 C   0  0  0  0  0  0  0  0  0  0  0  0
    8.6011  -14.4518   28.9482 O   0  0  0  0  0  0  0  0  0  0  0  0
    7.3671  -15.6440   27.4681 O   0  0  0  0  0  0  0  0  0  0  0  0
  2  1  1  6
  3  4  1  0
  3  2  1  0
  4  8  1  0
  4  5  2  0
  6  2  1  0
  7  6  2  0
 10  9  1  6
 10 12  1  0
 11 10  1  0
 12 14  1  0
 12 13  1  1
 13  6  1  0
 14 16  1  0
 15 14  2  0
 16 20  1  0
 16 17  1  0
 17 18  1  0
 19 18  1  0
 20 21  1  1
 20 19  1  0
 21 23  1  0
 22 21  2  0
M  END
$$$$
