DTP.pdb
     RDKit          3D

 23 23  0  0  1  0  0  0  0  0999 V2000
   11.9835  -16.8683   19.7276 N   0  0  0  0  0  0  0  0  0  0  0  0
   11.2712  -17.3534   20.9174 C   0  0  1  0  0  0  0  0  0  0  0  0
   12.3122  -17.9850   21.8075 C   0  0  0  0  0  0  0  0  0  0  0  0
   12.8881  -19.1391   21.0663 C   0  0  0  0  0  0  0  0  0  0  0  0
   12.2748  -20.1915   20.8202 O   0  0  0  0  0  0  0  0  0  0  0  0
   10.5788  -16.2211   21.5775 C   0  0  0  0  0  0  0  0  0  0  0  0
   11.2648  -15.1982   21.8374 O   0  0  0  0  0  0  0  0  0  0  0  0
   14.2048  -19.0050   20.6299 O   0  0  0  0  0  0  0  0  0  0  0  0
    7.3695  -14.4391   20.4815 C   0  0  0  0  0  0  0  0  0  0  0  0
    7.2350  -14.9864   21.8568 C   0  0  1  0  0  0  0  0  0  0  0  0
    6.7847  -16.3264   21.6980 O   0  0  0  0  0  0  0  0  0  0  0  0
    8.5648  -15.0977   22.6226 C   0  0  2  0  0  0  0  0  0  0  0  0
    9.2198  -16.2253   21.9242 N   0  0  0  0  0  0  0  0  0  0  0  0
    8.3792  -15.4308   24.0404 C   0  0  0  0  0  0  0  0  0  0  0  0
    8.8333  -16.5660   24.4265 O   0  0  0  0  0  0  0  0  0  0  0  0
    7.7644  -14.6593   25.0509 N   0  0  0  0  0  0  0  0  0  0  0  0
    7.2015  -13.3157   24.8466 C   0  0  0  0  0  0  0  0  0  0  0  0
    7.6087  -12.5926   26.1249 C   0  0  0  0  0  0  0  0  0  0  0  0
    7.3271  -13.6650   27.1420 C   0  0  0  0  0  0  0  0  0  0  0  0
    7.5871  -14.9509   26.4417 C   0  0  1  0  0  0  0  0  0  0  0  0
    6.4448  -15.8597   26.6975 C   0  0  0  0  0  0  0  0  0  0  0  0
    5.5879  -16.0712   25.8250 O   0  0  0  0  0  0  0  0  0  0  0  0
    6.3371  -16.4766   27.9247 O   0  0  0  0  0  0  0  0  0  0  0  0
  2  1  1  6
  3  4  1  0
  3  2  1  0
  4  8  1  0
  4  5  2  0
  6  2  1  0
  7  6  2  0
 10  9  1  6
 10 12  1  0
 11 10  1  0
 12 14  1  0
 12 13  1  6
 13  6  1  0
 14 16  1  0
 15 14  2  0
 16 20  1  0
 16 17  1  0
 17 18  1  0
 19 18  1  0
 20 21  1  6
 20 19  1  0
 21 23  1  0
 22 21  2  0
M  END
$$$$
