AMW.pdb
     RDKit          3D

 28 29  0  0  1  0  0  0  0  0999 V2000
    8.5048  -20.1463   21.4636 C   0  0  0  0  0  0  0  0  0  0  0  0
    8.4108  -19.0145   20.4568 C   0  0  2  0  0  0  0  0  0  0  0  0
    8.7381  -19.5895   19.1645 N   0  0  0  0  0  0  0  0  0  0  0  0
    9.3731  -17.9391   20.8130 C   0  0  0  0  0  0  0  0  0  0  0  0
   10.4752  -17.7919   20.1970 O   0  0  0  0  0  0  0  0  0  0  0  0
    6.3154  -12.2579   20.2664 C   0  0  0  0  0  0  0  0  0  0  0  0
    7.9828  -12.9479   19.9742 S   0  0  0  0  0  0  0  0  0  0  0  0
    8.2651  -14.2261   21.2296 C   0  0  0  0  0  0  0  0  0  0  0  0
    9.6302  -14.8082   21.1141 C   0  0  0  0  0  0  0  0  0  0  0  0
    9.9183  -15.8956   22.1149 C   0  0  2  0  0  0  0  0  0  0  0  0
    9.0648  -17.0422   21.8705 N   0  0  0  0  0  0  0  0  0  0  0  0
    9.8159  -15.4555   23.5050 C   0  0  0  0  0  0  0  0  0  0  0  0
   10.0634  -14.2924   23.9090 O   0  0  0  0  0  0  0  0  0  0  0  0
    9.4082  -16.3951   24.4881 N   0  0  0  0  0  0  0  0  0  0  0  0
   10.2059  -16.6137   25.7040 C   0  0  1  0  0  0  0  0  0  0  0  0
    9.5763  -15.8855   26.8744 C   0  0  0  0  0  0  0  0  0  0  0  0
    8.2486  -15.3971   26.4540 C   0  0  0  0  0  0  0  0  0  0  0  0
    7.1728  -16.1618   26.0005 C   0  0  0  0  0  0  0  0  0  0  0  0
    6.1431  -15.3566   25.7066 N   0  0  0  0  0  0  0  0  0  0  0  0
    6.4986  -14.0862   25.9493 C   0  0  0  0  0  0  0  0  0  0  0  0
    5.7908  -12.8882   25.8055 C   0  0  0  0  0  0  0  0  0  0  0  0
    6.4119  -11.7086   26.1344 C   0  0  0  0  0  0  0  0  0  0  0  0
    7.7101  -11.7395   26.5948 C   0  0  0  0  0  0  0  0  0  0  0  0
    8.4198  -12.9022   26.7423 C   0  0  0  0  0  0  0  0  0  0  0  0
    7.7952  -14.0894   26.4115 C   0  0  0  0  0  0  0  0  0  0  0  0
   10.1874  -18.0511   25.9888 C   0  0  0  0  0  0  0  0  0  0  0  0
    9.3966  -18.7977   25.3793 O   0  0  0  0  0  0  0  0  0  0  0  0
   11.0367  -18.5883   26.9254 O   0  0  0  0  0  0  0  0  0  0  0  0
  2  1  1  1
  3  2  1  0
  4 11  1  0
  4  2  1  0
  5  4  2  0
  6  7  1  0
  8  7  1  0
  9  8  1  0
 10  9  1  6
 10 11  1  0
 12 10  1  0
 12 14  1  0
 13 12  2  0
 15 14  1  0
 15 16  1  1
 16 17  1  0
 17 25  1  0
 18 19  1  0
 18 17  2  0
 19 20  1  0
 20 25  2  0
 20 21  1  0
 21 22  2  0
 22 23  1  0
 24 23  2  0
 25 24  1  0
 26 15  1  0
 27 26  2  0
 28 26  1  0
M  END
$$$$
