AMW.pdb
     RDKit          3D

 28 29  0  0  1  0  0  0  0  0999 V2000
    6.1711  -19.6200   19.7701 C   0  0  0  0  0  0  0  0  0  0  0  0
    7.4670  -19.4215   20.5347 C   0  0  2  0  0  0  0  0  0  0  0  0
    7.2024  -19.8351   21.9009 N   0  0  0  0  0  0  0  0  0  0  0  0
    7.8690  -17.9913   20.4866 C   0  0  0  0  0  0  0  0  0  0  0  0
    8.0115  -17.3696   19.3872 O   0  0  0  0  0  0  0  0  0  0  0  0
    8.4592  -11.3616   19.3527 C   0  0  0  0  0  0  0  0  0  0  0  0
    8.0802  -13.1482   19.2734 S   0  0  0  0  0  0  0  0  0  0  0  0
    7.4907  -13.6477   20.9144 C   0  0  0  0  0  0  0  0  0  0  0  0
    7.2766  -15.1188   20.9895 C   0  0  0  0  0  0  0  0  0  0  0  0
    8.3986  -15.8669   21.6591 C   0  0  2  0  0  0  0  0  0  0  0  0
    8.1038  -17.2861   21.6973 N   0  0  0  0  0  0  0  0  0  0  0  0
    8.7242  -15.3653   22.9929 C   0  0  0  0  0  0  0  0  0  0  0  0
    8.0247  -14.5493   23.6426 O   0  0  0  0  0  0  0  0  0  0  0  0
    9.9140  -15.8206   23.6196 N   0  0  0  0  0  0  0  0  0  0  0  0
   10.0738  -15.7552   25.0799 C   0  0  1  0  0  0  0  0  0  0  0  0
    8.9759  -16.5506   25.7571 C   0  0  0  0  0  0  0  0  0  0  0  0
    7.7873  -15.6846   25.8804 C   0  0  0  0  0  0  0  0  0  0  0  0
    6.4562  -16.0423   25.6615 C   0  0  0  0  0  0  0  0  0  0  0  0
    5.6672  -14.9788   25.8655 N   0  0  0  0  0  0  0  0  0  0  0  0
    6.4282  -13.9300   26.2117 C   0  0  0  0  0  0  0  0  0  0  0  0
    6.0890  -12.6094   26.5250 C   0  0  0  0  0  0  0  0  0  0  0  0
    7.0903  -11.7279   26.8498 C   0  0  0  0  0  0  0  0  0  0  0  0
    8.3958  -12.1684   26.8575 C   0  0  0  0  0  0  0  0  0  0  0  0
    8.7479  -13.4572   26.5537 C   0  0  0  0  0  0  0  0  0  0  0  0
    7.7406  -14.3446   26.2268 C   0  0  0  0  0  0  0  0  0  0  0  0
   11.3621  -16.3713   25.4088 C   0  0  0  0  0  0  0  0  0  0  0  0
   11.7831  -16.3485   26.5820 O   0  0  0  0  0  0  0  0  0  0  0  0
   12.1156  -16.9774   24.4330 O   0  0  0  0  0  0  0  0  0  0  0  0
  2  1  1  6
  3  2  1  0
  4 11  1  0
  4  2  1  0
  5  4  2  0
  6  7  1  0
  8  7  1  0
  9  8  1  0
 10  9  1  1
 10 11  1  0
 12 10  1  0
 12 14  1  0
 13 12  2  0
 15 14  1  0
 15 16  1  1
 16 17  1  0
 17 25  1  0
 18 19  1  0
 18 17  2  0
 19 20  1  0
 20 25  2  0
 20 21  1  0
 21 22  2  0
 22 23  1  0
 24 23  2  0
 25 24  1  0
 26 15  1  0
 27 26  2  0
 28 26  1  0
M  END
$$$$
