AMW.pdb
     RDKit          3D

 28 29  0  0  1  0  0  0  0  0999 V2000
    7.8767  -12.7630   19.3767 C   0  0  0  0  0  0  0  0  0  0  0  0
    8.4537  -14.1441   19.6279 C   0  0  2  0  0  0  0  0  0  0  0  0
    7.4170  -15.0924   19.2627 N   0  0  0  0  0  0  0  0  0  0  0  0
    8.8166  -14.2878   21.0621 C   0  0  0  0  0  0  0  0  0  0  0  0
    9.7825  -13.6433   21.5791 O   0  0  0  0  0  0  0  0  0  0  0  0
    5.9568  -12.2102   26.0993 C   0  0  0  0  0  0  0  0  0  0  0  0
    7.0599  -13.6465   25.8505 S   0  0  0  0  0  0  0  0  0  0  0  0
    6.4067  -14.5915   24.4470 C   0  0  0  0  0  0  0  0  0  0  0  0
    7.2864  -15.7447   24.1126 C   0  0  0  0  0  0  0  0  0  0  0  0
    8.4774  -15.3805   23.2665 C   0  0  2  0  0  0  0  0  0  0  0  0
    8.0703  -15.1675   21.8912 N   0  0  0  0  0  0  0  0  0  0  0  0
    9.5697  -16.3487   23.3436 C   0  0  0  0  0  0  0  0  0  0  0  0
   10.0017  -17.0211   22.3748 O   0  0  0  0  0  0  0  0  0  0  0  0
   10.2041  -16.5609   24.5958 N   0  0  0  0  0  0  0  0  0  0  0  0
   11.4793  -17.2875   24.6857 C   0  0  1  0  0  0  0  0  0  0  0  0
   12.4501  -16.5234   25.5633 C   0  0  0  0  0  0  0  0  0  0  0  0
   11.8340  -16.3527   26.8935 C   0  0  0  0  0  0  0  0  0  0  0  0
   11.8645  -17.2531   27.9594 C   0  0  0  0  0  0  0  0  0  0  0  0
   11.1841  -16.7442   28.9953 N   0  0  0  0  0  0  0  0  0  0  0  0
   10.7042  -15.5392   28.6534 C   0  0  0  0  0  0  0  0  0  0  0  0
    9.9386  -14.6149   29.3721 C   0  0  0  0  0  0  0  0  0  0  0  0
    9.5801  -13.4371   28.7642 C   0  0  0  0  0  0  0  0  0  0  0  0
    9.9835  -13.2010   27.4681 C   0  0  0  0  0  0  0  0  0  0  0  0
   10.7333  -14.0934   26.7480 C   0  0  0  0  0  0  0  0  0  0  0  0
   11.0944  -15.2787   27.3593 C   0  0  0  0  0  0  0  0  0  0  0  0
   11.2042  -18.5812   25.3169 C   0  0  0  0  0  0  0  0  0  0  0  0
   10.0971  -18.7924   25.8497 O   0  0  0  0  0  0  0  0  0  0  0  0
   12.1582  -19.5696   25.3280 O   0  0  0  0  0  0  0  0  0  0  0  0
  2  1  1  1
  3  2  1  0
  4 11  1  0
  4  2  1  0
  5  4  2  0
  6  7  1  0
  8  7  1  0
  9  8  1  0
 10  9  1  1
 10 11  1  0
 12 10  1  0
 12 14  1  0
 13 12  2  0
 15 14  1  0
 15 16  1  1
 16 17  1  0
 17 25  1  0
 18 19  1  0
 18 17  2  0
 19 20  1  0
 20 25  2  0
 20 21  1  0
 21 22  2  0
 22 23  1  0
 24 23  2  0
 25 24  1  0
 26 15  1  0
 27 26  2  0
 28 26  1  0
M  END
$$$$
