AMW.pdb
     RDKit          3D

 28 29  0  0  1  0  0  0  0  0999 V2000
   12.5742  -19.3720   19.9731 C   0  0  0  0  0  0  0  0  0  0  0  0
   11.7103  -18.2461   19.4350 C   0  0  2  0  0  0  0  0  0  0  0  0
   12.5050  -17.5676   18.4272 N   0  0  0  0  0  0  0  0  0  0  0  0
   11.3497  -17.3145   20.5356 C   0  0  0  0  0  0  0  0  0  0  0  0
   12.2272  -16.6374   21.1580 O   0  0  0  0  0  0  0  0  0  0  0  0
    7.1324  -12.2354   20.7492 C   0  0  0  0  0  0  0  0  0  0  0  0
    6.6257  -13.9448   20.3452 S   0  0  0  0  0  0  0  0  0  0  0  0
    8.1172  -14.9756   20.3957 C   0  0  0  0  0  0  0  0  0  0  0  0
    8.2554  -15.6665   21.7068 C   0  0  0  0  0  0  0  0  0  0  0  0
    9.6287  -16.2295   21.9600 C   0  0  2  0  0  0  0  0  0  0  0  0
    9.9883  -17.1664   20.9134 N   0  0  0  0  0  0  0  0  0  0  0  0
    9.7786  -16.8387   23.2802 C   0  0  0  0  0  0  0  0  0  0  0  0
    9.8843  -18.0719   23.4931 O   0  0  0  0  0  0  0  0  0  0  0  0
    9.8098  -15.9933   24.4204 N   0  0  0  0  0  0  0  0  0  0  0  0
    9.9891  -16.5482   25.7703 C   0  0  1  0  0  0  0  0  0  0  0  0
    9.6580  -15.4971   26.8105 C   0  0  0  0  0  0  0  0  0  0  0  0
    8.3187  -14.9553   26.5092 C   0  0  0  0  0  0  0  0  0  0  0  0
    7.1710  -15.6773   26.1786 C   0  0  0  0  0  0  0  0  0  0  0  0
    6.1544  -14.8306   25.9673 N   0  0  0  0  0  0  0  0  0  0  0  0
    6.5878  -13.5739   26.1464 C   0  0  0  0  0  0  0  0  0  0  0  0
    5.9232  -12.3472   26.0449 C   0  0  0  0  0  0  0  0  0  0  0  0
    6.6250  -11.1920   26.2860 C   0  0  0  0  0  0  0  0  0  0  0  0
    7.9592  -11.2747   26.6198 C   0  0  0  0  0  0  0  0  0  0  0  0
    8.6276  -12.4662   26.7241 C   0  0  0  0  0  0  0  0  0  0  0  0
    7.9217  -13.6289   26.4815 C   0  0  0  0  0  0  0  0  0  0  0  0
    9.0448  -17.6591   25.9176 C   0  0  0  0  0  0  0  0  0  0  0  0
    8.0923  -17.7777   25.1221 O   0  0  0  0  0  0  0  0  0  0  0  0
    9.1983  -18.5767   26.9283 O   0  0  0  0  0  0  0  0  0  0  0  0
  2  1  1  1
  3  2  1  0
  4 11  1  0
  4  2  1  0
  5  4  2  0
  6  7  1  0
  8  7  1  0
  9  8  1  0
 10  9  1  6
 10 11  1  0
 12 10  1  0
 12 14  1  0
 13 12  2  0
 15 14  1  0
 15 16  1  1
 16 17  1  0
 17 25  1  0
 18 19  1  0
 18 17  2  0
 19 20  1  0
 20 25  2  0
 20 21  1  0
 21 22  2  0
 22 23  1  0
 24 23  2  0
 25 24  1  0
 26 15  1  0
 27 26  2  0
 28 26  1  0
M  END
$$$$
