AMW.pdb
     RDKit          3D

 28 29  0  0  1  0  0  0  0  0999 V2000
    8.3889  -12.0496   18.9510 C   0  0  0  0  0  0  0  0  0  0  0  0
    8.4226  -13.5243   18.5936 C   0  0  2  0  0  0  0  0  0  0  0  0
    7.5566  -13.6847   17.4396 N   0  0  0  0  0  0  0  0  0  0  0  0
    7.9289  -14.3338   19.7383 C   0  0  0  0  0  0  0  0  0  0  0  0
    6.7005  -14.6329   19.8700 O   0  0  0  0  0  0  0  0  0  0  0  0
    6.3588  -19.9199   23.2916 C   0  0  0  0  0  0  0  0  0  0  0  0
    6.4872  -18.3652   22.3386 S   0  0  0  0  0  0  0  0  0  0  0  0
    8.0640  -18.4098   21.4435 C   0  0  0  0  0  0  0  0  0  0  0  0
    8.2889  -17.1538   20.6771 C   0  0  0  0  0  0  0  0  0  0  0  0
    8.5077  -15.9406   21.5415 C   0  0  2  0  0  0  0  0  0  0  0  0
    8.8457  -14.7936   20.7212 N   0  0  0  0  0  0  0  0  0  0  0  0
    9.5026  -16.1415   22.5933 C   0  0  0  0  0  0  0  0  0  0  0  0
   10.6541  -16.6085   22.4114 O   0  0  0  0  0  0  0  0  0  0  0  0
    9.1643  -15.7895   23.9265 N   0  0  0  0  0  0  0  0  0  0  0  0
   10.1178  -15.9889   25.0280 C   0  0  1  0  0  0  0  0  0  0  0  0
    9.8084  -15.0308   26.1606 C   0  0  0  0  0  0  0  0  0  0  0  0
    8.3580  -14.7585   26.1518 C   0  0  0  0  0  0  0  0  0  0  0  0
    7.3248  -15.6912   26.0493 C   0  0  0  0  0  0  0  0  0  0  0  0
    6.1450  -15.0567   26.0685 N   0  0  0  0  0  0  0  0  0  0  0  0
    6.3600  -13.7374   26.1801 C   0  0  0  0  0  0  0  0  0  0  0  0
    5.4686  -12.6609   26.2421 C   0  0  0  0  0  0  0  0  0  0  0  0
    5.9734  -11.3893   26.3573 C   0  0  0  0  0  0  0  0  0  0  0  0
    7.3387  -11.2112   26.4083 C   0  0  0  0  0  0  0  0  0  0  0  0
    8.2274  -12.2523   26.3490 C   0  0  0  0  0  0  0  0  0  0  0  0
    7.7200  -13.5322   26.2331 C   0  0  0  0  0  0  0  0  0  0  0  0
    9.9417  -17.3584   25.5188 C   0  0  0  0  0  0  0  0  0  0  0  0
    8.9391  -18.0181   25.1811 O   0  0  0  0  0  0  0  0  0  0  0  0
   10.8744  -17.9270   26.3518 O   0  0  0  0  0  0  0  0  0  0  0  0
  2  1  1  1
  3  2  1  0
  4 11  1  0
  4  2  1  0
  5  4  2  0
  6  7  1  0
  8  7  1  0
  9  8  1  0
 10  9  1  6
 10 11  1  0
 12 10  1  0
 12 14  1  0
 13 12  2  0
 15 14  1  0
 15 16  1  1
 16 17  1  0
 17 25  1  0
 18 19  1  0
 18 17  2  0
 19 20  1  0
 20 25  2  0
 20 21  1  0
 21 22  2  0
 22 23  1  0
 24 23  2  0
 25 24  1  0
 26 15  1  0
 27 26  2  0
 28 26  1  0
M  END
$$$$
