SHC.pdb
     RDKit          3D

 23 23  0  0  1  0  0  0  0  0999 V2000
    4.8598  -19.6209   22.0351 O   0  0  0  0  0  0  0  0  0  0  0  0
    5.1810  -18.2857   22.0168 C   0  0  0  0  0  0  0  0  0  0  0  0
    5.8675  -17.8653   20.7407 C   0  0  2  0  0  0  0  0  0  0  0  0
    6.1740  -19.0010   19.8983 N   0  0  0  0  0  0  0  0  0  0  0  0
    7.1057  -17.1086   20.9799 C   0  0  0  0  0  0  0  0  0  0  0  0
    8.2609  -17.6411   20.8508 O   0  0  0  0  0  0  0  0  0  0  0  0
    7.0247  -15.7433   21.3668 N   0  0  0  0  0  0  0  0  0  0  0  0
    8.2200  -14.9427   21.6567 C   0  0  1  0  0  0  0  0  0  0  0  0
    8.0469  -13.6049   20.9389 C   0  0  0  0  0  0  0  0  0  0  0  0
    8.1712  -13.7385   19.4778 C   0  0  0  0  0  0  0  0  0  0  0  0
    7.3891  -13.0028   18.5866 C   0  0  0  0  0  0  0  0  0  0  0  0
    7.7364  -13.3466   17.3396 N   0  0  0  0  0  0  0  0  0  0  0  0
    8.7183  -14.2812   17.4014 C   0  0  0  0  0  0  0  0  0  0  0  0
    8.9580  -14.4959   18.7148 N   0  0  0  0  0  0  0  0  0  0  0  0
    8.3273  -14.6466   23.0980 C   0  0  0  0  0  0  0  0  0  0  0  0
    7.9705  -13.5279   23.5164 O   0  0  0  0  0  0  0  0  0  0  0  0
    8.8236  -15.5977   24.0142 N   0  0  0  0  0  0  0  0  0  0  0  0
    8.6946  -15.3446   25.4204 C   0  0  1  0  0  0  0  0  0  0  0  0
    7.2682  -15.2141   25.8825 C   0  0  0  0  0  0  0  0  0  0  0  0
    6.8298  -13.4386   25.7599 S   0  0  0  0  0  0  0  0  0  0  0  0
    9.2967  -16.4933   26.1609 C   0  0  0  0  0  0  0  0  0  0  0  0
    9.4663  -16.3484   27.5495 O   0  0  0  0  0  0  0  0  0  0  0  0
    9.6406  -17.5498   25.5755 O   0  0  0  0  0  0  0  0  0  0  0  0
  2  1  1  0
  3  2  1  0
  3  5  1  0
  3  4  1  6
  5  6  2  0
  7  8  1  0
  7  5  1  0
  8 15  1  0
  8  9  1  6
 10  9  1  0
 10 11  2  0
 12 11  1  0
 13 12  1  0
 14 13  2  0
 14 10  1  0
 15 17  1  0
 15 16  2  0
 17 18  1  0
 18 21  1  0
 18 19  1  1
 20 19  1  0
 21 23  2  0
 21 22  1  0
M  END
$$$$
