SHC.pdb
     RDKit          3D

 23 23  0  0  1  0  0  0  0  0999 V2000
   10.5097  -12.7950   20.4080 O   0  0  0  0  0  0  0  0  0  0  0  0
   10.2779  -13.9166   19.6500 C   0  0  0  0  0  0  0  0  0  0  0  0
    8.8188  -14.1077   19.3167 C   0  0  2  0  0  0  0  0  0  0  0  0
    8.2431  -12.9170   18.7303 N   0  0  0  0  0  0  0  0  0  0  0  0
    8.0118  -14.4956   20.4835 C   0  0  0  0  0  0  0  0  0  0  0  0
    6.9982  -13.8148   20.8628 O   0  0  0  0  0  0  0  0  0  0  0  0
    8.3624  -15.6613   21.2173 N   0  0  0  0  0  0  0  0  0  0  0  0
    7.6825  -16.0318   22.4641 C   0  0  1  0  0  0  0  0  0  0  0  0
    8.0873  -17.4701   22.7836 C   0  0  0  0  0  0  0  0  0  0  0  0
    7.3361  -18.4498   21.9809 C   0  0  0  0  0  0  0  0  0  0  0  0
    6.3689  -18.0734   21.0481 C   0  0  0  0  0  0  0  0  0  0  0  0
    5.8709  -19.1833   20.4877 N   0  0  0  0  0  0  0  0  0  0  0  0
    6.4883  -20.2623   21.0317 C   0  0  0  0  0  0  0  0  0  0  0  0
    7.3720  -19.7807   21.9348 N   0  0  0  0  0  0  0  0  0  0  0  0
    8.1404  -15.1960   23.5903 C   0  0  0  0  0  0  0  0  0  0  0  0
    9.3287  -14.8212   23.6247 O   0  0  0  0  0  0  0  0  0  0  0  0
    7.2669  -14.8105   24.6290 N   0  0  0  0  0  0  0  0  0  0  0  0
    7.7281  -13.8793   25.6181 C   0  0  1  0  0  0  0  0  0  0  0  0
    6.6452  -12.9823   26.1549 C   0  0  0  0  0  0  0  0  0  0  0  0
    7.4278  -11.8931   27.4043 S   0  0  0  0  0  0  0  0  0  0  0  0
    8.2744  -14.6535   26.7725 C   0  0  0  0  0  0  0  0  0  0  0  0
    9.0327  -13.9465   27.7228 O   0  0  0  0  0  0  0  0  0  0  0  0
    8.0699  -15.8863   26.8978 O   0  0  0  0  0  0  0  0  0  0  0  0
  2  1  1  0
  3  2  1  0
  3  5  1  0
  3  4  1  1
  5  6  2  0
  7  8  1  0
  7  5  1  0
  8 15  1  0
  8  9  1  1
 10  9  1  0
 10 11  2  0
 12 11  1  0
 13 12  1  0
 14 13  2  0
 14 10  1  0
 15 17  1  0
 15 16  2  0
 17 18  1  0
 18 21  1  0
 18 19  1  1
 20 19  1  0
 21 23  2  0
 21 22  1  0
M  END
$$$$
