SHC.pdb
     RDKit          3D

 23 23  0  0  1  0  0  0  0  0999 V2000
    9.5475  -20.7224   20.3085 O   0  0  0  0  0  0  0  0  0  0  0  0
    8.4591  -20.2052   19.6496 C   0  0  0  0  0  0  0  0  0  0  0  0
    8.8279  -19.1134   18.6756 C   0  0  2  0  0  0  0  0  0  0  0  0
    9.7055  -19.5996   17.6332 N   0  0  0  0  0  0  0  0  0  0  0  0
    9.4640  -17.9578   19.3260 C   0  0  0  0  0  0  0  0  0  0  0  0
   10.7222  -17.7440   19.2476 O   0  0  0  0  0  0  0  0  0  0  0  0
    8.6633  -17.0461   20.0662 N   0  0  0  0  0  0  0  0  0  0  0  0
    9.2333  -15.8664   20.7274 C   0  0  1  0  0  0  0  0  0  0  0  0
    8.1211  -14.8224   20.8158 C   0  0  0  0  0  0  0  0  0  0  0  0
    7.8602  -14.1778   19.5178 C   0  0  0  0  0  0  0  0  0  0  0  0
    8.5693  -14.5034   18.3610 C   0  0  0  0  0  0  0  0  0  0  0  0
    8.1025  -13.7511   17.3559 N   0  0  0  0  0  0  0  0  0  0  0  0
    7.1145  -12.9515   17.8311 C   0  0  0  0  0  0  0  0  0  0  0  0
    6.9933  -13.2365   19.1473 N   0  0  0  0  0  0  0  0  0  0  0  0
    9.6435  -16.1759   22.1103 C   0  0  0  0  0  0  0  0  0  0  0  0
    8.7677  -16.4169   22.9640 O   0  0  0  0  0  0  0  0  0  0  0  0
   11.0017  -16.2057   22.4905 N   0  0  0  0  0  0  0  0  0  0  0  0
   11.3473  -16.6572   23.8077 C   0  0  1  0  0  0  0  0  0  0  0  0
   10.8916  -18.0607   24.1043 C   0  0  0  0  0  0  0  0  0  0  0  0
   11.3886  -18.4275   25.8301 S   0  0  0  0  0  0  0  0  0  0  0  0
   12.8352  -16.6386   23.9346 C   0  0  0  0  0  0  0  0  0  0  0  0
   13.3764  -16.8513   25.2151 O   0  0  0  0  0  0  0  0  0  0  0  0
   13.5808  -16.4418   22.9434 O   0  0  0  0  0  0  0  0  0  0  0  0
  2  1  1  0
  3  2  1  0
  3  5  1  0
  3  4  1  6
  5  6  2  0
  7  8  1  0
  7  5  1  0
  8 15  1  0
  8  9  1  1
 10  9  1  0
 10 11  2  0
 12 11  1  0
 13 12  1  0
 14 13  2  0
 14 10  1  0
 15 17  1  0
 15 16  2  0
 17 18  1  0
 18 21  1  0
 18 19  1  6
 20 19  1  0
 21 23  2  0
 21 22  1  0
M  END
$$$$
