SHC.pdb
     RDKit          3D

 23 23  0  0  1  0  0  0  0  0999 V2000
    8.4663  -13.6543   14.2742 O   0  0  0  0  0  0  0  0  0  0  0  0
    8.2801  -14.3398   15.4496 C   0  0  0  0  0  0  0  0  0  0  0  0
    8.4243  -15.8329   15.2865 C   0  0  2  0  0  0  0  0  0  0  0  0
    7.4044  -16.3775   14.4167 N   0  0  0  0  0  0  0  0  0  0  0  0
    8.3853  -16.5545   16.5675 C   0  0  0  0  0  0  0  0  0  0  0  0
    7.2913  -16.9866   17.0686 O   0  0  0  0  0  0  0  0  0  0  0  0
    9.5960  -16.7826   17.2762 N   0  0  0  0  0  0  0  0  0  0  0  0
    9.6583  -17.6597   18.4513 C   0  0  1  0  0  0  0  0  0  0  0  0
   10.6139  -18.8012   18.1070 C   0  0  0  0  0  0  0  0  0  0  0  0
    9.9309  -19.9081   17.4167 C   0  0  0  0  0  0  0  0  0  0  0  0
    8.5571  -19.9076   17.1720 C   0  0  0  0  0  0  0  0  0  0  0  0
    8.2433  -21.0422   16.5334 N   0  0  0  0  0  0  0  0  0  0  0  0
    9.3736  -21.7728   16.3597 C   0  0  0  0  0  0  0  0  0  0  0  0
   10.3796  -21.0546   16.9079 N   0  0  0  0  0  0  0  0  0  0  0  0
   10.2316  -16.9548   19.6136 C   0  0  0  0  0  0  0  0  0  0  0  0
   11.1307  -16.1112   19.4294 O   0  0  0  0  0  0  0  0  0  0  0  0
    9.7877  -17.2115   20.9279 N   0  0  0  0  0  0  0  0  0  0  0  0
   10.3828  -16.4928   22.0176 C   0  0  1  0  0  0  0  0  0  0  0  0
    9.4676  -16.3224   23.2004 C   0  0  0  0  0  0  0  0  0  0  0  0
   10.4341  -15.4662   24.5013 S   0  0  0  0  0  0  0  0  0  0  0  0
   11.5762  -17.2577   22.4878 C   0  0  0  0  0  0  0  0  0  0  0  0
   12.5344  -16.5584   23.2433 O   0  0  0  0  0  0  0  0  0  0  0  0
   11.7264  -18.4763   22.2241 O   0  0  0  0  0  0  0  0  0  0  0  0
  2  1  1  0
  3  2  1  0
  3  5  1  0
  3  4  1  6
  5  6  2  0
  7  8  1  0
  7  5  1  0
  8 15  1  0
  8  9  1  6
 10  9  1  0
 10 11  2  0
 12 11  1  0
 13 12  1  0
 14 13  2  0
 14 10  1  0
 15 17  1  0
 15 16  2  0
 17 18  1  0
 18 21  1  0
 18 19  1  1
 20 19  1  0
 21 23  2  0
 21 22  1  0
M  END
$$$$
