SHC.pdb
     RDKit          3D

 23 23  0  0  1  0  0  0  0  0999 V2000
    7.7119  -14.6154   16.9344 O   0  0  0  0  0  0  0  0  0  0  0  0
    7.3692  -13.4279   17.5336 C   0  0  0  0  0  0  0  0  0  0  0  0
    8.2997  -13.0495   18.6594 C   0  0  2  0  0  0  0  0  0  0  0  0
    9.6758  -12.9831   18.2175 N   0  0  0  0  0  0  0  0  0  0  0  0
    8.2164  -13.9695   19.8039 C   0  0  0  0  0  0  0  0  0  0  0  0
    7.1072  -14.2308   20.3837 O   0  0  0  0  0  0  0  0  0  0  0  0
    9.4000  -14.5911   20.2864 N   0  0  0  0  0  0  0  0  0  0  0  0
    9.3717  -15.6036   21.3485 C   0  0  1  0  0  0  0  0  0  0  0  0
   10.7051  -16.3477   21.2923 C   0  0  0  0  0  0  0  0  0  0  0  0
   10.7689  -17.4474   22.2695 C   0  0  0  0  0  0  0  0  0  0  0  0
    9.6312  -17.9789   22.8781 C   0  0  0  0  0  0  0  0  0  0  0  0
   10.0165  -18.9566   23.7085 N   0  0  0  0  0  0  0  0  0  0  0  0
   11.3676  -19.0702   23.6527 C   0  0  0  0  0  0  0  0  0  0  0  0
   11.7922  -18.1388   22.7691 N   0  0  0  0  0  0  0  0  0  0  0  0
    9.2850  -14.9767   22.6811 C   0  0  0  0  0  0  0  0  0  0  0  0
    9.7085  -13.8143   22.8342 O   0  0  0  0  0  0  0  0  0  0  0  0
    8.7350  -15.6598   23.7862 N   0  0  0  0  0  0  0  0  0  0  0  0
    8.2196  -14.9006   24.8890 C   0  0  1  0  0  0  0  0  0  0  0  0
    7.1698  -13.8972   24.4936 C   0  0  0  0  0  0  0  0  0  0  0  0
    6.5782  -13.1097   26.0395 S   0  0  0  0  0  0  0  0  0  0  0  0
    7.5858  -15.8474   25.8546 C   0  0  0  0  0  0  0  0  0  0  0  0
    7.2457  -17.1255   25.3764 O   0  0  0  0  0  0  0  0  0  0  0  0
    7.3619  -15.5239   27.0473 O   0  0  0  0  0  0  0  0  0  0  0  0
  2  1  1  0
  3  2  1  0
  3  5  1  0
  3  4  1  6
  5  6  2  0
  7  8  1  0
  7  5  1  0
  8 15  1  0
  8  9  1  1
 10  9  1  0
 10 11  2  0
 12 11  1  0
 13 12  1  0
 14 13  2  0
 14 10  1  0
 15 17  1  0
 15 16  2  0
 17 18  1  0
 18 21  1  0
 18 19  1  6
 20 19  1  0
 21 23  2  0
 21 22  1  0
M  END
$$$$
