SHC.pdb
     RDKit          3D

 23 23  0  0  1  0  0  0  0  0999 V2000
   10.4982  -12.8483   20.4314 O   0  0  0  0  0  0  0  0  0  0  0  0
   10.3371  -13.7292   19.3900 C   0  0  0  0  0  0  0  0  0  0  0  0
    8.8877  -14.0151   19.0830 C   0  0  2  0  0  0  0  0  0  0  0  0
    8.2270  -12.8671   18.5010 N   0  0  0  0  0  0  0  0  0  0  0  0
    8.1271  -14.4471   20.2654 C   0  0  0  0  0  0  0  0  0  0  0  0
    7.2818  -13.6820   20.8439 O   0  0  0  0  0  0  0  0  0  0  0  0
    8.3320  -15.7532   20.7873 N   0  0  0  0  0  0  0  0  0  0  0  0
    7.6637  -16.2188   22.0082 C   0  0  1  0  0  0  0  0  0  0  0  0
    7.9571  -17.7129   22.1363 C   0  0  0  0  0  0  0  0  0  0  0  0
    7.3284  -18.3018   23.3305 C   0  0  0  0  0  0  0  0  0  0  0  0
    6.0779  -17.8965   23.7987 C   0  0  0  0  0  0  0  0  0  0  0  0
    5.7851  -18.6141   24.8910 N   0  0  0  0  0  0  0  0  0  0  0  0
    6.8093  -19.4688   25.1399 C   0  0  0  0  0  0  0  0  0  0  0  0
    7.7296  -19.2526   24.1730 N   0  0  0  0  0  0  0  0  0  0  0  0
    8.2254  -15.5661   23.2061 C   0  0  0  0  0  0  0  0  0  0  0  0
    9.4374  -15.2754   23.2274 O   0  0  0  0  0  0  0  0  0  0  0  0
    7.4252  -15.2628   24.3277 N   0  0  0  0  0  0  0  0  0  0  0  0
    8.0309  -14.6363   25.4673 C   0  0  1  0  0  0  0  0  0  0  0  0
    7.0644  -13.8433   26.3056 C   0  0  0  0  0  0  0  0  0  0  0  0
    6.2205  -12.6705   25.1777 S   0  0  0  0  0  0  0  0  0  0  0  0
    8.6022  -15.7042   26.3412 C   0  0  0  0  0  0  0  0  0  0  0  0
    8.4757  -17.0341   25.9015 O   0  0  0  0  0  0  0  0  0  0  0  0
    9.1741  -15.4348   27.4263 O   0  0  0  0  0  0  0  0  0  0  0  0
  2  1  1  0
  3  2  1  0
  3  5  1  0
  3  4  1  1
  5  6  2  0
  7  8  1  0
  7  5  1  0
  8 15  1  0
  8  9  1  1
 10  9  1  0
 10 11  2  0
 12 11  1  0
 13 12  1  0
 14 13  2  0
 14 10  1  0
 15 17  1  0
 15 16  2  0
 17 18  1  0
 18 21  1  0
 18 19  1  1
 20 19  1  0
 21 23  2  0
 21 22  1  0
M  END
$$$$
