SHC.pdb
     RDKit          3D

 23 23  0  0  1  0  0  0  0  0999 V2000
    9.4402  -12.5971   20.1512 O   0  0  0  0  0  0  0  0  0  0  0  0
    9.4330  -13.9451   19.8880 C   0  0  0  0  0  0  0  0  0  0  0  0
    8.0525  -14.5494   19.9618 C   0  0  2  0  0  0  0  0  0  0  0  0
    7.0975  -13.8009   19.1737 N   0  0  0  0  0  0  0  0  0  0  0  0
    7.5471  -14.6547   21.3389 C   0  0  0  0  0  0  0  0  0  0  0  0
    6.5504  -13.9670   21.7493 O   0  0  0  0  0  0  0  0  0  0  0  0
    8.1800  -15.5456   22.2477 N   0  0  0  0  0  0  0  0  0  0  0  0
    7.5986  -15.8683   23.5560 C   0  0  1  0  0  0  0  0  0  0  0  0
    7.9086  -17.3387   23.8325 C   0  0  0  0  0  0  0  0  0  0  0  0
    7.0718  -18.2438   23.0270 C   0  0  0  0  0  0  0  0  0  0  0  0
    5.7112  -18.4292   23.2750 C   0  0  0  0  0  0  0  0  0  0  0  0
    5.2361  -19.3046   22.3796 N   0  0  0  0  0  0  0  0  0  0  0  0
    6.2498  -19.6881   21.5631 C   0  0  0  0  0  0  0  0  0  0  0  0
    7.3502  -19.0248   21.9843 N   0  0  0  0  0  0  0  0  0  0  0  0
    8.2362  -15.0848   24.6312 C   0  0  0  0  0  0  0  0  0  0  0  0
    9.4635  -14.8725   24.5820 O   0  0  0  0  0  0  0  0  0  0  0  0
    7.4916  -14.5701   25.7134 N   0  0  0  0  0  0  0  0  0  0  0  0
    8.1714  -13.8327   26.7392 C   0  0  1  0  0  0  0  0  0  0  0  0
    7.2598  -12.9635   27.5633 C   0  0  0  0  0  0  0  0  0  0  0  0
    6.2273  -12.0102   26.3866 S   0  0  0  0  0  0  0  0  0  0  0  0
    8.8142  -14.8078   27.6700 C   0  0  0  0  0  0  0  0  0  0  0  0
    9.5745  -14.2828   28.7303 O   0  0  0  0  0  0  0  0  0  0  0  0
    8.6865  -16.0480   27.5197 O   0  0  0  0  0  0  0  0  0  0  0  0
  2  1  1  0
  3  2  1  0
  3  5  1  0
  3  4  1  6
  5  6  2  0
  7  8  1  0
  7  5  1  0
  8 15  1  0
  8  9  1  1
 10  9  1  0
 10 11  2  0
 12 11  1  0
 13 12  1  0
 14 13  2  0
 14 10  1  0
 15 17  1  0
 15 16  2  0
 17 18  1  0
 18 21  1  0
 18 19  1  1
 20 19  1  0
 21 23  2  0
 21 22  1  0
M  END
$$$$
