SHC.pdb
     RDKit          3D

 23 23  0  0  1  0  0  0  0  0999 V2000
    7.0622  -14.2274   20.3844 O   0  0  0  0  0  0  0  0  0  0  0  0
    6.6737  -15.3443   19.6859 C   0  0  0  0  0  0  0  0  0  0  0  0
    7.7797  -16.3606   19.5433 C   0  0  2  0  0  0  0  0  0  0  0  0
    7.3396  -17.5328   18.8184 N   0  0  0  0  0  0  0  0  0  0  0  0
    8.3346  -16.7873   20.8368 C   0  0  0  0  0  0  0  0  0  0  0  0
    7.7651  -17.6760   21.5582 O   0  0  0  0  0  0  0  0  0  0  0  0
    9.5401  -16.1989   21.3065 N   0  0  0  0  0  0  0  0  0  0  0  0
   10.1137  -16.5348   22.6149 C   0  0  1  0  0  0  0  0  0  0  0  0
   11.6192  -16.7014   22.4137 C   0  0  0  0  0  0  0  0  0  0  0  0
   11.9888  -18.0954   22.1164 C   0  0  0  0  0  0  0  0  0  0  0  0
   11.2749  -18.8863   21.2153 C   0  0  0  0  0  0  0  0  0  0  0  0
   11.8544  -20.0927   21.1640 N   0  0  0  0  0  0  0  0  0  0  0  0
   12.9195  -20.1019   22.0047 C   0  0  0  0  0  0  0  0  0  0  0  0
   12.9721  -18.8732   22.5667 N   0  0  0  0  0  0  0  0  0  0  0  0
    9.9280  -15.4326   23.5779 C   0  0  0  0  0  0  0  0  0  0  0  0
    9.9802  -14.2554   23.1710 O   0  0  0  0  0  0  0  0  0  0  0  0
    9.6929  -15.6776   24.9472 N   0  0  0  0  0  0  0  0  0  0  0  0
    9.4748  -14.5656   25.8270 C   0  0  1  0  0  0  0  0  0  0  0  0
    8.1178  -13.9323   25.6754 C   0  0  0  0  0  0  0  0  0  0  0  0
    8.0284  -12.5681   26.8963 S   0  0  0  0  0  0  0  0  0  0  0  0
    9.5810  -15.0534   27.2345 C   0  0  0  0  0  0  0  0  0  0  0  0
    9.7594  -16.4351   27.4270 O   0  0  0  0  0  0  0  0  0  0  0  0
    9.5147  -14.2688   28.2129 O   0  0  0  0  0  0  0  0  0  0  0  0
  2  1  1  0
  3  2  1  0
  3  5  1  0
  3  4  1  1
  5  6  2  0
  7  8  1  0
  7  5  1  0
  8 15  1  0
  8  9  1  6
 10  9  1  0
 10 11  2  0
 12 11  1  0
 13 12  1  0
 14 13  2  0
 14 10  1  0
 15 17  1  0
 15 16  2  0
 17 18  1  0
 18 21  1  0
 18 19  1  1
 20 19  1  0
 21 23  2  0
 21 22  1  0
M  END
$$$$
