SHC.pdb
     RDKit          3D

 23 23  0  0  1  0  0  0  0  0999 V2000
    9.3396  -12.3858   18.8622 O   0  0  0  0  0  0  0  0  0  0  0  0
    8.6052  -12.8153   17.7840 C   0  0  0  0  0  0  0  0  0  0  0  0
    8.6644  -14.3108   17.5928 C   0  0  2  0  0  0  0  0  0  0  0  0
    7.8823  -14.7363   16.4524 N   0  0  0  0  0  0  0  0  0  0  0  0
    8.2141  -15.0571   18.7775 C   0  0  0  0  0  0  0  0  0  0  0  0
    6.9746  -15.2424   19.0308 O   0  0  0  0  0  0  0  0  0  0  0  0
    9.1795  -15.5918   19.6732 N   0  0  0  0  0  0  0  0  0  0  0  0
    8.8017  -16.4268   20.8194 C   0  0  1  0  0  0  0  0  0  0  0  0
    9.6018  -17.7240   20.7104 C   0  0  0  0  0  0  0  0  0  0  0  0
    9.0005  -18.6687   19.7543 C   0  0  0  0  0  0  0  0  0  0  0  0
    7.6204  -18.8185   19.6129 C   0  0  0  0  0  0  0  0  0  0  0  0
    7.3921  -19.7447   18.6727 N   0  0  0  0  0  0  0  0  0  0  0  0
    8.5835  -20.1954   18.2049 C   0  0  0  0  0  0  0  0  0  0  0  0
    9.5391  -19.5209   18.8834 N   0  0  0  0  0  0  0  0  0  0  0  0
    9.1863  -15.7901   22.0934 C   0  0  0  0  0  0  0  0  0  0  0  0
   10.3413  -15.3393   22.2227 O   0  0  0  0  0  0  0  0  0  0  0  0
    8.2798  -15.6788   23.1687 N   0  0  0  0  0  0  0  0  0  0  0  0
    8.7241  -15.0841   24.3964 C   0  0  1  0  0  0  0  0  0  0  0  0
    7.6005  -14.6305   25.2893 C   0  0  0  0  0  0  0  0  0  0  0  0
    6.6838  -13.3342   24.3733 S   0  0  0  0  0  0  0  0  0  0  0  0
    9.5082  -16.1040   25.1548 C   0  0  0  0  0  0  0  0  0  0  0  0
   10.1721  -15.6739   26.3177 O   0  0  0  0  0  0  0  0  0  0  0  0
    9.5775  -17.2997   24.7770 O   0  0  0  0  0  0  0  0  0  0  0  0
  2  1  1  0
  3  2  1  0
  3  5  1  0
  3  4  1  6
  5  6  2  0
  7  8  1  0
  7  5  1  0
  8 15  1  0
  8  9  1  6
 10  9  1  0
 10 11  2  0
 12 11  1  0
 13 12  1  0
 14 13  2  0
 14 10  1  0
 15 17  1  0
 15 16  2  0
 17 18  1  0
 18 21  1  0
 18 19  1  1
 20 19  1  0
 21 23  2  0
 21 22  1  0
M  END
$$$$
