FGR.pdb
     RDKit          3D

 27 27  0  0  1  0  0  0  0  0999 V2000
   27.6128  -20.1356  -18.2437 N   0  0  0  0  0  0  0  0  0  0  0  0
   27.8934  -19.1551  -17.2126 C   0  0  1  0  0  0  0  0  0  0  0  0
   26.8569  -18.0541  -17.2007 C   0  0  0  0  0  0  0  0  0  0  0  0
   26.9267  -17.1927  -18.4182 C   0  0  0  0  0  0  0  0  0  0  0  0
   26.1297  -17.4670  -19.5040 C   0  0  0  0  0  0  0  0  0  0  0  0
   26.1762  -16.6858  -20.6376 C   0  0  0  0  0  0  0  0  0  0  0  0
   27.0279  -15.5874  -20.7366 C   0  0  0  0  0  0  0  0  0  0  0  0
   27.8079  -15.3489  -19.6270 C   0  0  0  0  0  0  0  0  0  0  0  0
   27.7751  -16.1168  -18.4882 C   0  0  0  0  0  0  0  0  0  0  0  0
   27.7959  -19.8524  -15.9040 C   0  0  0  0  0  0  0  0  0  0  0  0
   27.0282  -20.8632  -15.8637 O   0  0  0  0  0  0  0  0  0  0  0  0
   28.4930  -19.4601  -14.7365 N   0  0  0  0  0  0  0  0  0  0  0  0
   28.4659  -20.1527  -13.4978 C   0  0  0  0  0  0  0  0  0  0  0  0
   27.2874  -19.8866  -12.6400 C   0  0  0  0  0  0  0  0  0  0  0  0
   26.9072  -18.6768  -12.4416 O   0  0  0  0  0  0  0  0  0  0  0  0
   19.5222  -19.8173  -13.2992 N   0  0  0  0  0  0  0  0  0  0  0  0
   19.4146  -19.8948  -11.8921 C   0  0  0  0  0  0  0  0  0  0  0  0
   18.2704  -19.6508  -11.3027 N   0  0  0  0  0  0  0  0  0  0  0  0
   20.5866  -20.2419  -11.1664 N   0  0  0  0  0  0  0  0  0  0  0  0
   21.8097  -20.4607  -11.8788 C   0  0  0  0  0  0  0  0  0  0  0  0
   22.8754  -20.9565  -10.9000 C   0  0  0  0  0  0  0  0  0  0  0  0
   24.1138  -21.1811  -11.6962 C   0  0  0  0  0  0  0  0  0  0  0  0
   25.3470  -20.5168  -11.1635 C   0  0  2  0  0  0  0  0  0  0  0  0
   26.5091  -20.8764  -11.9953 N   0  0  0  0  0  0  0  0  0  0  0  0
   25.6295  -20.8159   -9.7405 C   0  0  0  0  0  0  0  0  0  0  0  0
   26.4283  -21.7677   -9.4397 O   0  0  0  0  0  0  0  0  0  0  0  0
   25.0892  -20.1347   -8.6663 O   0  0  0  0  0  0  0  0  0  0  0  0
  2  1  1  6
  3  2  1  0
  4  3  1  0
  5  4  2  0
  6  5  1  0
  7  6  2  0
  7  8  1  0
  8  9  2  0
  9  4  1  0
 10  2  1  0
 10 12  1  0
 11 10  2  0
 13 12  1  0
 14 13  1  0
 15 14  2  0
 16 17  1  0
 17 19  1  0
 17 18  2  0
 19 20  1  0
 20 21  1  0
 21 22  1  0
 23 22  1  6
 23 25  1  0
 23 24  1  0
 24 14  1  0
 25 27  1  0
 26 25  2  0
M  END
$$$$
