FGR.pdb
     RDKit          3D

 27 27  0  0  1  0  0  0  0  0999 V2000
   23.9645  -17.9884  -18.1447 N   0  0  0  0  0  0  0  0  0  0  0  0
   24.5847  -18.9805  -17.2878 C   0  0  1  0  0  0  0  0  0  0  0  0
   24.5889  -18.5368  -15.8422 C   0  0  0  0  0  0  0  0  0  0  0  0
   25.3080  -17.2433  -15.6454 C   0  0  0  0  0  0  0  0  0  0  0  0
   24.6902  -16.2025  -14.9938 C   0  0  0  0  0  0  0  0  0  0  0  0
   25.3343  -15.0004  -14.7998 C   0  0  0  0  0  0  0  0  0  0  0  0
   26.6344  -14.7839  -15.2519 C   0  0  0  0  0  0  0  0  0  0  0  0
   27.2153  -15.8521  -15.8987 C   0  0  0  0  0  0  0  0  0  0  0  0
   26.5887  -17.0578  -16.1013 C   0  0  0  0  0  0  0  0  0  0  0  0
   23.7495  -20.2075  -17.3591 C   0  0  0  0  0  0  0  0  0  0  0  0
   22.5876  -20.0664  -17.8518 O   0  0  0  0  0  0  0  0  0  0  0  0
   24.1694  -21.4857  -16.9200 N   0  0  0  0  0  0  0  0  0  0  0  0
   23.3854  -22.6676  -16.9787 C   0  0  0  0  0  0  0  0  0  0  0  0
   22.2297  -22.7172  -16.0528 C   0  0  0  0  0  0  0  0  0  0  0  0
   21.4548  -23.7404  -16.0595 O   0  0  0  0  0  0  0  0  0  0  0  0
   17.0990  -23.9206  -10.1163 N   0  0  0  0  0  0  0  0  0  0  0  0
   16.5446  -23.3185  -11.2685 C   0  0  0  0  0  0  0  0  0  0  0  0
   15.2485  -23.3248  -11.4584 N   0  0  0  0  0  0  0  0  0  0  0  0
   17.4468  -22.7208  -12.1903 N   0  0  0  0  0  0  0  0  0  0  0  0
   18.8559  -22.8897  -11.9974 C   0  0  0  0  0  0  0  0  0  0  0  0
   19.5463  -21.5332  -12.1487 C   0  0  0  0  0  0  0  0  0  0  0  0
   20.7717  -21.7672  -12.9621 C   0  0  0  0  0  0  0  0  0  0  0  0
   20.5774  -21.7011  -14.4466 C   0  0  2  0  0  0  0  0  0  0  0  0
   21.8859  -21.7069  -15.1242 N   0  0  0  0  0  0  0  0  0  0  0  0
   19.7754  -20.5417  -14.9015 C   0  0  0  0  0  0  0  0  0  0  0  0
   18.5413  -20.4591  -14.5779 O   0  0  0  0  0  0  0  0  0  0  0  0
   20.2563  -19.5006  -15.6726 O   0  0  0  0  0  0  0  0  0  0  0  0
  2  1  1  6
  3  2  1  0
  4  3  1  0
  5  4  2  0
  6  5  1  0
  7  6  2  0
  7  8  1  0
  8  9  2  0
  9  4  1  0
 10  2  1  0
 10 12  1  0
 11 10  2  0
 13 12  1  0
 14 13  1  0
 15 14  2  0
 16 17  1  0
 17 19  1  0
 17 18  2  0
 19 20  1  0
 20 21  1  0
 21 22  1  0
 23 22  1  1
 23 25  1  0
 23 24  1  0
 24 14  1  0
 25 27  1  0
 26 25  2  0
M  END
$$$$
