FGR.pdb
     RDKit          3D

 27 27  0  0  1  0  0  0  0  0999 V2000
   27.1187  -21.6841   -8.1317 N   0  0  0  0  0  0  0  0  0  0  0  0
   26.4875  -20.4239   -8.4736 C   0  0  1  0  0  0  0  0  0  0  0  0
   27.2652  -19.2495   -7.9235 C   0  0  0  0  0  0  0  0  0  0  0  0
   27.6826  -19.4567   -6.5051 C   0  0  0  0  0  0  0  0  0  0  0  0
   28.9064  -19.0040   -6.0728 C   0  0  0  0  0  0  0  0  0  0  0  0
   29.3124  -19.1829   -4.7687 C   0  0  0  0  0  0  0  0  0  0  0  0
   28.5068  -19.8271   -3.8318 C   0  0  0  0  0  0  0  0  0  0  0  0
   27.2903  -20.2642   -4.3070 C   0  0  0  0  0  0  0  0  0  0  0  0
   26.8686  -20.0948   -5.6036 C   0  0  0  0  0  0  0  0  0  0  0  0
   26.5172  -20.3043   -9.9545 C   0  0  0  0  0  0  0  0  0  0  0  0
   26.0344  -19.2348  -10.4399 O   0  0  0  0  0  0  0  0  0  0  0  0
   27.0397  -21.2905  -10.8247 N   0  0  0  0  0  0  0  0  0  0  0  0
   27.0366  -21.2133  -12.2420 C   0  0  0  0  0  0  0  0  0  0  0  0
   25.7516  -21.5474  -12.8997 C   0  0  0  0  0  0  0  0  0  0  0  0
   25.2054  -22.6884  -12.6822 O   0  0  0  0  0  0  0  0  0  0  0  0
   18.5171  -22.0505  -11.0159 N   0  0  0  0  0  0  0  0  0  0  0  0
   18.9019  -22.8746  -12.0976 C   0  0  0  0  0  0  0  0  0  0  0  0
   18.0959  -23.8105  -12.5342 N   0  0  0  0  0  0  0  0  0  0  0  0
   20.1807  -22.6412  -12.6728 N   0  0  0  0  0  0  0  0  0  0  0  0
   21.0091  -21.6037  -12.1355 C   0  0  0  0  0  0  0  0  0  0  0  0
   21.2907  -20.5730  -13.2300 C   0  0  0  0  0  0  0  0  0  0  0  0
   22.7381  -20.2357  -13.1355 C   0  0  0  0  0  0  0  0  0  0  0  0
   23.6266  -20.9470  -14.1105 C   0  0  2  0  0  0  0  0  0  0  0  0
   25.0397  -20.6958  -13.7765 N   0  0  0  0  0  0  0  0  0  0  0  0
   23.3706  -20.6003  -15.5277 C   0  0  0  0  0  0  0  0  0  0  0  0
   24.0704  -19.6925  -16.0941 O   0  0  0  0  0  0  0  0  0  0  0  0
   22.4086  -21.1902  -16.3254 O   0  0  0  0  0  0  0  0  0  0  0  0
  2  1  1  6
  3  2  1  0
  4  3  1  0
  5  4  2  0
  6  5  1  0
  7  6  2  0
  7  8  1  0
  8  9  2  0
  9  4  1  0
 10  2  1  0
 10 12  1  0
 11 10  2  0
 13 12  1  0
 14 13  1  0
 15 14  2  0
 16 17  1  0
 17 19  1  0
 17 18  2  0
 19 20  1  0
 20 21  1  0
 21 22  1  0
 23 22  1  1
 23 25  1  0
 23 24  1  0
 24 14  1  0
 25 27  1  0
 26 25  2  0
M  END
$$$$
