FGR.pdb
     RDKit          3D

 27 27  0  0  1  0  0  0  0  0999 V2000
   20.5406  -10.5860  -15.0370 N   0  0  0  0  0  0  0  0  0  0  0  0
   20.8584   -9.1849  -15.2352 C   0  0  1  0  0  0  0  0  0  0  0  0
   22.2143   -8.8397  -14.6616 C   0  0  0  0  0  0  0  0  0  0  0  0
   22.3879   -7.3714  -14.4537 C   0  0  0  0  0  0  0  0  0  0  0  0
   21.9743   -6.7871  -13.2803 C   0  0  0  0  0  0  0  0  0  0  0  0
   22.1250   -5.4347  -13.0658 C   0  0  0  0  0  0  0  0  0  0  0  0
   22.7005   -4.6004  -14.0221 C   0  0  0  0  0  0  0  0  0  0  0  0
   23.1004   -5.2267  -15.1816 C   0  0  0  0  0  0  0  0  0  0  0  0
   22.9581   -6.5734  -15.4131 C   0  0  0  0  0  0  0  0  0  0  0  0
   20.9399   -8.9552  -16.7010 C   0  0  0  0  0  0  0  0  0  0  0  0
   21.4748   -9.8822  -17.3845 O   0  0  0  0  0  0  0  0  0  0  0  0
   20.4665   -7.7925  -17.3544 N   0  0  0  0  0  0  0  0  0  0  0  0
   19.1108   -7.3736  -17.3955 C   0  0  0  0  0  0  0  0  0  0  0  0
   18.1918   -8.2497  -18.1592 C   0  0  0  0  0  0  0  0  0  0  0  0
   18.6434   -8.9384  -19.1437 O   0  0  0  0  0  0  0  0  0  0  0  0
   18.2678  -15.2182  -16.2343 N   0  0  0  0  0  0  0  0  0  0  0  0
   16.8586  -15.1748  -16.3337 C   0  0  0  0  0  0  0  0  0  0  0  0
   16.1182  -15.9238  -15.5548 N   0  0  0  0  0  0  0  0  0  0  0  0
   16.2998  -14.2972  -17.3023 N   0  0  0  0  0  0  0  0  0  0  0  0
   16.9267  -13.0320  -17.5422 C   0  0  0  0  0  0  0  0  0  0  0  0
   16.2116  -11.9572  -16.7217 C   0  0  0  0  0  0  0  0  0  0  0  0
   16.9060  -10.6710  -17.0069 C   0  0  0  0  0  0  0  0  0  0  0  0
   16.1731   -9.7364  -17.9208 C   0  0  2  0  0  0  0  0  0  0  0  0
   16.8110   -8.4082  -17.8960 N   0  0  0  0  0  0  0  0  0  0  0  0
   14.7270   -9.6104  -17.6255 C   0  0  0  0  0  0  0  0  0  0  0  0
   14.3305   -8.7684  -16.7490 O   0  0  0  0  0  0  0  0  0  0  0  0
   13.7281  -10.3468  -18.2335 O   0  0  0  0  0  0  0  0  0  0  0  0
  2  1  1  6
  3  2  1  0
  4  3  1  0
  5  4  2  0
  6  5  1  0
  7  6  2  0
  7  8  1  0
  8  9  2  0
  9  4  1  0
 10  2  1  0
 10 12  1  0
 11 10  2  0
 13 12  1  0
 14 13  1  0
 15 14  2  0
 16 17  1  0
 17 19  1  0
 17 18  2  0
 19 20  1  0
 20 21  1  0
 21 22  1  0
 23 22  1  1
 23 25  1  0
 23 24  1  0
 24 14  1  0
 25 27  1  0
 26 25  2  0
M  END
$$$$
