FGR.pdb
     RDKit          3D

 27 27  0  0  1  0  0  0  0  0999 V2000
   20.5475  -15.7268   11.4225 N   0  0  0  0  0  0  0  0  0  0  0  0
   20.0789  -16.0989   10.1015 C   0  0  1  0  0  0  0  0  0  0  0  0
   21.1958  -16.0438    9.0835 C   0  0  0  0  0  0  0  0  0  0  0  0
   21.6654  -14.6498    8.8279 C   0  0  0  0  0  0  0  0  0  0  0  0
   20.9941  -13.8483    7.9354 C   0  0  0  0  0  0  0  0  0  0  0  0
   21.4083  -12.5587    7.6844 C   0  0  0  0  0  0  0  0  0  0  0  0
   22.5202  -12.0091    8.3194 C   0  0  0  0  0  0  0  0  0  0  0  0
   23.1624  -12.8459    9.2048 C   0  0  0  0  0  0  0  0  0  0  0  0
   22.7641  -14.1342    9.4677 C   0  0  0  0  0  0  0  0  0  0  0  0
   19.6331  -17.5146   10.1752 C   0  0  0  0  0  0  0  0  0  0  0  0
   20.0252  -18.1734   11.1875 O   0  0  0  0  0  0  0  0  0  0  0  0
   18.8191  -18.1467    9.2053 N   0  0  0  0  0  0  0  0  0  0  0  0
   18.7409  -17.7755    7.8375 C   0  0  0  0  0  0  0  0  0  0  0  0
   17.7522  -18.5231    7.0257 C   0  0  0  0  0  0  0  0  0  0  0  0
   17.1084  -19.5008    7.5520 O   0  0  0  0  0  0  0  0  0  0  0  0
   16.6211  -13.6773    3.1053 N   0  0  0  0  0  0  0  0  0  0  0  0
   15.2733  -14.0710    2.9443 C   0  0  0  0  0  0  0  0  0  0  0  0
   14.3296  -13.1686    2.8397 N   0  0  0  0  0  0  0  0  0  0  0  0
   15.0016  -15.4658    2.9045 N   0  0  0  0  0  0  0  0  0  0  0  0
   16.0364  -16.3892    3.2621 C   0  0  0  0  0  0  0  0  0  0  0  0
   15.4804  -17.8125    3.1940 C   0  0  0  0  0  0  0  0  0  0  0  0
   16.6292  -18.7305    3.4292 C   0  0  0  0  0  0  0  0  0  0  0  0
   16.7578  -19.2499    4.8291 C   0  0  2  0  0  0  0  0  0  0  0  0
   17.4353  -18.2508    5.6742 N   0  0  0  0  0  0  0  0  0  0  0  0
   17.4523  -20.5545    4.9296 C   0  0  0  0  0  0  0  0  0  0  0  0
   18.7275  -20.6010    4.8503 O   0  0  0  0  0  0  0  0  0  0  0  0
   16.8254  -21.7730    5.1087 O   0  0  0  0  0  0  0  0  0  0  0  0
  2  1  1  1
  3  2  1  0
  4  3  1  0
  5  4  2  0
  6  5  1  0
  7  6  2  0
  7  8  1  0
  8  9  2  0
  9  4  1  0
 10  2  1  0
 10 12  1  0
 11 10  2  0
 13 12  1  0
 14 13  1  0
 15 14  2  0
 16 17  1  0
 17 19  1  0
 17 18  2  0
 19 20  1  0
 20 21  1  0
 21 22  1  0
 23 22  1  6
 23 25  1  0
 23 24  1  0
 24 14  1  0
 25 27  1  0
 26 25  2  0
M  END
$$$$
