FGR.pdb
     RDKit          3D

 27 27  0  0  1  0  0  0  0  0999 V2000
   25.4793  -21.0931   -7.8345 N   0  0  0  0  0  0  0  0  0  0  0  0
   26.5226  -20.5305   -8.6702 C   0  0  1  0  0  0  0  0  0  0  0  0
   27.8977  -20.8670   -8.1385 C   0  0  0  0  0  0  0  0  0  0  0  0
   28.2226  -20.1214   -6.8865 C   0  0  0  0  0  0  0  0  0  0  0  0
   27.6858  -18.8752   -6.6666 C   0  0  0  0  0  0  0  0  0  0  0  0
   27.9705  -18.1691   -5.5186 C   0  0  0  0  0  0  0  0  0  0  0  0
   28.8106  -18.6815   -4.5321 C   0  0  0  0  0  0  0  0  0  0  0  0
   29.3260  -19.9317   -4.7928 C   0  0  0  0  0  0  0  0  0  0  0  0
   29.0535  -20.6505   -5.9315 C   0  0  0  0  0  0  0  0  0  0  0  0
   26.4091  -21.1706  -10.0065 C   0  0  0  0  0  0  0  0  0  0  0  0
   25.7595  -22.2608  -10.0520 O   0  0  0  0  0  0  0  0  0  0  0  0
   26.9703  -20.6440  -11.1941 N   0  0  0  0  0  0  0  0  0  0  0  0
   26.8041  -21.1968  -12.4909 C   0  0  0  0  0  0  0  0  0  0  0  0
   25.4269  -21.1514  -13.0357 C   0  0  0  0  0  0  0  0  0  0  0  0
   25.1721  -21.7087  -14.1635 O   0  0  0  0  0  0  0  0  0  0  0  0
   19.7301  -23.2235   -9.3216 N   0  0  0  0  0  0  0  0  0  0  0  0
   19.4145  -23.8755  -10.5351 C   0  0  0  0  0  0  0  0  0  0  0  0
   18.4910  -24.8041  -10.5652 N   0  0  0  0  0  0  0  0  0  0  0  0
   20.1365  -23.4812  -11.6944 N   0  0  0  0  0  0  0  0  0  0  0  0
   21.2143  -22.5473  -11.5616 C   0  0  0  0  0  0  0  0  0  0  0  0
   20.7540  -21.1789  -12.0668 C   0  0  0  0  0  0  0  0  0  0  0  0
   21.9376  -20.2780  -11.9951 C   0  0  0  0  0  0  0  0  0  0  0  0
   22.9894  -20.5184  -13.0352 C   0  0  2  0  0  0  0  0  0  0  0  0
   24.3222  -20.5307  -12.4069 N   0  0  0  0  0  0  0  0  0  0  0  0
   22.9655  -19.5500  -14.1559 C   0  0  0  0  0  0  0  0  0  0  0  0
   23.8371  -18.6158  -14.2044 O   0  0  0  0  0  0  0  0  0  0  0  0
   22.0537  -19.5634  -15.1941 O   0  0  0  0  0  0  0  0  0  0  0  0
  2  1  1  1
  3  2  1  0
  4  3  1  0
  5  4  2  0
  6  5  1  0
  7  6  2  0
  7  8  1  0
  8  9  2  0
  9  4  1  0
 10  2  1  0
 10 12  1  0
 11 10  2  0
 13 12  1  0
 14 13  1  0
 15 14  2  0
 16 17  1  0
 17 19  1  0
 17 18  2  0
 19 20  1  0
 20 21  1  0
 21 22  1  0
 23 22  1  1
 23 25  1  0
 23 24  1  0
 24 14  1  0
 25 27  1  0
 26 25  2  0
M  END
$$$$
