FGR.pdb
     RDKit          3D

 27 27  0  0  1  0  0  0  0  0999 V2000
   28.7852  -21.0019   -9.1606 N   0  0  0  0  0  0  0  0  0  0  0  0
   27.3807  -20.7048   -8.9550 C   0  0  1  0  0  0  0  0  0  0  0  0
   27.1965  -19.4549   -8.1240 C   0  0  0  0  0  0  0  0  0  0  0  0
   27.8469  -19.5604   -6.7843 C   0  0  0  0  0  0  0  0  0  0  0  0
   28.8237  -18.6648   -6.4191 C   0  0  0  0  0  0  0  0  0  0  0  0
   29.4371  -18.7420   -5.1881 C   0  0  0  0  0  0  0  0  0  0  0  0
   29.0985  -19.7253   -4.2607 C   0  0  0  0  0  0  0  0  0  0  0  0
   28.1163  -20.6008   -4.6672 C   0  0  0  0  0  0  0  0  0  0  0  0
   27.4937  -20.5394   -5.8904 C   0  0  0  0  0  0  0  0  0  0  0  0
   26.7899  -20.4255  -10.2896 C   0  0  0  0  0  0  0  0  0  0  0  0
   27.4265  -19.6083  -11.0241 O   0  0  0  0  0  0  0  0  0  0  0  0
   25.5915  -21.0056  -10.7694 N   0  0  0  0  0  0  0  0  0  0  0  0
   25.0024  -20.7361  -12.0324 C   0  0  0  0  0  0  0  0  0  0  0  0
   23.7777  -21.5086  -12.3467 C   0  0  0  0  0  0  0  0  0  0  0  0
   23.8808  -22.6770  -12.8679 O   0  0  0  0  0  0  0  0  0  0  0  0
   17.6260  -22.7490   -8.9504 N   0  0  0  0  0  0  0  0  0  0  0  0
   18.3964  -23.8794   -8.5954 C   0  0  0  0  0  0  0  0  0  0  0  0
   17.8339  -24.9015   -7.9996 N   0  0  0  0  0  0  0  0  0  0  0  0
   19.7824  -23.8491   -8.9101 N   0  0  0  0  0  0  0  0  0  0  0  0
   20.2985  -22.7615   -9.6861 C   0  0  0  0  0  0  0  0  0  0  0  0
   19.5249  -22.6769  -11.0029 C   0  0  0  0  0  0  0  0  0  0  0  0
   20.0917  -21.5244  -11.7568 C   0  0  0  0  0  0  0  0  0  0  0  0
   21.2933  -21.8369  -12.5962 C   0  0  2  0  0  0  0  0  0  0  0  0
   22.4540  -21.0660  -12.1165 N   0  0  0  0  0  0  0  0  0  0  0  0
   21.0956  -21.6071  -14.0461 C   0  0  0  0  0  0  0  0  0  0  0  0
   20.3980  -22.4328  -14.7289 O   0  0  0  0  0  0  0  0  0  0  0  0
   21.6149  -20.5416  -14.7566 O   0  0  0  0  0  0  0  0  0  0  0  0
  2  1  1  6
  3  2  1  0
  4  3  1  0
  5  4  2  0
  6  5  1  0
  7  6  2  0
  7  8  1  0
  8  9  2  0
  9  4  1  0
 10  2  1  0
 10 12  1  0
 11 10  2  0
 13 12  1  0
 14 13  1  0
 15 14  2  0
 16 17  1  0
 17 19  1  0
 17 18  2  0
 19 20  1  0
 20 21  1  0
 21 22  1  0
 23 22  1  1
 23 25  1  0
 23 24  1  0
 24 14  1  0
 25 27  1  0
 26 25  2  0
M  END
$$$$
