FGR.pdb
     RDKit          3D

 27 27  0  0  1  0  0  0  0  0999 V2000
   26.3907  -16.0170  -18.8669 N   0  0  0  0  0  0  0  0  0  0  0  0
   26.3283  -16.6057  -17.5430 C   0  0  1  0  0  0  0  0  0  0  0  0
   25.9597  -15.5769  -16.4978 C   0  0  0  0  0  0  0  0  0  0  0  0
   26.8915  -14.4104  -16.4932 C   0  0  0  0  0  0  0  0  0  0  0  0
   26.4068  -13.1393  -16.6907 C   0  0  0  0  0  0  0  0  0  0  0  0
   27.2473  -12.0479  -16.6895 C   0  0  0  0  0  0  0  0  0  0  0  0
   28.6199  -12.1799  -16.4893 C   0  0  0  0  0  0  0  0  0  0  0  0
   29.0625  -13.4696  -16.2956 C   0  0  0  0  0  0  0  0  0  0  0  0
   28.2395  -14.5697  -16.2935 C   0  0  0  0  0  0  0  0  0  0  0  0
   25.2356  -17.6126  -17.5602 C   0  0  0  0  0  0  0  0  0  0  0  0
   24.2746  -17.3829  -18.3579 O   0  0  0  0  0  0  0  0  0  0  0  0
   25.2116  -18.7784  -16.7582 N   0  0  0  0  0  0  0  0  0  0  0  0
   25.9944  -19.9408  -16.9834 C   0  0  0  0  0  0  0  0  0  0  0  0
   26.7279  -20.4584  -15.8046 C   0  0  0  0  0  0  0  0  0  0  0  0
   27.4343  -21.5244  -15.9148 O   0  0  0  0  0  0  0  0  0  0  0  0
   22.6034  -20.0612   -9.0472 N   0  0  0  0  0  0  0  0  0  0  0  0
   23.6564  -20.6728   -8.3299 C   0  0  0  0  0  0  0  0  0  0  0  0
   23.4691  -21.0764   -7.0978 N   0  0  0  0  0  0  0  0  0  0  0  0
   24.9014  -20.8221   -8.9995 N   0  0  0  0  0  0  0  0  0  0  0  0
   25.0491  -20.2972  -10.3239 C   0  0  0  0  0  0  0  0  0  0  0  0
   26.4920  -20.5074  -10.7858 C   0  0  0  0  0  0  0  0  0  0  0  0
   26.6292  -19.8008  -12.0896 C   0  0  0  0  0  0  0  0  0  0  0  0
   26.6690  -20.6873  -13.2974 C   0  0  2  0  0  0  0  0  0  0  0  0
   26.7263  -19.8665  -14.5199 N   0  0  0  0  0  0  0  0  0  0  0  0
   25.5432  -21.6462  -13.3822 C   0  0  0  0  0  0  0  0  0  0  0  0
   24.3652  -21.2192  -13.6365 O   0  0  0  0  0  0  0  0  0  0  0  0
   25.6523  -23.0125  -13.2057 O   0  0  0  0  0  0  0  0  0  0  0  0
  2  1  1  6
  3  2  1  0
  4  3  1  0
  5  4  2  0
  6  5  1  0
  7  6  2  0
  7  8  1  0
  8  9  2  0
  9  4  1  0
 10  2  1  0
 10 12  1  0
 11 10  2  0
 13 12  1  0
 14 13  1  0
 15 14  2  0
 16 17  1  0
 17 19  1  0
 17 18  2  0
 19 20  1  0
 20 21  1  0
 21 22  1  0
 23 22  1  1
 23 25  1  0
 23 24  1  0
 24 14  1  0
 25 27  1  0
 26 25  2  0
M  END
$$$$
