FGR.pdb
     RDKit          3D

 27 27  0  0  1  0  0  0  0  0999 V2000
   28.4545  -19.4416  -14.3179 N   0  0  0  0  0  0  0  0  0  0  0  0
   27.7048  -20.6497  -14.0321 C   0  0  1  0  0  0  0  0  0  0  0  0
   27.4464  -20.8017  -12.5499 C   0  0  0  0  0  0  0  0  0  0  0  0
   28.7020  -21.0197  -11.7722 C   0  0  0  0  0  0  0  0  0  0  0  0
   29.0354  -22.2812  -11.3395 C   0  0  0  0  0  0  0  0  0  0  0  0
   30.1891  -22.5065  -10.6214 C   0  0  0  0  0  0  0  0  0  0  0  0
   31.0673  -21.4730  -10.3016 C   0  0  0  0  0  0  0  0  0  0  0  0
   30.6951  -20.2267  -10.7541 C   0  0  0  0  0  0  0  0  0  0  0  0
   29.5488  -19.9830  -11.4713 C   0  0  0  0  0  0  0  0  0  0  0  0
   26.3789  -20.5104  -14.6883 C   0  0  0  0  0  0  0  0  0  0  0  0
   25.7615  -19.4207  -14.4781 O   0  0  0  0  0  0  0  0  0  0  0  0
   25.7870  -21.4990  -15.5100 N   0  0  0  0  0  0  0  0  0  0  0  0
   24.5046  -21.4009  -16.1107 C   0  0  0  0  0  0  0  0  0  0  0  0
   23.3632  -21.8011  -15.2548 C   0  0  0  0  0  0  0  0  0  0  0  0
   23.2613  -23.0186  -14.8616 O   0  0  0  0  0  0  0  0  0  0  0  0
   17.1815  -22.3026  -10.2173 N   0  0  0  0  0  0  0  0  0  0  0  0
   17.8305  -23.3419  -10.9218 C   0  0  0  0  0  0  0  0  0  0  0  0
   17.2265  -24.4887  -11.1114 N   0  0  0  0  0  0  0  0  0  0  0  0
   19.1436  -23.0838  -11.4013 N   0  0  0  0  0  0  0  0  0  0  0  0
   19.7163  -21.7860  -11.2041 C   0  0  0  0  0  0  0  0  0  0  0  0
   19.3935  -20.9090  -12.4150 C   0  0  0  0  0  0  0  0  0  0  0  0
   20.6952  -20.5662  -13.0521 C   0  0  0  0  0  0  0  0  0  0  0  0
   21.1111  -21.4602  -14.1807 C   0  0  2  0  0  0  0  0  0  0  0  0
   22.3361  -20.9361  -14.8100 N   0  0  0  0  0  0  0  0  0  0  0  0
   20.0628  -21.6684  -15.2063 C   0  0  0  0  0  0  0  0  0  0  0  0
   20.0109  -20.8972  -16.2247 O   0  0  0  0  0  0  0  0  0  0  0  0
   19.0987  -22.6575  -15.1631 O   0  0  0  0  0  0  0  0  0  0  0  0
  2  1  1  1
  3  2  1  0
  4  3  1  0
  5  4  2  0
  6  5  1  0
  7  6  2  0
  7  8  1  0
  8  9  2  0
  9  4  1  0
 10  2  1  0
 10 12  1  0
 11 10  2  0
 13 12  1  0
 14 13  1  0
 15 14  2  0
 16 17  1  0
 17 19  1  0
 17 18  2  0
 19 20  1  0
 20 21  1  0
 21 22  1  0
 23 22  1  1
 23 25  1  0
 23 24  1  0
 24 14  1  0
 25 27  1  0
 26 25  2  0
M  END
$$$$
