SID.pdb
     RDKit          3D

 23 22  0  0  1  0  0  0  0  0999 V2000
   22.7046  -15.5674  -20.4558 O   0  0  0  0  0  0  0  0  0  0  0  0
   22.8742  -14.6548  -19.3983 C   0  0  0  0  0  0  0  0  0  0  0  0
   24.1321  -15.0793  -18.6326 C   0  0  2  0  0  0  0  0  0  0  0  0
   23.8296  -16.3774  -18.0597 N   0  0  0  0  0  0  0  0  0  0  0  0
   24.3273  -14.0579  -17.5697 C   0  0  0  0  0  0  0  0  0  0  0  0
   23.6022  -14.1622  -16.5421 O   0  0  0  0  0  0  0  0  0  0  0  0
   29.1362  -12.7679  -15.7934 C   0  0  0  0  0  0  0  0  0  0  0  0
   27.6219  -13.0435  -15.8165 C   0  0  0  0  0  0  0  0  0  0  0  0
   26.8987  -11.8269  -16.2926 C   0  0  2  0  0  0  0  0  0  0  0  0
   27.1600  -10.7446  -15.2491 C   0  0  0  0  0  0  0  0  0  0  0  0
   25.4580  -12.0022  -16.6130 C   0  0  2  0  0  0  0  0  0  0  0  0
   25.2659  -12.9987  -17.6534 N   0  0  0  0  0  0  0  0  0  0  0  0
   24.6987  -10.7740  -16.8748 C   0  0  0  0  0  0  0  0  0  0  0  0
   24.8700  -10.1568  -17.9530 O   0  0  0  0  0  0  0  0  0  0  0  0
   23.7487  -10.2106  -15.9649 N   0  0  0  0  0  0  0  0  0  0  0  0
   23.0026   -9.0134  -16.2603 C   0  0  1  0  0  0  0  0  0  0  0  0
   21.8281   -8.8215  -15.3272 C   0  0  0  0  0  0  0  0  0  0  0  0
   21.0313   -7.6216  -15.6806 C   0  0  0  0  0  0  0  0  0  0  0  0
   20.8431   -7.3368  -16.8883 O   0  0  0  0  0  0  0  0  0  0  0  0
   23.8773   -7.8400  -16.1014 C   0  0  0  0  0  0  0  0  0  0  0  0
   24.7188   -7.8000  -15.1908 O   0  0  0  0  0  0  0  0  0  0  0  0
   20.4745   -6.7845  -14.7299 O   0  0  0  0  0  0  0  0  0  0  0  0
   23.7537   -6.7860  -16.9727 O   0  0  0  0  0  0  0  0  0  0  0  0
  2  1  1  0
  3  2  1  0
  3  4  1  1
  5  3  1  0
  5  6  2  0
  7  8  1  0
  8  9  1  0
  9 11  1  0
  9 10  1  1
 11 12  1  6
 11 13  1  0
 12  5  1  0
 13 15  1  0
 14 13  2  0
 15 16  1  0
 16 20  1  0
 17 18  1  0
 16 17  1  1
 18 22  1  0
 19 18  2  0
 20 21  2  0
 20 23  1  0
M  END
$$$$
