SID.pdb
     RDKit          3D

 23 22  0  0  1  0  0  0  0  0999 V2000
   28.2041  -18.8919  -16.8412 O   0  0  0  0  0  0  0  0  0  0  0  0
   27.1738  -19.6191  -16.2171 C   0  0  0  0  0  0  0  0  0  0  0  0
   27.8279  -20.5056  -15.1516 C   0  0  2  0  0  0  0  0  0  0  0  0
   28.5726  -21.5167  -15.8782 N   0  0  0  0  0  0  0  0  0  0  0  0
   26.7092  -21.1140  -14.3837 C   0  0  0  0  0  0  0  0  0  0  0  0
   26.3225  -22.2570  -14.7532 O   0  0  0  0  0  0  0  0  0  0  0  0
   26.2419  -20.5570   -8.9616 C   0  0  0  0  0  0  0  0  0  0  0  0
   26.2153  -21.1985  -10.3607 C   0  0  0  0  0  0  0  0  0  0  0  0
   25.0168  -20.7166  -11.1098 C   0  0  2  0  0  0  0  0  0  0  0  0
   23.8031  -21.1973  -10.3195 C   0  0  0  0  0  0  0  0  0  0  0  0
   24.9585  -21.0684  -12.5526 C   0  0  2  0  0  0  0  0  0  0  0  0
   26.0721  -20.4867  -13.2834 N   0  0  0  0  0  0  0  0  0  0  0  0
   23.6742  -20.8378  -13.2240 C   0  0  0  0  0  0  0  0  0  0  0  0
   23.2935  -19.6642  -13.4488 O   0  0  0  0  0  0  0  0  0  0  0  0
   22.7968  -21.8830  -13.6549 N   0  0  0  0  0  0  0  0  0  0  0  0
   21.5384  -21.6239  -14.3080 C   0  0  1  0  0  0  0  0  0  0  0  0
   21.1217  -22.7523  -15.2245 C   0  0  0  0  0  0  0  0  0  0  0  0
   19.8254  -22.4748  -15.8895 C   0  0  0  0  0  0  0  0  0  0  0  0
   19.2574  -21.3714  -15.7030 O   0  0  0  0  0  0  0  0  0  0  0  0
   20.4815  -21.4780  -13.2937 C   0  0  0  0  0  0  0  0  0  0  0  0
   20.5685  -22.0646  -12.2041 O   0  0  0  0  0  0  0  0  0  0  0  0
   19.1984  -23.3867  -16.7201 O   0  0  0  0  0  0  0  0  0  0  0  0
   19.3943  -20.6842  -13.5645 O   0  0  0  0  0  0  0  0  0  0  0  0
  2  1  1  0
  3  2  1  0
  3  4  1  6
  5  3  1  0
  5  6  2  0
  7  8  1  0
  8  9  1  0
  9 11  1  0
  9 10  1  1
 11 12  1  6
 11 13  1  0
 12  5  1  0
 13 15  1  0
 14 13  2  0
 15 16  1  0
 16 20  1  0
 17 18  1  0
 16 17  1  6
 18 22  1  0
 19 18  2  0
 20 21  2  0
 20 23  1  0
M  END
$$$$
