SID.pdb
     RDKit          3D

 23 22  0  0  1  0  0  0  0  0999 V2000
   24.5423   12.6249  -56.3906 O   0  0  0  0  0  0  0  0  0  0  0  0
   24.8080   11.8898  -55.2206 C   0  0  0  0  0  0  0  0  0  0  0  0
   23.4570   11.4450  -54.6498 C   0  0  2  0  0  0  0  0  0  0  0  0
   23.0566   10.2896  -55.4304 N   0  0  0  0  0  0  0  0  0  0  0  0
   22.5271   12.5850  -54.8662 C   0  0  0  0  0  0  0  0  0  0  0  0
   21.6488   12.7773  -53.9806 O   0  0  0  0  0  0  0  0  0  0  0  0
   22.5306   12.9375  -60.2653 C   0  0  0  0  0  0  0  0  0  0  0  0
   22.7377   13.8303  -59.0286 C   0  0  0  0  0  0  0  0  0  0  0  0
   23.7319   13.1951  -58.1132 C   0  0  2  0  0  0  0  0  0  0  0  0
   23.4526   11.6956  -58.1612 C   0  0  0  0  0  0  0  0  0  0  0  0
   23.7947   13.7396  -56.7317 C   0  0  2  0  0  0  0  0  0  0  0  0
   22.5787   13.4450  -55.9922 N   0  0  0  0  0  0  0  0  0  0  0  0
   24.1916   15.1469  -56.6077 C   0  0  0  0  0  0  0  0  0  0  0  0
   24.9976   15.4874  -55.7092 O   0  0  0  0  0  0  0  0  0  0  0  0
   23.7138   16.1918  -57.4609 N   0  0  0  0  0  0  0  0  0  0  0  0
   23.6485   17.5697  -57.0432 C   0  0  1  0  0  0  0  0  0  0  0  0
   22.3674   18.2441  -57.4801 C   0  0  0  0  0  0  0  0  0  0  0  0
   22.0927   19.4715  -56.6942 C   0  0  0  0  0  0  0  0  0  0  0  0
   21.9078   20.5602  -57.2905 O   0  0  0  0  0  0  0  0  0  0  0  0
   23.6938   17.6383  -55.5734 C   0  0  0  0  0  0  0  0  0  0  0  0
   24.3978   18.4858  -55.0035 O   0  0  0  0  0  0  0  0  0  0  0  0
   22.0285   19.4782  -55.3121 O   0  0  0  0  0  0  0  0  0  0  0  0
   22.9475   16.7530  -54.8354 O   0  0  0  0  0  0  0  0  0  0  0  0
  2  1  1  0
  3  2  1  0
  3  4  1  6
  5  3  1  0
  5  6  2  0
  7  8  1  0
  8  9  1  0
  9 11  1  0
  9 10  1  1
 11 12  1  6
 11 13  1  0
 12  5  1  0
 13 15  1  0
 14 13  2  0
 15 16  1  0
 16 20  1  0
 17 18  1  0
 16 17  1  1
 18 22  1  0
 19 18  2  0
 20 21  2  0
 20 23  1  0
M  END
$$$$
