SID.pdb
     RDKit          3D

 23 22  0  0  1  0  0  0  0  0999 V2000
   17.5257  -11.5969  -18.0855 O   0  0  0  0  0  0  0  0  0  0  0  0
   18.2713  -10.9734  -17.0682 C   0  0  0  0  0  0  0  0  0  0  0  0
   19.4490  -11.8977  -16.7399 C   0  0  2  0  0  0  0  0  0  0  0  0
   18.8824  -13.0236  -16.0216 N   0  0  0  0  0  0  0  0  0  0  0  0
   20.3567  -11.1080  -15.8662 C   0  0  0  0  0  0  0  0  0  0  0  0
   20.0692  -11.0673  -14.6380 O   0  0  0  0  0  0  0  0  0  0  0  0
   25.5162  -11.6710  -15.2970 C   0  0  0  0  0  0  0  0  0  0  0  0
   24.0303  -11.3460  -15.0607 C   0  0  0  0  0  0  0  0  0  0  0  0
   23.7421   -9.9557  -15.5231 C   0  0  2  0  0  0  0  0  0  0  0  0
   24.6478   -9.0414  -14.7032 C   0  0  0  0  0  0  0  0  0  0  0  0
   22.3150   -9.5406  -15.5075 C   0  0  2  0  0  0  0  0  0  0  0  0
   21.5015  -10.4156  -16.3353 N   0  0  0  0  0  0  0  0  0  0  0  0
   22.0502   -8.1220  -15.7736 C   0  0  0  0  0  0  0  0  0  0  0  0
   22.3031   -7.6455  -16.9058 O   0  0  0  0  0  0  0  0  0  0  0  0
   21.5087   -7.2138  -14.8094 N   0  0  0  0  0  0  0  0  0  0  0  0
   21.2347   -5.8311  -15.1096 C   0  0  1  0  0  0  0  0  0  0  0  0
   19.9603   -5.3416  -14.4590 C   0  0  0  0  0  0  0  0  0  0  0  0
   19.7201   -3.9028  -14.7264 C   0  0  0  0  0  0  0  0  0  0  0  0
   18.5978   -3.5299  -15.1465 O   0  0  0  0  0  0  0  0  0  0  0  0
   22.3312   -4.9926  -14.5978 C   0  0  0  0  0  0  0  0  0  0  0  0
   22.8185   -4.0943  -15.3010 O   0  0  0  0  0  0  0  0  0  0  0  0
   20.6873   -2.9325  -14.5329 O   0  0  0  0  0  0  0  0  0  0  0  0
   22.8118   -5.2136  -13.3308 O   0  0  0  0  0  0  0  0  0  0  0  0
  2  1  1  0
  3  2  1  0
  3  4  1  1
  5  3  1  0
  5  6  2  0
  7  8  1  0
  8  9  1  0
  9 11  1  0
  9 10  1  1
 11 12  1  6
 11 13  1  0
 12  5  1  0
 13 15  1  0
 14 13  2  0
 15 16  1  0
 16 20  1  0
 17 18  1  0
 16 17  1  1
 18 22  1  0
 19 18  2  0
 20 21  2  0
 20 23  1  0
M  END
$$$$
