SID.pdb
     RDKit          3D

 23 22  0  0  1  0  0  0  0  0999 V2000
   17.5087   -9.9739  -19.7217 O   0  0  0  0  0  0  0  0  0  0  0  0
   18.1225   -9.7263  -18.4800 C   0  0  0  0  0  0  0  0  0  0  0  0
   18.7446  -11.0467  -18.0124 C   0  0  2  0  0  0  0  0  0  0  0  0
   17.6324  -11.8983  -17.6348 N   0  0  0  0  0  0  0  0  0  0  0  0
   19.5833  -10.7076  -16.8323 C   0  0  0  0  0  0  0  0  0  0  0  0
   18.9946  -10.6394  -15.7181 O   0  0  0  0  0  0  0  0  0  0  0  0
   24.0955  -13.0040  -15.2673 C   0  0  0  0  0  0  0  0  0  0  0  0
   22.7442  -12.2753  -15.3793 C   0  0  0  0  0  0  0  0  0  0  0  0
   22.9782  -10.8125  -15.5672 C   0  0  2  0  0  0  0  0  0  0  0  0
   23.8245  -10.3640  -14.3792 C   0  0  0  0  0  0  0  0  0  0  0  0
   21.7685   -9.9755  -15.7792 C   0  0  2  0  0  0  0  0  0  0  0  0
   20.9783  -10.4631  -16.8974 N   0  0  0  0  0  0  0  0  0  0  0  0
   21.9874   -8.5260  -15.8457 C   0  0  0  0  0  0  0  0  0  0  0  0
   22.7562   -8.0540  -16.7170 O   0  0  0  0  0  0  0  0  0  0  0  0
   21.3710   -7.5817  -14.9647 N   0  0  0  0  0  0  0  0  0  0  0  0
   21.6214   -6.1646  -15.0431 C   0  0  1  0  0  0  0  0  0  0  0  0
   20.3518   -5.3644  -15.2296 C   0  0  0  0  0  0  0  0  0  0  0  0
   19.8060   -5.5048  -16.6014 C   0  0  0  0  0  0  0  0  0  0  0  0
   20.5055   -6.0419  -17.4943 O   0  0  0  0  0  0  0  0  0  0  0  0
   22.2407   -5.7068  -13.7885 C   0  0  0  0  0  0  0  0  0  0  0  0
   22.7576   -4.5815  -13.7148 O   0  0  0  0  0  0  0  0  0  0  0  0
   18.5420   -5.0660  -16.9540 O   0  0  0  0  0  0  0  0  0  0  0  0
   22.2416   -6.5387  -12.6962 O   0  0  0  0  0  0  0  0  0  0  0  0
  2  1  1  0
  3  2  1  0
  3  4  1  1
  5  3  1  0
  5  6  2  0
  7  8  1  0
  8  9  1  0
  9 11  1  0
  9 10  1  1
 11 12  1  6
 11 13  1  0
 12  5  1  0
 13 15  1  0
 14 13  2  0
 15 16  1  0
 16 20  1  0
 17 18  1  0
 16 17  1  1
 18 22  1  0
 19 18  2  0
 20 21  2  0
 20 23  1  0
M  END
$$$$
