VSV.pdb
     RDKit          3D

 21 20  0  0  1  0  0  0  0  0999 V2000
   16.1632  -15.2041  -15.8278 C   0  0  0  0  0  0  0  0  0  0  0  0
   16.2814  -13.8451  -16.4745 C   0  0  1  0  0  0  0  0  0  0  0  0
   15.1141  -12.9812  -16.1036 C   0  0  0  0  0  0  0  0  0  0  0  0
   17.6145  -13.1986  -16.1598 C   0  0  2  0  0  0  0  0  0  0  0  0
   17.8557  -13.3265  -14.7574 N   0  0  0  0  0  0  0  0  0  0  0  0
   17.7048  -11.8235  -16.6616 C   0  0  0  0  0  0  0  0  0  0  0  0
   17.7155  -11.6223  -17.8941 O   0  0  0  0  0  0  0  0  0  0  0  0
   15.8376   -8.6614  -15.3347 O   0  0  0  0  0  0  0  0  0  0  0  0
   16.5943   -8.6344  -16.5017 C   0  0  0  0  0  0  0  0  0  0  0  0
   17.9194   -9.3379  -16.3190 C   0  0  2  0  0  0  0  0  0  0  0  0
   17.7836  -10.6683  -15.8139 N   0  0  0  0  0  0  0  0  0  0  0  0
   18.7161   -8.5320  -15.3645 C   0  0  0  0  0  0  0  0  0  0  0  0
   18.7098   -8.8210  -14.1595 O   0  0  0  0  0  0  0  0  0  0  0  0
   22.6361   -5.8325  -14.4513 C   0  0  0  0  0  0  0  0  0  0  0  0
   21.7352   -6.6165  -15.3639 C   0  0  2  0  0  0  0  0  0  0  0  0
   21.8160   -6.0419  -16.7439 C   0  0  0  0  0  0  0  0  0  0  0  0
   20.3045   -6.6492  -14.8438 C   0  0  2  0  0  0  0  0  0  0  0  0
   19.5052   -7.4195  -15.7689 N   0  0  0  0  0  0  0  0  0  0  0  0
   19.7614   -5.2874  -14.6367 C   0  0  0  0  0  0  0  0  0  0  0  0
   19.9391   -4.6356  -13.4458 O   0  0  0  0  0  0  0  0  0  0  0  0
   19.1289   -4.7131  -15.5555 O   0  0  0  0  0  0  0  0  0  0  0  0
  2  1  1  1
  2  4  1  0
  3  2  1  0
  4  5  1  1
  6  4  1  0
  7  6  2  0
  8  9  1  0
 10  9  1  1
 10 11  1  0
 10 12  1  0
 11  6  1  0
 12 18  1  0
 12 13  2  0
 15 14  1  1
 16 15  1  0
 17 15  1  0
 17 18  1  6
 19 17  1  0
 19 20  1  0
 21 19  2  0
M  END
$$$$
