VSV.pdb
     RDKit          3D

 21 20  0  0  1  0  0  0  0  0999 V2000
   18.8584  -19.9131    4.1111 C   0  0  0  0  0  0  0  0  0  0  0  0
   17.8236  -20.3364    3.0966 C   0  0  1  0  0  0  0  0  0  0  0  0
   17.9905  -21.7840    2.7457 C   0  0  0  0  0  0  0  0  0  0  0  0
   16.4226  -20.0030    3.5656 C   0  0  2  0  0  0  0  0  0  0  0  0
   15.5076  -20.3383    2.5208 N   0  0  0  0  0  0  0  0  0  0  0  0
   16.3044  -18.6228    4.0470 C   0  0  0  0  0  0  0  0  0  0  0  0
   16.2258  -17.6914    3.2187 O   0  0  0  0  0  0  0  0  0  0  0  0
   16.3334  -17.6212    8.1632 O   0  0  0  0  0  0  0  0  0  0  0  0
   15.4714  -16.9187    7.3273 C   0  0  0  0  0  0  0  0  0  0  0  0
   15.9454  -16.9474    5.8925 C   0  0  2  0  0  0  0  0  0  0  0  0
   16.2723  -18.2619    5.4356 N   0  0  0  0  0  0  0  0  0  0  0  0
   17.1500  -16.0884    5.8111 C   0  0  0  0  0  0  0  0  0  0  0  0
   18.2749  -16.5914    5.9422 O   0  0  0  0  0  0  0  0  0  0  0  0
   17.9610  -13.7907    2.9959 C   0  0  0  0  0  0  0  0  0  0  0  0
   18.1024  -12.9694    4.2468 C   0  0  2  0  0  0  0  0  0  0  0  0
   19.2547  -12.0274    4.0864 C   0  0  0  0  0  0  0  0  0  0  0  0
   18.2545  -13.8503    5.4794 C   0  0  2  0  0  0  0  0  0  0  0  0
   17.0801  -14.6855    5.5852 N   0  0  0  0  0  0  0  0  0  0  0  0
   18.4829  -13.0506    6.7044 C   0  0  0  0  0  0  0  0  0  0  0  0
   19.7367  -12.6052    7.0271 O   0  0  0  0  0  0  0  0  0  0  0  0
   17.5243  -12.7710    7.4641 O   0  0  0  0  0  0  0  0  0  0  0  0
  2  1  1  1
  2  4  1  0
  3  2  1  0
  4  5  1  6
  6  4  1  0
  7  6  2  0
  8  9  1  0
 10  9  1  1
 10 11  1  0
 10 12  1  0
 11  6  1  0
 12 18  1  0
 12 13  2  0
 15 14  1  6
 16 15  1  0
 17 15  1  0
 17 18  1  1
 19 17  1  0
 19 20  1  0
 21 19  2  0
M  END
$$$$
