VSV.pdb
     RDKit          3D

 21 20  0  0  1  0  0  0  0  0999 V2000
   19.8097  -11.3443  -15.4370 C   0  0  0  0  0  0  0  0  0  0  0  0
   18.5624  -11.6358  -16.2360 C   0  0  1  0  0  0  0  0  0  0  0  0
   18.4408  -13.1049  -16.5067 C   0  0  0  0  0  0  0  0  0  0  0  0
   17.3320  -11.0574  -15.5685 C   0  0  2  0  0  0  0  0  0  0  0  0
   16.2015  -11.3277  -16.3992 N   0  0  0  0  0  0  0  0  0  0  0  0
   17.4950   -9.6426  -15.2183 C   0  0  0  0  0  0  0  0  0  0  0  0
   17.7239   -8.8119  -16.1222 O   0  0  0  0  0  0  0  0  0  0  0  0
   17.4026   -8.2025  -11.1973 O   0  0  0  0  0  0  0  0  0  0  0  0
   17.0013   -7.3629  -12.2313 C   0  0  0  0  0  0  0  0  0  0  0  0
   17.6292   -7.7644  -13.5462 C   0  0  2  0  0  0  0  0  0  0  0  0
   17.4074   -9.1370  -13.8781 N   0  0  0  0  0  0  0  0  0  0  0  0
   19.0858   -7.5192  -13.4299 C   0  0  0  0  0  0  0  0  0  0  0  0
   19.8045   -8.3442  -12.8482 O   0  0  0  0  0  0  0  0  0  0  0  0
   23.2086   -6.1599  -15.3093 C   0  0  0  0  0  0  0  0  0  0  0  0
   21.7273   -6.4125  -15.2791 C   0  0  2  0  0  0  0  0  0  0  0  0
   21.0674   -5.5832  -16.3364 C   0  0  0  0  0  0  0  0  0  0  0  0
   21.1429   -6.1452  -13.8988 C   0  0  2  0  0  0  0  0  0  0  0  0
   19.7154   -6.3603  -13.9634 N   0  0  0  0  0  0  0  0  0  0  0  0
   21.4814   -4.7894  -13.4092 C   0  0  0  0  0  0  0  0  0  0  0  0
   20.5183   -3.8222  -13.3020 O   0  0  0  0  0  0  0  0  0  0  0  0
   22.6611   -4.5109  -13.0856 O   0  0  0  0  0  0  0  0  0  0  0  0
  2  1  1  1
  2  4  1  0
  3  2  1  0
  4  5  1  6
  6  4  1  0
  7  6  2  0
  8  9  1  0
 10  9  1  1
 10 11  1  0
 10 12  1  0
 11  6  1  0
 12 18  1  0
 12 13  2  0
 15 14  1  1
 16 15  1  0
 17 15  1  0
 17 18  1  6
 19 17  1  0
 19 20  1  0
 21 19  2  0
M  END
$$$$
