VSV.pdb
     RDKit          3D

 21 20  0  0  1  0  0  0  0  0999 V2000
   20.2059  -12.4206  -20.0890 C   0  0  0  0  0  0  0  0  0  0  0  0
   19.8652  -11.1094  -19.4227 C   0  0  1  0  0  0  0  0  0  0  0  0
   18.8673  -10.3462  -20.2402 C   0  0  0  0  0  0  0  0  0  0  0  0
   19.4158  -11.3184  -17.9915 C   0  0  2  0  0  0  0  0  0  0  0  0
   18.3604  -12.2814  -17.9883 N   0  0  0  0  0  0  0  0  0  0  0  0
   19.0816  -10.0593  -17.3177 C   0  0  0  0  0  0  0  0  0  0  0  0
   18.1350   -9.3682  -17.7487 O   0  0  0  0  0  0  0  0  0  0  0  0
   19.1888   -9.3253  -13.4338 O   0  0  0  0  0  0  0  0  0  0  0  0
   18.6594   -8.3966  -14.3240 C   0  0  0  0  0  0  0  0  0  0  0  0
   19.4988   -8.2888  -15.5762 C   0  0  2  0  0  0  0  0  0  0  0  0
   19.7840   -9.5567  -16.1716 N   0  0  0  0  0  0  0  0  0  0  0  0
   20.7708   -7.6304  -15.1966 C   0  0  0  0  0  0  0  0  0  0  0  0
   21.8123   -8.2980  -15.1252 O   0  0  0  0  0  0  0  0  0  0  0  0
   21.5625   -3.6277  -15.9237 C   0  0  0  0  0  0  0  0  0  0  0  0
   22.5657   -4.7040  -15.6167 C   0  0  2  0  0  0  0  0  0  0  0  0
   22.8530   -5.4766  -16.8664 C   0  0  0  0  0  0  0  0  0  0  0  0
   22.0892   -5.6063  -14.4866 C   0  0  2  0  0  0  0  0  0  0  0  0
   20.8598   -6.2411  -14.9035 N   0  0  0  0  0  0  0  0  0  0  0  0
   21.9303   -4.8625  -13.2162 C   0  0  0  0  0  0  0  0  0  0  0  0
   23.0237   -4.4855  -12.4833 O   0  0  0  0  0  0  0  0  0  0  0  0
   20.7856   -4.5682  -12.7954 O   0  0  0  0  0  0  0  0  0  0  0  0
  2  1  1  6
  2  4  1  0
  3  2  1  0
  4  5  1  6
  6  4  1  0
  7  6  2  0
  8  9  1  0
 10  9  1  1
 10 11  1  0
 10 12  1  0
 11  6  1  0
 12 18  1  0
 12 13  2  0
 15 14  1  6
 16 15  1  0
 17 15  1  0
 17 18  1  6
 19 17  1  0
 19 20  1  0
 21 19  2  0
M  END
$$$$
