VSV.pdb
     RDKit          3D

 21 20  0  0  1  0  0  0  0  0999 V2000
   24.6004  -32.3911   -6.5876 C   0  0  0  0  0  0  0  0  0  0  0  0
   24.7582  -32.6964   -8.0576 C   0  0  1  0  0  0  0  0  0  0  0  0
   24.4107  -31.4965   -8.8857 C   0  0  0  0  0  0  0  0  0  0  0  0
   26.1379  -33.2417   -8.3627 C   0  0  2  0  0  0  0  0  0  0  0  0
   26.1252  -33.7806   -9.6858 N   0  0  0  0  0  0  0  0  0  0  0  0
   26.6119  -34.1775   -7.3378 C   0  0  0  0  0  0  0  0  0  0  0  0
   26.2691  -35.3768   -7.4001 O   0  0  0  0  0  0  0  0  0  0  0  0
   28.5863  -33.1441   -3.6119 O   0  0  0  0  0  0  0  0  0  0  0  0
   29.0701  -34.1628   -4.4264 C   0  0  0  0  0  0  0  0  0  0  0  0
   27.9791  -34.7394   -5.2991 C   0  0  2  0  0  0  0  0  0  0  0  0
   27.4614  -33.8004   -6.2445 N   0  0  0  0  0  0  0  0  0  0  0  0
   26.8864  -35.1812   -4.4011 C   0  0  0  0  0  0  0  0  0  0  0  0
   25.9055  -34.4466   -4.2174 O   0  0  0  0  0  0  0  0  0  0  0  0
   24.6173  -38.8895   -2.0568 C   0  0  0  0  0  0  0  0  0  0  0  0
   25.7246  -38.3705   -2.9306 C   0  0  2  0  0  0  0  0  0  0  0  0
   27.0009  -39.0634   -2.5672 C   0  0  0  0  0  0  0  0  0  0  0  0
   25.8510  -36.8563   -2.8324 C   0  0  2  0  0  0  0  0  0  0  0  0
   26.9059  -36.4325   -3.7244 N   0  0  0  0  0  0  0  0  0  0  0  0
   26.0851  -36.4112   -1.4398 C   0  0  0  0  0  0  0  0  0  0  0  0
   27.3181  -35.9663   -1.0441 O   0  0  0  0  0  0  0  0  0  0  0  0
   25.1509  -36.4372   -0.6028 O   0  0  0  0  0  0  0  0  0  0  0  0
  2  1  1  1
  2  4  1  0
  3  2  1  0
  4  5  1  6
  6  4  1  0
  7  6  2  0
  8  9  1  0
 10  9  1  1
 10 11  1  0
 10 12  1  0
 11  6  1  0
 12 18  1  0
 12 13  2  0
 15 14  1  1
 16 15  1  0
 17 15  1  0
 17 18  1  6
 19 17  1  0
 19 20  1  0
 21 19  2  0
M  END
$$$$
