VSV.pdb
     RDKit          3D

 21 20  0  0  1  0  0  0  0  0999 V2000
   22.2811  -12.2568  -19.0597 C   0  0  0  0  0  0  0  0  0  0  0  0
   21.6554  -11.0058  -18.4917 C   0  0  1  0  0  0  0  0  0  0  0  0
   21.2721  -10.0619  -19.5910 C   0  0  0  0  0  0  0  0  0  0  0  0
   20.4991  -11.3365  -17.5710 C   0  0  2  0  0  0  0  0  0  0  0  0
   19.5531  -12.1192  -18.3017 N   0  0  0  0  0  0  0  0  0  0  0  0
   19.9283  -10.1447  -16.9349 C   0  0  0  0  0  0  0  0  0  0  0  0
   19.1215   -9.4379  -17.5745 O   0  0  0  0  0  0  0  0  0  0  0  0
   17.7173   -9.3605  -14.1489 O   0  0  0  0  0  0  0  0  0  0  0  0
   18.8954   -8.6968  -13.8223 C   0  0  0  0  0  0  0  0  0  0  0  0
   19.7739   -8.4980  -15.0360 C   0  0  2  0  0  0  0  0  0  0  0  0
   20.2408   -9.7266  -15.5982 N   0  0  0  0  0  0  0  0  0  0  0  0
   20.9357   -7.6840  -14.6082 C   0  0  0  0  0  0  0  0  0  0  0  0
   21.9270   -8.2385  -14.1128 O   0  0  0  0  0  0  0  0  0  0  0  0
   21.6664   -3.8832  -16.1725 C   0  0  0  0  0  0  0  0  0  0  0  0
   22.6832   -4.7526  -15.4875 C   0  0  2  0  0  0  0  0  0  0  0  0
   23.2555   -5.7136  -16.4824 C   0  0  0  0  0  0  0  0  0  0  0  0
   22.0862   -5.4681  -14.2833 C   0  0  2  0  0  0  0  0  0  0  0  0
   20.9725   -6.2679  -14.7397 N   0  0  0  0  0  0  0  0  0  0  0  0
   21.6920   -4.5193  -13.2172 C   0  0  0  0  0  0  0  0  0  0  0  0
   22.6370   -3.9177  -12.4298 O   0  0  0  0  0  0  0  0  0  0  0  0
   20.4811   -4.2550  -13.0227 O   0  0  0  0  0  0  0  0  0  0  0  0
  2  1  1  6
  2  4  1  0
  3  2  1  0
  4  5  1  6
  6  4  1  0
  7  6  2  0
  8  9  1  0
 10  9  1  1
 10 11  1  0
 10 12  1  0
 11  6  1  0
 12 18  1  0
 12 13  2  0
 15 14  1  6
 16 15  1  0
 17 15  1  0
 17 18  1  6
 19 17  1  0
 19 20  1  0
 21 19  2  0
M  END
$$$$
