VSV.pdb
     RDKit          3D

 21 20  0  0  1  0  0  0  0  0999 V2000
   15.6071  -13.7854  -17.2721 C   0  0  0  0  0  0  0  0  0  0  0  0
   16.0287  -12.5546  -16.5061 C   0  0  1  0  0  0  0  0  0  0  0  0
   15.1753  -12.3738  -15.2874 C   0  0  0  0  0  0  0  0  0  0  0  0
   17.5093  -12.5831  -16.1880 C   0  0  2  0  0  0  0  0  0  0  0  0
   17.7908  -13.7847  -15.4682 N   0  0  0  0  0  0  0  0  0  0  0  0
   17.9638  -11.3609  -15.5169 C   0  0  0  0  0  0  0  0  0  0  0  0
   17.6726  -11.1788  -14.3162 O   0  0  0  0  0  0  0  0  0  0  0  0
   21.2129   -9.2428  -16.7166 O   0  0  0  0  0  0  0  0  0  0  0  0
   20.6468   -8.9543  -15.4790 C   0  0  0  0  0  0  0  0  0  0  0  0
   19.1467   -9.1378  -15.4998 C   0  0  2  0  0  0  0  0  0  0  0  0
   18.7372  -10.3376  -16.1604 N   0  0  0  0  0  0  0  0  0  0  0  0
   18.5715   -7.9700  -16.2074 C   0  0  0  0  0  0  0  0  0  0  0  0
   18.4129   -8.0111  -17.4357 O   0  0  0  0  0  0  0  0  0  0  0  0
   15.8978   -5.3328  -14.5484 C   0  0  0  0  0  0  0  0  0  0  0  0
   16.2279   -5.4618  -16.0090 C   0  0  2  0  0  0  0  0  0  0  0  0
   15.4693   -6.6180  -16.5823 C   0  0  0  0  0  0  0  0  0  0  0  0
   17.7278   -5.5979  -16.2330 C   0  0  2  0  0  0  0  0  0  0  0  0
   18.1835   -6.7780  -15.5345 N   0  0  0  0  0  0  0  0  0  0  0  0
   18.4612   -4.3824  -15.8123 C   0  0  0  0  0  0  0  0  0  0  0  0
   19.2356   -4.3866  -14.6832 O   0  0  0  0  0  0  0  0  0  0  0  0
   18.3803   -3.3296  -16.4899 O   0  0  0  0  0  0  0  0  0  0  0  0
  2  1  1  1
  2  4  1  0
  3  2  1  0
  4  5  1  1
  6  4  1  0
  7  6  2  0
  8  9  1  0
 10  9  1  6
 10 11  1  0
 10 12  1  0
 11  6  1  0
 12 18  1  0
 12 13  2  0
 15 14  1  1
 16 15  1  0
 17 15  1  0
 17 18  1  1
 19 17  1  0
 19 20  1  0
 21 19  2  0
M  END
$$$$
