VSV.pdb
     RDKit          3D

 21 20  0  0  1  0  0  0  0  0999 V2000
   20.4592  -12.7994  -20.0809 C   0  0  0  0  0  0  0  0  0  0  0  0
   20.0191  -11.7358  -19.1040 C   0  0  1  0  0  0  0  0  0  0  0  0
   19.3236  -12.3541  -17.9291 C   0  0  0  0  0  0  0  0  0  0  0  0
   21.1756  -10.8450  -18.7004 C   0  0  2  0  0  0  0  0  0  0  0  0
   22.2592  -11.6774  -18.2832 N   0  0  0  0  0  0  0  0  0  0  0  0
   20.7861   -9.8289  -17.7172 C   0  0  0  0  0  0  0  0  0  0  0  0
   19.9461   -8.9613  -18.0353 O   0  0  0  0  0  0  0  0  0  0  0  0
   20.9028   -8.1186  -13.1326 O   0  0  0  0  0  0  0  0  0  0  0  0
   21.4033   -9.0477  -14.0389 C   0  0  0  0  0  0  0  0  0  0  0  0
   20.9464   -8.7485  -15.4482 C   0  0  2  0  0  0  0  0  0  0  0  0
   21.3163   -9.7625  -16.3854 N   0  0  0  0  0  0  0  0  0  0  0  0
   21.5679   -7.4641  -15.8476 C   0  0  0  0  0  0  0  0  0  0  0  0
   22.6943   -7.4596  -16.3642 O   0  0  0  0  0  0  0  0  0  0  0  0
   21.3495   -3.0317  -17.6096 C   0  0  0  0  0  0  0  0  0  0  0  0
   20.7667   -4.3491  -17.1808 C   0  0  2  0  0  0  0  0  0  0  0  0
   19.3196   -4.1593  -16.8477 C   0  0  0  0  0  0  0  0  0  0  0  0
   21.5439   -4.9523  -16.0187 C   0  0  2  0  0  0  0  0  0  0  0  0
   20.9241   -6.2087  -15.6646 N   0  0  0  0  0  0  0  0  0  0  0  0
   21.6230   -4.0249  -14.8672 C   0  0  0  0  0  0  0  0  0  0  0  0
   22.5101   -2.9819  -14.8668 O   0  0  0  0  0  0  0  0  0  0  0  0
   20.8737   -4.1858  -13.8738 O   0  0  0  0  0  0  0  0  0  0  0  0
  2  1  1  6
  2  4  1  0
  3  2  1  0
  4  5  1  1
  6  4  1  0
  7  6  2  0
  8  9  1  0
 10  9  1  1
 10 11  1  0
 10 12  1  0
 11  6  1  0
 12 18  1  0
 12 13  2  0
 15 14  1  1
 16 15  1  0
 17 15  1  0
 17 18  1  1
 19 17  1  0
 19 20  1  0
 21 19  2  0
M  END
$$$$
