VSV.pdb
     RDKit          3D

 21 20  0  0  1  0  0  0  0  0999 V2000
   18.2160  -15.0931  -18.9386 C   0  0  0  0  0  0  0  0  0  0  0  0
   17.4950  -13.8687  -18.4286 C   0  0  1  0  0  0  0  0  0  0  0  0
   16.5507  -14.2348  -17.3237 C   0  0  0  0  0  0  0  0  0  0  0  0
   18.4700  -12.7796  -18.0319 C   0  0  2  0  0  0  0  0  0  0  0  0
   19.4297  -13.3411  -17.1348 N   0  0  0  0  0  0  0  0  0  0  0  0
   17.7968  -11.5822  -17.5182 C   0  0  0  0  0  0  0  0  0  0  0  0
   17.0747  -10.9110  -18.2848 O   0  0  0  0  0  0  0  0  0  0  0  0
   16.1446  -11.0064  -13.7468 O   0  0  0  0  0  0  0  0  0  0  0  0
   17.0350  -10.0186  -14.1550 C   0  0  0  0  0  0  0  0  0  0  0  0
   17.1875   -9.9973  -15.6586 C   0  0  2  0  0  0  0  0  0  0  0  0
   17.9141  -11.1193  -16.1649 N   0  0  0  0  0  0  0  0  0  0  0  0
   17.9075   -8.7506  -16.0090 C   0  0  0  0  0  0  0  0  0  0  0  0
   19.1465   -8.7318  -15.9993 O   0  0  0  0  0  0  0  0  0  0  0  0
   17.8152   -4.4664  -18.4175 C   0  0  0  0  0  0  0  0  0  0  0  0
   17.1182   -5.6836  -17.8774 C   0  0  2  0  0  0  0  0  0  0  0  0
   15.7530   -5.2953  -17.4014 C   0  0  0  0  0  0  0  0  0  0  0  0
   17.9341   -6.3541  -16.7806 C   0  0  2  0  0  0  0  0  0  0  0  0
   17.2350   -7.5481  -16.3637 N   0  0  0  0  0  0  0  0  0  0  0  0
   18.1960   -5.4367  -15.6484 C   0  0  0  0  0  0  0  0  0  0  0  0
   19.2473   -4.5603  -15.6851 O   0  0  0  0  0  0  0  0  0  0  0  0
   17.4531   -5.4527  -14.6375 O   0  0  0  0  0  0  0  0  0  0  0  0
  2  1  1  1
  2  4  1  0
  3  2  1  0
  4  5  1  1
  6  4  1  0
  7  6  2  0
  8  9  1  0
 10  9  1  1
 10 11  1  0
 10 12  1  0
 11  6  1  0
 12 18  1  0
 12 13  2  0
 15 14  1  1
 16 15  1  0
 17 15  1  0
 17 18  1  1
 19 17  1  0
 19 20  1  0
 21 19  2  0
M  END
$$$$
