VSV.pdb
     RDKit          3D

 21 20  0  0  1  0  0  0  0  0999 V2000
   17.8751  -14.9647  -18.1199 C   0  0  0  0  0  0  0  0  0  0  0  0
   16.5231  -14.4178  -17.7301 C   0  0  1  0  0  0  0  0  0  0  0  0
   15.5676  -15.5342  -17.4351 C   0  0  0  0  0  0  0  0  0  0  0  0
   16.6369  -13.4253  -16.5916 C   0  0  2  0  0  0  0  0  0  0  0  0
   15.3350  -12.9042  -16.3183 N   0  0  0  0  0  0  0  0  0  0  0  0
   17.6544  -12.3988  -16.8402 C   0  0  0  0  0  0  0  0  0  0  0  0
   18.8478  -12.7413  -16.9747 O   0  0  0  0  0  0  0  0  0  0  0  0
   16.8207   -8.2864  -16.5158 O   0  0  0  0  0  0  0  0  0  0  0  0
   17.8100   -8.6330  -17.4303 C   0  0  0  0  0  0  0  0  0  0  0  0
   18.3750  -10.0048  -17.1418 C   0  0  2  0  0  0  0  0  0  0  0  0
   17.3654  -10.9968  -16.9415 N   0  0  0  0  0  0  0  0  0  0  0  0
   19.1982   -9.8912  -15.9151 C   0  0  0  0  0  0  0  0  0  0  0  0
   18.7001  -10.1586  -14.8124 O   0  0  0  0  0  0  0  0  0  0  0  0
   22.3315  -11.5780  -15.0152 C   0  0  0  0  0  0  0  0  0  0  0  0
   22.6230  -10.1103  -14.8738 C   0  0  2  0  0  0  0  0  0  0  0  0
   23.5436   -9.9036  -13.7116 C   0  0  0  0  0  0  0  0  0  0  0  0
   21.3431   -9.2969  -14.7379 C   0  0  2  0  0  0  0  0  0  0  0  0
   20.5606   -9.4822  -15.9386 N   0  0  0  0  0  0  0  0  0  0  0  0
   21.6232   -7.8680  -14.4693 C   0  0  0  0  0  0  0  0  0  0  0  0
   21.4328   -6.9218  -15.4405 O   0  0  0  0  0  0  0  0  0  0  0  0
   22.0403   -7.5070  -13.3424 O   0  0  0  0  0  0  0  0  0  0  0  0
  2  1  1  1
  2  4  1  0
  3  2  1  0
  4  5  1  6
  6  4  1  0
  7  6  2  0
  8  9  1  0
 10  9  1  1
 10 11  1  0
 10 12  1  0
 11  6  1  0
 12 18  1  0
 12 13  2  0
 15 14  1  1
 16 15  1  0
 17 15  1  0
 17 18  1  6
 19 17  1  0
 19 20  1  0
 21 19  2  0
M  END
$$$$
