YYN.pdb
     RDKit          3D

 33 34  0  0  1  0  0  0  0  0999 V2000
    5.7008  -13.0899   17.9564 O   0  0  0  0  0  0  0  0  0  0  0  0
    6.9486  -13.5269   18.3492 C   0  0  0  0  0  0  0  0  0  0  0  0
    7.2067  -14.8922   18.3355 C   0  0  0  0  0  0  0  0  0  0  0  0
    8.4656  -15.3452   18.7310 C   0  0  0  0  0  0  0  0  0  0  0  0
    9.4241  -14.4561   19.1241 C   0  0  0  0  0  0  0  0  0  0  0  0
   10.7585  -14.9503   19.5427 C   0  0  0  0  0  0  0  0  0  0  0  0
   11.7360  -14.9709   18.3828 C   0  0  2  0  0  0  0  0  0  0  0  0
   11.2034  -15.6884   17.2645 N   0  0  0  0  0  0  0  0  0  0  0  0
   13.0099  -15.5405   18.8880 C   0  0  0  0  0  0  0  0  0  0  0  0
   13.3810  -16.6440   18.4169 O   0  0  0  0  0  0  0  0  0  0  0  0
    9.1409  -13.0888   19.1295 C   0  0  0  0  0  0  0  0  0  0  0  0
    7.9097  -12.6200   18.7446 C   0  0  0  0  0  0  0  0  0  0  0  0
   18.2362  -12.8599   15.4347 O   0  0  0  0  0  0  0  0  0  0  0  0
   17.7192  -13.2409   16.6665 C   0  0  0  0  0  0  0  0  0  0  0  0
   16.6534  -12.5844   17.2342 C   0  0  0  0  0  0  0  0  0  0  0  0
   16.1449  -12.9732   18.4649 C   0  0  0  0  0  0  0  0  0  0  0  0
   16.6922  -14.0350   19.1640 C   0  0  0  0  0  0  0  0  0  0  0  0
   16.1101  -14.4146   20.4825 C   0  0  0  0  0  0  0  0  0  0  0  0
   15.0221  -15.4490   20.2935 C   0  0  2  0  0  0  0  0  0  0  0  0
   13.7864  -14.8752   19.8636 N   0  0  0  0  0  0  0  0  0  0  0  0
   14.8400  -16.1333   21.6220 C   0  0  0  0  0  0  0  0  0  0  0  0
   15.8049  -16.5920   22.2766 O   0  0  0  0  0  0  0  0  0  0  0  0
   17.7537  -14.6907   18.6013 C   0  0  0  0  0  0  0  0  0  0  0  0
   18.2635  -14.3018   17.3688 C   0  0  0  0  0  0  0  0  0  0  0  0
   10.4425  -18.2299   25.2375 N   0  0  0  0  0  0  0  0  0  0  0  0
   11.5792  -17.3650   25.1151 C   0  0  0  0  0  0  0  0  0  0  0  0
   12.3124  -17.2532   26.1394 O   0  0  0  0  0  0  0  0  0  0  0  0
   11.8351  -16.6636   23.8351 C   0  0  0  0  0  0  0  0  0  0  0  0
   13.1995  -16.9864   23.3361 C   0  0  2  0  0  0  0  0  0  0  0  0
   13.5437  -16.2550   22.1325 N   0  0  0  0  0  0  0  0  0  0  0  0
   13.4393  -18.4287   23.1201 C   0  0  0  0  0  0  0  0  0  0  0  0
   13.1650  -19.0479   22.0632 O   0  0  0  0  0  0  0  0  0  0  0  0
   14.0140  -19.1570   24.1699 O   0  0  0  0  0  0  0  0  0  0  0  0
  2  3  2  0
  2  1  1  0
  4  3  1  0
  5  4  2  0
  6  5  1  0
  7  6  1  0
  7  8  1  6
  9  7  1  0
  9 10  2  0
 11  5  1  0
 11 12  2  0
 12  2  1  0
 13 14  1  0
 14 24  2  0
 15 16  2  0
 15 14  1  0
 16 17  1  0
 17 23  2  0
 17 18  1  0
 19 20  1  0
 19 18  1  1
 20  9  1  0
 21 19  1  0
 22 21  2  0
 24 23  1  0
 25 26  1  0
 26 28  1  0
 27 26  2  0
 29 28  1  6
 29 30  1  0
 30 21  1  0
 31 29  1  0
 31 33  1  0
 32 31  2  0
M  END
$$$$
