YYN.pdb
     RDKit          3D

 33 34  0  0  1  0  0  0  0  0999 V2000
   14.4332  -16.7464    8.5092 O   0  0  0  0  0  0  0  0  0  0  0  0
   14.4040  -16.8991    9.8796 C   0  0  0  0  0  0  0  0  0  0  0  0
   13.9427  -18.1012   10.4023 C   0  0  0  0  0  0  0  0  0  0  0  0
   13.9089  -18.2664   11.7872 C   0  0  0  0  0  0  0  0  0  0  0  0
   14.3237  -17.2592   12.6102 C   0  0  0  0  0  0  0  0  0  0  0  0
   14.2825  -17.4469   14.0810 C   0  0  0  0  0  0  0  0  0  0  0  0
   12.8665  -17.3534   14.6169 C   0  0  2  0  0  0  0  0  0  0  0  0
   12.2943  -16.0672   14.3572 N   0  0  0  0  0  0  0  0  0  0  0  0
   12.9175  -17.6879   16.0619 C   0  0  0  0  0  0  0  0  0  0  0  0
   13.1146  -16.7471   16.8702 O   0  0  0  0  0  0  0  0  0  0  0  0
   14.7832  -16.0603   12.0613 C   0  0  0  0  0  0  0  0  0  0  0  0
   14.8255  -15.8751   10.7020 C   0  0  0  0  0  0  0  0  0  0  0  0
   12.6514  -21.5191   23.8949 O   0  0  0  0  0  0  0  0  0  0  0  0
   12.4659  -21.2391   22.5470 C   0  0  0  0  0  0  0  0  0  0  0  0
   13.1070  -21.9591   21.5671 C   0  0  0  0  0  0  0  0  0  0  0  0
   12.9145  -21.6711   20.2239 C   0  0  0  0  0  0  0  0  0  0  0  0
   12.0710  -20.6495   19.8231 C   0  0  0  0  0  0  0  0  0  0  0  0
   11.8970  -20.3791   18.3678 C   0  0  0  0  0  0  0  0  0  0  0  0
   12.8480  -19.2896   17.9227 C   0  0  2  0  0  0  0  0  0  0  0  0
   12.7518  -19.0131   16.5244 N   0  0  0  0  0  0  0  0  0  0  0  0
   14.2365  -19.7618   18.2622 C   0  0  0  0  0  0  0  0  0  0  0  0
   14.9110  -20.4734   17.4821 O   0  0  0  0  0  0  0  0  0  0  0  0
   11.4313  -19.9308   20.7965 C   0  0  0  0  0  0  0  0  0  0  0  0
   11.6235  -20.2187   22.1420 C   0  0  0  0  0  0  0  0  0  0  0  0
   18.7084  -20.1635   19.0823 N   0  0  0  0  0  0  0  0  0  0  0  0
   18.3543  -18.7882   18.8866 C   0  0  0  0  0  0  0  0  0  0  0  0
   19.2778  -18.0221   18.4872 O   0  0  0  0  0  0  0  0  0  0  0  0
   16.9668  -18.3410   19.1527 C   0  0  0  0  0  0  0  0  0  0  0  0
   16.1948  -19.4275   19.8148 C   0  0  2  0  0  0  0  0  0  0  0  0
   14.7814  -19.3863   19.4942 N   0  0  0  0  0  0  0  0  0  0  0  0
   16.3645  -19.4828   21.2819 C   0  0  0  0  0  0  0  0  0  0  0  0
   15.5143  -19.9434   22.0824 O   0  0  0  0  0  0  0  0  0  0  0  0
   17.5598  -18.9857   21.8178 O   0  0  0  0  0  0  0  0  0  0  0  0
  2  3  2  0
  2  1  1  0
  4  3  1  0
  5  4  2  0
  6  5  1  0
  7  6  1  0
  7  8  1  1
  9  7  1  0
  9 10  2  0
 11  5  1  0
 11 12  2  0
 12  2  1  0
 13 14  1  0
 14 24  2  0
 15 16  2  0
 15 14  1  0
 16 17  1  0
 17 23  2  0
 17 18  1  0
 19 20  1  0
 19 18  1  6
 20  9  1  0
 21 19  1  0
 22 21  2  0
 24 23  1  0
 25 26  1  0
 26 28  1  0
 27 26  2  0
 29 28  1  1
 29 30  1  0
 30 21  1  0
 31 29  1  0
 31 33  1  0
 32 31  2  0
M  END
$$$$
