YYN.pdb
     RDKit          3D

 33 34  0  0  1  0  0  0  0  0999 V2000
    7.3475  -14.2567   14.5161 O   0  0  0  0  0  0  0  0  0  0  0  0
    7.9189  -14.2384   15.7713 C   0  0  0  0  0  0  0  0  0  0  0  0
    7.6058  -13.1886   16.6261 C   0  0  0  0  0  0  0  0  0  0  0  0
    8.1783  -13.1601   17.8981 C   0  0  0  0  0  0  0  0  0  0  0  0
    9.0316  -14.1509   18.2905 C   0  0  0  0  0  0  0  0  0  0  0  0
    9.6340  -14.1091   19.6453 C   0  0  0  0  0  0  0  0  0  0  0  0
    9.8016  -15.5006   20.2256 C   0  0  2  0  0  0  0  0  0  0  0  0
    8.7080  -16.3512   19.8655 N   0  0  0  0  0  0  0  0  0  0  0  0
    9.9654  -15.3511   21.6930 C   0  0  0  0  0  0  0  0  0  0  0  0
   11.0158  -14.8017   22.1081 O   0  0  0  0  0  0  0  0  0  0  0  0
    9.3308  -15.1956   17.4136 C   0  0  0  0  0  0  0  0  0  0  0  0
    8.7797  -15.2445   16.1576 C   0  0  0  0  0  0  0  0  0  0  0  0
    6.5665  -11.3865   28.5272 O   0  0  0  0  0  0  0  0  0  0  0  0
    6.7487  -12.1397   27.3743 C   0  0  0  0  0  0  0  0  0  0  0  0
    7.4814  -11.6652   26.3125 C   0  0  0  0  0  0  0  0  0  0  0  0
    7.6571  -12.4258   25.1658 C   0  0  0  0  0  0  0  0  0  0  0  0
    7.1015  -13.6882   25.0504 C   0  0  0  0  0  0  0  0  0  0  0  0
    7.3192  -14.4666   23.7981 C   0  0  0  0  0  0  0  0  0  0  0  0
    8.7135  -15.0540   23.7852 C   0  0  2  0  0  0  0  0  0  0  0  0
    8.9825  -15.8062   22.6008 N   0  0  0  0  0  0  0  0  0  0  0  0
    8.8207  -15.9412   24.9967 C   0  0  0  0  0  0  0  0  0  0  0  0
    8.4670  -15.5622   26.1374 O   0  0  0  0  0  0  0  0  0  0  0  0
    6.3714  -14.1635   26.1060 C   0  0  0  0  0  0  0  0  0  0  0  0
    6.1949  -13.4023   27.2548 C   0  0  0  0  0  0  0  0  0  0  0  0
    8.5435  -20.3688   23.2972 N   0  0  0  0  0  0  0  0  0  0  0  0
    9.4468  -20.0641   24.3679 C   0  0  0  0  0  0  0  0  0  0  0  0
   10.6707  -20.3003   24.1544 O   0  0  0  0  0  0  0  0  0  0  0  0
    8.9222  -19.5040   25.6357 C   0  0  0  0  0  0  0  0  0  0  0  0
    9.5423  -18.1788   25.9075 C   0  0  2  0  0  0  0  0  0  0  0  0
    9.3344  -17.2312   24.8300 N   0  0  0  0  0  0  0  0  0  0  0  0
   10.9819  -18.2405   26.2366 C   0  0  0  0  0  0  0  0  0  0  0  0
   11.4751  -18.9382   27.1561 O   0  0  0  0  0  0  0  0  0  0  0  0
   11.8589  -17.4648   25.4671 O   0  0  0  0  0  0  0  0  0  0  0  0
  2  3  2  0
  2  1  1  0
  4  3  1  0
  5  4  2  0
  6  5  1  0
  7  6  1  0
  7  8  1  1
  9  7  1  0
  9 10  2  0
 11  5  1  0
 11 12  2  0
 12  2  1  0
 13 14  1  0
 14 24  2  0
 15 16  2  0
 15 14  1  0
 16 17  1  0
 17 23  2  0
 17 18  1  0
 19 20  1  0
 19 18  1  6
 20  9  1  0
 21 19  1  0
 22 21  2  0
 24 23  1  0
 25 26  1  0
 26 28  1  0
 27 26  2  0
 29 28  1  6
 29 30  1  0
 30 21  1  0
 31 29  1  0
 31 33  1  0
 32 31  2  0
M  END
$$$$
