YYN.pdb
     RDKit          3D

 33 34  0  0  1  0  0  0  0  0999 V2000
   13.8185  -19.4713   11.5130 O   0  0  0  0  0  0  0  0  0  0  0  0
   13.8153  -18.7606   12.6950 C   0  0  0  0  0  0  0  0  0  0  0  0
   12.8431  -19.0563   13.6429 C   0  0  0  0  0  0  0  0  0  0  0  0
   12.8306  -18.3433   14.8421 C   0  0  0  0  0  0  0  0  0  0  0  0
   13.7614  -17.3720   15.0743 C   0  0  0  0  0  0  0  0  0  0  0  0
   13.7373  -16.6208   16.3531 C   0  0  0  0  0  0  0  0  0  0  0  0
   12.5417  -15.6905   16.4323 C   0  0  2  0  0  0  0  0  0  0  0  0
   12.5831  -14.6987   15.4010 N   0  0  0  0  0  0  0  0  0  0  0  0
   12.5222  -15.1108   17.7984 C   0  0  0  0  0  0  0  0  0  0  0  0
   13.1968  -14.0705   17.9986 O   0  0  0  0  0  0  0  0  0  0  0  0
   14.7284  -17.0929   14.1064 C   0  0  0  0  0  0  0  0  0  0  0  0
   14.7603  -17.7812   12.9194 C   0  0  0  0  0  0  0  0  0  0  0  0
    6.4887  -12.6950   17.7210 O   0  0  0  0  0  0  0  0  0  0  0  0
    7.4696  -13.3069   18.4910 C   0  0  0  0  0  0  0  0  0  0  0  0
    8.3805  -12.5729   19.2128 C   0  0  0  0  0  0  0  0  0  0  0  0
    9.3560  -13.1943   19.9787 C   0  0  0  0  0  0  0  0  0  0  0  0
    9.4466  -14.5739   20.0431 C   0  0  0  0  0  0  0  0  0  0  0  0
   10.5122  -15.1942   20.8804 C   0  0  0  0  0  0  0  0  0  0  0  0
   11.8406  -15.1399   20.1580 C   0  0  2  0  0  0  0  0  0  0  0  0
   11.7757  -15.6986   18.8447 N   0  0  0  0  0  0  0  0  0  0  0  0
   12.8228  -15.9100   20.9996 C   0  0  0  0  0  0  0  0  0  0  0  0
   12.7162  -17.1433   21.1929 O   0  0  0  0  0  0  0  0  0  0  0  0
    8.5410  -15.3074   19.3255 C   0  0  0  0  0  0  0  0  0  0  0  0
    7.5637  -14.6859   18.5582 C   0  0  0  0  0  0  0  0  0  0  0  0
   16.4268  -13.8268   19.9791 N   0  0  0  0  0  0  0  0  0  0  0  0
   16.6112  -15.0561   20.6931 C   0  0  0  0  0  0  0  0  0  0  0  0
   17.0684  -16.0291   20.0270 O   0  0  0  0  0  0  0  0  0  0  0  0
   16.2688  -15.1287   22.1331 C   0  0  0  0  0  0  0  0  0  0  0  0
   14.9708  -15.8328   22.3178 C   0  0  2  0  0  0  0  0  0  0  0  0
   13.8871  -15.2130   21.5804 N   0  0  0  0  0  0  0  0  0  0  0  0
   14.5700  -16.0024   23.7302 C   0  0  0  0  0  0  0  0  0  0  0  0
   13.4910  -15.5897   24.2210 O   0  0  0  0  0  0  0  0  0  0  0  0
   15.4580  -16.6719   24.5825 O   0  0  0  0  0  0  0  0  0  0  0  0
  2  3  2  0
  2  1  1  0
  4  3  1  0
  5  4  2  0
  6  5  1  0
  7  6  1  0
  7  8  1  6
  9  7  1  0
  9 10  2  0
 11  5  1  0
 11 12  2  0
 12  2  1  0
 13 14  1  0
 14 24  2  0
 15 16  2  0
 15 14  1  0
 16 17  1  0
 17 23  2  0
 17 18  1  0
 19 20  1  0
 19 18  1  1
 20  9  1  0
 21 19  1  0
 22 21  2  0
 24 23  1  0
 25 26  1  0
 26 28  1  0
 27 26  2  0
 29 28  1  1
 29 30  1  0
 30 21  1  0
 31 29  1  0
 31 33  1  0
 32 31  2  0
M  END
$$$$
