YYN.pdb
     RDKit          3D

 33 34  0  0  1  0  0  0  0  0999 V2000
    8.3770  -11.5866   27.7048 O   0  0  0  0  0  0  0  0  0  0  0  0
    7.7845  -12.5455   26.9098 C   0  0  0  0  0  0  0  0  0  0  0  0
    6.3974  -12.6268   26.8930 C   0  0  0  0  0  0  0  0  0  0  0  0
    5.7876  -13.5931   26.0924 C   0  0  0  0  0  0  0  0  0  0  0  0
    6.5472  -14.4421   25.3401 C   0  0  0  0  0  0  0  0  0  0  0  0
    5.8870  -15.4654   24.4934 C   0  0  0  0  0  0  0  0  0  0  0  0
    6.7103  -16.7367   24.4087 C   0  0  2  0  0  0  0  0  0  0  0  0
    7.4197  -16.9809   25.6279 N   0  0  0  0  0  0  0  0  0  0  0  0
    7.6033  -16.6077   23.2303 C   0  0  0  0  0  0  0  0  0  0  0  0
    7.0667  -16.4005   22.1138 O   0  0  0  0  0  0  0  0  0  0  0  0
    7.9395  -14.3408   25.3738 C   0  0  0  0  0  0  0  0  0  0  0  0
    8.5614  -13.3982   26.1537 C   0  0  0  0  0  0  0  0  0  0  0  0
    6.6567  -13.5579   17.4193 O   0  0  0  0  0  0  0  0  0  0  0  0
    7.3796  -13.8295   18.5740 C   0  0  0  0  0  0  0  0  0  0  0  0
    7.5632  -12.8781   19.5490 C   0  0  0  0  0  0  0  0  0  0  0  0
    8.2869  -13.1600   20.6984 C   0  0  0  0  0  0  0  0  0  0  0  0
    8.8492  -14.4080   20.9040 C   0  0  0  0  0  0  0  0  0  0  0  0
    9.6175  -14.6620   22.1556 C   0  0  0  0  0  0  0  0  0  0  0  0
    9.8440  -16.1471   22.3359 C   0  0  2  0  0  0  0  0  0  0  0  0
    9.0078  -16.7122   23.3471 N   0  0  0  0  0  0  0  0  0  0  0  0
   11.2927  -16.3223   22.7054 C   0  0  0  0  0  0  0  0  0  0  0  0
   12.2166  -15.7508   22.0812 O   0  0  0  0  0  0  0  0  0  0  0  0
    8.6680  -15.3573   19.9349 C   0  0  0  0  0  0  0  0  0  0  0  0
    7.9434  -15.0758   18.7834 C   0  0  0  0  0  0  0  0  0  0  0  0
   11.4487  -21.1316   21.9923 N   0  0  0  0  0  0  0  0  0  0  0  0
   12.5188  -20.3926   22.5956 C   0  0  0  0  0  0  0  0  0  0  0  0
   13.3565  -21.0631   23.2649 O   0  0  0  0  0  0  0  0  0  0  0  0
   12.5924  -18.9238   22.4134 C   0  0  0  0  0  0  0  0  0  0  0  0
   12.5653  -18.2401   23.7349 C   0  0  2  0  0  0  0  0  0  0  0  0
   11.6053  -17.1547   23.7848 N   0  0  0  0  0  0  0  0  0  0  0  0
   13.8836  -17.7513   24.1904 C   0  0  0  0  0  0  0  0  0  0  0  0
   14.8759  -18.4841   24.4227 O   0  0  0  0  0  0  0  0  0  0  0  0
   14.0370  -16.3710   24.3762 O   0  0  0  0  0  0  0  0  0  0  0  0
  2  3  2  0
  2  1  1  0
  4  3  1  0
  5  4  2  0
  6  5  1  0
  7  6  1  0
  7  8  1  1
  9  7  1  0
  9 10  2  0
 11  5  1  0
 11 12  2  0
 12  2  1  0
 13 14  1  0
 14 24  2  0
 15 16  2  0
 15 14  1  0
 16 17  1  0
 17 23  2  0
 17 18  1  0
 19 20  1  0
 19 18  1  1
 20  9  1  0
 21 19  1  0
 22 21  2  0
 24 23  1  0
 25 26  1  0
 26 28  1  0
 27 26  2  0
 29 28  1  6
 29 30  1  0
 30 21  1  0
 31 29  1  0
 31 33  1  0
 32 31  2  0
M  END
$$$$
