YYN.pdb
     RDKit          3D

 33 34  0  0  1  0  0  0  0  0999 V2000
    5.3316  -17.9409   15.2779 O   0  0  0  0  0  0  0  0  0  0  0  0
    5.9867  -17.7252   16.4723 C   0  0  0  0  0  0  0  0  0  0  0  0
    7.3753  -17.7755   16.4843 C   0  0  0  0  0  0  0  0  0  0  0  0
    8.0482  -17.5588   17.6871 C   0  0  0  0  0  0  0  0  0  0  0  0
    7.3477  -17.3020   18.8304 C   0  0  0  0  0  0  0  0  0  0  0  0
    8.0747  -17.0737   20.1030 C   0  0  0  0  0  0  0  0  0  0  0  0
    8.5883  -15.6501   20.2056 C   0  0  2  0  0  0  0  0  0  0  0  0
    9.5178  -15.3541   19.1579 N   0  0  0  0  0  0  0  0  0  0  0  0
    9.1670  -15.4854   21.5623 C   0  0  0  0  0  0  0  0  0  0  0  0
   10.3903  -15.7309   21.7067 O   0  0  0  0  0  0  0  0  0  0  0  0
    5.9525  -17.2566   18.7931 C   0  0  0  0  0  0  0  0  0  0  0  0
    5.2692  -17.4666   17.6215 C   0  0  0  0  0  0  0  0  0  0  0  0
   10.3409  -14.6473   30.1751 O   0  0  0  0  0  0  0  0  0  0  0  0
    9.7900  -14.5587   28.9030 C   0  0  0  0  0  0  0  0  0  0  0  0
    8.9721  -15.5435   28.4023 C   0  0  0  0  0  0  0  0  0  0  0  0
    8.4272  -15.4449   27.1304 C   0  0  0  0  0  0  0  0  0  0  0  0
    8.6874  -14.3524   26.3213 C   0  0  0  0  0  0  0  0  0  0  0  0
    8.0779  -14.2925   24.9626 C   0  0  0  0  0  0  0  0  0  0  0  0
    8.9669  -14.9968   23.9611 C   0  0  2  0  0  0  0  0  0  0  0  0
    8.3809  -15.0680   22.6600 N   0  0  0  0  0  0  0  0  0  0  0  0
    9.2081  -16.3831   24.4961 C   0  0  0  0  0  0  0  0  0  0  0  0
    8.3217  -17.2685   24.4852 O   0  0  0  0  0  0  0  0  0  0  0  0
    9.5014  -13.3702   26.8171 C   0  0  0  0  0  0  0  0  0  0  0  0
   10.0476  -13.4682   28.0908 C   0  0  0  0  0  0  0  0  0  0  0  0
   11.6063  -21.1262   24.1285 N   0  0  0  0  0  0  0  0  0  0  0  0
   12.2636  -19.9311   24.5698 C   0  0  0  0  0  0  0  0  0  0  0  0
   13.2954  -20.0888   25.2839 O   0  0  0  0  0  0  0  0  0  0  0  0
   11.7217  -18.6075   24.1817 C   0  0  0  0  0  0  0  0  0  0  0  0
   10.9461  -18.0196   25.3076 C   0  0  2  0  0  0  0  0  0  0  0  0
   10.4698  -16.6805   25.0210 N   0  0  0  0  0  0  0  0  0  0  0  0
   11.6618  -18.0203   26.6007 C   0  0  0  0  0  0  0  0  0  0  0  0
   12.5161  -17.1674   26.9447 O   0  0  0  0  0  0  0  0  0  0  0  0
   11.3654  -19.0462   27.5078 O   0  0  0  0  0  0  0  0  0  0  0  0
  2  3  2  0
  2  1  1  0
  4  3  1  0
  5  4  2  0
  6  5  1  0
  7  6  1  0
  7  8  1  6
  9  7  1  0
  9 10  2  0
 11  5  1  0
 11 12  2  0
 12  2  1  0
 13 14  1  0
 14 24  2  0
 15 16  2  0
 15 14  1  0
 16 17  1  0
 17 23  2  0
 17 18  1  0
 19 20  1  0
 19 18  1  1
 20  9  1  0
 21 19  1  0
 22 21  2  0
 24 23  1  0
 25 26  1  0
 26 28  1  0
 27 26  2  0
 29 28  1  6
 29 30  1  0
 30 21  1  0
 31 29  1  0
 31 33  1  0
 32 31  2  0
M  END
$$$$
