YYN.pdb
     RDKit          3D

 33 34  0  0  1  0  0  0  0  0999 V2000
   11.1278  -14.4894   30.3387 O   0  0  0  0  0  0  0  0  0  0  0  0
   10.2364  -14.6372   29.2967 C   0  0  0  0  0  0  0  0  0  0  0  0
    9.7147  -15.9004   29.0457 C   0  0  0  0  0  0  0  0  0  0  0  0
    8.8121  -16.0613   27.9940 C   0  0  0  0  0  0  0  0  0  0  0  0
    8.4515  -14.9907   27.2276 C   0  0  0  0  0  0  0  0  0  0  0  0
    7.4913  -15.1747   26.1121 C   0  0  0  0  0  0  0  0  0  0  0  0
    7.8371  -16.3894   25.2717 C   0  0  2  0  0  0  0  0  0  0  0  0
    9.2494  -16.6213   25.2464 N   0  0  0  0  0  0  0  0  0  0  0  0
    7.2574  -16.1734   23.9226 C   0  0  0  0  0  0  0  0  0  0  0  0
    6.0287  -16.3881   23.7762 O   0  0  0  0  0  0  0  0  0  0  0  0
    8.9893  -13.7310   27.4993 C   0  0  0  0  0  0  0  0  0  0  0  0
    9.8788  -13.5488   28.5285 C   0  0  0  0  0  0  0  0  0  0  0  0
    6.6300  -11.1587   18.7823 O   0  0  0  0  0  0  0  0  0  0  0  0
    7.2253  -12.3306   19.2318 C   0  0  0  0  0  0  0  0  0  0  0  0
    6.8865  -13.5563   18.7100 C   0  0  0  0  0  0  0  0  0  0  0  0
    7.4873  -14.7205   19.1662 C   0  0  0  0  0  0  0  0  0  0  0  0
    8.4482  -14.6891   20.1619 C   0  0  0  0  0  0  0  0  0  0  0  0
    9.0648  -15.9671   20.6178 C   0  0  0  0  0  0  0  0  0  0  0  0
    8.2178  -16.5968   21.7020 C   0  0  2  0  0  0  0  0  0  0  0  0
    8.0487  -15.7419   22.8340 N   0  0  0  0  0  0  0  0  0  0  0  0
    8.9142  -17.8668   22.1124 C   0  0  0  0  0  0  0  0  0  0  0  0
    8.4046  -18.9974   21.9340 O   0  0  0  0  0  0  0  0  0  0  0  0
    8.7877  -13.4700   20.6833 C   0  0  0  0  0  0  0  0  0  0  0  0
    8.1864  -12.3036   20.2270 C   0  0  0  0  0  0  0  0  0  0  0  0
   13.6296  -19.4350   21.0961 N   0  0  0  0  0  0  0  0  0  0  0  0
   12.8655  -18.5715   20.2444 C   0  0  0  0  0  0  0  0  0  0  0  0
   13.2737  -18.4531   19.0533 O   0  0  0  0  0  0  0  0  0  0  0  0
   11.6702  -17.8790   20.7810 C   0  0  0  0  0  0  0  0  0  0  0  0
   11.3905  -18.3376   22.1689 C   0  0  2  0  0  0  0  0  0  0  0  0
   10.1734  -17.7677   22.7128 N   0  0  0  0  0  0  0  0  0  0  0  0
   12.5033  -18.1146   23.1156 C   0  0  0  0  0  0  0  0  0  0  0  0
   13.6806  -18.5134   22.9408 O   0  0  0  0  0  0  0  0  0  0  0  0
   12.2243  -17.4073   24.2925 O   0  0  0  0  0  0  0  0  0  0  0  0
  2  3  2  0
  2  1  1  0
  4  3  1  0
  5  4  2  0
  6  5  1  0
  7  6  1  0
  7  8  1  6
  9  7  1  0
  9 10  2  0
 11  5  1  0
 11 12  2  0
 12  2  1  0
 13 14  1  0
 14 24  2  0
 15 16  2  0
 15 14  1  0
 16 17  1  0
 17 23  2  0
 17 18  1  0
 19 20  1  0
 19 18  1  6
 20  9  1  0
 21 19  1  0
 22 21  2  0
 24 23  1  0
 25 26  1  0
 26 28  1  0
 27 26  2  0
 29 28  1  6
 29 30  1  0
 30 21  1  0
 31 29  1  0
 31 33  1  0
 32 31  2  0
M  END
$$$$
