LDY.pdb
     RDKit          3D

 29 29  0  0  1  0  0  0  0  0999 V2000
   26.7296  -34.6142  -10.9762 C   0  0  0  0  0  0  0  0  0  0  0  0
   25.9898  -34.1506   -9.7765 C   0  0  1  0  0  0  0  0  0  0  0  0
   24.6889  -34.9393   -9.6686 C   0  0  0  0  0  0  0  0  0  0  0  0
   26.7123  -34.0735   -8.4954 C   0  0  0  0  0  0  0  0  0  0  0  0
   26.0141  -33.5779   -7.2833 C   0  0  2  0  0  0  0  0  0  0  0  0
   25.6698  -32.1524   -7.4535 N   0  0  0  0  0  0  0  0  0  0  0  0
   26.7394  -33.6984   -6.0061 C   0  0  0  0  0  0  0  0  0  0  0  0
   27.6112  -32.8745   -5.5994 O   0  0  0  0  0  0  0  0  0  0  0  0
   26.5265  -34.7829   -5.0703 N   0  0  0  0  0  0  0  0  0  0  0  0
   27.2774  -34.9584   -3.8745 C   0  0  1  0  0  0  0  0  0  0  0  0
   26.4841  -35.3547   -2.6567 C   0  0  0  0  0  0  0  0  0  0  0  0
   25.8807  -34.1443   -2.0721 C   0  0  0  0  0  0  0  0  0  0  0  0
   26.3603  -32.9869   -2.1632 O   0  0  0  0  0  0  0  0  0  0  0  0
   28.4709  -35.8349   -4.0663 C   0  0  0  0  0  0  0  0  0  0  0  0
   28.3599  -36.7889   -4.8825 O   0  0  0  0  0  0  0  0  0  0  0  0
   24.6839  -34.2617   -1.3538 O   0  0  0  0  0  0  0  0  0  0  0  0
   34.1593  -31.7682   -6.6601 O   0  0  0  0  0  0  0  0  0  0  0  0
   33.4301  -32.9035   -6.2647 C   0  0  0  0  0  0  0  0  0  0  0  0
   33.7994  -33.6875   -5.1996 C   0  0  0  0  0  0  0  0  0  0  0  0
   33.0366  -34.8040   -4.8530 C   0  0  0  0  0  0  0  0  0  0  0  0
   31.9056  -35.1428   -5.5652 C   0  0  0  0  0  0  0  0  0  0  0  0
   31.1325  -36.3170   -5.1746 C   0  0  0  0  0  0  0  0  0  0  0  0
   30.8914  -36.4646   -3.6923 C   0  0  2  0  0  0  0  0  0  0  0  0
   29.6904  -35.6720   -3.4076 N   0  0  0  0  0  0  0  0  0  0  0  0
   32.0266  -36.0484   -2.8568 C   0  0  0  0  0  0  0  0  0  0  0  0
   32.0352  -35.0412   -2.0858 O   0  0  0  0  0  0  0  0  0  0  0  0
   31.5490  -34.3502   -6.6275 C   0  0  0  0  0  0  0  0  0  0  0  0
   32.2918  -33.2315   -6.9939 C   0  0  0  0  0  0  0  0  0  0  0  0
   33.1832  -36.8067   -2.9060 O   0  0  0  0  0  0  0  0  0  0  0  0
  2  4  1  0
  2  1  1  6
  3  2  1  0
  5  7  1  0
  5  6  1  6
  5  4  1  0
  7  8  2  0
  9  7  1  0
 10  9  1  0
 10 11  1  1
 12 11  1  0
 13 12  2  0
 14 15  2  0
 14 10  1  0
 16 12  1  0
 17 18  1  0
 18 19  2  0
 19 20  1  0
 21 20  2  0
 21 22  1  0
 23 22  1  6
 23 24  1  0
 23 25  1  0
 24 14  1  0
 25 29  1  0
 26 25  2  0
 27 21  1  0
 28 18  1  0
 28 27  2  0
M  END
$$$$
