LDY.pdb
     RDKit          3D

 29 29  0  0  1  0  0  0  0  0999 V2000
   23.4557  -15.1319  -21.0816 C   0  0  0  0  0  0  0  0  0  0  0  0
   22.4514  -14.7967  -20.0422 C   0  0  1  0  0  0  0  0  0  0  0  0
   22.5522  -15.8201  -18.9159 C   0  0  0  0  0  0  0  0  0  0  0  0
   22.3951  -13.4117  -19.5445 C   0  0  0  0  0  0  0  0  0  0  0  0
   21.4237  -13.0479  -18.4832 C   0  0  2  0  0  0  0  0  0  0  0  0
   20.0884  -13.5758  -18.8268 N   0  0  0  0  0  0  0  0  0  0  0  0
   21.2610  -11.6110  -18.1993 C   0  0  0  0  0  0  0  0  0  0  0  0
   22.2088  -10.8350  -17.8771 O   0  0  0  0  0  0  0  0  0  0  0  0
   19.9859  -10.9276  -18.2626 N   0  0  0  0  0  0  0  0  0  0  0  0
   19.8060   -9.5520  -17.9465 C   0  0  1  0  0  0  0  0  0  0  0  0
   18.6533   -8.8685  -18.6346 C   0  0  0  0  0  0  0  0  0  0  0  0
   18.6728   -7.4386  -18.2800 C   0  0  0  0  0  0  0  0  0  0  0  0
   17.7584   -6.8395  -17.6610 O   0  0  0  0  0  0  0  0  0  0  0  0
   19.8042   -9.2934  -16.4759 C   0  0  0  0  0  0  0  0  0  0  0  0
   19.1100  -10.0612  -15.7568 O   0  0  0  0  0  0  0  0  0  0  0  0
   19.7791   -6.6628  -18.6490 O   0  0  0  0  0  0  0  0  0  0  0  0
   25.0195   -3.9214  -16.5088 O   0  0  0  0  0  0  0  0  0  0  0  0
   24.2570   -4.9156  -15.8708 C   0  0  0  0  0  0  0  0  0  0  0  0
   23.4062   -4.6420  -14.8283 C   0  0  0  0  0  0  0  0  0  0  0  0
   22.6740   -5.6703  -14.2325 C   0  0  0  0  0  0  0  0  0  0  0  0
   22.7869   -6.9722  -14.6722 C   0  0  0  0  0  0  0  0  0  0  0  0
   22.0063   -8.0218  -14.0255 C   0  0  0  0  0  0  0  0  0  0  0  0
   20.5442   -8.0578  -14.3973 C   0  0  2  0  0  0  0  0  0  0  0  0
   20.5117   -8.2669  -15.8487 N   0  0  0  0  0  0  0  0  0  0  0  0
   19.7971   -6.8543  -14.0058 C   0  0  0  0  0  0  0  0  0  0  0  0
   19.5807   -6.4854  -12.8116 O   0  0  0  0  0  0  0  0  0  0  0  0
   23.6413   -7.2307  -15.7147 C   0  0  0  0  0  0  0  0  0  0  0  0
   24.3827   -6.2239  -16.3264 C   0  0  0  0  0  0  0  0  0  0  0  0
   19.2841   -6.0516  -15.0096 O   0  0  0  0  0  0  0  0  0  0  0  0
  2  4  1  0
  2  1  1  6
  3  2  1  0
  5  7  1  0
  5  6  1  6
  5  4  1  0
  7  8  2  0
  9  7  1  0
 10  9  1  0
 10 11  1  1
 12 11  1  0
 13 12  2  0
 14 15  2  0
 14 10  1  0
 16 12  1  0
 17 18  1  0
 18 19  2  0
 19 20  1  0
 21 20  2  0
 21 22  1  0
 23 22  1  6
 23 24  1  0
 23 25  1  0
 24 14  1  0
 25 29  1  0
 26 25  2  0
 27 21  1  0
 28 18  1  0
 28 27  2  0
M  END
$$$$
