LDY.pdb
     RDKit          3D

 29 29  0  0  1  0  0  0  0  0999 V2000
   27.4356  -15.2707  -16.7655 C   0  0  0  0  0  0  0  0  0  0  0  0
   27.7291  -16.6597  -16.3343 C   0  0  1  0  0  0  0  0  0  0  0  0
   29.2331  -16.8943  -16.4293 C   0  0  0  0  0  0  0  0  0  0  0  0
   27.1626  -17.1308  -15.0591 C   0  0  0  0  0  0  0  0  0  0  0  0
   27.5840  -18.4411  -14.5039 C   0  0  2  0  0  0  0  0  0  0  0  0
   27.6982  -19.4311  -15.5932 N   0  0  0  0  0  0  0  0  0  0  0  0
   26.7149  -19.0324  -13.4710 C   0  0  0  0  0  0  0  0  0  0  0  0
   26.0587  -18.3616  -12.6203 O   0  0  0  0  0  0  0  0  0  0  0  0
   26.5159  -20.4589  -13.3209 N   0  0  0  0  0  0  0  0  0  0  0  0
   25.6456  -21.0420  -12.3582 C   0  0  1  0  0  0  0  0  0  0  0  0
   25.0038  -22.3440  -12.7609 C   0  0  0  0  0  0  0  0  0  0  0  0
   23.9281  -22.0610  -13.7271 C   0  0  0  0  0  0  0  0  0  0  0  0
   22.9052  -21.3741  -13.4824 O   0  0  0  0  0  0  0  0  0  0  0  0
   26.2606  -21.1254  -11.0001 C   0  0  0  0  0  0  0  0  0  0  0  0
   27.5070  -21.3030  -10.9421 O   0  0  0  0  0  0  0  0  0  0  0  0
   24.0242  -22.5852  -15.0225 O   0  0  0  0  0  0  0  0  0  0  0  0
   29.7236  -19.4542   -3.3686 O   0  0  0  0  0  0  0  0  0  0  0  0
   29.0925  -19.5934   -4.6174 C   0  0  0  0  0  0  0  0  0  0  0  0
   28.0871  -18.7575   -5.0369 C   0  0  0  0  0  0  0  0  0  0  0  0
   27.4966  -18.9439   -6.2879 C   0  0  0  0  0  0  0  0  0  0  0  0
   27.9045  -19.9620   -7.1234 C   0  0  0  0  0  0  0  0  0  0  0  0
   27.2643  -20.1273   -8.4242 C   0  0  0  0  0  0  0  0  0  0  0  0
   26.1642  -21.1590   -8.4733 C   0  0  2  0  0  0  0  0  0  0  0  0
   25.5548  -21.0224   -9.8005 N   0  0  0  0  0  0  0  0  0  0  0  0
   25.1673  -21.0226   -7.4021 C   0  0  0  0  0  0  0  0  0  0  0  0
   25.3308  -21.3952   -6.2007 O   0  0  0  0  0  0  0  0  0  0  0  0
   28.9100  -20.7898   -6.6906 C   0  0  0  0  0  0  0  0  0  0  0  0
   29.5158  -20.6257   -5.4482 C   0  0  0  0  0  0  0  0  0  0  0  0
   23.9501  -20.4437   -7.7158 O   0  0  0  0  0  0  0  0  0  0  0  0
  2  4  1  0
  2  1  1  1
  3  2  1  0
  5  7  1  0
  5  6  1  6
  5  4  1  0
  7  8  2  0
  9  7  1  0
 10  9  1  0
 10 11  1  6
 12 11  1  0
 13 12  2  0
 14 15  2  0
 14 10  1  0
 16 12  1  0
 17 18  1  0
 18 19  2  0
 19 20  1  0
 21 20  2  0
 21 22  1  0
 23 22  1  1
 23 24  1  0
 23 25  1  0
 24 14  1  0
 25 29  1  0
 26 25  2  0
 27 21  1  0
 28 18  1  0
 28 27  2  0
M  END
$$$$
