LDY.pdb
     RDKit          3D

 29 29  0  0  1  0  0  0  0  0999 V2000
   20.2925  -10.5387  -20.2737 C   0  0  0  0  0  0  0  0  0  0  0  0
   21.3582   -9.9905  -19.3989 C   0  0  1  0  0  0  0  0  0  0  0  0
   22.6807  -10.0260  -20.1576 C   0  0  0  0  0  0  0  0  0  0  0  0
   21.1218   -8.6975  -18.7346 C   0  0  0  0  0  0  0  0  0  0  0  0
   22.1981   -8.0777  -17.9223 C   0  0  2  0  0  0  0  0  0  0  0  0
   22.5853   -8.9898  -16.8278 N   0  0  0  0  0  0  0  0  0  0  0  0
   21.8967   -6.7712  -17.3108 C   0  0  0  0  0  0  0  0  0  0  0  0
   21.0641   -5.9390  -17.7782 O   0  0  0  0  0  0  0  0  0  0  0  0
   22.5263   -6.2981  -16.0956 N   0  0  0  0  0  0  0  0  0  0  0  0
   22.2380   -5.0440  -15.4885 C   0  0  1  0  0  0  0  0  0  0  0  0
   22.6046   -4.9230  -14.0323 C   0  0  0  0  0  0  0  0  0  0  0  0
   21.7649   -5.8515  -13.2555 C   0  0  0  0  0  0  0  0  0  0  0  0
   20.5502   -6.0802  -13.4795 O   0  0  0  0  0  0  0  0  0  0  0  0
   22.7459   -3.8873  -16.2846 C   0  0  0  0  0  0  0  0  0  0  0  0
   23.8656   -4.0225  -16.8472 O   0  0  0  0  0  0  0  0  0  0  0  0
   22.3350   -6.5439  -12.1795 O   0  0  0  0  0  0  0  0  0  0  0  0
   24.1658    1.4150  -22.7845 O   0  0  0  0  0  0  0  0  0  0  0  0
   23.7606    0.5271  -21.7723 C   0  0  0  0  0  0  0  0  0  0  0  0
   22.4467    0.3726  -21.4045 C   0  0  0  0  0  0  0  0  0  0  0  0
   22.1030   -0.5243  -20.3916 C   0  0  0  0  0  0  0  0  0  0  0  0
   23.0653   -1.2685  -19.7426 C   0  0  0  0  0  0  0  0  0  0  0  0
   22.6696   -2.1963  -18.6882 C   0  0  0  0  0  0  0  0  0  0  0  0
   22.5314   -1.5877  -17.3143 C   0  0  2  0  0  0  0  0  0  0  0  0
   22.0714   -2.6762  -16.4455 N   0  0  0  0  0  0  0  0  0  0  0  0
   21.6262   -0.4311  -17.2602 C   0  0  0  0  0  0  0  0  0  0  0  0
   20.3874   -0.4852  -16.9934 O   0  0  0  0  0  0  0  0  0  0  0  0
   24.3743   -1.1032  -20.1206 C   0  0  0  0  0  0  0  0  0  0  0  0
   24.7439   -0.2161  -21.1275 C   0  0  0  0  0  0  0  0  0  0  0  0
   22.1548    0.8215  -17.5188 O   0  0  0  0  0  0  0  0  0  0  0  0
  2  4  1  0
  2  1  1  6
  3  2  1  0
  5  7  1  0
  5  6  1  1
  5  4  1  0
  7  8  2  0
  9  7  1  0
 10  9  1  0
 10 11  1  1
 12 11  1  0
 13 12  2  0
 14 15  2  0
 14 10  1  0
 16 12  1  0
 17 18  1  0
 18 19  2  0
 19 20  1  0
 21 20  2  0
 21 22  1  0
 23 22  1  6
 23 24  1  0
 23 25  1  0
 24 14  1  0
 25 29  1  0
 26 25  2  0
 27 21  1  0
 28 18  1  0
 28 27  2  0
M  END
$$$$
