LDY.pdb
     RDKit          3D

 29 29  0  0  1  0  0  0  0  0999 V2000
   18.8282  -16.4868  -17.7606 C   0  0  0  0  0  0  0  0  0  0  0  0
   18.3962  -15.2076  -17.1452 C   0  0  1  0  0  0  0  0  0  0  0  0
   17.7808  -15.5037  -15.7815 C   0  0  0  0  0  0  0  0  0  0  0  0
   19.3572  -14.0924  -17.1020 C   0  0  0  0  0  0  0  0  0  0  0  0
   18.9143  -12.7546  -16.6366 C   0  0  2  0  0  0  0  0  0  0  0  0
   17.4835  -12.5664  -16.9480 N   0  0  0  0  0  0  0  0  0  0  0  0
   19.6334  -11.5914  -17.1860 C   0  0  0  0  0  0  0  0  0  0  0  0
   20.8949  -11.4949  -17.2460 O   0  0  0  0  0  0  0  0  0  0  0  0
   18.9648  -10.4248  -17.7235 N   0  0  0  0  0  0  0  0  0  0  0  0
   19.6453   -9.2762  -18.2156 C   0  0  1  0  0  0  0  0  0  0  0  0
   19.3071   -8.8705  -19.6264 C   0  0  0  0  0  0  0  0  0  0  0  0
   20.1802   -7.7499  -20.0173 C   0  0  0  0  0  0  0  0  0  0  0  0
   19.7767   -6.6446  -20.4574 O   0  0  0  0  0  0  0  0  0  0  0  0
   19.5766   -8.1181  -17.2756 C   0  0  0  0  0  0  0  0  0  0  0  0
   18.4339   -7.7676  -16.8759 O   0  0  0  0  0  0  0  0  0  0  0  0
   21.5682   -7.8990  -19.9029 O   0  0  0  0  0  0  0  0  0  0  0  0
   17.7867   -9.5564  -11.1504 O   0  0  0  0  0  0  0  0  0  0  0  0
   18.6606   -8.8692  -12.0114 C   0  0  0  0  0  0  0  0  0  0  0  0
   19.8621   -9.3932  -12.4202 C   0  0  0  0  0  0  0  0  0  0  0  0
   20.6898   -8.6647  -13.2762 C   0  0  0  0  0  0  0  0  0  0  0  0
   20.3242   -7.4139  -13.7266 C   0  0  0  0  0  0  0  0  0  0  0  0
   21.2146   -6.6808  -14.6203 C   0  0  0  0  0  0  0  0  0  0  0  0
   20.5966   -6.2396  -15.9244 C   0  0  2  0  0  0  0  0  0  0  0  0
   20.6823   -7.4024  -16.8144 N   0  0  0  0  0  0  0  0  0  0  0  0
   21.2323   -5.0546  -16.5174 C   0  0  0  0  0  0  0  0  0  0  0  0
   21.3345   -3.9223  -15.9549 O   0  0  0  0  0  0  0  0  0  0  0  0
   19.1206   -6.9029  -13.3093 C   0  0  0  0  0  0  0  0  0  0  0  0
   18.2767   -7.6085  -12.4565 C   0  0  0  0  0  0  0  0  0  0  0  0
   21.7652   -5.1699  -17.7893 O   0  0  0  0  0  0  0  0  0  0  0  0
  2  4  1  0
  2  1  1  1
  3  2  1  0
  5  7  1  0
  5  6  1  6
  5  4  1  0
  7  8  2  0
  9  7  1  0
 10  9  1  0
 10 11  1  6
 12 11  1  0
 13 12  2  0
 14 15  2  0
 14 10  1  0
 16 12  1  0
 17 18  1  0
 18 19  2  0
 19 20  1  0
 21 20  2  0
 21 22  1  0
 23 22  1  1
 23 24  1  0
 23 25  1  0
 24 14  1  0
 25 29  1  0
 26 25  2  0
 27 21  1  0
 28 18  1  0
 28 27  2  0
M  END
$$$$
