LDY.pdb
     RDKit          3D

 29 29  0  0  1  0  0  0  0  0999 V2000
   23.8205  -15.9178  -18.5052 C   0  0  0  0  0  0  0  0  0  0  0  0
   23.8907  -15.0935  -17.2735 C   0  0  1  0  0  0  0  0  0  0  0  0
   25.2407  -15.3281  -16.6037 C   0  0  0  0  0  0  0  0  0  0  0  0
   23.5468  -13.6645  -17.3675 C   0  0  0  0  0  0  0  0  0  0  0  0
   23.3741  -12.8643  -16.1297 C   0  0  2  0  0  0  0  0  0  0  0  0
   22.6850  -13.6731  -15.1046 N   0  0  0  0  0  0  0  0  0  0  0  0
   22.6272  -11.6003  -16.2577 C   0  0  0  0  0  0  0  0  0  0  0  0
   22.8654  -10.7156  -17.1322 O   0  0  0  0  0  0  0  0  0  0  0  0
   21.5282  -11.2348  -15.3884 N   0  0  0  0  0  0  0  0  0  0  0  0
   20.8224  -10.0025  -15.4765 C   0  0  1  0  0  0  0  0  0  0  0  0
   19.4963   -9.9563  -14.7633 C   0  0  0  0  0  0  0  0  0  0  0  0
   18.5836  -10.9212  -15.4010 C   0  0  0  0  0  0  0  0  0  0  0  0
   18.4168  -11.0412  -16.6402 O   0  0  0  0  0  0  0  0  0  0  0  0
   21.6744   -8.8242  -15.1368 C   0  0  0  0  0  0  0  0  0  0  0  0
   22.3042   -8.8642  -14.0458 O   0  0  0  0  0  0  0  0  0  0  0  0
   17.8308  -11.7808  -14.5908 O   0  0  0  0  0  0  0  0  0  0  0  0
   26.2165   -1.2584  -16.6781 O   0  0  0  0  0  0  0  0  0  0  0  0
   25.4928   -2.4621  -16.7448 C   0  0  0  0  0  0  0  0  0  0  0  0
   26.1021   -3.6887  -16.8429 C   0  0  0  0  0  0  0  0  0  0  0  0
   25.3319   -4.8511  -16.9061 C   0  0  0  0  0  0  0  0  0  0  0  0
   23.9546   -4.7956  -16.8724 C   0  0  0  0  0  0  0  0  0  0  0  0
   23.1814   -6.0311  -16.9409 C   0  0  0  0  0  0  0  0  0  0  0  0
   22.6960   -6.5607  -15.6139 C   0  0  2  0  0  0  0  0  0  0  0  0
   21.8183   -7.6905  -15.9377 N   0  0  0  0  0  0  0  0  0  0  0  0
   22.0089   -5.5602  -14.7852 C   0  0  0  0  0  0  0  0  0  0  0  0
   22.5667   -4.8262  -13.9139 O   0  0  0  0  0  0  0  0  0  0  0  0
   23.3596   -3.5627  -16.7746 C   0  0  0  0  0  0  0  0  0  0  0  0
   24.1041   -2.3884  -16.7097 C   0  0  0  0  0  0  0  0  0  0  0  0
   20.6459   -5.3961  -14.9595 O   0  0  0  0  0  0  0  0  0  0  0  0
  2  4  1  0
  2  1  1  6
  3  2  1  0
  5  7  1  0
  5  6  1  1
  5  4  1  0
  7  8  2  0
  9  7  1  0
 10  9  1  0
 10 11  1  1
 12 11  1  0
 13 12  2  0
 14 15  2  0
 14 10  1  0
 16 12  1  0
 17 18  1  0
 18 19  2  0
 19 20  1  0
 21 20  2  0
 21 22  1  0
 23 22  1  6
 23 24  1  0
 23 25  1  0
 24 14  1  0
 25 29  1  0
 26 25  2  0
 27 21  1  0
 28 18  1  0
 28 27  2  0
M  END
$$$$
