LDY.pdb
     RDKit          3D

 29 29  0  0  1  0  0  0  0  0999 V2000
   12.7278  -11.8674  -14.5320 C   0  0  0  0  0  0  0  0  0  0  0  0
   14.1606  -11.8183  -14.1498 C   0  0  1  0  0  0  0  0  0  0  0  0
   14.8909  -12.9656  -14.8402 C   0  0  0  0  0  0  0  0  0  0  0  0
   14.8746  -10.5364  -14.2754 C   0  0  0  0  0  0  0  0  0  0  0  0
   16.1041  -10.2956  -13.4799 C   0  0  2  0  0  0  0  0  0  0  0  0
   16.1443  -11.2219  -12.3309 N   0  0  0  0  0  0  0  0  0  0  0  0
   16.2907   -8.9349  -12.9456 C   0  0  0  0  0  0  0  0  0  0  0  0
   16.2126   -7.8783  -13.6396 O   0  0  0  0  0  0  0  0  0  0  0  0
   16.5834   -8.6605  -11.5541 N   0  0  0  0  0  0  0  0  0  0  0  0
   16.7467   -7.3517  -11.0205 C   0  0  1  0  0  0  0  0  0  0  0  0
   16.4391   -7.2008   -9.5535 C   0  0  0  0  0  0  0  0  0  0  0  0
   16.6208   -5.7882   -9.1761 C   0  0  0  0  0  0  0  0  0  0  0  0
   16.5039   -4.8143   -9.9609 O   0  0  0  0  0  0  0  0  0  0  0  0
   18.0641   -6.7445  -11.3746 C   0  0  0  0  0  0  0  0  0  0  0  0
   19.0840   -7.2006  -10.7913 O   0  0  0  0  0  0  0  0  0  0  0  0
   16.9510   -5.4768   -7.8509 O   0  0  0  0  0  0  0  0  0  0  0  0
   24.6371   -5.8505  -16.7521 O   0  0  0  0  0  0  0  0  0  0  0  0
   23.5381   -6.0565  -15.8995 C   0  0  0  0  0  0  0  0  0  0  0  0
   22.7361   -7.1682  -15.9798 C   0  0  0  0  0  0  0  0  0  0  0  0
   21.6577   -7.3193  -15.1065 C   0  0  0  0  0  0  0  0  0  0  0  0
   21.3748   -6.3650  -14.1524 C   0  0  0  0  0  0  0  0  0  0  0  0
   20.2391   -6.5559  -13.2564 C   0  0  0  0  0  0  0  0  0  0  0  0
   19.5459   -5.2894  -12.8174 C   0  0  2  0  0  0  0  0  0  0  0  0
   18.2412   -5.7138  -12.2986 N   0  0  0  0  0  0  0  0  0  0  0  0
   19.4061   -4.2843  -13.8805 C   0  0  0  0  0  0  0  0  0  0  0  0
   20.1677   -3.2832  -14.0436 O   0  0  0  0  0  0  0  0  0  0  0  0
   22.1848   -5.2591  -14.0842 C   0  0  0  0  0  0  0  0  0  0  0  0
   23.2664   -5.0842  -14.9426 C   0  0  0  0  0  0  0  0  0  0  0  0
   18.3654   -4.4300  -14.7810 O   0  0  0  0  0  0  0  0  0  0  0  0
  2  4  1  0
  2  1  1  6
  3  2  1  0
  5  7  1  0
  5  6  1  1
  5  4  1  0
  7  8  2  0
  9  7  1  0
 10  9  1  0
 10 11  1  1
 12 11  1  0
 13 12  2  0
 14 15  2  0
 14 10  1  0
 16 12  1  0
 17 18  1  0
 18 19  2  0
 19 20  1  0
 21 20  2  0
 21 22  1  0
 23 22  1  6
 23 24  1  0
 23 25  1  0
 24 14  1  0
 25 29  1  0
 26 25  2  0
 27 21  1  0
 28 18  1  0
 28 27  2  0
M  END
$$$$
