LDY.pdb
     RDKit          3D

 29 29  0  0  1  0  0  0  0  0999 V2000
   20.1664  -14.0148  -17.9974 C   0  0  0  0  0  0  0  0  0  0  0  0
   19.2204  -13.3567  -17.0628 C   0  0  1  0  0  0  0  0  0  0  0  0
   19.3007  -14.0578  -15.7107 C   0  0  0  0  0  0  0  0  0  0  0  0
   19.2627  -11.8894  -16.9425 C   0  0  0  0  0  0  0  0  0  0  0  0
   18.3435  -11.1994  -16.0036 C   0  0  2  0  0  0  0  0  0  0  0  0
   16.9438  -11.4554  -16.3971 N   0  0  0  0  0  0  0  0  0  0  0  0
   18.4981   -9.7391  -15.8796 C   0  0  0  0  0  0  0  0  0  0  0  0
   19.4333   -9.0721  -16.4133 O   0  0  0  0  0  0  0  0  0  0  0  0
   17.5845   -8.9040  -15.1280 N   0  0  0  0  0  0  0  0  0  0  0  0
   17.7242   -7.4943  -14.9950 C   0  0  1  0  0  0  0  0  0  0  0  0
   16.5094   -6.7620  -14.4878 C   0  0  0  0  0  0  0  0  0  0  0  0
   15.4191   -6.9224  -15.4658 C   0  0  0  0  0  0  0  0  0  0  0  0
   15.5307   -6.7353  -16.7029 O   0  0  0  0  0  0  0  0  0  0  0  0
   18.9568   -7.1047  -14.2477 C   0  0  0  0  0  0  0  0  0  0  0  0
   19.3596   -7.8926  -13.3502 O   0  0  0  0  0  0  0  0  0  0  0  0
   14.1517   -7.3094  -15.0119 O   0  0  0  0  0  0  0  0  0  0  0  0
   25.2209   -5.2529  -18.7822 O   0  0  0  0  0  0  0  0  0  0  0  0
   24.3778   -5.6461  -17.7278 C   0  0  0  0  0  0  0  0  0  0  0  0
   23.2666   -6.4295  -17.9204 C   0  0  0  0  0  0  0  0  0  0  0  0
   22.4654   -6.7886  -16.8352 C   0  0  0  0  0  0  0  0  0  0  0  0
   22.7677   -6.3690  -15.5571 C   0  0  0  0  0  0  0  0  0  0  0  0
   21.9074   -6.7634  -14.4465 C   0  0  0  0  0  0  0  0  0  0  0  0
   21.0138   -5.6739  -13.9065 C   0  0  2  0  0  0  0  0  0  0  0  0
   19.6863   -5.9364  -14.4724 N   0  0  0  0  0  0  0  0  0  0  0  0
   21.4756   -4.3132  -14.2150 C   0  0  0  0  0  0  0  0  0  0  0  0
   22.4015   -3.6998  -13.6023 O   0  0  0  0  0  0  0  0  0  0  0  0
   23.8811   -5.5862  -15.3800 C   0  0  0  0  0  0  0  0  0  0  0  0
   24.6968   -5.2141  -16.4447 C   0  0  0  0  0  0  0  0  0  0  0  0
   20.8598   -3.6368  -15.2535 O   0  0  0  0  0  0  0  0  0  0  0  0
  2  4  1  0
  2  1  1  6
  3  2  1  0
  5  7  1  0
  5  6  1  6
  5  4  1  0
  7  8  2  0
  9  7  1  0
 10  9  1  0
 10 11  1  1
 12 11  1  0
 13 12  2  0
 14 15  2  0
 14 10  1  0
 16 12  1  0
 17 18  1  0
 18 19  2  0
 19 20  1  0
 21 20  2  0
 21 22  1  0
 23 22  1  6
 23 24  1  0
 23 25  1  0
 24 14  1  0
 25 29  1  0
 26 25  2  0
 27 21  1  0
 28 18  1  0
 28 27  2  0
M  END
$$$$
