LDY.pdb
     RDKit          3D

 29 29  0  0  1  0  0  0  0  0999 V2000
   24.2515  -23.4061  -17.2383 C   0  0  0  0  0  0  0  0  0  0  0  0
   25.4742  -22.7269  -16.7431 C   0  0  1  0  0  0  0  0  0  0  0  0
   25.3225  -22.4755  -15.2465 C   0  0  0  0  0  0  0  0  0  0  0  0
   26.7842  -23.3040  -17.0898 C   0  0  0  0  0  0  0  0  0  0  0  0
   28.0194  -22.7459  -16.4854 C   0  0  2  0  0  0  0  0  0  0  0  0
   28.1798  -21.3353  -16.8904 N   0  0  0  0  0  0  0  0  0  0  0  0
   29.2823  -23.4345  -16.8060 C   0  0  0  0  0  0  0  0  0  0  0  0
   29.8106  -23.4581  -17.9569 O   0  0  0  0  0  0  0  0  0  0  0  0
   30.0618  -24.1622  -15.8263 N   0  0  0  0  0  0  0  0  0  0  0  0
   31.2033  -24.9492  -16.1458 C   0  0  1  0  0  0  0  0  0  0  0  0
   32.2312  -25.0838  -15.0528 C   0  0  0  0  0  0  0  0  0  0  0  0
   33.4251  -25.7460  -15.6067 C   0  0  0  0  0  0  0  0  0  0  0  0
   33.7257  -25.7823  -16.8259 O   0  0  0  0  0  0  0  0  0  0  0  0
   30.8445  -26.2740  -16.7337 C   0  0  0  0  0  0  0  0  0  0  0  0
   29.9792  -26.9591  -16.1250 O   0  0  0  0  0  0  0  0  0  0  0  0
   34.3086  -26.3937  -14.7337 O   0  0  0  0  0  0  0  0  0  0  0  0
   26.2644  -31.6643  -15.9497 O   0  0  0  0  0  0  0  0  0  0  0  0
   27.0293  -30.7063  -16.6385 C   0  0  0  0  0  0  0  0  0  0  0  0
   26.5011  -29.5225  -17.0912 C   0  0  0  0  0  0  0  0  0  0  0  0
   27.3088  -28.6085  -17.7699 C   0  0  0  0  0  0  0  0  0  0  0  0
   28.6428  -28.8705  -17.9999 C   0  0  0  0  0  0  0  0  0  0  0  0
   29.4571  -27.8921  -18.7132 C   0  0  0  0  0  0  0  0  0  0  0  0
   30.9479  -28.0445  -18.5364 C   0  0  2  0  0  0  0  0  0  0  0  0
   31.3985  -26.8017  -17.9008 N   0  0  0  0  0  0  0  0  0  0  0  0
   31.6750  -28.3093  -19.7859 C   0  0  0  0  0  0  0  0  0  0  0  0
   31.5188  -29.3328  -20.5187 O   0  0  0  0  0  0  0  0  0  0  0  0
   29.1567  -30.0579  -17.5421 C   0  0  0  0  0  0  0  0  0  0  0  0
   28.3733  -30.9863  -16.8624 C   0  0  0  0  0  0  0  0  0  0  0  0
   32.6061  -27.3762  -20.2072 O   0  0  0  0  0  0  0  0  0  0  0  0
  2  4  1  0
  2  1  1  1
  3  2  1  0
  5  7  1  0
  5  6  1  6
  5  4  1  0
  7  8  2  0
  9  7  1  0
 10  9  1  0
 10 11  1  1
 12 11  1  0
 13 12  2  0
 14 15  2  0
 14 10  1  0
 16 12  1  0
 17 18  1  0
 18 19  2  0
 19 20  1  0
 21 20  2  0
 21 22  1  0
 23 22  1  6
 23 24  1  0
 23 25  1  0
 24 14  1  0
 25 29  1  0
 26 25  2  0
 27 21  1  0
 28 18  1  0
 28 27  2  0
M  END
$$$$
