LDY.pdb
     RDKit          3D

 29 29  0  0  1  0  0  0  0  0999 V2000
   24.2350  -18.3519  -18.7591 C   0  0  0  0  0  0  0  0  0  0  0  0
   24.1010  -19.0439  -17.4535 C   0  0  1  0  0  0  0  0  0  0  0  0
   25.4881  -19.4616  -16.9762 C   0  0  0  0  0  0  0  0  0  0  0  0
   23.3107  -18.3933  -16.3946 C   0  0  0  0  0  0  0  0  0  0  0  0
   23.0566  -19.1079  -15.1190 C   0  0  2  0  0  0  0  0  0  0  0  0
   23.3815  -20.5395  -15.2757 N   0  0  0  0  0  0  0  0  0  0  0  0
   21.6874  -19.0314  -14.5791 C   0  0  0  0  0  0  0  0  0  0  0  0
   20.8804  -18.0830  -14.8108 O   0  0  0  0  0  0  0  0  0  0  0  0
   21.1141  -20.0460  -13.7195 N   0  0  0  0  0  0  0  0  0  0  0  0
   19.7494  -20.0671  -13.3175 C   0  0  1  0  0  0  0  0  0  0  0  0
   18.7400  -19.8864  -14.4210 C   0  0  0  0  0  0  0  0  0  0  0  0
   17.3963  -19.8026  -13.8224 C   0  0  0  0  0  0  0  0  0  0  0  0
   17.0784  -19.0422  -12.8743 O   0  0  0  0  0  0  0  0  0  0  0  0
   19.4205  -21.2399  -12.4538 C   0  0  0  0  0  0  0  0  0  0  0  0
   19.8571  -22.3645  -12.8187 O   0  0  0  0  0  0  0  0  0  0  0  0
   16.3770  -20.6213  -14.3253 O   0  0  0  0  0  0  0  0  0  0  0  0
   17.0324  -25.7859   -5.1644 O   0  0  0  0  0  0  0  0  0  0  0  0
   17.4332  -24.8391   -6.1236 C   0  0  0  0  0  0  0  0  0  0  0  0
   18.7422  -24.6813   -6.5071 C   0  0  0  0  0  0  0  0  0  0  0  0
   19.0817  -23.7239   -7.4646 C   0  0  0  0  0  0  0  0  0  0  0  0
   18.1202  -22.9217   -8.0417 C   0  0  0  0  0  0  0  0  0  0  0  0
   18.5115  -21.9312   -9.0391 C   0  0  0  0  0  0  0  0  0  0  0  0
   18.3001  -22.3455  -10.4747 C   0  0  2  0  0  0  0  0  0  0  0  0
   18.6676  -21.1763  -11.2805 N   0  0  0  0  0  0  0  0  0  0  0  0
   16.9346  -22.8011  -10.7713 C   0  0  0  0  0  0  0  0  0  0  0  0
   15.9494  -22.0420  -11.0200 O   0  0  0  0  0  0  0  0  0  0  0  0
   16.8162  -23.0905   -7.6482 C   0  0  0  0  0  0  0  0  0  0  0  0
   16.4508  -24.0377   -6.6960 C   0  0  0  0  0  0  0  0  0  0  0  0
   16.6914  -24.1634  -10.7831 O   0  0  0  0  0  0  0  0  0  0  0  0
  2  4  1  0
  2  1  1  6
  3  2  1  0
  5  7  1  0
  5  6  1  6
  5  4  1  0
  7  8  2  0
  9  7  1  0
 10  9  1  0
 10 11  1  6
 12 11  1  0
 13 12  2  0
 14 15  2  0
 14 10  1  0
 16 12  1  0
 17 18  1  0
 18 19  2  0
 19 20  1  0
 21 20  2  0
 21 22  1  0
 23 22  1  1
 23 24  1  0
 23 25  1  0
 24 14  1  0
 25 29  1  0
 26 25  2  0
 27 21  1  0
 28 18  1  0
 28 27  2  0
M  END
$$$$
