LDY.pdb
     RDKit          3D

 29 29  0  0  1  0  0  0  0  0999 V2000
   30.4374  -16.7962  -20.5211 C   0  0  0  0  0  0  0  0  0  0  0  0
   29.7201  -17.0459  -19.2465 C   0  0  1  0  0  0  0  0  0  0  0  0
   30.6650  -16.7487  -18.0867 C   0  0  0  0  0  0  0  0  0  0  0  0
   28.3903  -16.4405  -19.0619 C   0  0  0  0  0  0  0  0  0  0  0  0
   27.6056  -16.7422  -17.8388 C   0  0  2  0  0  0  0  0  0  0  0  0
   27.9922  -18.0660  -17.3119 N   0  0  0  0  0  0  0  0  0  0  0  0
   26.1385  -16.7430  -17.9773 C   0  0  0  0  0  0  0  0  0  0  0  0
   25.4953  -15.9906  -18.7676 O   0  0  0  0  0  0  0  0  0  0  0  0
   25.2688  -17.6167  -17.2174 N   0  0  0  0  0  0  0  0  0  0  0  0
   23.8726  -17.7505  -17.4564 C   0  0  1  0  0  0  0  0  0  0  0  0
   23.4784  -18.0446  -18.8804 C   0  0  0  0  0  0  0  0  0  0  0  0
   22.0105  -17.9767  -18.9873 C   0  0  0  0  0  0  0  0  0  0  0  0
   21.2995  -17.0458  -18.5333 O   0  0  0  0  0  0  0  0  0  0  0  0
   23.2094  -18.6814  -16.4956 C   0  0  0  0  0  0  0  0  0  0  0  0
   23.9387  -19.5370  -15.9259 O   0  0  0  0  0  0  0  0  0  0  0  0
   21.3285  -19.0139  -19.6362 O   0  0  0  0  0  0  0  0  0  0  0  0
   20.1095  -20.1061   -8.6901 O   0  0  0  0  0  0  0  0  0  0  0  0
   20.5889  -19.7517   -9.9636 C   0  0  0  0  0  0  0  0  0  0  0  0
   21.6241  -20.4138  -10.5763 C   0  0  0  0  0  0  0  0  0  0  0  0
   22.0584  -20.0171  -11.8422 C   0  0  0  0  0  0  0  0  0  0  0  0
   21.4644  -18.9612  -12.5005 C   0  0  0  0  0  0  0  0  0  0  0  0
   21.9448  -18.5740  -13.8227 C   0  0  0  0  0  0  0  0  0  0  0  0
   21.2717  -19.2690  -14.9807 C   0  0  2  0  0  0  0  0  0  0  0  0
   21.8480  -18.6696  -16.1891 N   0  0  0  0  0  0  0  0  0  0  0  0
   19.8056  -19.1661  -14.9704 C   0  0  0  0  0  0  0  0  0  0  0  0
   19.0236  -19.9418  -14.3414 O   0  0  0  0  0  0  0  0  0  0  0  0
   20.4313  -18.3087  -11.8755 C   0  0  0  0  0  0  0  0  0  0  0  0
   19.9788  -18.6841  -10.6139 C   0  0  0  0  0  0  0  0  0  0  0  0
   19.2198  -18.1469  -15.7006 O   0  0  0  0  0  0  0  0  0  0  0  0
  2  4  1  0
  2  1  1  6
  3  2  1  0
  5  7  1  0
  5  6  1  6
  5  4  1  0
  7  8  2  0
  9  7  1  0
 10  9  1  0
 10 11  1  6
 12 11  1  0
 13 12  2  0
 14 15  2  0
 14 10  1  0
 16 12  1  0
 17 18  1  0
 18 19  2  0
 19 20  1  0
 21 20  2  0
 21 22  1  0
 23 22  1  1
 23 24  1  0
 23 25  1  0
 24 14  1  0
 25 29  1  0
 26 25  2  0
 27 21  1  0
 28 18  1  0
 28 27  2  0
M  END
$$$$
