LDY.pdb
     RDKit          3D

 29 29  0  0  1  0  0  0  0  0999 V2000
   28.0740  -14.1683  -23.2621 C   0  0  0  0  0  0  0  0  0  0  0  0
   27.6863  -14.4124  -21.8508 C   0  0  1  0  0  0  0  0  0  0  0  0
   28.2490  -13.2883  -20.9871 C   0  0  0  0  0  0  0  0  0  0  0  0
   26.2730  -14.7008  -21.5534 C   0  0  0  0  0  0  0  0  0  0  0  0
   25.8852  -15.1727  -20.2009 C   0  0  2  0  0  0  0  0  0  0  0  0
   27.0774  -15.6668  -19.4839 N   0  0  0  0  0  0  0  0  0  0  0  0
   24.8695  -16.2387  -20.1380 C   0  0  0  0  0  0  0  0  0  0  0  0
   23.7222  -16.1641  -20.6692 O   0  0  0  0  0  0  0  0  0  0  0  0
   25.0810  -17.4988  -19.4565 N   0  0  0  0  0  0  0  0  0  0  0  0
   24.0925  -18.5161  -19.3441 C   0  0  1  0  0  0  0  0  0  0  0  0
   24.5668  -19.9207  -19.6115 C   0  0  0  0  0  0  0  0  0  0  0  0
   23.4023  -20.8232  -19.5945 C   0  0  0  0  0  0  0  0  0  0  0  0
   22.4638  -20.8007  -20.4292 O   0  0  0  0  0  0  0  0  0  0  0  0
   23.3155  -18.4275  -18.0721 C   0  0  0  0  0  0  0  0  0  0  0  0
   23.9701  -18.2653  -17.0074 O   0  0  0  0  0  0  0  0  0  0  0  0
   23.3056  -21.7874  -18.5830 O   0  0  0  0  0  0  0  0  0  0  0  0
   16.3777  -17.4638  -20.9769 O   0  0  0  0  0  0  0  0  0  0  0  0
   17.3858  -17.3551  -20.0028 C   0  0  0  0  0  0  0  0  0  0  0  0
   18.6561  -16.9241  -20.2959 C   0  0  0  0  0  0  0  0  0  0  0  0
   19.6169  -16.8364  -19.2871 C   0  0  0  0  0  0  0  0  0  0  0  0
   19.3162  -17.1778  -17.9855 C   0  0  0  0  0  0  0  0  0  0  0  0
   20.3458  -17.0741  -16.9568 C   0  0  0  0  0  0  0  0  0  0  0  0
   21.1678  -18.3211  -16.7413 C   0  0  2  0  0  0  0  0  0  0  0  0
   21.9255  -18.5130  -17.9826 N   0  0  0  0  0  0  0  0  0  0  0  0
   20.3739  -19.5101  -16.4011 C   0  0  0  0  0  0  0  0  0  0  0  0
   20.3089  -20.5685  -17.0973 O   0  0  0  0  0  0  0  0  0  0  0  0
   18.0426  -17.6073  -17.7076 C   0  0  0  0  0  0  0  0  0  0  0  0
   17.0659  -17.7036  -18.6946 C   0  0  0  0  0  0  0  0  0  0  0  0
   19.6341  -19.4859  -15.2318 O   0  0  0  0  0  0  0  0  0  0  0  0
  2  4  1  0
  2  1  1  6
  3  2  1  0
  5  7  1  0
  5  6  1  6
  5  4  1  0
  7  8  2  0
  9  7  1  0
 10  9  1  0
 10 11  1  1
 12 11  1  0
 13 12  2  0
 14 15  2  0
 14 10  1  0
 16 12  1  0
 17 18  1  0
 18 19  2  0
 19 20  1  0
 21 20  2  0
 21 22  1  0
 23 22  1  6
 23 24  1  0
 23 25  1  0
 24 14  1  0
 25 29  1  0
 26 25  2  0
 27 21  1  0
 28 18  1  0
 28 27  2  0
M  END
$$$$
