LDY.pdb
     RDKit          3D

 29 29  0  0  1  0  0  0  0  0999 V2000
   13.1221  -15.0022  -15.0629 C   0  0  0  0  0  0  0  0  0  0  0  0
   14.3917  -14.3766  -15.5083 C   0  0  1  0  0  0  0  0  0  0  0  0
   14.1538  -13.6865  -16.8475 C   0  0  0  0  0  0  0  0  0  0  0  0
   15.1240  -13.5252  -14.5555 C   0  0  0  0  0  0  0  0  0  0  0  0
   16.3979  -12.8844  -14.9669 C   0  0  2  0  0  0  0  0  0  0  0  0
   17.4912  -13.8756  -14.9258 N   0  0  0  0  0  0  0  0  0  0  0  0
   16.8386  -11.7209  -14.1770 C   0  0  0  0  0  0  0  0  0  0  0  0
   17.2671  -11.7867  -12.9869 O   0  0  0  0  0  0  0  0  0  0  0  0
   16.8302  -10.3652  -14.6861 N   0  0  0  0  0  0  0  0  0  0  0  0
   17.3329   -9.2445  -13.9680 C   0  0  1  0  0  0  0  0  0  0  0  0
   18.0735   -8.2210  -14.7885 C   0  0  0  0  0  0  0  0  0  0  0  0
   18.5955   -7.1803  -13.8855 C   0  0  0  0  0  0  0  0  0  0  0  0
   18.1948   -5.9901  -13.8537 O   0  0  0  0  0  0  0  0  0  0  0  0
   16.3025   -8.6109  -13.0925 C   0  0  0  0  0  0  0  0  0  0  0  0
   15.1759   -8.3755  -13.6062 O   0  0  0  0  0  0  0  0  0  0  0  0
   19.6163   -7.5121  -12.9856 O   0  0  0  0  0  0  0  0  0  0  0  0
   12.3454   -5.5550   -5.6933 O   0  0  0  0  0  0  0  0  0  0  0  0
   13.1975   -6.1536   -6.6380 C   0  0  0  0  0  0  0  0  0  0  0  0
   14.5353   -5.8557   -6.7230 C   0  0  0  0  0  0  0  0  0  0  0  0
   15.3333   -6.4816   -7.6821 C   0  0  0  0  0  0  0  0  0  0  0  0
   14.8023   -7.4042   -8.5584 C   0  0  0  0  0  0  0  0  0  0  0  0
   15.6665   -8.0385   -9.5484 C   0  0  0  0  0  0  0  0  0  0  0  0
   15.5388   -7.5007  -10.9526 C   0  0  2  0  0  0  0  0  0  0  0  0
   16.5008   -8.2632  -11.7556 N   0  0  0  0  0  0  0  0  0  0  0  0
   15.7676   -6.0531  -11.0623 C   0  0  0  0  0  0  0  0  0  0  0  0
   14.8760   -5.1608  -10.9287 O   0  0  0  0  0  0  0  0  0  0  0  0
   13.4638   -7.6915   -8.4619 C   0  0  0  0  0  0  0  0  0  0  0  0
   12.6460   -7.0821   -7.5147 C   0  0  0  0  0  0  0  0  0  0  0  0
   17.0525   -5.6160  -11.3326 O   0  0  0  0  0  0  0  0  0  0  0  0
  2  4  1  0
  2  1  1  1
  3  2  1  0
  5  7  1  0
  5  6  1  1
  5  4  1  0
  7  8  2  0
  9  7  1  0
 10  9  1  0
 10 11  1  6
 12 11  1  0
 13 12  2  0
 14 15  2  0
 14 10  1  0
 16 12  1  0
 17 18  1  0
 18 19  2  0
 19 20  1  0
 21 20  2  0
 21 22  1  0
 23 22  1  1
 23 24  1  0
 23 25  1  0
 24 14  1  0
 25 29  1  0
 26 25  2  0
 27 21  1  0
 28 18  1  0
 28 27  2  0
M  END
$$$$
