GLV.pdb
     RDKit          3D

 20 19  0  0  1  0  0  0  0  0999 V2000
   31.1887  -22.2312  -10.5395 N   0  0  0  0  0  0  0  0  0  0  0  0
   30.6884  -21.0118   -9.9398 C   0  0  0  0  0  0  0  0  0  0  0  0
   29.4452  -21.2445   -9.1743 C   0  0  0  0  0  0  0  0  0  0  0  0
   28.6583  -22.2041   -9.4051 O   0  0  0  0  0  0  0  0  0  0  0  0
   28.2808  -19.3831   -3.7144 C   0  0  0  0  0  0  0  0  0  0  0  0
   28.2494  -20.2313   -4.9354 C   0  0  2  0  0  0  0  0  0  0  0  0
   29.5635  -20.9848   -5.0647 C   0  0  0  0  0  0  0  0  0  0  0  0
   27.8489  -19.5690   -6.2028 C   0  0  0  0  0  0  0  0  0  0  0  0
   27.8410  -20.4001   -7.4317 C   0  0  2  0  0  0  0  0  0  0  0  0
   29.1206  -20.3343   -8.1193 N   0  0  0  0  0  0  0  0  0  0  0  0
   26.7548  -19.8876   -8.3588 C   0  0  0  0  0  0  0  0  0  0  0  0
   26.7122  -18.6721   -8.6196 O   0  0  0  0  0  0  0  0  0  0  0  0
   24.8589  -20.3760  -12.5113 C   0  0  0  0  0  0  0  0  0  0  0  0
   25.6586  -20.9209  -11.3344 C   0  0  2  0  0  0  0  0  0  0  0  0
   25.7958  -22.3962  -11.5199 C   0  0  0  0  0  0  0  0  0  0  0  0
   25.0480  -20.5259  -10.0364 C   0  0  2  0  0  0  0  0  0  0  0  0
   25.8446  -20.8355   -8.8773 N   0  0  0  0  0  0  0  0  0  0  0  0
   23.6069  -20.8672   -9.9006 C   0  0  0  0  0  0  0  0  0  0  0  0
   23.0432  -21.5898   -8.8730 O   0  0  0  0  0  0  0  0  0  0  0  0
   22.7785  -20.4732  -10.7915 O   0  0  0  0  0  0  0  0  0  0  0  0
  2  1  1  0
  3  2  1  0
  3 10  1  0
  4  3  2  0
  6  8  1  0
  6  5  1  1
  7  6  1  0
  9 11  1  0
  9 10  1  0
  9  8  1  1
 11 17  1  0
 12 11  2  0
 14 13  1  6
 14 15  1  0
 16 14  1  0
 16 17  1  1
 18 19  1  0
 18 16  1  0
 20 18  2  0
M  END
$$$$
