GLV.pdb
     RDKit          3D

 20 19  0  0  1  0  0  0  0  0999 V2000
   28.5509  -23.0593  -16.2962 N   0  0  0  0  0  0  0  0  0  0  0  0
   28.1289  -21.7724  -15.7837 C   0  0  0  0  0  0  0  0  0  0  0  0
   26.9240  -21.8860  -14.9346 C   0  0  0  0  0  0  0  0  0  0  0  0
   26.0515  -22.7855  -15.0862 O   0  0  0  0  0  0  0  0  0  0  0  0
   24.0584  -21.4772  -10.3766 C   0  0  0  0  0  0  0  0  0  0  0  0
   25.4866  -21.0684  -10.4420 C   0  0  2  0  0  0  0  0  0  0  0  0
   25.8561  -20.3079   -9.1786 C   0  0  0  0  0  0  0  0  0  0  0  0
   25.9286  -20.3680  -11.6747 C   0  0  0  0  0  0  0  0  0  0  0  0
   25.6146  -21.0130  -12.9734 C   0  0  2  0  0  0  0  0  0  0  0  0
   26.7408  -20.9266  -13.8893 N   0  0  0  0  0  0  0  0  0  0  0  0
   24.4206  -20.3091  -13.5903 C   0  0  0  0  0  0  0  0  0  0  0  0
   24.5107  -19.0981  -13.8596 O   0  0  0  0  0  0  0  0  0  0  0  0
   21.3618  -22.3557  -15.8656 C   0  0  0  0  0  0  0  0  0  0  0  0
   21.7963  -20.8969  -15.7990 C   0  0  2  0  0  0  0  0  0  0  0  0
   22.9437  -20.7191  -16.7378 C   0  0  0  0  0  0  0  0  0  0  0  0
   22.0862  -20.4822  -14.3998 C   0  0  2  0  0  0  0  0  0  0  0  0
   23.2621  -21.0828  -13.8250 N   0  0  0  0  0  0  0  0  0  0  0  0
   20.9018  -20.4669  -13.5004 C   0  0  0  0  0  0  0  0  0  0  0  0
   19.8152  -19.6289  -13.6131 O   0  0  0  0  0  0  0  0  0  0  0  0
   20.8410  -21.2894  -12.5233 O   0  0  0  0  0  0  0  0  0  0  0  0
  2  1  1  0
  3  2  1  0
  3 10  1  0
  4  3  2  0
  6  8  1  0
  6  5  1  6
  7  6  1  0
  9 11  1  0
  9 10  1  0
  9  8  1  1
 11 17  1  0
 12 11  2  0
 14 13  1  1
 14 15  1  0
 16 14  1  0
 16 17  1  1
 18 19  1  0
 18 16  1  0
 20 18  2  0
M  END
$$$$
