GLV.pdb
     RDKit          3D

 20 19  0  0  1  0  0  0  0  0999 V2000
   20.6156  -21.8371   -7.3870 N   0  0  0  0  0  0  0  0  0  0  0  0
   21.9240  -22.4390   -7.5374 C   0  0  0  0  0  0  0  0  0  0  0  0
   22.9086  -21.4850   -8.0908 C   0  0  0  0  0  0  0  0  0  0  0  0
   22.6155  -20.6047   -8.9466 O   0  0  0  0  0  0  0  0  0  0  0  0
   28.8644  -19.8637   -6.9707 C   0  0  0  0  0  0  0  0  0  0  0  0
   27.5780  -19.7548   -7.7086 C   0  0  2  0  0  0  0  0  0  0  0  0
   27.0522  -18.3320   -7.6064 C   0  0  0  0  0  0  0  0  0  0  0  0
   26.5373  -20.7673   -7.3965 C   0  0  0  0  0  0  0  0  0  0  0  0
   25.3139  -20.7663   -8.2357 C   0  0  2  0  0  0  0  0  0  0  0  0
   24.2609  -21.5665   -7.6312 N   0  0  0  0  0  0  0  0  0  0  0  0
   25.6560  -21.3457   -9.5955 C   0  0  0  0  0  0  0  0  0  0  0  0
   25.9437  -22.5530   -9.6787 O   0  0  0  0  0  0  0  0  0  0  0  0
   24.4395  -19.4753  -13.3255 C   0  0  0  0  0  0  0  0  0  0  0  0
   24.8512  -20.9056  -12.9998 C   0  0  2  0  0  0  0  0  0  0  0  0
   23.6302  -21.6424  -12.5571 C   0  0  0  0  0  0  0  0  0  0  0  0
   25.9689  -20.9366  -12.0182 C   0  0  2  0  0  0  0  0  0  0  0  0
   25.6266  -20.4663  -10.7008 N   0  0  0  0  0  0  0  0  0  0  0  0
   27.2637  -20.4211  -12.5376 C   0  0  0  0  0  0  0  0  0  0  0  0
   27.9352  -20.8957  -13.6420 O   0  0  0  0  0  0  0  0  0  0  0  0
   27.8411  -19.4492  -11.9402 O   0  0  0  0  0  0  0  0  0  0  0  0
  2  1  1  0
  3  2  1  0
  3 10  1  0
  4  3  2  0
  6  8  1  0
  6  5  1  1
  7  6  1  0
  9 11  1  0
  9 10  1  0
  9  8  1  1
 11 17  1  0
 12 11  2  0
 14 13  1  1
 14 15  1  0
 16 14  1  0
 16 17  1  1
 18 19  1  0
 18 16  1  0
 20 18  2  0
M  END
$$$$
