GLV.pdb
     RDKit          3D

 20 19  0  0  1  0  0  0  0  0999 V2000
   19.2763  -25.4025  -10.1469 N   0  0  0  0  0  0  0  0  0  0  0  0
   19.2890  -25.0445  -11.5499 C   0  0  0  0  0  0  0  0  0  0  0  0
   20.1325  -23.8580  -11.8078 C   0  0  0  0  0  0  0  0  0  0  0  0
   20.2258  -22.8866  -11.0072 O   0  0  0  0  0  0  0  0  0  0  0  0
   25.0039  -22.4589  -15.4164 C   0  0  0  0  0  0  0  0  0  0  0  0
   23.8597  -22.0375  -14.5653 C   0  0  2  0  0  0  0  0  0  0  0  0
   24.3769  -21.2511  -13.3714 C   0  0  0  0  0  0  0  0  0  0  0  0
   22.8910  -23.0924  -14.1724 C   0  0  0  0  0  0  0  0  0  0  0  0
   21.7281  -22.6761  -13.3505 C   0  0  2  0  0  0  0  0  0  0  0  0
   20.8793  -23.8117  -13.0271 N   0  0  0  0  0  0  0  0  0  0  0  0
   20.9175  -21.6603  -14.1335 C   0  0  0  0  0  0  0  0  0  0  0  0
   20.2492  -22.0481  -15.1082 O   0  0  0  0  0  0  0  0  0  0  0  0
   20.2897  -17.6264  -12.5497 C   0  0  0  0  0  0  0  0  0  0  0  0
   19.4089  -18.4190  -13.5074 C   0  0  2  0  0  0  0  0  0  0  0  0
   18.3912  -19.1484  -12.6938 C   0  0  0  0  0  0  0  0  0  0  0  0
   20.2233  -19.2967  -14.3906 C   0  0  2  0  0  0  0  0  0  0  0  0
   20.9717  -20.3162  -13.7018 N   0  0  0  0  0  0  0  0  0  0  0  0
   20.9895  -18.5769  -15.4425 C   0  0  0  0  0  0  0  0  0  0  0  0
   20.4871  -18.1367  -16.6466 O   0  0  0  0  0  0  0  0  0  0  0  0
   22.2278  -18.3184  -15.2557 O   0  0  0  0  0  0  0  0  0  0  0  0
  2  1  1  0
  3  2  1  0
  3 10  1  0
  4  3  2  0
  6  8  1  0
  6  5  1  1
  7  6  1  0
  9 11  1  0
  9 10  1  0
  9  8  1  6
 11 17  1  0
 12 11  2  0
 14 13  1  1
 14 15  1  0
 16 14  1  0
 16 17  1  1
 18 19  1  0
 18 16  1  0
 20 18  2  0
M  END
$$$$
