GLV.pdb
     RDKit          3D

 20 19  0  0  1  0  0  0  0  0999 V2000
   19.6334  -12.9883  -18.2207 N   0  0  0  0  0  0  0  0  0  0  0  0
   19.8956  -11.5863  -18.4705 C   0  0  0  0  0  0  0  0  0  0  0  0
   20.6024  -10.9483  -17.3395 C   0  0  0  0  0  0  0  0  0  0  0  0
   20.0389  -10.6481  -16.2506 O   0  0  0  0  0  0  0  0  0  0  0  0
   26.5520  -10.0497  -15.6433 C   0  0  0  0  0  0  0  0  0  0  0  0
   25.0922   -9.8339  -15.4597 C   0  0  2  0  0  0  0  0  0  0  0  0
   24.6808  -10.2954  -14.0708 C   0  0  0  0  0  0  0  0  0  0  0  0
   24.1970  -10.3619  -16.5206 C   0  0  0  0  0  0  0  0  0  0  0  0
   22.7550  -10.0270  -16.4227 C   0  0  2  0  0  0  0  0  0  0  0  0
   21.9951  -10.6578  -17.4901 N   0  0  0  0  0  0  0  0  0  0  0  0
   22.5969   -8.5217  -16.5264 C   0  0  0  0  0  0  0  0  0  0  0  0
   22.9870   -7.9465  -17.5580 O   0  0  0  0  0  0  0  0  0  0  0  0
   19.9402   -6.3863  -17.0038 C   0  0  0  0  0  0  0  0  0  0  0  0
   20.4809   -5.9315  -15.6539 C   0  0  2  0  0  0  0  0  0  0  0  0
   20.3400   -4.4466  -15.5827 C   0  0  0  0  0  0  0  0  0  0  0  0
   21.8685   -6.4213  -15.4342 C   0  0  2  0  0  0  0  0  0  0  0  0
   22.0074   -7.8547  -15.4293 N   0  0  0  0  0  0  0  0  0  0  0  0
   22.6041   -5.7290  -14.3427 C   0  0  0  0  0  0  0  0  0  0  0  0
   22.8615   -6.2436  -13.0917 O   0  0  0  0  0  0  0  0  0  0  0  0
   23.0598   -4.5503  -14.5378 O   0  0  0  0  0  0  0  0  0  0  0  0
  2  1  1  0
  3  2  1  0
  3 10  1  0
  4  3  2  0
  6  8  1  0
  6  5  1  6
  7  6  1  0
  9 11  1  0
  9 10  1  0
  9  8  1  6
 11 17  1  0
 12 11  2  0
 14 13  1  6
 14 15  1  0
 16 14  1  0
 16 17  1  1
 18 19  1  0
 18 16  1  0
 20 18  2  0
M  END
$$$$
