CRF.pdb
     RDKit          3D

 29 29  0  0  1  0  0  0  0  0999 V2000
    6.7371  -13.4105   18.8455 N   0  0  0  0  0  0  0  0  0  0  0  0
    8.0422  -13.9993   19.0824 C   0  0  1  0  0  0  0  0  0  0  0  0
    9.1168  -12.9476   19.2202 C   0  0  0  0  0  0  0  0  0  0  0  0
    8.6470  -11.5958   20.2975 S   0  0  0  0  0  0  0  0  0  0  0  0
    7.9421  -14.8789   20.2557 C   0  0  0  0  0  0  0  0  0  0  0  0
    6.9821  -14.6635   21.0598 O   0  0  0  0  0  0  0  0  0  0  0  0
    8.4798  -21.5519   24.2469 N   0  0  0  0  0  0  0  0  0  0  0  0
    9.8934  -21.4512   24.1688 C   0  0  0  0  0  0  0  0  0  0  0  0
   10.6382  -21.7136   25.1842 N   0  0  0  0  0  0  0  0  0  0  0  0
   10.5315  -21.0492   22.9389 N   0  0  0  0  0  0  0  0  0  0  0  0
    9.7843  -20.5317   21.8303 C   0  0  0  0  0  0  0  0  0  0  0  0
    9.0551  -19.2714   22.2355 C   0  0  0  0  0  0  0  0  0  0  0  0
    9.3955  -18.1884   21.2701 C   0  0  0  0  0  0  0  0  0  0  0  0
    8.6782  -16.8895   21.5607 C   0  0  2  0  0  0  0  0  0  0  0  0
    8.8588  -15.9262   20.5043 N   0  0  0  0  0  0  0  0  0  0  0  0
    9.0399  -16.3375   22.8898 C   0  0  0  0  0  0  0  0  0  0  0  0
   10.0763  -15.6597   23.0753 O   0  0  0  0  0  0  0  0  0  0  0  0
   11.6586  -21.6000   25.1038 N   0  0  0  0  0  0  0  0  0  0  0  0
    8.1977  -16.5727   24.0039 C   0  0  2  0  0  0  0  0  0  0  0  0
    8.4161  -15.9920   25.3139 C   0  0  0  0  0  0  0  0  0  0  0  0
    7.0807  -15.4501   25.7706 C   0  0  0  0  0  0  0  0  0  0  0  0
    7.0598  -14.0032   25.9955 C   0  0  0  0  0  0  0  0  0  0  0  0
    8.2306  -13.2608   26.0250 C   0  0  0  0  0  0  0  0  0  0  0  0
    8.1678  -11.9016   26.2372 C   0  0  0  0  0  0  0  0  0  0  0  0
    6.9696  -11.2428   26.4237 C   0  0  0  0  0  0  0  0  0  0  0  0
    5.8213  -12.0095   26.3889 C   0  0  0  0  0  0  0  0  0  0  0  0
    5.8377  -13.3682   26.1801 C   0  0  0  0  0  0  0  0  0  0  0  0
    9.0429  -16.9241   26.2494 O   0  0  0  0  0  0  0  0  0  0  0  0
    9.1373  -18.2698   25.9288 O   0  0  0  0  0  0  0  0  0  0  0  0
  2  3  1  0
  2  1  1  1
  4  3  1  0
  5  2  1  0
  6  5  2  0
  8  7  1  0
  8 10  1  0
  9  8  2  0
 11 10  1  0
 11 12  1  0
 14 13  1  6
 13 12  1  0
 14 15  1  0
 15  5  1  0
 16 18  1  0
 16 14  1  0
 17 16  2  0
 19 18  1  0
 19 20  1  6
 20 21  1  0
 21 22  2  0
 21 26  1  0
 22 23  1  0
 23 24  2  0
 25 24  1  0
 26 25  2  0
 27 28  1  0
 27 19  1  0
 29 27  2  0
M  END
$$$$
