CRF.pdb
     RDKit          3D

 29 29  0  0  1  0  0  0  0  0999 V2000
    6.2055  -21.3473   24.6938 N   0  0  0  0  0  0  0  0  0  0  0  0
    6.3468  -19.9607   25.0980 C   0  0  1  0  0  0  0  0  0  0  0  0
    6.5966  -19.8300   26.5814 C   0  0  0  0  0  0  0  0  0  0  0  0
    5.2505  -20.4595   27.5816 S   0  0  0  0  0  0  0  0  0  0  0  0
    7.4035  -19.3499   24.2790 C   0  0  0  0  0  0  0  0  0  0  0  0
    8.3443  -20.1094   23.8885 O   0  0  0  0  0  0  0  0  0  0  0  0
    9.0342  -14.1994   19.2768 N   0  0  0  0  0  0  0  0  0  0  0  0
    8.0872  -13.3415   19.8948 C   0  0  0  0  0  0  0  0  0  0  0  0
    8.2859  -12.0729   19.9706 N   0  0  0  0  0  0  0  0  0  0  0  0
    6.8712  -13.8777   20.4561 N   0  0  0  0  0  0  0  0  0  0  0  0
    6.7932  -15.2189   20.9562 C   0  0  0  0  0  0  0  0  0  0  0  0
    7.6213  -15.3561   22.2130 C   0  0  0  0  0  0  0  0  0  0  0  0
    8.3928  -16.6291   22.1431 C   0  0  0  0  0  0  0  0  0  0  0  0
    8.5828  -17.2810   23.4940 C   0  0  2  0  0  0  0  0  0  0  0  0
    7.3995  -17.9809   23.9259 N   0  0  0  0  0  0  0  0  0  0  0  0
    9.0681  -16.3190   24.5146 C   0  0  0  0  0  0  0  0  0  0  0  0
    8.8182  -15.0936   24.4540 O   0  0  0  0  0  0  0  0  0  0  0  0
    7.6100  -11.4864   20.4805 N   0  0  0  0  0  0  0  0  0  0  0  0
    9.8440  -16.7805   25.6059 C   0  0  1  0  0  0  0  0  0  0  0  0
   10.0627  -16.0156   26.8175 C   0  0  0  0  0  0  0  0  0  0  0  0
    8.7025  -15.8047   27.4426 C   0  0  0  0  0  0  0  0  0  0  0  0
    8.0444  -14.5558   27.0527 C   0  0  0  0  0  0  0  0  0  0  0  0
    6.7740  -14.5530   26.4970 C   0  0  0  0  0  0  0  0  0  0  0  0
    6.1891  -13.3568   26.1457 C   0  0  0  0  0  0  0  0  0  0  0  0
    6.8271  -12.1467   26.3280 C   0  0  0  0  0  0  0  0  0  0  0  0
    8.0912  -12.1826   26.8835 C   0  0  0  0  0  0  0  0  0  0  0  0
    8.7125  -13.3533   27.2486 C   0  0  0  0  0  0  0  0  0  0  0  0
   11.0480  -16.6301   27.7053 O   0  0  0  0  0  0  0  0  0  0  0  0
   11.5858  -15.9007   28.7548 O   0  0  0  0  0  0  0  0  0  0  0  0
  2  3  1  0
  2  1  1  6
  4  3  1  0
  5  2  1  0
  6  5  2  0
  8  7  1  0
  8 10  1  0
  9  8  2  0
 11 10  1  0
 11 12  1  0
 14 13  1  6
 13 12  1  0
 14 15  1  0
 15  5  1  0
 16 18  1  0
 16 14  1  0
 17 16  2  0
 19 18  1  0
 19 20  1  6
 20 21  1  0
 21 22  2  0
 21 26  1  0
 22 23  1  0
 23 24  2  0
 25 24  1  0
 26 25  2  0
 27 28  1  0
 27 19  1  0
 29 27  2  0
M  END
$$$$
