CRF.pdb
     RDKit          3D

 29 29  0  0  1  0  0  0  0  0999 V2000
    7.2646  -14.4533   17.3300 N   0  0  0  0  0  0  0  0  0  0  0  0
    8.0598  -14.0565   18.4773 C   0  0  1  0  0  0  0  0  0  0  0  0
    7.7117  -12.6648   18.9484 C   0  0  0  0  0  0  0  0  0  0  0  0
    8.5455  -12.2044   20.4655 S   0  0  0  0  0  0  0  0  0  0  0  0
    7.8974  -15.0768   19.5227 C   0  0  0  0  0  0  0  0  0  0  0  0
    6.7131  -15.3222   19.9123 O   0  0  0  0  0  0  0  0  0  0  0  0
   13.2770  -18.4584   20.2294 N   0  0  0  0  0  0  0  0  0  0  0  0
   13.0300  -19.1807   19.0328 C   0  0  0  0  0  0  0  0  0  0  0  0
   13.9463  -19.3304   18.1426 N   0  0  0  0  0  0  0  0  0  0  0  0
   11.7353  -19.7677   18.7866 N   0  0  0  0  0  0  0  0  0  0  0  0
   10.6496  -19.6261   19.7118 C   0  0  0  0  0  0  0  0  0  0  0  0
   10.3749  -18.1632   19.9739 C   0  0  0  0  0  0  0  0  0  0  0  0
    9.2440  -18.0522   20.9380 C   0  0  0  0  0  0  0  0  0  0  0  0
    8.8659  -16.6208   21.2447 C   0  0  2  0  0  0  0  0  0  0  0  0
    8.9919  -15.7706   20.0881 N   0  0  0  0  0  0  0  0  0  0  0  0
    9.6053  -16.0868   22.4154 C   0  0  0  0  0  0  0  0  0  0  0  0
   10.6493  -15.4058   22.2959 O   0  0  0  0  0  0  0  0  0  0  0  0
   13.7299  -19.8470   17.2783 N   0  0  0  0  0  0  0  0  0  0  0  0
    9.1320  -16.3439   23.7253 C   0  0  2  0  0  0  0  0  0  0  0  0
    9.8031  -15.8884   24.9266 C   0  0  0  0  0  0  0  0  0  0  0  0
    8.7189  -15.4346   25.8774 C   0  0  0  0  0  0  0  0  0  0  0  0
    9.2116  -14.9339   27.1624 C   0  0  0  0  0  0  0  0  0  0  0  0
    9.2960  -13.5745   27.4223 C   0  0  0  0  0  0  0  0  0  0  0  0
    9.7629  -13.1444   28.6444 C   0  0  0  0  0  0  0  0  0  0  0  0
   10.1544  -14.0257   29.6316 C   0  0  0  0  0  0  0  0  0  0  0  0
   10.0586  -15.3729   29.3425 C   0  0  0  0  0  0  0  0  0  0  0  0
    9.5985  -15.8460   28.1366 C   0  0  0  0  0  0  0  0  0  0  0  0
   10.7140  -16.8885   25.4804 O   0  0  0  0  0  0  0  0  0  0  0  0
   10.3455  -18.2251   25.5028 O   0  0  0  0  0  0  0  0  0  0  0  0
  2  3  1  0
  2  1  1  6
  4  3  1  0
  5  2  1  0
  6  5  2  0
  8  7  1  0
  8 10  1  0
  9  8  2  0
 11 10  1  0
 11 12  1  0
 14 13  1  6
 13 12  1  0
 14 15  1  0
 15  5  1  0
 16 18  1  0
 16 14  1  0
 17 16  2  0
 19 18  1  0
 19 20  1  1
 20 21  1  0
 21 22  2  0
 21 26  1  0
 22 23  1  0
 23 24  2  0
 25 24  1  0
 26 25  2  0
 27 28  1  0
 27 19  1  0
 29 27  2  0
M  END
$$$$
