CRF.pdb
     RDKit          3D

 29 29  0  0  1  0  0  0  0  0999 V2000
    9.1445  -14.1953   18.9701 N   0  0  0  0  0  0  0  0  0  0  0  0
    8.5167  -13.4948   20.0752 C   0  0  1  0  0  0  0  0  0  0  0  0
    7.2368  -12.8131   19.6543 C   0  0  0  0  0  0  0  0  0  0  0  0
    6.6015  -13.4098   18.0894 S   0  0  0  0  0  0  0  0  0  0  0  0
    8.3262  -14.4510   21.1751 C   0  0  0  0  0  0  0  0  0  0  0  0
    7.6804  -14.0433   22.1906 O   0  0  0  0  0  0  0  0  0  0  0  0
   12.8443  -19.1662   19.9543 N   0  0  0  0  0  0  0  0  0  0  0  0
   11.8858  -19.5668   18.9871 C   0  0  0  0  0  0  0  0  0  0  0  0
   12.0186  -20.6654   18.3313 N   0  0  0  0  0  0  0  0  0  0  0  0
   10.7322  -18.7441   18.7158 N   0  0  0  0  0  0  0  0  0  0  0  0
   10.2253  -17.8078   19.6757 C   0  0  0  0  0  0  0  0  0  0  0  0
    9.0214  -18.3860   20.3831 C   0  0  0  0  0  0  0  0  0  0  0  0
    9.1353  -18.0953   21.8402 C   0  0  0  0  0  0  0  0  0  0  0  0
    8.6443  -16.7134   22.2083 C   0  0  2  0  0  0  0  0  0  0  0  0
    8.8279  -15.7721   21.1328 N   0  0  0  0  0  0  0  0  0  0  0  0
    9.2358  -16.2316   23.4811 C   0  0  0  0  0  0  0  0  0  0  0  0
   10.4672  -16.0557   23.6244 O   0  0  0  0  0  0  0  0  0  0  0  0
   11.2969  -20.9351   17.6480 N   0  0  0  0  0  0  0  0  0  0  0  0
    8.3969  -15.9542   24.5880 C   0  0  1  0  0  0  0  0  0  0  0  0
    8.8866  -15.7487   25.9366 C   0  0  0  0  0  0  0  0  0  0  0  0
    7.7311  -15.1831   26.7307 C   0  0  0  0  0  0  0  0  0  0  0  0
    7.3469  -13.8213   26.3536 C   0  0  0  0  0  0  0  0  0  0  0  0
    6.1473  -13.2676   26.7746 C   0  0  0  0  0  0  0  0  0  0  0  0
    5.8238  -11.9826   26.3998 C   0  0  0  0  0  0  0  0  0  0  0  0
    6.6582  -11.2162   25.6117 C   0  0  0  0  0  0  0  0  0  0  0  0
    7.8454  -11.7956   25.2085 C   0  0  0  0  0  0  0  0  0  0  0  0
    8.2081  -13.0744   25.5591 C   0  0  0  0  0  0  0  0  0  0  0  0
    9.4845  -16.9523   26.5118 O   0  0  0  0  0  0  0  0  0  0  0  0
    9.1919  -18.1965   25.9742 O   0  0  0  0  0  0  0  0  0  0  0  0
  2  3  1  0
  2  1  1  6
  4  3  1  0
  5  2  1  0
  6  5  2  0
  8  7  1  0
  8 10  1  0
  9  8  2  0
 11 10  1  0
 11 12  1  0
 14 13  1  6
 13 12  1  0
 14 15  1  0
 15  5  1  0
 16 18  1  0
 16 14  1  0
 17 16  2  0
 19 18  1  0
 19 20  1  1
 20 21  1  0
 21 22  2  0
 21 26  1  0
 22 23  1  0
 23 24  2  0
 25 24  1  0
 26 25  2  0
 27 28  1  0
 27 19  1  0
 29 27  2  0
M  END
$$$$
