CRF.pdb
     RDKit          3D

 29 29  0  0  1  0  0  0  0  0999 V2000
    6.7704  -13.2086   19.0479 N   0  0  0  0  0  0  0  0  0  0  0  0
    8.0642  -13.7315   19.4468 C   0  0  1  0  0  0  0  0  0  0  0  0
    9.0219  -12.6292   19.8310 C   0  0  0  0  0  0  0  0  0  0  0  0
    8.3111  -11.4418   20.9683 S   0  0  0  0  0  0  0  0  0  0  0  0
    7.8510  -14.7111   20.5216 C   0  0  0  0  0  0  0  0  0  0  0  0
    6.7502  -14.6469   21.1528 O   0  0  0  0  0  0  0  0  0  0  0  0
   10.4216  -23.1270   21.6366 N   0  0  0  0  0  0  0  0  0  0  0  0
    9.5360  -22.8181   22.7020 C   0  0  0  0  0  0  0  0  0  0  0  0
    9.0931  -23.7345   23.4885 N   0  0  0  0  0  0  0  0  0  0  0  0
    9.1096  -21.4586   22.9281 N   0  0  0  0  0  0  0  0  0  0  0  0
    9.4367  -20.3996   22.0190 C   0  0  0  0  0  0  0  0  0  0  0  0
    8.8076  -19.1045   22.4787 C   0  0  0  0  0  0  0  0  0  0  0  0
    9.1171  -18.0403   21.4826 C   0  0  0  0  0  0  0  0  0  0  0  0
    8.5900  -16.6815   21.8850 C   0  0  2  0  0  0  0  0  0  0  0  0
    8.8106  -15.6928   20.8602 N   0  0  0  0  0  0  0  0  0  0  0  0
    9.1144  -16.2477   23.2037 C   0  0  0  0  0  0  0  0  0  0  0  0
   10.2625  -15.7681   23.3444 O   0  0  0  0  0  0  0  0  0  0  0  0
    8.4443  -23.4783   24.2462 N   0  0  0  0  0  0  0  0  0  0  0  0
    8.3051  -16.3709   24.3595 C   0  0  2  0  0  0  0  0  0  0  0  0
    8.6904  -15.8785   25.6672 C   0  0  0  0  0  0  0  0  0  0  0  0
    7.4091  -15.5162   26.3833 C   0  0  0  0  0  0  0  0  0  0  0  0
    6.9826  -14.1279   26.1955 C   0  0  0  0  0  0  0  0  0  0  0  0
    5.6850  -13.8168   25.8186 C   0  0  0  0  0  0  0  0  0  0  0  0
    5.3231  -12.4983   25.6544 C   0  0  0  0  0  0  0  0  0  0  0  0
    6.2136  -11.4629   25.8531 C   0  0  0  0  0  0  0  0  0  0  0  0
    7.4983  -11.8049   26.2278 C   0  0  0  0  0  0  0  0  0  0  0  0
    7.9023  -13.1072   26.4030 C   0  0  0  0  0  0  0  0  0  0  0  0
    9.5469  -16.8131   26.3948 O   0  0  0  0  0  0  0  0  0  0  0  0
    9.6879  -18.1175   25.9461 O   0  0  0  0  0  0  0  0  0  0  0  0
  2  3  1  0
  2  1  1  1
  4  3  1  0
  5  2  1  0
  6  5  2  0
  8  7  1  0
  8 10  1  0
  9  8  2  0
 11 10  1  0
 11 12  1  0
 14 13  1  6
 13 12  1  0
 14 15  1  0
 15  5  1  0
 16 18  1  0
 16 14  1  0
 17 16  2  0
 19 18  1  0
 19 20  1  6
 20 21  1  0
 21 22  2  0
 21 26  1  0
 22 23  1  0
 23 24  2  0
 25 24  1  0
 26 25  2  0
 27 28  1  0
 27 19  1  0
 29 27  2  0
M  END
$$$$
