CRF.pdb
     RDKit          3D

 29 29  0  0  1  0  0  0  0  0999 V2000
    6.4750  -19.4915   20.6490 N   0  0  0  0  0  0  0  0  0  0  0  0
    6.4252  -18.4568   21.6654 C   0  0  1  0  0  0  0  0  0  0  0  0
    5.5866  -18.8726   22.8503 C   0  0  0  0  0  0  0  0  0  0  0  0
    5.6959  -17.7317   24.2269 S   0  0  0  0  0  0  0  0  0  0  0  0
    7.8051  -18.1058   22.0302 C   0  0  0  0  0  0  0  0  0  0  0  0
    8.6343  -19.0619   22.1438 O   0  0  0  0  0  0  0  0  0  0  0  0
    8.3091  -15.1831   18.0140 N   0  0  0  0  0  0  0  0  0  0  0  0
    8.3967  -13.7707   18.1240 C   0  0  0  0  0  0  0  0  0  0  0  0
    7.6467  -12.9988   17.4195 N   0  0  0  0  0  0  0  0  0  0  0  0
    9.3364  -13.1647   19.0357 N   0  0  0  0  0  0  0  0  0  0  0  0
   10.1898  -13.9497   19.8785 C   0  0  0  0  0  0  0  0  0  0  0  0
    9.3632  -14.7398   20.8669 C   0  0  0  0  0  0  0  0  0  0  0  0
   10.2776  -15.5626   21.7080 C   0  0  0  0  0  0  0  0  0  0  0  0
    9.5440  -16.4302   22.7055 C   0  0  2  0  0  0  0  0  0  0  0  0
    8.2201  -16.7724   22.2509 N   0  0  0  0  0  0  0  0  0  0  0  0
    9.5325  -15.8319   24.0635 C   0  0  0  0  0  0  0  0  0  0  0  0
    9.8932  -14.6526   24.2800 O   0  0  0  0  0  0  0  0  0  0  0  0
    7.7297  -11.9781   17.5290 N   0  0  0  0  0  0  0  0  0  0  0  0
    9.1019  -16.6035   25.1703 C   0  0  1  0  0  0  0  0  0  0  0  0
    9.4561  -16.3066   26.5441 C   0  0  0  0  0  0  0  0  0  0  0  0
    8.2156  -15.7357   27.1928 C   0  0  0  0  0  0  0  0  0  0  0  0
    7.8437  -14.4014   26.7175 C   0  0  0  0  0  0  0  0  0  0  0  0
    6.6548  -14.1833   26.0381 C   0  0  0  0  0  0  0  0  0  0  0  0
    6.3408  -12.9128   25.6094 C   0  0  0  0  0  0  0  0  0  0  0  0
    7.1745  -11.8361   25.8331 C   0  0  0  0  0  0  0  0  0  0  0  0
    8.3510  -12.0855   26.5123 C   0  0  0  0  0  0  0  0  0  0  0  0
    8.7040  -13.3371   26.9579 C   0  0  0  0  0  0  0  0  0  0  0  0
   10.0300  -17.4555   27.2422 O   0  0  0  0  0  0  0  0  0  0  0  0
   10.4756  -17.3213   28.5484 O   0  0  0  0  0  0  0  0  0  0  0  0
  2  3  1  0
  2  1  1  6
  4  3  1  0
  5  2  1  0
  6  5  2  0
  8  7  1  0
  8 10  1  0
  9  8  2  0
 11 10  1  0
 11 12  1  0
 14 13  1  6
 13 12  1  0
 14 15  1  0
 15  5  1  0
 16 18  1  0
 16 14  1  0
 17 16  2  0
 19 18  1  0
 19 20  1  6
 20 21  1  0
 21 22  2  0
 21 26  1  0
 22 23  1  0
 23 24  2  0
 25 24  1  0
 26 25  2  0
 27 28  1  0
 27 19  1  0
 29 27  2  0
M  END
$$$$
