CRF.pdb
     RDKit          3D

 29 29  0  0  1  0  0  0  0  0999 V2000
    7.1333  -14.4463   18.3912 N   0  0  0  0  0  0  0  0  0  0  0  0
    8.0085  -14.0850   19.4910 C   0  0  1  0  0  0  0  0  0  0  0  0
    7.9626  -12.6042   19.7829 C   0  0  0  0  0  0  0  0  0  0  0  0
    8.9500  -12.1339   21.2016 S   0  0  0  0  0  0  0  0  0  0  0  0
    7.6519  -14.9131   20.6518 C   0  0  0  0  0  0  0  0  0  0  0  0
    6.4162  -15.1392   20.8432 O   0  0  0  0  0  0  0  0  0  0  0  0
    9.9025  -18.8364   18.0644 N   0  0  0  0  0  0  0  0  0  0  0  0
   10.9917  -19.4293   18.7547 C   0  0  0  0  0  0  0  0  0  0  0  0
   12.0897  -19.7151   18.1487 N   0  0  0  0  0  0  0  0  0  0  0  0
   10.8907  -19.7269   20.1628 N   0  0  0  0  0  0  0  0  0  0  0  0
    9.6936  -19.4705   20.9085 C   0  0  0  0  0  0  0  0  0  0  0  0
    9.5859  -17.9981   21.2321 C   0  0  0  0  0  0  0  0  0  0  0  0
    8.4677  -17.7991   22.1969 C   0  0  0  0  0  0  0  0  0  0  0  0
    8.2866  -16.3541   22.6032 C   0  0  2  0  0  0  0  0  0  0  0  0
    8.6193  -15.4478   21.5334 N   0  0  0  0  0  0  0  0  0  0  0  0
    9.0128  -16.0316   23.8565 C   0  0  0  0  0  0  0  0  0  0  0  0
   10.2040  -15.6455   23.8613 O   0  0  0  0  0  0  0  0  0  0  0  0
   12.8506  -20.1709   18.6722 N   0  0  0  0  0  0  0  0  0  0  0  0
    8.3554  -16.1574   25.1047 C   0  0  1  0  0  0  0  0  0  0  0  0
    8.9824  -15.8603   26.3773 C   0  0  0  0  0  0  0  0  0  0  0  0
    7.9057  -15.2673   27.2575 C   0  0  0  0  0  0  0  0  0  0  0  0
    7.4276  -13.9521   26.8259 C   0  0  0  0  0  0  0  0  0  0  0  0
    6.1534  -13.7828   26.3058 C   0  0  0  0  0  0  0  0  0  0  0  0
    5.7411  -12.5289   25.9133 C   0  0  0  0  0  0  0  0  0  0  0  0
    6.5578  -11.4215   26.0193 C   0  0  0  0  0  0  0  0  0  0  0  0
    7.8208  -11.6224   26.5410 C   0  0  0  0  0  0  0  0  0  0  0  0
    8.2733  -12.8561   26.9451 C   0  0  0  0  0  0  0  0  0  0  0  0
    9.6679  -17.0152   26.9545 O   0  0  0  0  0  0  0  0  0  0  0  0
    9.6132  -18.2445   26.3154 O   0  0  0  0  0  0  0  0  0  0  0  0
  2  3  1  0
  2  1  1  6
  4  3  1  0
  5  2  1  0
  6  5  2  0
  8  7  1  0
  8 10  1  0
  9  8  2  0
 11 10  1  0
 11 12  1  0
 14 13  1  6
 13 12  1  0
 14 15  1  0
 15  5  1  0
 16 18  1  0
 16 14  1  0
 17 16  2  0
 19 18  1  0
 19 20  1  1
 20 21  1  0
 21 22  2  0
 21 26  1  0
 22 23  1  0
 23 24  2  0
 25 24  1  0
 26 25  2  0
 27 28  1  0
 27 19  1  0
 29 27  2  0
M  END
$$$$
