PIK.pdb
     RDKit          3D

 25 25  0  0  1  0  0  0  0  0999 V2000
    8.0895  -15.0148   19.9171 N   0  0  0  0  0  0  0  0  0  0  0  0
    7.9017  -16.0580   18.9505 C   0  0  0  0  0  0  0  0  0  0  0  0
    6.8343  -16.9820   19.5128 C   0  0  0  0  0  0  0  0  0  0  0  0
    7.0464  -16.8070   21.0017 C   0  0  0  0  0  0  0  0  0  0  0  0
    7.3376  -15.3294   21.0882 C   0  0  1  0  0  0  0  0  0  0  0  0
    8.0483  -14.9793   22.3459 C   0  0  0  0  0  0  0  0  0  0  0  0
    9.2963  -15.0443   22.3550 O   0  0  0  0  0  0  0  0  0  0  0  0
    5.8742  -11.3008   25.8022 C   0  0  0  0  0  0  0  0  0  0  0  0
    6.8028  -12.1645   25.0232 C   0  0  0  0  0  0  0  0  0  0  0  0
    7.1634  -13.4672   25.6465 C   0  0  2  0  0  0  0  0  0  0  0  0
    7.7840  -13.2101   27.0055 C   0  0  0  0  0  0  0  0  0  0  0  0
    8.0133  -14.3596   24.8005 C   0  0  2  0  0  0  0  0  0  0  0  0
    7.3563  -14.5799   23.5173 N   0  0  0  0  0  0  0  0  0  0  0  0
    8.2741  -15.6735   25.4300 C   0  0  0  0  0  0  0  0  0  0  0  0
    7.3426  -16.5061   25.6326 O   0  0  0  0  0  0  0  0  0  0  0  0
    9.5749  -16.0110   25.8125 N   0  0  0  0  0  0  0  0  0  0  0  0
    9.8163  -17.4619   26.2353 C   0  0  1  0  0  0  0  0  0  0  0  0
   10.9445  -17.9276   25.3842 C   0  0  0  0  0  0  0  0  0  0  0  0
   11.5970  -19.1980   25.6050 C   0  0  0  0  0  0  0  0  0  0  0  0
   12.8090  -19.5547   24.8435 C   0  0  0  0  0  0  0  0  0  0  0  0
   13.3252  -20.9558   25.2972 C   0  0  0  0  0  0  0  0  0  0  0  0
   14.5538  -21.2827   24.6401 N   0  0  0  0  0  0  0  0  0  0  0  0
   10.1383  -17.2834   27.6760 C   0  0  0  0  0  0  0  0  0  0  0  0
   10.3748  -16.1065   28.3299 O   0  0  0  0  0  0  0  0  0  0  0  0
   10.2213  -18.3218   28.4384 O   0  0  0  0  0  0  0  0  0  0  0  0
  1  5  1  0
  2  3  1  0
  2  1  1  0
  3  4  1  0
  4  5  1  0
  5  6  1  1
  7  6  2  0
  9  8  1  0
 10  9  1  0
 10 11  1  1
 12 10  1  0
 12 13  1  6
 13  6  1  0
 14 15  2  0
 14 12  1  0
 16 14  1  0
 17 16  1  0
 17 18  1  6
 19 20  1  0
 19 18  1  0
 20 21  1  0
 21 22  1  0
 23 24  1  0
 23 17  1  0
 25 23  2  0
M  END
$$$$
