PIK.pdb
     RDKit          3D

 25 25  0  0  1  0  0  0  0  0999 V2000
    6.8636  -14.5631   20.8715 N   0  0  0  0  0  0  0  0  0  0  0  0
    6.1647  -13.7293   19.9364 C   0  0  0  0  0  0  0  0  0  0  0  0
    7.2052  -12.8167   19.3085 C   0  0  0  0  0  0  0  0  0  0  0  0
    8.2154  -12.7045   20.4306 C   0  0  0  0  0  0  0  0  0  0  0  0
    8.2132  -14.1119   20.9736 C   0  0  1  0  0  0  0  0  0  0  0  0
    8.7409  -14.1688   22.3622 C   0  0  0  0  0  0  0  0  0  0  0  0
    9.9737  -14.0503   22.5292 O   0  0  0  0  0  0  0  0  0  0  0  0
    6.2638  -11.4816   26.1749 C   0  0  0  0  0  0  0  0  0  0  0  0
    7.2680  -12.2350   25.3752 C   0  0  0  0  0  0  0  0  0  0  0  0
    7.4712  -13.6599   25.7541 C   0  0  2  0  0  0  0  0  0  0  0  0
    7.9079  -13.7286   27.2041 C   0  0  0  0  0  0  0  0  0  0  0  0
    8.3845  -14.4295   24.8552 C   0  0  2  0  0  0  0  0  0  0  0  0
    7.8935  -14.3515   23.4843 N   0  0  0  0  0  0  0  0  0  0  0  0
    8.5009  -15.8552   25.2355 C   0  0  0  0  0  0  0  0  0  0  0  0
    7.5054  -16.6353   25.1886 O   0  0  0  0  0  0  0  0  0  0  0  0
    9.7337  -16.3600   25.6569 N   0  0  0  0  0  0  0  0  0  0  0  0
    9.8076  -17.8641   25.9296 C   0  0  1  0  0  0  0  0  0  0  0  0
   10.7402  -18.3961   24.8993 C   0  0  0  0  0  0  0  0  0  0  0  0
   11.2861  -19.7320   24.9768 C   0  0  0  0  0  0  0  0  0  0  0  0
   12.1789  -20.2341   23.9154 C   0  0  0  0  0  0  0  0  0  0  0  0
   12.6718  -21.6706   24.2747 C   0  0  0  0  0  0  0  0  0  0  0  0
   13.5520  -22.1740   23.2648 N   0  0  0  0  0  0  0  0  0  0  0  0
   10.3283  -17.8705   27.3224 C   0  0  0  0  0  0  0  0  0  0  0  0
   10.8426  -16.8113   28.0169 O   0  0  0  0  0  0  0  0  0  0  0  0
   10.3223  -18.9727   27.9943 O   0  0  0  0  0  0  0  0  0  0  0  0
  1  5  1  0
  2  3  1  0
  2  1  1  0
  3  4  1  0
  4  5  1  0
  5  6  1  1
  7  6  2  0
  9  8  1  0
 10  9  1  0
 10 11  1  1
 12 10  1  0
 12 13  1  6
 13  6  1  0
 14 15  2  0
 14 12  1  0
 16 14  1  0
 17 16  1  0
 17 18  1  6
 19 20  1  0
 19 18  1  0
 20 21  1  0
 21 22  1  0
 23 24  1  0
 23 17  1  0
 25 23  2  0
M  END
$$$$
