PIK.pdb
     RDKit          3D

 25 25  0  0  1  0  0  0  0  0999 V2000
    6.8813  -15.0989   21.0986 N   0  0  0  0  0  0  0  0  0  0  0  0
    6.1715  -14.3936   20.0707 C   0  0  0  0  0  0  0  0  0  0  0  0
    7.2063  -13.5822   19.3089 C   0  0  0  0  0  0  0  0  0  0  0  0
    8.2358  -13.3272   20.3895 C   0  0  0  0  0  0  0  0  0  0  0  0
    8.2349  -14.6484   21.1176 C   0  0  1  0  0  0  0  0  0  0  0  0
    8.7853  -14.5214   22.4926 C   0  0  0  0  0  0  0  0  0  0  0  0
   10.0124  -14.3217   22.6198 O   0  0  0  0  0  0  0  0  0  0  0  0
    6.2185  -11.5251   25.9557 C   0  0  0  0  0  0  0  0  0  0  0  0
    7.2255  -12.3405   25.2233 C   0  0  0  0  0  0  0  0  0  0  0  0
    7.5551  -13.6639   25.8193 C   0  0  2  0  0  0  0  0  0  0  0  0
    8.0662  -13.4567   27.2313 C   0  0  0  0  0  0  0  0  0  0  0  0
    8.4793  -14.5115   25.0059 C   0  0  2  0  0  0  0  0  0  0  0  0
    7.9656  -14.6200   23.6454 N   0  0  0  0  0  0  0  0  0  0  0  0
    8.6475  -15.8745   25.5580 C   0  0  0  0  0  0  0  0  0  0  0  0
    7.6698  -16.6717   25.6603 O   0  0  0  0  0  0  0  0  0  0  0  0
    9.9105  -16.2993   25.9782 N   0  0  0  0  0  0  0  0  0  0  0  0
   10.0250  -17.7435   26.4715 C   0  0  1  0  0  0  0  0  0  0  0  0
   11.1694  -18.3187   25.7143 C   0  0  0  0  0  0  0  0  0  0  0  0
   11.6986  -19.6316   26.0059 C   0  0  0  0  0  0  0  0  0  0  0  0
   12.9298  -20.1020   25.3435 C   0  0  0  0  0  0  0  0  0  0  0  0
   13.3482  -21.4873   25.9276 C   0  0  0  0  0  0  0  0  0  0  0  0
   14.6469  -21.8654   25.4601 N   0  0  0  0  0  0  0  0  0  0  0  0
   10.2680  -17.5251   27.9222 C   0  0  0  0  0  0  0  0  0  0  0  0
   10.1855  -18.4531   28.9225 O   0  0  0  0  0  0  0  0  0  0  0  0
   10.5903  -16.3464   28.3385 O   0  0  0  0  0  0  0  0  0  0  0  0
  1  5  1  0
  2  3  1  0
  2  1  1  0
  3  4  1  0
  4  5  1  0
  5  6  1  1
  7  6  2  0
  9  8  1  0
 10  9  1  0
 10 11  1  1
 12 10  1  0
 12 13  1  6
 13  6  1  0
 14 15  2  0
 14 12  1  0
 16 14  1  0
 17 16  1  0
 17 18  1  6
 19 20  1  0
 19 18  1  0
 20 21  1  0
 21 22  1  0
 23 24  1  0
 23 17  1  0
 25 23  2  0
M  END
$$$$
