PIK.pdb
     RDKit          3D

 25 25  0  0  1  0  0  0  0  0999 V2000
    7.1065  -14.9357   20.5107 N   0  0  0  0  0  0  0  0  0  0  0  0
    6.4701  -14.2603   19.4167 C   0  0  0  0  0  0  0  0  0  0  0  0
    7.5539  -13.4611   18.7121 C   0  0  0  0  0  0  0  0  0  0  0  0
    8.5009  -13.1733   19.8579 C   0  0  0  0  0  0  0  0  0  0  0  0
    8.4531  -14.4763   20.6166 C   0  0  1  0  0  0  0  0  0  0  0  0
    8.9015  -14.3122   22.0244 C   0  0  0  0  0  0  0  0  0  0  0  0
   10.1180  -14.1201   22.2366 O   0  0  0  0  0  0  0  0  0  0  0  0
    6.9604  -11.7883   27.1811 C   0  0  0  0  0  0  0  0  0  0  0  0
    7.8545  -12.7830   26.5280 C   0  0  0  0  0  0  0  0  0  0  0  0
    7.4427  -13.2437   25.1739 C   0  0  2  0  0  0  0  0  0  0  0  0
    6.0460  -13.8277   25.2539 C   0  0  0  0  0  0  0  0  0  0  0  0
    8.4025  -14.1725   24.5026 C   0  0  2  0  0  0  0  0  0  0  0  0
    7.9975  -14.3676   23.1153 N   0  0  0  0  0  0  0  0  0  0  0  0
    8.4821  -15.4949   25.1626 C   0  0  0  0  0  0  0  0  0  0  0  0
    7.4916  -16.2825   25.1867 O   0  0  0  0  0  0  0  0  0  0  0  0
    9.6736  -15.8913   25.7753 N   0  0  0  0  0  0  0  0  0  0  0  0
    9.7521  -17.3407   26.2605 C   0  0  1  0  0  0  0  0  0  0  0  0
   10.8308  -17.9612   25.4447 C   0  0  0  0  0  0  0  0  0  0  0  0
   10.6999  -18.1503   24.0179 C   0  0  0  0  0  0  0  0  0  0  0  0
   11.8116  -18.7264   23.2382 C   0  0  0  0  0  0  0  0  0  0  0  0
   11.4300  -18.7692   21.7256 C   0  0  0  0  0  0  0  0  0  0  0  0
   12.5323  -19.2260   20.9355 N   0  0  0  0  0  0  0  0  0  0  0  0
   10.0784  -17.1374   27.6969 C   0  0  0  0  0  0  0  0  0  0  0  0
   10.0053  -18.0635   28.6997 O   0  0  0  0  0  0  0  0  0  0  0  0
   10.4743  -15.9756   28.0967 O   0  0  0  0  0  0  0  0  0  0  0  0
  1  5  1  0
  2  3  1  0
  2  1  1  0
  3  4  1  0
  4  5  1  0
  5  6  1  1
  7  6  2  0
  9  8  1  0
 10  9  1  0
 10 11  1  1
 12 10  1  0
 12 13  1  6
 13  6  1  0
 14 15  2  0
 14 12  1  0
 16 14  1  0
 17 16  1  0
 17 18  1  6
 19 20  1  0
 19 18  1  0
 20 21  1  0
 21 22  1  0
 23 24  1  0
 23 17  1  0
 25 23  2  0
M  END
$$$$
