PIK.pdb
     RDKit          3D

 25 25  0  0  1  0  0  0  0  0999 V2000
    6.9476  -15.6316   21.3098 N   0  0  0  0  0  0  0  0  0  0  0  0
    6.2839  -14.9912   20.2111 C   0  0  0  0  0  0  0  0  0  0  0  0
    7.3481  -14.2090   19.4591 C   0  0  0  0  0  0  0  0  0  0  0  0
    8.3191  -13.8839   20.5743 C   0  0  0  0  0  0  0  0  0  0  0  0
    8.2942  -15.1641   21.3720 C   0  0  1  0  0  0  0  0  0  0  0  0
    8.7731  -14.9568   22.7639 C   0  0  0  0  0  0  0  0  0  0  0  0
    9.9947  -14.7641   22.9439 O   0  0  0  0  0  0  0  0  0  0  0  0
    5.7460  -11.9019   25.7369 C   0  0  0  0  0  0  0  0  0  0  0  0
    6.8907  -12.6650   25.1688 C   0  0  0  0  0  0  0  0  0  0  0  0
    7.3253  -13.8628   25.9379 C   0  0  2  0  0  0  0  0  0  0  0  0
    7.8020  -13.4242   27.3085 C   0  0  0  0  0  0  0  0  0  0  0  0
    8.3269  -14.7300   25.2457 C   0  0  2  0  0  0  0  0  0  0  0  0
    7.8923  -14.9724   23.8749 N   0  0  0  0  0  0  0  0  0  0  0  0
    8.5221  -16.0343   25.9175 C   0  0  0  0  0  0  0  0  0  0  0  0
    7.5797  -16.8730   26.0199 O   0  0  0  0  0  0  0  0  0  0  0  0
    9.7716  -16.3558   26.4538 N   0  0  0  0  0  0  0  0  0  0  0  0
    9.9069  -17.7289   27.1160 C   0  0  1  0  0  0  0  0  0  0  0  0
   10.8602  -18.4790   26.2543 C   0  0  0  0  0  0  0  0  0  0  0  0
   11.3627  -19.7830   26.6225 C   0  0  0  0  0  0  0  0  0  0  0  0
   12.2574  -20.5207   25.7108 C   0  0  0  0  0  0  0  0  0  0  0  0
   12.6026  -21.9145   26.3220 C   0  0  0  0  0  0  0  0  0  0  0  0
   13.2362  -22.7532   25.3508 N   0  0  0  0  0  0  0  0  0  0  0  0
   10.4275  -17.3436   28.4546 C   0  0  0  0  0  0  0  0  0  0  0  0
   10.4738  -18.1211   29.5780 O   0  0  0  0  0  0  0  0  0  0  0  0
   10.8946  -16.1534   28.6324 O   0  0  0  0  0  0  0  0  0  0  0  0
  1  5  1  0
  2  3  1  0
  2  1  1  0
  3  4  1  0
  4  5  1  0
  5  6  1  1
  7  6  2  0
  9  8  1  0
 10  9  1  0
 10 11  1  1
 12 10  1  0
 12 13  1  6
 13  6  1  0
 14 15  2  0
 14 12  1  0
 16 14  1  0
 17 16  1  0
 17 18  1  6
 19 20  1  0
 19 18  1  0
 20 21  1  0
 21 22  1  0
 23 24  1  0
 23 17  1  0
 25 23  2  0
M  END
$$$$
