PIK.pdb
     RDKit          3D

 25 25  0  0  1  0  0  0  0  0999 V2000
    7.9715  -14.7218   20.0932 N   0  0  0  0  0  0  0  0  0  0  0  0
    7.5637  -15.6125   19.0452 C   0  0  0  0  0  0  0  0  0  0  0  0
    6.3704  -16.3889   19.5770 C   0  0  0  0  0  0  0  0  0  0  0  0
    6.6668  -16.4059   21.0616 C   0  0  0  0  0  0  0  0  0  0  0  0
    7.2204  -15.0181   21.2695 C   0  0  1  0  0  0  0  0  0  0  0  0
    8.0295  -14.9269   22.5132 C   0  0  0  0  0  0  0  0  0  0  0  0
    9.2497  -15.1874   22.4425 O   0  0  0  0  0  0  0  0  0  0  0  0
    6.2847  -11.3584   26.3164 C   0  0  0  0  0  0  0  0  0  0  0  0
    7.1541  -12.1882   25.4384 C   0  0  0  0  0  0  0  0  0  0  0  0
    7.4911  -13.5463   25.9456 C   0  0  2  0  0  0  0  0  0  0  0  0
    8.2134  -13.4136   27.2718 C   0  0  0  0  0  0  0  0  0  0  0  0
    8.2373  -14.4138   24.9838 C   0  0  2  0  0  0  0  0  0  0  0  0
    7.4602  -14.5577   23.7582 N   0  0  0  0  0  0  0  0  0  0  0  0
    8.5218  -15.7619   25.5244 C   0  0  0  0  0  0  0  0  0  0  0  0
    7.5960  -16.5990   25.7343 O   0  0  0  0  0  0  0  0  0  0  0  0
    9.8392  -16.1274   25.8127 N   0  0  0  0  0  0  0  0  0  0  0  0
   10.0842  -17.5914   26.1855 C   0  0  1  0  0  0  0  0  0  0  0  0
   11.2816  -17.9932   25.3987 C   0  0  0  0  0  0  0  0  0  0  0  0
   11.9208  -19.2768   25.5782 C   0  0  0  0  0  0  0  0  0  0  0  0
   13.1107  -19.6336   24.7827 C   0  0  0  0  0  0  0  0  0  0  0  0
   13.6304  -21.0414   25.2111 C   0  0  0  0  0  0  0  0  0  0  0  0
   14.1906  -21.7386   24.0939 N   0  0  0  0  0  0  0  0  0  0  0  0
   10.2973  -17.4744   27.6525 C   0  0  0  0  0  0  0  0  0  0  0  0
   10.2745  -18.4841   28.5736 O   0  0  0  0  0  0  0  0  0  0  0  0
   10.5281  -16.3131   28.1669 O   0  0  0  0  0  0  0  0  0  0  0  0
  1  5  1  0
  2  3  1  0
  2  1  1  0
  3  4  1  0
  4  5  1  0
  5  6  1  1
  7  6  2  0
  9  8  1  0
 10  9  1  0
 10 11  1  1
 12 10  1  0
 12 13  1  6
 13  6  1  0
 14 15  2  0
 14 12  1  0
 16 14  1  0
 17 16  1  0
 17 18  1  6
 19 20  1  0
 19 18  1  0
 20 21  1  0
 21 22  1  0
 23 24  1  0
 23 17  1  0
 25 23  2  0
M  END
$$$$
