PIK.pdb
     RDKit          3D

 25 25  0  0  1  0  0  0  0  0999 V2000
    6.6423  -14.5345   20.9760 N   0  0  0  0  0  0  0  0  0  0  0  0
    6.0742  -13.6250   20.0231 C   0  0  0  0  0  0  0  0  0  0  0  0
    7.2406  -12.9588   19.3121 C   0  0  0  0  0  0  0  0  0  0  0  0
    8.3023  -12.9922   20.3910 C   0  0  0  0  0  0  0  0  0  0  0  0
    8.0564  -14.3470   21.0073 C   0  0  1  0  0  0  0  0  0  0  0  0
    8.6243  -14.4415   22.3778 C   0  0  0  0  0  0  0  0  0  0  0  0
    9.8678  -14.4686   22.4996 O   0  0  0  0  0  0  0  0  0  0  0  0
    6.1831  -11.4604   26.0155 C   0  0  0  0  0  0  0  0  0  0  0  0
    7.1823  -12.2597   25.2553 C   0  0  0  0  0  0  0  0  0  0  0  0
    7.4316  -13.6402   25.7526 C   0  0  2  0  0  0  0  0  0  0  0  0
    7.9223  -13.5686   27.1852 C   0  0  0  0  0  0  0  0  0  0  0  0
    8.3288  -14.4703   24.8922 C   0  0  2  0  0  0  0  0  0  0  0  0
    7.8032  -14.5008   23.5323 N   0  0  0  0  0  0  0  0  0  0  0  0
    8.4669  -15.8618   25.3772 C   0  0  0  0  0  0  0  0  0  0  0  0
    7.4841  -16.6592   25.3870 O   0  0  0  0  0  0  0  0  0  0  0  0
    9.7065  -16.3142   25.8366 N   0  0  0  0  0  0  0  0  0  0  0  0
    9.8137  -17.8005   26.1853 C   0  0  1  0  0  0  0  0  0  0  0  0
   10.7639  -18.3619   25.1873 C   0  0  0  0  0  0  0  0  0  0  0  0
   11.2580  -19.7170   25.2778 C   0  0  0  0  0  0  0  0  0  0  0  0
   12.3341  -20.1785   24.3807 C   0  0  0  0  0  0  0  0  0  0  0  0
   12.6390  -21.6848   24.6519 C   0  0  0  0  0  0  0  0  0  0  0  0
   13.6005  -22.1856   23.7176 N   0  0  0  0  0  0  0  0  0  0  0  0
   10.3268  -17.7244   27.5789 C   0  0  0  0  0  0  0  0  0  0  0  0
   10.3784  -18.7363   28.4966 O   0  0  0  0  0  0  0  0  0  0  0  0
   10.7807  -16.6012   28.0248 O   0  0  0  0  0  0  0  0  0  0  0  0
  1  5  1  0
  2  3  1  0
  2  1  1  0
  3  4  1  0
  4  5  1  0
  5  6  1  1
  7  6  2  0
  9  8  1  0
 10  9  1  0
 10 11  1  1
 12 10  1  0
 12 13  1  6
 13  6  1  0
 14 15  2  0
 14 12  1  0
 16 14  1  0
 17 16  1  0
 17 18  1  6
 19 20  1  0
 19 18  1  0
 20 21  1  0
 21 22  1  0
 23 24  1  0
 23 17  1  0
 25 23  2  0
M  END
$$$$
