PIK.pdb
     RDKit          3D

 25 25  0  0  1  0  0  0  0  0999 V2000
    6.8385  -14.8539   20.6633 N   0  0  0  0  0  0  0  0  0  0  0  0
    6.2080  -14.0920   19.6242 C   0  0  0  0  0  0  0  0  0  0  0  0
    7.3173  -13.3476   18.8995 C   0  0  0  0  0  0  0  0  0  0  0  0
    8.3315  -13.1744   20.0103 C   0  0  0  0  0  0  0  0  0  0  0  0
    8.2190  -14.4987   20.7239 C   0  0  1  0  0  0  0  0  0  0  0  0
    8.7384  -14.4225   22.1146 C   0  0  0  0  0  0  0  0  0  0  0  0
    9.9755  -14.3558   22.2785 O   0  0  0  0  0  0  0  0  0  0  0  0
    6.9085  -11.8736   27.3525 C   0  0  0  0  0  0  0  0  0  0  0  0
    7.8159  -12.8264   26.6568 C   0  0  0  0  0  0  0  0  0  0  0  0
    7.4038  -13.2424   25.2884 C   0  0  2  0  0  0  0  0  0  0  0  0
    5.9897  -13.7861   25.3418 C   0  0  0  0  0  0  0  0  0  0  0  0
    8.3420  -14.1833   24.6037 C   0  0  2  0  0  0  0  0  0  0  0  0
    7.8786  -14.4239   23.2421 N   0  0  0  0  0  0  0  0  0  0  0  0
    8.4629  -15.4844   25.2990 C   0  0  0  0  0  0  0  0  0  0  0  0
    7.5016  -16.3068   25.3346 O   0  0  0  0  0  0  0  0  0  0  0  0
    9.6617  -15.8209   25.9329 N   0  0  0  0  0  0  0  0  0  0  0  0
    9.7937  -17.2574   26.4438 C   0  0  1  0  0  0  0  0  0  0  0  0
   10.8058  -17.8900   25.5552 C   0  0  0  0  0  0  0  0  0  0  0  0
   11.3308  -19.2118   25.8112 C   0  0  0  0  0  0  0  0  0  0  0  0
   12.4216  -19.7537   24.9791 C   0  0  0  0  0  0  0  0  0  0  0  0
   12.8343  -21.1650   25.5019 C   0  0  0  0  0  0  0  0  0  0  0  0
   13.7736  -21.7814   24.6153 N   0  0  0  0  0  0  0  0  0  0  0  0
   10.2374  -17.0171   27.8426 C   0  0  0  0  0  0  0  0  0  0  0  0
   10.3348  -17.9381   28.8480 O   0  0  0  0  0  0  0  0  0  0  0  0
   10.5744  -15.8241   28.2025 O   0  0  0  0  0  0  0  0  0  0  0  0
  1  5  1  0
  2  3  1  0
  2  1  1  0
  3  4  1  0
  4  5  1  0
  5  6  1  1
  7  6  2  0
  9  8  1  0
 10  9  1  0
 10 11  1  1
 12 10  1  0
 12 13  1  6
 13  6  1  0
 14 15  2  0
 14 12  1  0
 16 14  1  0
 17 16  1  0
 17 18  1  6
 19 20  1  0
 19 18  1  0
 20 21  1  0
 21 22  1  0
 23 24  1  0
 23 17  1  0
 25 23  2  0
M  END
$$$$
