PIK.pdb
     RDKit          3D

 25 25  0  0  1  0  0  0  0  0999 V2000
    7.1411  -14.9075   20.6735 N   0  0  0  0  0  0  0  0  0  0  0  0
    6.4027  -14.2160   19.6564 C   0  0  0  0  0  0  0  0  0  0  0  0
    7.3547  -13.2019   19.0442 C   0  0  0  0  0  0  0  0  0  0  0  0
    8.2662  -12.9070   20.2167 C   0  0  0  0  0  0  0  0  0  0  0  0
    8.4112  -14.2769   20.8316 C   0  0  1  0  0  0  0  0  0  0  0  0
    8.8496  -14.2020   22.2500 C   0  0  0  0  0  0  0  0  0  0  0  0
   10.0640  -14.0202   22.4823 O   0  0  0  0  0  0  0  0  0  0  0  0
    5.8428  -11.5054   25.7370 C   0  0  0  0  0  0  0  0  0  0  0  0
    6.9449  -12.2034   25.0203 C   0  0  0  0  0  0  0  0  0  0  0  0
    7.2947  -13.5608   25.5205 C   0  0  2  0  0  0  0  0  0  0  0  0
    7.6548  -13.4686   26.9902 C   0  0  0  0  0  0  0  0  0  0  0  0
    8.3420  -14.2762   24.7293 C   0  0  2  0  0  0  0  0  0  0  0  0
    7.9385  -14.3298   23.3289 N   0  0  0  0  0  0  0  0  0  0  0  0
    8.5816  -15.6568   25.2057 C   0  0  0  0  0  0  0  0  0  0  0  0
    7.6449  -16.5055   25.2713 O   0  0  0  0  0  0  0  0  0  0  0  0
    9.8677  -16.0411   25.5937 N   0  0  0  0  0  0  0  0  0  0  0  0
   10.0608  -17.5064   25.9907 C   0  0  1  0  0  0  0  0  0  0  0  0
   11.2827  -17.9440   25.2629 C   0  0  0  0  0  0  0  0  0  0  0  0
   11.8942  -19.2322   25.4978 C   0  0  0  0  0  0  0  0  0  0  0  0
   13.0980  -19.6331   24.7453 C   0  0  0  0  0  0  0  0  0  0  0  0
   13.5556  -21.0546   25.1984 C   0  0  0  0  0  0  0  0  0  0  0  0
   14.7749  -21.4278   24.5486 N   0  0  0  0  0  0  0  0  0  0  0  0
   10.2099  -17.3795   27.4647 C   0  0  0  0  0  0  0  0  0  0  0  0
   10.4508  -16.2367   28.1752 O   0  0  0  0  0  0  0  0  0  0  0  0
   10.1157  -18.4345   28.2026 O   0  0  0  0  0  0  0  0  0  0  0  0
  1  5  1  0
  2  3  1  0
  2  1  1  0
  3  4  1  0
  4  5  1  0
  5  6  1  1
  7  6  2  0
  9  8  1  0
 10  9  1  0
 10 11  1  1
 12 10  1  0
 12 13  1  6
 13  6  1  0
 14 15  2  0
 14 12  1  0
 16 14  1  0
 17 16  1  0
 17 18  1  6
 19 20  1  0
 19 18  1  0
 20 21  1  0
 21 22  1  0
 23 24  1  0
 23 17  1  0
 25 23  2  0
M  END
$$$$
