GLM.pdb
     RDKit          3D

 21 20  0  0  1  0  0  0  0  0999 V2000
   27.4728  -22.5840  -17.0051 N   0  0  0  0  0  0  0  0  0  0  0  0
   27.1796  -21.4543  -16.1596 C   0  0  0  0  0  0  0  0  0  0  0  0
   26.3208  -21.8509  -15.0171 C   0  0  0  0  0  0  0  0  0  0  0  0
   25.7618  -22.9680  -14.9515 O   0  0  0  0  0  0  0  0  0  0  0  0
   25.3571  -19.3962   -9.3539 C   0  0  0  0  0  0  0  0  0  0  0  0
   25.1168  -20.4930  -10.3573 C   0  0  2  0  0  0  0  0  0  0  0  0
   25.3133  -21.8600   -9.7384 C   0  0  0  0  0  0  0  0  0  0  0  0
   25.7924  -20.3386  -11.6661 C   0  0  0  0  0  0  0  0  0  0  0  0
   25.3124  -21.1689  -12.7969 C   0  0  2  0  0  0  0  0  0  0  0  0
   26.1343  -20.9207  -13.9665 N   0  0  0  0  0  0  0  0  0  0  0  0
   23.9073  -20.6795  -13.0956 C   0  0  0  0  0  0  0  0  0  0  0  0
   23.7017  -19.5008  -13.4422 O   0  0  0  0  0  0  0  0  0  0  0  0
   18.9479  -24.9532  -14.6663 C   0  0  0  0  0  0  0  0  0  0  0  0
   18.1179  -23.5426  -13.9401 S   0  0  0  0  0  0  0  0  0  0  0  0
   19.1911  -22.0875  -13.8015 C   0  0  0  0  0  0  0  0  0  0  0  0
   20.5849  -22.4408  -13.3823 C   0  0  0  0  0  0  0  0  0  0  0  0
   21.4541  -21.2417  -13.3387 C   0  0  2  0  0  0  0  0  0  0  0  0
   22.8271  -21.5560  -12.9824 N   0  0  0  0  0  0  0  0  0  0  0  0
   20.9479  -20.2629  -12.3671 C   0  0  0  0  0  0  0  0  0  0  0  0
   21.3615  -20.3903  -11.0222 O   0  0  0  0  0  0  0  0  0  0  0  0
   20.1824  -19.3163  -12.5965 O   0  0  0  0  0  0  0  0  0  0  0  0
  1  2  1  0
  2  3  1  0
  3 10  1  0
  3  4  2  0
  6  5  1  1
  7  6  1  0
  9  8  1  1
  8  6  1  0
  9 11  1  0
 10  9  1  0
 11 12  2  0
 14 13  1  0
 15 16  1  0
 15 14  1  0
 17 16  1  1
 17 19  1  0
 18 11  1  0
 18 17  1  0
 19 20  1  0
 21 19  2  0
M  END
$$$$
