GLM.pdb
     RDKit          3D

 21 20  0  0  1  0  0  0  0  0999 V2000
   28.7072  -21.4698  -17.0936 N   0  0  0  0  0  0  0  0  0  0  0  0
   28.0185  -20.4778  -16.3069 C   0  0  0  0  0  0  0  0  0  0  0  0
   27.0577  -21.1111  -15.3710 C   0  0  0  0  0  0  0  0  0  0  0  0
   26.5077  -22.2085  -15.6118 O   0  0  0  0  0  0  0  0  0  0  0  0
   25.6072  -19.9753   -9.3943 C   0  0  0  0  0  0  0  0  0  0  0  0
   25.3632  -20.7399  -10.6684 C   0  0  2  0  0  0  0  0  0  0  0  0
   25.3883  -22.2341  -10.4287 C   0  0  0  0  0  0  0  0  0  0  0  0
   26.1609  -20.3205  -11.8435 C   0  0  0  0  0  0  0  0  0  0  0  0
   25.8497  -20.9447  -13.1519 C   0  0  2  0  0  0  0  0  0  0  0  0
   26.7599  -20.4381  -14.1618 N   0  0  0  0  0  0  0  0  0  0  0  0
   24.4487  -20.4793  -13.5037 C   0  0  0  0  0  0  0  0  0  0  0  0
   24.1767  -19.2655  -13.5697 O   0  0  0  0  0  0  0  0  0  0  0  0
   17.6905  -22.6367  -17.0201 C   0  0  0  0  0  0  0  0  0  0  0  0
   19.3147  -23.0999  -16.4258 S   0  0  0  0  0  0  0  0  0  0  0  0
   20.0994  -21.8008  -15.4335 C   0  0  0  0  0  0  0  0  0  0  0  0
   21.4544  -22.1995  -14.9352 C   0  0  0  0  0  0  0  0  0  0  0  0
   22.0902  -21.1027  -14.1684 C   0  0  2  0  0  0  0  0  0  0  0  0
   23.4477  -21.4180  -13.7577 N   0  0  0  0  0  0  0  0  0  0  0  0
   21.3141  -20.7894  -12.9610 C   0  0  0  0  0  0  0  0  0  0  0  0
   20.3100  -19.8001  -13.0575 O   0  0  0  0  0  0  0  0  0  0  0  0
   21.4415  -21.3048  -11.8417 O   0  0  0  0  0  0  0  0  0  0  0  0
  1  2  1  0
  2  3  1  0
  3 10  1  0
  3  4  2  0
  6  5  1  1
  7  6  1  0
  9  8  1  1
  8  6  1  0
  9 11  1  0
 10  9  1  0
 11 12  2  0
 14 13  1  0
 15 16  1  0
 15 14  1  0
 17 16  1  1
 17 19  1  0
 18 11  1  0
 18 17  1  0
 19 20  1  0
 21 19  2  0
M  END
$$$$
