GLM.pdb
     RDKit          3D

 21 20  0  0  1  0  0  0  0  0999 V2000
   24.9845  -16.0594  -21.0034 N   0  0  0  0  0  0  0  0  0  0  0  0
   25.7938  -14.8670  -21.0280 C   0  0  0  0  0  0  0  0  0  0  0  0
   25.2494  -13.8331  -20.1145 C   0  0  0  0  0  0  0  0  0  0  0  0
   24.0227  -13.6875  -19.9177 O   0  0  0  0  0  0  0  0  0  0  0  0
   27.8164  -10.2557  -15.6950 C   0  0  0  0  0  0  0  0  0  0  0  0
   26.6514  -10.5502  -16.6024 C   0  0  2  0  0  0  0  0  0  0  0  0
   25.3552  -10.6371  -15.8260 C   0  0  0  0  0  0  0  0  0  0  0  0
   26.8370  -11.6634  -17.5613 C   0  0  0  0  0  0  0  0  0  0  0  0
   25.7711  -11.9001  -18.5644 C   0  0  2  0  0  0  0  0  0  0  0  0
   26.1634  -12.9843  -19.4452 N   0  0  0  0  0  0  0  0  0  0  0  0
   25.6953  -10.6276  -19.3880 C   0  0  0  0  0  0  0  0  0  0  0  0
   26.6119  -10.3196  -20.1733 O   0  0  0  0  0  0  0  0  0  0  0  0
   19.9349   -6.9840  -20.0835 C   0  0  0  0  0  0  0  0  0  0  0  0
   20.9667   -6.8255  -21.5381 S   0  0  0  0  0  0  0  0  0  0  0  0
   22.7179   -7.1525  -21.1994 C   0  0  0  0  0  0  0  0  0  0  0  0
   22.9166   -8.3256  -20.2896 C   0  0  0  0  0  0  0  0  0  0  0  0
   24.3561   -8.5909  -20.0600 C   0  0  2  0  0  0  0  0  0  0  0  0
   24.5874   -9.7873  -19.2688 N   0  0  0  0  0  0  0  0  0  0  0  0
   24.9930   -7.4619  -19.3687 C   0  0  0  0  0  0  0  0  0  0  0  0
   25.8338   -6.6131  -20.1228 O   0  0  0  0  0  0  0  0  0  0  0  0
   24.8751   -7.1612  -18.1727 O   0  0  0  0  0  0  0  0  0  0  0  0
  1  2  1  0
  2  3  1  0
  3 10  1  0
  3  4  2  0
  6  5  1  1
  7  6  1  0
  9  8  1  1
  8  6  1  0
  9 11  1  0
 10  9  1  0
 11 12  2  0
 14 13  1  0
 15 16  1  0
 15 14  1  0
 17 16  1  1
 17 19  1  0
 18 11  1  0
 18 17  1  0
 19 20  1  0
 21 19  2  0
M  END
$$$$
