DGD.pdb
     RDKit          3D

 21 20  0  0  1  0  0  0  0  0999 V2000
    7.0292  -16.8180   17.5791 N   0  0  0  0  0  0  0  0  0  0  0  0
    8.1579  -16.0577   17.1271 C   0  0  1  0  0  0  0  0  0  0  0  0
    7.9223  -15.5488   15.7032 C   0  0  0  0  0  0  0  0  0  0  0  0
    8.3763  -16.6484   14.7895 C   0  0  0  0  0  0  0  0  0  0  0  0
    8.1944  -17.8518   15.0736 O   0  0  0  0  0  0  0  0  0  0  0  0
    8.3988  -14.9284   18.0609 C   0  0  0  0  0  0  0  0  0  0  0  0
    9.4799  -14.3356   18.1698 O   0  0  0  0  0  0  0  0  0  0  0  0
    9.0119  -16.3354   13.6020 O   0  0  0  0  0  0  0  0  0  0  0  0
    7.3012  -14.5205   18.8709 N   0  0  0  0  0  0  0  0  0  0  0  0
    7.4969  -13.5143   19.8752 C   0  0  0  0  0  0  0  0  0  0  0  0
    8.0566  -14.0712   21.1336 C   0  0  0  0  0  0  0  0  0  0  0  0
    7.3653  -14.1051   22.1826 O   0  0  0  0  0  0  0  0  0  0  0  0
    9.3852  -14.5701   21.1527 N   0  0  0  0  0  0  0  0  0  0  0  0
    9.9834  -15.2247   22.3050 C   0  0  1  0  0  0  0  0  0  0  0  0
    9.2548  -16.4460   22.7220 C   0  0  0  0  0  0  0  0  0  0  0  0
    9.9709  -17.1311   23.8150 C   0  0  0  0  0  0  0  0  0  0  0  0
   11.0486  -16.7596   24.3334 O   0  0  0  0  0  0  0  0  0  0  0  0
   11.3603  -15.5887   21.9415 C   0  0  0  0  0  0  0  0  0  0  0  0
   12.1836  -16.0021   22.7817 O   0  0  0  0  0  0  0  0  0  0  0  0
    9.4269  -18.3180   24.3555 O   0  0  0  0  0  0  0  0  0  0  0  0
   11.7701  -15.4741   20.6281 O   0  0  0  0  0  0  0  0  0  0  0  0
  2  3  1  0
  2  1  1  1
  3  4  1  0
  4  8  1  0
  4  5  2  0
  6  2  1  0
  7  6  2  0
  9  6  1  0
 10  9  1  0
 11 10  1  0
 11 13  1  0
 12 11  2  0
 14 13  1  0
 14 18  1  0
 14 15  1  6
 16 15  1  0
 16 17  2  0
 18 21  1  0
 19 18  2  0
 20 16  1  0
M  END
$$$$
