DGD.pdb
     RDKit          3D

 21 20  0  0  1  0  0  0  0  0999 V2000
   12.2544  -19.3432   17.0122 N   0  0  0  0  0  0  0  0  0  0  0  0
   10.9055  -19.2137   17.4812 C   0  0  1  0  0  0  0  0  0  0  0  0
    9.9333  -19.8645   16.4948 C   0  0  0  0  0  0  0  0  0  0  0  0
   10.0152  -19.0534   15.2356 C   0  0  0  0  0  0  0  0  0  0  0  0
   11.0599  -19.0123   14.5509 O   0  0  0  0  0  0  0  0  0  0  0  0
   10.7889  -19.8314   18.8266 C   0  0  0  0  0  0  0  0  0  0  0  0
   11.1289  -20.9921   19.0898 O   0  0  0  0  0  0  0  0  0  0  0  0
    8.9153  -18.3300   14.8124 O   0  0  0  0  0  0  0  0  0  0  0  0
   10.2492  -19.0166   19.8620 N   0  0  0  0  0  0  0  0  0  0  0  0
   10.0493  -19.5725   21.1698 C   0  0  0  0  0  0  0  0  0  0  0  0
   11.2995  -19.5971   21.9721 C   0  0  0  0  0  0  0  0  0  0  0  0
   12.2908  -18.9021   21.6351 O   0  0  0  0  0  0  0  0  0  0  0  0
   11.3762  -20.4132   23.1307 N   0  0  0  0  0  0  0  0  0  0  0  0
   12.5368  -20.4637   24.0051 C   0  0  1  0  0  0  0  0  0  0  0  0
   12.2245  -20.9903   25.3547 C   0  0  0  0  0  0  0  0  0  0  0  0
   11.9119  -19.8876   26.2837 C   0  0  0  0  0  0  0  0  0  0  0  0
   12.0602  -18.6662   26.0505 O   0  0  0  0  0  0  0  0  0  0  0  0
   13.5326  -21.3374   23.3684 C   0  0  0  0  0  0  0  0  0  0  0  0
   13.2093  -22.3426   22.7052 O   0  0  0  0  0  0  0  0  0  0  0  0
   11.3966  -20.1922   27.5637 O   0  0  0  0  0  0  0  0  0  0  0  0
   14.8759  -21.0475   23.5007 O   0  0  0  0  0  0  0  0  0  0  0  0
  2  3  1  0
  2  1  1  6
  3  4  1  0
  4  8  1  0
  4  5  2  0
  6  2  1  0
  7  6  2  0
  9  6  1  0
 10  9  1  0
 11 10  1  0
 11 13  1  0
 12 11  2  0
 14 13  1  0
 14 18  1  0
 14 15  1  1
 16 15  1  0
 16 17  2  0
 18 21  1  0
 19 18  2  0
 20 16  1  0
M  END
$$$$
