DGD.pdb
     RDKit          3D

 21 20  0  0  1  0  0  0  0  0999 V2000
   10.1638  -16.8230   15.1103 N   0  0  0  0  0  0  0  0  0  0  0  0
    8.8434  -17.3799   15.0587 C   0  0  1  0  0  0  0  0  0  0  0  0
    8.8635  -18.7345   14.3470 C   0  0  0  0  0  0  0  0  0  0  0  0
    9.2598  -18.4516   12.9281 C   0  0  0  0  0  0  0  0  0  0  0  0
    8.4330  -18.0343   12.0890 O   0  0  0  0  0  0  0  0  0  0  0  0
    8.3092  -17.5133   16.4379 C   0  0  0  0  0  0  0  0  0  0  0  0
    7.1439  -17.8354   16.7034 O   0  0  0  0  0  0  0  0  0  0  0  0
   10.5678  -18.6534   12.5276 O   0  0  0  0  0  0  0  0  0  0  0  0
    9.2143  -17.2490   17.5048 N   0  0  0  0  0  0  0  0  0  0  0  0
    8.7535  -17.3291   18.8614 C   0  0  0  0  0  0  0  0  0  0  0  0
    9.8366  -17.0676   19.8440 C   0  0  0  0  0  0  0  0  0  0  0  0
   11.0156  -16.8646   19.4592 O   0  0  0  0  0  0  0  0  0  0  0  0
    9.5383  -17.0468   21.2314 N   0  0  0  0  0  0  0  0  0  0  0  0
   10.4862  -16.6325   22.2532 C   0  0  1  0  0  0  0  0  0  0  0  0
    9.8432  -16.3329   23.5543 C   0  0  0  0  0  0  0  0  0  0  0  0
   10.8416  -15.8560   24.5303 C   0  0  0  0  0  0  0  0  0  0  0  0
   12.0727  -15.7476   24.3283 O   0  0  0  0  0  0  0  0  0  0  0  0
   11.4479  -17.7292   22.4350 C   0  0  0  0  0  0  0  0  0  0  0  0
   11.0928  -18.9230   22.4943 O   0  0  0  0  0  0  0  0  0  0  0  0
   10.4134  -15.4769   25.8224 O   0  0  0  0  0  0  0  0  0  0  0  0
   12.7938  -17.4425   22.5455 O   0  0  0  0  0  0  0  0  0  0  0  0
  2  3  1  0
  2  1  1  1
  3  4  1  0
  4  8  1  0
  4  5  2  0
  6  2  1  0
  7  6  2  0
  9  6  1  0
 10  9  1  0
 11 10  1  0
 11 13  1  0
 12 11  2  0
 14 13  1  0
 14 18  1  0
 14 15  1  1
 16 15  1  0
 16 17  2  0
 18 21  1  0
 19 18  2  0
 20 16  1  0
M  END
$$$$
