DGD.pdb
     RDKit          3D

 21 20  0  0  1  0  0  0  0  0999 V2000
   10.4079  -16.2262   17.3331 N   0  0  0  0  0  0  0  0  0  0  0  0
   11.5361  -15.9332   16.4978 C   0  0  1  0  0  0  0  0  0  0  0  0
   11.0768  -15.2885   15.1882 C   0  0  0  0  0  0  0  0  0  0  0  0
   10.8948  -16.4141   14.2134 C   0  0  0  0  0  0  0  0  0  0  0  0
   11.0920  -17.6032   14.5432 O   0  0  0  0  0  0  0  0  0  0  0  0
   12.4729  -15.0418   17.2278 C   0  0  0  0  0  0  0  0  0  0  0  0
   13.5661  -14.6687   16.7826 O   0  0  0  0  0  0  0  0  0  0  0  0
   10.4997  -16.1417   12.9165 O   0  0  0  0  0  0  0  0  0  0  0  0
   12.0650  -14.6018   18.5191 N   0  0  0  0  0  0  0  0  0  0  0  0
   12.9075  -13.7092   19.2625 C   0  0  0  0  0  0  0  0  0  0  0  0
   13.7301  -14.4189   20.2758 C   0  0  0  0  0  0  0  0  0  0  0  0
   14.5933  -13.8003   20.9478 O   0  0  0  0  0  0  0  0  0  0  0  0
   13.5403  -15.8093   20.4879 N   0  0  0  0  0  0  0  0  0  0  0  0
   14.2039  -16.5617   21.5404 C   0  0  1  0  0  0  0  0  0  0  0  0
   13.3132  -17.5442   22.2017 C   0  0  0  0  0  0  0  0  0  0  0  0
   12.3455  -16.8599   23.0804 C   0  0  0  0  0  0  0  0  0  0  0  0
   12.3378  -15.6378   23.3536 O   0  0  0  0  0  0  0  0  0  0  0  0
   15.3341  -17.2752   20.9286 C   0  0  0  0  0  0  0  0  0  0  0  0
   16.1557  -17.9252   21.6049 O   0  0  0  0  0  0  0  0  0  0  0  0
   11.3176  -17.6139   23.6900 O   0  0  0  0  0  0  0  0  0  0  0  0
   15.5042  -17.2332   19.5592 O   0  0  0  0  0  0  0  0  0  0  0  0
  2  3  1  0
  2  1  1  1
  3  4  1  0
  4  8  1  0
  4  5  2  0
  6  2  1  0
  7  6  2  0
  9  6  1  0
 10  9  1  0
 11 10  1  0
 11 13  1  0
 12 11  2  0
 14 13  1  0
 14 18  1  0
 14 15  1  6
 16 15  1  0
 16 17  2  0
 18 21  1  0
 19 18  2  0
 20 16  1  0
M  END
$$$$
