DGD.pdb
     RDKit          3D

 21 20  0  0  1  0  0  0  0  0999 V2000
    8.8768  -13.2418   16.9392 N   0  0  0  0  0  0  0  0  0  0  0  0
    8.1742  -14.4829   17.0898 C   0  0  1  0  0  0  0  0  0  0  0  0
    9.1023  -15.6611   16.7860 C   0  0  0  0  0  0  0  0  0  0  0  0
    9.5708  -15.4666   15.3742 C   0  0  0  0  0  0  0  0  0  0  0  0
    8.8187  -15.6830   14.3999 O   0  0  0  0  0  0  0  0  0  0  0  0
    7.6298  -14.5782   18.4681 C   0  0  0  0  0  0  0  0  0  0  0  0
    6.9398  -15.5203   18.8788 O   0  0  0  0  0  0  0  0  0  0  0  0
   10.8631  -15.0380   15.1329 O   0  0  0  0  0  0  0  0  0  0  0  0
    7.9350  -13.5062   19.3541 N   0  0  0  0  0  0  0  0  0  0  0  0
    7.3684  -13.4931   20.6724 C   0  0  0  0  0  0  0  0  0  0  0  0
    8.1218  -14.3528   21.6213 C   0  0  0  0  0  0  0  0  0  0  0  0
    7.8099  -14.3905   22.8381 O   0  0  0  0  0  0  0  0  0  0  0  0
    9.2050  -15.1397   21.1502 N   0  0  0  0  0  0  0  0  0  0  0  0
    9.9337  -16.0861   21.9794 C   0  0  1  0  0  0  0  0  0  0  0  0
   10.0781  -17.4194   21.3488 C   0  0  0  0  0  0  0  0  0  0  0  0
   10.0141  -18.4858   22.3664 C   0  0  0  0  0  0  0  0  0  0  0  0
    9.9246  -18.3159   23.6038 O   0  0  0  0  0  0  0  0  0  0  0  0
   11.2698  -15.5237   22.2227 C   0  0  0  0  0  0  0  0  0  0  0  0
   11.9278  -14.9595   21.3264 O   0  0  0  0  0  0  0  0  0  0  0  0
   10.0549  -19.8357   21.9510 O   0  0  0  0  0  0  0  0  0  0  0  0
   11.8279  -15.6161   23.4821 O   0  0  0  0  0  0  0  0  0  0  0  0
  2  3  1  0
  2  1  1  1
  3  4  1  0
  4  8  1  0
  4  5  2  0
  6  2  1  0
  7  6  2  0
  9  6  1  0
 10  9  1  0
 11 10  1  0
 11 13  1  0
 12 11  2  0
 14 13  1  0
 14 18  1  0
 14 15  1  6
 16 15  1  0
 16 17  2  0
 18 21  1  0
 19 18  2  0
 20 16  1  0
M  END
$$$$
