SWH.pdb
     RDKit          3D

 31 33  0  0  1  0  0  0  0  0999 V2000
   26.7856  -19.3232  -15.6268 O   0  0  0  0  0  0  0  0  0  0  0  0
   27.9660  -19.2812  -14.9046 C   0  0  0  0  0  0  0  0  0  0  0  0
   28.2911  -20.6564  -14.3093 C   0  0  2  0  0  0  0  0  0  0  0  0
   28.4547  -21.6568  -15.3165 N   0  0  0  0  0  0  0  0  0  0  0  0
   27.2323  -21.0652  -13.3624 C   0  0  0  0  0  0  0  0  0  0  0  0
   26.3846  -21.9070  -13.7402 O   0  0  0  0  0  0  0  0  0  0  0  0
   27.1272  -20.5508  -12.0439 N   0  0  0  0  0  0  0  0  0  0  0  0
   26.0702  -20.8846  -11.1117 C   0  0  1  0  0  0  0  0  0  0  0  0
   26.3099  -20.4216   -9.7268 C   0  0  0  0  0  0  0  0  0  0  0  0
   27.6055  -20.7426   -9.1286 C   0  0  0  0  0  0  0  0  0  0  0  0
   28.6701  -21.4765   -9.5446 C   0  0  0  0  0  0  0  0  0  0  0  0
   29.6239  -21.4485   -8.5739 N   0  0  0  0  0  0  0  0  0  0  0  0
   29.1867  -20.7100   -7.5466 C   0  0  0  0  0  0  0  0  0  0  0  0
   29.7350  -20.3520   -6.3179 C   0  0  0  0  0  0  0  0  0  0  0  0
   29.0607  -19.5577   -5.4079 C   0  0  0  0  0  0  0  0  0  0  0  0
   27.8002  -19.1034   -5.7281 C   0  0  0  0  0  0  0  0  0  0  0  0
   27.2635  -19.4623   -6.9472 C   0  0  0  0  0  0  0  0  0  0  0  0
   27.9409  -20.2579   -7.8567 C   0  0  0  0  0  0  0  0  0  0  0  0
   24.7631  -20.3301  -11.5531 C   0  0  0  0  0  0  0  0  0  0  0  0
   24.6712  -19.3258  -12.2879 O   0  0  0  0  0  0  0  0  0  0  0  0
   23.5888  -20.9719  -11.1192 N   0  0  0  0  0  0  0  0  0  0  0  0
   22.3466  -20.6924  -11.8538 C   0  0  1  0  0  0  0  0  0  0  0  0
   22.5278  -21.4477  -13.1783 C   0  0  0  0  0  0  0  0  0  0  0  0
   22.2499  -20.5073  -14.2892 C   0  0  0  0  0  0  0  0  0  0  0  0
   21.8671  -19.1971  -14.1062 C   0  0  0  0  0  0  0  0  0  0  0  0
   21.7096  -18.6699  -15.3345 N   0  0  0  0  0  0  0  0  0  0  0  0
   21.9750  -19.5855  -16.2840 C   0  0  0  0  0  0  0  0  0  0  0  0
   22.3055  -20.7092  -15.6156 N   0  0  0  0  0  0  0  0  0  0  0  0
   21.1711  -21.1250  -11.1078 C   0  0  0  0  0  0  0  0  0  0  0  0
   20.0588  -20.5956  -11.3208 O   0  0  0  0  0  0  0  0  0  0  0  0
   21.2720  -22.1203  -10.1618 O   0  0  0  0  0  0  0  0  0  0  0  0
  2  1  1  0
  3  2  1  0
  3  4  1  6
  5  6  2  0
  5  3  1  0
  7  5  1  0
  8  7  1  0
  8  9  1  1
 10 11  2  0
 10  9  1  0
 12 11  1  0
 13 18  2  0
 13 12  1  0
 14 13  1  0
 15 16  1  0
 15 14  2  0
 16 17  2  0
 17 18  1  0
 18 10  1  0
 19 21  1  0
 19  8  1  0
 20 19  2  0
 22 21  1  0
 22 29  1  0
 22 23  1  6
 24 23  1  0
 25 24  2  0
 26 27  1  0
 26 25  1  0
 27 28  2  0
 28 24  1  0
 29 31  1  0
 30 29  2  0
M  END
$$$$
