SWH.pdb
     RDKit          3D

 31 33  0  0  1  0  0  0  0  0999 V2000
   23.1379   -9.0170  -23.5968 O   0  0  0  0  0  0  0  0  0  0  0  0
   22.8976   -8.9936  -22.2335 C   0  0  0  0  0  0  0  0  0  0  0  0
   24.1101   -8.4410  -21.4748 C   0  0  2  0  0  0  0  0  0  0  0  0
   25.2789   -9.2403  -21.6673 N   0  0  0  0  0  0  0  0  0  0  0  0
   23.8046   -8.3369  -20.0323 C   0  0  0  0  0  0  0  0  0  0  0  0
   23.0618   -9.2027  -19.5143 O   0  0  0  0  0  0  0  0  0  0  0  0
   24.3115   -7.3028  -19.2027 N   0  0  0  0  0  0  0  0  0  0  0  0
   24.0362   -7.1739  -17.7867 C   0  0  1  0  0  0  0  0  0  0  0  0
   25.2334   -6.9274  -16.9527 C   0  0  0  0  0  0  0  0  0  0  0  0
   26.0311   -8.0909  -16.5662 C   0  0  0  0  0  0  0  0  0  0  0  0
   27.2974   -8.4915  -16.8510 C   0  0  0  0  0  0  0  0  0  0  0  0
   27.5303   -9.6767  -16.2236 N   0  0  0  0  0  0  0  0  0  0  0  0
   26.4355  -10.0391  -15.5440 C   0  0  0  0  0  0  0  0  0  0  0  0
   26.1195  -11.1332  -14.7430 C   0  0  0  0  0  0  0  0  0  0  0  0
   24.8836  -11.2774  -14.1383 C   0  0  0  0  0  0  0  0  0  0  0  0
   23.9297  -10.3032  -14.3349 C   0  0  0  0  0  0  0  0  0  0  0  0
   24.2501   -9.2221  -15.1298 C   0  0  0  0  0  0  0  0  0  0  0  0
   25.4885   -9.0802  -15.7343 C   0  0  0  0  0  0  0  0  0  0  0  0
   23.0672   -6.0780  -17.5204 C   0  0  0  0  0  0  0  0  0  0  0  0
   23.1988   -4.9323  -17.9970 O   0  0  0  0  0  0  0  0  0  0  0  0
   21.9608   -6.3551  -16.6970 N   0  0  0  0  0  0  0  0  0  0  0  0
   21.0526   -5.2445  -16.3770 C   0  0  1  0  0  0  0  0  0  0  0  0
   20.4775   -4.8383  -17.7414 C   0  0  0  0  0  0  0  0  0  0  0  0
   19.4384   -5.8252  -18.1183 C   0  0  0  0  0  0  0  0  0  0  0  0
   19.6166   -7.1891  -18.0495 C   0  0  0  0  0  0  0  0  0  0  0  0
   18.4653   -7.7464  -18.4687 N   0  0  0  0  0  0  0  0  0  0  0  0
   17.5692   -6.7986  -18.7986 C   0  0  0  0  0  0  0  0  0  0  0  0
   18.1917   -5.6235  -18.5744 N   0  0  0  0  0  0  0  0  0  0  0  0
   20.0260   -5.6463  -15.4231 C   0  0  0  0  0  0  0  0  0  0  0  0
   19.1990   -4.8112  -14.9971 O   0  0  0  0  0  0  0  0  0  0  0  0
   19.9550   -6.9485  -14.9812 O   0  0  0  0  0  0  0  0  0  0  0  0
  2  1  1  0
  3  2  1  0
  3  4  1  1
  5  6  2  0
  5  3  1  0
  7  5  1  0
  8  7  1  0
  8  9  1  1
 10 11  2  0
 10  9  1  0
 12 11  1  0
 13 18  2  0
 13 12  1  0
 14 13  1  0
 15 16  1  0
 15 14  2  0
 16 17  2  0
 17 18  1  0
 18 10  1  0
 19 21  1  0
 19  8  1  0
 20 19  2  0
 22 21  1  0
 22 29  1  0
 22 23  1  6
 24 23  1  0
 25 24  2  0
 26 27  1  0
 26 25  1  0
 27 28  2  0
 28 24  1  0
 29 31  1  0
 30 29  2  0
M  END
$$$$
