SWH.pdb
     RDKit          3D

 31 33  0  0  1  0  0  0  0  0999 V2000
   26.1998  -19.4327  -15.0729 O   0  0  0  0  0  0  0  0  0  0  0  0
   27.5528  -19.6227  -14.8487 C   0  0  0  0  0  0  0  0  0  0  0  0
   27.8289  -21.0459  -14.3496 C   0  0  2  0  0  0  0  0  0  0  0  0
   27.4919  -22.0357  -15.3236 N   0  0  0  0  0  0  0  0  0  0  0  0
   27.0860  -21.3001  -13.0972 C   0  0  0  0  0  0  0  0  0  0  0  0
   26.0593  -22.0164  -13.1457 O   0  0  0  0  0  0  0  0  0  0  0  0
   27.4782  -20.7719  -11.8396 N   0  0  0  0  0  0  0  0  0  0  0  0
   26.7016  -20.8821  -10.6220 C   0  0  1  0  0  0  0  0  0  0  0  0
   27.4040  -20.4147   -9.4064 C   0  0  0  0  0  0  0  0  0  0  0  0
   26.7292  -20.6160   -8.1243 C   0  0  0  0  0  0  0  0  0  0  0  0
   25.5539  -21.1966   -7.7686 C   0  0  0  0  0  0  0  0  0  0  0  0
   25.4107  -21.0976   -6.4187 N   0  0  0  0  0  0  0  0  0  0  0  0
   26.4734  -20.4644   -5.9073 C   0  0  0  0  0  0  0  0  0  0  0  0
   26.8449  -20.0981   -4.6164 C   0  0  0  0  0  0  0  0  0  0  0  0
   28.0268  -19.4321   -4.3455 C   0  0  0  0  0  0  0  0  0  0  0  0
   28.8680  -19.1192   -5.3905 C   0  0  0  0  0  0  0  0  0  0  0  0
   28.4932  -19.4853   -6.6667 C   0  0  0  0  0  0  0  0  0  0  0  0
   27.3090  -20.1522   -6.9353 C   0  0  0  0  0  0  0  0  0  0  0  0
   25.4244  -20.1274  -10.7236 C   0  0  0  0  0  0  0  0  0  0  0  0
   25.3719  -18.9411  -11.1069 O   0  0  0  0  0  0  0  0  0  0  0  0
   24.2331  -20.7875  -10.3711 N   0  0  0  0  0  0  0  0  0  0  0  0
   22.9721  -20.2506  -10.9027 C   0  0  1  0  0  0  0  0  0  0  0  0
   23.1556  -20.3270  -12.4251 C   0  0  0  0  0  0  0  0  0  0  0  0
   21.9155  -19.8306  -13.0664 C   0  0  0  0  0  0  0  0  0  0  0  0
   21.6918  -18.5084  -13.3805 C   0  0  0  0  0  0  0  0  0  0  0  0
   20.4702  -18.4506  -13.9426 N   0  0  0  0  0  0  0  0  0  0  0  0
   19.9125  -19.6737  -13.9982 C   0  0  0  0  0  0  0  0  0  0  0  0
   20.8217  -20.5070  -13.4525 N   0  0  0  0  0  0  0  0  0  0  0  0
   21.8215  -21.0103  -10.4289 C   0  0  0  0  0  0  0  0  0  0  0  0
   21.9686  -22.1739   -9.9963 O   0  0  0  0  0  0  0  0  0  0  0  0
   20.5614  -20.4557  -10.4520 O   0  0  0  0  0  0  0  0  0  0  0  0
  2  1  1  0
  3  2  1  0
  3  4  1  6
  5  6  2  0
  5  3  1  0
  7  5  1  0
  8  7  1  0
  8  9  1  1
 10 11  2  0
 10  9  1  0
 12 11  1  0
 13 18  2  0
 13 12  1  0
 14 13  1  0
 15 16  1  0
 15 14  2  0
 16 17  2  0
 17 18  1  0
 18 10  1  0
 19 21  1  0
 19  8  1  0
 20 19  2  0
 22 21  1  0
 22 29  1  0
 22 23  1  6
 24 23  1  0
 25 24  2  0
 26 27  1  0
 26 25  1  0
 27 28  2  0
 28 24  1  0
 29 31  1  0
 30 29  2  0
M  END
$$$$
