SWH.pdb
     RDKit          3D

 31 33  0  0  1  0  0  0  0  0999 V2000
   27.0461  -21.5133  -18.6260 O   0  0  0  0  0  0  0  0  0  0  0  0
   26.7223  -22.5357  -17.7503 C   0  0  0  0  0  0  0  0  0  0  0  0
   27.6956  -22.5689  -16.5660 C   0  0  2  0  0  0  0  0  0  0  0  0
   28.5310  -23.7282  -16.5847 N   0  0  0  0  0  0  0  0  0  0  0  0
   26.9497  -22.5076  -15.2913 C   0  0  0  0  0  0  0  0  0  0  0  0
   26.2717  -23.5033  -14.9467 O   0  0  0  0  0  0  0  0  0  0  0  0
   26.9628  -21.3749  -14.4363 N   0  0  0  0  0  0  0  0  0  0  0  0
   26.1360  -21.2242  -13.2568 C   0  0  1  0  0  0  0  0  0  0  0  0
   26.5848  -20.1621  -12.3293 C   0  0  0  0  0  0  0  0  0  0  0  0
   27.6783  -20.4902  -11.4148 C   0  0  0  0  0  0  0  0  0  0  0  0
   28.9840  -20.8160  -11.5993 C   0  0  0  0  0  0  0  0  0  0  0  0
   29.5541  -21.0340  -10.3827 N   0  0  0  0  0  0  0  0  0  0  0  0
   28.6355  -20.8530   -9.4259 C   0  0  0  0  0  0  0  0  0  0  0  0
   28.6640  -20.9418   -8.0367 C   0  0  0  0  0  0  0  0  0  0  0  0
   27.5485  -20.7002   -7.2551 C   0  0  0  0  0  0  0  0  0  0  0  0
   26.3654  -20.3591   -7.8726 C   0  0  0  0  0  0  0  0  0  0  0  0
   26.3448  -20.2732   -9.2493 C   0  0  0  0  0  0  0  0  0  0  0  0
   27.4633  -20.5156  -10.0299 C   0  0  0  0  0  0  0  0  0  0  0  0
   24.7222  -20.9396  -13.6186 C   0  0  0  0  0  0  0  0  0  0  0  0
   24.4069  -20.2196  -14.5877 O   0  0  0  0  0  0  0  0  0  0  0  0
   23.7068  -21.5106  -12.8299 N   0  0  0  0  0  0  0  0  0  0  0  0
   22.3131  -21.2249  -13.1993 C   0  0  1  0  0  0  0  0  0  0  0  0
   21.6588  -22.6127  -13.2575 C   0  0  0  0  0  0  0  0  0  0  0  0
   20.2468  -22.4418  -13.6731 C   0  0  0  0  0  0  0  0  0  0  0  0
   19.6353  -21.2169  -13.8233 C   0  0  0  0  0  0  0  0  0  0  0  0
   18.3693  -21.4663  -14.2062 N   0  0  0  0  0  0  0  0  0  0  0  0
   18.1531  -22.7906  -14.3049 C   0  0  0  0  0  0  0  0  0  0  0  0
   19.3240  -23.3705  -13.9716 N   0  0  0  0  0  0  0  0  0  0  0  0
   21.6735  -20.3336  -12.2391 C   0  0  0  0  0  0  0  0  0  0  0  0
   22.0729  -20.2905  -11.0553 O   0  0  0  0  0  0  0  0  0  0  0  0
   20.6241  -19.5297  -12.6244 O   0  0  0  0  0  0  0  0  0  0  0  0
  2  1  1  0
  3  2  1  0
  3  4  1  1
  5  6  2  0
  5  3  1  0
  7  5  1  0
  8  7  1  0
  8  9  1  1
 10 11  2  0
 10  9  1  0
 12 11  1  0
 13 18  2  0
 13 12  1  0
 14 13  1  0
 15 16  1  0
 15 14  2  0
 16 17  2  0
 17 18  1  0
 18 10  1  0
 19 21  1  0
 19  8  1  0
 20 19  2  0
 22 21  1  0
 22 29  1  0
 22 23  1  1
 24 23  1  0
 25 24  2  0
 26 27  1  0
 26 25  1  0
 27 28  2  0
 28 24  1  0
 29 31  1  0
 30 29  2  0
M  END
$$$$
