SWH.pdb
     RDKit          3D

 31 33  0  0  1  0  0  0  0  0999 V2000
   33.9108  -31.4913  -20.6428 O   0  0  0  0  0  0  0  0  0  0  0  0
   32.7599  -31.2457  -19.9135 C   0  0  0  0  0  0  0  0  0  0  0  0
   32.8758  -29.9280  -19.1380 C   0  0  2  0  0  0  0  0  0  0  0  0
   33.6878  -30.0577  -17.9693 N   0  0  0  0  0  0  0  0  0  0  0  0
   31.5327  -29.4365  -18.7646 C   0  0  0  0  0  0  0  0  0  0  0  0
   31.3104  -29.1580  -17.5634 O   0  0  0  0  0  0  0  0  0  0  0  0
   30.4798  -29.2639  -19.7005 N   0  0  0  0  0  0  0  0  0  0  0  0
   29.1731  -28.7278  -19.3800 C   0  0  1  0  0  0  0  0  0  0  0  0
   28.4709  -28.1074  -20.5253 C   0  0  0  0  0  0  0  0  0  0  0  0
   28.9841  -26.8266  -21.0109 C   0  0  0  0  0  0  0  0  0  0  0  0
   30.1845  -26.2000  -20.9028 C   0  0  0  0  0  0  0  0  0  0  0  0
   30.1104  -25.0037  -21.5479 N   0  0  0  0  0  0  0  0  0  0  0  0
   28.8848  -24.8563  -22.0653 C   0  0  0  0  0  0  0  0  0  0  0  0
   28.2686  -23.8514  -22.8063 C   0  0  0  0  0  0  0  0  0  0  0  0
   26.9553  -23.9425  -23.2314 C   0  0  0  0  0  0  0  0  0  0  0  0
   26.2295  -25.0685  -22.9107 C   0  0  0  0  0  0  0  0  0  0  0  0
   26.8467  -26.0599  -22.1763 C   0  0  0  0  0  0  0  0  0  0  0  0
   28.1620  -25.9662  -21.7517 C   0  0  0  0  0  0  0  0  0  0  0  0
   28.2805  -29.7754  -18.8172 C   0  0  0  0  0  0  0  0  0  0  0  0
   28.5122  -30.9952  -18.9414 O   0  0  0  0  0  0  0  0  0  0  0  0
   27.1314  -29.3635  -18.1180 N   0  0  0  0  0  0  0  0  0  0  0  0
   26.3819  -30.3858  -17.3737 C   0  0  1  0  0  0  0  0  0  0  0  0
   27.3570  -30.8229  -16.2711 C   0  0  0  0  0  0  0  0  0  0  0  0
   27.1866  -32.2786  -16.0528 C   0  0  0  0  0  0  0  0  0  0  0  0
   26.3262  -33.0673  -16.7839 C   0  0  0  0  0  0  0  0  0  0  0  0
   26.4484  -34.3170  -16.2993 N   0  0  0  0  0  0  0  0  0  0  0  0
   27.3453  -34.3542  -15.2971 C   0  0  0  0  0  0  0  0  0  0  0  0
   27.7861  -33.0867  -15.1637 N   0  0  0  0  0  0  0  0  0  0  0  0
   25.1281  -29.8585  -16.8489 C   0  0  0  0  0  0  0  0  0  0  0  0
   24.9519  -28.6242  -16.7576 O   0  0  0  0  0  0  0  0  0  0  0  0
   24.1248  -30.7125  -16.4488 O   0  0  0  0  0  0  0  0  0  0  0  0
  2  1  1  0
  3  2  1  0
  3  4  1  1
  5  6  2  0
  5  3  1  0
  7  5  1  0
  8  7  1  0
  8  9  1  6
 10 11  2  0
 10  9  1  0
 12 11  1  0
 13 18  2  0
 13 12  1  0
 14 13  1  0
 15 16  1  0
 15 14  2  0
 16 17  2  0
 17 18  1  0
 18 10  1  0
 19 21  1  0
 19  8  1  0
 20 19  2  0
 22 21  1  0
 22 29  1  0
 22 23  1  1
 24 23  1  0
 25 24  2  0
 26 27  1  0
 26 25  1  0
 27 28  2  0
 28 24  1  0
 29 31  1  0
 30 29  2  0
M  END
$$$$
