SWH.pdb
     RDKit          3D

 31 33  0  0  1  0  0  0  0  0999 V2000
   26.3944  -23.9540  -18.4022 O   0  0  0  0  0  0  0  0  0  0  0  0
   27.6689  -23.5306  -18.7386 C   0  0  0  0  0  0  0  0  0  0  0  0
   28.5012  -23.2519  -17.4813 C   0  0  2  0  0  0  0  0  0  0  0  0
   28.6214  -24.4048  -16.6456 N   0  0  0  0  0  0  0  0  0  0  0  0
   27.9088  -22.1353  -16.7150 C   0  0  0  0  0  0  0  0  0  0  0  0
   27.4309  -22.3748  -15.5819 O   0  0  0  0  0  0  0  0  0  0  0  0
   27.8539  -20.8024  -17.1995 N   0  0  0  0  0  0  0  0  0  0  0  0
   27.2905  -19.6843  -16.4715 C   0  0  1  0  0  0  0  0  0  0  0  0
   27.7699  -18.3591  -16.9228 C   0  0  0  0  0  0  0  0  0  0  0  0
   27.2737  -17.1869  -16.2023 C   0  0  0  0  0  0  0  0  0  0  0  0
   26.9956  -16.9426  -14.8953 C   0  0  0  0  0  0  0  0  0  0  0  0
   26.5461  -15.6632  -14.7779 N   0  0  0  0  0  0  0  0  0  0  0  0
   26.5326  -15.0874  -15.9862 C   0  0  0  0  0  0  0  0  0  0  0  0
   26.1738  -13.8225  -16.4444 C   0  0  0  0  0  0  0  0  0  0  0  0
   26.2531  -13.4670  -17.7790 C   0  0  0  0  0  0  0  0  0  0  0  0
   26.7036  -14.3978  -18.6891 C   0  0  0  0  0  0  0  0  0  0  0  0
   27.0572  -15.6489  -18.2277 C   0  0  0  0  0  0  0  0  0  0  0  0
   26.9768  -16.0024  -16.8907 C   0  0  0  0  0  0  0  0  0  0  0  0
   25.8057  -19.6784  -16.5513 C   0  0  0  0  0  0  0  0  0  0  0  0
   25.1847  -20.0450  -17.5696 O   0  0  0  0  0  0  0  0  0  0  0  0
   25.0819  -19.2403  -15.4275 N   0  0  0  0  0  0  0  0  0  0  0  0
   23.6149  -19.3070  -15.4916 C   0  0  1  0  0  0  0  0  0  0  0  0
   23.1703  -18.9487  -14.0664 C   0  0  0  0  0  0  0  0  0  0  0  0
   21.6899  -18.9920  -14.0185 C   0  0  0  0  0  0  0  0  0  0  0  0
   20.8940  -19.2157  -15.1201 C   0  0  0  0  0  0  0  0  0  0  0  0
   19.6209  -19.1826  -14.6846 N   0  0  0  0  0  0  0  0  0  0  0  0
   19.5757  -18.9488  -13.3604 C   0  0  0  0  0  0  0  0  0  0  0  0
   20.8624  -18.8348  -12.9728 N   0  0  0  0  0  0  0  0  0  0  0  0
   23.0784  -18.4012  -16.5002 C   0  0  0  0  0  0  0  0  0  0  0  0
   23.6799  -17.3417  -16.7805 O   0  0  0  0  0  0  0  0  0  0  0  0
   21.9050  -18.7017  -17.1550 O   0  0  0  0  0  0  0  0  0  0  0  0
  2  1  1  0
  3  2  1  0
  3  4  1  1
  5  6  2  0
  5  3  1  0
  7  5  1  0
  8  7  1  0
  8  9  1  6
 10 11  2  0
 10  9  1  0
 12 11  1  0
 13 18  2  0
 13 12  1  0
 14 13  1  0
 15 16  1  0
 15 14  2  0
 16 17  2  0
 17 18  1  0
 18 10  1  0
 19 21  1  0
 19  8  1  0
 20 19  2  0
 22 21  1  0
 22 29  1  0
 22 23  1  1
 24 23  1  0
 25 24  2  0
 26 27  1  0
 26 25  1  0
 27 28  2  0
 28 24  1  0
 29 31  1  0
 30 29  2  0
M  END
$$$$
