SWH.pdb
     RDKit          3D

 31 33  0  0  1  0  0  0  0  0999 V2000
   26.2244  -21.2648  -17.2167 O   0  0  0  0  0  0  0  0  0  0  0  0
   26.5594  -22.6056  -17.3000 C   0  0  0  0  0  0  0  0  0  0  0  0
   27.3534  -23.0477  -16.0650 C   0  0  2  0  0  0  0  0  0  0  0  0
   27.7170  -24.4285  -16.1215 N   0  0  0  0  0  0  0  0  0  0  0  0
   26.5747  -22.7831  -14.8368 C   0  0  0  0  0  0  0  0  0  0  0  0
   25.7910  -23.6686  -14.4231 O   0  0  0  0  0  0  0  0  0  0  0  0
   26.6705  -21.5732  -14.1009 N   0  0  0  0  0  0  0  0  0  0  0  0
   25.8935  -21.2654  -12.9181 C   0  0  1  0  0  0  0  0  0  0  0  0
   26.4821  -20.2146  -12.0584 C   0  0  0  0  0  0  0  0  0  0  0  0
   27.6018  -20.6013  -11.2003 C   0  0  0  0  0  0  0  0  0  0  0  0
   28.8681  -21.0242  -11.4512 C   0  0  0  0  0  0  0  0  0  0  0  0
   29.4922  -21.2571  -10.2642 N   0  0  0  0  0  0  0  0  0  0  0  0
   28.6469  -20.9905   -9.2612 C   0  0  0  0  0  0  0  0  0  0  0  0
   28.7511  -21.0519   -7.8741 C   0  0  0  0  0  0  0  0  0  0  0  0
   27.7036  -20.7144   -7.0360 C   0  0  0  0  0  0  0  0  0  0  0  0
   26.5131  -20.3020   -7.5929 C   0  0  0  0  0  0  0  0  0  0  0  0
   26.4173  -20.2436   -8.9679 C   0  0  0  0  0  0  0  0  0  0  0  0
   27.4678  -20.5823   -9.8051 C   0  0  0  0  0  0  0  0  0  0  0  0
   24.5138  -20.8387  -13.2717 C   0  0  0  0  0  0  0  0  0  0  0  0
   24.2731  -20.0389  -14.1988 O   0  0  0  0  0  0  0  0  0  0  0  0
   23.4439  -21.3643  -12.5247 N   0  0  0  0  0  0  0  0  0  0  0  0
   22.0960  -20.8508  -12.8078 C   0  0  1  0  0  0  0  0  0  0  0  0
   21.2069  -22.1006  -12.7383 C   0  0  0  0  0  0  0  0  0  0  0  0
   21.2176  -22.7510  -14.0697 C   0  0  0  0  0  0  0  0  0  0  0  0
   21.8897  -22.2491  -15.1621 C   0  0  0  0  0  0  0  0  0  0  0  0
   21.6656  -23.1062  -16.1754 N   0  0  0  0  0  0  0  0  0  0  0  0
   20.8840  -24.1251  -15.7741 C   0  0  0  0  0  0  0  0  0  0  0  0
   20.6210  -23.8841  -14.4736 N   0  0  0  0  0  0  0  0  0  0  0  0
   21.7025  -19.8184  -11.8566 C   0  0  0  0  0  0  0  0  0  0  0  0
   22.1618  -19.8238  -10.6939 O   0  0  0  0  0  0  0  0  0  0  0  0
   20.8222  -18.8267  -12.2273 O   0  0  0  0  0  0  0  0  0  0  0  0
  2  1  1  0
  3  2  1  0
  3  4  1  6
  5  6  2  0
  5  3  1  0
  7  5  1  0
  8  7  1  0
  8  9  1  6
 10 11  2  0
 10  9  1  0
 12 11  1  0
 13 18  2  0
 13 12  1  0
 14 13  1  0
 15 16  1  0
 15 14  2  0
 16 17  2  0
 17 18  1  0
 18 10  1  0
 19 21  1  0
 19  8  1  0
 20 19  2  0
 22 21  1  0
 22 29  1  0
 22 23  1  1
 24 23  1  0
 25 24  2  0
 26 27  1  0
 26 25  1  0
 27 28  2  0
 28 24  1  0
 29 31  1  0
 30 29  2  0
M  END
$$$$
