TSM.pdb
     RDKit          3D

 22 21  0  0  1  0  0  0  0  0999 V2000
   28.3933  -22.7389  -15.2348 C   0  0  0  0  0  0  0  0  0  0  0  0
   28.9046  -21.6231  -16.1185 C   0  0  1  0  0  0  0  0  0  0  0  0
   29.5641  -22.1456  -17.2244 O   0  0  0  0  0  0  0  0  0  0  0  0
   27.7289  -20.8078  -16.6715 C   0  0  2  0  0  0  0  0  0  0  0  0
   28.3178  -19.8011  -17.5368 N   0  0  0  0  0  0  0  0  0  0  0  0
   27.0229  -20.2038  -15.5224 C   0  0  0  0  0  0  0  0  0  0  0  0
   27.7190  -19.5232  -14.7129 O   0  0  0  0  0  0  0  0  0  0  0  0
   22.9534  -20.5469  -15.3200 O   0  0  0  0  0  0  0  0  0  0  0  0
   23.4442  -19.7597  -14.3151 C   0  0  0  0  0  0  0  0  0  0  0  0
   24.9349  -19.8121  -14.1531 C   0  0  2  0  0  0  0  0  0  0  0  0
   25.6303  -20.3433  -15.2822 N   0  0  0  0  0  0  0  0  0  0  0  0
   25.2970  -20.6096  -12.9605 C   0  0  0  0  0  0  0  0  0  0  0  0
   25.6969  -21.7992  -13.0236 O   0  0  0  0  0  0  0  0  0  0  0  0
   28.3543  -20.0605   -5.7976 C   0  0  0  0  0  0  0  0  0  0  0  0
   27.9297  -19.5501   -7.4532 S   0  0  0  0  0  0  0  0  0  0  0  0
   26.6957  -20.5189   -8.2861 C   0  0  0  0  0  0  0  0  0  0  0  0
   26.4485  -20.0549   -9.6759 C   0  0  0  0  0  0  0  0  0  0  0  0
   25.4332  -20.8308  -10.4626 C   0  0  2  0  0  0  0  0  0  0  0  0
   25.1913  -20.0123  -11.6786 N   0  0  0  0  0  0  0  0  0  0  0  0
   24.1373  -20.9389   -9.7335 C   0  0  0  0  0  0  0  0  0  0  0  0
   23.1820  -20.2097  -10.0055 O   0  0  0  0  0  0  0  0  0  0  0  0
   24.0227  -21.8843   -8.7322 O   0  0  0  0  0  0  0  0  0  0  0  0
  2  1  1  1
  2  4  1  0
  3  2  1  0
  4  5  1  6
  6  4  1  0
  6 11  1  0
  7  6  2  0
  9  8  1  0
 10  9  1  6
 10 12  1  0
 11 10  1  0
 12 13  2  0
 12 19  1  0
 15 14  1  0
 16 15  1  0
 17 16  1  0
 18 17  1  1
 19 18  1  0
 20 18  1  0
 20 22  1  0
 21 20  2  0
M  END
$$$$
