TSM.pdb
     RDKit          3D

 22 21  0  0  1  0  0  0  0  0999 V2000
   19.6037  -12.0747  -15.4709 C   0  0  0  0  0  0  0  0  0  0  0  0
   18.7624  -12.2553  -16.7148 C   0  0  1  0  0  0  0  0  0  0  0  0
   18.2938  -13.5610  -16.7962 O   0  0  0  0  0  0  0  0  0  0  0  0
   17.5181  -11.3613  -16.6440 C   0  0  2  0  0  0  0  0  0  0  0  0
   16.7411  -11.6701  -17.8314 N   0  0  0  0  0  0  0  0  0  0  0  0
   17.9760   -9.9564  -16.6335 C   0  0  0  0  0  0  0  0  0  0  0  0
   18.8949   -9.6448  -17.4470 O   0  0  0  0  0  0  0  0  0  0  0  0
   16.8138   -7.0926  -13.6348 O   0  0  0  0  0  0  0  0  0  0  0  0
   17.0029   -6.6885  -14.9277 C   0  0  0  0  0  0  0  0  0  0  0  0
   17.8799   -7.5933  -15.7421 C   0  0  2  0  0  0  0  0  0  0  0  0
   17.4496   -8.9550  -15.7752 N   0  0  0  0  0  0  0  0  0  0  0  0
   19.2713   -7.5523  -15.2404 C   0  0  0  0  0  0  0  0  0  0  0  0
   19.7189   -8.3581  -14.3863 O   0  0  0  0  0  0  0  0  0  0  0  0
   26.4597   -6.1305  -17.9046 C   0  0  0  0  0  0  0  0  0  0  0  0
   24.6778   -6.1751  -17.9723 S   0  0  0  0  0  0  0  0  0  0  0  0
   23.8301   -6.2512  -16.4132 C   0  0  0  0  0  0  0  0  0  0  0  0
   22.3619   -6.4175  -16.5698 C   0  0  0  0  0  0  0  0  0  0  0  0
   21.5704   -6.5436  -15.3012 C   0  0  2  0  0  0  0  0  0  0  0  0
   20.1514   -6.5592  -15.7409 N   0  0  0  0  0  0  0  0  0  0  0  0
   21.7504   -5.3548  -14.4197 C   0  0  0  0  0  0  0  0  0  0  0  0
   22.6573   -5.3012  -13.5872 O   0  0  0  0  0  0  0  0  0  0  0  0
   20.8704   -4.2978  -14.5529 O   0  0  0  0  0  0  0  0  0  0  0  0
  2  1  1  1
  2  4  1  0
  3  2  1  0
  4  5  1  6
  6  4  1  0
  6 11  1  0
  7  6  2  0
  9  8  1  0
 10  9  1  1
 10 12  1  0
 11 10  1  0
 12 13  2  0
 12 19  1  0
 15 14  1  0
 16 15  1  0
 17 16  1  0
 18 17  1  6
 19 18  1  0
 20 18  1  0
 20 22  1  0
 21 20  2  0
M  END
$$$$
