TSM.pdb
     RDKit          3D

 22 21  0  0  1  0  0  0  0  0999 V2000
   25.6399  -33.1960   -6.2134 C   0  0  0  0  0  0  0  0  0  0  0  0
   25.4511  -32.7595   -7.6491 C   0  0  1  0  0  0  0  0  0  0  0  0
   26.5552  -33.1186   -8.4128 O   0  0  0  0  0  0  0  0  0  0  0  0
   24.2517  -33.4880   -8.2683 C   0  0  2  0  0  0  0  0  0  0  0  0
   24.1459  -32.9906   -9.6286 N   0  0  0  0  0  0  0  0  0  0  0  0
   23.0592  -33.1520   -7.4630 C   0  0  0  0  0  0  0  0  0  0  0  0
   22.5543  -32.0036   -7.6345 O   0  0  0  0  0  0  0  0  0  0  0  0
   19.8083  -35.4603   -6.5415 O   0  0  0  0  0  0  0  0  0  0  0  0
   20.4346  -34.9264   -5.4493 C   0  0  0  0  0  0  0  0  0  0  0  0
   21.2993  -33.7365   -5.7457 C   0  0  2  0  0  0  0  0  0  0  0  0
   22.4598  -34.0327   -6.5241 N   0  0  0  0  0  0  0  0  0  0  0  0
   21.7301  -33.0855   -4.4888 C   0  0  0  0  0  0  0  0  0  0  0  0
   22.8004  -33.3734   -3.8964 O   0  0  0  0  0  0  0  0  0  0  0  0
   19.9531  -26.5224   -0.3383 C   0  0  0  0  0  0  0  0  0  0  0  0
   19.7141  -27.7367   -1.6228 S   0  0  0  0  0  0  0  0  0  0  0  0
   20.7479  -29.1793   -1.5479 C   0  0  0  0  0  0  0  0  0  0  0  0
   20.5618  -30.0757   -2.7181 C   0  0  0  0  0  0  0  0  0  0  0  0
   21.3706  -31.3396   -2.7196 C   0  0  2  0  0  0  0  0  0  0  0  0
   20.9027  -32.0865   -3.9156 N   0  0  0  0  0  0  0  0  0  0  0  0
   21.0770  -32.1824   -1.5253 C   0  0  0  0  0  0  0  0  0  0  0  0
   20.1498  -32.9941   -1.5215 O   0  0  0  0  0  0  0  0  0  0  0  0
   21.8731  -32.0366   -0.4054 O   0  0  0  0  0  0  0  0  0  0  0  0
  2  1  1  1
  2  4  1  0
  3  2  1  0
  4  5  1  6
  6  4  1  0
  6 11  1  0
  7  6  2  0
  9  8  1  0
 10  9  1  1
 10 12  1  0
 11 10  1  0
 12 13  2  0
 12 19  1  0
 15 14  1  0
 16 15  1  0
 17 16  1  0
 18 17  1  1
 19 18  1  0
 20 18  1  0
 20 22  1  0
 21 20  2  0
M  END
$$$$
