TSM.pdb
     RDKit          3D

 22 21  0  0  1  0  0  0  0  0999 V2000
   16.9736  -10.4644  -19.4471 C   0  0  0  0  0  0  0  0  0  0  0  0
   17.5429   -9.6502  -18.3066 C   0  0  1  0  0  0  0  0  0  0  0  0
   16.5565   -8.8482  -17.7455 O   0  0  0  0  0  0  0  0  0  0  0  0
   18.0240  -10.5789  -17.1847 C   0  0  2  0  0  0  0  0  0  0  0  0
   16.8256  -11.1838  -16.6306 N   0  0  0  0  0  0  0  0  0  0  0  0
   18.7342   -9.7487  -16.1897 C   0  0  0  0  0  0  0  0  0  0  0  0
   18.0215   -9.0817  -15.3833 O   0  0  0  0  0  0  0  0  0  0  0  0
   23.0409   -9.5043  -15.9459 O   0  0  0  0  0  0  0  0  0  0  0  0
   22.2462   -9.3526  -14.8432 C   0  0  0  0  0  0  0  0  0  0  0  0
   20.8569   -8.8685  -15.1374 C   0  0  2  0  0  0  0  0  0  0  0  0
   20.1481   -9.6611  -16.0913 N   0  0  0  0  0  0  0  0  0  0  0  0
   20.8888   -7.4699  -15.6195 C   0  0  0  0  0  0  0  0  0  0  0  0
   20.8656   -7.1611  -16.8374 O   0  0  0  0  0  0  0  0  0  0  0  0
   18.8439   -0.1266  -14.1474 C   0  0  0  0  0  0  0  0  0  0  0  0
   18.8515   -1.8961  -13.9223 S   0  0  0  0  0  0  0  0  0  0  0  0
   20.3728   -2.7331  -14.2969 C   0  0  0  0  0  0  0  0  0  0  0  0
   20.2531   -4.2101  -14.1876 C   0  0  0  0  0  0  0  0  0  0  0  0
   21.0959   -5.0148  -15.1330 C   0  0  2  0  0  0  0  0  0  0  0  0
   20.9485   -6.4186  -14.6695 N   0  0  0  0  0  0  0  0  0  0  0  0
   22.5395   -4.6588  -15.0227 C   0  0  0  0  0  0  0  0  0  0  0  0
   23.0135   -3.6948  -15.6263 O   0  0  0  0  0  0  0  0  0  0  0  0
   23.3501   -5.4391  -14.2204 O   0  0  0  0  0  0  0  0  0  0  0  0
  2  1  1  6
  2  4  1  0
  3  2  1  0
  4  5  1  1
  6  4  1  0
  6 11  1  0
  7  6  2  0
  9  8  1  0
 10  9  1  6
 10 12  1  0
 11 10  1  0
 12 13  2  0
 12 19  1  0
 15 14  1  0
 16 15  1  0
 17 16  1  0
 18 17  1  1
 19 18  1  0
 20 18  1  0
 20 22  1  0
 21 20  2  0
M  END
$$$$
