TSM.pdb
     RDKit          3D

 22 21  0  0  1  0  0  0  0  0999 V2000
   21.3862  -12.8486  -19.7680 C   0  0  0  0  0  0  0  0  0  0  0  0
   22.1131  -11.7494  -19.0258 C   0  0  1  0  0  0  0  0  0  0  0  0
   23.3224  -11.4637  -19.6480 O   0  0  0  0  0  0  0  0  0  0  0  0
   21.2955  -10.4525  -19.0715 C   0  0  2  0  0  0  0  0  0  0  0  0
   21.3859   -9.9758  -20.4403 N   0  0  0  0  0  0  0  0  0  0  0  0
   21.9049   -9.5049  -18.1153 C   0  0  0  0  0  0  0  0  0  0  0  0
   22.0663   -9.9109  -16.9270 O   0  0  0  0  0  0  0  0  0  0  0  0
   24.5790   -6.2103  -18.8806 O   0  0  0  0  0  0  0  0  0  0  0  0
   23.4199   -6.0061  -18.1840 C   0  0  0  0  0  0  0  0  0  0  0  0
   22.8567   -7.2364  -17.5356 C   0  0  2  0  0  0  0  0  0  0  0  0
   22.3122   -8.1869  -18.4524 N   0  0  0  0  0  0  0  0  0  0  0  0
   21.8071   -6.8708  -16.5590 C   0  0  0  0  0  0  0  0  0  0  0  0
   20.5782   -6.9968  -16.7900 O   0  0  0  0  0  0  0  0  0  0  0  0
   17.6290   -9.0158  -11.2070 C   0  0  0  0  0  0  0  0  0  0  0  0
   18.9167   -8.9389  -12.4390 S   0  0  0  0  0  0  0  0  0  0  0  0
   19.5661   -7.3260  -12.8026 C   0  0  0  0  0  0  0  0  0  0  0  0
   20.5756   -7.3501  -13.8926 C   0  0  0  0  0  0  0  0  0  0  0  0
   21.1582   -6.0242  -14.2854 C   0  0  2  0  0  0  0  0  0  0  0  0
   22.1952   -6.3519  -15.2975 N   0  0  0  0  0  0  0  0  0  0  0  0
   21.8471   -5.3646  -13.1395 C   0  0  0  0  0  0  0  0  0  0  0  0
   23.0751   -5.2740  -13.0914 O   0  0  0  0  0  0  0  0  0  0  0  0
   21.0749   -4.8486  -12.1163 O   0  0  0  0  0  0  0  0  0  0  0  0
  2  1  1  6
  2  4  1  0
  3  2  1  0
  4  5  1  6
  6  4  1  0
  6 11  1  0
  7  6  2  0
  9  8  1  0
 10  9  1  6
 10 12  1  0
 11 10  1  0
 12 13  2  0
 12 19  1  0
 15 14  1  0
 16 15  1  0
 17 16  1  0
 18 17  1  1
 19 18  1  0
 20 18  1  0
 20 22  1  0
 21 20  2  0
M  END
$$$$
