TSM.pdb
     RDKit          3D

 22 21  0  0  1  0  0  0  0  0999 V2000
   23.2118  -11.8515  -15.0777 C   0  0  0  0  0  0  0  0  0  0  0  0
   22.6845  -12.4504  -16.3625 C   0  0  1  0  0  0  0  0  0  0  0  0
   23.0063  -13.8004  -16.4346 O   0  0  0  0  0  0  0  0  0  0  0  0
   21.1526  -12.3773  -16.3884 C   0  0  2  0  0  0  0  0  0  0  0  0
   20.7490  -12.9795  -17.6467 N   0  0  0  0  0  0  0  0  0  0  0  0
   20.7709  -10.9518  -16.3108 C   0  0  0  0  0  0  0  0  0  0  0  0
   21.0878  -10.2173  -17.2922 O   0  0  0  0  0  0  0  0  0  0  0  0
   18.1233   -7.4310  -14.1849 O   0  0  0  0  0  0  0  0  0  0  0  0
   18.4965   -8.7442  -14.2665 C   0  0  0  0  0  0  0  0  0  0  0  0
   19.7112   -8.9962  -15.1105 C   0  0  2  0  0  0  0  0  0  0  0  0
   20.0797  -10.3724  -15.2139 N   0  0  0  0  0  0  0  0  0  0  0  0
   20.8693   -8.2377  -14.5881 C   0  0  0  0  0  0  0  0  0  0  0  0
   21.6142   -8.6645  -13.6704 O   0  0  0  0  0  0  0  0  0  0  0  0
   26.8038   -3.7873  -16.7874 C   0  0  0  0  0  0  0  0  0  0  0  0
   25.2959   -4.7180  -16.9912 S   0  0  0  0  0  0  0  0  0  0  0  0
   24.3599   -5.0377  -15.5158 C   0  0  0  0  0  0  0  0  0  0  0  0
   23.1943   -5.9261  -15.7610 C   0  0  0  0  0  0  0  0  0  0  0  0
   22.2842   -6.1628  -14.5917 C   0  0  2  0  0  0  0  0  0  0  0  0
   21.1621   -6.9656  -15.1426 N   0  0  0  0  0  0  0  0  0  0  0  0
   21.7084   -4.8882  -14.0755 C   0  0  0  0  0  0  0  0  0  0  0  0
   20.6223   -4.4636  -14.4739 O   0  0  0  0  0  0  0  0  0  0  0  0
   22.4229   -4.1794  -13.1286 O   0  0  0  0  0  0  0  0  0  0  0  0
  2  1  1  1
  2  4  1  0
  3  2  1  0
  4  5  1  6
  6  4  1  0
  6 11  1  0
  7  6  2  0
  9  8  1  0
 10  9  1  1
 10 12  1  0
 11 10  1  0
 12 13  2  0
 12 19  1  0
 15 14  1  0
 16 15  1  0
 17 16  1  0
 18 17  1  6
 19 18  1  0
 20 18  1  0
 20 22  1  0
 21 20  2  0
M  END
$$$$
