TSM.pdb
     RDKit          3D

 22 21  0  0  1  0  0  0  0  0999 V2000
   19.5433   -6.0401  -14.3152 C   0  0  0  0  0  0  0  0  0  0  0  0
   20.6958   -6.9337  -14.7162 C   0  0  1  0  0  0  0  0  0  0  0  0
   21.5809   -7.0865  -13.6559 O   0  0  0  0  0  0  0  0  0  0  0  0
   20.1819   -8.3406  -15.0463 C   0  0  2  0  0  0  0  0  0  0  0  0
   19.7976   -8.9296  -13.7757 N   0  0  0  0  0  0  0  0  0  0  0  0
   21.2877   -9.0825  -15.6870 C   0  0  0  0  0  0  0  0  0  0  0  0
   21.9388   -9.8872  -14.9579 O   0  0  0  0  0  0  0  0  0  0  0  0
   21.1911  -11.2981  -18.9846 O   0  0  0  0  0  0  0  0  0  0  0  0
   22.1056  -10.2844  -19.0654 C   0  0  0  0  0  0  0  0  0  0  0  0
   22.5895   -9.7737  -17.7402 C   0  0  2  0  0  0  0  0  0  0  0  0
   21.6522   -8.9437  -17.0524 N   0  0  0  0  0  0  0  0  0  0  0  0
   23.8513   -9.0192  -17.9071 C   0  0  0  0  0  0  0  0  0  0  0  0
   23.9043   -7.7639  -17.9324 O   0  0  0  0  0  0  0  0  0  0  0  0
   28.8305  -12.9511  -15.0957 C   0  0  0  0  0  0  0  0  0  0  0  0
   28.7212  -12.0043  -16.6035 S   0  0  0  0  0  0  0  0  0  0  0  0
   27.4596  -10.7552  -16.6616 C   0  0  0  0  0  0  0  0  0  0  0  0
   27.4083  -10.0569  -17.9722 C   0  0  0  0  0  0  0  0  0  0  0  0
   26.3537   -8.9996  -18.1186 C   0  0  2  0  0  0  0  0  0  0  0  0
   25.0662   -9.7374  -18.0466 N   0  0  0  0  0  0  0  0  0  0  0  0
   26.4157   -8.3417  -19.4551 C   0  0  0  0  0  0  0  0  0  0  0  0
   25.7555   -8.7568  -20.4091 O   0  0  0  0  0  0  0  0  0  0  0  0
   27.2381   -7.2420  -19.6094 O   0  0  0  0  0  0  0  0  0  0  0  0
  2  1  1  1
  2  4  1  0
  3  2  1  0
  4  5  1  1
  6  4  1  0
  6 11  1  0
  7  6  2  0
  9  8  1  0
 10  9  1  6
 10 12  1  0
 11 10  1  0
 12 13  2  0
 12 19  1  0
 15 14  1  0
 16 15  1  0
 17 16  1  0
 18 17  1  6
 19 18  1  0
 20 18  1  0
 20 22  1  0
 21 20  2  0
M  END
$$$$
