TSM.pdb
     RDKit          3D

 22 21  0  0  1  0  0  0  0  0999 V2000
   16.7871  -12.0768  -17.3174 C   0  0  0  0  0  0  0  0  0  0  0  0
   17.9845  -11.6190  -16.5148 C   0  0  1  0  0  0  0  0  0  0  0  0
   18.9870  -12.5807  -16.5506 O   0  0  0  0  0  0  0  0  0  0  0  0
   18.5866  -10.3547  -17.1408 C   0  0  2  0  0  0  0  0  0  0  0  0
   19.2511  -10.7927  -18.3555 N   0  0  0  0  0  0  0  0  0  0  0  0
   19.5385   -9.7822  -16.1663 C   0  0  0  0  0  0  0  0  0  0  0  0
   19.1402   -9.6727  -14.9694 O   0  0  0  0  0  0  0  0  0  0  0  0
   23.9342   -7.6967  -15.3638 O   0  0  0  0  0  0  0  0  0  0  0  0
   23.1113   -8.4355  -16.1683 C   0  0  0  0  0  0  0  0  0  0  0  0
   21.7405   -8.6748  -15.6070 C   0  0  2  0  0  0  0  0  0  0  0  0
   20.8527   -9.3562  -16.4947 N   0  0  0  0  0  0  0  0  0  0  0  0
   21.1152   -7.3944  -15.2082 C   0  0  0  0  0  0  0  0  0  0  0  0
   20.5661   -6.6130  -16.0250 O   0  0  0  0  0  0  0  0  0  0  0  0
   17.8413   -3.8529   -8.9597 C   0  0  0  0  0  0  0  0  0  0  0  0
   18.5684   -5.2032   -9.8706 S   0  0  0  0  0  0  0  0  0  0  0  0
   19.4261   -4.7755  -11.3661 C   0  0  0  0  0  0  0  0  0  0  0  0
   19.9347   -5.9677  -12.0928 C   0  0  0  0  0  0  0  0  0  0  0  0
   20.5671   -5.7092  -13.4288 C   0  0  2  0  0  0  0  0  0  0  0  0
   21.1307   -7.0207  -13.8403 N   0  0  0  0  0  0  0  0  0  0  0  0
   21.7032   -4.7495  -13.3236 C   0  0  0  0  0  0  0  0  0  0  0  0
   22.8586   -5.1363  -13.1396 O   0  0  0  0  0  0  0  0  0  0  0  0
   21.4359   -3.3986  -13.4373 O   0  0  0  0  0  0  0  0  0  0  0  0
  2  1  1  6
  2  4  1  0
  3  2  1  0
  4  5  1  6
  6  4  1  0
  6 11  1  0
  7  6  2  0
  9  8  1  0
 10  9  1  6
 10 12  1  0
 11 10  1  0
 12 13  2  0
 12 19  1  0
 15 14  1  0
 16 15  1  0
 17 16  1  0
 18 17  1  1
 19 18  1  0
 20 18  1  0
 20 22  1  0
 21 20  2  0
M  END
$$$$
