TSM.pdb
     RDKit          3D

 22 21  0  0  1  0  0  0  0  0999 V2000
   14.5934   -5.1130  -10.5091 C   0  0  0  0  0  0  0  0  0  0  0  0
   14.7987   -5.5253   -9.0684 C   0  0  1  0  0  0  0  0  0  0  0  0
   13.7999   -4.9890   -8.2649 O   0  0  0  0  0  0  0  0  0  0  0  0
   14.6795   -7.0486   -8.9340 C   0  0  2  0  0  0  0  0  0  0  0  0
   14.9368   -7.3437   -7.5355 N   0  0  0  0  0  0  0  0  0  0  0  0
   15.6918   -7.6572   -9.8221 C   0  0  0  0  0  0  0  0  0  0  0  0
   16.9020   -7.5675   -9.4611 O   0  0  0  0  0  0  0  0  0  0  0  0
   14.6571   -9.8328  -13.3794 O   0  0  0  0  0  0  0  0  0  0  0  0
   15.8110  -10.0945  -12.6935 C   0  0  0  0  0  0  0  0  0  0  0  0
   16.3432   -8.9356  -11.9028 C   0  0  2  0  0  0  0  0  0  0  0  0
   15.3848   -8.3255  -11.0369 N   0  0  0  0  0  0  0  0  0  0  0  0
   16.8857   -7.8987  -12.8082 C   0  0  0  0  0  0  0  0  0  0  0  0
   16.2287   -6.8914  -13.1729 O   0  0  0  0  0  0  0  0  0  0  0  0
   23.3338   -3.8538  -14.2467 C   0  0  0  0  0  0  0  0  0  0  0  0
   22.3548   -5.1389  -13.4903 S   0  0  0  0  0  0  0  0  0  0  0  0
   20.8752   -5.6140  -14.3506 C   0  0  0  0  0  0  0  0  0  0  0  0
   20.0633   -6.5979  -13.5885 C   0  0  0  0  0  0  0  0  0  0  0  0
   18.7674   -7.0168  -14.2184 C   0  0  2  0  0  0  0  0  0  0  0  0
   18.2107   -8.0381  -13.2942 N   0  0  0  0  0  0  0  0  0  0  0  0
   18.9847   -7.6798  -15.5359 C   0  0  0  0  0  0  0  0  0  0  0  0
   19.0274   -8.9068  -15.6407 O   0  0  0  0  0  0  0  0  0  0  0  0
   19.1401   -6.8842  -16.6550 O   0  0  0  0  0  0  0  0  0  0  0  0
  2  1  1  6
  2  4  1  0
  3  2  1  0
  4  5  1  1
  6  4  1  0
  6 11  1  0
  7  6  2  0
  9  8  1  0
 10  9  1  6
 10 12  1  0
 11 10  1  0
 12 13  2  0
 12 19  1  0
 15 14  1  0
 16 15  1  0
 17 16  1  0
 18 17  1  1
 19 18  1  0
 20 18  1  0
 20 22  1  0
 21 20  2  0
M  END
$$$$
