TSM.pdb
     RDKit          3D

 22 21  0  0  1  0  0  0  0  0999 V2000
   20.5232  -13.0643  -19.9396 C   0  0  0  0  0  0  0  0  0  0  0  0
   20.1925  -11.7016  -19.3727 C   0  0  1  0  0  0  0  0  0  0  0  0
   18.8279  -11.5959  -19.1326 O   0  0  0  0  0  0  0  0  0  0  0  0
   20.8783  -11.5156  -18.0134 C   0  0  2  0  0  0  0  0  0  0  0  0
   20.2738  -12.4951  -17.1279 N   0  0  0  0  0  0  0  0  0  0  0  0
   20.6178  -10.1316  -17.5659 C   0  0  0  0  0  0  0  0  0  0  0  0
   21.1609   -9.2005  -18.2303 O   0  0  0  0  0  0  0  0  0  0  0  0
   17.9354   -7.1187  -14.7559 O   0  0  0  0  0  0  0  0  0  0  0  0
   18.3038   -8.3900  -15.1003 C   0  0  0  0  0  0  0  0  0  0  0  0
   19.4530   -8.4675  -16.0618 C   0  0  2  0  0  0  0  0  0  0  0  0
   19.8051   -9.7962  -16.4508 N   0  0  0  0  0  0  0  0  0  0  0  0
   20.6501   -7.8126  -15.4896 C   0  0  0  0  0  0  0  0  0  0  0  0
   21.4123   -8.3736  -14.6627 O   0  0  0  0  0  0  0  0  0  0  0  0
   24.9423   -3.9156  -18.8133 C   0  0  0  0  0  0  0  0  0  0  0  0
   24.3172   -3.0154  -17.4059 S   0  0  0  0  0  0  0  0  0  0  0  0
   23.7603   -3.9899  -16.0292 C   0  0  0  0  0  0  0  0  0  0  0  0
   22.6231   -4.8787  -16.3825 C   0  0  0  0  0  0  0  0  0  0  0  0
   22.1436   -5.8024  -15.3016 C   0  0  2  0  0  0  0  0  0  0  0  0
   20.9620   -6.4873  -15.8863 N   0  0  0  0  0  0  0  0  0  0  0  0
   21.6742   -5.0502  -14.1029 C   0  0  0  0  0  0  0  0  0  0  0  0
   22.4679   -4.5723  -13.2904 O   0  0  0  0  0  0  0  0  0  0  0  0
   20.3141   -4.8950  -13.9146 O   0  0  0  0  0  0  0  0  0  0  0  0
  2  1  1  1
  2  4  1  0
  3  2  1  0
  4  5  1  1
  6  4  1  0
  6 11  1  0
  7  6  2  0
  9  8  1  0
 10  9  1  1
 10 12  1  0
 11 10  1  0
 12 13  2  0
 12 19  1  0
 15 14  1  0
 16 15  1  0
 17 16  1  0
 18 17  1  6
 19 18  1  0
 20 18  1  0
 20 22  1  0
 21 20  2  0
M  END
$$$$
