TSM.pdb
     RDKit          3D

 22 21  0  0  1  0  0  0  0  0999 V2000
   18.3760   -9.2354  -18.5536 C   0  0  0  0  0  0  0  0  0  0  0  0
   17.5926  -10.1132  -17.6031 C   0  0  1  0  0  0  0  0  0  0  0  0
   16.6026  -10.8059  -18.2894 O   0  0  0  0  0  0  0  0  0  0  0  0
   18.5106  -11.1791  -16.9919 C   0  0  2  0  0  0  0  0  0  0  0  0
   17.6517  -12.0219  -16.1789 N   0  0  0  0  0  0  0  0  0  0  0  0
   19.5285  -10.4810  -16.1793 C   0  0  0  0  0  0  0  0  0  0  0  0
   19.1149   -9.8271  -15.1771 O   0  0  0  0  0  0  0  0  0  0  0  0
   23.5343  -11.6418  -15.2511 O   0  0  0  0  0  0  0  0  0  0  0  0
   23.3075  -10.4394  -15.8621 C   0  0  0  0  0  0  0  0  0  0  0  0
   21.9284   -9.8854  -15.6562 C   0  0  2  0  0  0  0  0  0  0  0  0
   20.9208  -10.5044  -16.4575 N   0  0  0  0  0  0  0  0  0  0  0  0
   21.9117   -8.4299  -15.9219 C   0  0  0  0  0  0  0  0  0  0  0  0
   21.9949   -7.9401  -17.0762 O   0  0  0  0  0  0  0  0  0  0  0  0
   17.8305   -2.2609  -15.8419 C   0  0  0  0  0  0  0  0  0  0  0  0
   18.3388   -3.9697  -15.7835 S   0  0  0  0  0  0  0  0  0  0  0  0
   20.0527   -4.2718  -15.4277 C   0  0  0  0  0  0  0  0  0  0  0  0
   20.3730   -5.7209  -15.3534 C   0  0  0  0  0  0  0  0  0  0  0  0
   21.8051   -6.0692  -15.0718 C   0  0  2  0  0  0  0  0  0  0  0  0
   21.7967   -7.5347  -14.8280 N   0  0  0  0  0  0  0  0  0  0  0  0
   22.2963   -5.4134  -13.8263 C   0  0  0  0  0  0  0  0  0  0  0  0
   22.6058   -4.2208  -13.8048 O   0  0  0  0  0  0  0  0  0  0  0  0
   22.4009   -6.1759  -12.6786 O   0  0  0  0  0  0  0  0  0  0  0  0
  2  1  1  6
  2  4  1  0
  3  2  1  0
  4  5  1  1
  6  4  1  0
  6 11  1  0
  7  6  2  0
  9  8  1  0
 10  9  1  6
 10 12  1  0
 11 10  1  0
 12 13  2  0
 12 19  1  0
 15 14  1  0
 16 15  1  0
 17 16  1  0
 18 17  1  1
 19 18  1  0
 20 18  1  0
 20 22  1  0
 21 20  2  0
M  END
$$$$
