HWW.pdb
     RDKit          3D

 39 43  0  0  1  0  0  0  0  0999 V2000
   11.6423  -18.4844   19.0678 N   0  0  0  0  0  0  0  0  0  0  0  0
   10.9217  -18.6713   20.3099 C   0  0  1  0  0  0  0  0  0  0  0  0
   11.5722  -19.8557   20.9893 C   0  0  0  0  0  0  0  0  0  0  0  0
   11.1826  -21.0957   20.2742 C   0  0  0  0  0  0  0  0  0  0  0  0
    9.9175  -21.6231   20.0980 C   0  0  0  0  0  0  0  0  0  0  0  0
    9.9870  -22.7682   19.3977 N   0  0  0  0  0  0  0  0  0  0  0  0
   11.2856  -22.9694   19.1296 C   0  0  0  0  0  0  0  0  0  0  0  0
   12.0249  -21.9540   19.6599 N   0  0  0  0  0  0  0  0  0  0  0  0
   10.9113  -17.4580   21.1503 C   0  0  0  0  0  0  0  0  0  0  0  0
   11.9926  -16.8385   21.3218 O   0  0  0  0  0  0  0  0  0  0  0  0
    9.7619  -16.9378   21.7810 N   0  0  0  0  0  0  0  0  0  0  0  0
    9.7173  -15.7260   22.5801 C   0  0  1  0  0  0  0  0  0  0  0  0
    8.3409  -15.3046   22.9640 C   0  0  0  0  0  0  0  0  0  0  0  0
    7.5320  -14.7421   21.8613 C   0  0  0  0  0  0  0  0  0  0  0  0
    6.2428  -15.0069   21.4989 C   0  0  0  0  0  0  0  0  0  0  0  0
    5.9409  -14.2648   20.4353 N   0  0  0  0  0  0  0  0  0  0  0  0
    6.9826  -13.5078   20.0661 C   0  0  0  0  0  0  0  0  0  0  0  0
    7.1640  -12.5931   19.0450 C   0  0  0  0  0  0  0  0  0  0  0  0
    8.3695  -11.9445   18.8918 C   0  0  0  0  0  0  0  0  0  0  0  0
    9.3709  -12.2365   19.7797 C   0  0  0  0  0  0  0  0  0  0  0  0
    9.2017  -13.1515   20.8068 C   0  0  0  0  0  0  0  0  0  0  0  0
    7.9947  -13.7886   20.9448 C   0  0  0  0  0  0  0  0  0  0  0  0
   10.4691  -16.0999   23.8445 C   0  0  0  0  0  0  0  0  0  0  0  0
   11.3592  -15.3022   24.3054 O   0  0  0  0  0  0  0  0  0  0  0  0
   10.2341  -17.2911   24.5463 N   0  0  0  0  0  0  0  0  0  0  0  0
   10.2578  -17.3005   26.0046 C   0  0  1  0  0  0  0  0  0  0  0  0
    8.9201  -17.6284   26.5629 C   0  0  0  0  0  0  0  0  0  0  0  0
    7.9762  -16.5163   26.4540 C   0  0  0  0  0  0  0  0  0  0  0  0
    6.7269  -16.5962   25.8213 C   0  0  0  0  0  0  0  0  0  0  0  0
    6.1136  -15.4103   25.8433 N   0  0  0  0  0  0  0  0  0  0  0  0
    6.9261  -14.5306   26.4814 C   0  0  0  0  0  0  0  0  0  0  0  0
    6.7235  -13.2017   26.7646 C   0  0  0  0  0  0  0  0  0  0  0  0
    7.6987  -12.5061   27.4558 C   0  0  0  0  0  0  0  0  0  0  0  0
    8.8382  -13.1692   27.8353 C   0  0  0  0  0  0  0  0  0  0  0  0
    9.0418  -14.4919   27.5533 C   0  0  0  0  0  0  0  0  0  0  0  0
    8.0667  -15.2055   26.8564 C   0  0  0  0  0  0  0  0  0  0  0  0
   11.3756  -18.0770   26.5110 C   0  0  0  0  0  0  0  0  0  0  0  0
   12.2621  -18.6870   25.6103 O   0  0  0  0  0  0  0  0  0  0  0  0
   11.6061  -18.2432   27.7225 O   0  0  0  0  0  0  0  0  0  0  0  0
  2  9  1  0
  2  1  1  6
  2  3  1  0
  3  4  1  0
  4  8  1  0
  4  5  2  0
  5  6  1  0
  7  6  1  0
  8  7  2  0
  9 10  2  0
 11 12  1  0
 11  9  1  0
 12 23  1  0
 12 13  1  1
 14 13  1  0
 14 22  1  0
 15 16  1  0
 15 14  2  0
 16 17  1  0
 17 18  2  0
 17 22  1  0
 18 19  1  0
 19 20  2  0
 21 20  1  0
 22 21  2  0
 23 25  1  0
 23 24  2  0
 25 26  1  0
 26 37  1  0
 26 27  1  1
 27 28  1  0
 28 36  1  0
 29 30  1  0
 29 28  2  0
 30 31  1  0
 31 36  2  0
 31 32  1  0
 32 33  2  0
 33 34  1  0
 35 34  2  0
 36 35  1  0
 37 38  1  0
 39 37  2  0
M  END
$$$$
