HWW.pdb
     RDKit          3D

 39 43  0  0  1  0  0  0  0  0999 V2000
    6.7615  -16.7850   18.7951 N   0  0  0  0  0  0  0  0  0  0  0  0
    7.9923  -17.3702   19.2847 C   0  0  1  0  0  0  0  0  0  0  0  0
    8.9171  -17.4438   18.0902 C   0  0  0  0  0  0  0  0  0  0  0  0
    8.3295  -18.3587   17.0810 C   0  0  0  0  0  0  0  0  0  0  0  0
    8.6526  -19.6782   16.8279 C   0  0  0  0  0  0  0  0  0  0  0  0
    7.8954  -20.1558   15.8254 N   0  0  0  0  0  0  0  0  0  0  0  0
    7.0961  -19.1493   15.4424 C   0  0  0  0  0  0  0  0  0  0  0  0
    7.3524  -18.0469   16.2025 N   0  0  0  0  0  0  0  0  0  0  0  0
    8.5696  -16.6185   20.4161 C   0  0  0  0  0  0  0  0  0  0  0  0
    8.8617  -15.4071   20.2439 O   0  0  0  0  0  0  0  0  0  0  0  0
    8.8190  -17.1680   21.6910 N   0  0  0  0  0  0  0  0  0  0  0  0
    9.5799  -16.5268   22.7486 C   0  0  1  0  0  0  0  0  0  0  0  0
    9.1468  -16.9078   24.1222 C   0  0  0  0  0  0  0  0  0  0  0  0
    7.8808  -16.2885   24.5698 C   0  0  0  0  0  0  0  0  0  0  0  0
    6.6675  -16.8616   24.8206 C   0  0  0  0  0  0  0  0  0  0  0  0
    5.8176  -15.9073   25.1951 N   0  0  0  0  0  0  0  0  0  0  0  0
    6.4153  -14.7084   25.2053 C   0  0  0  0  0  0  0  0  0  0  0  0
    5.9660  -13.4374   25.5131 C   0  0  0  0  0  0  0  0  0  0  0  0
    6.8158  -12.3562   25.4346 C   0  0  0  0  0  0  0  0  0  0  0  0
    8.1088  -12.5851   25.0445 C   0  0  0  0  0  0  0  0  0  0  0  0
    8.5710  -13.8541   24.7330 C   0  0  0  0  0  0  0  0  0  0  0  0
    7.7112  -14.9197   24.8162 C   0  0  0  0  0  0  0  0  0  0  0  0
   10.9931  -17.0386   22.5375 C   0  0  0  0  0  0  0  0  0  0  0  0
   11.1879  -18.0501   21.7760 O   0  0  0  0  0  0  0  0  0  0  0  0
   12.1141  -16.4505   23.1408 N   0  0  0  0  0  0  0  0  0  0  0  0
   12.2172  -16.3881   24.5944 C   0  0  1  0  0  0  0  0  0  0  0  0
   10.8891  -16.1549   25.2190 C   0  0  0  0  0  0  0  0  0  0  0  0
   10.9455  -16.1580   26.6807 C   0  0  0  0  0  0  0  0  0  0  0  0
   11.1499  -17.3038   27.4634 C   0  0  0  0  0  0  0  0  0  0  0  0
   11.1066  -16.9980   28.7625 N   0  0  0  0  0  0  0  0  0  0  0  0
   10.8780  -15.6648   28.8713 C   0  0  0  0  0  0  0  0  0  0  0  0
   10.7705  -14.8862   29.9979 C   0  0  0  0  0  0  0  0  0  0  0  0
   10.5564  -13.5271   29.8571 C   0  0  0  0  0  0  0  0  0  0  0  0
   10.4580  -13.0023   28.5933 C   0  0  0  0  0  0  0  0  0  0  0  0
   10.5639  -13.7763   27.4707 C   0  0  0  0  0  0  0  0  0  0  0  0
   10.7794  -15.1486   27.5981 C   0  0  0  0  0  0  0  0  0  0  0  0
   12.9897  -17.5004   25.1187 C   0  0  0  0  0  0  0  0  0  0  0  0
   13.1607  -18.6553   24.3402 O   0  0  0  0  0  0  0  0  0  0  0  0
   13.5240  -17.4988   26.2425 O   0  0  0  0  0  0  0  0  0  0  0  0
  2  9  1  0
  2  1  1  6
  2  3  1  0
  3  4  1  0
  4  8  1  0
  4  5  2  0
  5  6  1  0
  7  6  1  0
  8  7  2  0
  9 10  2  0
 11 12  1  0
 11  9  1  0
 12 23  1  0
 12 13  1  1
 14 13  1  0
 14 22  1  0
 15 16  1  0
 15 14  2  0
 16 17  1  0
 17 18  2  0
 17 22  1  0
 18 19  1  0
 19 20  2  0
 21 20  1  0
 22 21  2  0
 23 25  1  0
 23 24  2  0
 25 26  1  0
 26 37  1  0
 26 27  1  1
 27 28  1  0
 28 36  1  0
 29 30  1  0
 29 28  2  0
 30 31  1  0
 31 36  2  0
 31 32  1  0
 32 33  2  0
 33 34  1  0
 35 34  2  0
 36 35  1  0
 37 38  1  0
 39 37  2  0
M  END
$$$$
