HWW.pdb
     RDKit          3D

 39 43  0  0  1  0  0  0  0  0999 V2000
    8.5501  -18.1516   18.2676 N   0  0  0  0  0  0  0  0  0  0  0  0
    9.6611  -17.9787   19.1802 C   0  0  1  0  0  0  0  0  0  0  0  0
   10.8526  -17.6286   18.3170 C   0  0  0  0  0  0  0  0  0  0  0  0
   11.1367  -18.7630   17.4041 C   0  0  0  0  0  0  0  0  0  0  0  0
   11.4093  -20.0782   17.7291 C   0  0  0  0  0  0  0  0  0  0  0  0
   11.6201  -20.7964   16.6128 N   0  0  0  0  0  0  0  0  0  0  0  0
   11.4832  -19.9464   15.5845 C   0  0  0  0  0  0  0  0  0  0  0  0
   11.1877  -18.7017   16.0561 N   0  0  0  0  0  0  0  0  0  0  0  0
    9.3889  -16.9715   20.2242 C   0  0  0  0  0  0  0  0  0  0  0  0
    9.8481  -15.8104   20.0709 O   0  0  0  0  0  0  0  0  0  0  0  0
    8.6415  -17.2212   21.3940 N   0  0  0  0  0  0  0  0  0  0  0  0
    8.3710  -16.2524   22.4415 C   0  0  1  0  0  0  0  0  0  0  0  0
    6.9862  -16.3214   22.9867 C   0  0  0  0  0  0  0  0  0  0  0  0
    6.7501  -15.4978   24.1918 C   0  0  0  0  0  0  0  0  0  0  0  0
    6.2796  -15.8605   25.4208 C   0  0  0  0  0  0  0  0  0  0  0  0
    6.2270  -14.7757   26.1913 N   0  0  0  0  0  0  0  0  0  0  0  0
    6.6454  -13.6918   25.5244 C   0  0  0  0  0  0  0  0  0  0  0  0
    6.7720  -12.3614   25.8793 C   0  0  0  0  0  0  0  0  0  0  0  0
    7.2383  -11.4359   24.9719 C   0  0  0  0  0  0  0  0  0  0  0  0
    7.5684  -11.8785   23.7183 C   0  0  0  0  0  0  0  0  0  0  0  0
    7.4456  -13.2091   23.3504 C   0  0  0  0  0  0  0  0  0  0  0  0
    6.9794  -14.1175   24.2664 C   0  0  0  0  0  0  0  0  0  0  0  0
    9.3362  -16.6380   23.5475 C   0  0  0  0  0  0  0  0  0  0  0  0
    8.8744  -17.0272   24.6772 O   0  0  0  0  0  0  0  0  0  0  0  0
   10.7293  -16.5916   23.3930 N   0  0  0  0  0  0  0  0  0  0  0  0
   11.5932  -16.4609   24.5608 C   0  0  1  0  0  0  0  0  0  0  0  0
   11.1933  -17.4066   25.6352 C   0  0  0  0  0  0  0  0  0  0  0  0
   10.3553  -16.7778   26.6560 C   0  0  0  0  0  0  0  0  0  0  0  0
    9.2261  -17.3767   27.2336 C   0  0  0  0  0  0  0  0  0  0  0  0
    8.6435  -16.5424   28.0982 N   0  0  0  0  0  0  0  0  0  0  0  0
    9.3605  -15.3904   28.1162 C   0  0  0  0  0  0  0  0  0  0  0  0
    9.1643  -14.2511   28.8582 C   0  0  0  0  0  0  0  0  0  0  0  0
   10.0523  -13.1997   28.7219 C   0  0  0  0  0  0  0  0  0  0  0  0
   11.1010  -13.3312   27.8473 C   0  0  0  0  0  0  0  0  0  0  0  0
   11.2971  -14.4643   27.1071 C   0  0  0  0  0  0  0  0  0  0  0  0
   10.4089  -15.5324   27.2344 C   0  0  0  0  0  0  0  0  0  0  0  0
   12.9959  -16.4678   24.1852 C   0  0  0  0  0  0  0  0  0  0  0  0
   13.9785  -16.2621   25.1657 O   0  0  0  0  0  0  0  0  0  0  0  0
   13.3962  -16.6479   23.0208 O   0  0  0  0  0  0  0  0  0  0  0  0
  2  9  1  0
  2  1  1  6
  2  3  1  0
  3  4  1  0
  4  8  1  0
  4  5  2  0
  5  6  1  0
  7  6  1  0
  8  7  2  0
  9 10  2  0
 11 12  1  0
 11  9  1  0
 12 23  1  0
 12 13  1  1
 14 13  1  0
 14 22  1  0
 15 16  1  0
 15 14  2  0
 16 17  1  0
 17 18  2  0
 17 22  1  0
 18 19  1  0
 19 20  2  0
 21 20  1  0
 22 21  2  0
 23 25  1  0
 23 24  2  0
 25 26  1  0
 26 37  1  0
 26 27  1  1
 27 28  1  0
 28 36  1  0
 29 30  1  0
 29 28  2  0
 30 31  1  0
 31 36  2  0
 31 32  1  0
 32 33  2  0
 33 34  1  0
 35 34  2  0
 36 35  1  0
 37 38  1  0
 39 37  2  0
M  END
$$$$
