HWW.pdb
     RDKit          3D

 39 43  0  0  1  0  0  0  0  0999 V2000
    9.7922  -17.2256   18.6651 N   0  0  0  0  0  0  0  0  0  0  0  0
   11.0113  -17.0775   19.4325 C   0  0  1  0  0  0  0  0  0  0  0  0
   11.9021  -16.1656   18.6187 C   0  0  0  0  0  0  0  0  0  0  0  0
   12.2608  -16.8475   17.3509 C   0  0  0  0  0  0  0  0  0  0  0  0
   13.4205  -16.7256   16.6095 C   0  0  0  0  0  0  0  0  0  0  0  0
   13.3557  -17.5064   15.5174 N   0  0  0  0  0  0  0  0  0  0  0  0
   12.1646  -18.1211   15.5621 C   0  0  0  0  0  0  0  0  0  0  0  0
   11.4876  -17.7263   16.6777 N   0  0  0  0  0  0  0  0  0  0  0  0
   10.7665  -16.5761   20.7990 C   0  0  0  0  0  0  0  0  0  0  0  0
   10.8031  -15.3344   20.9972 O   0  0  0  0  0  0  0  0  0  0  0  0
   10.4907  -17.3996   21.9103 N   0  0  0  0  0  0  0  0  0  0  0  0
   10.1564  -16.9291   23.2429 C   0  0  1  0  0  0  0  0  0  0  0  0
    8.7224  -17.1072   23.6056 C   0  0  0  0  0  0  0  0  0  0  0  0
    7.8948  -15.8873   23.4887 C   0  0  0  0  0  0  0  0  0  0  0  0
    7.1972  -15.4026   22.4201 C   0  0  0  0  0  0  0  0  0  0  0  0
    6.6051  -14.2659   22.7812 N   0  0  0  0  0  0  0  0  0  0  0  0
    6.8795  -13.9654   24.0575 C   0  0  0  0  0  0  0  0  0  0  0  0
    6.5104  -12.9130   24.8750 C   0  0  0  0  0  0  0  0  0  0  0  0
    6.9495  -12.8520   26.1792 C   0  0  0  0  0  0  0  0  0  0  0  0
    7.7566  -13.8624   26.6309 C   0  0  0  0  0  0  0  0  0  0  0  0
    8.1339  -14.9222   25.8213 C   0  0  0  0  0  0  0  0  0  0  0  0
    7.6878  -14.9672   24.5249 C   0  0  0  0  0  0  0  0  0  0  0  0
   10.9897  -17.8097   24.1559 C   0  0  0  0  0  0  0  0  0  0  0  0
   11.3834  -18.9545   23.7371 O   0  0  0  0  0  0  0  0  0  0  0  0
   11.3585  -17.4275   25.4539 N   0  0  0  0  0  0  0  0  0  0  0  0
   12.0534  -18.3676   26.3261 C   0  0  1  0  0  0  0  0  0  0  0  0
   12.4069  -17.7371   27.6246 C   0  0  0  0  0  0  0  0  0  0  0  0
   11.2814  -17.0258   28.2304 C   0  0  0  0  0  0  0  0  0  0  0  0
   10.1833  -17.6516   28.8387 C   0  0  0  0  0  0  0  0  0  0  0  0
    9.2989  -16.7432   29.2577 N   0  0  0  0  0  0  0  0  0  0  0  0
    9.7811  -15.5140   28.9447 C   0  0  0  0  0  0  0  0  0  0  0  0
    9.2395  -14.2753   29.1883 C   0  0  0  0  0  0  0  0  0  0  0  0
    9.9355  -13.1481   28.7912 C   0  0  0  0  0  0  0  0  0  0  0  0
   11.1460  -13.3067   28.1654 C   0  0  0  0  0  0  0  0  0  0  0  0
   11.6861  -14.5392   27.9213 C   0  0  0  0  0  0  0  0  0  0  0  0
   10.9947  -15.6846   28.3160 C   0  0  0  0  0  0  0  0  0  0  0  0
   11.3565  -19.6397   26.3957 C   0  0  0  0  0  0  0  0  0  0  0  0
   12.0493  -20.7897   26.8039 O   0  0  0  0  0  0  0  0  0  0  0  0
   10.1540  -19.7828   26.1093 O   0  0  0  0  0  0  0  0  0  0  0  0
  2  9  1  0
  2  1  1  6
  2  3  1  0
  3  4  1  0
  4  8  1  0
  4  5  2  0
  5  6  1  0
  7  6  1  0
  8  7  2  0
  9 10  2  0
 11 12  1  0
 11  9  1  0
 12 23  1  0
 12 13  1  1
 14 13  1  0
 14 22  1  0
 15 16  1  0
 15 14  2  0
 16 17  1  0
 17 18  2  0
 17 22  1  0
 18 19  1  0
 19 20  2  0
 21 20  1  0
 22 21  2  0
 23 25  1  0
 23 24  2  0
 25 26  1  0
 26 37  1  0
 26 27  1  1
 27 28  1  0
 28 36  1  0
 29 30  1  0
 29 28  2  0
 30 31  1  0
 31 36  2  0
 31 32  1  0
 32 33  2  0
 33 34  1  0
 35 34  2  0
 36 35  1  0
 37 38  1  0
 39 37  2  0
M  END
$$$$
