PRE.pdb
     RDKit          3D

 28 28  0  0  1  0  0  0  0  0999 V2000
   16.9442  -27.7752   -1.5547 N   0  0  0  0  0  0  0  0  0  0  0  0
   17.4098  -28.6191   -2.6924 C   0  0  0  0  0  0  0  0  0  0  0  0
   18.7064  -27.9717   -3.0780 C   0  0  0  0  0  0  0  0  0  0  0  0
   19.1318  -27.2178   -1.8582 C   0  0  0  0  0  0  0  0  0  0  0  0
   18.1844  -27.7206   -0.7648 C   0  0  1  0  0  0  0  0  0  0  0  0
   18.1174  -26.6791    0.2902 C   0  0  0  0  0  0  0  0  0  0  0  0
   19.1543  -26.3962    0.9327 O   0  0  0  0  0  0  0  0  0  0  0  0
   12.8674  -19.5282    0.0085 N   0  0  0  0  0  0  0  0  0  0  0  0
   13.4700  -19.5503    1.2846 C   0  0  0  0  0  0  0  0  0  0  0  0
   13.3787  -18.5261    2.0977 N   0  0  0  0  0  0  0  0  0  0  0  0
   14.2021  -20.6540    1.7748 N   0  0  0  0  0  0  0  0  0  0  0  0
   14.5434  -21.8246    1.0276 C   0  0  0  0  0  0  0  0  0  0  0  0
   15.4989  -22.7629    1.7077 C   0  0  0  0  0  0  0  0  0  0  0  0
   15.7520  -23.9632    0.8776 C   0  0  0  0  0  0  0  0  0  0  0  0
   16.8115  -24.9156    1.5354 C   0  0  2  0  0  0  0  0  0  0  0  0
   16.9106  -25.9976    0.5760 N   0  0  0  0  0  0  0  0  0  0  0  0
   16.5097  -25.2629    2.8893 C   0  0  0  0  0  0  0  0  0  0  0  0
   15.5178  -26.0352    3.1279 O   0  0  0  0  0  0  0  0  0  0  0  0
   13.7915  -18.6351    3.0391 N   0  0  0  0  0  0  0  0  0  0  0  0
   17.2576  -24.8022    4.0053 C   0  0  2  0  0  0  0  0  0  0  0  0
   16.9046  -25.2797    5.3455 C   0  0  0  0  0  0  0  0  0  0  0  0
   18.2176  -25.6659    5.9820 C   0  0  0  0  0  0  0  0  0  0  0  0
   18.3806  -27.1200    6.2739 C   0  0  0  0  0  0  0  0  0  0  0  0
   19.6656  -27.4842    6.8839 O   0  0  0  0  0  0  0  0  0  0  0  0
   20.4999  -26.6115    7.1582 C   0  0  0  0  0  0  0  0  0  0  0  0
   16.1878  -24.2409    6.1237 O   0  0  0  0  0  0  0  0  0  0  0  0
   16.1291  -23.0252    5.8250 O   0  0  0  0  0  0  0  0  0  0  0  0
   20.0036  -28.8065    7.1801 O   0  0  0  0  0  0  0  0  0  0  0  0
  1  5  1  0
  1  2  1  0
  2  3  1  0
  4  3  1  0
  5  4  1  0
  6  7  2  0
  5  6  1  1
  9  8  1  0
 10  9  2  0
 11  9  1  0
 12 13  1  0
 12 11  1  0
 13 14  1  0
 15 14  1  6
 15 16  1  0
 16  6  1  0
 17 15  1  0
 18 17  2  0
 19 17  1  0
 20 25  1  0
 20 19  1  0
 20 21  1  6
 22 21  1  0
 23 27  1  0
 23 22  1  0
 24 23  2  0
 25 28  1  0
 26 25  2  0
M  END
$$$$
