PRE.pdb
     RDKit          3D

 28 28  0  0  1  0  0  0  0  0999 V2000
   28.2559  -20.6650  -18.8738 N   0  0  0  0  0  0  0  0  0  0  0  0
   28.9149  -19.7137  -19.8141 C   0  0  0  0  0  0  0  0  0  0  0  0
   28.0411  -18.4983  -19.7242 C   0  0  0  0  0  0  0  0  0  0  0  0
   27.3379  -18.6325  -18.4110 C   0  0  0  0  0  0  0  0  0  0  0  0
   28.0757  -19.7790  -17.7130 C   0  0  1  0  0  0  0  0  0  0  0  0
   27.1526  -20.3680  -16.7113 C   0  0  0  0  0  0  0  0  0  0  0  0
   26.1832  -21.0547  -17.1070 O   0  0  0  0  0  0  0  0  0  0  0  0
   26.2922  -20.3803   -8.4821 N   0  0  0  0  0  0  0  0  0  0  0  0
   25.0565  -20.8317   -8.9933 C   0  0  0  0  0  0  0  0  0  0  0  0
   23.9343  -20.6127   -8.3522 N   0  0  0  0  0  0  0  0  0  0  0  0
   24.9353  -21.5390  -10.2097 N   0  0  0  0  0  0  0  0  0  0  0  0
   25.8708  -21.5026  -11.2907 C   0  0  0  0  0  0  0  0  0  0  0  0
   26.1795  -20.1333  -11.8250 C   0  0  0  0  0  0  0  0  0  0  0  0
   27.1091  -20.2052  -12.9760 C   0  0  0  0  0  0  0  0  0  0  0  0
   26.3522  -20.4861  -14.3215 C   0  0  2  0  0  0  0  0  0  0  0  0
   27.3521  -20.1751  -15.3237 N   0  0  0  0  0  0  0  0  0  0  0  0
   25.0914  -19.8190  -14.4216 C   0  0  0  0  0  0  0  0  0  0  0  0
   25.0543  -18.5423  -14.3448 O   0  0  0  0  0  0  0  0  0  0  0  0
   23.0664  -20.9632   -8.7907 N   0  0  0  0  0  0  0  0  0  0  0  0
   23.8565  -20.4947  -14.6103 C   0  0  2  0  0  0  0  0  0  0  0  0
   22.6097  -19.7249  -14.5680 C   0  0  0  0  0  0  0  0  0  0  0  0
   21.8828  -20.0867  -15.8404 C   0  0  0  0  0  0  0  0  0  0  0  0
   22.7410  -20.6377  -16.9295 C   0  0  0  0  0  0  0  0  0  0  0  0
   22.0114  -21.0677  -18.1290 O   0  0  0  0  0  0  0  0  0  0  0  0
   20.7792  -20.9611  -18.1860 C   0  0  0  0  0  0  0  0  0  0  0  0
   21.8137  -20.0415  -13.3577 O   0  0  0  0  0  0  0  0  0  0  0  0
   22.0745  -20.9534  -12.5386 O   0  0  0  0  0  0  0  0  0  0  0  0
   22.6581  -21.6065  -19.2434 O   0  0  0  0  0  0  0  0  0  0  0  0
  1  5  1  0
  1  2  1  0
  2  3  1  0
  4  3  1  0
  5  4  1  0
  6  7  2  0
  5  6  1  1
  9  8  1  0
 10  9  2  0
 11  9  1  0
 12 13  1  0
 12 11  1  0
 13 14  1  0
 15 14  1  1
 15 16  1  0
 16  6  1  0
 17 15  1  0
 18 17  2  0
 19 17  1  0
 20 25  1  0
 20 19  1  0
 20 21  1  6
 22 21  1  0
 23 27  1  0
 23 22  1  0
 24 23  2  0
 25 28  1  0
 26 25  2  0
M  END
$$$$
