PRE.pdb
     RDKit          3D

 28 28  0  0  1  0  0  0  0  0999 V2000
   29.0163  -21.8016  -17.0617 N   0  0  0  0  0  0  0  0  0  0  0  0
   30.2249  -22.4166  -17.6817 C   0  0  0  0  0  0  0  0  0  0  0  0
   30.1979  -23.8168  -17.1453 C   0  0  0  0  0  0  0  0  0  0  0  0
   28.7732  -24.0450  -16.7513 C   0  0  0  0  0  0  0  0  0  0  0  0
   28.0277  -22.8511  -17.3553 C   0  0  1  0  0  0  0  0  0  0  0  0
   26.7770  -22.6590  -16.5799 C   0  0  0  0  0  0  0  0  0  0  0  0
   25.7718  -23.3486  -16.8660 O   0  0  0  0  0  0  0  0  0  0  0  0
   23.1118  -19.7178   -9.5103 N   0  0  0  0  0  0  0  0  0  0  0  0
   24.1450  -20.5749   -9.0743 C   0  0  0  0  0  0  0  0  0  0  0  0
   24.1009  -21.1488   -7.8966 N   0  0  0  0  0  0  0  0  0  0  0  0
   25.2821  -20.8748   -9.8562 N   0  0  0  0  0  0  0  0  0  0  0  0
   25.6584  -20.2127  -11.0665 C   0  0  0  0  0  0  0  0  0  0  0  0
   25.0783  -20.7960  -12.3231 C   0  0  0  0  0  0  0  0  0  0  0  0
   26.1275  -21.0143  -13.3456 C   0  0  0  0  0  0  0  0  0  0  0  0
   25.5262  -21.5387  -14.6968 C   0  0  2  0  0  0  0  0  0  0  0  0
   26.7031  -21.7210  -15.5230 N   0  0  0  0  0  0  0  0  0  0  0  0
   24.4785  -20.7163  -15.2171 C   0  0  0  0  0  0  0  0  0  0  0  0
   24.7416  -19.5096  -15.5513 O   0  0  0  0  0  0  0  0  0  0  0  0
   24.8907  -21.7665   -7.6449 N   0  0  0  0  0  0  0  0  0  0  0  0
   23.1423  -21.1634  -15.3956 C   0  0  2  0  0  0  0  0  0  0  0  0
   22.1624  -20.2560  -16.0000 C   0  0  0  0  0  0  0  0  0  0  0  0
   20.9789  -21.1286  -16.3407 C   0  0  0  0  0  0  0  0  0  0  0  0
   19.8261  -20.4209  -16.9703 C   0  0  0  0  0  0  0  0  0  0  0  0
   18.6905  -21.2842  -17.3181 O   0  0  0  0  0  0  0  0  0  0  0  0
   18.7239  -22.4964  -17.0679 C   0  0  0  0  0  0  0  0  0  0  0  0
   21.7993  -19.1527  -15.0784 O   0  0  0  0  0  0  0  0  0  0  0  0
   21.8426  -19.2113  -13.8273 O   0  0  0  0  0  0  0  0  0  0  0  0
   17.5387  -20.7909  -17.9349 O   0  0  0  0  0  0  0  0  0  0  0  0
  1  5  1  0
  1  2  1  0
  2  3  1  0
  4  3  1  0
  5  4  1  0
  6  7  2  0
  5  6  1  1
  9  8  1  0
 10  9  2  0
 11  9  1  0
 12 13  1  0
 12 11  1  0
 13 14  1  0
 15 14  1  1
 15 16  1  0
 16  6  1  0
 17 15  1  0
 18 17  2  0
 19 17  1  0
 20 25  1  0
 20 19  1  0
 20 21  1  6
 22 21  1  0
 23 27  1  0
 23 22  1  0
 24 23  2  0
 25 28  1  0
 26 25  2  0
M  END
$$$$
