PRE.pdb
     RDKit          3D

 28 28  0  0  1  0  0  0  0  0999 V2000
   27.7517  -17.5220  -17.3437 N   0  0  0  0  0  0  0  0  0  0  0  0
   28.8301  -17.0758  -18.2717 C   0  0  0  0  0  0  0  0  0  0  0  0
   29.5750  -18.3469  -18.5518 C   0  0  0  0  0  0  0  0  0  0  0  0
   28.5966  -19.4358  -18.2448 C   0  0  0  0  0  0  0  0  0  0  0  0
   27.2641  -18.6987  -18.0803 C   0  0  1  0  0  0  0  0  0  0  0  0
   26.3798  -19.5442  -17.2403 C   0  0  0  0  0  0  0  0  0  0  0  0
   25.6355  -20.3847  -17.7947 O   0  0  0  0  0  0  0  0  0  0  0  0
   26.4986  -20.1856   -8.3722 N   0  0  0  0  0  0  0  0  0  0  0  0
   25.3955  -20.9265   -8.8480 C   0  0  0  0  0  0  0  0  0  0  0  0
   24.4901  -21.4012   -8.0274 N   0  0  0  0  0  0  0  0  0  0  0  0
   25.1853  -21.2076  -10.2159 N   0  0  0  0  0  0  0  0  0  0  0  0
   25.8562  -20.5744  -11.3086 C   0  0  0  0  0  0  0  0  0  0  0  0
   25.5886  -21.1746  -12.6592 C   0  0  0  0  0  0  0  0  0  0  0  0
   26.3538  -20.4746  -13.7168 C   0  0  0  0  0  0  0  0  0  0  0  0
   25.4650  -20.1630  -14.9718 C   0  0  2  0  0  0  0  0  0  0  0  0
   26.3690  -19.4236  -15.8304 N   0  0  0  0  0  0  0  0  0  0  0  0
   24.2134  -19.5499  -14.6516 C   0  0  0  0  0  0  0  0  0  0  0  0
   24.2080  -18.4455  -14.0056 O   0  0  0  0  0  0  0  0  0  0  0  0
   23.7051  -21.9268   -8.4468 N   0  0  0  0  0  0  0  0  0  0  0  0
   22.9539  -20.0952  -15.0169 C   0  0  2  0  0  0  0  0  0  0  0  0
   21.7302  -19.4157  -14.5812 C   0  0  0  0  0  0  0  0  0  0  0  0
   20.8757  -19.3148  -15.8212 C   0  0  0  0  0  0  0  0  0  0  0  0
   19.5719  -18.6121  -15.6408 C   0  0  0  0  0  0  0  0  0  0  0  0
   18.7086  -18.6039  -16.8285 O   0  0  0  0  0  0  0  0  0  0  0  0
   19.1745  -18.3252  -17.9413 C   0  0  0  0  0  0  0  0  0  0  0  0
   21.0523  -20.1583  -13.4914 O   0  0  0  0  0  0  0  0  0  0  0  0
   21.2003  -21.3784  -13.2465 O   0  0  0  0  0  0  0  0  0  0  0  0
   17.3464  -18.9051  -16.7637 O   0  0  0  0  0  0  0  0  0  0  0  0
  1  5  1  0
  1  2  1  0
  2  3  1  0
  4  3  1  0
  5  4  1  0
  6  7  2  0
  5  6  1  1
  9  8  1  0
 10  9  2  0
 11  9  1  0
 12 13  1  0
 12 11  1  0
 13 14  1  0
 15 14  1  1
 15 16  1  0
 16  6  1  0
 17 15  1  0
 18 17  2  0
 19 17  1  0
 20 25  1  0
 20 19  1  0
 20 21  1  6
 22 21  1  0
 23 27  1  0
 23 22  1  0
 24 23  2  0
 25 28  1  0
 26 25  2  0
M  END
$$$$
