PRE.pdb
     RDKit          3D

 28 28  0  0  1  0  0  0  0  0999 V2000
   34.5863  -26.4665  -16.1150 N   0  0  0  0  0  0  0  0  0  0  0  0
   35.7666  -26.9226  -15.3263 C   0  0  0  0  0  0  0  0  0  0  0  0
   35.9639  -25.8048  -14.3463 C   0  0  0  0  0  0  0  0  0  0  0  0
   34.6354  -25.1211  -14.2777 C   0  0  0  0  0  0  0  0  0  0  0  0
   33.6909  -26.0755  -15.0148 C   0  0  1  0  0  0  0  0  0  0  0  0
   32.5359  -25.2818  -15.5031 C   0  0  0  0  0  0  0  0  0  0  0  0
   31.7728  -24.7420  -14.6699 O   0  0  0  0  0  0  0  0  0  0  0  0
   34.3297  -23.1587  -22.8793 N   0  0  0  0  0  0  0  0  0  0  0  0
   34.9383  -22.8886  -21.6348 C   0  0  0  0  0  0  0  0  0  0  0  0
   36.2284  -22.6760  -21.5405 N   0  0  0  0  0  0  0  0  0  0  0  0
   34.2203  -22.8272  -20.4203 N   0  0  0  0  0  0  0  0  0  0  0  0
   33.0115  -22.0943  -20.2039 C   0  0  0  0  0  0  0  0  0  0  0  0
   32.3060  -22.3894  -18.9113 C   0  0  0  0  0  0  0  0  0  0  0  0
   31.9258  -23.8183  -18.8234 C   0  0  0  0  0  0  0  0  0  0  0  0
   31.3228  -24.1770  -17.4198 C   0  0  2  0  0  0  0  0  0  0  0  0
   32.2876  -25.1182  -16.8866 N   0  0  0  0  0  0  0  0  0  0  0  0
   29.9562  -24.5946  -17.4712 C   0  0  0  0  0  0  0  0  0  0  0  0
   29.6885  -25.8209  -17.7191 O   0  0  0  0  0  0  0  0  0  0  0  0
   36.6105  -22.5171  -20.5933 N   0  0  0  0  0  0  0  0  0  0  0  0
   28.8578  -23.7206  -17.2547 C   0  0  2  0  0  0  0  0  0  0  0  0
   27.5039  -24.2794  -17.1957 C   0  0  0  0  0  0  0  0  0  0  0  0
   26.6418  -23.1613  -16.6619 C   0  0  0  0  0  0  0  0  0  0  0  0
   25.2011  -23.5015  -16.4752 C   0  0  0  0  0  0  0  0  0  0  0  0
   24.3614  -22.3884  -16.0149 O   0  0  0  0  0  0  0  0  0  0  0  0
   23.1475  -22.5513  -15.8335 C   0  0  0  0  0  0  0  0  0  0  0  0
   27.0501  -24.7518  -18.5259 O   0  0  0  0  0  0  0  0  0  0  0  0
   27.3494  -24.2231  -19.6221 O   0  0  0  0  0  0  0  0  0  0  0  0
   24.8798  -21.1163  -15.7628 O   0  0  0  0  0  0  0  0  0  0  0  0
  1  5  1  0
  1  2  1  0
  2  3  1  0
  4  3  1  0
  5  4  1  0
  6  7  2  0
  5  6  1  6
  9  8  1  0
 10  9  2  0
 11  9  1  0
 12 13  1  0
 12 11  1  0
 13 14  1  0
 15 14  1  6
 15 16  1  0
 16  6  1  0
 17 15  1  0
 18 17  2  0
 19 17  1  0
 20 25  1  0
 20 19  1  0
 20 21  1  1
 22 21  1  0
 23 27  1  0
 23 22  1  0
 24 23  2  0
 25 28  1  0
 26 25  2  0
M  END
$$$$
