PRE.pdb
     RDKit          3D

 28 28  0  0  1  0  0  0  0  0999 V2000
   30.4771  -22.5657  -11.1543 N   0  0  0  0  0  0  0  0  0  0  0  0
   31.6387  -22.8328  -10.2584 C   0  0  0  0  0  0  0  0  0  0  0  0
   31.9116  -21.4862   -9.6574 C   0  0  0  0  0  0  0  0  0  0  0  0
   30.6254  -20.7370   -9.8045 C   0  0  0  0  0  0  0  0  0  0  0  0
   29.6190  -21.8115  -10.2271 C   0  0  1  0  0  0  0  0  0  0  0  0
   28.5056  -21.1345  -10.9375 C   0  0  0  0  0  0  0  0  0  0  0  0
   27.7152  -20.4156  -10.2847 O   0  0  0  0  0  0  0  0  0  0  0  0
   27.7811  -22.5648  -18.7866 N   0  0  0  0  0  0  0  0  0  0  0  0
   26.9335  -21.4453  -18.9292 C   0  0  0  0  0  0  0  0  0  0  0  0
   26.0345  -21.3899  -19.8816 N   0  0  0  0  0  0  0  0  0  0  0  0
   26.9863  -20.3219  -18.0751 N   0  0  0  0  0  0  0  0  0  0  0  0
   27.8067  -20.1997  -16.9101 C   0  0  0  0  0  0  0  0  0  0  0  0
   27.1200  -20.4997  -15.6085 C   0  0  0  0  0  0  0  0  0  0  0  0
   28.0365  -20.3010  -14.4619 C   0  0  0  0  0  0  0  0  0  0  0  0
   27.3207  -20.5616  -13.0900 C   0  0  2  0  0  0  0  0  0  0  0  0
   28.3273  -21.2798  -12.3337 N   0  0  0  0  0  0  0  0  0  0  0  0
   26.0349  -21.1734  -13.2199 C   0  0  0  0  0  0  0  0  0  0  0  0
   25.9581  -22.4468  -13.3183 O   0  0  0  0  0  0  0  0  0  0  0  0
   25.4339  -20.5491  -19.9127 N   0  0  0  0  0  0  0  0  0  0  0  0
   24.8155  -20.4454  -13.2408 C   0  0  2  0  0  0  0  0  0  0  0  0
   23.5471  -21.1792  -13.2019 C   0  0  0  0  0  0  0  0  0  0  0  0
   22.5442  -20.1982  -12.6453 C   0  0  0  0  0  0  0  0  0  0  0  0
   21.1556  -20.7229  -12.4955 C   0  0  0  0  0  0  0  0  0  0  0  0
   20.1894  -19.7591  -11.9536 O   0  0  0  0  0  0  0  0  0  0  0  0
   20.5410  -18.6037  -11.6808 C   0  0  0  0  0  0  0  0  0  0  0  0
   23.1618  -21.6742  -14.5455 O   0  0  0  0  0  0  0  0  0  0  0  0
   23.4917  -21.1460  -15.6330 O   0  0  0  0  0  0  0  0  0  0  0  0
   18.8521  -20.0906  -11.7247 O   0  0  0  0  0  0  0  0  0  0  0  0
  1  5  1  0
  1  2  1  0
  2  3  1  0
  4  3  1  0
  5  4  1  0
  6  7  2  0
  5  6  1  6
  9  8  1  0
 10  9  2  0
 11  9  1  0
 12 13  1  0
 12 11  1  0
 13 14  1  0
 15 14  1  6
 15 16  1  0
 16  6  1  0
 17 15  1  0
 18 17  2  0
 19 17  1  0
 20 25  1  0
 20 19  1  0
 20 21  1  1
 22 21  1  0
 23 27  1  0
 23 22  1  0
 24 23  2  0
 25 28  1  0
 26 25  2  0
M  END
$$$$
