PRE.pdb
     RDKit          3D

 28 28  0  0  1  0  0  0  0  0999 V2000
   27.8875  -17.6254  -17.1597 N   0  0  0  0  0  0  0  0  0  0  0  0
   28.8455  -17.1543  -18.2007 C   0  0  0  0  0  0  0  0  0  0  0  0
   29.7601  -18.3309  -18.3680 C   0  0  0  0  0  0  0  0  0  0  0  0
   28.9706  -19.4994  -17.8693 C   0  0  0  0  0  0  0  0  0  0  0  0
   27.5508  -18.9460  -17.7143 C   0  0  1  0  0  0  0  0  0  0  0  0
   26.8408  -19.7925  -16.7234 C   0  0  0  0  0  0  0  0  0  0  0  0
   26.4067  -20.9117  -17.0791 O   0  0  0  0  0  0  0  0  0  0  0  0
   26.8840  -20.0194   -8.4108 N   0  0  0  0  0  0  0  0  0  0  0  0
   25.7321  -20.7772   -8.7121 C   0  0  0  0  0  0  0  0  0  0  0  0
   24.7208  -20.8376   -7.8803 N   0  0  0  0  0  0  0  0  0  0  0  0
   25.5823  -21.5135   -9.9079 N   0  0  0  0  0  0  0  0  0  0  0  0
   26.3418  -21.3218  -11.1044 C   0  0  0  0  0  0  0  0  0  0  0  0
   26.0212  -20.0722  -11.8734 C   0  0  0  0  0  0  0  0  0  0  0  0
   26.8189  -19.9911  -13.1189 C   0  0  0  0  0  0  0  0  0  0  0  0
   25.9202  -20.1259  -14.3981 C   0  0  2  0  0  0  0  0  0  0  0  0
   26.6538  -19.3627  -15.3882 N   0  0  0  0  0  0  0  0  0  0  0  0
   24.5517  -19.7743  -14.1785 C   0  0  0  0  0  0  0  0  0  0  0  0
   24.2652  -18.5800  -13.8198 O   0  0  0  0  0  0  0  0  0  0  0  0
   23.8936  -21.3777   -8.1845 N   0  0  0  0  0  0  0  0  0  0  0  0
   23.4704  -20.6807  -14.3420 C   0  0  2  0  0  0  0  0  0  0  0  0
   22.1060  -20.2177  -14.0723 C   0  0  0  0  0  0  0  0  0  0  0  0
   21.2412  -20.9431  -15.0744 C   0  0  0  0  0  0  0  0  0  0  0  0
   19.7739  -20.7110  -14.9355 C   0  0  0  0  0  0  0  0  0  0  0  0
   18.9393  -21.4771  -15.8695 O   0  0  0  0  0  0  0  0  0  0  0  0
   18.0870  -20.9063  -16.5629 C   0  0  0  0  0  0  0  0  0  0  0  0
   21.7008  -20.4987  -12.6740 O   0  0  0  0  0  0  0  0  0  0  0  0
   22.2583  -21.3216  -11.9108 O   0  0  0  0  0  0  0  0  0  0  0  0
   19.0635  -22.8600  -16.0203 O   0  0  0  0  0  0  0  0  0  0  0  0
  1  5  1  0
  1  2  1  0
  2  3  1  0
  4  3  1  0
  5  4  1  0
  6  7  2  0
  5  6  1  1
  9  8  1  0
 10  9  2  0
 11  9  1  0
 12 13  1  0
 12 11  1  0
 13 14  1  0
 15 14  1  1
 15 16  1  0
 16  6  1  0
 17 15  1  0
 18 17  2  0
 19 17  1  0
 20 25  1  0
 20 19  1  0
 20 21  1  6
 22 21  1  0
 23 27  1  0
 23 22  1  0
 24 23  2  0
 25 28  1  0
 26 25  2  0
M  END
$$$$
