PRE.pdb
     RDKit          3D

 28 28  0  0  1  0  0  0  0  0999 V2000
   21.8697  -29.1266  -10.5703 N   0  0  0  0  0  0  0  0  0  0  0  0
   21.2898  -28.2394  -11.6190 C   0  0  0  0  0  0  0  0  0  0  0  0
   21.1044  -29.1721  -12.7786 C   0  0  0  0  0  0  0  0  0  0  0  0
   21.0581  -30.5356  -12.1653 C   0  0  0  0  0  0  0  0  0  0  0  0
   20.9368  -30.2606  -10.6634 C   0  0  1  0  0  0  0  0  0  0  0  0
   21.4483  -31.4525   -9.9422 C   0  0  0  0  0  0  0  0  0  0  0  0
   20.6726  -32.4109   -9.7239 O   0  0  0  0  0  0  0  0  0  0  0  0
   27.9946  -35.8830  -12.6251 N   0  0  0  0  0  0  0  0  0  0  0  0
   26.6120  -35.6155  -12.7211 C   0  0  0  0  0  0  0  0  0  0  0  0
   25.9709  -35.7481  -13.8567 N   0  0  0  0  0  0  0  0  0  0  0  0
   25.8285  -35.1937  -11.6246 N   0  0  0  0  0  0  0  0  0  0  0  0
   26.3332  -34.6745  -10.3914 C   0  0  0  0  0  0  0  0  0  0  0  0
   25.2884  -34.2656   -9.3929 C   0  0  0  0  0  0  0  0  0  0  0  0
   24.5399  -33.0754   -9.8588 C   0  0  0  0  0  0  0  0  0  0  0  0
   23.3663  -32.7054   -8.8852 C   0  0  2  0  0  0  0  0  0  0  0  0
   22.7924  -31.5281   -9.5063 N   0  0  0  0  0  0  0  0  0  0  0  0
   23.7672  -32.5975   -7.5168 C   0  0  0  0  0  0  0  0  0  0  0  0
   24.5309  -31.6329   -7.1658 O   0  0  0  0  0  0  0  0  0  0  0  0
   24.9438  -35.6337  -13.8327 N   0  0  0  0  0  0  0  0  0  0  0  0
   23.3594  -33.5053   -6.5035 C   0  0  2  0  0  0  0  0  0  0  0  0
   23.8757  -33.3324   -5.1425 C   0  0  0  0  0  0  0  0  0  0  0  0
   22.9382  -34.1250   -4.2645 C   0  0  0  0  0  0  0  0  0  0  0  0
   23.3061  -34.1720   -2.8193 C   0  0  0  0  0  0  0  0  0  0  0  0
   22.4485  -35.0323   -1.9944 O   0  0  0  0  0  0  0  0  0  0  0  0
   22.9379  -35.9586   -1.3345 C   0  0  0  0  0  0  0  0  0  0  0  0
   25.2791  -33.7972   -5.0282 O   0  0  0  0  0  0  0  0  0  0  0  0
   25.8185  -34.6569   -5.7634 O   0  0  0  0  0  0  0  0  0  0  0  0
   21.0660  -34.8514   -1.9135 O   0  0  0  0  0  0  0  0  0  0  0  0
  1  5  1  0
  1  2  1  0
  2  3  1  0
  4  3  1  0
  5  4  1  0
  6  7  2  0
  5  6  1  1
  9  8  1  0
 10  9  2  0
 11  9  1  0
 12 13  1  0
 12 11  1  0
 13 14  1  0
 15 14  1  6
 15 16  1  0
 16  6  1  0
 17 15  1  0
 18 17  2  0
 19 17  1  0
 20 25  1  0
 20 19  1  0
 20 21  1  6
 22 21  1  0
 23 27  1  0
 23 22  1  0
 24 23  2  0
 25 28  1  0
 26 25  2  0
M  END
$$$$
