SHV.pdb
     RDKit          3D

 24 24  0  0  1  0  0  0  0  0999 V2000
    9.1647  -14.0596   20.1940 O   0  0  0  0  0  0  0  0  0  0  0  0
    8.2153  -14.5062   19.2571 C   0  0  0  0  0  0  0  0  0  0  0  0
    7.9273  -15.9817   19.4929 C   0  0  2  0  0  0  0  0  0  0  0  0
    6.9904  -16.4188   18.5042 N   0  0  0  0  0  0  0  0  0  0  0  0
    7.4485  -16.1895   20.8866 C   0  0  0  0  0  0  0  0  0  0  0  0
    6.2478  -15.9997   21.1416 O   0  0  0  0  0  0  0  0  0  0  0  0
    8.3285  -16.5992   21.9322 N   0  0  0  0  0  0  0  0  0  0  0  0
    7.9178  -16.7934   23.3004 C   0  0  1  0  0  0  0  0  0  0  0  0
    8.1789  -18.1264   23.8748 C   0  0  0  0  0  0  0  0  0  0  0  0
    7.8600  -18.3085   25.2937 C   0  0  0  0  0  0  0  0  0  0  0  0
    8.7396  -18.5036   26.3266 C   0  0  0  0  0  0  0  0  0  0  0  0
    8.0380  -18.6482   27.4646 N   0  0  0  0  0  0  0  0  0  0  0  0
    6.7432  -18.5504   27.1794 C   0  0  0  0  0  0  0  0  0  0  0  0
    6.6261  -18.3442   25.8637 N   0  0  0  0  0  0  0  0  0  0  0  0
    8.4011  -15.6805   24.1745 C   0  0  0  0  0  0  0  0  0  0  0  0
    9.5635  -15.2246   24.0673 O   0  0  0  0  0  0  0  0  0  0  0  0
    5.7719  -12.7813   25.3021 C   0  0  0  0  0  0  0  0  0  0  0  0
    6.7119  -13.1595   26.4285 C   0  0  2  0  0  0  0  0  0  0  0  0
    7.0877  -11.9686   27.2738 C   0  0  0  0  0  0  0  0  0  0  0  0
    7.9358  -13.8801   25.8879 C   0  0  2  0  0  0  0  0  0  0  0  0
    7.5756  -15.0846   25.1653 N   0  0  0  0  0  0  0  0  0  0  0  0
    8.7466  -14.3089   27.0595 C   0  0  0  0  0  0  0  0  0  0  0  0
    8.7777  -15.6795   27.3217 O   0  0  0  0  0  0  0  0  0  0  0  0
    9.3754  -13.5244   27.7891 O   0  0  0  0  0  0  0  0  0  0  0  0
  2  3  1  0
  2  1  1  0
  3  4  1  6
  5  6  2  0
  5  3  1  0
  7  5  1  0
  8  7  1  0
  8 15  1  0
  8  9  1  1
 10  9  1  0
 11 10  2  0
 12 13  1  0
 12 11  1  0
 13 14  2  0
 14 10  1  0
 15 21  1  0
 16 15  2  0
 18 17  1  6
 18 20  1  0
 19 18  1  0
 20 22  1  0
 20 21  1  1
 22 24  2  0
 22 23  1  0
M  END
$$$$
