SHV.pdb
     RDKit          3D

 24 24  0  0  1  0  0  0  0  0999 V2000
   11.6681  -18.3494   23.3297 O   0  0  0  0  0  0  0  0  0  0  0  0
   11.1659  -18.4873   22.0230 C   0  0  0  0  0  0  0  0  0  0  0  0
   11.3958  -17.1945   21.2538 C   0  0  2  0  0  0  0  0  0  0  0  0
   12.8062  -16.9746   21.1589 N   0  0  0  0  0  0  0  0  0  0  0  0
   10.6711  -16.0748   21.9137 C   0  0  0  0  0  0  0  0  0  0  0  0
   11.3226  -15.2406   22.5637 O   0  0  0  0  0  0  0  0  0  0  0  0
    9.2543  -15.9352   21.8197 N   0  0  0  0  0  0  0  0  0  0  0  0
    8.5122  -14.8450   22.4020 C   0  0  1  0  0  0  0  0  0  0  0  0
    7.3125  -14.4076   21.6641 C   0  0  0  0  0  0  0  0  0  0  0  0
    7.5018  -14.0273   20.2613 C   0  0  0  0  0  0  0  0  0  0  0  0
    7.9649  -12.8311   19.7780 C   0  0  0  0  0  0  0  0  0  0  0  0
    7.9653  -12.8840   18.4343 N   0  0  0  0  0  0  0  0  0  0  0  0
    7.5161  -14.0769   18.0570 C   0  0  0  0  0  0  0  0  0  0  0  0
    7.2323  -14.7773   19.1598 N   0  0  0  0  0  0  0  0  0  0  0  0
    8.2446  -15.0856   23.8534 C   0  0  0  0  0  0  0  0  0  0  0  0
    8.4164  -16.2144   24.3700 O   0  0  0  0  0  0  0  0  0  0  0  0
    5.5671  -12.7343   26.1178 C   0  0  0  0  0  0  0  0  0  0  0  0
    6.9019  -13.0296   26.7708 C   0  0  2  0  0  0  0  0  0  0  0  0
    7.8160  -11.8304   26.7538 C   0  0  0  0  0  0  0  0  0  0  0  0
    7.5525  -14.2477   26.1365 C   0  0  2  0  0  0  0  0  0  0  0  0
    7.7853  -14.0563   24.7182 N   0  0  0  0  0  0  0  0  0  0  0  0
    6.5915  -15.3763   26.2652 C   0  0  0  0  0  0  0  0  0  0  0  0
    6.5404  -16.0063   27.5097 O   0  0  0  0  0  0  0  0  0  0  0  0
    5.8577  -15.7678   25.3424 O   0  0  0  0  0  0  0  0  0  0  0  0
  2  3  1  0
  2  1  1  0
  3  4  1  1
  5  6  2  0
  5  3  1  0
  7  5  1  0
  8  7  1  0
  8 15  1  0
  8  9  1  6
 10  9  1  0
 11 10  2  0
 12 13  1  0
 12 11  1  0
 13 14  2  0
 14 10  1  0
 15 21  1  0
 16 15  2  0
 18 17  1  6
 18 20  1  0
 19 18  1  0
 20 22  1  0
 20 21  1  6
 22 24  2  0
 22 23  1  0
M  END
$$$$
