SHV.pdb
     RDKit          3D

 24 24  0  0  1  0  0  0  0  0999 V2000
   13.2956  -18.1659   22.5529 O   0  0  0  0  0  0  0  0  0  0  0  0
   12.3436  -18.3891   21.5416 C   0  0  0  0  0  0  0  0  0  0  0  0
   11.9175  -17.0556   20.9450 C   0  0  2  0  0  0  0  0  0  0  0  0
   13.0800  -16.4078   20.4202 N   0  0  0  0  0  0  0  0  0  0  0  0
   11.2069  -16.2441   21.9702 C   0  0  0  0  0  0  0  0  0  0  0  0
   11.7546  -15.2185   22.4070 O   0  0  0  0  0  0  0  0  0  0  0  0
    9.9190  -16.6117   22.4620 N   0  0  0  0  0  0  0  0  0  0  0  0
    9.2357  -15.9196   23.5261 C   0  0  1  0  0  0  0  0  0  0  0  0
    7.7875  -16.1730   23.6421 C   0  0  0  0  0  0  0  0  0  0  0  0
    7.0612  -15.4035   24.6562 C   0  0  0  0  0  0  0  0  0  0  0  0
    7.5759  -14.4767   25.5251 C   0  0  0  0  0  0  0  0  0  0  0  0
    6.5793  -14.0210   26.3044 N   0  0  0  0  0  0  0  0  0  0  0  0
    5.4527  -14.6330   25.9527 C   0  0  0  0  0  0  0  0  0  0  0  0
    5.7363  -15.4740   24.9530 N   0  0  0  0  0  0  0  0  0  0  0  0
    9.9578  -16.0766   24.8261 C   0  0  0  0  0  0  0  0  0  0  0  0
   10.6754  -17.0778   25.0571 O   0  0  0  0  0  0  0  0  0  0  0  0
    9.9453  -12.8497   27.5641 C   0  0  0  0  0  0  0  0  0  0  0  0
   10.0258  -14.2413   28.1576 C   0  0  2  0  0  0  0  0  0  0  0  0
   10.8313  -14.2654   29.4321 C   0  0  0  0  0  0  0  0  0  0  0  0
   10.5542  -15.2323   27.1338 C   0  0  2  0  0  0  0  0  0  0  0  0
    9.8705  -15.1074   25.8612 N   0  0  0  0  0  0  0  0  0  0  0  0
   10.2568  -16.5964   27.6485 C   0  0  0  0  0  0  0  0  0  0  0  0
   11.2757  -17.2210   28.3697 O   0  0  0  0  0  0  0  0  0  0  0  0
    9.1762  -17.1824   27.4691 O   0  0  0  0  0  0  0  0  0  0  0  0
  2  3  1  0
  2  1  1  0
  3  4  1  1
  5  6  2  0
  5  3  1  0
  7  5  1  0
  8  7  1  0
  8 15  1  0
  8  9  1  1
 10  9  1  0
 11 10  2  0
 12 13  1  0
 12 11  1  0
 13 14  2  0
 14 10  1  0
 15 21  1  0
 16 15  2  0
 18 17  1  6
 18 20  1  0
 19 18  1  0
 20 22  1  0
 20 21  1  6
 22 24  2  0
 22 23  1  0
M  END
$$$$
