SHV.pdb
     RDKit          3D

 24 24  0  0  1  0  0  0  0  0999 V2000
   10.5430  -14.7827   20.1451 O   0  0  0  0  0  0  0  0  0  0  0  0
   10.7214  -16.1780   20.1523 C   0  0  0  0  0  0  0  0  0  0  0  0
    9.3745  -16.8610   19.9648 C   0  0  2  0  0  0  0  0  0  0  0  0
    8.8790  -16.5253   18.6655 N   0  0  0  0  0  0  0  0  0  0  0  0
    8.4497  -16.4711   21.0636 C   0  0  0  0  0  0  0  0  0  0  0  0
    7.3531  -15.9658   20.7720 O   0  0  0  0  0  0  0  0  0  0  0  0
    8.7882  -16.6615   22.4364 N   0  0  0  0  0  0  0  0  0  0  0  0
    7.8809  -16.4202   23.5304 C   0  0  1  0  0  0  0  0  0  0  0  0
    7.3095  -17.6161   24.1772 C   0  0  0  0  0  0  0  0  0  0  0  0
    6.5321  -18.5203   23.3250 C   0  0  0  0  0  0  0  0  0  0  0  0
    5.1848  -18.4776   23.0765 C   0  0  0  0  0  0  0  0  0  0  0  0
    4.8676  -19.4986   22.2610 N   0  0  0  0  0  0  0  0  0  0  0  0
    5.9742  -20.1832   21.9889 C   0  0  0  0  0  0  0  0  0  0  0  0
    6.9894  -19.5962   22.6308 N   0  0  0  0  0  0  0  0  0  0  0  0
    8.4601  -15.4513   24.5113 C   0  0  0  0  0  0  0  0  0  0  0  0
    9.6741  -15.4833   24.8206 O   0  0  0  0  0  0  0  0  0  0  0  0
    5.9535  -13.0604   27.1078 C   0  0  0  0  0  0  0  0  0  0  0  0
    7.1808  -12.4414   26.4707 C   0  0  2  0  0  0  0  0  0  0  0  0
    6.8273  -11.5812   25.2836 C   0  0  0  0  0  0  0  0  0  0  0  0
    8.1981  -13.5119   26.1124 C   0  0  2  0  0  0  0  0  0  0  0  0
    7.6722  -14.4503   25.1402 N   0  0  0  0  0  0  0  0  0  0  0  0
    8.4746  -14.2878   27.3517 C   0  0  0  0  0  0  0  0  0  0  0  0
    9.2637  -13.6556   28.3139 O   0  0  0  0  0  0  0  0  0  0  0  0
    8.0468  -15.4356   27.5583 O   0  0  0  0  0  0  0  0  0  0  0  0
  2  3  1  0
  2  1  1  0
  3  4  1  6
  5  6  2  0
  5  3  1  0
  7  5  1  0
  8  7  1  0
  8 15  1  0
  8  9  1  1
 10  9  1  0
 11 10  2  0
 12 13  1  0
 12 11  1  0
 13 14  2  0
 14 10  1  0
 15 21  1  0
 16 15  2  0
 18 17  1  6
 18 20  1  0
 19 18  1  0
 20 22  1  0
 20 21  1  6
 22 24  2  0
 22 23  1  0
M  END
$$$$
