SHV.pdb
     RDKit          3D

 24 24  0  0  1  0  0  0  0  0999 V2000
    9.1091  -15.4067   18.2615 O   0  0  0  0  0  0  0  0  0  0  0  0
    8.3098  -15.1953   19.3996 C   0  0  0  0  0  0  0  0  0  0  0  0
    7.6574  -16.5074   19.8101 C   0  0  2  0  0  0  0  0  0  0  0  0
    6.5348  -16.7367   18.9535 N   0  0  0  0  0  0  0  0  0  0  0  0
    7.2948  -16.4651   21.2529 C   0  0  0  0  0  0  0  0  0  0  0  0
    6.1752  -16.0355   21.5764 O   0  0  0  0  0  0  0  0  0  0  0  0
    8.1954  -16.9030   22.2690 N   0  0  0  0  0  0  0  0  0  0  0  0
    7.8380  -17.0349   23.6594 C   0  0  1  0  0  0  0  0  0  0  0  0
    8.1677  -18.3237   24.2962 C   0  0  0  0  0  0  0  0  0  0  0  0
    7.8670  -18.4507   25.7250 C   0  0  0  0  0  0  0  0  0  0  0  0
    7.2025  -17.5526   26.5193 C   0  0  0  0  0  0  0  0  0  0  0  0
    7.1588  -18.0397   27.7719 N   0  0  0  0  0  0  0  0  0  0  0  0
    7.7760  -19.2171   27.7905 C   0  0  0  0  0  0  0  0  0  0  0  0
    8.2090  -19.4742   26.5521 N   0  0  0  0  0  0  0  0  0  0  0  0
    8.3083  -15.8585   24.4539 C   0  0  0  0  0  0  0  0  0  0  0  0
    9.4870  -15.4418   24.3670 O   0  0  0  0  0  0  0  0  0  0  0  0
    5.6940  -12.8347   25.5348 C   0  0  0  0  0  0  0  0  0  0  0  0
    6.6582  -13.2211   26.6376 C   0  0  2  0  0  0  0  0  0  0  0  0
    7.0776  -12.0309   27.4632 C   0  0  0  0  0  0  0  0  0  0  0  0
    7.8541  -13.9667   26.0690 C   0  0  2  0  0  0  0  0  0  0  0  0
    7.4515  -15.1553   25.3427 N   0  0  0  0  0  0  0  0  0  0  0  0
    8.6746  -14.4259   27.2222 C   0  0  0  0  0  0  0  0  0  0  0  0
    8.6299  -15.7913   27.5082 O   0  0  0  0  0  0  0  0  0  0  0  0
    9.3740  -13.6702   27.9172 O   0  0  0  0  0  0  0  0  0  0  0  0
  2  3  1  0
  2  1  1  0
  3  4  1  6
  5  6  2  0
  5  3  1  0
  7  5  1  0
  8  7  1  0
  8 15  1  0
  8  9  1  1
 10  9  1  0
 11 10  2  0
 12 13  1  0
 12 11  1  0
 13 14  2  0
 14 10  1  0
 15 21  1  0
 16 15  2  0
 18 17  1  6
 18 20  1  0
 19 18  1  0
 20 22  1  0
 20 21  1  1
 22 24  2  0
 22 23  1  0
M  END
$$$$
