SHV.pdb
     RDKit          3D

 24 24  0  0  1  0  0  0  0  0999 V2000
   11.2597  -19.5176   18.8457 O   0  0  0  0  0  0  0  0  0  0  0  0
   11.1552  -18.1977   19.3207 C   0  0  0  0  0  0  0  0  0  0  0  0
   10.5563  -18.2096   20.7196 C   0  0  2  0  0  0  0  0  0  0  0  0
    9.4021  -19.0547   20.7055 N   0  0  0  0  0  0  0  0  0  0  0  0
   10.2590  -16.8186   21.1570 C   0  0  0  0  0  0  0  0  0  0  0  0
   11.1899  -15.9986   21.2186 O   0  0  0  0  0  0  0  0  0  0  0  0
    8.9390  -16.4044   21.5056 N   0  0  0  0  0  0  0  0  0  0  0  0
    8.5982  -15.0667   21.9212 C   0  0  1  0  0  0  0  0  0  0  0  0
    7.5323  -14.3984   21.1516 C   0  0  0  0  0  0  0  0  0  0  0  0
    7.8396  -14.0514   19.7612 C   0  0  0  0  0  0  0  0  0  0  0  0
    9.0602  -14.1048   19.1398 C   0  0  0  0  0  0  0  0  0  0  0  0
    8.9138  -13.6814   17.8719 N   0  0  0  0  0  0  0  0  0  0  0  0
    7.6380  -13.3627   17.6763 C   0  0  0  0  0  0  0  0  0  0  0  0
    6.9789  -13.5842   18.8181 N   0  0  0  0  0  0  0  0  0  0  0  0
    8.3771  -14.9980   23.3985 C   0  0  0  0  0  0  0  0  0  0  0  0
    7.5116  -14.2389   23.8940 O   0  0  0  0  0  0  0  0  0  0  0  0
    7.9113  -18.3711   25.2143 C   0  0  0  0  0  0  0  0  0  0  0  0
    7.5203  -16.9978   25.7207 C   0  0  2  0  0  0  0  0  0  0  0  0
    6.3276  -16.4429   24.9834 C   0  0  0  0  0  0  0  0  0  0  0  0
    8.7072  -16.0499   25.6741 C   0  0  2  0  0  0  0  0  0  0  0  0
    9.1295  -15.7829   24.3129 N   0  0  0  0  0  0  0  0  0  0  0  0
    9.8430  -16.7342   26.3492 C   0  0  0  0  0  0  0  0  0  0  0  0
   10.9353  -17.0605   25.5439 O   0  0  0  0  0  0  0  0  0  0  0  0
    9.8588  -17.0175   27.5587 O   0  0  0  0  0  0  0  0  0  0  0  0
  2  3  1  0
  2  1  1  0
  3  4  1  6
  5  6  2  0
  5  3  1  0
  7  5  1  0
  8  7  1  0
  8 15  1  0
  8  9  1  6
 10  9  1  0
 11 10  2  0
 12 13  1  0
 12 11  1  0
 13 14  2  0
 14 10  1  0
 15 21  1  0
 16 15  2  0
 18 17  1  6
 18 20  1  0
 19 18  1  0
 20 22  1  0
 20 21  1  6
 22 24  2  0
 22 23  1  0
M  END
$$$$
