SHV.pdb
     RDKit          3D

 24 24  0  0  1  0  0  0  0  0999 V2000
   10.4659  -13.0200   19.8654 O   0  0  0  0  0  0  0  0  0  0  0  0
    9.8580  -14.0970   19.1953 C   0  0  0  0  0  0  0  0  0  0  0  0
    8.3453  -13.9723   19.3056 C   0  0  2  0  0  0  0  0  0  0  0  0
    7.9865  -12.6151   19.0302 N   0  0  0  0  0  0  0  0  0  0  0  0
    7.8934  -14.4378   20.6449 C   0  0  0  0  0  0  0  0  0  0  0  0
    7.2699  -13.6488   21.3739 O   0  0  0  0  0  0  0  0  0  0  0  0
    8.1563  -15.7604   21.1109 N   0  0  0  0  0  0  0  0  0  0  0  0
    7.6770  -16.2819   22.3665 C   0  0  1  0  0  0  0  0  0  0  0  0
    7.7720  -17.7430   22.5426 C   0  0  0  0  0  0  0  0  0  0  0  0
    7.3524  -18.2808   23.8399 C   0  0  0  0  0  0  0  0  0  0  0  0
    7.6613  -17.7930   25.0830 C   0  0  0  0  0  0  0  0  0  0  0  0
    7.0976  -18.5901   26.0077 N   0  0  0  0  0  0  0  0  0  0  0  0
    6.4434  -19.5653   25.3845 C   0  0  0  0  0  0  0  0  0  0  0  0
    6.5929  -19.3852   24.0682 N   0  0  0  0  0  0  0  0  0  0  0  0
    8.2445  -15.5204   23.5216 C   0  0  0  0  0  0  0  0  0  0  0  0
    9.4581  -15.2109   23.5659 O   0  0  0  0  0  0  0  0  0  0  0  0
    6.1697  -12.5387   25.1569 C   0  0  0  0  0  0  0  0  0  0  0  0
    6.8086  -13.3761   26.2459 C   0  0  2  0  0  0  0  0  0  0  0  0
    7.2833  -12.5320   27.4017 C   0  0  0  0  0  0  0  0  0  0  0  0
    7.9240  -14.2373   25.6768 C   0  0  2  0  0  0  0  0  0  0  0  0
    7.4454  -15.1099   24.6222 N   0  0  0  0  0  0  0  0  0  0  0  0
    8.4047  -15.1170   26.7764 C   0  0  0  0  0  0  0  0  0  0  0  0
    9.2625  -14.5298   27.7079 O   0  0  0  0  0  0  0  0  0  0  0  0
    8.0851  -16.3114   26.8958 O   0  0  0  0  0  0  0  0  0  0  0  0
  2  3  1  0
  2  1  1  0
  3  4  1  1
  5  6  2  0
  5  3  1  0
  7  5  1  0
  8  7  1  0
  8 15  1  0
  8  9  1  1
 10  9  1  0
 11 10  2  0
 12 13  1  0
 12 11  1  0
 13 14  2  0
 14 10  1  0
 15 21  1  0
 16 15  2  0
 18 17  1  6
 18 20  1  0
 19 18  1  0
 20 22  1  0
 20 21  1  6
 22 24  2  0
 22 23  1  0
M  END
$$$$
