SHV.pdb
     RDKit          3D

 24 24  0  0  1  0  0  0  0  0999 V2000
    9.2182  -13.9109   14.6728 O   0  0  0  0  0  0  0  0  0  0  0  0
   10.0415  -15.0357   14.4837 C   0  0  0  0  0  0  0  0  0  0  0  0
    9.1896  -16.2964   14.5121 C   0  0  2  0  0  0  0  0  0  0  0  0
    8.1128  -16.1305   13.5850 N   0  0  0  0  0  0  0  0  0  0  0  0
    8.7304  -16.5682   15.9013 C   0  0  0  0  0  0  0  0  0  0  0  0
    7.5773  -16.2396   16.2257 O   0  0  0  0  0  0  0  0  0  0  0  0
    9.5760  -17.1932   16.8656 N   0  0  0  0  0  0  0  0  0  0  0  0
    9.1609  -17.5256   18.2055 C   0  0  1  0  0  0  0  0  0  0  0  0
    9.6028  -18.8365   18.7169 C   0  0  0  0  0  0  0  0  0  0  0  0
    9.1507  -20.0198   17.9796 C   0  0  0  0  0  0  0  0  0  0  0  0
    7.9246  -20.2226   17.4014 C   0  0  0  0  0  0  0  0  0  0  0  0
    7.9112  -21.4467   16.8449 N   0  0  0  0  0  0  0  0  0  0  0  0
    9.0916  -22.0209   17.0555 C   0  0  0  0  0  0  0  0  0  0  0  0
    9.8501  -21.1616   17.7438 N   0  0  0  0  0  0  0  0  0  0  0  0
    9.4471  -16.4063   19.1550 C   0  0  0  0  0  0  0  0  0  0  0  0
   10.5300  -15.7768   19.1139 O   0  0  0  0  0  0  0  0  0  0  0  0
    7.0199  -13.4638   19.7500 C   0  0  0  0  0  0  0  0  0  0  0  0
    7.4270  -14.0116   21.1026 C   0  0  2  0  0  0  0  0  0  0  0  0
    7.5508  -12.9227   22.1384 C   0  0  0  0  0  0  0  0  0  0  0  0
    8.7004  -14.8332   20.9884 C   0  0  2  0  0  0  0  0  0  0  0  0
    8.5148  -15.9992   20.1467 N   0  0  0  0  0  0  0  0  0  0  0  0
    9.0234  -15.3350   22.3514 C   0  0  0  0  0  0  0  0  0  0  0  0
    9.7803  -14.4855   23.1599 O   0  0  0  0  0  0  0  0  0  0  0  0
    8.6597  -16.4409   22.7849 O   0  0  0  0  0  0  0  0  0  0  0  0
  2  3  1  0
  2  1  1  0
  3  4  1  6
  5  6  2  0
  5  3  1  0
  7  5  1  0
  8  7  1  0
  8 15  1  0
  8  9  1  1
 10  9  1  0
 11 10  2  0
 12 13  1  0
 12 11  1  0
 13 14  2  0
 14 10  1  0
 15 21  1  0
 16 15  2  0
 18 17  1  6
 18 20  1  0
 19 18  1  0
 20 22  1  0
 20 21  1  6
 22 24  2  0
 22 23  1  0
M  END
$$$$
