SHV.pdb
     RDKit          3D

 24 24  0  0  1  0  0  0  0  0999 V2000
   10.8574  -16.4841   13.1294 O   0  0  0  0  0  0  0  0  0  0  0  0
    9.9794  -16.5206   14.2278 C   0  0  0  0  0  0  0  0  0  0  0  0
   10.1989  -17.8086   15.0081 C   0  0  2  0  0  0  0  0  0  0  0  0
    9.9201  -18.9111   14.1401 N   0  0  0  0  0  0  0  0  0  0  0  0
    9.3626  -17.8057   16.2391 C   0  0  0  0  0  0  0  0  0  0  0  0
    8.1557  -18.0833   16.1436 O   0  0  0  0  0  0  0  0  0  0  0  0
    9.9086  -17.4941   17.5198 N   0  0  0  0  0  0  0  0  0  0  0  0
    9.1524  -17.5260   18.7468 C   0  0  1  0  0  0  0  0  0  0  0  0
    9.0393  -18.8399   19.4071 C   0  0  0  0  0  0  0  0  0  0  0  0
   10.2930  -19.5123   19.7595 C   0  0  0  0  0  0  0  0  0  0  0  0
   11.4514  -19.5513   19.0277 C   0  0  0  0  0  0  0  0  0  0  0  0
   12.3543  -20.2914   19.6950 N   0  0  0  0  0  0  0  0  0  0  0  0
   11.7994  -20.7200   20.8244 C   0  0  0  0  0  0  0  0  0  0  0  0
   10.5481  -20.2517   20.8716 N   0  0  0  0  0  0  0  0  0  0  0  0
    9.5894  -16.4432   19.6811 C   0  0  0  0  0  0  0  0  0  0  0  0
   10.7765  -16.0422   19.7052 O   0  0  0  0  0  0  0  0  0  0  0  0
    6.6978  -14.4136   22.1617 C   0  0  0  0  0  0  0  0  0  0  0  0
    7.9630  -13.7359   21.6768 C   0  0  2  0  0  0  0  0  0  0  0  0
    7.7254  -12.9236   20.4287 C   0  0  0  0  0  0  0  0  0  0  0  0
    9.0783  -14.7510   21.4891 C   0  0  2  0  0  0  0  0  0  0  0  0
    8.6902  -15.8156   20.5844 N   0  0  0  0  0  0  0  0  0  0  0  0
    9.3254  -15.3823   22.8136 C   0  0  0  0  0  0  0  0  0  0  0  0
   10.0248  -14.6126   23.7446 O   0  0  0  0  0  0  0  0  0  0  0  0
    8.9481  -16.5269   23.1149 O   0  0  0  0  0  0  0  0  0  0  0  0
  2  3  1  0
  2  1  1  0
  3  4  1  6
  5  6  2  0
  5  3  1  0
  7  5  1  0
  8  7  1  0
  8 15  1  0
  8  9  1  1
 10  9  1  0
 11 10  2  0
 12 13  1  0
 12 11  1  0
 13 14  2  0
 14 10  1  0
 15 21  1  0
 16 15  2  0
 18 17  1  6
 18 20  1  0
 19 18  1  0
 20 22  1  0
 20 21  1  6
 22 24  2  0
 22 23  1  0
M  END
$$$$
