IDK.pdb
     RDKit          3D

 26 25  0  0  1  0  0  0  0  0999 V2000
    7.6126  -12.0110   18.7379 C   0  0  0  0  0  0  0  0  0  0  0  0
    8.0398  -13.4274   18.5304 C   0  0  0  0  0  0  0  0  0  0  0  0
    8.2965  -14.1932   19.7842 C   0  0  2  0  0  0  0  0  0  0  0  0
    9.3463  -13.4852   20.5878 C   0  0  0  0  0  0  0  0  0  0  0  0
    8.6327  -15.6454   19.5464 C   0  0  2  0  0  0  0  0  0  0  0  0
    7.5536  -16.2203   18.7862 N   0  0  0  0  0  0  0  0  0  0  0  0
    8.7906  -16.4005   20.8023 C   0  0  0  0  0  0  0  0  0  0  0  0
    7.8057  -16.7483   21.4922 O   0  0  0  0  0  0  0  0  0  0  0  0
   10.0814  -16.7556   21.2646 N   0  0  0  0  0  0  0  0  0  0  0  0
   10.2321  -17.4804   22.4849 C   0  0  1  0  0  0  0  0  0  0  0  0
   11.4577  -18.3159   22.5931 C   0  0  0  0  0  0  0  0  0  0  0  0
   12.6848  -17.6836   22.0630 C   0  0  0  0  0  0  0  0  0  0  0  0
   13.0828  -16.5954   22.5558 O   0  0  0  0  0  0  0  0  0  0  0  0
   10.2079  -16.5281   23.6572 C   0  0  0  0  0  0  0  0  0  0  0  0
   10.6808  -15.3600   23.4995 O   0  0  0  0  0  0  0  0  0  0  0  0
   13.4492  -18.2131   21.0396 O   0  0  0  0  0  0  0  0  0  0  0  0
    9.6851  -16.8975   24.8988 N   0  0  0  0  0  0  0  0  0  0  0  0
    9.4671  -15.9285   26.0167 C   0  0  1  0  0  0  0  0  0  0  0  0
    8.2277  -15.2318   25.6570 C   0  0  0  0  0  0  0  0  0  0  0  0
    7.5959  -14.1881   26.4545 C   0  0  0  0  0  0  0  0  0  0  0  0
    6.7862  -13.1118   25.8398 C   0  0  0  0  0  0  0  0  0  0  0  0
    6.3867  -12.1567   27.0195 C   0  0  0  0  0  0  0  0  0  0  0  0
    5.5066  -11.1459   26.4656 N   0  0  0  0  0  0  0  0  0  0  0  0
    9.5774  -16.7031   27.2314 C   0  0  0  0  0  0  0  0  0  0  0  0
   10.0162  -16.3012   28.4846 O   0  0  0  0  0  0  0  0  0  0  0  0
    9.2435  -17.9479   27.2159 O   0  0  0  0  0  0  0  0  0  0  0  0
  1  2  1  0
  3  4  1  6
  3  2  1  0
  5  3  1  0
  5  6  1  6
  7  5  1  0
  8  7  2  0
  9  7  1  0
 10  9  1  0
 10 14  1  0
 10 11  1  6
 12 11  1  0
 13 12  2  0
 14 15  2  0
 14 17  1  0
 16 12  1  0
 17 18  1  0
 18 19  1  6
 19 20  1  0
 21 20  1  0
 22 21  1  0
 23 22  1  0
 24 18  1  0
 24 25  1  0
 26 24  2  0
M  END
$$$$
