IDK.pdb
     RDKit          3D

 26 25  0  0  1  0  0  0  0  0999 V2000
    7.9161  -13.5187   22.2486 C   0  0  0  0  0  0  0  0  0  0  0  0
    7.7465  -14.4987   21.1338 C   0  0  0  0  0  0  0  0  0  0  0  0
    8.0465  -13.9594   19.7760 C   0  0  2  0  0  0  0  0  0  0  0  0
    7.1029  -12.8336   19.4736 C   0  0  0  0  0  0  0  0  0  0  0  0
    8.0530  -15.0135   18.6957 C   0  0  2  0  0  0  0  0  0  0  0  0
    6.7421  -15.6080   18.6635 N   0  0  0  0  0  0  0  0  0  0  0  0
    9.0524  -16.0682   18.9432 C   0  0  0  0  0  0  0  0  0  0  0  0
    9.1335  -17.0849   18.2174 O   0  0  0  0  0  0  0  0  0  0  0  0
    9.9587  -15.9534   20.0256 N   0  0  0  0  0  0  0  0  0  0  0  0
   11.0423  -16.8734   20.1545 C   0  0  1  0  0  0  0  0  0  0  0  0
   11.8861  -17.0518   18.9428 C   0  0  0  0  0  0  0  0  0  0  0  0
   12.9270  -18.0951   19.0635 C   0  0  0  0  0  0  0  0  0  0  0  0
   13.9338  -17.8839   19.7897 O   0  0  0  0  0  0  0  0  0  0  0  0
   11.9406  -16.4563   21.2951 C   0  0  0  0  0  0  0  0  0  0  0  0
   12.4298  -15.2842   21.2844 O   0  0  0  0  0  0  0  0  0  0  0  0
   12.8754  -19.3190   18.4220 O   0  0  0  0  0  0  0  0  0  0  0  0
   12.2451  -17.3200   22.3498 N   0  0  0  0  0  0  0  0  0  0  0  0
   12.6353  -16.8429   23.7123 C   0  0  1  0  0  0  0  0  0  0  0  0
   11.9376  -17.7509   24.6286 C   0  0  0  0  0  0  0  0  0  0  0  0
   12.0266  -17.6994   26.0826 C   0  0  0  0  0  0  0  0  0  0  0  0
   11.3499  -18.6932   26.9466 C   0  0  0  0  0  0  0  0  0  0  0  0
   11.7925  -18.3499   28.4128 C   0  0  0  0  0  0  0  0  0  0  0  0
   11.1245  -19.2939   29.2880 N   0  0  0  0  0  0  0  0  0  0  0  0
   14.0766  -16.7439   23.6930 C   0  0  0  0  0  0  0  0  0  0  0  0
   14.9985  -17.5675   23.0632 O   0  0  0  0  0  0  0  0  0  0  0  0
   14.6497  -15.7839   24.3343 O   0  0  0  0  0  0  0  0  0  0  0  0
  1  2  1  0
  3  4  1  6
  3  2  1  0
  5  3  1  0
  5  6  1  1
  7  5  1  0
  8  7  2  0
  9  7  1  0
 10  9  1  0
 10 14  1  0
 10 11  1  6
 12 11  1  0
 13 12  2  0
 14 15  2  0
 14 17  1  0
 16 12  1  0
 17 18  1  0
 18 19  1  1
 19 20  1  0
 21 20  1  0
 22 21  1  0
 23 22  1  0
 24 18  1  0
 24 25  1  0
 26 24  2  0
M  END
$$$$
