IDK.pdb
     RDKit          3D

 26 25  0  0  1  0  0  0  0  0999 V2000
    7.0119  -12.5636   17.7942 C   0  0  0  0  0  0  0  0  0  0  0  0
    8.3685  -13.0296   18.2117 C   0  0  0  0  0  0  0  0  0  0  0  0
    8.3830  -13.9201   19.4080 C   0  0  2  0  0  0  0  0  0  0  0  0
    7.6655  -13.2411   20.5364 C   0  0  0  0  0  0  0  0  0  0  0  0
    9.7653  -14.3839   19.7985 C   0  0  2  0  0  0  0  0  0  0  0  0
   10.3752  -14.9592   18.6280 N   0  0  0  0  0  0  0  0  0  0  0  0
    9.7389  -15.3940   20.8716 C   0  0  0  0  0  0  0  0  0  0  0  0
    9.1080  -15.2095   21.9369 O   0  0  0  0  0  0  0  0  0  0  0  0
   10.4381  -16.6162   20.7191 N   0  0  0  0  0  0  0  0  0  0  0  0
   10.4160  -17.5902   21.7623 C   0  0  1  0  0  0  0  0  0  0  0  0
   11.3077  -18.7647   21.5688 C   0  0  0  0  0  0  0  0  0  0  0  0
   11.2687  -19.3527   20.2127 C   0  0  0  0  0  0  0  0  0  0  0  0
   10.1738  -19.4077   19.5931 O   0  0  0  0  0  0  0  0  0  0  0  0
   10.7709  -16.9431   23.0803 C   0  0  0  0  0  0  0  0  0  0  0  0
   11.7929  -16.1908   23.1307 O   0  0  0  0  0  0  0  0  0  0  0  0
   12.3749  -19.8594   19.5557 O   0  0  0  0  0  0  0  0  0  0  0  0
   10.0115  -17.1514   24.2340 N   0  0  0  0  0  0  0  0  0  0  0  0
   10.2330  -16.3988   25.5071 C   0  0  1  0  0  0  0  0  0  0  0  0
    9.0915  -15.4817   25.5902 C   0  0  0  0  0  0  0  0  0  0  0  0
    8.8691  -14.5219   26.6644 C   0  0  0  0  0  0  0  0  0  0  0  0
    7.6687  -13.6564   26.7081 C   0  0  0  0  0  0  0  0  0  0  0  0
    7.8524  -12.7419   27.9705 C   0  0  0  0  0  0  0  0  0  0  0  0
    6.6595  -11.9242   28.0773 N   0  0  0  0  0  0  0  0  0  0  0  0
   10.4747  -17.4033   26.5170 C   0  0  0  0  0  0  0  0  0  0  0  0
   10.2839  -18.7756   26.4447 O   0  0  0  0  0  0  0  0  0  0  0  0
   10.9247  -17.0412   27.6693 O   0  0  0  0  0  0  0  0  0  0  0  0
  1  2  1  0
  3  4  1  1
  3  2  1  0
  5  3  1  0
  5  6  1  6
  7  5  1  0
  8  7  2  0
  9  7  1  0
 10  9  1  0
 10 14  1  0
 10 11  1  6
 12 11  1  0
 13 12  2  0
 14 15  2  0
 14 17  1  0
 16 12  1  0
 17 18  1  0
 18 19  1  1
 19 20  1  0
 21 20  1  0
 22 21  1  0
 23 22  1  0
 24 18  1  0
 24 25  1  0
 26 24  2  0
M  END
$$$$
