IDK.pdb
     RDKit          3D

 26 25  0  0  1  0  0  0  0  0999 V2000
    8.3458  -11.8577   19.0222 C   0  0  0  0  0  0  0  0  0  0  0  0
    7.7426  -13.2242   19.0498 C   0  0  0  0  0  0  0  0  0  0  0  0
    8.4409  -14.1981   19.9376 C   0  0  2  0  0  0  0  0  0  0  0  0
    9.9027  -14.2098   19.6026 C   0  0  0  0  0  0  0  0  0  0  0  0
    7.8321  -15.5791   19.9155 C   0  0  2  0  0  0  0  0  0  0  0  0
    6.4043  -15.4240   20.0160 N   0  0  0  0  0  0  0  0  0  0  0  0
    8.3031  -16.4208   21.0300 C   0  0  0  0  0  0  0  0  0  0  0  0
    8.0787  -16.1213   22.2246 O   0  0  0  0  0  0  0  0  0  0  0  0
    9.0321  -17.6070   20.7705 N   0  0  0  0  0  0  0  0  0  0  0  0
    9.6260  -18.3338   21.8458 C   0  0  1  0  0  0  0  0  0  0  0  0
    9.3449  -19.7940   21.8720 C   0  0  0  0  0  0  0  0  0  0  0  0
    9.0985  -20.3991   20.5455 C   0  0  0  0  0  0  0  0  0  0  0  0
    9.0678  -19.6621   19.5250 O   0  0  0  0  0  0  0  0  0  0  0  0
   11.1246  -18.1442   21.8314 C   0  0  0  0  0  0  0  0  0  0  0  0
   11.7910  -18.6533   20.8776 O   0  0  0  0  0  0  0  0  0  0  0  0
    8.8949  -21.7507   20.3362 O   0  0  0  0  0  0  0  0  0  0  0  0
   11.7890  -17.4316   22.8323 N   0  0  0  0  0  0  0  0  0  0  0  0
   13.2561  -17.1440   22.7965 C   0  0  1  0  0  0  0  0  0  0  0  0
   13.3602  -15.8779   22.0636 C   0  0  0  0  0  0  0  0  0  0  0  0
   14.2465  -15.6401   20.9311 C   0  0  0  0  0  0  0  0  0  0  0  0
   14.0986  -14.4573   20.0530 C   0  0  0  0  0  0  0  0  0  0  0  0
   15.2072  -14.6067   18.9520 C   0  0  0  0  0  0  0  0  0  0  0  0
   15.0746  -13.4698   18.0615 N   0  0  0  0  0  0  0  0  0  0  0  0
   13.7118  -17.2705   24.1617 C   0  0  0  0  0  0  0  0  0  0  0  0
   14.9993  -17.4774   24.6353 O   0  0  0  0  0  0  0  0  0  0  0  0
   12.8537  -17.1960   25.1207 O   0  0  0  0  0  0  0  0  0  0  0  0
  1  2  1  0
  3  4  1  6
  3  2  1  0
  5  3  1  0
  5  6  1  1
  7  5  1  0
  8  7  2  0
  9  7  1  0
 10  9  1  0
 10 14  1  0
 10 11  1  6
 12 11  1  0
 13 12  2  0
 14 15  2  0
 14 17  1  0
 16 12  1  0
 17 18  1  0
 18 19  1  1
 19 20  1  0
 21 20  1  0
 22 21  1  0
 23 22  1  0
 24 18  1  0
 24 25  1  0
 26 24  2  0
M  END
$$$$
