IDK.pdb
     RDKit          3D

 26 25  0  0  1  0  0  0  0  0999 V2000
    7.4364  -12.0363   20.3750 C   0  0  0  0  0  0  0  0  0  0  0  0
    7.7407  -13.1676   19.4479 C   0  0  0  0  0  0  0  0  0  0  0  0
    8.5392  -14.2732   20.0515 C   0  0  2  0  0  0  0  0  0  0  0  0
    9.7716  -13.7011   20.6864 C   0  0  0  0  0  0  0  0  0  0  0  0
    8.8525  -15.3891   19.0845 C   0  0  2  0  0  0  0  0  0  0  0  0
    7.6012  -15.8712   18.5603 N   0  0  0  0  0  0  0  0  0  0  0  0
    9.5668  -16.5073   19.7263 C   0  0  0  0  0  0  0  0  0  0  0  0
    8.9600  -17.4098   20.3461 O   0  0  0  0  0  0  0  0  0  0  0  0
   10.9790  -16.5874   19.6549 N   0  0  0  0  0  0  0  0  0  0  0  0
   11.6675  -17.6776   20.2671 C   0  0  1  0  0  0  0  0  0  0  0  0
   12.8617  -18.1797   19.5365 C   0  0  0  0  0  0  0  0  0  0  0  0
   12.5894  -18.6601   18.1648 C   0  0  0  0  0  0  0  0  0  0  0  0
   11.5507  -19.3357   17.9404 O   0  0  0  0  0  0  0  0  0  0  0  0
   12.0974  -17.2972   21.6644 C   0  0  0  0  0  0  0  0  0  0  0  0
   12.5032  -16.1118   21.8724 O   0  0  0  0  0  0  0  0  0  0  0  0
   13.4119  -18.4153   17.0805 O   0  0  0  0  0  0  0  0  0  0  0  0
   12.0619  -18.2086   22.7223 N   0  0  0  0  0  0  0  0  0  0  0  0
   12.4559  -17.8554   24.1210 C   0  0  1  0  0  0  0  0  0  0  0  0
   11.7122  -18.8026   24.9580 C   0  0  0  0  0  0  0  0  0  0  0  0
   11.8467  -18.9215   26.4045 C   0  0  0  0  0  0  0  0  0  0  0  0
   11.0533  -19.8942   27.1897 C   0  0  0  0  0  0  0  0  0  0  0  0
   11.3760  -19.5864   28.6945 C   0  0  0  0  0  0  0  0  0  0  0  0
   10.5312  -20.4529   29.4938 N   0  0  0  0  0  0  0  0  0  0  0  0
   13.9002  -17.8143   24.1207 C   0  0  0  0  0  0  0  0  0  0  0  0
   14.7489  -16.9919   24.8473 O   0  0  0  0  0  0  0  0  0  0  0  0
   14.5523  -18.6235   23.3583 O   0  0  0  0  0  0  0  0  0  0  0  0
  1  2  1  0
  3  4  1  6
  3  2  1  0
  5  3  1  0
  5  6  1  1
  7  5  1  0
  8  7  2  0
  9  7  1  0
 10  9  1  0
 10 14  1  0
 10 11  1  6
 12 11  1  0
 13 12  2  0
 14 15  2  0
 14 17  1  0
 16 12  1  0
 17 18  1  0
 18 19  1  1
 19 20  1  0
 21 20  1  0
 22 21  1  0
 23 22  1  0
 24 18  1  0
 24 25  1  0
 26 24  2  0
M  END
$$$$
