IDK.pdb
     RDKit          3D

 26 25  0  0  1  0  0  0  0  0999 V2000
    6.4728  -11.5738   26.6552 C   0  0  0  0  0  0  0  0  0  0  0  0
    5.9647  -12.7428   25.8759 C   0  0  0  0  0  0  0  0  0  0  0  0
    7.0245  -13.6422   25.3352 C   0  0  2  0  0  0  0  0  0  0  0  0
    7.9632  -12.8408   24.4833 C   0  0  0  0  0  0  0  0  0  0  0  0
    6.4800  -14.8515   24.6145 C   0  0  2  0  0  0  0  0  0  0  0  0
    5.5991  -15.5368   25.5241 N   0  0  0  0  0  0  0  0  0  0  0  0
    7.5429  -15.7782   24.1857 C   0  0  0  0  0  0  0  0  0  0  0  0
    7.9542  -16.6997   24.9265 O   0  0  0  0  0  0  0  0  0  0  0  0
    8.1325  -15.6451   22.9049 N   0  0  0  0  0  0  0  0  0  0  0  0
    9.2248  -16.4827   22.5275 C   0  0  1  0  0  0  0  0  0  0  0  0
    9.6819  -16.3528   21.1182 C   0  0  0  0  0  0  0  0  0  0  0  0
   10.7905  -17.2564   20.7428 C   0  0  0  0  0  0  0  0  0  0  0  0
   10.9586  -18.3285   21.3817 O   0  0  0  0  0  0  0  0  0  0  0  0
   10.4082  -16.2259   23.4306 C   0  0  0  0  0  0  0  0  0  0  0  0
   10.9037  -15.0570   23.4633 O   0  0  0  0  0  0  0  0  0  0  0  0
   11.6799  -17.0060   19.7140 O   0  0  0  0  0  0  0  0  0  0  0  0
   10.9667  -17.2330   24.2213 N   0  0  0  0  0  0  0  0  0  0  0  0
   11.8627  -16.9572   25.3863 C   0  0  1  0  0  0  0  0  0  0  0  0
   10.9439  -16.6314   26.4820 C   0  0  0  0  0  0  0  0  0  0  0  0
   11.3340  -16.0069   27.7399 C   0  0  0  0  0  0  0  0  0  0  0  0
   10.3450  -15.6668   28.7878 C   0  0  0  0  0  0  0  0  0  0  0  0
   11.1793  -15.0908   29.9860 C   0  0  0  0  0  0  0  0  0  0  0  0
   10.2291  -14.6272   30.9786 N   0  0  0  0  0  0  0  0  0  0  0  0
   12.7636  -18.0844   25.4608 C   0  0  0  0  0  0  0  0  0  0  0  0
   13.9823  -18.1843   26.1162 O   0  0  0  0  0  0  0  0  0  0  0  0
   12.4550  -19.1775   24.8516 O   0  0  0  0  0  0  0  0  0  0  0  0
  1  2  1  0
  3  4  1  6
  3  2  1  0
  5  3  1  0
  5  6  1  1
  7  5  1  0
  8  7  2  0
  9  7  1  0
 10  9  1  0
 10 14  1  0
 10 11  1  6
 12 11  1  0
 13 12  2  0
 14 15  2  0
 14 17  1  0
 16 12  1  0
 17 18  1  0
 18 19  1  1
 19 20  1  0
 21 20  1  0
 22 21  1  0
 23 22  1  0
 24 18  1  0
 24 25  1  0
 26 24  2  0
M  END
$$$$
