IDK.pdb
     RDKit          3D

 26 25  0  0  1  0  0  0  0  0999 V2000
    7.5030  -11.7532   20.2682 C   0  0  0  0  0  0  0  0  0  0  0  0
    7.6395  -12.9393   19.3702 C   0  0  0  0  0  0  0  0  0  0  0  0
    8.5616  -13.9995   19.8704 C   0  0  2  0  0  0  0  0  0  0  0  0
    9.9031  -13.3920   20.1539 C   0  0  0  0  0  0  0  0  0  0  0  0
    8.6518  -15.1998   18.9597 C   0  0  2  0  0  0  0  0  0  0  0  0
    7.3179  -15.7136   18.7879 N   0  0  0  0  0  0  0  0  0  0  0  0
    9.5086  -16.2640   19.5128 C   0  0  0  0  0  0  0  0  0  0  0  0
    9.0737  -17.1014   20.3354 O   0  0  0  0  0  0  0  0  0  0  0  0
   10.8654  -16.3650   19.1195 N   0  0  0  0  0  0  0  0  0  0  0  0
   11.7071  -17.3631   19.6963 C   0  0  1  0  0  0  0  0  0  0  0  0
   12.8989  -17.7462   18.8934 C   0  0  0  0  0  0  0  0  0  0  0  0
   12.5955  -18.2257   17.5280 C   0  0  0  0  0  0  0  0  0  0  0  0
   11.8037  -19.1925   17.3732 O   0  0  0  0  0  0  0  0  0  0  0  0
   12.1827  -16.9135   21.0577 C   0  0  0  0  0  0  0  0  0  0  0  0
   12.6306  -15.7318   21.1838 O   0  0  0  0  0  0  0  0  0  0  0  0
   13.1297  -17.6759   16.3771 O   0  0  0  0  0  0  0  0  0  0  0  0
   12.1441  -17.7577   22.1700 N   0  0  0  0  0  0  0  0  0  0  0  0
   12.5267  -17.3164   23.5466 C   0  0  1  0  0  0  0  0  0  0  0  0
   11.8316  -18.2539   24.4348 C   0  0  0  0  0  0  0  0  0  0  0  0
   12.0769  -18.3851   25.8656 C   0  0  0  0  0  0  0  0  0  0  0  0
   11.4293  -19.4382   26.6801 C   0  0  0  0  0  0  0  0  0  0  0  0
   11.8301  -19.1301   28.1660 C   0  0  0  0  0  0  0  0  0  0  0  0
   11.0943  -20.0578   29.0034 N   0  0  0  0  0  0  0  0  0  0  0  0
   13.9674  -17.2079   23.5351 C   0  0  0  0  0  0  0  0  0  0  0  0
   14.8847  -17.8662   22.7289 O   0  0  0  0  0  0  0  0  0  0  0  0
   14.5448  -16.4112   24.3677 O   0  0  0  0  0  0  0  0  0  0  0  0
  1  2  1  0
  3  4  1  6
  3  2  1  0
  5  3  1  0
  5  6  1  1
  7  5  1  0
  8  7  2  0
  9  7  1  0
 10  9  1  0
 10 14  1  0
 10 11  1  6
 12 11  1  0
 13 12  2  0
 14 15  2  0
 14 17  1  0
 16 12  1  0
 17 18  1  0
 18 19  1  1
 19 20  1  0
 21 20  1  0
 22 21  1  0
 23 22  1  0
 24 18  1  0
 24 25  1  0
 26 24  2  0
M  END
$$$$
