IDK.pdb
     RDKit          3D

 26 25  0  0  1  0  0  0  0  0999 V2000
    6.6242  -12.1717   20.4179 C   0  0  0  0  0  0  0  0  0  0  0  0
    7.2111  -13.4238   19.8525 C   0  0  0  0  0  0  0  0  0  0  0  0
    7.9085  -14.2913   20.8453 C   0  0  2  0  0  0  0  0  0  0  0  0
    8.9479  -13.4822   21.5623 C   0  0  0  0  0  0  0  0  0  0  0  0
    8.4726  -15.5580   20.2490 C   0  0  2  0  0  0  0  0  0  0  0  0
    7.3939  -16.2398   19.5821 N   0  0  0  0  0  0  0  0  0  0  0  0
    9.0488  -16.4531   21.2684 C   0  0  0  0  0  0  0  0  0  0  0  0
    8.3961  -17.4018   21.7593 O   0  0  0  0  0  0  0  0  0  0  0  0
   10.3758  -16.2571   21.7229 N   0  0  0  0  0  0  0  0  0  0  0  0
   10.9978  -17.2301   22.5617 C   0  0  1  0  0  0  0  0  0  0  0  0
   12.4599  -17.4153   22.3622 C   0  0  0  0  0  0  0  0  0  0  0  0
   12.8494  -17.8278   20.9967 C   0  0  0  0  0  0  0  0  0  0  0  0
   12.1247  -18.6416   20.3656 O   0  0  0  0  0  0  0  0  0  0  0  0
   10.7618  -16.8865   24.0136 C   0  0  0  0  0  0  0  0  0  0  0  0
   11.1837  -17.6890   24.9030 O   0  0  0  0  0  0  0  0  0  0  0  0
   13.9798  -17.3734   20.3427 O   0  0  0  0  0  0  0  0  0  0  0  0
   10.0958  -15.7205   24.3983 N   0  0  0  0  0  0  0  0  0  0  0  0
    9.6041  -15.4793   25.7898 C   0  0  1  0  0  0  0  0  0  0  0  0
    8.2646  -14.9104   25.6083 C   0  0  0  0  0  0  0  0  0  0  0  0
    7.6605  -13.9059   26.4747 C   0  0  0  0  0  0  0  0  0  0  0  0
    7.1756  -12.6080   25.9529 C   0  0  0  0  0  0  0  0  0  0  0  0
    6.7452  -11.7792   27.2144 C   0  0  0  0  0  0  0  0  0  0  0  0
    6.2689  -10.4961   26.7350 N   0  0  0  0  0  0  0  0  0  0  0  0
    9.8116  -16.7218   26.4976 C   0  0  0  0  0  0  0  0  0  0  0  0
   10.1450  -16.9210   27.8294 O   0  0  0  0  0  0  0  0  0  0  0  0
    9.6912  -17.8360   25.8609 O   0  0  0  0  0  0  0  0  0  0  0  0
  1  2  1  0
  3  4  1  6
  3  2  1  0
  5  3  1  0
  5  6  1  1
  7  5  1  0
  8  7  2  0
  9  7  1  0
 10  9  1  0
 10 14  1  0
 10 11  1  1
 12 11  1  0
 13 12  2  0
 14 15  2  0
 14 17  1  0
 16 12  1  0
 17 18  1  0
 18 19  1  6
 19 20  1  0
 21 20  1  0
 22 21  1  0
 23 22  1  0
 24 18  1  0
 24 25  1  0
 26 24  2  0
M  END
$$$$
