IDK.pdb
     RDKit          3D

 26 25  0  0  1  0  0  0  0  0999 V2000
    7.1395  -11.9893   19.7782 C   0  0  0  0  0  0  0  0  0  0  0  0
    7.9444  -12.9372   18.9502 C   0  0  0  0  0  0  0  0  0  0  0  0
    8.5390  -14.0776   19.7055 C   0  0  2  0  0  0  0  0  0  0  0  0
    9.3382  -13.5430   20.8564 C   0  0  0  0  0  0  0  0  0  0  0  0
    9.3343  -15.0251   18.8407 C   0  0  2  0  0  0  0  0  0  0  0  0
    8.4587  -15.5003   17.8012 N   0  0  0  0  0  0  0  0  0  0  0  0
    9.8518  -16.1794   19.5972 C   0  0  0  0  0  0  0  0  0  0  0  0
    9.1581  -17.2017   19.7989 O   0  0  0  0  0  0  0  0  0  0  0  0
   11.1673  -16.1577   20.1216 N   0  0  0  0  0  0  0  0  0  0  0  0
   11.6674  -17.2782   20.8507 C   0  0  1  0  0  0  0  0  0  0  0  0
   13.1403  -17.4778   20.7986 C   0  0  0  0  0  0  0  0  0  0  0  0
   13.6621  -17.8826   19.4756 C   0  0  0  0  0  0  0  0  0  0  0  0
   13.0983  -18.8169   18.8473 O   0  0  0  0  0  0  0  0  0  0  0  0
   11.2586  -17.1745   22.3012 C   0  0  0  0  0  0  0  0  0  0  0  0
   11.3202  -16.0401   22.8689 O   0  0  0  0  0  0  0  0  0  0  0  0
   14.7518  -17.2950   18.8596 O   0  0  0  0  0  0  0  0  0  0  0  0
   10.8207  -18.2849   23.0267 N   0  0  0  0  0  0  0  0  0  0  0  0
   10.4082  -18.2143   24.4624 C   0  0  1  0  0  0  0  0  0  0  0  0
    9.3067  -19.1765   24.5715 C   0  0  0  0  0  0  0  0  0  0  0  0
    8.5976  -19.4962   25.8042 C   0  0  0  0  0  0  0  0  0  0  0  0
    7.4315  -20.4082   25.8254 C   0  0  0  0  0  0  0  0  0  0  0  0
    7.0102  -20.5212   27.3331 C   0  0  0  0  0  0  0  0  0  0  0  0
    5.9458  -21.5038   27.4022 N   0  0  0  0  0  0  0  0  0  0  0  0
   11.6257  -18.3645   25.2258 C   0  0  0  0  0  0  0  0  0  0  0  0
   11.8890  -17.9772   26.5317 O   0  0  0  0  0  0  0  0  0  0  0  0
   12.6488  -18.9222   24.6748 O   0  0  0  0  0  0  0  0  0  0  0  0
  1  2  1  0
  3  4  1  1
  3  2  1  0
  5  3  1  0
  5  6  1  6
  7  5  1  0
  8  7  2  0
  9  7  1  0
 10  9  1  0
 10 14  1  0
 10 11  1  1
 12 11  1  0
 13 12  2  0
 14 15  2  0
 14 17  1  0
 16 12  1  0
 17 18  1  0
 18 19  1  1
 19 20  1  0
 21 20  1  0
 22 21  1  0
 23 22  1  0
 24 18  1  0
 24 25  1  0
 26 24  2  0
M  END
$$$$
