IDK.pdb
     RDKit          3D

 26 25  0  0  1  0  0  0  0  0999 V2000
    7.7561  -11.8496   19.8481 C   0  0  0  0  0  0  0  0  0  0  0  0
    8.7317  -12.8787   19.3779 C   0  0  0  0  0  0  0  0  0  0  0  0
    8.5115  -14.2470   19.9290 C   0  0  2  0  0  0  0  0  0  0  0  0
    8.5667  -14.1898   21.4265 C   0  0  0  0  0  0  0  0  0  0  0  0
    9.4446  -15.2859   19.3558 C   0  0  2  0  0  0  0  0  0  0  0  0
    9.4196  -15.1462   17.9231 N   0  0  0  0  0  0  0  0  0  0  0  0
    9.0455  -16.6595   19.7112 C   0  0  0  0  0  0  0  0  0  0  0  0
    8.2997  -17.3425   18.9734 O   0  0  0  0  0  0  0  0  0  0  0  0
    9.5044  -17.2476   20.9152 N   0  0  0  0  0  0  0  0  0  0  0  0
    9.8133  -18.6403   20.9610 C   0  0  1  0  0  0  0  0  0  0  0  0
   10.7972  -19.1175   19.9530 C   0  0  0  0  0  0  0  0  0  0  0  0
   10.2502  -20.0620   18.9553 C   0  0  0  0  0  0  0  0  0  0  0  0
   10.1275  -21.2784   19.2568 O   0  0  0  0  0  0  0  0  0  0  0  0
   10.3288  -19.0098   22.3320 C   0  0  0  0  0  0  0  0  0  0  0  0
   10.5929  -20.2286   22.5723 O   0  0  0  0  0  0  0  0  0  0  0  0
    9.8513  -19.6991   17.6820 O   0  0  0  0  0  0  0  0  0  0  0  0
   10.5186  -18.0538   23.3326 N   0  0  0  0  0  0  0  0  0  0  0  0
   11.2432  -18.3376   24.6096 C   0  0  1  0  0  0  0  0  0  0  0  0
   12.5900  -18.7313   24.1831 C   0  0  0  0  0  0  0  0  0  0  0  0
   13.5552  -19.4384   25.0156 C   0  0  0  0  0  0  0  0  0  0  0  0
   14.8892  -19.8330   24.5089 C   0  0  0  0  0  0  0  0  0  0  0  0
   15.6227  -20.5017   25.7247 C   0  0  0  0  0  0  0  0  0  0  0  0
   16.8786  -21.0264   25.2242 N   0  0  0  0  0  0  0  0  0  0  0  0
   11.0199  -17.1834   25.4495 C   0  0  0  0  0  0  0  0  0  0  0  0
   10.3394  -16.0105   25.1563 O   0  0  0  0  0  0  0  0  0  0  0  0
   11.4973  -17.1750   26.6467 O   0  0  0  0  0  0  0  0  0  0  0  0
  1  2  1  0
  3  4  1  1
  3  2  1  0
  5  3  1  0
  5  6  1  6
  7  5  1  0
  8  7  2  0
  9  7  1  0
 10  9  1  0
 10 14  1  0
 10 11  1  6
 12 11  1  0
 13 12  2  0
 14 15  2  0
 14 17  1  0
 16 12  1  0
 17 18  1  0
 18 19  1  6
 19 20  1  0
 21 20  1  0
 22 21  1  0
 23 22  1  0
 24 18  1  0
 24 25  1  0
 26 24  2  0
M  END
$$$$
