IDK.pdb
     RDKit          3D

 26 25  0  0  1  0  0  0  0  0999 V2000
    6.9423  -12.5142   18.7499 C   0  0  0  0  0  0  0  0  0  0  0  0
    8.4119  -12.7197   18.9234 C   0  0  0  0  0  0  0  0  0  0  0  0
    8.7833  -13.8449   19.8291 C   0  0  2  0  0  0  0  0  0  0  0  0
    8.0769  -13.6750   21.1410 C   0  0  0  0  0  0  0  0  0  0  0  0
   10.2734  -14.0204   19.9939 C   0  0  2  0  0  0  0  0  0  0  0  0
   10.8606  -13.9885   18.6796 N   0  0  0  0  0  0  0  0  0  0  0  0
   10.6223  -15.2960   20.6446 C   0  0  0  0  0  0  0  0  0  0  0  0
   10.0474  -15.6850   21.6863 O   0  0  0  0  0  0  0  0  0  0  0  0
   11.6323  -16.1242   20.0970 N   0  0  0  0  0  0  0  0  0  0  0  0
   11.8993  -17.4041   20.6698 C   0  0  1  0  0  0  0  0  0  0  0  0
   12.7060  -18.3313   19.8322 C   0  0  0  0  0  0  0  0  0  0  0  0
   12.2246  -18.4853   18.4426 C   0  0  0  0  0  0  0  0  0  0  0  0
   11.0365  -18.8477   18.2357 O   0  0  0  0  0  0  0  0  0  0  0  0
   12.6010  -17.2393   21.9973 C   0  0  0  0  0  0  0  0  0  0  0  0
   13.4778  -16.3275   22.1107 O   0  0  0  0  0  0  0  0  0  0  0  0
   13.0023  -18.2535   17.3230 O   0  0  0  0  0  0  0  0  0  0  0  0
   12.3137  -18.0584   23.0917 N   0  0  0  0  0  0  0  0  0  0  0  0
   12.9738  -17.9053   24.4248 C   0  0  1  0  0  0  0  0  0  0  0  0
   12.0261  -18.5043   25.3702 C   0  0  0  0  0  0  0  0  0  0  0  0
   12.2845  -18.7158   26.7891 C   0  0  0  0  0  0  0  0  0  0  0  0
   11.3249  -19.4260   27.6648 C   0  0  0  0  0  0  0  0  0  0  0  0
   12.0222  -19.5199   29.0678 C   0  0  0  0  0  0  0  0  0  0  0  0
   11.1847  -20.3615   29.9006 N   0  0  0  0  0  0  0  0  0  0  0  0
   14.3118  -18.4247   24.2593 C   0  0  0  0  0  0  0  0  0  0  0  0
   14.7806  -19.3473   23.3353 O   0  0  0  0  0  0  0  0  0  0  0  0
   15.2456  -18.0207   25.0506 O   0  0  0  0  0  0  0  0  0  0  0  0
  1  2  1  0
  3  4  1  1
  3  2  1  0
  5  3  1  0
  5  6  1  6
  7  5  1  0
  8  7  2  0
  9  7  1  0
 10  9  1  0
 10 14  1  0
 10 11  1  6
 12 11  1  0
 13 12  2  0
 14 15  2  0
 14 17  1  0
 16 12  1  0
 17 18  1  0
 18 19  1  1
 19 20  1  0
 21 20  1  0
 22 21  1  0
 23 22  1  0
 24 18  1  0
 24 25  1  0
 26 24  2  0
M  END
$$$$
