PWV.pdb
     RDKit          3D

 29 31  0  0  1  0  0  0  0  0999 V2000
    8.5627  -16.4660   19.9033 N   0  0  0  0  0  0  0  0  0  0  0  0
    8.5521  -16.4177   18.4522 C   0  0  0  0  0  0  0  0  0  0  0  0
    8.2958  -14.9216   18.2266 C   0  0  0  0  0  0  0  0  0  0  0  0
    8.8833  -14.2321   19.4562 C   0  0  0  0  0  0  0  0  0  0  0  0
    9.4552  -15.3752   20.2226 C   0  0  1  0  0  0  0  0  0  0  0  0
    9.5037  -15.1516   21.6847 C   0  0  0  0  0  0  0  0  0  0  0  0
   10.2465  -14.2430   22.1288 O   0  0  0  0  0  0  0  0  0  0  0  0
    8.7426  -15.9267   22.5893 N   0  0  0  0  0  0  0  0  0  0  0  0
    8.4411  -15.6138   23.9480 C   0  0  1  0  0  0  0  0  0  0  0  0
    7.1565  -16.1693   24.4535 C   0  0  0  0  0  0  0  0  0  0  0  0
    6.3895  -15.1244   25.2052 C   0  0  0  0  0  0  0  0  0  0  0  0
    5.2081  -15.3495   25.8746 C   0  0  0  0  0  0  0  0  0  0  0  0
    4.8297  -14.1814   26.4203 N   0  0  0  0  0  0  0  0  0  0  0  0
    5.7090  -13.2173   26.1348 C   0  0  0  0  0  0  0  0  0  0  0  0
    5.7863  -11.8667   26.4481 C   0  0  0  0  0  0  0  0  0  0  0  0
    6.8336  -11.0908   26.0088 C   0  0  0  0  0  0  0  0  0  0  0  0
    7.8110  -11.6898   25.2450 C   0  0  0  0  0  0  0  0  0  0  0  0
    7.7439  -13.0192   24.9311 C   0  0  0  0  0  0  0  0  0  0  0  0
    6.6878  -13.7946   25.3761 C   0  0  0  0  0  0  0  0  0  0  0  0
    9.5419  -15.9498   24.9088 C   0  0  0  0  0  0  0  0  0  0  0  0
   10.4716  -16.6819   24.5081 O   0  0  0  0  0  0  0  0  0  0  0  0
   11.6672  -15.3547   29.3523 C   0  0  0  0  0  0  0  0  0  0  0  0
   10.4849  -15.1586   28.4450 C   0  0  1  0  0  0  0  0  0  0  0  0
   10.1498  -13.7041   28.2252 C   0  0  0  0  0  0  0  0  0  0  0  0
   10.7150  -15.8024   27.1135 C   0  0  2  0  0  0  0  0  0  0  0  0
    9.5860  -15.4902   26.2260 N   0  0  0  0  0  0  0  0  0  0  0  0
   10.9085  -17.2741   27.2028 C   0  0  0  0  0  0  0  0  0  0  0  0
   12.1947  -17.7637   27.3119 O   0  0  0  0  0  0  0  0  0  0  0  0
    9.9648  -18.0966   27.1841 O   0  0  0  0  0  0  0  0  0  0  0  0
  1  5  1  0
  2  3  1  0
  2  1  1  0
  3  4  1  0
  4  5  1  0
  5  6  1  1
  6  8  1  0
  6  7  2  0
  8  9  1  0
  9 10  1  1
  9 20  1  0
 10 11  1  0
 11 19  1  0
 11 12  2  0
 12 13  1  0
 14 13  1  0
 14 15  2  0
 16 15  1  0
 17 16  2  0
 18 19  2  0
 18 17  1  0
 19 14  1  0
 20 26  1  0
 21 20  2  0
 23 22  1  1
 23 24  1  0
 25 23  1  0
 25 27  1  0
 25 26  1  6
 27 29  2  0
 27 28  1  0
M  END
$$$$
