PWV.pdb
     RDKit          3D

 29 31  0  0  1  0  0  0  0  0999 V2000
    9.2807  -17.4353   20.5665 N   0  0  0  0  0  0  0  0  0  0  0  0
    9.3809  -17.5835   19.1256 C   0  0  0  0  0  0  0  0  0  0  0  0
    9.0611  -16.1512   18.6769 C   0  0  0  0  0  0  0  0  0  0  0  0
    9.5118  -15.2658   19.8368 C   0  0  0  0  0  0  0  0  0  0  0  0
   10.0840  -16.2557   20.7927 C   0  0  1  0  0  0  0  0  0  0  0  0
   10.0058  -15.8347   22.2093 C   0  0  0  0  0  0  0  0  0  0  0  0
   10.5796  -14.7731   22.5528 O   0  0  0  0  0  0  0  0  0  0  0  0
    9.3078  -16.5889   23.1800 N   0  0  0  0  0  0  0  0  0  0  0  0
    8.9252  -16.1648   24.4872 C   0  0  1  0  0  0  0  0  0  0  0  0
    7.6334  -16.7176   24.9772 C   0  0  0  0  0  0  0  0  0  0  0  0
    6.5797  -15.6525   25.0026 C   0  0  0  0  0  0  0  0  0  0  0  0
    5.2701  -15.8367   24.6213 C   0  0  0  0  0  0  0  0  0  0  0  0
    4.6381  -14.6621   24.7841 N   0  0  0  0  0  0  0  0  0  0  0  0
    5.4763  -13.7329   25.2509 C   0  0  0  0  0  0  0  0  0  0  0  0
    5.3329  -12.3922   25.5829 C   0  0  0  0  0  0  0  0  0  0  0  0
    6.3950  -11.6557   26.0534 C   0  0  0  0  0  0  0  0  0  0  0  0
    7.6132  -12.2843   26.1883 C   0  0  0  0  0  0  0  0  0  0  0  0
    7.7647  -13.6043   25.8641 C   0  0  0  0  0  0  0  0  0  0  0  0
    6.6923  -14.3399   25.3912 C   0  0  0  0  0  0  0  0  0  0  0  0
    9.9834  -16.3725   25.5287 C   0  0  0  0  0  0  0  0  0  0  0  0
   11.0075  -17.0130   25.2096 O   0  0  0  0  0  0  0  0  0  0  0  0
   11.8104  -15.3125   30.0142 C   0  0  0  0  0  0  0  0  0  0  0  0
   10.7113  -15.1881   28.9965 C   0  0  1  0  0  0  0  0  0  0  0  0
   10.4814  -13.7644   28.5532 C   0  0  0  0  0  0  0  0  0  0  0  0
   10.9985  -16.0241   27.7886 C   0  0  2  0  0  0  0  0  0  0  0  0
    9.8881  -15.8903   26.8352 N   0  0  0  0  0  0  0  0  0  0  0  0
   11.2297  -17.4569   28.1124 C   0  0  0  0  0  0  0  0  0  0  0  0
   12.5269  -17.8863   28.3101 O   0  0  0  0  0  0  0  0  0  0  0  0
   10.3085  -18.2984   28.2157 O   0  0  0  0  0  0  0  0  0  0  0  0
  1  5  1  0
  2  3  1  0
  2  1  1  0
  3  4  1  0
  4  5  1  0
  5  6  1  1
  6  8  1  0
  6  7  2  0
  8  9  1  0
  9 10  1  1
  9 20  1  0
 10 11  1  0
 11 19  1  0
 11 12  2  0
 12 13  1  0
 14 13  1  0
 14 15  2  0
 16 15  1  0
 17 16  2  0
 18 19  2  0
 18 17  1  0
 19 14  1  0
 20 26  1  0
 21 20  2  0
 23 22  1  1
 23 24  1  0
 25 23  1  0
 25 27  1  0
 25 26  1  6
 27 29  2  0
 27 28  1  0
M  END
$$$$
