PWV.pdb
     RDKit          3D

 29 31  0  0  1  0  0  0  0  0999 V2000
    9.6383  -18.0155   19.9197 N   0  0  0  0  0  0  0  0  0  0  0  0
    9.7516  -18.4682   18.5448 C   0  0  0  0  0  0  0  0  0  0  0  0
    9.5863  -17.1366   17.8002 C   0  0  0  0  0  0  0  0  0  0  0  0
   10.1008  -16.0763   18.7716 C   0  0  0  0  0  0  0  0  0  0  0  0
   10.5516  -16.8958   19.9319 C   0  0  1  0  0  0  0  0  0  0  0  0
   10.4881  -16.1846   21.2281 C   0  0  0  0  0  0  0  0  0  0  0  0
   11.3216  -15.2746   21.4552 O   0  0  0  0  0  0  0  0  0  0  0  0
    9.5219  -16.4986   22.2111 N   0  0  0  0  0  0  0  0  0  0  0  0
    9.0636  -15.6558   23.2669 C   0  0  1  0  0  0  0  0  0  0  0  0
    7.6660  -15.1657   23.1217 C   0  0  0  0  0  0  0  0  0  0  0  0
    7.1012  -14.7799   24.4549 C   0  0  0  0  0  0  0  0  0  0  0  0
    6.6088  -15.6680   25.3840 C   0  0  0  0  0  0  0  0  0  0  0  0
    6.1965  -14.9505   26.4426 N   0  0  0  0  0  0  0  0  0  0  0  0
    6.3994  -13.6460   26.2398 C   0  0  0  0  0  0  0  0  0  0  0  0
    6.1574  -12.5087   26.9988 C   0  0  0  0  0  0  0  0  0  0  0  0
    6.4757  -11.2557   26.5289 C   0  0  0  0  0  0  0  0  0  0  0  0
    7.0442  -11.1553   25.2782 C   0  0  0  0  0  0  0  0  0  0  0  0
    7.2865  -12.2694   24.5230 C   0  0  0  0  0  0  0  0  0  0  0  0
    6.9641  -13.5272   25.0013 C   0  0  0  0  0  0  0  0  0  0  0  0
    9.2473  -16.2398   24.6354 C   0  0  0  0  0  0  0  0  0  0  0  0
    9.3731  -17.4787   24.7361 O   0  0  0  0  0  0  0  0  0  0  0  0
    9.0887  -14.1404   28.2814 C   0  0  0  0  0  0  0  0  0  0  0  0
   10.4216  -14.3633   27.6233 C   0  0  1  0  0  0  0  0  0  0  0  0
   11.5499  -14.4983   28.6158 C   0  0  0  0  0  0  0  0  0  0  0  0
   10.3977  -15.5843   26.7580 C   0  0  2  0  0  0  0  0  0  0  0  0
    9.2856  -15.4765   25.8034 N   0  0  0  0  0  0  0  0  0  0  0  0
   10.2894  -16.8477   27.5348 C   0  0  0  0  0  0  0  0  0  0  0  0
    9.1568  -17.6216   27.3786 O   0  0  0  0  0  0  0  0  0  0  0  0
   11.1727  -17.2493   28.3259 O   0  0  0  0  0  0  0  0  0  0  0  0
  1  5  1  0
  2  3  1  0
  2  1  1  0
  3  4  1  0
  4  5  1  0
  5  6  1  1
  6  8  1  0
  6  7  2  0
  8  9  1  0
  9 10  1  6
  9 20  1  0
 10 11  1  0
 11 19  1  0
 11 12  2  0
 12 13  1  0
 14 13  1  0
 14 15  2  0
 16 15  1  0
 17 16  2  0
 18 19  2  0
 18 17  1  0
 19 14  1  0
 20 26  1  0
 21 20  2  0
 23 22  1  1
 23 24  1  0
 25 23  1  0
 25 27  1  0
 25 26  1  6
 27 29  2  0
 27 28  1  0
M  END
$$$$
