PWV.pdb
     RDKit          3D

 29 31  0  0  1  0  0  0  0  0999 V2000
    8.8023  -15.5356   19.1989 N   0  0  0  0  0  0  0  0  0  0  0  0
    8.7931  -15.3099   17.7646 C   0  0  0  0  0  0  0  0  0  0  0  0
    8.4050  -13.8259   17.7201 C   0  0  0  0  0  0  0  0  0  0  0  0
    8.9238  -13.2442   19.0335 C   0  0  0  0  0  0  0  0  0  0  0  0
    9.5925  -14.4182   19.6625 C   0  0  1  0  0  0  0  0  0  0  0  0
    9.6152  -14.3730   21.1415 C   0  0  0  0  0  0  0  0  0  0  0  0
   10.2582  -13.4542   21.7044 O   0  0  0  0  0  0  0  0  0  0  0  0
    8.9380  -15.3286   21.9332 N   0  0  0  0  0  0  0  0  0  0  0  0
    8.4913  -15.1700   23.2786 C   0  0  1  0  0  0  0  0  0  0  0  0
    7.0803  -15.5725   23.5267 C   0  0  0  0  0  0  0  0  0  0  0  0
    6.6032  -15.0385   24.8430 C   0  0  0  0  0  0  0  0  0  0  0  0
    6.2201  -15.8166   25.9118 C   0  0  0  0  0  0  0  0  0  0  0  0
    5.8603  -14.9838   26.9030 N   0  0  0  0  0  0  0  0  0  0  0  0
    5.9931  -13.7099   26.5242 C   0  0  0  0  0  0  0  0  0  0  0  0
    5.7629  -12.4936   27.1534 C   0  0  0  0  0  0  0  0  0  0  0  0
    5.9925  -11.3011   26.5077 C   0  0  0  0  0  0  0  0  0  0  0  0
    6.4595  -11.3424   25.2124 C   0  0  0  0  0  0  0  0  0  0  0  0
    6.6894  -12.5351   24.5840 C   0  0  0  0  0  0  0  0  0  0  0  0
    6.4565  -13.7315   25.2391 C   0  0  0  0  0  0  0  0  0  0  0  0
    9.3810  -15.8189   24.2960 C   0  0  0  0  0  0  0  0  0  0  0  0
   10.0419  -16.8205   23.9484 O   0  0  0  0  0  0  0  0  0  0  0  0
   11.0244  -13.6364   27.3160 C   0  0  0  0  0  0  0  0  0  0  0  0
   10.6483  -15.0353   27.7173 C   0  0  1  0  0  0  0  0  0  0  0  0
    9.3586  -15.0943   28.4980 C   0  0  0  0  0  0  0  0  0  0  0  0
   10.5227  -15.9240   26.5195 C   0  0  2  0  0  0  0  0  0  0  0  0
    9.5120  -15.3665   25.6099 N   0  0  0  0  0  0  0  0  0  0  0  0
   10.1828  -17.3289   26.8686 C   0  0  0  0  0  0  0  0  0  0  0  0
   11.1438  -18.1053   27.4848 O   0  0  0  0  0  0  0  0  0  0  0  0
    9.0682  -17.8482   26.6329 O   0  0  0  0  0  0  0  0  0  0  0  0
  1  5  1  0
  2  3  1  0
  2  1  1  0
  3  4  1  0
  4  5  1  0
  5  6  1  1
  6  8  1  0
  6  7  2  0
  8  9  1  0
  9 10  1  6
  9 20  1  0
 10 11  1  0
 11 19  1  0
 11 12  2  0
 12 13  1  0
 14 13  1  0
 14 15  2  0
 16 15  1  0
 17 16  2  0
 18 19  2  0
 18 17  1  0
 19 14  1  0
 20 26  1  0
 21 20  2  0
 23 22  1  6
 23 24  1  0
 25 23  1  0
 25 27  1  0
 25 26  1  6
 27 29  2  0
 27 28  1  0
M  END
$$$$
