PWV.pdb
     RDKit          3D

 29 31  0  0  1  0  0  0  0  0999 V2000
    7.4404  -16.1917   21.0142 N   0  0  0  0  0  0  0  0  0  0  0  0
    6.9271  -15.9784   19.6729 C   0  0  0  0  0  0  0  0  0  0  0  0
    7.0318  -14.4504   19.5759 C   0  0  0  0  0  0  0  0  0  0  0  0
    8.1852  -14.0756   20.5042 C   0  0  0  0  0  0  0  0  0  0  0  0
    8.6524  -15.4053   20.9886 C   0  0  1  0  0  0  0  0  0  0  0  0
    9.2788  -15.3682   22.3289 C   0  0  0  0  0  0  0  0  0  0  0  0
   10.3105  -14.6725   22.4905 O   0  0  0  0  0  0  0  0  0  0  0  0
    8.7520  -16.0889   23.4250 N   0  0  0  0  0  0  0  0  0  0  0  0
    9.1885  -16.0317   24.7818 C   0  0  1  0  0  0  0  0  0  0  0  0
    8.1608  -16.4039   25.7916 C   0  0  0  0  0  0  0  0  0  0  0  0
    7.0707  -15.3768   25.8381 C   0  0  0  0  0  0  0  0  0  0  0  0
    5.7456  -15.6275   25.5628 C   0  0  0  0  0  0  0  0  0  0  0  0
    5.0813  -14.4688   25.7099 N   0  0  0  0  0  0  0  0  0  0  0  0
    5.9135  -13.4866   26.0659 C   0  0  0  0  0  0  0  0  0  0  0  0
    5.7416  -12.1357   26.3376 C   0  0  0  0  0  0  0  0  0  0  0  0
    6.8046  -11.3377   26.6911 C   0  0  0  0  0  0  0  0  0  0  0  0
    8.0530  -11.9148   26.7697 C   0  0  0  0  0  0  0  0  0  0  0  0
    8.2326  -13.2443   26.5042 C   0  0  0  0  0  0  0  0  0  0  0  0
    7.1591  -14.0419   26.1490 C   0  0  0  0  0  0  0  0  0  0  0  0
   10.4495  -16.7974   25.0485 C   0  0  0  0  0  0  0  0  0  0  0  0
   10.6938  -17.7969   24.3398 O   0  0  0  0  0  0  0  0  0  0  0  0
   14.8168  -17.2105   27.3310 C   0  0  0  0  0  0  0  0  0  0  0  0
   13.5382  -16.4534   27.1042 C   0  0  1  0  0  0  0  0  0  0  0  0
   13.7571  -15.1238   26.4255 C   0  0  0  0  0  0  0  0  0  0  0  0
   12.5755  -17.2551   26.2852 C   0  0  2  0  0  0  0  0  0  0  0  0
   11.3660  -16.4558   26.0444 N   0  0  0  0  0  0  0  0  0  0  0  0
   12.2177  -18.5550   26.9123 C   0  0  0  0  0  0  0  0  0  0  0  0
   13.0209  -19.6498   26.6628 O   0  0  0  0  0  0  0  0  0  0  0  0
   11.2235  -18.7115   27.6571 O   0  0  0  0  0  0  0  0  0  0  0  0
  1  5  1  0
  2  3  1  0
  2  1  1  0
  3  4  1  0
  4  5  1  0
  5  6  1  1
  6  8  1  0
  6  7  2  0
  8  9  1  0
  9 10  1  1
  9 20  1  0
 10 11  1  0
 11 19  1  0
 11 12  2  0
 12 13  1  0
 14 13  1  0
 14 15  2  0
 16 15  1  0
 17 16  2  0
 18 19  2  0
 18 17  1  0
 19 14  1  0
 20 26  1  0
 21 20  2  0
 23 22  1  6
 23 24  1  0
 25 23  1  0
 25 27  1  0
 25 26  1  1
 27 29  2  0
 27 28  1  0
M  END
$$$$
