PWV.pdb
     RDKit          3D

 29 31  0  0  1  0  0  0  0  0999 V2000
    7.2665  -16.2385   21.2642 N   0  0  0  0  0  0  0  0  0  0  0  0
    6.6442  -15.9964   19.9749 C   0  0  0  0  0  0  0  0  0  0  0  0
    6.7511  -14.4674   19.8983 C   0  0  0  0  0  0  0  0  0  0  0  0
    7.9807  -14.1169   20.7336 C   0  0  0  0  0  0  0  0  0  0  0  0
    8.4776  -15.4582   21.1519 C   0  0  1  0  0  0  0  0  0  0  0  0
    9.2142  -15.4504   22.4354 C   0  0  0  0  0  0  0  0  0  0  0  0
   10.2773  -14.7885   22.5136 O   0  0  0  0  0  0  0  0  0  0  0  0
    8.7579  -16.1623   23.5683 N   0  0  0  0  0  0  0  0  0  0  0  0
    9.2979  -16.1168   24.8878 C   0  0  1  0  0  0  0  0  0  0  0  0
    8.3067  -16.3030   25.9821 C   0  0  0  0  0  0  0  0  0  0  0  0
    7.1896  -15.3123   25.8560 C   0  0  0  0  0  0  0  0  0  0  0  0
    5.9039  -15.6251   25.4773 C   0  0  0  0  0  0  0  0  0  0  0  0
    5.1973  -14.4822   25.4815 N   0  0  0  0  0  0  0  0  0  0  0  0
    5.9650  -13.4510   25.8440 C   0  0  0  0  0  0  0  0  0  0  0  0
    5.7316  -12.0916   26.0042 C   0  0  0  0  0  0  0  0  0  0  0  0
    6.7343  -11.2366   26.3983 C   0  0  0  0  0  0  0  0  0  0  0  0
    7.9848  -11.7649   26.6321 C   0  0  0  0  0  0  0  0  0  0  0  0
    8.2248  -13.1023   26.4772 C   0  0  0  0  0  0  0  0  0  0  0  0
    7.2118  -13.9574   26.0804 C   0  0  0  0  0  0  0  0  0  0  0  0
   10.4578  -17.0420   25.1032 C   0  0  0  0  0  0  0  0  0  0  0  0
   10.3546  -18.2207   24.7020 O   0  0  0  0  0  0  0  0  0  0  0  0
   14.2372  -16.1317   24.5544 C   0  0  0  0  0  0  0  0  0  0  0  0
   14.0529  -16.8373   25.8687 C   0  0  1  0  0  0  0  0  0  0  0  0
   14.0806  -15.8965   27.0479 C   0  0  0  0  0  0  0  0  0  0  0  0
   12.7645  -17.5988   25.8953 C   0  0  2  0  0  0  0  0  0  0  0  0
   11.6465  -16.6599   25.7270 N   0  0  0  0  0  0  0  0  0  0  0  0
   12.5844  -18.3973   27.1367 C   0  0  0  0  0  0  0  0  0  0  0  0
   13.4389  -19.4567   27.3680 O   0  0  0  0  0  0  0  0  0  0  0  0
   11.6964  -18.1604   27.9868 O   0  0  0  0  0  0  0  0  0  0  0  0
  1  5  1  0
  2  3  1  0
  2  1  1  0
  3  4  1  0
  4  5  1  0
  5  6  1  1
  6  8  1  0
  6  7  2  0
  8  9  1  0
  9 10  1  1
  9 20  1  0
 10 11  1  0
 11 19  1  0
 11 12  2  0
 12 13  1  0
 14 13  1  0
 14 15  2  0
 16 15  1  0
 17 16  2  0
 18 19  2  0
 18 17  1  0
 19 14  1  0
 20 26  1  0
 21 20  2  0
 23 22  1  6
 23 24  1  0
 25 23  1  0
 25 27  1  0
 25 26  1  1
 27 29  2  0
 27 28  1  0
M  END
$$$$
