PWV.pdb
     RDKit          3D

 29 31  0  0  1  0  0  0  0  0999 V2000
    8.4690  -16.6597   20.4068 N   0  0  0  0  0  0  0  0  0  0  0  0
    8.3390  -16.6725   18.9607 C   0  0  0  0  0  0  0  0  0  0  0  0
    7.9245  -15.2170   18.7068 C   0  0  0  0  0  0  0  0  0  0  0  0
    8.5394  -14.4262   19.8597 C   0  0  0  0  0  0  0  0  0  0  0  0
    9.2762  -15.4792   20.6142 C   0  0  1  0  0  0  0  0  0  0  0  0
    9.4190  -15.1918   22.0588 C   0  0  0  0  0  0  0  0  0  0  0  0
   10.0502  -14.1649   22.4073 O   0  0  0  0  0  0  0  0  0  0  0  0
    8.8685  -16.0351   23.0509 N   0  0  0  0  0  0  0  0  0  0  0  0
    8.7127  -15.7431   24.4385 C   0  0  1  0  0  0  0  0  0  0  0  0
    7.5026  -16.3303   25.0750 C   0  0  0  0  0  0  0  0  0  0  0  0
    6.5060  -15.2597   25.4009 C   0  0  0  0  0  0  0  0  0  0  0  0
    5.1633  -15.4770   25.6114 C   0  0  0  0  0  0  0  0  0  0  0  0
    4.6030  -14.2849   25.8769 N   0  0  0  0  0  0  0  0  0  0  0  0
    5.5187  -13.3130   25.8474 C   0  0  0  0  0  0  0  0  0  0  0  0
    5.4661  -11.9398   26.0472 C   0  0  0  0  0  0  0  0  0  0  0  0
    6.5958  -11.1610   25.9528 C   0  0  0  0  0  0  0  0  0  0  0  0
    7.7893  -11.7801   25.6530 C   0  0  0  0  0  0  0  0  0  0  0  0
    7.8515  -13.1317   25.4545 C   0  0  0  0  0  0  0  0  0  0  0  0
    6.7114  -13.9100   25.5510 C   0  0  0  0  0  0  0  0  0  0  0  0
    9.9190  -16.0668   25.2679 C   0  0  0  0  0  0  0  0  0  0  0  0
   10.7880  -16.8182   24.7771 O   0  0  0  0  0  0  0  0  0  0  0  0
   11.3229  -13.6354   28.0843 C   0  0  0  0  0  0  0  0  0  0  0  0
   11.4294  -15.0674   28.5285 C   0  0  1  0  0  0  0  0  0  0  0  0
   10.4139  -15.4308   29.5835 C   0  0  0  0  0  0  0  0  0  0  0  0
   11.2719  -16.0035   27.3712 C   0  0  2  0  0  0  0  0  0  0  0  0
   10.1252  -15.5753   26.5580 N   0  0  0  0  0  0  0  0  0  0  0  0
   11.1082  -17.4219   27.7865 C   0  0  0  0  0  0  0  0  0  0  0  0
   12.2326  -18.1358   28.1498 O   0  0  0  0  0  0  0  0  0  0  0  0
   10.0017  -18.0065   27.8244 O   0  0  0  0  0  0  0  0  0  0  0  0
  1  5  1  0
  2  3  1  0
  2  1  1  0
  3  4  1  0
  4  5  1  0
  5  6  1  1
  6  8  1  0
  6  7  2  0
  8  9  1  0
  9 10  1  1
  9 20  1  0
 10 11  1  0
 11 19  1  0
 11 12  2  0
 12 13  1  0
 14 13  1  0
 14 15  2  0
 16 15  1  0
 17 16  2  0
 18 19  2  0
 18 17  1  0
 19 14  1  0
 20 26  1  0
 21 20  2  0
 23 22  1  6
 23 24  1  0
 25 23  1  0
 25 27  1  0
 25 26  1  1
 27 29  2  0
 27 28  1  0
M  END
$$$$
