PWV.pdb
     RDKit          3D

 29 31  0  0  1  0  0  0  0  0999 V2000
    8.0227  -15.2880   18.8132 N   0  0  0  0  0  0  0  0  0  0  0  0
    7.8608  -14.8873   17.4271 C   0  0  0  0  0  0  0  0  0  0  0  0
    7.6776  -13.3731   17.5960 C   0  0  0  0  0  0  0  0  0  0  0  0
    8.4352  -13.0256   18.8757 C   0  0  0  0  0  0  0  0  0  0  0  0
    9.0116  -14.3408   19.2746 C   0  0  1  0  0  0  0  0  0  0  0  0
    9.2296  -14.4820   20.7315 C   0  0  0  0  0  0  0  0  0  0  0  0
   10.1376  -13.8047   21.2712 O   0  0  0  0  0  0  0  0  0  0  0  0
    8.4498  -15.3519   21.5274 N   0  0  0  0  0  0  0  0  0  0  0  0
    8.2649  -15.2913   22.9406 C   0  0  1  0  0  0  0  0  0  0  0  0
    6.8513  -15.3812   23.3965 C   0  0  0  0  0  0  0  0  0  0  0  0
    6.7513  -15.0960   24.8642 C   0  0  0  0  0  0  0  0  0  0  0  0
    6.5532  -16.0502   25.8362 C   0  0  0  0  0  0  0  0  0  0  0  0
    6.5205  -15.4140   27.0193 N   0  0  0  0  0  0  0  0  0  0  0  0
    6.6876  -14.0990   26.8557 C   0  0  0  0  0  0  0  0  0  0  0  0
    6.7339  -13.0222   27.7313 C   0  0  0  0  0  0  0  0  0  0  0  0
    6.9239  -11.7387   27.2749 C   0  0  0  0  0  0  0  0  0  0  0  0
    7.0682  -11.5455   25.9186 C   0  0  0  0  0  0  0  0  0  0  0  0
    7.0242  -12.5994   25.0482 C   0  0  0  0  0  0  0  0  0  0  0  0
    6.8328  -13.8884   25.5135 C   0  0  0  0  0  0  0  0  0  0  0  0
    9.0991  -16.2737   23.7065 C   0  0  0  0  0  0  0  0  0  0  0  0
    9.2062  -17.4341   23.2560 O   0  0  0  0  0  0  0  0  0  0  0  0
   12.7124  -17.0178   26.9681 C   0  0  0  0  0  0  0  0  0  0  0  0
   11.8001  -16.1143   26.1866 C   0  0  1  0  0  0  0  0  0  0  0  0
   12.5306  -15.3008   25.1470 C   0  0  0  0  0  0  0  0  0  0  0  0
   10.7190  -16.8964   25.5083 C   0  0  2  0  0  0  0  0  0  0  0  0
    9.7628  -15.9642   24.8948 N   0  0  0  0  0  0  0  0  0  0  0  0
   10.0125  -17.8306   26.4244 C   0  0  0  0  0  0  0  0  0  0  0  0
   10.5947  -19.0525   26.6963 O   0  0  0  0  0  0  0  0  0  0  0  0
    8.9138  -17.5685   26.9645 O   0  0  0  0  0  0  0  0  0  0  0  0
  1  5  1  0
  2  3  1  0
  2  1  1  0
  3  4  1  0
  4  5  1  0
  5  6  1  1
  6  8  1  0
  6  7  2  0
  8  9  1  0
  9 10  1  6
  9 20  1  0
 10 11  1  0
 11 19  1  0
 11 12  2  0
 12 13  1  0
 14 13  1  0
 14 15  2  0
 16 15  1  0
 17 16  2  0
 18 19  2  0
 18 17  1  0
 19 14  1  0
 20 26  1  0
 21 20  2  0
 23 22  1  6
 23 24  1  0
 25 23  1  0
 25 27  1  0
 25 26  1  1
 27 29  2  0
 27 28  1  0
M  END
$$$$
