FKW.pdb
     RDKit          3D

 35 37  0  0  1  0  0  0  0  0999 V2000
   19.8479  -23.0753  -13.9713 N   0  0  0  0  0  0  0  0  0  0  0  0
   20.6123  -21.8642  -13.8862 C   0  0  1  0  0  0  0  0  0  0  0  0
   19.9587  -20.9092  -12.9304 C   0  0  0  0  0  0  0  0  0  0  0  0
   18.7202  -20.3109  -13.4486 C   0  0  0  0  0  0  0  0  0  0  0  0
   17.4923  -20.6239  -12.9184 C   0  0  0  0  0  0  0  0  0  0  0  0
   16.3333  -20.0371  -13.4301 C   0  0  0  0  0  0  0  0  0  0  0  0
   16.3902  -19.1364  -14.4714 C   0  0  0  0  0  0  0  0  0  0  0  0
   17.6167  -18.8243  -15.0006 C   0  0  0  0  0  0  0  0  0  0  0  0
   18.7468  -19.4097  -14.4863 C   0  0  0  0  0  0  0  0  0  0  0  0
   22.0122  -22.1950  -13.4854 C   0  0  0  0  0  0  0  0  0  0  0  0
   22.2499  -22.9606  -12.5046 O   0  0  0  0  0  0  0  0  0  0  0  0
   23.1207  -21.6630  -14.1893 N   0  0  0  0  0  0  0  0  0  0  0  0
   24.5027  -21.9992  -13.7564 C   0  0  1  0  0  0  0  0  0  0  0  0
   25.3852  -21.9628  -14.9680 C   0  0  0  0  0  0  0  0  0  0  0  0
   26.8274  -22.2343  -14.6862 C   0  0  0  0  0  0  0  0  0  0  0  0
   27.6295  -22.2840  -15.9945 C   0  0  0  0  0  0  0  0  0  0  0  0
   29.0750  -22.5824  -15.6427 C   0  0  0  0  0  0  0  0  0  0  0  0
   29.8669  -22.7034  -16.8474 N   0  0  0  0  0  0  0  0  0  0  0  0
   24.8491  -21.0683  -12.6807 C   0  0  0  0  0  0  0  0  0  0  0  0
   24.4584  -19.8549  -12.7873 O   0  0  0  0  0  0  0  0  0  0  0  0
   25.5844  -21.4755  -11.5508 N   0  0  0  0  0  0  0  0  0  0  0  0
   25.9985  -20.4518  -10.5816 C   0  0  1  0  0  0  0  0  0  0  0  0
   26.5311  -21.1922   -9.3914 C   0  0  0  0  0  0  0  0  0  0  0  0
   26.9608  -20.3814   -8.2446 C   0  0  0  0  0  0  0  0  0  0  0  0
   26.3932  -19.1567   -7.8527 C   0  0  0  0  0  0  0  0  0  0  0  0
   27.0440  -18.6871   -6.8045 N   0  0  0  0  0  0  0  0  0  0  0  0
   28.0436  -19.5150   -6.4313 C   0  0  0  0  0  0  0  0  0  0  0  0
   28.9594  -19.4430   -5.4020 C   0  0  0  0  0  0  0  0  0  0  0  0
   29.8654  -20.4712   -5.2579 C   0  0  0  0  0  0  0  0  0  0  0  0
   29.8147  -21.5297   -6.1532 C   0  0  0  0  0  0  0  0  0  0  0  0
   28.8973  -21.5903   -7.1766 C   0  0  0  0  0  0  0  0  0  0  0  0
   27.9907  -20.5724   -7.3306 C   0  0  0  0  0  0  0  0  0  0  0  0
   26.9779  -19.5815  -11.2314 C   0  0  0  0  0  0  0  0  0  0  0  0
   27.8129  -20.0868  -12.0425 O   0  0  0  0  0  0  0  0  0  0  0  0
   27.0810  -18.2086  -11.0427 O   0  0  0  0  0  0  0  0  0  0  0  0
  2  1  1  1
  2  3  1  0
  3  4  1  0
  4  5  2  0
  5  6  1  0
  7  6  2  0
  8  7  1  0
  9  8  2  0
  9  4  1  0
 10  2  1  0
 11 10  2  0
 12 10  1  0
 13 19  1  0
 13 12  1  0
 13 14  1  6
 15 14  1  0
 16 17  1  0
 16 15  1  0
 18 17  1  0
 19 21  1  0
 20 19  2  0
 21 22  1  0
 22 23  1  1
 22 33  1  0
 24 23  1  0
 25 24  2  0
 26 27  1  0
 26 25  1  0
 27 32  2  0
 28 29  2  0
 28 27  1  0
 29 30  1  0
 30 31  2  0
 32 24  1  0
 32 31  1  0
 33 34  2  0
 33 35  1  0
M  END
$$$$
