FKW.pdb
     RDKit          3D

 35 37  0  0  1  0  0  0  0  0999 V2000
   26.8343  -22.3092  -10.9920 N   0  0  0  0  0  0  0  0  0  0  0  0
   25.9425  -21.2874  -10.5245 C   0  0  1  0  0  0  0  0  0  0  0  0
   26.6794  -19.9877  -10.3803 C   0  0  0  0  0  0  0  0  0  0  0  0
   27.4282  -19.8707   -9.1209 C   0  0  0  0  0  0  0  0  0  0  0  0
   28.7447  -20.2516   -9.0276 C   0  0  0  0  0  0  0  0  0  0  0  0
   29.4308  -20.1261   -7.8181 C   0  0  0  0  0  0  0  0  0  0  0  0
   28.8108  -19.6210   -6.6959 C   0  0  0  0  0  0  0  0  0  0  0  0
   27.4961  -19.2408   -6.7896 C   0  0  0  0  0  0  0  0  0  0  0  0
   26.8356  -19.3706   -7.9859 C   0  0  0  0  0  0  0  0  0  0  0  0
   24.7855  -21.1796  -11.4623 C   0  0  0  0  0  0  0  0  0  0  0  0
   24.9507  -21.2376  -12.7168 O   0  0  0  0  0  0  0  0  0  0  0  0
   23.4646  -21.0088  -10.9792 N   0  0  0  0  0  0  0  0  0  0  0  0
   22.3094  -21.3991  -11.8298 C   0  0  1  0  0  0  0  0  0  0  0  0
   21.2097  -21.8671  -10.9244 C   0  0  0  0  0  0  0  0  0  0  0  0
   19.9457  -22.2347  -11.6318 C   0  0  0  0  0  0  0  0  0  0  0  0
   18.8555  -22.6143  -10.6196 C   0  0  0  0  0  0  0  0  0  0  0  0
   17.5901  -22.9295  -11.3954 C   0  0  0  0  0  0  0  0  0  0  0  0
   17.7351  -24.1861  -12.0974 N   0  0  0  0  0  0  0  0  0  0  0  0
   21.9975  -20.2467  -12.6774 C   0  0  0  0  0  0  0  0  0  0  0  0
   21.8066  -19.1168  -12.1087 O   0  0  0  0  0  0  0  0  0  0  0  0
   21.9106  -20.3541  -14.0788 N   0  0  0  0  0  0  0  0  0  0  0  0
   21.4942  -19.1714  -14.8449 C   0  0  1  0  0  0  0  0  0  0  0  0
   22.5897  -18.9052  -15.8336 C   0  0  0  0  0  0  0  0  0  0  0  0
   22.3168  -17.9012  -16.8702 C   0  0  0  0  0  0  0  0  0  0  0  0
   22.1865  -16.5187  -16.6533 C   0  0  0  0  0  0  0  0  0  0  0  0
   21.9101  -15.9193  -17.7965 N   0  0  0  0  0  0  0  0  0  0  0  0
   21.8383  -16.8042  -18.8141 C   0  0  0  0  0  0  0  0  0  0  0  0
   21.5938  -16.6361  -20.1616 C   0  0  0  0  0  0  0  0  0  0  0  0
   21.6038  -17.7496  -20.9732 C   0  0  0  0  0  0  0  0  0  0  0  0
   21.8587  -18.9864  -20.3988 C   0  0  0  0  0  0  0  0  0  0  0  0
   22.1004  -19.1419  -19.0534 C   0  0  0  0  0  0  0  0  0  0  0  0
   22.0925  -18.0410  -18.2351 C   0  0  0  0  0  0  0  0  0  0  0  0
   20.1963  -19.4595  -15.4542 C   0  0  0  0  0  0  0  0  0  0  0  0
   19.9019  -20.6590  -15.7456 O   0  0  0  0  0  0  0  0  0  0  0  0
   19.2211  -18.5144  -15.7491 O   0  0  0  0  0  0  0  0  0  0  0  0
  2  1  1  6
  2  3  1  0
  3  4  1  0
  4  5  2  0
  5  6  1  0
  7  6  2  0
  8  7  1  0
  9  8  2  0
  9  4  1  0
 10  2  1  0
 11 10  2  0
 12 10  1  0
 13 19  1  0
 13 12  1  0
 13 14  1  1
 15 14  1  0
 16 17  1  0
 16 15  1  0
 18 17  1  0
 19 21  1  0
 20 19  2  0
 21 22  1  0
 22 23  1  6
 22 33  1  0
 24 23  1  0
 25 24  2  0
 26 27  1  0
 26 25  1  0
 27 32  2  0
 28 29  2  0
 28 27  1  0
 29 30  1  0
 30 31  2  0
 32 24  1  0
 32 31  1  0
 33 34  2  0
 33 35  1  0
M  END
$$$$
