FKW.pdb
     RDKit          3D

 35 37  0  0  1  0  0  0  0  0999 V2000
   29.8983  -20.5943  -13.9623 N   0  0  0  0  0  0  0  0  0  0  0  0
   29.0301  -21.4280  -13.1818 C   0  0  1  0  0  0  0  0  0  0  0  0
   29.0201  -20.9662  -11.7537 C   0  0  0  0  0  0  0  0  0  0  0  0
   30.1741  -21.4356  -10.9737 C   0  0  0  0  0  0  0  0  0  0  0  0
   31.4463  -20.9830  -11.2261 C   0  0  0  0  0  0  0  0  0  0  0  0
   32.5226  -21.4455  -10.4663 C   0  0  0  0  0  0  0  0  0  0  0  0
   32.3386  -22.3601   -9.4521 C   0  0  0  0  0  0  0  0  0  0  0  0
   31.0680  -22.8117   -9.2006 C   0  0  0  0  0  0  0  0  0  0  0  0
   30.0204  -22.3474   -9.9565 C   0  0  0  0  0  0  0  0  0  0  0  0
   27.6655  -21.4183  -13.7881 C   0  0  0  0  0  0  0  0  0  0  0  0
   27.1420  -20.3439  -14.2076 O   0  0  0  0  0  0  0  0  0  0  0  0
   26.9114  -22.6112  -13.9137 N   0  0  0  0  0  0  0  0  0  0  0  0
   25.5143  -22.5536  -14.4189 C   0  0  1  0  0  0  0  0  0  0  0  0
   25.2611  -23.8004  -15.2123 C   0  0  0  0  0  0  0  0  0  0  0  0
   23.9154  -23.8541  -15.8598 C   0  0  0  0  0  0  0  0  0  0  0  0
   22.9390  -24.6703  -15.0008 C   0  0  0  0  0  0  0  0  0  0  0  0
   21.6385  -24.8007  -15.7717 C   0  0  0  0  0  0  0  0  0  0  0  0
   21.7268  -25.8914  -16.7181 N   0  0  0  0  0  0  0  0  0  0  0  0
   24.6502  -22.3456  -13.2554 C   0  0  0  0  0  0  0  0  0  0  0  0
   24.7604  -23.1569  -12.2725 O   0  0  0  0  0  0  0  0  0  0  0  0
   23.7225  -21.2879  -13.1957 N   0  0  0  0  0  0  0  0  0  0  0  0
   22.6602  -21.3476  -12.1824 C   0  0  1  0  0  0  0  0  0  0  0  0
   23.3487  -21.5363  -10.8637 C   0  0  0  0  0  0  0  0  0  0  0  0
   24.2051  -20.4368  -10.4003 C   0  0  0  0  0  0  0  0  0  0  0  0
   24.3901  -19.2113  -11.0633 C   0  0  0  0  0  0  0  0  0  0  0  0
   25.2490  -18.4717  -10.3865 N   0  0  0  0  0  0  0  0  0  0  0  0
   25.6829  -19.1079   -9.2771 C   0  0  0  0  0  0  0  0  0  0  0  0
   26.5564  -18.7237   -8.2807 C   0  0  0  0  0  0  0  0  0  0  0  0
   26.7924  -19.5989   -7.2428 C   0  0  0  0  0  0  0  0  0  0  0  0
   26.1416  -20.8241   -7.2479 C   0  0  0  0  0  0  0  0  0  0  0  0
   25.2730  -21.1967   -8.2475 C   0  0  0  0  0  0  0  0  0  0  0  0
   25.0306  -20.3343   -9.2863 C   0  0  0  0  0  0  0  0  0  0  0  0
   21.8745  -20.1176  -12.2757 C   0  0  0  0  0  0  0  0  0  0  0  0
   22.1537  -19.2720  -13.1798 O   0  0  0  0  0  0  0  0  0  0  0  0
   20.8136  -19.7784  -11.4447 O   0  0  0  0  0  0  0  0  0  0  0  0
  2  1  1  6
  2  3  1  0
  3  4  1  0
  4  5  2  0
  5  6  1  0
  7  6  2  0
  8  7  1  0
  9  8  2  0
  9  4  1  0
 10  2  1  0
 11 10  2  0
 12 10  1  0
 13 19  1  0
 13 12  1  0
 13 14  1  1
 15 14  1  0
 16 17  1  0
 16 15  1  0
 18 17  1  0
 19 21  1  0
 20 19  2  0
 21 22  1  0
 22 23  1  1
 22 33  1  0
 24 23  1  0
 25 24  2  0
 26 27  1  0
 26 25  1  0
 27 32  2  0
 28 29  2  0
 28 27  1  0
 29 30  1  0
 30 31  2  0
 32 24  1  0
 32 31  1  0
 33 34  2  0
 33 35  1  0
M  END
$$$$
