FKW.pdb
     RDKit          3D

 35 37  0  0  1  0  0  0  0  0999 V2000
   26.7172  -18.9605  -21.6240 N   0  0  0  0  0  0  0  0  0  0  0  0
   26.9106  -18.4420  -20.3004 C   0  0  1  0  0  0  0  0  0  0  0  0
   26.3231  -17.0648  -20.1962 C   0  0  0  0  0  0  0  0  0  0  0  0
   26.9541  -16.0850  -21.0919 C   0  0  0  0  0  0  0  0  0  0  0  0
   26.2843  -15.5577  -22.1691 C   0  0  0  0  0  0  0  0  0  0  0  0
   26.9093  -14.6264  -23.0007 C   0  0  0  0  0  0  0  0  0  0  0  0
   28.2032  -14.2153  -22.7649 C   0  0  0  0  0  0  0  0  0  0  0  0
   28.8716  -14.7423  -21.6891 C   0  0  0  0  0  0  0  0  0  0  0  0
   28.2432  -15.6568  -20.8810 C   0  0  0  0  0  0  0  0  0  0  0  0
   26.3125  -19.3875  -19.3112 C   0  0  0  0  0  0  0  0  0  0  0  0
   25.2075  -19.9631  -19.5396 O   0  0  0  0  0  0  0  0  0  0  0  0
   26.9619  -19.6714  -18.0844 N   0  0  0  0  0  0  0  0  0  0  0  0
   26.3275  -20.5960  -17.1082 C   0  0  1  0  0  0  0  0  0  0  0  0
   27.4222  -21.3216  -16.3847 C   0  0  0  0  0  0  0  0  0  0  0  0
   27.9325  -22.5321  -17.0970 C   0  0  0  0  0  0  0  0  0  0  0  0
   29.1272  -23.1341  -16.3436 C   0  0  0  0  0  0  0  0  0  0  0  0
   29.6144  -24.3371  -17.1296 C   0  0  0  0  0  0  0  0  0  0  0  0
   30.7747  -24.9158  -16.4879 N   0  0  0  0  0  0  0  0  0  0  0  0
   25.4334  -19.7879  -16.2768 C   0  0  0  0  0  0  0  0  0  0  0  0
   25.8896  -18.6971  -15.7885 O   0  0  0  0  0  0  0  0  0  0  0  0
   24.1058  -20.1771  -16.0140 N   0  0  0  0  0  0  0  0  0  0  0  0
   23.2515  -19.2656  -15.2405 C   0  0  1  0  0  0  0  0  0  0  0  0
   22.9913  -18.0830  -16.1249 C   0  0  0  0  0  0  0  0  0  0  0  0
   21.9326  -18.2295  -17.1323 C   0  0  0  0  0  0  0  0  0  0  0  0
   20.5675  -18.4231  -16.8595 C   0  0  0  0  0  0  0  0  0  0  0  0
   19.9065  -18.5479  -17.9953 N   0  0  0  0  0  0  0  0  0  0  0  0
   20.7310  -18.4522  -19.0605 C   0  0  0  0  0  0  0  0  0  0  0  0
   20.4879  -18.5058  -20.4175 C   0  0  0  0  0  0  0  0  0  0  0  0
   21.5515  -18.3529  -21.2803 C   0  0  0  0  0  0  0  0  0  0  0  0
   22.8157  -18.1525  -20.7451 C   0  0  0  0  0  0  0  0  0  0  0  0
   23.0462  -18.1017  -19.3898 C   0  0  0  0  0  0  0  0  0  0  0  0
   21.9955  -18.2532  -18.5210 C   0  0  0  0  0  0  0  0  0  0  0  0
   22.0464  -19.9959  -14.8491 C   0  0  0  0  0  0  0  0  0  0  0  0
   21.8195  -21.1349  -15.3605 O   0  0  0  0  0  0  0  0  0  0  0  0
   21.0981  -19.5487  -13.9370 O   0  0  0  0  0  0  0  0  0  0  0  0
  2  1  1  6
  2  3  1  0
  3  4  1  0
  4  5  2  0
  5  6  1  0
  7  6  2  0
  8  7  1  0
  9  8  2  0
  9  4  1  0
 10  2  1  0
 11 10  2  0
 12 10  1  0
 13 19  1  0
 13 12  1  0
 13 14  1  1
 15 14  1  0
 16 17  1  0
 16 15  1  0
 18 17  1  0
 19 21  1  0
 20 19  2  0
 21 22  1  0
 22 23  1  6
 22 33  1  0
 24 23  1  0
 25 24  2  0
 26 27  1  0
 26 25  1  0
 27 32  2  0
 28 29  2  0
 28 27  1  0
 29 30  1  0
 30 31  2  0
 32 24  1  0
 32 31  1  0
 33 34  2  0
 33 35  1  0
M  END
$$$$
