FKW.pdb
     RDKit          3D

 35 37  0  0  1  0  0  0  0  0999 V2000
   18.2074  -14.0824  -19.5086 N   0  0  0  0  0  0  0  0  0  0  0  0
   18.8535  -13.0412  -18.7626 C   0  0  1  0  0  0  0  0  0  0  0  0
   20.0238  -12.5052  -19.5346 C   0  0  0  0  0  0  0  0  0  0  0  0
   21.0389  -13.5209  -19.8482 C   0  0  0  0  0  0  0  0  0  0  0  0
   21.1537  -14.0603  -21.1063 C   0  0  0  0  0  0  0  0  0  0  0  0
   22.1299  -15.0218  -21.3746 C   0  0  0  0  0  0  0  0  0  0  0  0
   22.9963  -15.4513  -20.3931 C   0  0  0  0  0  0  0  0  0  0  0  0
   22.8812  -14.9124  -19.1368 C   0  0  0  0  0  0  0  0  0  0  0  0
   21.9163  -13.9680  -18.8891 C   0  0  0  0  0  0  0  0  0  0  0  0
   17.8558  -11.9783  -18.4389 C   0  0  0  0  0  0  0  0  0  0  0  0
   17.0436  -11.5534  -19.3130 O   0  0  0  0  0  0  0  0  0  0  0  0
   17.7854  -11.4102  -17.1428 N   0  0  0  0  0  0  0  0  0  0  0  0
   16.8399  -10.2948  -16.8743 C   0  0  1  0  0  0  0  0  0  0  0  0
   15.9006  -10.7391  -15.7933 C   0  0  0  0  0  0  0  0  0  0  0  0
   14.8554   -9.7328  -15.4355 C   0  0  0  0  0  0  0  0  0  0  0  0
   13.9927  -10.2455  -14.2735 C   0  0  0  0  0  0  0  0  0  0  0  0
   12.8484   -9.2685  -14.0775 C   0  0  0  0  0  0  0  0  0  0  0  0
   11.9026   -9.7940  -13.1170 N   0  0  0  0  0  0  0  0  0  0  0  0
   17.6510   -9.1131  -16.5754 C   0  0  0  0  0  0  0  0  0  0  0  0
   18.7857   -9.2902  -16.0120 O   0  0  0  0  0  0  0  0  0  0  0  0
   17.2178   -7.8117  -16.8946 N   0  0  0  0  0  0  0  0  0  0  0  0
   18.0962   -6.6822  -16.5607 C   0  0  1  0  0  0  0  0  0  0  0  0
   18.8807   -6.3797  -17.8024 C   0  0  0  0  0  0  0  0  0  0  0  0
   18.1470   -5.7639  -18.9157 C   0  0  0  0  0  0  0  0  0  0  0  0
   17.5564   -4.4886  -18.8978 C   0  0  0  0  0  0  0  0  0  0  0  0
   16.9521   -4.2688  -20.0506 N   0  0  0  0  0  0  0  0  0  0  0  0
   17.0836   -5.3213  -20.8866 C   0  0  0  0  0  0  0  0  0  0  0  0
   16.6394   -5.5309  -22.1759 C   0  0  0  0  0  0  0  0  0  0  0  0
   16.9525   -6.7234  -22.7911 C   0  0  0  0  0  0  0  0  0  0  0  0
   17.6989   -7.6568  -22.0865 C   0  0  0  0  0  0  0  0  0  0  0  0
   18.1358   -7.4370  -20.8007 C   0  0  0  0  0  0  0  0  0  0  0  0
   17.8298   -6.2540  -20.1775 C   0  0  0  0  0  0  0  0  0  0  0  0
   17.2578   -5.5764  -16.0992 C   0  0  0  0  0  0  0  0  0  0  0  0
   16.0169   -5.5879  -16.3648 O   0  0  0  0  0  0  0  0  0  0  0  0
   17.7045   -4.4814  -15.3695 O   0  0  0  0  0  0  0  0  0  0  0  0
  2  1  1  6
  2  3  1  0
  3  4  1  0
  4  5  2  0
  5  6  1  0
  7  6  2  0
  8  7  1  0
  9  8  2  0
  9  4  1  0
 10  2  1  0
 11 10  2  0
 12 10  1  0
 13 19  1  0
 13 12  1  0
 13 14  1  1
 15 14  1  0
 16 17  1  0
 16 15  1  0
 18 17  1  0
 19 21  1  0
 20 19  2  0
 21 22  1  0
 22 23  1  6
 22 33  1  0
 24 23  1  0
 25 24  2  0
 26 27  1  0
 26 25  1  0
 27 32  2  0
 28 29  2  0
 28 27  1  0
 29 30  1  0
 30 31  2  0
 32 24  1  0
 32 31  1  0
 33 34  2  0
 33 35  1  0
M  END
$$$$
