SKS.pdb
     RDKit          3D

 22 21  0  0  1  0  0  0  0  0999 V2000
   29.9412  -31.9687  -14.9508 O   0  0  0  0  0  0  0  0  0  0  0  0
   29.4992  -33.0941  -15.6410 C   0  0  0  0  0  0  0  0  0  0  0  0
   28.1893  -32.7914  -16.3799 C   0  0  2  0  0  0  0  0  0  0  0  0
   28.4261  -31.7300  -17.2720 N   0  0  0  0  0  0  0  0  0  0  0  0
   27.1226  -32.5618  -15.3844 C   0  0  0  0  0  0  0  0  0  0  0  0
   26.6953  -31.3899  -15.3078 O   0  0  0  0  0  0  0  0  0  0  0  0
   26.6245  -33.5983  -14.5781 N   0  0  0  0  0  0  0  0  0  0  0  0
   25.5175  -33.5551  -13.6717 C   0  0  1  0  0  0  0  0  0  0  0  0
   24.3675  -34.4794  -13.9825 C   0  0  0  0  0  0  0  0  0  0  0  0
   23.1415  -34.2746  -13.1758 C   0  0  0  0  0  0  0  0  0  0  0  0
   21.9997  -35.1824  -13.5777 C   0  0  0  0  0  0  0  0  0  0  0  0
   20.7533  -34.9137  -12.7739 C   0  0  0  0  0  0  0  0  0  0  0  0
   19.6656  -35.7835  -13.1004 N   0  0  0  0  0  0  0  0  0  0  0  0
   25.9560  -33.7603  -12.2808 C   0  0  0  0  0  0  0  0  0  0  0  0
   26.7939  -34.6867  -11.9952 O   0  0  0  0  0  0  0  0  0  0  0  0
   26.1112  -32.1398   -7.7306 O   0  0  0  0  0  0  0  0  0  0  0  0
   25.5389  -32.0000   -8.9980 C   0  0  0  0  0  0  0  0  0  0  0  0
   25.9796  -33.1514   -9.8934 C   0  0  2  0  0  0  0  0  0  0  0  0
   25.4714  -32.9480  -11.2190 N   0  0  0  0  0  0  0  0  0  0  0  0
   25.5304  -34.4041   -9.2810 C   0  0  0  0  0  0  0  0  0  0  0  0
   24.3931  -34.8636   -9.5342 O   0  0  0  0  0  0  0  0  0  0  0  0
   26.3425  -35.1095   -8.4128 O   0  0  0  0  0  0  0  0  0  0  0  0
  2  1  1  0
  3  5  1  0
  3  2  1  0
  3  4  1  1
  5  7  1  0
  5  6  2  0
  7  8  1  0
  8 14  1  0
  9 10  1  0
  8  9  1  6
 10 11  1  0
 11 12  1  0
 12 13  1  0
 14 15  2  0
 14 19  1  0
 17 16  1  0
 18 17  1  1
 19 18  1  0
 20 18  1  0
 20 22  1  0
 21 20  2  0
M  END
$$$$
