SKS.pdb
     RDKit          3D

 22 21  0  0  1  0  0  0  0  0999 V2000
   26.0042  -22.7163  -15.6902 O   0  0  0  0  0  0  0  0  0  0  0  0
   26.1413  -22.0424  -16.9007 C   0  0  0  0  0  0  0  0  0  0  0  0
   26.7146  -20.6380  -16.6722 C   0  0  2  0  0  0  0  0  0  0  0  0
   27.9798  -20.7747  -16.0728 N   0  0  0  0  0  0  0  0  0  0  0  0
   25.7315  -19.8398  -15.9118 C   0  0  0  0  0  0  0  0  0  0  0  0
   26.0543  -19.5568  -14.7381 O   0  0  0  0  0  0  0  0  0  0  0  0
   24.5135  -19.4283  -16.4770 N   0  0  0  0  0  0  0  0  0  0  0  0
   23.4752  -18.6554  -15.8661 C   0  0  1  0  0  0  0  0  0  0  0  0
   22.8999  -17.5383  -16.6996 C   0  0  0  0  0  0  0  0  0  0  0  0
   22.0601  -16.5588  -15.9709 C   0  0  0  0  0  0  0  0  0  0  0  0
   20.6289  -16.5137  -16.4599 C   0  0  0  0  0  0  0  0  0  0  0  0
   19.8497  -15.3896  -15.8267 C   0  0  0  0  0  0  0  0  0  0  0  0
   18.5256  -15.2486  -16.3492 N   0  0  0  0  0  0  0  0  0  0  0  0
   22.3869  -19.5161  -15.3723 C   0  0  0  0  0  0  0  0  0  0  0  0
   21.8389  -20.3770  -16.1471 O   0  0  0  0  0  0  0  0  0  0  0  0
   20.6297  -19.2925  -11.4507 O   0  0  0  0  0  0  0  0  0  0  0  0
   20.9804  -20.4910  -12.0784 C   0  0  0  0  0  0  0  0  0  0  0  0
   20.8906  -20.3272  -13.5907 C   0  0  2  0  0  0  0  0  0  0  0  0
   21.9117  -19.4235  -14.0352 N   0  0  0  0  0  0  0  0  0  0  0  0
   19.5340  -19.8852  -13.9225 C   0  0  0  0  0  0  0  0  0  0  0  0
   19.3339  -18.7375  -14.3825 O   0  0  0  0  0  0  0  0  0  0  0  0
   18.4441  -20.7154  -13.7389 O   0  0  0  0  0  0  0  0  0  0  0  0
  2  1  1  0
  3  5  1  0
  3  2  1  0
  3  4  1  1
  5  7  1  0
  5  6  2  0
  7  8  1  0
  8 14  1  0
  9 10  1  0
  8  9  1  6
 10 11  1  0
 11 12  1  0
 12 13  1  0
 14 15  2  0
 14 19  1  0
 17 16  1  0
 18 17  1  1
 19 18  1  0
 20 18  1  0
 20 22  1  0
 21 20  2  0
M  END
$$$$
