SKS.pdb
     RDKit          3D

 22 21  0  0  1  0  0  0  0  0999 V2000
   26.6641  -11.9441  -15.4226 O   0  0  0  0  0  0  0  0  0  0  0  0
   25.7352  -10.9071  -15.4212 C   0  0  0  0  0  0  0  0  0  0  0  0
   24.9009  -10.9311  -16.7083 C   0  0  2  0  0  0  0  0  0  0  0  0
   25.7809  -10.8330  -17.8013 N   0  0  0  0  0  0  0  0  0  0  0  0
   23.8669   -9.8795  -16.6258 C   0  0  0  0  0  0  0  0  0  0  0  0
   24.1233   -8.8179  -17.2332 O   0  0  0  0  0  0  0  0  0  0  0  0
   22.6739  -10.0666  -15.9088 N   0  0  0  0  0  0  0  0  0  0  0  0
   21.5336   -9.2032  -15.8550 C   0  0  1  0  0  0  0  0  0  0  0  0
   20.2017   -9.8740  -15.6320 C   0  0  0  0  0  0  0  0  0  0  0  0
   19.0166   -8.9865  -15.6908 C   0  0  0  0  0  0  0  0  0  0  0  0
   17.7027   -9.7340  -15.6232 C   0  0  0  0  0  0  0  0  0  0  0  0
   16.5193   -8.8133  -15.7777 C   0  0  0  0  0  0  0  0  0  0  0  0
   15.2664   -9.5007  -15.8394 N   0  0  0  0  0  0  0  0  0  0  0  0
   21.7203   -8.1307  -14.8630 C   0  0  0  0  0  0  0  0  0  0  0  0
   22.0120   -8.4149  -13.6481 O   0  0  0  0  0  0  0  0  0  0  0  0
   22.9146   -4.4224  -15.8541 O   0  0  0  0  0  0  0  0  0  0  0  0
   23.0400   -4.9435  -14.5633 C   0  0  0  0  0  0  0  0  0  0  0  0
   21.7995   -5.7557  -14.2118 C   0  0  2  0  0  0  0  0  0  0  0  0
   21.5853   -6.7593  -15.2137 N   0  0  0  0  0  0  0  0  0  0  0  0
   20.6744   -4.8296  -14.0621 C   0  0  0  0  0  0  0  0  0  0  0  0
   19.6864   -4.9003  -14.8286 O   0  0  0  0  0  0  0  0  0  0  0  0
   20.6708   -3.8587  -13.0782 O   0  0  0  0  0  0  0  0  0  0  0  0
  2  1  1  0
  3  5  1  0
  3  2  1  0
  3  4  1  6
  5  7  1  0
  5  6  2  0
  7  8  1  0
  8 14  1  0
  9 10  1  0
  8  9  1  1
 10 11  1  0
 11 12  1  0
 12 13  1  0
 14 15  2  0
 14 19  1  0
 17 16  1  0
 18 17  1  6
 19 18  1  0
 20 18  1  0
 20 22  1  0
 21 20  2  0
M  END
$$$$
