SKS.pdb
     RDKit          3D

 22 21  0  0  1  0  0  0  0  0999 V2000
   16.3464   -7.5502  -14.6779 O   0  0  0  0  0  0  0  0  0  0  0  0
   16.3144   -8.6088  -15.5816 C   0  0  0  0  0  0  0  0  0  0  0  0
   17.1960   -9.7633  -15.0884 C   0  0  2  0  0  0  0  0  0  0  0  0
   16.5889  -10.3205  -13.9485 N   0  0  0  0  0  0  0  0  0  0  0  0
   18.5729   -9.2637  -14.8978 C   0  0  0  0  0  0  0  0  0  0  0  0
   18.8469   -8.8533  -13.7496 O   0  0  0  0  0  0  0  0  0  0  0  0
   19.5099   -9.2531  -15.9439 N   0  0  0  0  0  0  0  0  0  0  0  0
   20.8236   -8.6847  -15.9445 C   0  0  1  0  0  0  0  0  0  0  0  0
   21.7621   -9.1806  -17.0154 C   0  0  0  0  0  0  0  0  0  0  0  0
   21.9699  -10.6471  -17.0598 C   0  0  0  0  0  0  0  0  0  0  0  0
   22.7668  -11.1044  -18.2621 C   0  0  0  0  0  0  0  0  0  0  0  0
   22.7613  -12.6047  -18.4072 C   0  0  0  0  0  0  0  0  0  0  0  0
   23.4075  -13.0647  -19.5975 N   0  0  0  0  0  0  0  0  0  0  0  0
   20.7703   -7.2132  -15.9750 C   0  0  0  0  0  0  0  0  0  0  0  0
   20.1336   -6.6068  -16.9071 O   0  0  0  0  0  0  0  0  0  0  0  0
   19.8765   -4.9773  -13.1002 O   0  0  0  0  0  0  0  0  0  0  0  0
   19.9417   -4.5876  -14.4408 C   0  0  0  0  0  0  0  0  0  0  0  0
   21.2853   -4.9958  -15.0324 C   0  0  2  0  0  0  0  0  0  0  0  0
   21.4152   -6.4232  -14.9840 N   0  0  0  0  0  0  0  0  0  0  0  0
   22.3398   -4.2878  -14.3024 C   0  0  0  0  0  0  0  0  0  0  0  0
   23.1970   -4.9242  -13.6474 O   0  0  0  0  0  0  0  0  0  0  0  0
   22.4186   -2.9078  -14.3154 O   0  0  0  0  0  0  0  0  0  0  0  0
  2  1  1  0
  3  5  1  0
  3  2  1  0
  3  4  1  1
  5  7  1  0
  5  6  2  0
  7  8  1  0
  8 14  1  0
  9 10  1  0
  8  9  1  6
 10 11  1  0
 11 12  1  0
 12 13  1  0
 14 15  2  0
 14 19  1  0
 17 16  1  0
 18 17  1  1
 19 18  1  0
 20 18  1  0
 20 22  1  0
 21 20  2  0
M  END
$$$$
