SKS.pdb
     RDKit          3D

 22 21  0  0  1  0  0  0  0  0999 V2000
   27.3960  -11.0258  -15.5010 O   0  0  0  0  0  0  0  0  0  0  0  0
   26.4933   -9.9812  -15.6801 C   0  0  0  0  0  0  0  0  0  0  0  0
   25.5215  -10.3005  -16.8233 C   0  0  2  0  0  0  0  0  0  0  0  0
   26.2657  -10.4090  -18.0119 N   0  0  0  0  0  0  0  0  0  0  0  0
   24.4479   -9.2861  -16.8334 C   0  0  0  0  0  0  0  0  0  0  0  0
   24.6160   -8.3262  -17.6158 O   0  0  0  0  0  0  0  0  0  0  0  0
   23.3129   -9.3986  -16.0139 N   0  0  0  0  0  0  0  0  0  0  0  0
   22.1573   -8.5543  -15.9883 C   0  0  1  0  0  0  0  0  0  0  0  0
   20.8559   -9.2198  -15.6184 C   0  0  0  0  0  0  0  0  0  0  0  0
   19.6490   -8.3643  -15.7035 C   0  0  0  0  0  0  0  0  0  0  0  0
   18.3626   -9.1116  -15.4274 C   0  0  0  0  0  0  0  0  0  0  0  0
   17.1513   -8.2269  -15.5753 C   0  0  0  0  0  0  0  0  0  0  0  0
   15.9166   -8.9038  -15.3234 N   0  0  0  0  0  0  0  0  0  0  0  0
   22.3732   -7.3770  -15.1301 C   0  0  0  0  0  0  0  0  0  0  0  0
   22.6990   -7.5228  -13.8995 O   0  0  0  0  0  0  0  0  0  0  0  0
   22.3543   -3.4939  -16.6669 O   0  0  0  0  0  0  0  0  0  0  0  0
   23.1820   -3.8338  -15.5933 C   0  0  0  0  0  0  0  0  0  0  0  0
   22.5355   -4.9443  -14.7744 C   0  0  2  0  0  0  0  0  0  0  0  0
   22.2297   -6.0537  -15.6303 N   0  0  0  0  0  0  0  0  0  0  0  0
   21.3620   -4.3881  -14.0966 C   0  0  0  0  0  0  0  0  0  0  0  0
   21.4819   -3.4240  -13.3060 O   0  0  0  0  0  0  0  0  0  0  0  0
   20.0984   -4.9071  -14.3083 O   0  0  0  0  0  0  0  0  0  0  0  0
  2  1  1  0
  3  5  1  0
  3  2  1  0
  3  4  1  6
  5  7  1  0
  5  6  2  0
  7  8  1  0
  8 14  1  0
  9 10  1  0
  8  9  1  1
 10 11  1  0
 11 12  1  0
 12 13  1  0
 14 15  2  0
 14 19  1  0
 17 16  1  0
 18 17  1  6
 19 18  1  0
 20 18  1  0
 20 22  1  0
 21 20  2  0
M  END
$$$$
