SKS.pdb
     RDKit          3D

 22 21  0  0  1  0  0  0  0  0999 V2000
   23.9798  -11.7623  -15.0641 O   0  0  0  0  0  0  0  0  0  0  0  0
   22.7299  -12.3609  -15.1974 C   0  0  0  0  0  0  0  0  0  0  0  0
   22.1150  -12.0232  -16.5617 C   0  0  2  0  0  0  0  0  0  0  0  0
   23.0298  -12.4050  -17.5598 N   0  0  0  0  0  0  0  0  0  0  0  0
   21.7217  -10.5995  -16.5680 C   0  0  0  0  0  0  0  0  0  0  0  0
   22.4459   -9.8397  -17.2464 O   0  0  0  0  0  0  0  0  0  0  0  0
   20.6043  -10.1352  -15.8551 N   0  0  0  0  0  0  0  0  0  0  0  0
   20.0362   -8.8215  -15.8653 C   0  0  1  0  0  0  0  0  0  0  0  0
   18.6219   -8.7048  -15.3559 C   0  0  0  0  0  0  0  0  0  0  0  0
   17.5813   -9.3455  -16.1941 C   0  0  0  0  0  0  0  0  0  0  0  0
   16.1902   -9.2416  -15.6080 C   0  0  0  0  0  0  0  0  0  0  0  0
   15.1490   -9.8531  -16.5101 C   0  0  0  0  0  0  0  0  0  0  0  0
   13.8082   -9.6406  -16.0593 N   0  0  0  0  0  0  0  0  0  0  0  0
   20.8986   -7.8597  -15.1579 C   0  0  0  0  0  0  0  0  0  0  0  0
   21.4246   -8.1677  -14.0308 O   0  0  0  0  0  0  0  0  0  0  0  0
   23.9507   -4.2331  -15.4388 O   0  0  0  0  0  0  0  0  0  0  0  0
   23.0179   -5.0574  -16.0742 C   0  0  0  0  0  0  0  0  0  0  0  0
   22.1293   -5.7288  -15.0342 C   0  0  2  0  0  0  0  0  0  0  0  0
   21.1745   -6.5717  -15.6935 N   0  0  0  0  0  0  0  0  0  0  0  0
   21.5162   -4.6820  -14.2130 C   0  0  0  0  0  0  0  0  0  0  0  0
   20.4441   -4.1410  -14.5689 O   0  0  0  0  0  0  0  0  0  0  0  0
   22.0987   -4.2645  -13.0310 O   0  0  0  0  0  0  0  0  0  0  0  0
  2  1  1  0
  3  5  1  0
  3  2  1  0
  3  4  1  6
  5  7  1  0
  5  6  2  0
  7  8  1  0
  8 14  1  0
  9 10  1  0
  8  9  1  1
 10 11  1  0
 11 12  1  0
 12 13  1  0
 14 15  2  0
 14 19  1  0
 17 16  1  0
 18 17  1  6
 19 18  1  0
 20 18  1  0
 20 22  1  0
 21 20  2  0
M  END
$$$$
