SKS.pdb
     RDKit          3D

 22 21  0  0  1  0  0  0  0  0999 V2000
   17.4963   -7.8621  -17.8220 O   0  0  0  0  0  0  0  0  0  0  0  0
   18.0744   -8.9432  -18.4818 C   0  0  0  0  0  0  0  0  0  0  0  0
   18.4555  -10.0421  -17.4816 C   0  0  2  0  0  0  0  0  0  0  0  0
   17.2764  -10.5030  -16.8685 N   0  0  0  0  0  0  0  0  0  0  0  0
   19.4870   -9.5153  -16.5649 C   0  0  0  0  0  0  0  0  0  0  0  0
   19.0735   -9.1157  -15.4553 O   0  0  0  0  0  0  0  0  0  0  0  0
   20.8442   -9.4690  -16.9231 N   0  0  0  0  0  0  0  0  0  0  0  0
   21.9374   -8.9383  -16.1668 C   0  0  1  0  0  0  0  0  0  0  0  0
   23.3039   -9.4789  -16.5046 C   0  0  0  0  0  0  0  0  0  0  0  0
   23.5208  -10.9134  -16.2030 C   0  0  0  0  0  0  0  0  0  0  0  0
   24.8218  -11.4531  -16.7558 C   0  0  0  0  0  0  0  0  0  0  0  0
   24.9109  -12.9525  -16.6309 C   0  0  0  0  0  0  0  0  0  0  0  0
   26.0997  -13.5029  -17.2053 N   0  0  0  0  0  0  0  0  0  0  0  0
   21.9601   -7.4666  -16.2188 C   0  0  0  0  0  0  0  0  0  0  0  0
   21.9381   -6.8574  -17.3458 O   0  0  0  0  0  0  0  0  0  0  0  0
   19.5302   -5.2333  -14.8908 O   0  0  0  0  0  0  0  0  0  0  0  0
   20.5672   -4.8791  -15.7582 C   0  0  0  0  0  0  0  0  0  0  0  0
   21.9085   -5.2525  -15.1390 C   0  0  2  0  0  0  0  0  0  0  0  0
   22.0065   -6.6796  -15.0354 N   0  0  0  0  0  0  0  0  0  0  0  0
   22.0248   -4.5636  -13.8514 C   0  0  0  0  0  0  0  0  0  0  0  0
   22.0672   -5.2157  -12.7829 O   0  0  0  0  0  0  0  0  0  0  0  0
   22.0905   -3.1847  -13.7792 O   0  0  0  0  0  0  0  0  0  0  0  0
  2  1  1  0
  3  5  1  0
  3  2  1  0
  3  4  1  1
  5  7  1  0
  5  6  2  0
  7  8  1  0
  8 14  1  0
  9 10  1  0
  8  9  1  6
 10 11  1  0
 11 12  1  0
 12 13  1  0
 14 15  2  0
 14 19  1  0
 17 16  1  0
 18 17  1  1
 19 18  1  0
 20 18  1  0
 20 22  1  0
 21 20  2  0
M  END
$$$$
