GEI.pdb
     RDKit          3D

 22 21  0  0  1  0  0  0  0  0999 V2000
   16.5437  -12.4703  -15.0585 N   0  0  0  0  0  0  0  0  0  0  0  0
   15.9268  -11.2611  -15.6076 C   0  0  0  0  0  0  0  0  0  0  0  0
   17.0245  -10.3570  -16.0354 C   0  0  0  0  0  0  0  0  0  0  0  0
   18.1887  -10.8050  -16.3112 O   0  0  0  0  0  0  0  0  0  0  0  0
   16.7605   -8.9598  -16.1362 N   0  0  0  0  0  0  0  0  0  0  0  0
   17.7308   -8.1039  -16.7404 C   0  0  1  0  0  0  0  0  0  0  0  0
   17.1060   -7.0870  -17.6740 C   0  0  0  0  0  0  0  0  0  0  0  0
   17.3984   -7.4187  -19.1203 C   0  0  0  0  0  0  0  0  0  0  0  0
   17.5026   -6.1914  -19.9471 C   0  0  0  0  0  0  0  0  0  0  0  0
   18.3622   -6.1890  -20.8834 O   0  0  0  0  0  0  0  0  0  0  0  0
   18.5065   -7.4212  -15.6731 C   0  0  0  0  0  0  0  0  0  0  0  0
   17.9715   -7.0093  -14.6072 O   0  0  0  0  0  0  0  0  0  0  0  0
   16.7038   -5.0856  -19.7208 O   0  0  0  0  0  0  0  0  0  0  0  0
   23.0846   -9.4835  -14.0353 C   0  0  0  0  0  0  0  0  0  0  0  0
   21.7988   -8.7021  -14.0386 C   0  0  0  0  0  0  0  0  0  0  0  0
   21.9311   -7.2517  -14.3337 C   0  0  2  0  0  0  0  0  0  0  0  0
   22.5994   -6.5735  -13.1592 C   0  0  0  0  0  0  0  0  0  0  0  0
   20.6943   -6.5447  -14.7719 C   0  0  2  0  0  0  0  0  0  0  0  0
   19.9235   -7.1842  -15.7868 N   0  0  0  0  0  0  0  0  0  0  0  0
   20.9619   -5.1257  -15.0283 C   0  0  0  0  0  0  0  0  0  0  0  0
   21.3281   -4.6976  -16.2807 O   0  0  0  0  0  0  0  0  0  0  0  0
   20.8568   -4.2970  -14.1028 O   0  0  0  0  0  0  0  0  0  0  0  0
  2  1  1  0
  3  5  1  0
  3  2  1  0
  4  3  2  0
  6  5  1  0
  6 11  1  0
  6  7  1  1
  8  7  1  0
  9  8  1  0
 10  9  2  0
 11 19  1  0
 12 11  2  0
 13  9  1  0
 14 15  1  0
 16 18  1  0
 16 15  1  0
 16 17  1  1
 18 20  1  0
 18 19  1  6
 20 21  1  0
 22 20  2  0
M  END
$$$$
