GEI.pdb
     RDKit          3D

 22 21  0  0  1  0  0  0  0  0999 V2000
   28.8810  -21.9341  -16.6535 N   0  0  0  0  0  0  0  0  0  0  0  0
   27.4527  -21.9087  -16.9749 C   0  0  0  0  0  0  0  0  0  0  0  0
   26.8083  -20.9328  -16.0595 C   0  0  0  0  0  0  0  0  0  0  0  0
   27.4991  -20.1118  -15.3660 O   0  0  0  0  0  0  0  0  0  0  0  0
   25.3863  -20.9223  -15.9611 N   0  0  0  0  0  0  0  0  0  0  0  0
   24.7453  -19.9280  -15.1615 C   0  0  1  0  0  0  0  0  0  0  0  0
   23.6792  -19.1684  -15.9248 C   0  0  0  0  0  0  0  0  0  0  0  0
   24.2121  -18.6514  -17.2423 C   0  0  0  0  0  0  0  0  0  0  0  0
   23.2007  -17.8289  -17.9503 C   0  0  0  0  0  0  0  0  0  0  0  0
   23.4608  -16.5954  -18.1131 O   0  0  0  0  0  0  0  0  0  0  0  0
   24.1609  -20.5756  -13.9590 C   0  0  0  0  0  0  0  0  0  0  0  0
   23.4641  -21.6253  -14.0281 O   0  0  0  0  0  0  0  0  0  0  0  0
   22.0170  -18.3675  -18.4202 O   0  0  0  0  0  0  0  0  0  0  0  0
   26.7701  -20.1727   -9.0518 C   0  0  0  0  0  0  0  0  0  0  0  0
   25.9649  -20.7635  -10.1772 C   0  0  0  0  0  0  0  0  0  0  0  0
   24.5213  -20.4109  -10.1864 C   0  0  2  0  0  0  0  0  0  0  0  0
   23.8484  -21.0780   -9.0081 C   0  0  0  0  0  0  0  0  0  0  0  0
   23.7878  -20.6362  -11.4642 C   0  0  2  0  0  0  0  0  0  0  0  0
   24.3522  -20.0453  -12.6326 N   0  0  0  0  0  0  0  0  0  0  0  0
   22.3527  -20.3831  -11.2990 C   0  0  0  0  0  0  0  0  0  0  0  0
   21.5373  -21.3261  -10.7230 O   0  0  0  0  0  0  0  0  0  0  0  0
   21.8645  -19.3023  -11.6837 O   0  0  0  0  0  0  0  0  0  0  0  0
  2  1  1  0
  3  5  1  0
  3  2  1  0
  4  3  2  0
  6  5  1  0
  6 11  1  0
  6  7  1  6
  8  7  1  0
  9  8  1  0
 10  9  2  0
 11 19  1  0
 12 11  2  0
 13  9  1  0
 14 15  1  0
 16 18  1  0
 16 15  1  0
 16 17  1  1
 18 20  1  0
 18 19  1  6
 20 21  1  0
 22 20  2  0
M  END
$$$$
