GEI.pdb
     RDKit          3D

 22 21  0  0  1  0  0  0  0  0999 V2000
   31.4829  -33.6364    4.5905 N   0  0  0  0  0  0  0  0  0  0  0  0
   30.8255  -34.5192    3.6248 C   0  0  0  0  0  0  0  0  0  0  0  0
   29.7103  -33.7545    3.0107 C   0  0  0  0  0  0  0  0  0  0  0  0
   29.3985  -32.5851    3.4198 O   0  0  0  0  0  0  0  0  0  0  0  0
   28.9789  -34.3500    1.9420 N   0  0  0  0  0  0  0  0  0  0  0  0
   27.9693  -33.5922    1.2745 C   0  0  1  0  0  0  0  0  0  0  0  0
   27.7036  -34.0916   -0.1313 C   0  0  0  0  0  0  0  0  0  0  0  0
   28.8397  -33.7346   -1.0635 C   0  0  0  0  0  0  0  0  0  0  0  0
   28.5733  -34.2024   -2.4459 C   0  0  0  0  0  0  0  0  0  0  0  0
   29.0976  -35.3044   -2.8010 O   0  0  0  0  0  0  0  0  0  0  0  0
   26.7231  -33.6273    2.0823 C   0  0  0  0  0  0  0  0  0  0  0  0
   26.3602  -34.6535    2.7204 O   0  0  0  0  0  0  0  0  0  0  0  0
   27.7882  -33.4797   -3.3253 O   0  0  0  0  0  0  0  0  0  0  0  0
   24.6180  -29.2950    5.0052 C   0  0  0  0  0  0  0  0  0  0  0  0
   25.0723  -30.6120    4.4370 C   0  0  0  0  0  0  0  0  0  0  0  0
   24.1290  -31.2608    3.4896 C   0  0  2  0  0  0  0  0  0  0  0  0
   22.7823  -31.4027    4.1620 C   0  0  0  0  0  0  0  0  0  0  0  0
   24.5868  -32.5305    2.8572 C   0  0  2  0  0  0  0  0  0  0  0  0
   25.8458  -32.4888    2.1891 N   0  0  0  0  0  0  0  0  0  0  0  0
   23.5118  -33.1443    2.0707 C   0  0  0  0  0  0  0  0  0  0  0  0
   23.4153  -32.9168    0.7199 O   0  0  0  0  0  0  0  0  0  0  0  0
   22.6758  -33.8806    2.6304 O   0  0  0  0  0  0  0  0  0  0  0  0
  2  1  1  0
  3  5  1  0
  3  2  1  0
  4  3  2  0
  6  5  1  0
  6 11  1  0
  6  7  1  6
  8  7  1  0
  9  8  1  0
 10  9  2  0
 11 19  1  0
 12 11  2  0
 13  9  1  0
 14 15  1  0
 16 18  1  0
 16 15  1  0
 16 17  1  1
 18 20  1  0
 18 19  1  6
 20 21  1  0
 22 20  2  0
M  END
$$$$
