GEI.pdb
     RDKit          3D

 22 21  0  0  1  0  0  0  0  0999 V2000
   28.4960  -18.3931  -16.5685 N   0  0  0  0  0  0  0  0  0  0  0  0
   28.8319  -19.3098  -15.4772 C   0  0  0  0  0  0  0  0  0  0  0  0
   27.7333  -19.2362  -14.4807 C   0  0  0  0  0  0  0  0  0  0  0  0
   27.6718  -18.2904  -13.6240 O   0  0  0  0  0  0  0  0  0  0  0  0
   26.7313  -20.2500  -14.4903 N   0  0  0  0  0  0  0  0  0  0  0  0
   25.6068  -20.1338  -13.6180 C   0  0  1  0  0  0  0  0  0  0  0  0
   24.3184  -20.5961  -14.2680 C   0  0  0  0  0  0  0  0  0  0  0  0
   23.1418  -20.4284  -13.3326 C   0  0  0  0  0  0  0  0  0  0  0  0
   21.8677  -20.8058  -13.9920 C   0  0  0  0  0  0  0  0  0  0  0  0
   21.8140  -21.9465  -14.5501 O   0  0  0  0  0  0  0  0  0  0  0  0
   25.8714  -20.9105  -12.3797 C   0  0  0  0  0  0  0  0  0  0  0  0
   26.2891  -22.1009  -12.4050 O   0  0  0  0  0  0  0  0  0  0  0  0
   20.7728  -19.9613  -14.0079 O   0  0  0  0  0  0  0  0  0  0  0  0
   27.4394  -18.9929   -7.0603 C   0  0  0  0  0  0  0  0  0  0  0  0
   26.5508  -19.3268   -8.2277 C   0  0  0  0  0  0  0  0  0  0  0  0
   26.8271  -20.6269   -8.8922 C   0  0  2  0  0  0  0  0  0  0  0  0
   28.2171  -20.5859   -9.4858 C   0  0  0  0  0  0  0  0  0  0  0  0
   25.8060  -21.1090   -9.8651 C   0  0  2  0  0  0  0  0  0  0  0  0
   25.6673  -20.3534  -11.0663 N   0  0  0  0  0  0  0  0  0  0  0  0
   24.5361  -21.4030   -9.1928 C   0  0  0  0  0  0  0  0  0  0  0  0
   23.3728  -20.7958   -9.5976 O   0  0  0  0  0  0  0  0  0  0  0  0
   24.5084  -22.2118   -8.2444 O   0  0  0  0  0  0  0  0  0  0  0  0
  2  1  1  0
  3  5  1  0
  3  2  1  0
  4  3  2  0
  6  5  1  0
  6 11  1  0
  6  7  1  6
  8  7  1  0
  9  8  1  0
 10  9  2  0
 11 19  1  0
 12 11  2  0
 13  9  1  0
 14 15  1  0
 16 18  1  0
 16 15  1  0
 16 17  1  6
 18 20  1  0
 18 19  1  6
 20 21  1  0
 22 20  2  0
M  END
$$$$
