GEI.pdb
     RDKit          3D

 22 21  0  0  1  0  0  0  0  0999 V2000
   26.0587  -25.9321  -16.6627 N   0  0  0  0  0  0  0  0  0  0  0  0
   24.9767  -25.0446  -16.2317 C   0  0  0  0  0  0  0  0  0  0  0  0
   25.5903  -23.9464  -15.4424 C   0  0  0  0  0  0  0  0  0  0  0  0
   26.8375  -23.9400  -15.1654 O   0  0  0  0  0  0  0  0  0  0  0  0
   24.7582  -22.8816  -14.9891 N   0  0  0  0  0  0  0  0  0  0  0  0
   25.3449  -21.7760  -14.3017 C   0  0  1  0  0  0  0  0  0  0  0  0
   25.0587  -20.4523  -14.9815 C   0  0  0  0  0  0  0  0  0  0  0  0
   26.2777  -19.5572  -14.9731 C   0  0  0  0  0  0  0  0  0  0  0  0
   26.8628  -19.4263  -16.3300 C   0  0  0  0  0  0  0  0  0  0  0  0
   26.0615  -19.2169  -17.2941 O   0  0  0  0  0  0  0  0  0  0  0  0
   24.8501  -21.7581  -12.9011 C   0  0  0  0  0  0  0  0  0  0  0  0
   23.7293  -22.2366  -12.5742 O   0  0  0  0  0  0  0  0  0  0  0  0
   28.2237  -19.5261  -16.5538 O   0  0  0  0  0  0  0  0  0  0  0  0
   26.5201  -19.7693   -7.1047 C   0  0  0  0  0  0  0  0  0  0  0  0
   25.5884  -20.4323   -8.0825 C   0  0  0  0  0  0  0  0  0  0  0  0
   26.0619  -20.4759   -9.4904 C   0  0  2  0  0  0  0  0  0  0  0  0
   26.5380  -19.0971   -9.8881 C   0  0  0  0  0  0  0  0  0  0  0  0
   25.1277  -21.0667  -10.4903 C   0  0  2  0  0  0  0  0  0  0  0  0
   25.6200  -21.1913  -11.8226 N   0  0  0  0  0  0  0  0  0  0  0  0
   23.7997  -20.4512  -10.3979 C   0  0  0  0  0  0  0  0  0  0  0  0
   22.8795  -20.9057   -9.4857 O   0  0  0  0  0  0  0  0  0  0  0  0
   23.4999  -19.5056  -11.1531 O   0  0  0  0  0  0  0  0  0  0  0  0
  2  1  1  0
  3  5  1  0
  3  2  1  0
  4  3  2  0
  6  5  1  0
  6 11  1  0
  6  7  1  6
  8  7  1  0
  9  8  1  0
 10  9  2  0
 11 19  1  0
 12 11  2  0
 13  9  1  0
 14 15  1  0
 16 18  1  0
 16 15  1  0
 16 17  1  6
 18 20  1  0
 18 19  1  6
 20 21  1  0
 22 20  2  0
M  END
$$$$
