GEI.pdb
     RDKit          3D

 22 21  0  0  1  0  0  0  0  0999 V2000
   13.7134  -12.2904  -12.7949 N   0  0  0  0  0  0  0  0  0  0  0  0
   13.5403  -11.0169  -13.4964 C   0  0  0  0  0  0  0  0  0  0  0  0
   14.3982  -10.0140  -12.8154 C   0  0  0  0  0  0  0  0  0  0  0  0
   14.7855  -10.1765  -11.6089 O   0  0  0  0  0  0  0  0  0  0  0  0
   14.7911   -8.8479  -13.5349 N   0  0  0  0  0  0  0  0  0  0  0  0
   15.6495   -7.8932  -12.9097 C   0  0  1  0  0  0  0  0  0  0  0  0
   16.3404   -6.9906  -13.9118 C   0  0  0  0  0  0  0  0  0  0  0  0
   17.4434   -7.7246  -14.6411 C   0  0  0  0  0  0  0  0  0  0  0  0
   18.6420   -7.8919  -13.7830 C   0  0  0  0  0  0  0  0  0  0  0  0
   19.2930   -6.8438  -13.4780 O   0  0  0  0  0  0  0  0  0  0  0  0
   14.8575   -7.0877  -11.9450 C   0  0  0  0  0  0  0  0  0  0  0  0
   13.6997   -6.6622  -12.2104 O   0  0  0  0  0  0  0  0  0  0  0  0
   19.0481   -9.1320  -13.3254 O   0  0  0  0  0  0  0  0  0  0  0  0
   12.4512   -6.5014   -6.6214 C   0  0  0  0  0  0  0  0  0  0  0  0
   13.4421   -5.7706   -7.4863 C   0  0  0  0  0  0  0  0  0  0  0  0
   14.1804   -6.6104   -8.4650 C   0  0  2  0  0  0  0  0  0  0  0  0
   15.3035   -7.3237   -7.7468 C   0  0  0  0  0  0  0  0  0  0  0  0
   14.6396   -5.9342   -9.7114 C   0  0  2  0  0  0  0  0  0  0  0  0
   15.3619   -6.7390  -10.6407 N   0  0  0  0  0  0  0  0  0  0  0  0
   15.2790   -4.6496   -9.4084 C   0  0  0  0  0  0  0  0  0  0  0  0
   16.6213   -4.4657   -9.6325 O   0  0  0  0  0  0  0  0  0  0  0  0
   14.6005   -3.7129   -8.9430 O   0  0  0  0  0  0  0  0  0  0  0  0
  2  1  1  0
  3  5  1  0
  3  2  1  0
  4  3  2  0
  6  5  1  0
  6 11  1  0
  6  7  1  6
  8  7  1  0
  9  8  1  0
 10  9  2  0
 11 19  1  0
 12 11  2  0
 13  9  1  0
 14 15  1  0
 16 18  1  0
 16 15  1  0
 16 17  1  1
 18 20  1  0
 18 19  1  1
 20 21  1  0
 22 20  2  0
M  END
$$$$
