PME.pdb
     RDKit          3D

 25 25  0  0  1  0  0  0  0  0999 V2000
    7.1402  -15.2975   19.5901 N   0  0  0  0  0  0  0  0  0  0  0  0
    6.5485  -14.8676   18.3335 C   0  0  0  0  0  0  0  0  0  0  0  0
    7.2771  -13.6610   17.8963 C   0  0  0  0  0  0  0  0  0  0  0  0
    7.9947  -13.1655   19.1312 C   0  0  0  0  0  0  0  0  0  0  0  0
    8.3061  -14.5079   19.7898 C   0  0  1  0  0  0  0  0  0  0  0  0
    8.7663  -14.3736   21.1801 C   0  0  0  0  0  0  0  0  0  0  0  0
    9.9942  -14.0285   21.2999 O   0  0  0  0  0  0  0  0  0  0  0  0
    6.3201  -11.7294   27.9924 C   0  0  0  0  0  0  0  0  0  0  0  0
    5.8091  -12.7815   26.6049 S   0  0  0  0  0  0  0  0  0  0  0  0
    7.3216  -13.5277   25.8777 C   0  0  0  0  0  0  0  0  0  0  0  0
    7.0134  -13.8555   24.4639 C   0  0  0  0  0  0  0  0  0  0  0  0
    8.2397  -14.2646   23.6404 C   0  0  2  0  0  0  0  0  0  0  0  0
    7.9384  -14.6031   22.2787 N   0  0  0  0  0  0  0  0  0  0  0  0
    8.8698  -15.4008   24.3571 C   0  0  0  0  0  0  0  0  0  0  0  0
    8.2816  -16.5383   24.3680 O   0  0  0  0  0  0  0  0  0  0  0  0
   10.1079  -15.2832   25.0384 N   0  0  0  0  0  0  0  0  0  0  0  0
   10.9673  -16.4315   25.1915 C   0  0  1  0  0  0  0  0  0  0  0  0
   12.4035  -16.1083   24.8646 C   0  0  0  0  0  0  0  0  0  0  0  0
   13.3393  -17.2536   25.0866 C   0  0  0  0  0  0  0  0  0  0  0  0
   14.7370  -16.9127   24.7150 C   0  0  0  0  0  0  0  0  0  0  0  0
   14.9802  -16.6910   23.4929 O   0  0  0  0  0  0  0  0  0  0  0  0
   10.7936  -16.9986   26.5357 C   0  0  0  0  0  0  0  0  0  0  0  0
   11.2327  -18.2671   26.8422 O   0  0  0  0  0  0  0  0  0  0  0  0
   15.7594  -16.8320   25.6452 O   0  0  0  0  0  0  0  0  0  0  0  0
   10.2399  -16.3323   27.4292 O   0  0  0  0  0  0  0  0  0  0  0  0
  1  5  1  0
  2  1  1  0
  3  2  1  0
  4  3  1  0
  4  5  1  0
  5  6  1  1
  6 13  1  0
  6  7  2  0
  9  8  1  0
 10  9  1  0
 11 10  1  0
 12 14  1  0
 12 11  1  1
 13 12  1  0
 14 15  2  0
 16 17  1  0
 16 14  1  0
 18 19  1  0
 17 18  1  1
 19 20  1  0
 20 21  2  0
 20 24  1  0
 22 17  1  0
 23 22  1  0
 25 22  2  0
M  END
$$$$
