PME.pdb
     RDKit          3D

 25 25  0  0  1  0  0  0  0  0999 V2000
    7.5766  -15.2691   19.7007 N   0  0  0  0  0  0  0  0  0  0  0  0
    6.9635  -14.7641   18.4830 C   0  0  0  0  0  0  0  0  0  0  0  0
    7.4807  -13.3992   18.2654 C   0  0  0  0  0  0  0  0  0  0  0  0
    8.0536  -12.9781   19.5995 C   0  0  0  0  0  0  0  0  0  0  0  0
    8.5753  -14.3306   20.0808 C   0  0  1  0  0  0  0  0  0  0  0  0
    8.9539  -14.3285   21.5018 C   0  0  0  0  0  0  0  0  0  0  0  0
   10.2048  -14.1537   21.7158 O   0  0  0  0  0  0  0  0  0  0  0  0
    6.8763  -10.9147   27.1154 C   0  0  0  0  0  0  0  0  0  0  0  0
    6.0986  -12.5348   26.8626 S   0  0  0  0  0  0  0  0  0  0  0  0
    7.3738  -13.6722   26.1891 C   0  0  0  0  0  0  0  0  0  0  0  0
    7.0997  -13.8304   24.7396 C   0  0  0  0  0  0  0  0  0  0  0  0
    8.2991  -14.3413   23.9336 C   0  0  2  0  0  0  0  0  0  0  0  0
    8.0312  -14.5030   22.5330 N   0  0  0  0  0  0  0  0  0  0  0  0
    8.7145  -15.6208   24.5596 C   0  0  0  0  0  0  0  0  0  0  0  0
    7.9034  -16.6119   24.5571 O   0  0  0  0  0  0  0  0  0  0  0  0
    9.9832  -15.7983   25.1676 N   0  0  0  0  0  0  0  0  0  0  0  0
   10.3918  -17.1005   25.6343 C   0  0  1  0  0  0  0  0  0  0  0  0
   11.8356  -17.3888   25.3082 C   0  0  0  0  0  0  0  0  0  0  0  0
   12.1834  -17.1500   23.8733 C   0  0  0  0  0  0  0  0  0  0  0  0
   13.6142  -17.4345   23.5909 C   0  0  0  0  0  0  0  0  0  0  0  0
   14.4702  -16.6011   24.0089 O   0  0  0  0  0  0  0  0  0  0  0  0
   10.0857  -17.2271   27.0658 C   0  0  0  0  0  0  0  0  0  0  0  0
   10.2618  -18.4174   27.7352 O   0  0  0  0  0  0  0  0  0  0  0  0
   14.0304  -18.5594   22.8993 O   0  0  0  0  0  0  0  0  0  0  0  0
    9.6572  -16.2477   27.7029 O   0  0  0  0  0  0  0  0  0  0  0  0
  1  5  1  0
  2  1  1  0
  3  2  1  0
  4  3  1  0
  4  5  1  0
  5  6  1  1
  6 13  1  0
  6  7  2  0
  9  8  1  0
 10  9  1  0
 11 10  1  0
 12 14  1  0
 12 11  1  1
 13 12  1  0
 14 15  2  0
 16 17  1  0
 16 14  1  0
 18 19  1  0
 17 18  1  1
 19 20  1  0
 20 21  2  0
 20 24  1  0
 22 17  1  0
 23 22  1  0
 25 22  2  0
M  END
$$$$
