PME.pdb
     RDKit          3D

 25 25  0  0  1  0  0  0  0  0999 V2000
    7.4825  -15.0564   19.7889 N   0  0  0  0  0  0  0  0  0  0  0  0
    7.0419  -14.5536   18.4978 C   0  0  0  0  0  0  0  0  0  0  0  0
    7.7148  -13.2585   18.2791 C   0  0  0  0  0  0  0  0  0  0  0  0
    8.1997  -12.8312   19.6457 C   0  0  0  0  0  0  0  0  0  0  0  0
    8.5320  -14.2033   20.2287 C   0  0  1  0  0  0  0  0  0  0  0  0
    8.7732  -14.1691   21.6790 C   0  0  0  0  0  0  0  0  0  0  0  0
    9.9583  -13.8126   22.0099 O   0  0  0  0  0  0  0  0  0  0  0  0
    7.2748  -12.2556   28.5294 C   0  0  0  0  0  0  0  0  0  0  0  0
    7.1183  -12.3193   26.7225 S   0  0  0  0  0  0  0  0  0  0  0  0
    6.7487  -14.0553   26.2505 C   0  0  0  0  0  0  0  0  0  0  0  0
    6.6203  -14.0908   24.7728 C   0  0  0  0  0  0  0  0  0  0  0  0
    7.9341  -14.3919   24.0430 C   0  0  2  0  0  0  0  0  0  0  0  0
    7.7962  -14.4977   22.6185 N   0  0  0  0  0  0  0  0  0  0  0  0
    8.4673  -15.6447   24.6328 C   0  0  0  0  0  0  0  0  0  0  0  0
    7.7276  -16.6898   24.6578 O   0  0  0  0  0  0  0  0  0  0  0  0
    9.7737  -15.7386   25.1764 N   0  0  0  0  0  0  0  0  0  0  0  0
   10.3538  -17.0283   25.4601 C   0  0  1  0  0  0  0  0  0  0  0  0
   11.6727  -17.2206   24.7547 C   0  0  0  0  0  0  0  0  0  0  0  0
   12.6040  -16.0595   24.9015 C   0  0  0  0  0  0  0  0  0  0  0  0
   13.8055  -16.1948   24.0378 C   0  0  0  0  0  0  0  0  0  0  0  0
   13.6310  -16.1705   22.7844 O   0  0  0  0  0  0  0  0  0  0  0  0
   10.4430  -17.2170   26.9145 C   0  0  0  0  0  0  0  0  0  0  0  0
   10.0245  -16.2421   27.7921 O   0  0  0  0  0  0  0  0  0  0  0  0
   15.0826  -16.3434   24.5515 O   0  0  0  0  0  0  0  0  0  0  0  0
   10.9040  -18.2747   27.3810 O   0  0  0  0  0  0  0  0  0  0  0  0
  1  5  1  0
  2  1  1  0
  3  2  1  0
  4  3  1  0
  4  5  1  0
  5  6  1  1
  6 13  1  0
  6  7  2  0
  9  8  1  0
 10  9  1  0
 11 10  1  0
 12 14  1  0
 12 11  1  1
 13 12  1  0
 14 15  2  0
 16 17  1  0
 16 14  1  0
 18 19  1  0
 17 18  1  6
 19 20  1  0
 20 21  2  0
 20 24  1  0
 22 17  1  0
 23 22  1  0
 25 22  2  0
M  END
$$$$
