PME.pdb
     RDKit          3D

 25 25  0  0  1  0  0  0  0  0999 V2000
    7.1928  -15.0501   19.6084 N   0  0  0  0  0  0  0  0  0  0  0  0
    6.7106  -14.3753   18.4143 C   0  0  0  0  0  0  0  0  0  0  0  0
    7.4500  -13.1031   18.3012 C   0  0  0  0  0  0  0  0  0  0  0  0
    8.0394  -12.8671   19.6731 C   0  0  0  0  0  0  0  0  0  0  0  0
    8.3178  -14.3147   20.0733 C   0  0  1  0  0  0  0  0  0  0  0  0
    8.6445  -14.4646   21.4992 C   0  0  0  0  0  0  0  0  0  0  0  0
    9.8941  -14.6065   21.7436 O   0  0  0  0  0  0  0  0  0  0  0  0
    7.5959  -11.9190   28.3085 C   0  0  0  0  0  0  0  0  0  0  0  0
    7.2490  -12.0964   26.5360 S   0  0  0  0  0  0  0  0  0  0  0  0
    6.9526  -13.8768   26.1961 C   0  0  0  0  0  0  0  0  0  0  0  0
    6.6872  -14.0081   24.7423 C   0  0  0  0  0  0  0  0  0  0  0  0
    7.9326  -14.3372   23.9115 C   0  0  2  0  0  0  0  0  0  0  0  0
    7.6776  -14.4549   22.5042 N   0  0  0  0  0  0  0  0  0  0  0  0
    8.4931  -15.5924   24.4700 C   0  0  0  0  0  0  0  0  0  0  0  0
    7.8476  -16.6881   24.3199 O   0  0  0  0  0  0  0  0  0  0  0  0
    9.7254  -15.6344   25.1705 N   0  0  0  0  0  0  0  0  0  0  0  0
   10.3172  -16.9002   25.5283 C   0  0  1  0  0  0  0  0  0  0  0  0
   11.7578  -16.9923   25.0921 C   0  0  0  0  0  0  0  0  0  0  0  0
   12.4243  -18.2687   25.4964 C   0  0  0  0  0  0  0  0  0  0  0  0
   13.4804  -18.6764   24.5339 C   0  0  0  0  0  0  0  0  0  0  0  0
   14.6199  -18.1385   24.6529 O   0  0  0  0  0  0  0  0  0  0  0  0
   10.1319  -17.1395   26.9661 C   0  0  0  0  0  0  0  0  0  0  0  0
   10.4471  -18.3513   27.5389 O   0  0  0  0  0  0  0  0  0  0  0  0
   13.2604  -19.6068   23.5325 O   0  0  0  0  0  0  0  0  0  0  0  0
    9.6815  -16.2388   27.6974 O   0  0  0  0  0  0  0  0  0  0  0  0
  1  5  1  0
  2  1  1  0
  3  2  1  0
  4  3  1  0
  4  5  1  0
  5  6  1  1
  6 13  1  0
  6  7  2  0
  9  8  1  0
 10  9  1  0
 11 10  1  0
 12 14  1  0
 12 11  1  1
 13 12  1  0
 14 15  2  0
 16 17  1  0
 16 14  1  0
 18 19  1  0
 17 18  1  1
 19 20  1  0
 20 21  2  0
 20 24  1  0
 22 17  1  0
 23 22  1  0
 25 22  2  0
M  END
$$$$
