PME.pdb
     RDKit          3D

 25 25  0  0  1  0  0  0  0  0999 V2000
    7.6426  -15.2546   19.7068 N   0  0  0  0  0  0  0  0  0  0  0  0
    7.0566  -14.7608   18.4712 C   0  0  0  0  0  0  0  0  0  0  0  0
    7.5553  -13.3868   18.2682 C   0  0  0  0  0  0  0  0  0  0  0  0
    8.0810  -12.9554   19.6184 C   0  0  0  0  0  0  0  0  0  0  0  0
    8.6125  -14.2982   20.1157 C   0  0  1  0  0  0  0  0  0  0  0  0
    8.9489  -14.2892   21.5472 C   0  0  0  0  0  0  0  0  0  0  0  0
   10.1988  -14.1594   21.7962 O   0  0  0  0  0  0  0  0  0  0  0  0
    6.4181  -10.9078   27.3828 C   0  0  0  0  0  0  0  0  0  0  0  0
    5.8119  -12.5231   26.8200 S   0  0  0  0  0  0  0  0  0  0  0  0
    7.2457  -13.4644   26.1631 C   0  0  0  0  0  0  0  0  0  0  0  0
    7.0023  -13.6819   24.7158 C   0  0  0  0  0  0  0  0  0  0  0  0
    8.2189  -14.2231   23.9566 C   0  0  2  0  0  0  0  0  0  0  0  0
    7.9902  -14.4127   22.5526 N   0  0  0  0  0  0  0  0  0  0  0  0
    8.6014  -15.4929   24.6222 C   0  0  0  0  0  0  0  0  0  0  0  0
    7.8667  -16.5297   24.4633 O   0  0  0  0  0  0  0  0  0  0  0  0
    9.7569  -15.6121   25.4355 N   0  0  0  0  0  0  0  0  0  0  0  0
   10.5714  -16.8009   25.3744 C   0  0  1  0  0  0  0  0  0  0  0  0
   11.8990  -16.5410   24.7083 C   0  0  0  0  0  0  0  0  0  0  0  0
   12.8031  -17.7324   24.6923 C   0  0  0  0  0  0  0  0  0  0  0  0
   14.0829  -17.4527   23.9910 C   0  0  0  0  0  0  0  0  0  0  0  0
   14.9663  -16.8025   24.6224 O   0  0  0  0  0  0  0  0  0  0  0  0
   10.7024  -17.3757   26.7203 C   0  0  0  0  0  0  0  0  0  0  0  0
   10.1680  -16.7492   27.8238 O   0  0  0  0  0  0  0  0  0  0  0  0
   14.3330  -17.8729   22.6957 O   0  0  0  0  0  0  0  0  0  0  0  0
   11.3061  -18.4514   26.8852 O   0  0  0  0  0  0  0  0  0  0  0  0
  1  5  1  0
  2  1  1  0
  3  2  1  0
  4  3  1  0
  4  5  1  0
  5  6  1  1
  6 13  1  0
  6  7  2  0
  9  8  1  0
 10  9  1  0
 11 10  1  0
 12 14  1  0
 12 11  1  1
 13 12  1  0
 14 15  2  0
 16 17  1  0
 16 14  1  0
 18 19  1  0
 17 18  1  1
 19 20  1  0
 20 21  2  0
 20 24  1  0
 22 17  1  0
 23 22  1  0
 25 22  2  0
M  END
$$$$
