PME.pdb
     RDKit          3D

 25 25  0  0  1  0  0  0  0  0999 V2000
    7.2332  -16.1331   19.9889 N   0  0  0  0  0  0  0  0  0  0  0  0
    6.5466  -15.9579   18.7194 C   0  0  0  0  0  0  0  0  0  0  0  0
    7.1086  -14.7526   18.0798 C   0  0  0  0  0  0  0  0  0  0  0  0
    7.8090  -14.0068   19.1928 C   0  0  0  0  0  0  0  0  0  0  0  0
    8.3035  -15.1967   20.0128 C   0  0  1  0  0  0  0  0  0  0  0  0
    8.7975  -14.8128   21.3436 C   0  0  0  0  0  0  0  0  0  0  0  0
    9.9206  -14.1965   21.3335 O   0  0  0  0  0  0  0  0  0  0  0  0
    6.3635  -11.7538   28.0459 C   0  0  0  0  0  0  0  0  0  0  0  0
    5.9586  -12.6685   26.5317 S   0  0  0  0  0  0  0  0  0  0  0  0
    7.5226  -13.3485   25.8499 C   0  0  0  0  0  0  0  0  0  0  0  0
    7.1904  -14.0087   24.5635 C   0  0  0  0  0  0  0  0  0  0  0  0
    8.4090  -14.5665   23.8197 C   0  0  2  0  0  0  0  0  0  0  0  0
    8.1047  -15.0951   22.5207 N   0  0  0  0  0  0  0  0  0  0  0  0
    9.0056  -15.5998   24.7017 C   0  0  0  0  0  0  0  0  0  0  0  0
    8.3830  -16.7042   24.8831 O   0  0  0  0  0  0  0  0  0  0  0  0
   10.2480  -15.4183   25.3607 N   0  0  0  0  0  0  0  0  0  0  0  0
   11.0489  -16.5586   25.7329 C   0  0  1  0  0  0  0  0  0  0  0  0
   12.5202  -16.3091   25.5160 C   0  0  0  0  0  0  0  0  0  0  0  0
   13.1156  -17.1501   24.4319 C   0  0  0  0  0  0  0  0  0  0  0  0
   14.5121  -16.7508   24.1188 C   0  0  0  0  0  0  0  0  0  0  0  0
   15.0846  -17.3334   23.1519 O   0  0  0  0  0  0  0  0  0  0  0  0
   10.7266  -16.9560   27.1102 C   0  0  0  0  0  0  0  0  0  0  0  0
   11.2695  -18.0875   27.6768 O   0  0  0  0  0  0  0  0  0  0  0  0
   15.1914  -15.7815   24.8370 O   0  0  0  0  0  0  0  0  0  0  0  0
    9.9480  -16.2671   27.7943 O   0  0  0  0  0  0  0  0  0  0  0  0
  1  5  1  0
  2  1  1  0
  3  2  1  0
  4  3  1  0
  4  5  1  0
  5  6  1  1
  6 13  1  0
  6  7  2  0
  9  8  1  0
 10  9  1  0
 11 10  1  0
 12 14  1  0
 12 11  1  1
 13 12  1  0
 14 15  2  0
 16 17  1  0
 16 14  1  0
 18 19  1  0
 17 18  1  1
 19 20  1  0
 20 21  2  0
 20 24  1  0
 22 17  1  0
 23 22  1  0
 25 22  2  0
M  END
$$$$
