PME.pdb
     RDKit          3D

 25 25  0  0  1  0  0  0  0  0999 V2000
    7.5160  -15.2762   19.6423 N   0  0  0  0  0  0  0  0  0  0  0  0
    6.8354  -14.7729   18.4602 C   0  0  0  0  0  0  0  0  0  0  0  0
    7.3031  -13.3906   18.2405 C   0  0  0  0  0  0  0  0  0  0  0  0
    7.9221  -12.9710   19.5543 C   0  0  0  0  0  0  0  0  0  0  0  0
    8.5032  -14.3140   19.9922 C   0  0  1  0  0  0  0  0  0  0  0  0
    8.9440  -14.3201   21.3951 C   0  0  0  0  0  0  0  0  0  0  0  0
   10.2129  -14.2376   21.5513 O   0  0  0  0  0  0  0  0  0  0  0  0
    6.9160  -11.9448   28.5782 C   0  0  0  0  0  0  0  0  0  0  0  0
    6.4154  -12.2894   26.8682 S   0  0  0  0  0  0  0  0  0  0  0  0
    7.7041  -13.3549   26.1085 C   0  0  0  0  0  0  0  0  0  0  0  0
    7.3266  -13.5552   24.6877 C   0  0  0  0  0  0  0  0  0  0  0  0
    8.4018  -14.2608   23.8537 C   0  0  2  0  0  0  0  0  0  0  0  0
    8.0579  -14.4093   22.4684 N   0  0  0  0  0  0  0  0  0  0  0  0
    8.6416  -15.5753   24.4989 C   0  0  0  0  0  0  0  0  0  0  0  0
    7.7122  -16.4563   24.4903 O   0  0  0  0  0  0  0  0  0  0  0  0
    9.8671  -15.9043   25.1320 N   0  0  0  0  0  0  0  0  0  0  0  0
   10.0763  -17.2250   25.6728 C   0  0  1  0  0  0  0  0  0  0  0  0
   11.3296  -17.8643   25.1303 C   0  0  0  0  0  0  0  0  0  0  0  0
   11.7063  -17.3786   23.7668 C   0  0  0  0  0  0  0  0  0  0  0  0
   13.1719  -17.1742   23.6320 C   0  0  0  0  0  0  0  0  0  0  0  0
   13.6219  -16.0096   23.8393 O   0  0  0  0  0  0  0  0  0  0  0  0
   10.0466  -17.1645   27.1406 C   0  0  0  0  0  0  0  0  0  0  0  0
   10.2119  -18.2948   27.9093 O   0  0  0  0  0  0  0  0  0  0  0  0
   14.0414  -18.1972   23.2939 O   0  0  0  0  0  0  0  0  0  0  0  0
    9.8694  -16.0766   27.7185 O   0  0  0  0  0  0  0  0  0  0  0  0
  1  5  1  0
  2  1  1  0
  3  2  1  0
  4  3  1  0
  4  5  1  0
  5  6  1  1
  6 13  1  0
  6  7  2  0
  9  8  1  0
 10  9  1  0
 11 10  1  0
 12 14  1  0
 12 11  1  1
 13 12  1  0
 14 15  2  0
 16 17  1  0
 16 14  1  0
 18 19  1  0
 17 18  1  1
 19 20  1  0
 20 21  2  0
 20 24  1  0
 22 17  1  0
 23 22  1  0
 25 22  2  0
M  END
$$$$
