KAD.pdb
     RDKit          3D

 23 22  0  0  1  0  0  0  0  0999 V2000
    8.3652  -17.0602   16.9784 N   0  0  0  0  0  0  0  0  0  0  0  0
    7.7727  -17.2383   18.2875 C   0  0  1  0  0  0  0  0  0  0  0  0
    7.5751  -18.6849   18.6371 C   0  0  0  0  0  0  0  0  0  0  0  0
    8.7977  -19.5201   18.6065 C   0  0  0  0  0  0  0  0  0  0  0  0
    8.6565  -20.9489   18.9700 C   0  0  0  0  0  0  0  0  0  0  0  0
    7.9287  -21.7743   17.9428 C   0  0  0  0  0  0  0  0  0  0  0  0
    7.7800  -23.1499   18.3793 N   0  0  0  0  0  0  0  0  0  0  0  0
    8.4920  -16.4979   19.3532 C   0  0  0  0  0  0  0  0  0  0  0  0
    9.7518  -16.4342   19.2973 O   0  0  0  0  0  0  0  0  0  0  0  0
    7.7211  -14.4392   22.4526 C   0  0  0  0  0  0  0  0  0  0  0  0
    8.6249  -15.0974   21.4413 C   0  0  2  0  0  0  0  0  0  0  0  0
    7.8795  -15.8435   20.4479 N   0  0  0  0  0  0  0  0  0  0  0  0
    9.6207  -15.9590   22.1358 C   0  0  0  0  0  0  0  0  0  0  0  0
    9.3147  -17.1485   22.4069 O   0  0  0  0  0  0  0  0  0  0  0  0
   10.9028  -15.5131   22.5121 N   0  0  0  0  0  0  0  0  0  0  0  0
   11.9103  -16.3669   23.1551 C   0  0  1  0  0  0  0  0  0  0  0  0
   13.2010  -15.5427   23.0750 C   0  0  0  0  0  0  0  0  0  0  0  0
   14.3630  -16.2446   23.6488 C   0  0  0  0  0  0  0  0  0  0  0  0
   14.6191  -17.4299   23.3225 O   0  0  0  0  0  0  0  0  0  0  0  0
   11.5219  -16.4952   24.5784 C   0  0  0  0  0  0  0  0  0  0  0  0
   11.9544  -17.5616   25.3226 O   0  0  0  0  0  0  0  0  0  0  0  0
   15.1884  -15.5941   24.5618 O   0  0  0  0  0  0  0  0  0  0  0  0
   10.7941  -15.6448   25.1422 O   0  0  0  0  0  0  0  0  0  0  0  0
  2  8  1  0
  2  1  1  6
  3  2  1  0
  4  3  1  0
  5  4  1  0
  6  5  1  0
  7  6  1  0
  8  9  2  0
 11 10  1  1
 12 11  1  0
 12  8  1  0
 13 11  1  0
 13 15  1  0
 14 13  2  0
 16 15  1  0
 16 17  1  1
 17 18  1  0
 18 22  1  0
 19 18  2  0
 20 16  1  0
 21 20  1  0
 23 20  2  0
M  END
$$$$
