KAD.pdb
     RDKit          3D

 23 22  0  0  1  0  0  0  0  0999 V2000
   12.2648  -14.6204   17.7450 N   0  0  0  0  0  0  0  0  0  0  0  0
   13.3178  -15.4027   18.3583 C   0  0  1  0  0  0  0  0  0  0  0  0
   14.4449  -14.5511   18.8666 C   0  0  0  0  0  0  0  0  0  0  0  0
   15.3742  -14.0414   17.8323 C   0  0  0  0  0  0  0  0  0  0  0  0
   16.5261  -13.2311   18.2906 C   0  0  0  0  0  0  0  0  0  0  0  0
   17.3535  -12.6538   17.1732 C   0  0  0  0  0  0  0  0  0  0  0  0
   18.4301  -11.8271   17.6857 N   0  0  0  0  0  0  0  0  0  0  0  0
   12.8141  -16.3402   19.3920 C   0  0  0  0  0  0  0  0  0  0  0  0
   11.7957  -16.0090   20.0609 O   0  0  0  0  0  0  0  0  0  0  0  0
   13.1714  -19.9183   20.4655 C   0  0  0  0  0  0  0  0  0  0  0  0
   12.8692  -18.4668   20.7388 C   0  0  2  0  0  0  0  0  0  0  0  0
   13.3846  -17.5976   19.7006 N   0  0  0  0  0  0  0  0  0  0  0  0
   13.3914  -18.0836   22.0793 C   0  0  0  0  0  0  0  0  0  0  0  0
   13.1108  -18.8030   23.0721 O   0  0  0  0  0  0  0  0  0  0  0  0
   14.1922  -16.9465   22.3030 N   0  0  0  0  0  0  0  0  0  0  0  0
   14.7158  -16.5604   23.6199 C   0  0  1  0  0  0  0  0  0  0  0  0
   15.6908  -15.4178   23.3112 C   0  0  0  0  0  0  0  0  0  0  0  0
   16.9656  -15.8928   22.7440 C   0  0  0  0  0  0  0  0  0  0  0  0
   17.5871  -15.2009   21.9000 O   0  0  0  0  0  0  0  0  0  0  0  0
   13.5777  -16.0116   24.3924 C   0  0  0  0  0  0  0  0  0  0  0  0
   13.7285  -15.6880   25.7155 O   0  0  0  0  0  0  0  0  0  0  0  0
   17.4913  -17.1186   23.1424 O   0  0  0  0  0  0  0  0  0  0  0  0
   12.4537  -15.8277   23.8694 O   0  0  0  0  0  0  0  0  0  0  0  0
  2  8  1  0
  2  1  1  1
  3  2  1  0
  4  3  1  0
  5  4  1  0
  6  5  1  0
  7  6  1  0
  8  9  2  0
 11 10  1  6
 12 11  1  0
 12  8  1  0
 13 11  1  0
 13 15  1  0
 14 13  2  0
 16 15  1  0
 16 17  1  6
 17 18  1  0
 18 22  1  0
 19 18  2  0
 20 16  1  0
 21 20  1  0
 23 20  2  0
M  END
$$$$
