KAD.pdb
     RDKit          3D

 23 22  0  0  1  0  0  0  0  0999 V2000
    8.7487  -14.9169   21.0232 N   0  0  0  0  0  0  0  0  0  0  0  0
    7.9000  -15.2122   22.1586 C   0  0  1  0  0  0  0  0  0  0  0  0
    7.4356  -16.6398   22.1733 C   0  0  0  0  0  0  0  0  0  0  0  0
    6.7021  -17.0832   20.9655 C   0  0  0  0  0  0  0  0  0  0  0  0
    6.4406  -18.5338   20.8210 C   0  0  0  0  0  0  0  0  0  0  0  0
    5.7450  -18.9071   19.5392 C   0  0  0  0  0  0  0  0  0  0  0  0
    5.5278  -20.3391   19.4537 N   0  0  0  0  0  0  0  0  0  0  0  0
    8.5026  -14.8060   23.4521 C   0  0  0  0  0  0  0  0  0  0  0  0
    9.7138  -15.0900   23.6679 O   0  0  0  0  0  0  0  0  0  0  0  0
    7.5819  -12.8474   26.5711 C   0  0  0  0  0  0  0  0  0  0  0  0
    8.4638  -13.7354   25.7305 C   0  0  2  0  0  0  0  0  0  0  0  0
    7.8274  -14.1146   24.4854 N   0  0  0  0  0  0  0  0  0  0  0  0
    8.8774  -14.9300   26.5169 C   0  0  0  0  0  0  0  0  0  0  0  0
    8.0578  -15.8710   26.6738 O   0  0  0  0  0  0  0  0  0  0  0  0
   10.1507  -15.0691   27.1032 N   0  0  0  0  0  0  0  0  0  0  0  0
   10.5607  -16.2303   27.9037 C   0  0  1  0  0  0  0  0  0  0  0  0
   12.0915  -16.2211   27.8138 C   0  0  0  0  0  0  0  0  0  0  0  0
   12.5910  -16.7404   26.5280 C   0  0  0  0  0  0  0  0  0  0  0  0
   11.7908  -17.1186   25.6371 O   0  0  0  0  0  0  0  0  0  0  0  0
   10.1702  -15.9484   29.3041 C   0  0  0  0  0  0  0  0  0  0  0  0
   10.2482  -16.9296   30.2575 O   0  0  0  0  0  0  0  0  0  0  0  0
   13.9609  -16.8155   26.2922 O   0  0  0  0  0  0  0  0  0  0  0  0
    9.7602  -14.8185   29.6593 O   0  0  0  0  0  0  0  0  0  0  0  0
  2  8  1  0
  2  1  1  6
  3  2  1  0
  4  3  1  0
  5  4  1  0
  6  5  1  0
  7  6  1  0
  8  9  2  0
 11 10  1  1
 12 11  1  0
 12  8  1  0
 13 11  1  0
 13 15  1  0
 14 13  2  0
 16 15  1  0
 16 17  1  1
 17 18  1  0
 18 22  1  0
 19 18  2  0
 20 16  1  0
 21 20  1  0
 23 20  2  0
M  END
$$$$
