KAD.pdb
     RDKit          3D

 23 22  0  0  1  0  0  0  0  0999 V2000
    9.0110  -18.9996   20.8583 N   0  0  0  0  0  0  0  0  0  0  0  0
    9.2774  -17.6109   21.1703 C   0  0  1  0  0  0  0  0  0  0  0  0
    8.7687  -16.6760   20.1115 C   0  0  0  0  0  0  0  0  0  0  0  0
    8.5317  -17.2866   18.7834 C   0  0  0  0  0  0  0  0  0  0  0  0
    7.2272  -17.9521   18.5620 C   0  0  0  0  0  0  0  0  0  0  0  0
    7.0424  -18.4919   17.1689 C   0  0  0  0  0  0  0  0  0  0  0  0
    5.7361  -19.1023   17.0079 N   0  0  0  0  0  0  0  0  0  0  0  0
    8.8169  -17.2246   22.5268 C   0  0  0  0  0  0  0  0  0  0  0  0
    9.1333  -16.0849   22.9685 O   0  0  0  0  0  0  0  0  0  0  0  0
    6.2540  -17.8591   25.0591 C   0  0  0  0  0  0  0  0  0  0  0  0
    7.7161  -17.6627   24.7484 C   0  0  2  0  0  0  0  0  0  0  0  0
    8.0390  -18.0358   23.3861 N   0  0  0  0  0  0  0  0  0  0  0  0
    8.5483  -18.4112   25.7301 C   0  0  0  0  0  0  0  0  0  0  0  0
    8.3612  -18.2209   26.9592 O   0  0  0  0  0  0  0  0  0  0  0  0
    9.5466  -19.3323   25.3570 N   0  0  0  0  0  0  0  0  0  0  0  0
   10.3688  -20.0815   26.3163 C   0  0  1  0  0  0  0  0  0  0  0  0
   11.2607  -20.9619   25.4325 C   0  0  0  0  0  0  0  0  0  0  0  0
   11.4332  -22.3227   25.9718 C   0  0  0  0  0  0  0  0  0  0  0  0
   12.1063  -23.1780   25.3454 O   0  0  0  0  0  0  0  0  0  0  0  0
   11.2252  -19.0946   27.0133 C   0  0  0  0  0  0  0  0  0  0  0  0
   11.8635  -18.1084   26.3076 O   0  0  0  0  0  0  0  0  0  0  0  0
   10.8473  -22.6701   27.1858 O   0  0  0  0  0  0  0  0  0  0  0  0
   11.3931  -19.1282   28.2548 O   0  0  0  0  0  0  0  0  0  0  0  0
  2  8  1  0
  2  1  1  6
  3  2  1  0
  4  3  1  0
  5  4  1  0
  6  5  1  0
  7  6  1  0
  8  9  2  0
 11 10  1  1
 12 11  1  0
 12  8  1  0
 13 11  1  0
 13 15  1  0
 14 13  2  0
 16 15  1  0
 16 17  1  6
 17 18  1  0
 18 22  1  0
 19 18  2  0
 20 16  1  0
 21 20  1  0
 23 20  2  0
M  END
$$$$
