KAD.pdb
     RDKit          3D

 23 22  0  0  1  0  0  0  0  0999 V2000
   10.2267  -19.1206   18.8324 N   0  0  0  0  0  0  0  0  0  0  0  0
   10.9888  -17.9219   18.5518 C   0  0  1  0  0  0  0  0  0  0  0  0
   10.8135  -17.4468   17.1385 C   0  0  0  0  0  0  0  0  0  0  0  0
    9.4156  -17.1927   16.7210 C   0  0  0  0  0  0  0  0  0  0  0  0
    9.1622  -16.9872   15.2763 C   0  0  0  0  0  0  0  0  0  0  0  0
    7.7029  -16.9280   14.9117 C   0  0  0  0  0  0  0  0  0  0  0  0
    7.5194  -16.8756   13.4734 N   0  0  0  0  0  0  0  0  0  0  0  0
   10.7505  -16.8408   19.5396 C   0  0  0  0  0  0  0  0  0  0  0  0
   11.5178  -15.8381   19.5324 O   0  0  0  0  0  0  0  0  0  0  0  0
    8.0846  -15.6467   21.8997 C   0  0  0  0  0  0  0  0  0  0  0  0
    9.5173  -15.7431   21.4406 C   0  0  2  0  0  0  0  0  0  0  0  0
    9.7189  -16.8334   20.5080 N   0  0  0  0  0  0  0  0  0  0  0  0
   10.4206  -15.8594   22.6183 C   0  0  0  0  0  0  0  0  0  0  0  0
   10.3385  -15.0045   23.5372 O   0  0  0  0  0  0  0  0  0  0  0  0
   11.3749  -16.8852   22.7649 N   0  0  0  0  0  0  0  0  0  0  0  0
   12.2550  -17.0235   23.9327 C   0  0  1  0  0  0  0  0  0  0  0  0
   12.2138  -18.5227   24.2529 C   0  0  0  0  0  0  0  0  0  0  0  0
   13.1507  -18.9033   25.3250 C   0  0  0  0  0  0  0  0  0  0  0  0
   13.0603  -18.3870   26.4662 O   0  0  0  0  0  0  0  0  0  0  0  0
   13.6231  -16.6757   23.4852 C   0  0  0  0  0  0  0  0  0  0  0  0
   14.6355  -16.5291   24.3971 O   0  0  0  0  0  0  0  0  0  0  0  0
   14.1477  -19.8428   25.0776 O   0  0  0  0  0  0  0  0  0  0  0  0
   13.8972  -16.5055   22.2741 O   0  0  0  0  0  0  0  0  0  0  0  0
  2  8  1  0
  2  1  1  1
  3  2  1  0
  4  3  1  0
  5  4  1  0
  6  5  1  0
  7  6  1  0
  8  9  2  0
 11 10  1  1
 12 11  1  0
 12  8  1  0
 13 11  1  0
 13 15  1  0
 14 13  2  0
 16 15  1  0
 16 17  1  6
 17 18  1  0
 18 22  1  0
 19 18  2  0
 20 16  1  0
 21 20  1  0
 23 20  2  0
M  END
$$$$
