DFR.pdb
     RDKit          3D

 31 31  0  0  1  0  0  0  0  0999 V2000
   25.8355  -22.0310  -13.3022 N   0  0  0  0  0  0  0  0  0  0  0  0
   25.5187  -20.8115  -12.5866 C   0  0  1  0  0  0  0  0  0  0  0  0
   24.0419  -20.5242  -12.8375 C   0  0  0  0  0  0  0  0  0  0  0  0
   23.8328  -20.0402  -14.2223 C   0  0  0  0  0  0  0  0  0  0  0  0
   24.7635  -19.6782  -14.9749 O   0  0  0  0  0  0  0  0  0  0  0  0
   25.8018  -21.0082  -11.1597 C   0  0  0  0  0  0  0  0  0  0  0  0
   25.4452  -22.0916  -10.5890 O   0  0  0  0  0  0  0  0  0  0  0  0
   22.5447  -19.9892  -14.6969 O   0  0  0  0  0  0  0  0  0  0  0  0
   26.4567  -20.0727  -10.3333 N   0  0  0  0  0  0  0  0  0  0  0  0
   26.6101  -20.2710   -8.9392 C   0  0  1  0  0  0  0  0  0  0  0  0
   27.5634  -19.3149   -8.2739 C   0  0  0  0  0  0  0  0  0  0  0  0
   27.7455  -19.5716   -6.8381 C   0  0  0  0  0  0  0  0  0  0  0  0
   28.4335  -20.7364   -6.4951 C   0  0  0  0  0  0  0  0  0  0  0  0
   28.6764  -21.0990   -5.2050 C   0  0  0  0  0  0  0  0  0  0  0  0
   28.2332  -20.2977   -4.1882 C   0  0  0  0  0  0  0  0  0  0  0  0
   27.5473  -19.1356   -4.4984 C   0  0  0  0  0  0  0  0  0  0  0  0
   27.3047  -18.7747   -5.8204 C   0  0  0  0  0  0  0  0  0  0  0  0
   25.3435  -20.2338   -8.1820 C   0  0  0  0  0  0  0  0  0  0  0  0
   24.5922  -19.2128   -8.2954 O   0  0  0  0  0  0  0  0  0  0  0  0
   18.3040  -25.0637   -7.2699 N   0  0  0  0  0  0  0  0  0  0  0  0
   19.0722  -24.2337   -8.1317 C   0  0  0  0  0  0  0  0  0  0  0  0
   19.0153  -24.4357   -9.3855 N   0  0  0  0  0  0  0  0  0  0  0  0
   19.8962  -23.1929   -7.6405 N   0  0  0  0  0  0  0  0  0  0  0  0
   20.5386  -23.3693   -6.3581 C   0  0  0  0  0  0  0  0  0  0  0  0
   21.4628  -22.1805   -6.0700 C   0  0  0  0  0  0  0  0  0  0  0  0
   22.7035  -22.2593   -6.9091 C   0  0  0  0  0  0  0  0  0  0  0  0
   23.6404  -21.1506   -6.5495 C   0  0  2  0  0  0  0  0  0  0  0  0
   24.8802  -21.2527   -7.3238 N   0  0  0  0  0  0  0  0  0  0  0  0
   23.9809  -21.1695   -5.1248 C   0  0  0  0  0  0  0  0  0  0  0  0
   24.9473  -21.7550   -4.5957 O   0  0  0  0  0  0  0  0  0  0  0  0
   23.1504  -20.4623   -4.2363 O   0  0  0  0  0  0  0  0  0  0  0  0
  2  1  1  6
  2  3  1  0
  3  4  1  0
  4  8  1  0
  5  4  2  0
  6  2  1  0
  6  7  2  0
  9  6  1  0
 10  9  1  0
 10 11  1  1
 11 12  1  0
 12 13  2  0
 12 17  1  0
 13 14  1  0
 14 15  2  0
 16 15  1  0
 17 16  2  0
 18 10  1  0
 19 18  2  0
 20 21  1  0
 21 22  2  0
 21 23  1  0
 24 23  1  0
 24 25  1  0
 25 26  1  0
 27 26  1  1
 27 29  1  0
 27 28  1  0
 28 18  1  0
 29 31  1  0
 30 29  2  0
M  END
$$$$
