DFR.pdb
     RDKit          3D

 31 31  0  0  1  0  0  0  0  0999 V2000
   18.3323   -8.4402  -15.0431 N   0  0  0  0  0  0  0  0  0  0  0  0
   17.7846   -9.2877  -14.0033 C   0  0  1  0  0  0  0  0  0  0  0  0
   18.4955  -10.6330  -14.1112 C   0  0  0  0  0  0  0  0  0  0  0  0
   18.0216  -11.3792  -15.3004 C   0  0  0  0  0  0  0  0  0  0  0  0
   18.2179  -11.0010  -16.4760 O   0  0  0  0  0  0  0  0  0  0  0  0
   18.0135   -8.6524  -12.6999 C   0  0  0  0  0  0  0  0  0  0  0  0
   17.6950   -9.2715  -11.6313 O   0  0  0  0  0  0  0  0  0  0  0  0
   17.3301  -12.5477  -15.0915 O   0  0  0  0  0  0  0  0  0  0  0  0
   18.5745   -7.3722  -12.5167 N   0  0  0  0  0  0  0  0  0  0  0  0
   18.8132   -6.8273  -11.2312 C   0  0  1  0  0  0  0  0  0  0  0  0
   20.2406   -6.4203  -10.9811 C   0  0  0  0  0  0  0  0  0  0  0  0
   21.1495   -7.5586  -10.7844 C   0  0  0  0  0  0  0  0  0  0  0  0
   21.7935   -8.0464  -11.9223 C   0  0  0  0  0  0  0  0  0  0  0  0
   22.6631   -9.0940  -11.8879 C   0  0  0  0  0  0  0  0  0  0  0  0
   22.9282   -9.7068  -10.6935 C   0  0  0  0  0  0  0  0  0  0  0  0
   22.3036   -9.2445   -9.5476 C   0  0  0  0  0  0  0  0  0  0  0  0
   21.4167   -8.1730   -9.5943 C   0  0  0  0  0  0  0  0  0  0  0  0
   17.9572   -5.6719  -10.8977 C   0  0  0  0  0  0  0  0  0  0  0  0
   17.8459   -4.7279  -11.7440 O   0  0  0  0  0  0  0  0  0  0  0  0
   14.0285   -9.6339   -8.0776 N   0  0  0  0  0  0  0  0  0  0  0  0
   12.9154   -8.7874   -8.3348 C   0  0  0  0  0  0  0  0  0  0  0  0
   11.7541   -9.3023   -8.3829 N   0  0  0  0  0  0  0  0  0  0  0  0
   13.0576   -7.3939   -8.5388 N   0  0  0  0  0  0  0  0  0  0  0  0
   14.3251   -6.7767   -8.2209 C   0  0  0  0  0  0  0  0  0  0  0  0
   14.2470   -5.2663   -8.4723 C   0  0  0  0  0  0  0  0  0  0  0  0
   15.5635   -4.6118   -8.1757 C   0  0  0  0  0  0  0  0  0  0  0  0
   16.3279   -4.3938   -9.4424 C   0  0  2  0  0  0  0  0  0  0  0  0
   17.2343   -5.5167   -9.6966 N   0  0  0  0  0  0  0  0  0  0  0  0
   17.1190   -3.1617   -9.3927 C   0  0  0  0  0  0  0  0  0  0  0  0
   16.7756   -2.0367   -9.8088 O   0  0  0  0  0  0  0  0  0  0  0  0
   18.4032   -3.2222   -8.8217 O   0  0  0  0  0  0  0  0  0  0  0  0
  2  1  1  6
  2  3  1  0
  3  4  1  0
  4  8  1  0
  5  4  2  0
  6  2  1  0
  6  7  2  0
  9  6  1  0
 10  9  1  0
 10 11  1  6
 11 12  1  0
 12 13  2  0
 12 17  1  0
 13 14  1  0
 14 15  2  0
 16 15  1  0
 17 16  2  0
 18 10  1  0
 19 18  2  0
 20 21  1  0
 21 22  2  0
 21 23  1  0
 24 23  1  0
 24 25  1  0
 25 26  1  0
 27 26  1  1
 27 29  1  0
 27 28  1  0
 28 18  1  0
 29 31  1  0
 30 29  2  0
M  END
$$$$
