DFR.pdb
     RDKit          3D

 31 31  0  0  1  0  0  0  0  0999 V2000
   28.4357  -19.4679  -14.3899 N   0  0  0  0  0  0  0  0  0  0  0  0
   27.5718  -20.4927  -14.9403 C   0  0  1  0  0  0  0  0  0  0  0  0
   28.4776  -21.6237  -15.4165 C   0  0  0  0  0  0  0  0  0  0  0  0
   29.1745  -21.2420  -16.6672 C   0  0  0  0  0  0  0  0  0  0  0  0
   29.9225  -22.0154  -17.3043 O   0  0  0  0  0  0  0  0  0  0  0  0
   26.6401  -20.9415  -13.8984 C   0  0  0  0  0  0  0  0  0  0  0  0
   26.0193  -22.0465  -14.0402 O   0  0  0  0  0  0  0  0  0  0  0  0
   28.9837  -19.9683  -17.1454 O   0  0  0  0  0  0  0  0  0  0  0  0
   26.3598  -20.2345  -12.7115 N   0  0  0  0  0  0  0  0  0  0  0  0
   25.3453  -20.6407  -11.8102 C   0  0  1  0  0  0  0  0  0  0  0  0
   25.4406  -20.0200  -10.4423 C   0  0  0  0  0  0  0  0  0  0  0  0
   26.7026  -20.3171   -9.7498 C   0  0  0  0  0  0  0  0  0  0  0  0
   26.7648  -19.9835   -8.3960 C   0  0  0  0  0  0  0  0  0  0  0  0
   27.8693  -20.2035   -7.6302 C   0  0  0  0  0  0  0  0  0  0  0  0
   28.9755  -20.7758   -8.1970 C   0  0  0  0  0  0  0  0  0  0  0  0
   28.9430  -21.1172   -9.5384 C   0  0  0  0  0  0  0  0  0  0  0  0
   27.8088  -20.8879  -10.3117 C   0  0  0  0  0  0  0  0  0  0  0  0
   23.9732  -20.4150  -12.3055 C   0  0  0  0  0  0  0  0  0  0  0  0
   23.5928  -19.2220  -12.5326 O   0  0  0  0  0  0  0  0  0  0  0  0
   18.3364  -22.0236  -17.8380 N   0  0  0  0  0  0  0  0  0  0  0  0
   19.6489  -22.5696  -17.8084 C   0  0  0  0  0  0  0  0  0  0  0  0
   20.3308  -22.5807  -18.8812 N   0  0  0  0  0  0  0  0  0  0  0  0
   20.2195  -23.1002  -16.6266 N   0  0  0  0  0  0  0  0  0  0  0  0
   19.4094  -23.1466  -15.4308 C   0  0  0  0  0  0  0  0  0  0  0  0
   19.8465  -22.0419  -14.4618 C   0  0  0  0  0  0  0  0  0  0  0  0
   21.2550  -22.2703  -13.9996 C   0  0  0  0  0  0  0  0  0  0  0  0
   21.6870  -21.1612  -13.0944 C   0  0  2  0  0  0  0  0  0  0  0  0
   23.0233  -21.4272  -12.5555 N   0  0  0  0  0  0  0  0  0  0  0  0
   20.7613  -20.9857  -11.9726 C   0  0  0  0  0  0  0  0  0  0  0  0
   19.7697  -20.2295  -11.9341 O   0  0  0  0  0  0  0  0  0  0  0  0
   20.9883  -21.7348  -10.8036 O   0  0  0  0  0  0  0  0  0  0  0  0
  2  1  1  1
  2  3  1  0
  3  4  1  0
  4  8  1  0
  5  4  2  0
  6  2  1  0
  6  7  2  0
  9  6  1  0
 10  9  1  0
 10 11  1  1
 11 12  1  0
 12 13  2  0
 12 17  1  0
 13 14  1  0
 14 15  2  0
 16 15  1  0
 17 16  2  0
 18 10  1  0
 19 18  2  0
 20 21  1  0
 21 22  2  0
 21 23  1  0
 24 23  1  0
 24 25  1  0
 25 26  1  0
 27 26  1  6
 27 29  1  0
 27 28  1  0
 28 18  1  0
 29 31  1  0
 30 29  2  0
M  END
$$$$
