DFR.pdb
     RDKit          3D

 31 31  0  0  1  0  0  0  0  0999 V2000
   24.4867  -20.5274  -13.8146 N   0  0  0  0  0  0  0  0  0  0  0  0
   23.8958  -19.8207  -12.6962 C   0  0  1  0  0  0  0  0  0  0  0  0
   22.5633  -19.2605  -13.1833 C   0  0  0  0  0  0  0  0  0  0  0  0
   22.7758  -18.2963  -14.2882 C   0  0  0  0  0  0  0  0  0  0  0  0
   22.4964  -18.5419  -15.4820 O   0  0  0  0  0  0  0  0  0  0  0  0
   23.7187  -20.7573  -11.5797 C   0  0  0  0  0  0  0  0  0  0  0  0
   23.2647  -21.9279  -11.8037 O   0  0  0  0  0  0  0  0  0  0  0  0
   23.3090  -17.0694  -13.9759 O   0  0  0  0  0  0  0  0  0  0  0  0
   24.0166  -20.4681  -10.2326 N   0  0  0  0  0  0  0  0  0  0  0  0
   23.7893  -21.4000   -9.1903 C   0  0  1  0  0  0  0  0  0  0  0  0
   24.9932  -21.6823   -8.3320 C   0  0  0  0  0  0  0  0  0  0  0  0
   25.7167  -20.4712   -7.9194 C   0  0  0  0  0  0  0  0  0  0  0  0
   26.3251  -20.5054   -6.6639 C   0  0  0  0  0  0  0  0  0  0  0  0
   27.0293  -19.4568   -6.1546 C   0  0  0  0  0  0  0  0  0  0  0  0
   27.1557  -18.3117   -6.8931 C   0  0  0  0  0  0  0  0  0  0  0  0
   26.5624  -18.2488   -8.1425 C   0  0  0  0  0  0  0  0  0  0  0  0
   25.8451  -19.3265   -8.6532 C   0  0  0  0  0  0  0  0  0  0  0  0
   22.6772  -21.0377   -8.2897 C   0  0  0  0  0  0  0  0  0  0  0  0
   22.9465  -20.6702   -7.1014 O   0  0  0  0  0  0  0  0  0  0  0  0
   14.7577  -23.5008   -9.5153 N   0  0  0  0  0  0  0  0  0  0  0  0
   15.7827  -23.0023  -10.3654 C   0  0  0  0  0  0  0  0  0  0  0  0
   15.4577  -22.2588  -11.3439 N   0  0  0  0  0  0  0  0  0  0  0  0
   17.1496  -23.3063  -10.1584 N   0  0  0  0  0  0  0  0  0  0  0  0
   17.5046  -24.1664   -9.0526 C   0  0  0  0  0  0  0  0  0  0  0  0
   18.4371  -23.4209   -8.0908 C   0  0  0  0  0  0  0  0  0  0  0  0
   19.4289  -22.5919   -8.8515 C   0  0  0  0  0  0  0  0  0  0  0  0
   20.3084  -21.8412   -7.9033 C   0  0  2  0  0  0  0  0  0  0  0  0
   21.3103  -21.0630   -8.6366 N   0  0  0  0  0  0  0  0  0  0  0  0
   21.0049  -22.7420   -6.9815 C   0  0  0  0  0  0  0  0  0  0  0  0
   22.0709  -23.3533   -7.1976 O   0  0  0  0  0  0  0  0  0  0  0  0
   20.4370  -22.9595   -5.7129 O   0  0  0  0  0  0  0  0  0  0  0  0
  2  1  1  6
  2  3  1  0
  3  4  1  0
  4  8  1  0
  5  4  2  0
  6  2  1  0
  6  7  2  0
  9  6  1  0
 10  9  1  0
 10 11  1  1
 11 12  1  0
 12 13  2  0
 12 17  1  0
 13 14  1  0
 14 15  2  0
 16 15  1  0
 17 16  2  0
 18 10  1  0
 19 18  2  0
 20 21  1  0
 21 22  2  0
 21 23  1  0
 24 23  1  0
 24 25  1  0
 25 26  1  0
 27 26  1  6
 27 29  1  0
 27 28  1  0
 28 18  1  0
 29 31  1  0
 30 29  2  0
M  END
$$$$
