DFR.pdb
     RDKit          3D

 31 31  0  0  1  0  0  0  0  0999 V2000
   26.9026  -19.6662  -13.3111 N   0  0  0  0  0  0  0  0  0  0  0  0
   26.5221  -21.0205  -12.9640 C   0  0  1  0  0  0  0  0  0  0  0  0
   27.4778  -21.9504  -13.7045 C   0  0  0  0  0  0  0  0  0  0  0  0
   27.4483  -21.6765  -15.1605 C   0  0  0  0  0  0  0  0  0  0  0  0
   26.4879  -21.9814  -15.9009 O   0  0  0  0  0  0  0  0  0  0  0  0
   26.6186  -21.1850  -11.5085 C   0  0  0  0  0  0  0  0  0  0  0  0
   26.3812  -22.3235  -10.9849 O   0  0  0  0  0  0  0  0  0  0  0  0
   28.5384  -21.0543  -15.7188 O   0  0  0  0  0  0  0  0  0  0  0  0
   26.9629  -20.1598  -10.6043 N   0  0  0  0  0  0  0  0  0  0  0  0
   26.9247  -20.3444   -9.2004 C   0  0  1  0  0  0  0  0  0  0  0  0
   27.7208  -19.3358   -8.4164 C   0  0  0  0  0  0  0  0  0  0  0  0
   27.8202  -19.6518   -6.9844 C   0  0  0  0  0  0  0  0  0  0  0  0
   28.6593  -20.7112   -6.6361 C   0  0  0  0  0  0  0  0  0  0  0  0
   28.8483  -21.1123   -5.3484 C   0  0  0  0  0  0  0  0  0  0  0  0
   28.1944  -20.4590   -4.3394 C   0  0  0  0  0  0  0  0  0  0  0  0
   27.3551  -19.4040   -4.6550 C   0  0  0  0  0  0  0  0  0  0  0  0
   27.1693  -19.0024   -5.9745 C   0  0  0  0  0  0  0  0  0  0  0  0
   25.5623  -20.3726   -8.6330 C   0  0  0  0  0  0  0  0  0  0  0  0
   24.7967  -19.3750   -8.8288 O   0  0  0  0  0  0  0  0  0  0  0  0
   18.4114  -23.8419  -10.3138 N   0  0  0  0  0  0  0  0  0  0  0  0
   19.1283  -22.6389  -10.5602 C   0  0  0  0  0  0  0  0  0  0  0  0
   18.9249  -22.0187  -11.6511 N   0  0  0  0  0  0  0  0  0  0  0  0
   20.0586  -22.1109   -9.6332 N   0  0  0  0  0  0  0  0  0  0  0  0
   20.3377  -22.8641   -8.4319 C   0  0  0  0  0  0  0  0  0  0  0  0
   21.3365  -22.0982   -7.5565 C   0  0  0  0  0  0  0  0  0  0  0  0
   22.7123  -22.1535   -8.1513 C   0  0  0  0  0  0  0  0  0  0  0  0
   23.6759  -21.3981   -7.2928 C   0  0  2  0  0  0  0  0  0  0  0  0
   25.0200  -21.4315   -7.8752 N   0  0  0  0  0  0  0  0  0  0  0  0
   23.7438  -21.9516   -5.9381 C   0  0  0  0  0  0  0  0  0  0  0  0
   24.6398  -22.6866   -5.4759 O   0  0  0  0  0  0  0  0  0  0  0  0
   22.7052  -21.6388   -5.0423 O   0  0  0  0  0  0  0  0  0  0  0  0
  2  1  1  1
  2  3  1  0
  3  4  1  0
  4  8  1  0
  5  4  2  0
  6  2  1  0
  6  7  2  0
  9  6  1  0
 10  9  1  0
 10 11  1  1
 11 12  1  0
 12 13  2  0
 12 17  1  0
 13 14  1  0
 14 15  2  0
 16 15  1  0
 17 16  2  0
 18 10  1  0
 19 18  2  0
 20 21  1  0
 21 22  2  0
 21 23  1  0
 24 23  1  0
 24 25  1  0
 25 26  1  0
 27 26  1  6
 27 29  1  0
 27 28  1  0
 28 18  1  0
 29 31  1  0
 30 29  2  0
M  END
$$$$
