PYK.pdb
     RDKit          3D

 29 30  0  0  1  0  0  0  0  0999 V2000
    7.5269  -15.3073   18.9446 N   0  0  0  0  0  0  0  0  0  0  0  0
    6.7625  -14.6816   17.9096 C   0  0  0  0  0  0  0  0  0  0  0  0
    7.6380  -13.6019   17.2966 C   0  0  0  0  0  0  0  0  0  0  0  0
    8.4569  -13.1795   18.5079 C   0  0  0  0  0  0  0  0  0  0  0  0
    8.7197  -14.5318   19.1565 C   0  0  1  0  0  0  0  0  0  0  0  0
    9.1011  -14.4161   20.5648 C   0  0  0  0  0  0  0  0  0  0  0  0
   10.2821  -14.1218   20.8696 O   0  0  0  0  0  0  0  0  0  0  0  0
    7.0726  -12.0260   28.9380 O   0  0  0  0  0  0  0  0  0  0  0  0
    7.1133  -12.4079   27.5807 C   0  0  0  0  0  0  0  0  0  0  0  0
    7.8242  -11.6724   26.6619 C   0  0  0  0  0  0  0  0  0  0  0  0
    7.8561  -12.0585   25.3309 C   0  0  0  0  0  0  0  0  0  0  0  0
    7.1955  -13.1685   24.8738 C   0  0  0  0  0  0  0  0  0  0  0  0
    7.2408  -13.5782   23.4692 C   0  0  0  0  0  0  0  0  0  0  0  0
    8.4065  -14.3644   23.0071 C   0  0  2  0  0  0  0  0  0  0  0  0
    8.1448  -14.6347   21.5732 N   0  0  0  0  0  0  0  0  0  0  0  0
    8.5988  -15.6688   23.6445 C   0  0  0  0  0  0  0  0  0  0  0  0
    7.7188  -16.6067   23.5050 O   0  0  0  0  0  0  0  0  0  0  0  0
    6.4862  -13.8947   25.8131 C   0  0  0  0  0  0  0  0  0  0  0  0
    6.4432  -13.5257   27.1401 C   0  0  0  0  0  0  0  0  0  0  0  0
    9.7093  -16.0518   24.4407 N   0  0  0  0  0  0  0  0  0  0  0  0
    9.7357  -17.3409   25.1439 C   0  0  1  0  0  0  0  0  0  0  0  0
   10.8684  -18.1602   24.5515 C   0  0  0  0  0  0  0  0  0  0  0  0
   10.8629  -18.2276   23.0632 C   0  0  0  0  0  0  0  0  0  0  0  0
   11.9958  -19.1004   22.5271 C   0  0  0  0  0  0  0  0  0  0  0  0
   12.0355  -19.0045   21.0216 C   0  0  0  0  0  0  0  0  0  0  0  0
   13.1358  -19.8521   20.5591 N   0  0  0  0  0  0  0  0  0  0  0  0
    9.8605  -17.1635   26.5865 C   0  0  0  0  0  0  0  0  0  0  0  0
    9.6530  -18.1244   27.5561 O   0  0  0  0  0  0  0  0  0  0  0  0
   10.1948  -16.0170   27.0637 O   0  0  0  0  0  0  0  0  0  0  0  0
  1  5  1  0
  2  1  1  0
  3  2  1  0
  3  4  1  0
  4  5  1  0
  6  7  2  0
  5  6  1  1
  8  9  1  0
  9 19  2  0
  9 10  1  0
 10 11  2  0
 12 11  1  0
 12 13  1  0
 14 13  1  1
 14 16  1  0
 14 15  1  0
 15  6  1  0
 16 17  2  0
 18 12  2  0
 19 18  1  0
 20 16  1  0
 20 21  1  0
 21 27  1  0
 22 23  1  0
 21 22  1  6
 24 23  1  0
 25 24  1  0
 26 25  1  0
 27 29  2  0
 27 28  1  0
M  END
$$$$
