PYK.pdb
     RDKit          3D

 29 30  0  0  1  0  0  0  0  0999 V2000
    7.6027  -15.3851   18.6442 N   0  0  0  0  0  0  0  0  0  0  0  0
    6.8703  -14.8393   17.5429 C   0  0  0  0  0  0  0  0  0  0  0  0
    7.7663  -13.8103   16.8750 C   0  0  0  0  0  0  0  0  0  0  0  0
    8.5513  -13.2975   18.0738 C   0  0  0  0  0  0  0  0  0  0  0  0
    8.7912  -14.5967   18.8309 C   0  0  1  0  0  0  0  0  0  0  0  0
    9.1323  -14.3744   20.2367 C   0  0  0  0  0  0  0  0  0  0  0  0
   10.2498  -13.8907   20.5390 O   0  0  0  0  0  0  0  0  0  0  0  0
    6.8870  -12.3323   28.6495 O   0  0  0  0  0  0  0  0  0  0  0  0
    6.9664  -12.6817   27.2852 C   0  0  0  0  0  0  0  0  0  0  0  0
    7.5368  -11.8281   26.3705 C   0  0  0  0  0  0  0  0  0  0  0  0
    7.6086  -12.1835   25.0325 C   0  0  0  0  0  0  0  0  0  0  0  0
    7.1258  -13.3773   24.5644 C   0  0  0  0  0  0  0  0  0  0  0  0
    7.2134  -13.7526   23.1521 C   0  0  0  0  0  0  0  0  0  0  0  0
    8.4465  -14.4222   22.6815 C   0  0  2  0  0  0  0  0  0  0  0  0
    8.2085  -14.7029   21.2455 N   0  0  0  0  0  0  0  0  0  0  0  0
    8.7611  -15.7087   23.3068 C   0  0  0  0  0  0  0  0  0  0  0  0
    8.0660  -16.7639   23.0293 O   0  0  0  0  0  0  0  0  0  0  0  0
    6.5558  -14.2216   25.4997 C   0  0  0  0  0  0  0  0  0  0  0  0
    6.4757  -13.8849   26.8335 C   0  0  0  0  0  0  0  0  0  0  0  0
    9.8084  -15.9513   24.2331 N   0  0  0  0  0  0  0  0  0  0  0  0
   10.0431  -17.2915   24.7859 C   0  0  1  0  0  0  0  0  0  0  0  0
   11.4423  -17.7150   24.3761 C   0  0  0  0  0  0  0  0  0  0  0  0
   12.1841  -18.4737   25.4219 C   0  0  0  0  0  0  0  0  0  0  0  0
   13.6110  -18.8004   24.9861 C   0  0  0  0  0  0  0  0  0  0  0  0
   14.2786  -19.6461   26.0426 C   0  0  0  0  0  0  0  0  0  0  0  0
   15.6613  -19.8668   25.6157 N   0  0  0  0  0  0  0  0  0  0  0  0
    9.8442  -17.3192   26.2308 C   0  0  0  0  0  0  0  0  0  0  0  0
    9.6103  -18.4353   27.0093 O   0  0  0  0  0  0  0  0  0  0  0  0
    9.8789  -16.2231   26.9027 O   0  0  0  0  0  0  0  0  0  0  0  0
  1  5  1  0
  2  1  1  0
  3  2  1  0
  3  4  1  0
  4  5  1  0
  6  7  2  0
  5  6  1  1
  8  9  1  0
  9 19  2  0
  9 10  1  0
 10 11  2  0
 12 11  1  0
 12 13  1  0
 14 13  1  1
 14 16  1  0
 14 15  1  0
 15  6  1  0
 16 17  2  0
 18 12  2  0
 19 18  1  0
 20 16  1  0
 20 21  1  0
 21 27  1  0
 22 23  1  0
 21 22  1  1
 24 23  1  0
 25 24  1  0
 26 25  1  0
 27 29  2  0
 27 28  1  0
M  END
$$$$
