PYK.pdb
     RDKit          3D

 29 30  0  0  1  0  0  0  0  0999 V2000
    7.4514  -15.2443   18.7445 N   0  0  0  0  0  0  0  0  0  0  0  0
    6.7801  -14.5432   17.6934 C   0  0  0  0  0  0  0  0  0  0  0  0
    7.7793  -13.5665   17.0970 C   0  0  0  0  0  0  0  0  0  0  0  0
    8.6144  -13.2309   18.3243 C   0  0  0  0  0  0  0  0  0  0  0  0
    8.7164  -14.6014   18.9798 C   0  0  1  0  0  0  0  0  0  0  0  0
    9.0796  -14.5228   20.3954 C   0  0  0  0  0  0  0  0  0  0  0  0
   10.2815  -14.3761   20.7244 O   0  0  0  0  0  0  0  0  0  0  0  0
    6.9156  -12.1792   28.7952 O   0  0  0  0  0  0  0  0  0  0  0  0
    6.9631  -12.5498   27.4350 C   0  0  0  0  0  0  0  0  0  0  0  0
    7.6988  -11.8208   26.5306 C   0  0  0  0  0  0  0  0  0  0  0  0
    7.7372  -12.1957   25.1966 C   0  0  0  0  0  0  0  0  0  0  0  0
    7.0591  -13.2879   24.7224 C   0  0  0  0  0  0  0  0  0  0  0  0
    7.1112  -13.6860   23.3147 C   0  0  0  0  0  0  0  0  0  0  0  0
    8.3410  -14.3434   22.8187 C   0  0  2  0  0  0  0  0  0  0  0  0
    8.0825  -14.6117   21.3839 N   0  0  0  0  0  0  0  0  0  0  0  0
    8.6729  -15.6338   23.4265 C   0  0  0  0  0  0  0  0  0  0  0  0
    7.9388  -16.6755   23.2040 O   0  0  0  0  0  0  0  0  0  0  0  0
    6.3251  -14.0077   25.6475 C   0  0  0  0  0  0  0  0  0  0  0  0
    6.2753  -13.6497   26.9773 C   0  0  0  0  0  0  0  0  0  0  0  0
    9.7780  -15.8946   24.2778 N   0  0  0  0  0  0  0  0  0  0  0  0
   10.0256  -17.2380   24.8171 C   0  0  1  0  0  0  0  0  0  0  0  0
   11.3099  -17.7511   24.1907 C   0  0  0  0  0  0  0  0  0  0  0  0
   11.7686  -19.0652   24.7221 C   0  0  0  0  0  0  0  0  0  0  0  0
   13.0149  -19.5701   23.9979 C   0  0  0  0  0  0  0  0  0  0  0  0
   13.4209  -20.9072   24.5676 C   0  0  0  0  0  0  0  0  0  0  0  0
   14.6389  -21.3264   23.8724 N   0  0  0  0  0  0  0  0  0  0  0  0
   10.0707  -17.2316   26.2752 C   0  0  0  0  0  0  0  0  0  0  0  0
   11.1990  -17.1290   27.0644 O   0  0  0  0  0  0  0  0  0  0  0  0
    8.9800  -17.3291   26.9496 O   0  0  0  0  0  0  0  0  0  0  0  0
  1  5  1  0
  2  1  1  0
  3  2  1  0
  3  4  1  0
  4  5  1  0
  6  7  2  0
  5  6  1  1
  8  9  1  0
  9 19  2  0
  9 10  1  0
 10 11  2  0
 12 11  1  0
 12 13  1  0
 14 13  1  1
 14 16  1  0
 14 15  1  0
 15  6  1  0
 16 17  2  0
 18 12  2  0
 19 18  1  0
 20 16  1  0
 20 21  1  0
 21 27  1  0
 22 23  1  0
 21 22  1  6
 24 23  1  0
 25 24  1  0
 26 25  1  0
 27 29  2  0
 27 28  1  0
M  END
$$$$
