PYK.pdb
     RDKit          3D

 29 30  0  0  1  0  0  0  0  0999 V2000
    8.0078  -15.6487   18.6910 N   0  0  0  0  0  0  0  0  0  0  0  0
    7.0846  -15.2047   17.6921 C   0  0  0  0  0  0  0  0  0  0  0  0
    7.5590  -13.8416   17.2180 C   0  0  0  0  0  0  0  0  0  0  0  0
    8.1882  -13.3010   18.4939 C   0  0  0  0  0  0  0  0  0  0  0  0
    8.8783  -14.5520   19.0205 C   0  0  1  0  0  0  0  0  0  0  0  0
    9.1943  -14.4627   20.4467 C   0  0  0  0  0  0  0  0  0  0  0  0
   10.3918  -14.4293   20.8199 O   0  0  0  0  0  0  0  0  0  0  0  0
    6.8911  -12.2367   28.8689 O   0  0  0  0  0  0  0  0  0  0  0  0
    6.9607  -12.5504   27.4953 C   0  0  0  0  0  0  0  0  0  0  0  0
    7.5539  -11.6877   26.6039 C   0  0  0  0  0  0  0  0  0  0  0  0
    7.6157  -12.0079   25.2566 C   0  0  0  0  0  0  0  0  0  0  0  0
    7.1005  -13.1748   24.7562 C   0  0  0  0  0  0  0  0  0  0  0  0
    7.1775  -13.5133   23.3341 C   0  0  0  0  0  0  0  0  0  0  0  0
    8.3951  -14.1962   22.8426 C   0  0  2  0  0  0  0  0  0  0  0  0
    8.1570  -14.4144   21.3958 N   0  0  0  0  0  0  0  0  0  0  0  0
    8.6730  -15.5138   23.4184 C   0  0  0  0  0  0  0  0  0  0  0  0
    8.0309  -16.5601   23.0103 O   0  0  0  0  0  0  0  0  0  0  0  0
    6.5080  -14.0288   25.6685 C   0  0  0  0  0  0  0  0  0  0  0  0
    6.4374  -13.7269   27.0112 C   0  0  0  0  0  0  0  0  0  0  0  0
    9.6282  -15.7973   24.4289 N   0  0  0  0  0  0  0  0  0  0  0  0
    9.8481  -17.1679   24.9082 C   0  0  1  0  0  0  0  0  0  0  0  0
   11.0110  -17.7451   24.1212 C   0  0  0  0  0  0  0  0  0  0  0  0
   11.3707  -19.1418   24.4945 C   0  0  0  0  0  0  0  0  0  0  0  0
   12.5796  -19.6489   23.7107 C   0  0  0  0  0  0  0  0  0  0  0  0
   12.8884  -21.0670   24.1240 C   0  0  0  0  0  0  0  0  0  0  0  0
   13.9725  -21.5459   23.2648 N   0  0  0  0  0  0  0  0  0  0  0  0
   10.0676  -17.2041   26.3500 C   0  0  0  0  0  0  0  0  0  0  0  0
    9.8591  -18.2811   27.1886 O   0  0  0  0  0  0  0  0  0  0  0  0
   10.4982  -16.1561   26.9583 O   0  0  0  0  0  0  0  0  0  0  0  0
  1  5  1  0
  2  1  1  0
  3  2  1  0
  3  4  1  0
  4  5  1  0
  6  7  2  0
  5  6  1  1
  8  9  1  0
  9 19  2  0
  9 10  1  0
 10 11  2  0
 12 11  1  0
 12 13  1  0
 14 13  1  1
 14 16  1  0
 14 15  1  0
 15  6  1  0
 16 17  2  0
 18 12  2  0
 19 18  1  0
 20 16  1  0
 20 21  1  0
 21 27  1  0
 22 23  1  0
 21 22  1  6
 24 23  1  0
 25 24  1  0
 26 25  1  0
 27 29  2  0
 27 28  1  0
M  END
$$$$
