PYK.pdb
     RDKit          3D

 29 30  0  0  1  0  0  0  0  0999 V2000
    7.7372  -15.5622   18.8334 N   0  0  0  0  0  0  0  0  0  0  0  0
    6.9548  -15.0712   17.7407 C   0  0  0  0  0  0  0  0  0  0  0  0
    7.7586  -13.9675   17.0745 C   0  0  0  0  0  0  0  0  0  0  0  0
    8.5071  -13.3999   18.2719 C   0  0  0  0  0  0  0  0  0  0  0  0
    8.8581  -14.6799   19.0181 C   0  0  1  0  0  0  0  0  0  0  0  0
    9.1895  -14.4396   20.4233 C   0  0  0  0  0  0  0  0  0  0  0  0
   10.2718  -13.8799   20.7226 O   0  0  0  0  0  0  0  0  0  0  0  0
    6.7618  -12.1624   28.7013 O   0  0  0  0  0  0  0  0  0  0  0  0
    6.8758  -12.6011   27.3655 C   0  0  0  0  0  0  0  0  0  0  0  0
    6.4437  -13.8527   26.9948 C   0  0  0  0  0  0  0  0  0  0  0  0
    6.5615  -14.2718   25.6787 C   0  0  0  0  0  0  0  0  0  0  0  0
    7.1021  -13.4771   24.7022 C   0  0  0  0  0  0  0  0  0  0  0  0
    7.2147  -13.9202   23.3115 C   0  0  0  0  0  0  0  0  0  0  0  0
    8.4983  -14.5072   22.8662 C   0  0  2  0  0  0  0  0  0  0  0  0
    8.2957  -14.8358   21.4349 N   0  0  0  0  0  0  0  0  0  0  0  0
    8.9004  -15.7531   23.5226 C   0  0  0  0  0  0  0  0  0  0  0  0
    8.2458  -16.8492   23.3137 O   0  0  0  0  0  0  0  0  0  0  0  0
    7.5308  -12.2224   25.0950 C   0  0  0  0  0  0  0  0  0  0  0  0
    7.4219  -11.7891   26.3986 C   0  0  0  0  0  0  0  0  0  0  0  0
    9.9961  -15.9116   24.4104 N   0  0  0  0  0  0  0  0  0  0  0  0
   10.2481  -17.1880   25.0915 C   0  0  1  0  0  0  0  0  0  0  0  0
   11.6696  -17.6076   24.7626 C   0  0  0  0  0  0  0  0  0  0  0  0
   11.8247  -18.2558   23.4303 C   0  0  0  0  0  0  0  0  0  0  0  0
   13.2646  -18.6961   23.1738 C   0  0  0  0  0  0  0  0  0  0  0  0
   13.3561  -19.3523   21.8180 C   0  0  0  0  0  0  0  0  0  0  0  0
   14.7574  -19.7172   21.6033 N   0  0  0  0  0  0  0  0  0  0  0  0
   10.0055  -17.0882   26.5266 C   0  0  0  0  0  0  0  0  0  0  0  0
    9.7301  -18.1297   27.3903 O   0  0  0  0  0  0  0  0  0  0  0  0
   10.0380  -15.9389   27.1027 O   0  0  0  0  0  0  0  0  0  0  0  0
  1  5  1  0
  2  1  1  0
  3  2  1  0
  3  4  1  0
  4  5  1  0
  6  7  2  0
  5  6  1  1
  8  9  1  0
  9 19  2  0
  9 10  1  0
 10 11  2  0
 12 11  1  0
 12 13  1  0
 14 13  1  1
 14 16  1  0
 14 15  1  0
 15  6  1  0
 16 17  2  0
 18 12  2  0
 19 18  1  0
 20 16  1  0
 20 21  1  0
 21 27  1  0
 22 23  1  0
 21 22  1  1
 24 23  1  0
 25 24  1  0
 26 25  1  0
 27 29  2  0
 27 28  1  0
M  END
$$$$
