PYK.pdb
     RDKit          3D

 29 30  0  0  1  0  0  0  0  0999 V2000
    7.5854  -15.2935   18.6639 N   0  0  0  0  0  0  0  0  0  0  0  0
    6.8520  -14.6738   17.6031 C   0  0  0  0  0  0  0  0  0  0  0  0
    7.7574  -13.6199   16.9886 C   0  0  0  0  0  0  0  0  0  0  0  0
    8.5597  -13.1896   18.2082 C   0  0  0  0  0  0  0  0  0  0  0  0
    8.7868  -14.5342   18.8856 C   0  0  1  0  0  0  0  0  0  0  0  0
    9.1427  -14.3997   20.2989 C   0  0  0  0  0  0  0  0  0  0  0  0
   10.3118  -14.0770   20.6203 O   0  0  0  0  0  0  0  0  0  0  0  0
    6.7610  -12.4036   28.7309 O   0  0  0  0  0  0  0  0  0  0  0  0
    6.8659  -12.7290   27.3624 C   0  0  0  0  0  0  0  0  0  0  0  0
    6.3491  -13.9065   26.8756 C   0  0  0  0  0  0  0  0  0  0  0  0
    6.4590  -14.2143   25.5285 C   0  0  0  0  0  0  0  0  0  0  0  0
    7.0742  -13.3788   24.6335 C   0  0  0  0  0  0  0  0  0  0  0  0
    7.1785  -13.7035   23.2099 C   0  0  0  0  0  0  0  0  0  0  0  0
    8.4142  -14.3628   22.7315 C   0  0  2  0  0  0  0  0  0  0  0  0
    8.1753  -14.6320   21.2935 N   0  0  0  0  0  0  0  0  0  0  0  0
    8.7362  -15.6531   23.3449 C   0  0  0  0  0  0  0  0  0  0  0  0
    7.9819  -16.6848   23.1443 O   0  0  0  0  0  0  0  0  0  0  0  0
    7.5875  -12.1999   25.1426 C   0  0  0  0  0  0  0  0  0  0  0  0
    7.4877  -11.8775   26.4787 C   0  0  0  0  0  0  0  0  0  0  0  0
    9.8516  -15.9242   24.1793 N   0  0  0  0  0  0  0  0  0  0  0  0
   10.0440  -17.2455   24.7908 C   0  0  1  0  0  0  0  0  0  0  0  0
   11.4906  -17.6467   24.5638 C   0  0  0  0  0  0  0  0  0  0  0  0
   11.8692  -18.9494   25.1795 C   0  0  0  0  0  0  0  0  0  0  0  0
   13.3137  -19.3318   24.8634 C   0  0  0  0  0  0  0  0  0  0  0  0
   13.6112  -20.6943   25.4399 C   0  0  0  0  0  0  0  0  0  0  0  0
   14.9815  -21.0401   25.0582 N   0  0  0  0  0  0  0  0  0  0  0  0
    9.6722  -17.2439   26.2015 C   0  0  0  0  0  0  0  0  0  0  0  0
    9.3560  -16.1407   26.9692 O   0  0  0  0  0  0  0  0  0  0  0  0
    9.6165  -18.3532   26.8499 O   0  0  0  0  0  0  0  0  0  0  0  0
  1  5  1  0
  2  1  1  0
  3  2  1  0
  3  4  1  0
  4  5  1  0
  6  7  2  0
  5  6  1  1
  8  9  1  0
  9 19  2  0
  9 10  1  0
 10 11  2  0
 12 11  1  0
 12 13  1  0
 14 13  1  1
 14 16  1  0
 14 15  1  0
 15  6  1  0
 16 17  2  0
 18 12  2  0
 19 18  1  0
 20 16  1  0
 20 21  1  0
 21 27  1  0
 22 23  1  0
 21 22  1  1
 24 23  1  0
 25 24  1  0
 26 25  1  0
 27 29  2  0
 27 28  1  0
M  END
$$$$
