PYK.pdb
     RDKit          3D

 29 30  0  0  1  0  0  0  0  0999 V2000
    6.8367  -14.8578   20.7362 N   0  0  0  0  0  0  0  0  0  0  0  0
    5.8884  -13.9852   20.1145 C   0  0  0  0  0  0  0  0  0  0  0  0
    6.6748  -12.9998   19.2669 C   0  0  0  0  0  0  0  0  0  0  0  0
    7.9528  -12.8796   20.0846 C   0  0  0  0  0  0  0  0  0  0  0  0
    8.1545  -14.3283   20.5079 C   0  0  1  0  0  0  0  0  0  0  0  0
    9.0466  -14.4590   21.6608 C   0  0  0  0  0  0  0  0  0  0  0  0
   10.2492  -14.1153   21.5617 O   0  0  0  0  0  0  0  0  0  0  0  0
   10.4578  -15.1174   30.5342 O   0  0  0  0  0  0  0  0  0  0  0  0
    9.9709  -15.0223   29.2137 C   0  0  0  0  0  0  0  0  0  0  0  0
    9.4507  -16.1220   28.5728 C   0  0  0  0  0  0  0  0  0  0  0  0
    8.9755  -16.0151   27.2750 C   0  0  0  0  0  0  0  0  0  0  0  0
    8.9994  -14.8340   26.5807 C   0  0  0  0  0  0  0  0  0  0  0  0
    8.4868  -14.7238   25.2139 C   0  0  0  0  0  0  0  0  0  0  0  0
    9.3875  -15.0883   24.0975 C   0  0  2  0  0  0  0  0  0  0  0  0
    8.5554  -14.9688   22.8765 N   0  0  0  0  0  0  0  0  0  0  0  0
    9.9086  -16.4569   24.1094 C   0  0  0  0  0  0  0  0  0  0  0  0
    9.1138  -17.4663   23.9577 O   0  0  0  0  0  0  0  0  0  0  0  0
    9.5265  -13.7401   27.2424 C   0  0  0  0  0  0  0  0  0  0  0  0
   10.0036  -13.8278   28.5322 C   0  0  0  0  0  0  0  0  0  0  0  0
   11.2685  -16.8297   24.2700 N   0  0  0  0  0  0  0  0  0  0  0  0
   11.6631  -18.2380   24.4030 C   0  0  1  0  0  0  0  0  0  0  0  0
   12.6703  -18.5347   23.3063 C   0  0  0  0  0  0  0  0  0  0  0  0
   12.1343  -18.3835   21.9245 C   0  0  0  0  0  0  0  0  0  0  0  0
   13.1745  -18.7445   20.8660 C   0  0  0  0  0  0  0  0  0  0  0  0
   12.5419  -18.6830   19.4974 C   0  0  0  0  0  0  0  0  0  0  0  0
   13.5965  -18.9456   18.5168 N   0  0  0  0  0  0  0  0  0  0  0  0
   12.1776  -18.5281   25.7368 C   0  0  0  0  0  0  0  0  0  0  0  0
   12.5996  -17.6077   26.6756 O   0  0  0  0  0  0  0  0  0  0  0  0
   12.2714  -19.7473   26.1354 O   0  0  0  0  0  0  0  0  0  0  0  0
  1  5  1  0
  2  1  1  0
  3  2  1  0
  3  4  1  0
  4  5  1  0
  6  7  2  0
  5  6  1  1
  8  9  1  0
  9 19  2  0
  9 10  1  0
 10 11  2  0
 12 11  1  0
 12 13  1  0
 14 13  1  1
 14 16  1  0
 14 15  1  0
 15  6  1  0
 16 17  2  0
 18 12  2  0
 19 18  1  0
 20 16  1  0
 20 21  1  0
 21 27  1  0
 22 23  1  0
 21 22  1  6
 24 23  1  0
 25 24  1  0
 26 25  1  0
 27 29  2  0
 27 28  1  0
M  END
$$$$
