SNR.pdb
     RDKit          3D

 26 25  0  0  1  0  0  0  0  0999 V2000
   15.0585  -12.2720  -15.3971 O   0  0  0  0  0  0  0  0  0  0  0  0
   15.8956  -12.6462  -16.4560 C   0  0  0  0  0  0  0  0  0  0  0  0
   17.1650  -13.1928  -15.8423 C   0  0  2  0  0  0  0  0  0  0  0  0
   16.8380  -14.3500  -15.0221 N   0  0  0  0  0  0  0  0  0  0  0  0
   17.8772  -12.1735  -15.0363 C   0  0  0  0  0  0  0  0  0  0  0  0
   17.9964  -12.3401  -13.8100 O   0  0  0  0  0  0  0  0  0  0  0  0
   20.8989   -8.0989  -13.5875 N   0  0  0  0  0  0  0  0  0  0  0  0
   21.3154   -8.6899  -14.7823 C   0  0  0  0  0  0  0  0  0  0  0  0
   22.4973   -8.3946  -15.1858 O   0  0  0  0  0  0  0  0  0  0  0  0
   20.4992   -9.6317  -15.6198 C   0  0  0  0  0  0  0  0  0  0  0  0
   19.2422  -10.0386  -14.8886 C   0  0  2  0  0  0  0  0  0  0  0  0
   18.4444  -10.9931  -15.5933 N   0  0  0  0  0  0  0  0  0  0  0  0
   18.3958   -8.8138  -14.6359 C   0  0  0  0  0  0  0  0  0  0  0  0
   17.7088   -8.3231  -15.5824 O   0  0  0  0  0  0  0  0  0  0  0  0
   14.6949   -7.1759   -7.1291 N   0  0  0  0  0  0  0  0  0  0  0  0
   14.2772   -7.7027   -8.3880 C   0  0  0  0  0  0  0  0  0  0  0  0
   13.3443   -8.5914   -8.4297 N   0  0  0  0  0  0  0  0  0  0  0  0
   14.8441   -7.2936   -9.6198 N   0  0  0  0  0  0  0  0  0  0  0  0
   15.7777   -6.1421   -9.6783 C   0  0  0  0  0  0  0  0  0  0  0  0
   16.2081   -6.0163  -11.0828 C   0  0  0  0  0  0  0  0  0  0  0  0
   16.9734   -7.0789  -11.7357 C   0  0  0  0  0  0  0  0  0  0  0  0
   17.4818   -6.9823  -13.1030 C   0  0  2  0  0  0  0  0  0  0  0  0
   18.3401   -8.1938  -13.3821 N   0  0  0  0  0  0  0  0  0  0  0  0
   18.3728   -5.8158  -13.3778 C   0  0  0  0  0  0  0  0  0  0  0  0
   17.7614   -4.5353  -13.3242 O   0  0  0  0  0  0  0  0  0  0  0  0
   19.5683   -5.8056  -13.6426 O   0  0  0  0  0  0  0  0  0  0  0  0
  2  1  1  0
  3  2  1  0
  3  4  1  1
  5  6  2  0
  5  3  1  0
  7  8  1  0
  8 10  1  0
  9  8  2  0
 11 10  1  6
 11 12  1  0
 12  5  1  0
 13 11  1  0
 13 23  1  0
 14 13  2  0
 16 17  2  0
 16 15  1  0
 18 16  1  0
 19 18  1  0
 20 19  1  0
 22 21  1  1
 21 20  1  0
 22 23  1  0
 22 24  1  0
 24 25  1  0
 26 24  2  0
M  END
$$$$
