SNR.pdb
     RDKit          3D

 26 25  0  0  1  0  0  0  0  0999 V2000
   15.5062  -10.8546  -16.4943 O   0  0  0  0  0  0  0  0  0  0  0  0
   15.8375  -10.4011  -15.2111 C   0  0  0  0  0  0  0  0  0  0  0  0
   17.2725  -10.8051  -14.9577 C   0  0  2  0  0  0  0  0  0  0  0  0
   17.3288  -12.2403  -14.7206 N   0  0  0  0  0  0  0  0  0  0  0  0
   17.8644  -10.0697  -13.8156 C   0  0  0  0  0  0  0  0  0  0  0  0
   17.6192  -10.4448  -12.6559 O   0  0  0  0  0  0  0  0  0  0  0  0
   20.5716   -6.6856  -10.8334 N   0  0  0  0  0  0  0  0  0  0  0  0
   20.9856   -6.5368  -12.1589 C   0  0  0  0  0  0  0  0  0  0  0  0
   21.9228   -5.6868  -12.3742 O   0  0  0  0  0  0  0  0  0  0  0  0
   20.4275   -7.2842  -13.3355 C   0  0  0  0  0  0  0  0  0  0  0  0
   19.2838   -8.1719  -12.9065 C   0  0  2  0  0  0  0  0  0  0  0  0
   18.7136   -8.9382  -13.9702 N   0  0  0  0  0  0  0  0  0  0  0  0
   18.1926   -7.3198  -12.3037 C   0  0  0  0  0  0  0  0  0  0  0  0
   17.4513   -6.6250  -13.0630 O   0  0  0  0  0  0  0  0  0  0  0  0
   11.4163   -9.3342   -7.6624 N   0  0  0  0  0  0  0  0  0  0  0  0
   12.3089   -9.4852   -8.7657 C   0  0  0  0  0  0  0  0  0  0  0  0
   12.2529  -10.5500   -9.4903 N   0  0  0  0  0  0  0  0  0  0  0  0
   13.2731   -8.5083   -9.1149 N   0  0  0  0  0  0  0  0  0  0  0  0
   13.9403   -7.6950   -8.0687 C   0  0  0  0  0  0  0  0  0  0  0  0
   14.8523   -6.7711   -8.7675 C   0  0  0  0  0  0  0  0  0  0  0  0
   15.9810   -7.2738   -9.5512 C   0  0  0  0  0  0  0  0  0  0  0  0
   16.8914   -6.4086  -10.2996 C   0  0  2  0  0  0  0  0  0  0  0  0
   17.9657   -7.2683  -10.9234 N   0  0  0  0  0  0  0  0  0  0  0  0
   17.6368   -5.4017   -9.4868 C   0  0  0  0  0  0  0  0  0  0  0  0
   16.8696   -4.3263   -8.9661 O   0  0  0  0  0  0  0  0  0  0  0  0
   18.8269   -5.3724   -9.1998 O   0  0  0  0  0  0  0  0  0  0  0  0
  2  1  1  0
  3  2  1  0
  3  4  1  1
  5  6  2  0
  5  3  1  0
  7  8  1  0
  8 10  1  0
  9  8  2  0
 11 10  1  6
 11 12  1  0
 12  5  1  0
 13 11  1  0
 13 23  1  0
 14 13  2  0
 16 17  2  0
 16 15  1  0
 18 16  1  0
 19 18  1  0
 20 19  1  0
 22 21  1  1
 21 20  1  0
 22 23  1  0
 22 24  1  0
 24 25  1  0
 26 24  2  0
M  END
$$$$
