SNR.pdb
     RDKit          3D

 26 25  0  0  1  0  0  0  0  0999 V2000
   17.6170  -23.0058   -8.1070 O   0  0  0  0  0  0  0  0  0  0  0  0
   18.7613  -23.8012   -7.9668 C   0  0  0  0  0  0  0  0  0  0  0  0
   18.3085  -25.2420   -8.0428 C   0  0  2  0  0  0  0  0  0  0  0  0
   17.5001  -25.4251   -9.2395 N   0  0  0  0  0  0  0  0  0  0  0  0
   17.5478  -25.6506   -6.8386 C   0  0  0  0  0  0  0  0  0  0  0  0
   16.3052  -25.6156   -6.8613 O   0  0  0  0  0  0  0  0  0  0  0  0
   16.1867  -27.4085   -2.0746 N   0  0  0  0  0  0  0  0  0  0  0  0
   17.5722  -27.5272   -2.2038 C   0  0  0  0  0  0  0  0  0  0  0  0
   18.1920  -28.0897   -1.2309 O   0  0  0  0  0  0  0  0  0  0  0  0
   18.3819  -27.0551   -3.3769 C   0  0  0  0  0  0  0  0  0  0  0  0
   17.4865  -26.4447   -4.4285 C   0  0  2  0  0  0  0  0  0  0  0  0
   18.1669  -26.0900   -5.6349 N   0  0  0  0  0  0  0  0  0  0  0  0
   16.8410  -25.1993   -3.8694 C   0  0  0  0  0  0  0  0  0  0  0  0
   17.5135  -24.1265   -3.7954 O   0  0  0  0  0  0  0  0  0  0  0  0
   12.1104  -19.1346   -5.6434 N   0  0  0  0  0  0  0  0  0  0  0  0
   11.9998  -20.4768   -6.1157 C   0  0  0  0  0  0  0  0  0  0  0  0
   11.7691  -20.6965   -7.3648 N   0  0  0  0  0  0  0  0  0  0  0  0
   12.1326  -21.6042   -5.2686 N   0  0  0  0  0  0  0  0  0  0  0  0
   12.3984  -21.4348   -3.8189 C   0  0  0  0  0  0  0  0  0  0  0  0
   12.5751  -22.7875   -3.2595 C   0  0  0  0  0  0  0  0  0  0  0  0
   13.6725  -23.6491   -3.7005 C   0  0  0  0  0  0  0  0  0  0  0  0
   14.8447  -23.9454   -2.8785 C   0  0  2  0  0  0  0  0  0  0  0  0
   15.5134  -25.1845   -3.4259 N   0  0  0  0  0  0  0  0  0  0  0  0
   14.5629  -24.2680   -1.4478 C   0  0  0  0  0  0  0  0  0  0  0  0
   14.6479  -25.6388   -1.0873 O   0  0  0  0  0  0  0  0  0  0  0  0
   14.2690  -23.5111   -0.5313 O   0  0  0  0  0  0  0  0  0  0  0  0
  2  1  1  0
  3  2  1  0
  3  4  1  6
  5  6  2  0
  5  3  1  0
  7  8  1  0
  8 10  1  0
  9  8  2  0
 11 10  1  1
 11 12  1  0
 12  5  1  0
 13 11  1  0
 13 23  1  0
 14 13  2  0
 16 17  2  0
 16 15  1  0
 18 16  1  0
 19 18  1  0
 20 19  1  0
 22 21  1  6
 21 20  1  0
 22 23  1  0
 22 24  1  0
 24 25  1  0
 26 24  2  0
M  END
$$$$
