SNR.pdb
     RDKit          3D

 26 25  0  0  1  0  0  0  0  0999 V2000
   19.2920  -10.6767  -15.3542 O   0  0  0  0  0  0  0  0  0  0  0  0
   20.2014   -9.8478  -16.0235 C   0  0  0  0  0  0  0  0  0  0  0  0
   21.4169   -9.7180  -15.1334 C   0  0  2  0  0  0  0  0  0  0  0  0
   21.9126  -11.0471  -14.8067 N   0  0  0  0  0  0  0  0  0  0  0  0
   21.1219   -8.9585  -13.8957 C   0  0  0  0  0  0  0  0  0  0  0  0
   21.0083   -9.5686  -12.8184 O   0  0  0  0  0  0  0  0  0  0  0  0
   20.3886   -5.2158  -10.3187 N   0  0  0  0  0  0  0  0  0  0  0  0
   21.1326   -4.7132  -11.3883 C   0  0  0  0  0  0  0  0  0  0  0  0
   21.6678   -3.5587  -11.2213 O   0  0  0  0  0  0  0  0  0  0  0  0
   21.3526   -5.4093  -12.7004 C   0  0  0  0  0  0  0  0  0  0  0  0
   20.6813   -6.7618  -12.7027 C   0  0  2  0  0  0  0  0  0  0  0  0
   20.9586   -7.5451  -13.8662 N   0  0  0  0  0  0  0  0  0  0  0  0
   19.1859   -6.5745  -12.6078 C   0  0  0  0  0  0  0  0  0  0  0  0
   18.5397   -6.1812  -13.6258 O   0  0  0  0  0  0  0  0  0  0  0  0
   12.5393  -10.7560   -8.3579 N   0  0  0  0  0  0  0  0  0  0  0  0
   12.8930   -9.5017   -7.7759 C   0  0  0  0  0  0  0  0  0  0  0  0
   12.1084   -8.9561   -6.9108 N   0  0  0  0  0  0  0  0  0  0  0  0
   14.0842   -8.8095   -8.1043 N   0  0  0  0  0  0  0  0  0  0  0  0
   14.4921   -8.6337   -9.5198 C   0  0  0  0  0  0  0  0  0  0  0  0
   15.1558   -7.3203   -9.6097 C   0  0  0  0  0  0  0  0  0  0  0  0
   16.5560   -7.2088  -10.0199 C   0  0  0  0  0  0  0  0  0  0  0  0
   16.9748   -6.7152  -11.3308 C   0  0  2  0  0  0  0  0  0  0  0  0
   18.4787   -6.8223  -11.4254 N   0  0  0  0  0  0  0  0  0  0  0  0
   16.6800   -5.2764  -11.6014 C   0  0  0  0  0  0  0  0  0  0  0  0
   17.5027   -4.3326  -10.9314 O   0  0  0  0  0  0  0  0  0  0  0  0
   15.8233   -4.7894  -12.3282 O   0  0  0  0  0  0  0  0  0  0  0  0
  2  1  1  0
  3  2  1  0
  3  4  1  1
  5  6  2  0
  5  3  1  0
  7  8  1  0
  8 10  1  0
  9  8  2  0
 11 10  1  6
 11 12  1  0
 12  5  1  0
 13 11  1  0
 13 23  1  0
 14 13  2  0
 16 17  2  0
 16 15  1  0
 18 16  1  0
 19 18  1  0
 20 19  1  0
 22 21  1  1
 21 20  1  0
 22 23  1  0
 22 24  1  0
 24 25  1  0
 26 24  2  0
M  END
$$$$
