SNR.pdb
     RDKit          3D

 26 25  0  0  1  0  0  0  0  0999 V2000
   14.8135  -13.0689    3.6766 O   0  0  0  0  0  0  0  0  0  0  0  0
   15.7129  -13.0220    4.7493 C   0  0  0  0  0  0  0  0  0  0  0  0
   17.0079  -13.6350    4.2659 C   0  0  2  0  0  0  0  0  0  0  0  0
   16.7792  -15.0344    3.9367 N   0  0  0  0  0  0  0  0  0  0  0  0
   18.0910  -13.5112    5.2695 C   0  0  0  0  0  0  0  0  0  0  0  0
   18.4681  -14.5219    5.8875 O   0  0  0  0  0  0  0  0  0  0  0  0
   22.3192  -11.8523    7.8764 N   0  0  0  0  0  0  0  0  0  0  0  0
   21.8928  -10.8302    7.0256 C   0  0  0  0  0  0  0  0  0  0  0  0
   22.6728   -9.8175    6.9112 O   0  0  0  0  0  0  0  0  0  0  0  0
   20.6105  -10.8245    6.2443 C   0  0  0  0  0  0  0  0  0  0  0  0
   19.8638  -12.1223    6.4404 C   0  0  2  0  0  0  0  0  0  0  0  0
   18.7383  -12.2807    5.5732 N   0  0  0  0  0  0  0  0  0  0  0  0
   19.3735  -12.2029    7.8663 C   0  0  0  0  0  0  0  0  0  0  0  0
   18.3872  -11.4928    8.2289 O   0  0  0  0  0  0  0  0  0  0  0  0
   14.9664  -17.1269    7.9531 N   0  0  0  0  0  0  0  0  0  0  0  0
   15.1448  -15.7110    7.9708 C   0  0  0  0  0  0  0  0  0  0  0  0
   14.4970  -14.9761    7.1329 N   0  0  0  0  0  0  0  0  0  0  0  0
   16.0131  -15.0559    8.8779 N   0  0  0  0  0  0  0  0  0  0  0  0
   16.7604  -15.8271    9.9016 C   0  0  0  0  0  0  0  0  0  0  0  0
   17.5289  -14.8482   10.6922 C   0  0  0  0  0  0  0  0  0  0  0  0
   18.9268  -14.5534   10.3757 C   0  0  0  0  0  0  0  0  0  0  0  0
   19.4492  -13.1967   10.2214 C   0  0  2  0  0  0  0  0  0  0  0  0
   19.9731  -13.0420    8.8129 N   0  0  0  0  0  0  0  0  0  0  0  0
   20.6084  -12.8496   11.0966 C   0  0  0  0  0  0  0  0  0  0  0  0
   20.3721  -11.8556   12.0827 O   0  0  0  0  0  0  0  0  0  0  0  0
   21.7444  -13.3067   11.0872 O   0  0  0  0  0  0  0  0  0  0  0  0
  2  1  1  0
  3  2  1  0
  3  4  1  1
  5  6  2  0
  5  3  1  0
  7  8  1  0
  8 10  1  0
  9  8  2  0
 11 10  1  1
 11 12  1  0
 12  5  1  0
 13 11  1  0
 13 23  1  0
 14 13  2  0
 16 17  2  0
 16 15  1  0
 18 16  1  0
 19 18  1  0
 20 19  1  0
 22 21  1  1
 21 20  1  0
 22 23  1  0
 22 24  1  0
 24 25  1  0
 26 24  2  0
M  END
$$$$
