DCQ.pdb
     RDKit          3D

 24 23  0  0  1  0  0  0  0  0999 V2000
    6.5631  -15.5546   20.9537 N   0  0  0  0  0  0  0  0  0  0  0  0
    7.9715  -15.7111   21.2183 C   0  0  1  0  0  0  0  0  0  0  0  0
    8.8193  -15.3742   20.0246 C   0  0  0  0  0  0  0  0  0  0  0  0
    8.3851  -16.2037   18.8854 C   0  0  0  0  0  0  0  0  0  0  0  0
    7.2975  -16.8148   18.9456 O   0  0  0  0  0  0  0  0  0  0  0  0
    8.3964  -14.9853   22.4382 C   0  0  0  0  0  0  0  0  0  0  0  0
    9.6281  -14.9174   22.7086 O   0  0  0  0  0  0  0  0  0  0  0  0
    9.1590  -16.3151   17.7578 O   0  0  0  0  0  0  0  0  0  0  0  0
    7.4890  -14.3561   23.3287 N   0  0  0  0  0  0  0  0  0  0  0  0
    7.9614  -13.7998   24.5515 C   0  0  1  0  0  0  0  0  0  0  0  0
    6.9501  -12.7574   25.0325 C   0  0  0  0  0  0  0  0  0  0  0  0
    7.4021  -12.1059   26.6436 S   0  0  0  0  0  0  0  0  0  0  0  0
    8.2306  -14.8001   25.6057 C   0  0  0  0  0  0  0  0  0  0  0  0
    7.3343  -15.6842   25.7778 O   0  0  0  0  0  0  0  0  0  0  0  0
   11.9172  -18.9401   24.8227 N   0  0  0  0  0  0  0  0  0  0  0  0
   11.7451  -19.1517   26.2256 C   0  0  0  0  0  0  0  0  0  0  0  0
   12.3007  -20.1686   26.7463 O   0  0  0  0  0  0  0  0  0  0  0  0
   10.9612  -18.2397   27.0854 C   0  0  0  0  0  0  0  0  0  0  0  0
   10.4299  -17.0164   26.4298 C   0  0  0  0  0  0  0  0  0  0  0  0
    9.6528  -16.0475   27.2395 C   0  0  2  0  0  0  0  0  0  0  0  0
    9.3706  -14.8429   26.4066 N   0  0  0  0  0  0  0  0  0  0  0  0
   10.3093  -15.6080   28.4567 C   0  0  0  0  0  0  0  0  0  0  0  0
   10.5486  -16.5251   29.4799 O   0  0  0  0  0  0  0  0  0  0  0  0
   10.7010  -14.4237   28.6877 O   0  0  0  0  0  0  0  0  0  0  0  0
  2  1  1  6
  2  3  1  0
  3  4  1  0
  4  8  1  0
  4  5  2  0
  6  2  1  0
  6  9  1  0
  7  6  2  0
 10  9  1  0
 10 11  1  1
 10 13  1  0
 12 11  1  0
 13 21  1  0
 14 13  2  0
 16 17  2  0
 16 15  1  0
 18 16  1  0
 19 18  1  0
 20 19  1  6
 21 20  1  0
 22 23  1  0
 22 20  1  0
 24 22  2  0
M  END
$$$$
