DCQ.pdb
     RDKit          3D

 24 23  0  0  1  0  0  0  0  0999 V2000
   11.1332  -17.7380   18.8800 N   0  0  0  0  0  0  0  0  0  0  0  0
   12.1175  -17.6251   19.9272 C   0  0  1  0  0  0  0  0  0  0  0  0
   13.4179  -17.0584   19.4320 C   0  0  0  0  0  0  0  0  0  0  0  0
   14.0059  -17.9993   18.4608 C   0  0  0  0  0  0  0  0  0  0  0  0
   14.9805  -17.6412   17.7666 O   0  0  0  0  0  0  0  0  0  0  0  0
   11.5968  -16.8998   21.1097 C   0  0  0  0  0  0  0  0  0  0  0  0
   12.1972  -15.8591   21.4989 O   0  0  0  0  0  0  0  0  0  0  0  0
   13.4981  -19.2647   18.3074 O   0  0  0  0  0  0  0  0  0  0  0  0
   10.4507  -17.3122   21.8367 N   0  0  0  0  0  0  0  0  0  0  0  0
   10.0212  -16.5670   22.9717 C   0  0  1  0  0  0  0  0  0  0  0  0
    8.4958  -16.4567   22.9301 C   0  0  0  0  0  0  0  0  0  0  0  0
    7.7234  -18.0763   22.9991 S   0  0  0  0  0  0  0  0  0  0  0  0
   10.4756  -17.1204   24.2646 C   0  0  0  0  0  0  0  0  0  0  0  0
   10.9610  -18.2942   24.2293 O   0  0  0  0  0  0  0  0  0  0  0  0
   11.5622  -14.0124   29.7684 N   0  0  0  0  0  0  0  0  0  0  0  0
   10.3246  -14.0893   29.0577 C   0  0  0  0  0  0  0  0  0  0  0  0
    9.4389  -13.2140   29.3092 O   0  0  0  0  0  0  0  0  0  0  0  0
   10.0416  -15.1312   28.0479 C   0  0  0  0  0  0  0  0  0  0  0  0
   11.1445  -16.0864   27.7653 C   0  0  0  0  0  0  0  0  0  0  0  0
   10.9503  -17.1184   26.7187 C   0  0  2  0  0  0  0  0  0  0  0  0
   10.4117  -16.4629   25.4920 N   0  0  0  0  0  0  0  0  0  0  0  0
   10.0481  -18.1942   27.0857 C   0  0  0  0  0  0  0  0  0  0  0  0
   10.4614  -19.1552   28.0082 O   0  0  0  0  0  0  0  0  0  0  0  0
    8.8745  -18.3498   26.6298 O   0  0  0  0  0  0  0  0  0  0  0  0
  2  1  1  6
  2  3  1  0
  3  4  1  0
  4  8  1  0
  4  5  2  0
  6  2  1  0
  6  9  1  0
  7  6  2  0
 10  9  1  0
 10 11  1  1
 10 13  1  0
 12 11  1  0
 13 21  1  0
 14 13  2  0
 16 17  2  0
 16 15  1  0
 18 16  1  0
 19 18  1  0
 20 19  1  1
 21 20  1  0
 22 23  1  0
 22 20  1  0
 24 22  2  0
M  END
$$$$
