DCQ.pdb
     RDKit          3D

 24 23  0  0  1  0  0  0  0  0999 V2000
   10.1052  -19.1071   19.9888 N   0  0  0  0  0  0  0  0  0  0  0  0
   10.6262  -17.8340   20.4201 C   0  0  1  0  0  0  0  0  0  0  0  0
   10.5831  -16.7993   19.3316 C   0  0  0  0  0  0  0  0  0  0  0  0
   11.6205  -17.1179   18.3333 C   0  0  0  0  0  0  0  0  0  0  0  0
   12.3792  -18.0922   18.5206 O   0  0  0  0  0  0  0  0  0  0  0  0
    9.9912  -17.3646   21.6738 C   0  0  0  0  0  0  0  0  0  0  0  0
   10.2799  -16.2148   22.1094 O   0  0  0  0  0  0  0  0  0  0  0  0
   11.7657  -16.3591   17.1993 O   0  0  0  0  0  0  0  0  0  0  0  0
    9.0682  -18.1411   22.4203 N   0  0  0  0  0  0  0  0  0  0  0  0
    8.5354  -17.6359   23.6404 C   0  0  1  0  0  0  0  0  0  0  0  0
    7.3380  -18.4999   24.0411 C   0  0  0  0  0  0  0  0  0  0  0  0
    7.8602  -20.1395   24.5543 S   0  0  0  0  0  0  0  0  0  0  0  0
    9.5190  -17.5538   24.7406 C   0  0  0  0  0  0  0  0  0  0  0  0
   10.6009  -18.1982   24.5708 O   0  0  0  0  0  0  0  0  0  0  0  0
   10.0751  -13.1677   29.3573 N   0  0  0  0  0  0  0  0  0  0  0  0
    9.3487  -13.2980   28.1334 C   0  0  0  0  0  0  0  0  0  0  0  0
    8.6230  -12.3222   27.7657 O   0  0  0  0  0  0  0  0  0  0  0  0
    9.4143  -14.5069   27.2851 C   0  0  0  0  0  0  0  0  0  0  0  0
   10.3140  -15.5911   27.7581 C   0  0  0  0  0  0  0  0  0  0  0  0
   10.4280  -16.8316   26.9542 C   0  0  2  0  0  0  0  0  0  0  0  0
    9.3495  -16.8370   25.9240 N   0  0  0  0  0  0  0  0  0  0  0  0
   10.3262  -18.0619   27.7170 C   0  0  0  0  0  0  0  0  0  0  0  0
   11.3267  -18.3899   28.6318 O   0  0  0  0  0  0  0  0  0  0  0  0
    9.3778  -18.8997   27.6275 O   0  0  0  0  0  0  0  0  0  0  0  0
  2  1  1  6
  2  3  1  0
  3  4  1  0
  4  8  1  0
  4  5  2  0
  6  2  1  0
  6  9  1  0
  7  6  2  0
 10  9  1  0
 10 11  1  1
 10 13  1  0
 12 11  1  0
 13 21  1  0
 14 13  2  0
 16 17  2  0
 16 15  1  0
 18 16  1  0
 19 18  1  0
 20 19  1  1
 21 20  1  0
 22 23  1  0
 22 20  1  0
 24 22  2  0
M  END
$$$$
