DCQ.pdb
     RDKit          3D

 24 23  0  0  1  0  0  0  0  0999 V2000
    8.6529  -17.6388   18.9942 N   0  0  0  0  0  0  0  0  0  0  0  0
   10.0133  -17.2724   19.2992 C   0  0  1  0  0  0  0  0  0  0  0  0
   10.7398  -16.7227   18.1045 C   0  0  0  0  0  0  0  0  0  0  0  0
   10.5875  -17.6661   16.9815 C   0  0  0  0  0  0  0  0  0  0  0  0
   10.9098  -18.8633   17.1327 O   0  0  0  0  0  0  0  0  0  0  0  0
   10.1020  -16.3783   20.4774 C   0  0  0  0  0  0  0  0  0  0  0  0
   11.2415  -16.0065   20.8755 O   0  0  0  0  0  0  0  0  0  0  0  0
   10.0962  -17.2484   15.7704 O   0  0  0  0  0  0  0  0  0  0  0  0
    8.9683  -15.9115   21.1908 N   0  0  0  0  0  0  0  0  0  0  0  0
    9.1318  -15.3004   22.4667 C   0  0  1  0  0  0  0  0  0  0  0  0
    7.8295  -14.5853   22.8320 C   0  0  0  0  0  0  0  0  0  0  0  0
    7.8305  -14.0680   24.5516 S   0  0  0  0  0  0  0  0  0  0  0  0
    9.5388  -16.2356   23.5363 C   0  0  0  0  0  0  0  0  0  0  0  0
    8.8395  -17.2903   23.6511 O   0  0  0  0  0  0  0  0  0  0  0  0
   14.8596  -16.1662   22.4427 N   0  0  0  0  0  0  0  0  0  0  0  0
   14.1544  -16.3676   23.6694 C   0  0  0  0  0  0  0  0  0  0  0  0
   14.5214  -15.6965   24.6836 O   0  0  0  0  0  0  0  0  0  0  0  0
   13.0228  -17.3099   23.8000 C   0  0  0  0  0  0  0  0  0  0  0  0
   12.4360  -17.4447   25.1589 C   0  0  0  0  0  0  0  0  0  0  0  0
   10.9998  -17.1334   25.3549 C   0  0  2  0  0  0  0  0  0  0  0  0
   10.6099  -16.0487   24.4085 N   0  0  0  0  0  0  0  0  0  0  0  0
   10.6478  -16.7066   26.6966 C   0  0  0  0  0  0  0  0  0  0  0  0
   10.8877  -17.5576   27.7752 O   0  0  0  0  0  0  0  0  0  0  0  0
   10.1226  -15.5906   26.9930 O   0  0  0  0  0  0  0  0  0  0  0  0
  2  1  1  6
  2  3  1  0
  3  4  1  0
  4  8  1  0
  4  5  2  0
  6  2  1  0
  6  9  1  0
  7  6  2  0
 10  9  1  0
 10 11  1  1
 10 13  1  0
 12 11  1  0
 13 21  1  0
 14 13  2  0
 16 17  2  0
 16 15  1  0
 18 16  1  0
 19 18  1  0
 20 19  1  1
 21 20  1  0
 22 23  1  0
 22 20  1  0
 24 22  2  0
M  END
$$$$
