DCQ.pdb
     RDKit          3D

 24 23  0  0  1  0  0  0  0  0999 V2000
    8.2496  -14.7706   19.9275 N   0  0  0  0  0  0  0  0  0  0  0  0
    7.6243  -15.2321   21.1416 C   0  0  1  0  0  0  0  0  0  0  0  0
    7.4057  -16.7186   21.1439 C   0  0  0  0  0  0  0  0  0  0  0  0
    6.5561  -17.0746   19.9924 C   0  0  0  0  0  0  0  0  0  0  0  0
    6.9313  -16.7878   18.8362 O   0  0  0  0  0  0  0  0  0  0  0  0
    8.3373  -14.7623   22.3526 C   0  0  0  0  0  0  0  0  0  0  0  0
    9.5987  -14.8185   22.3770 O   0  0  0  0  0  0  0  0  0  0  0  0
    5.3573  -17.7175   20.1717 O   0  0  0  0  0  0  0  0  0  0  0  0
    7.6767  -14.2478   23.4976 N   0  0  0  0  0  0  0  0  0  0  0  0
    8.3801  -14.1229   24.7295 C   0  0  1  0  0  0  0  0  0  0  0  0
    7.5962  -13.1772   25.6416 C   0  0  0  0  0  0  0  0  0  0  0  0
    5.8268  -13.4428   25.4892 S   0  0  0  0  0  0  0  0  0  0  0  0
    8.6456  -15.4098   25.4063 C   0  0  0  0  0  0  0  0  0  0  0  0
    8.0229  -16.4190   24.9499 O   0  0  0  0  0  0  0  0  0  0  0  0
   10.4482  -19.4216   24.1324 N   0  0  0  0  0  0  0  0  0  0  0  0
   11.6973  -19.3547   24.8236 C   0  0  0  0  0  0  0  0  0  0  0  0
   12.4188  -20.4000   24.8508 O   0  0  0  0  0  0  0  0  0  0  0  0
   12.1799  -18.1285   25.4937 C   0  0  0  0  0  0  0  0  0  0  0  0
   11.2372  -16.9797   25.5159 C   0  0  0  0  0  0  0  0  0  0  0  0
   10.2635  -16.8713   26.6286 C   0  0  2  0  0  0  0  0  0  0  0  0
    9.5100  -15.5923   26.4844 N   0  0  0  0  0  0  0  0  0  0  0  0
   10.8508  -16.8992   27.9553 C   0  0  0  0  0  0  0  0  0  0  0  0
   10.9261  -18.1062   28.6500 O   0  0  0  0  0  0  0  0  0  0  0  0
   11.3201  -15.8916   28.5669 O   0  0  0  0  0  0  0  0  0  0  0  0
  2  1  1  6
  2  3  1  0
  3  4  1  0
  4  8  1  0
  4  5  2  0
  6  2  1  0
  6  9  1  0
  7  6  2  0
 10  9  1  0
 10 11  1  1
 10 13  1  0
 12 11  1  0
 13 21  1  0
 14 13  2  0
 16 17  2  0
 16 15  1  0
 18 16  1  0
 19 18  1  0
 20 19  1  6
 21 20  1  0
 22 23  1  0
 22 20  1  0
 24 22  2  0
M  END
$$$$
