DCQ.pdb
     RDKit          3D

 24 23  0  0  1  0  0  0  0  0999 V2000
   10.2270  -17.9884   19.2172 N   0  0  0  0  0  0  0  0  0  0  0  0
   11.3767  -17.5404   19.9627 C   0  0  1  0  0  0  0  0  0  0  0  0
   12.4203  -16.9125   19.0830 C   0  0  0  0  0  0  0  0  0  0  0  0
   12.8820  -17.9151   18.1052 C   0  0  0  0  0  0  0  0  0  0  0  0
   12.6823  -17.7268   16.8867 O   0  0  0  0  0  0  0  0  0  0  0  0
   11.0013  -16.6734   21.1041 C   0  0  0  0  0  0  0  0  0  0  0  0
   11.9158  -16.1044   21.7634 O   0  0  0  0  0  0  0  0  0  0  0  0
   13.5288  -19.0541   18.5138 O   0  0  0  0  0  0  0  0  0  0  0  0
    9.6593  -16.4441   21.5024 N   0  0  0  0  0  0  0  0  0  0  0  0
    9.3840  -15.6678   22.6641 C   0  0  1  0  0  0  0  0  0  0  0  0
    7.8861  -15.3579   22.6963 C   0  0  0  0  0  0  0  0  0  0  0  0
    7.3526  -14.5620   21.1777 S   0  0  0  0  0  0  0  0  0  0  0  0
    9.8204  -16.2972   23.9282 C   0  0  0  0  0  0  0  0  0  0  0  0
    9.1812  -17.3362   24.2838 O   0  0  0  0  0  0  0  0  0  0  0  0
   10.4812  -12.9937   28.8416 N   0  0  0  0  0  0  0  0  0  0  0  0
   10.1628  -14.3469   29.1731 C   0  0  0  0  0  0  0  0  0  0  0  0
   10.4894  -14.7697   30.3257 O   0  0  0  0  0  0  0  0  0  0  0  0
    9.4694  -15.2606   28.2404 C   0  0  0  0  0  0  0  0  0  0  0  0
    9.8248  -15.1238   26.8038 C   0  0  0  0  0  0  0  0  0  0  0  0
   10.8055  -16.0664   26.2138 C   0  0  2  0  0  0  0  0  0  0  0  0
   10.8588  -15.8438   24.7400 N   0  0  0  0  0  0  0  0  0  0  0  0
   10.5158  -17.4693   26.4458 C   0  0  0  0  0  0  0  0  0  0  0  0
   11.0187  -18.0973   27.5850 O   0  0  0  0  0  0  0  0  0  0  0  0
    9.8222  -18.2072   25.6816 O   0  0  0  0  0  0  0  0  0  0  0  0
  2  1  1  6
  2  3  1  0
  3  4  1  0
  4  8  1  0
  4  5  2  0
  6  2  1  0
  6  9  1  0
  7  6  2  0
 10  9  1  0
 10 11  1  1
 10 13  1  0
 12 11  1  0
 13 21  1  0
 14 13  2  0
 16 17  2  0
 16 15  1  0
 18 16  1  0
 19 18  1  0
 20 19  1  6
 21 20  1  0
 22 23  1  0
 22 20  1  0
 24 22  2  0
M  END
$$$$
