DCQ.pdb
     RDKit          3D

 24 23  0  0  1  0  0  0  0  0999 V2000
    6.5979  -15.4620   21.1130 N   0  0  0  0  0  0  0  0  0  0  0  0
    7.9197  -15.8181   21.5649 C   0  0  1  0  0  0  0  0  0  0  0  0
    8.9003  -15.9333   20.4324 C   0  0  0  0  0  0  0  0  0  0  0  0
    8.3713  -16.8897   19.4426 C   0  0  0  0  0  0  0  0  0  0  0  0
    8.2554  -18.0949   19.7492 O   0  0  0  0  0  0  0  0  0  0  0  0
    8.4024  -14.9249   22.6440 C   0  0  0  0  0  0  0  0  0  0  0  0
    9.6401  -14.8826   22.8916 O   0  0  0  0  0  0  0  0  0  0  0  0
    8.0037  -16.4756   18.1872 O   0  0  0  0  0  0  0  0  0  0  0  0
    7.5446  -14.1064   23.4227 N   0  0  0  0  0  0  0  0  0  0  0  0
    8.0235  -13.5161   24.6270 C   0  0  1  0  0  0  0  0  0  0  0  0
    6.9877  -12.5010   25.1145 C   0  0  0  0  0  0  0  0  0  0  0  0
    5.6278  -13.3129   25.9607 S   0  0  0  0  0  0  0  0  0  0  0  0
    8.3483  -14.4909   25.6895 C   0  0  0  0  0  0  0  0  0  0  0  0
    7.6349  -15.5419   25.7194 O   0  0  0  0  0  0  0  0  0  0  0  0
   13.0738  -17.6559   25.6522 N   0  0  0  0  0  0  0  0  0  0  0  0
   12.6207  -18.0177   26.9584 C   0  0  0  0  0  0  0  0  0  0  0  0
   13.2382  -18.9468   27.5661 O   0  0  0  0  0  0  0  0  0  0  0  0
   11.4795  -17.3552   27.6250 C   0  0  0  0  0  0  0  0  0  0  0  0
   10.8564  -16.2250   26.8878 C   0  0  0  0  0  0  0  0  0  0  0  0
    9.7309  -15.4919   27.5154 C   0  0  2  0  0  0  0  0  0  0  0  0
    9.3576  -14.3439   26.6395 N   0  0  0  0  0  0  0  0  0  0  0  0
   10.0079  -14.9728   28.8420 C   0  0  0  0  0  0  0  0  0  0  0  0
   10.2676  -15.8583   29.8878 O   0  0  0  0  0  0  0  0  0  0  0  0
   10.0374  -13.7432   29.1529 O   0  0  0  0  0  0  0  0  0  0  0  0
  2  1  1  6
  2  3  1  0
  3  4  1  0
  4  8  1  0
  4  5  2  0
  6  2  1  0
  6  9  1  0
  7  6  2  0
 10  9  1  0
 10 11  1  1
 10 13  1  0
 12 11  1  0
 13 21  1  0
 14 13  2  0
 16 17  2  0
 16 15  1  0
 18 16  1  0
 19 18  1  0
 20 19  1  6
 21 20  1  0
 22 23  1  0
 22 20  1  0
 24 22  2  0
M  END
$$$$
