FTF.pdb
     RDKit          3D

 30 31  0  0  1  0  0  0  0  0999 V2000
    9.6071  -16.7828   14.1658 N   0  0  0  0  0  0  0  0  0  0  0  0
   10.4414  -17.0306   15.3264 C   0  0  1  0  0  0  0  0  0  0  0  0
   11.4686  -15.9186   15.3862 C   0  0  0  0  0  0  0  0  0  0  0  0
   12.5633  -16.1359   14.4084 C   0  0  0  0  0  0  0  0  0  0  0  0
   12.5103  -15.5262   13.1551 C   0  0  0  0  0  0  0  0  0  0  0  0
   13.5071  -15.7043   12.2202 C   0  0  0  0  0  0  0  0  0  0  0  0
   14.5844  -16.5066   12.5337 C   0  0  0  0  0  0  0  0  0  0  0  0
   14.6396  -17.1021   13.7533 C   0  0  0  0  0  0  0  0  0  0  0  0
   13.6424  -16.9212   14.6827 C   0  0  0  0  0  0  0  0  0  0  0  0
    9.6213  -16.9479   16.5855 C   0  0  0  0  0  0  0  0  0  0  0  0
    8.5638  -16.2725   16.6303 O   0  0  0  0  0  0  0  0  0  0  0  0
    8.1743  -19.7812   17.9478 C   0  0  0  0  0  0  0  0  0  0  0  0
    8.8366  -19.1734   19.1576 C   0  0  1  0  0  0  0  0  0  0  0  0
   10.0425  -19.8542   19.3484 O   0  0  0  0  0  0  0  0  0  0  0  0
    9.1016  -17.7028   18.8969 C   0  0  2  0  0  0  0  0  0  0  0  0
   10.0108  -17.6285   17.7691 N   0  0  0  0  0  0  0  0  0  0  0  0
    9.6666  -17.0324   20.0956 C   0  0  0  0  0  0  0  0  0  0  0  0
   10.8993  -16.7627   20.1553 O   0  0  0  0  0  0  0  0  0  0  0  0
    8.8100  -16.6956   21.1769 N   0  0  0  0  0  0  0  0  0  0  0  0
    9.3082  -16.0336   22.3747 C   0  0  1  0  0  0  0  0  0  0  0  0
    8.3626  -14.9083   22.7923 C   0  0  0  0  0  0  0  0  0  0  0  0
    8.1214  -14.0533   21.5969 C   0  0  0  0  0  0  0  0  0  0  0  0
    6.9113  -14.1246   20.9157 C   0  0  0  0  0  0  0  0  0  0  0  0
    6.6561  -13.3387   19.7939 C   0  0  0  0  0  0  0  0  0  0  0  0
    7.6053  -12.4636   19.3276 C   0  0  0  0  0  0  0  0  0  0  0  0
    8.8092  -12.3839   19.9945 C   0  0  0  0  0  0  0  0  0  0  0  0
    9.0561  -13.1695   21.1108 C   0  0  0  0  0  0  0  0  0  0  0  0
    9.5177  -16.9986   23.4800 C   0  0  0  0  0  0  0  0  0  0  0  0
    9.0864  -18.1751   23.4221 O   0  0  0  0  0  0  0  0  0  0  0  0
   10.2049  -16.5999   24.6066 O   0  0  0  0  0  0  0  0  0  0  0  0
  2 10  1  0
  2  1  1  6
  3  2  1  0
  4  9  1  0
  4  3  1  0
  5  4  2  0
  6  7  2  0
  6  5  1  0
  7  8  1  0
  8  9  2  0
 10 11  2  0
 13 15  1  0
 13 14  1  0
 13 12  1  6
 15 16  1  6
 16 10  1  0
 17 18  2  0
 17 15  1  0
 19 17  1  0
 20 19  1  0
 20 28  1  0
 20 21  1  1
 22 21  1  0
 23 22  2  0
 24 23  1  0
 25 24  2  0
 25 26  1  0
 26 27  2  0
 27 22  1  0
 28 30  1  0
 29 28  2  0
M  END
$$$$
