FTF.pdb
     RDKit          3D

 30 31  0  0  1  0  0  0  0  0999 V2000
   10.6444  -16.9632   17.5240 N   0  0  0  0  0  0  0  0  0  0  0  0
    9.9552  -17.5628   18.6508 C   0  0  1  0  0  0  0  0  0  0  0  0
   10.7211  -18.8134   19.0314 C   0  0  0  0  0  0  0  0  0  0  0  0
   10.0752  -19.5238   20.1627 C   0  0  0  0  0  0  0  0  0  0  0  0
   10.6123  -19.4254   21.4460 C   0  0  0  0  0  0  0  0  0  0  0  0
   10.0415  -20.0709   22.5217 C   0  0  0  0  0  0  0  0  0  0  0  0
    8.9097  -20.8336   22.3221 C   0  0  0  0  0  0  0  0  0  0  0  0
    8.3837  -20.9319   21.0736 C   0  0  0  0  0  0  0  0  0  0  0  0
    8.9570  -20.2859   20.0037 C   0  0  0  0  0  0  0  0  0  0  0  0
    9.9935  -16.6384   19.8377 C   0  0  0  0  0  0  0  0  0  0  0  0
   11.0589  -16.0746   20.1894 O   0  0  0  0  0  0  0  0  0  0  0  0
    7.5469  -13.8309   20.5506 C   0  0  0  0  0  0  0  0  0  0  0  0
    7.6249  -14.6845   21.7903 C   0  0  1  0  0  0  0  0  0  0  0  0
    6.5159  -15.5353   21.7710 O   0  0  0  0  0  0  0  0  0  0  0  0
    8.9067  -15.4950   21.7597 C   0  0  2  0  0  0  0  0  0  0  0  0
    8.8293  -16.3685   20.6043 N   0  0  0  0  0  0  0  0  0  0  0  0
    9.0899  -16.2682   23.0144 C   0  0  0  0  0  0  0  0  0  0  0  0
    9.0797  -17.5313   22.9937 O   0  0  0  0  0  0  0  0  0  0  0  0
    9.2772  -15.5768   24.2404 N   0  0  0  0  0  0  0  0  0  0  0  0
    9.5476  -16.2809   25.4864 C   0  0  1  0  0  0  0  0  0  0  0  0
   10.1758  -15.3330   26.5069 C   0  0  0  0  0  0  0  0  0  0  0  0
    9.1574  -14.3034   26.8547 C   0  0  0  0  0  0  0  0  0  0  0  0
    9.4378  -13.3338   27.8110 C   0  0  0  0  0  0  0  0  0  0  0  0
    8.5057  -12.3583   28.1586 C   0  0  0  0  0  0  0  0  0  0  0  0
    7.2718  -12.3302   27.5578 C   0  0  0  0  0  0  0  0  0  0  0  0
    6.9819  -13.2864   26.6080 C   0  0  0  0  0  0  0  0  0  0  0  0
    7.9150  -14.2546   26.2670 C   0  0  0  0  0  0  0  0  0  0  0  0
    8.3228  -16.9178   26.0259 C   0  0  0  0  0  0  0  0  0  0  0  0
    8.3641  -17.7247   26.9855 O   0  0  0  0  0  0  0  0  0  0  0  0
    7.1000  -16.6203   25.4629 O   0  0  0  0  0  0  0  0  0  0  0  0
  2 10  1  0
  2  1  1  6
  3  2  1  0
  4  9  1  0
  4  3  1  0
  5  4  2  0
  6  7  2  0
  6  5  1  0
  7  8  1  0
  8  9  2  0
 10 11  2  0
 13 15  1  0
 13 14  1  0
 13 12  1  6
 15 16  1  6
 16 10  1  0
 17 18  2  0
 17 15  1  0
 19 17  1  0
 20 19  1  0
 20 28  1  0
 20 21  1  1
 22 21  1  0
 23 22  2  0
 24 23  1  0
 25 24  2  0
 25 26  1  0
 26 27  2  0
 27 22  1  0
 28 30  1  0
 29 28  2  0
M  END
$$$$
