FTF.pdb
     RDKit          3D

 30 31  0  0  1  0  0  0  0  0999 V2000
   11.2700  -18.7655   21.2005 N   0  0  0  0  0  0  0  0  0  0  0  0
   10.0428  -18.5712   21.9492 C   0  0  1  0  0  0  0  0  0  0  0  0
   10.2113  -19.2786   23.2782 C   0  0  0  0  0  0  0  0  0  0  0  0
    9.0406  -19.0599   24.1633 C   0  0  0  0  0  0  0  0  0  0  0  0
    9.2143  -18.4771   25.4185 C   0  0  0  0  0  0  0  0  0  0  0  0
    8.1520  -18.2584   26.2689 C   0  0  0  0  0  0  0  0  0  0  0  0
    6.8848  -18.6259   25.8667 C   0  0  0  0  0  0  0  0  0  0  0  0
    6.7117  -19.1938   24.6449 C   0  0  0  0  0  0  0  0  0  0  0  0
    7.7749  -19.4099   23.8001 C   0  0  0  0  0  0  0  0  0  0  0  0
    9.8380  -17.1099   22.2450 C   0  0  0  0  0  0  0  0  0  0  0  0
   10.7525  -16.4139   22.7506 O   0  0  0  0  0  0  0  0  0  0  0  0
    8.8379  -14.1707   20.2098 C   0  0  0  0  0  0  0  0  0  0  0  0
    7.7872  -14.3294   21.2788 C   0  0  1  0  0  0  0  0  0  0  0  0
    6.7246  -15.0341   20.7058 O   0  0  0  0  0  0  0  0  0  0  0  0
    8.3693  -15.1132   22.4397 C   0  0  2  0  0  0  0  0  0  0  0  0
    8.6056  -16.4632   21.9648 N   0  0  0  0  0  0  0  0  0  0  0  0
    7.4589  -15.1013   23.6131 C   0  0  0  0  0  0  0  0  0  0  0  0
    6.7461  -16.1098   23.8788 O   0  0  0  0  0  0  0  0  0  0  0  0
    7.3948  -13.9461   24.4364 N   0  0  0  0  0  0  0  0  0  0  0  0
    6.4726  -13.8531   25.5598 C   0  0  1  0  0  0  0  0  0  0  0  0
    6.6297  -15.0643   26.4780 C   0  0  0  0  0  0  0  0  0  0  0  0
    8.0117  -15.0356   27.0321 C   0  0  0  0  0  0  0  0  0  0  0  0
    8.3934  -14.0309   27.9143 C   0  0  0  0  0  0  0  0  0  0  0  0
    9.6790  -13.9763   28.4487 C   0  0  0  0  0  0  0  0  0  0  0  0
   10.6123  -14.9253   28.1131 C   0  0  0  0  0  0  0  0  0  0  0  0
   10.2458  -15.9266   27.2392 C   0  0  0  0  0  0  0  0  0  0  0  0
    8.9640  -15.9745   26.7112 C   0  0  0  0  0  0  0  0  0  0  0  0
    6.6531  -12.5851   26.3057 C   0  0  0  0  0  0  0  0  0  0  0  0
    5.9323  -12.2867   27.2880 O   0  0  0  0  0  0  0  0  0  0  0  0
    7.6386  -11.7037   25.9155 O   0  0  0  0  0  0  0  0  0  0  0  0
  2 10  1  0
  2  1  1  6
  3  2  1  0
  4  9  1  0
  4  3  1  0
  5  4  2  0
  6  7  2  0
  6  5  1  0
  7  8  1  0
  8  9  2  0
 10 11  2  0
 13 15  1  0
 13 14  1  0
 13 12  1  6
 15 16  1  6
 16 10  1  0
 17 18  2  0
 17 15  1  0
 19 17  1  0
 20 19  1  0
 20 28  1  0
 20 21  1  1
 22 21  1  0
 23 22  2  0
 24 23  1  0
 25 24  2  0
 25 26  1  0
 26 27  2  0
 27 22  1  0
 28 30  1  0
 29 28  2  0
M  END
$$$$
