FTF.pdb
     RDKit          3D

 30 31  0  0  1  0  0  0  0  0999 V2000
    5.7911  -22.2752   21.5711 N   0  0  0  0  0  0  0  0  0  0  0  0
    6.6303  -21.1233   21.3007 C   0  0  1  0  0  0  0  0  0  0  0  0
    6.1559  -20.5191   19.9949 C   0  0  0  0  0  0  0  0  0  0  0  0
    6.6163  -21.3132   18.8290 C   0  0  0  0  0  0  0  0  0  0  0  0
    7.9615  -21.2965   18.4611 C   0  0  0  0  0  0  0  0  0  0  0  0
    8.4270  -22.0200   17.3844 C   0  0  0  0  0  0  0  0  0  0  0  0
    7.5382  -22.7798   16.6527 C   0  0  0  0  0  0  0  0  0  0  0  0
    6.2273  -22.7986   17.0080 C   0  0  0  0  0  0  0  0  0  0  0  0
    5.7678  -22.0749   18.0832 C   0  0  0  0  0  0  0  0  0  0  0  0
    6.4431  -20.0795   22.3685 C   0  0  0  0  0  0  0  0  0  0  0  0
    5.3526  -19.9618   22.9795 O   0  0  0  0  0  0  0  0  0  0  0  0
    5.8084  -20.0346   24.7131 C   0  0  0  0  0  0  0  0  0  0  0  0
    6.9796  -19.1500   25.0561 C   0  0  1  0  0  0  0  0  0  0  0  0
    8.0490  -19.9927   25.3731 O   0  0  0  0  0  0  0  0  0  0  0  0
    7.3276  -18.2926   23.8542 C   0  0  2  0  0  0  0  0  0  0  0  0
    7.4899  -19.1892   22.7256 N   0  0  0  0  0  0  0  0  0  0  0  0
    8.5563  -17.4939   24.0950 C   0  0  0  0  0  0  0  0  0  0  0  0
    9.6910  -17.9611   23.7948 O   0  0  0  0  0  0  0  0  0  0  0  0
    8.4471  -16.1984   24.6661 N   0  0  0  0  0  0  0  0  0  0  0  0
    9.6058  -15.3319   24.8333 C   0  0  1  0  0  0  0  0  0  0  0  0
    9.2572  -13.8969   24.4410 C   0  0  0  0  0  0  0  0  0  0  0  0
    8.1929  -13.4206   25.3675 C   0  0  0  0  0  0  0  0  0  0  0  0
    6.8567  -13.7019   25.1053 C   0  0  0  0  0  0  0  0  0  0  0  0
    5.8384  -13.2694   25.9522 C   0  0  0  0  0  0  0  0  0  0  0  0
    6.1331  -12.5456   27.0807 C   0  0  0  0  0  0  0  0  0  0  0  0
    7.4544  -12.2603   27.3514 C   0  0  0  0  0  0  0  0  0  0  0  0
    8.4629  -12.6943   26.5037 C   0  0  0  0  0  0  0  0  0  0  0  0
   10.1373  -15.3983   26.2152 C   0  0  0  0  0  0  0  0  0  0  0  0
   11.2214  -14.8537   26.5343 O   0  0  0  0  0  0  0  0  0  0  0  0
    9.4264  -16.0755   27.1830 O   0  0  0  0  0  0  0  0  0  0  0  0
  2 10  1  0
  2  1  1  1
  3  2  1  0
  4  9  1  0
  4  3  1  0
  5  4  2  0
  6  7  2  0
  6  5  1  0
  7  8  1  0
  8  9  2  0
 10 11  2  0
 13 15  1  0
 13 14  1  0
 13 12  1  6
 15 16  1  6
 16 10  1  0
 17 18  2  0
 17 15  1  0
 19 17  1  0
 20 19  1  0
 20 28  1  0
 20 21  1  1
 22 21  1  0
 23 22  2  0
 24 23  1  0
 25 24  2  0
 25 26  1  0
 26 27  2  0
 27 22  1  0
 28 30  1  0
 29 28  2  0
M  END
$$$$
