TAI.pdb
     RDKit          3D

 21 20  0  0  1  0  0  0  0  0999 V2000
    8.7728  -12.6357   20.1258 C   0  0  0  0  0  0  0  0  0  0  0  0
    8.1572  -13.2757   18.8750 C   0  0  1  0  0  0  0  0  0  0  0  0
    8.7447  -12.7148   17.7307 O   0  0  0  0  0  0  0  0  0  0  0  0
    8.5024  -14.7394   18.9031 C   0  0  2  0  0  0  0  0  0  0  0  0
    7.8633  -15.3675   17.7454 N   0  0  0  0  0  0  0  0  0  0  0  0
    7.9117  -15.3212   20.1629 C   0  0  0  0  0  0  0  0  0  0  0  0
    6.6835  -15.3697   20.3952 O   0  0  0  0  0  0  0  0  0  0  0  0
    8.6553  -17.8085   22.5407 C   0  0  0  0  0  0  0  0  0  0  0  0
    8.2516  -16.3612   22.4061 C   0  0  2  0  0  0  0  0  0  0  0  0
    8.7641  -15.8543   21.1732 N   0  0  0  0  0  0  0  0  0  0  0  0
    8.8067  -15.5838   23.5808 C   0  0  0  0  0  0  0  0  0  0  0  0
   10.0078  -15.2159   23.6145 O   0  0  0  0  0  0  0  0  0  0  0  0
    5.7033  -11.8143   25.7381 C   0  0  0  0  0  0  0  0  0  0  0  0
    6.8439  -12.6738   25.2542 C   0  0  0  0  0  0  0  0  0  0  0  0
    7.3709  -13.5771   26.3655 C   0  0  2  0  0  0  0  0  0  0  0  0
    7.9600  -12.6968   27.4398 C   0  0  0  0  0  0  0  0  0  0  0  0
    8.4645  -14.4567   25.8084 C   0  0  2  0  0  0  0  0  0  0  0  0
    7.9835  -15.2453   24.6841 N   0  0  0  0  0  0  0  0  0  0  0  0
    9.0329  -15.3455   26.8659 C   0  0  0  0  0  0  0  0  0  0  0  0
    8.5637  -16.4930   27.0581 O   0  0  0  0  0  0  0  0  0  0  0  0
   10.0868  -14.9670   27.6786 O   0  0  0  0  0  0  0  0  0  0  0  0
  2  1  1  1
  2  4  1  0
  3  2  1  0
  4  5  1  6
  6  4  1  0
  6 10  1  0
  7  6  2  0
  9 10  1  0
  9  8  1  1
 11  9  1  0
 12 11  2  0
 13 14  1  0
 14 15  1  0
 15 16  1  1
 17 15  1  0
 17 18  1  6
 18 11  1  0
 19 17  1  0
 20 19  2  0
 21 19  1  0
M  END
$$$$
