TAI.pdb
     RDKit          3D

 21 20  0  0  1  0  0  0  0  0999 V2000
   10.2078  -13.7206   20.1400 C   0  0  0  0  0  0  0  0  0  0  0  0
    9.0165  -13.1611   19.3522 C   0  0  1  0  0  0  0  0  0  0  0  0
    9.4361  -12.8211   18.0570 O   0  0  0  0  0  0  0  0  0  0  0  0
    7.9983  -14.2620   19.2354 C   0  0  2  0  0  0  0  0  0  0  0  0
    6.8638  -13.7371   18.4733 N   0  0  0  0  0  0  0  0  0  0  0  0
    7.5351  -14.6020   20.6298 C   0  0  0  0  0  0  0  0  0  0  0  0
    6.9479  -13.7934   21.3823 O   0  0  0  0  0  0  0  0  0  0  0  0
    7.4405  -17.7732   22.6132 C   0  0  0  0  0  0  0  0  0  0  0  0
    7.3205  -16.2765   22.4679 C   0  0  2  0  0  0  0  0  0  0  0  0
    7.7608  -15.9052   21.1612 N   0  0  0  0  0  0  0  0  0  0  0  0
    8.1665  -15.6091   23.5316 C   0  0  0  0  0  0  0  0  0  0  0  0
    9.4061  -15.4624   23.3866 O   0  0  0  0  0  0  0  0  0  0  0  0
    5.6944  -12.0544   27.1638 C   0  0  0  0  0  0  0  0  0  0  0  0
    6.3146  -13.3305   26.6530 C   0  0  0  0  0  0  0  0  0  0  0  0
    7.7000  -13.0797   26.0644 C   0  0  2  0  0  0  0  0  0  0  0  0
    7.5269  -12.2999   24.7845 C   0  0  0  0  0  0  0  0  0  0  0  0
    8.3443  -14.4059   25.7385 C   0  0  2  0  0  0  0  0  0  0  0  0
    7.5825  -15.1268   24.7298 N   0  0  0  0  0  0  0  0  0  0  0  0
    8.5091  -15.2414   26.9658 C   0  0  0  0  0  0  0  0  0  0  0  0
    7.8701  -16.3123   27.1020 O   0  0  0  0  0  0  0  0  0  0  0  0
    9.3569  -14.8939   28.0026 O   0  0  0  0  0  0  0  0  0  0  0  0
  2  1  1  1
  2  4  1  0
  3  2  1  0
  4  5  1  6
  6  4  1  0
  6 10  1  0
  7  6  2  0
  9 10  1  0
  9  8  1  6
 11  9  1  0
 12 11  2  0
 13 14  1  0
 14 15  1  0
 15 16  1  6
 17 15  1  0
 17 18  1  6
 18 11  1  0
 19 17  1  0
 20 19  2  0
 21 19  1  0
M  END
$$$$
