TAI.pdb
     RDKit          3D

 21 20  0  0  1  0  0  0  0  0999 V2000
    9.0803  -16.9135   18.7728 C   0  0  0  0  0  0  0  0  0  0  0  0
    9.1251  -16.6169   20.2771 C   0  0  1  0  0  0  0  0  0  0  0  0
   10.3889  -16.1065   20.6113 O   0  0  0  0  0  0  0  0  0  0  0  0
    8.1051  -15.5469   20.5545 C   0  0  2  0  0  0  0  0  0  0  0  0
    8.5084  -14.3484   19.8165 N   0  0  0  0  0  0  0  0  0  0  0  0
    8.1496  -15.2490   22.0323 C   0  0  0  0  0  0  0  0  0  0  0  0
    8.8974  -14.3865   22.5439 O   0  0  0  0  0  0  0  0  0  0  0  0
    6.0674  -16.3539   24.9341 C   0  0  0  0  0  0  0  0  0  0  0  0
    7.2683  -15.6701   24.3289 C   0  0  2  0  0  0  0  0  0  0  0  0
    7.3117  -15.9688   22.9330 N   0  0  0  0  0  0  0  0  0  0  0  0
    8.5188  -16.1641   25.0249 C   0  0  0  0  0  0  0  0  0  0  0  0
    9.2650  -17.0268   24.4976 O   0  0  0  0  0  0  0  0  0  0  0  0
   10.0592  -12.9934   29.1090 C   0  0  0  0  0  0  0  0  0  0  0  0
   10.3776  -13.8688   27.9232 C   0  0  0  0  0  0  0  0  0  0  0  0
   10.2849  -15.3490   28.2828 C   0  0  2  0  0  0  0  0  0  0  0  0
   11.6049  -15.7648   28.8835 C   0  0  0  0  0  0  0  0  0  0  0  0
   10.0544  -16.1486   27.0229 C   0  0  2  0  0  0  0  0  0  0  0  0
    8.8879  -15.6653   26.2995 N   0  0  0  0  0  0  0  0  0  0  0  0
    9.9157  -17.6047   27.3261 C   0  0  0  0  0  0  0  0  0  0  0  0
   10.9093  -18.3684   27.2676 O   0  0  0  0  0  0  0  0  0  0  0  0
    8.7118  -18.1864   27.6820 O   0  0  0  0  0  0  0  0  0  0  0  0
  2  1  1  6
  2  4  1  0
  3  2  1  0
  4  5  1  6
  6  4  1  0
  6 10  1  0
  7  6  2  0
  9 10  1  0
  9  8  1  1
 11  9  1  0
 12 11  2  0
 13 14  1  0
 14 15  1  0
 15 16  1  6
 17 15  1  0
 17 18  1  1
 18 11  1  0
 19 17  1  0
 20 19  2  0
 21 19  1  0
M  END
$$$$
