TAI.pdb
     RDKit          3D

 21 20  0  0  1  0  0  0  0  0999 V2000
    6.5860  -17.8215   18.5226 C   0  0  0  0  0  0  0  0  0  0  0  0
    7.7448  -17.9921   17.5321 C   0  0  1  0  0  0  0  0  0  0  0  0
    7.2973  -18.7150   16.4157 O   0  0  0  0  0  0  0  0  0  0  0  0
    8.1429  -16.6186   17.0657 C   0  0  2  0  0  0  0  0  0  0  0  0
    9.2173  -16.7783   16.0840 N   0  0  0  0  0  0  0  0  0  0  0  0
    8.6796  -15.8711   18.2606 C   0  0  0  0  0  0  0  0  0  0  0  0
    9.6847  -16.2334   18.9114 O   0  0  0  0  0  0  0  0  0  0  0  0
    7.5311  -12.8196   20.1162 C   0  0  0  0  0  0  0  0  0  0  0  0
    8.4292  -14.0138   19.9086 C   0  0  2  0  0  0  0  0  0  0  0  0
    8.0350  -14.6819   18.7096 N   0  0  0  0  0  0  0  0  0  0  0  0
    8.3073  -14.9352   21.1039 C   0  0  0  0  0  0  0  0  0  0  0  0
    7.2711  -15.6178   21.3023 O   0  0  0  0  0  0  0  0  0  0  0  0
   11.6246  -18.6698   22.0920 C   0  0  0  0  0  0  0  0  0  0  0  0
   10.4312  -17.7480   22.0957 C   0  0  0  0  0  0  0  0  0  0  0  0
   10.4285  -16.8454   23.3261 C   0  0  2  0  0  0  0  0  0  0  0  0
   10.2366  -17.7178   24.5420 C   0  0  0  0  0  0  0  0  0  0  0  0
    9.2657  -15.8868   23.2313 C   0  0  2  0  0  0  0  0  0  0  0  0
    9.3646  -15.0564   22.0404 N   0  0  0  0  0  0  0  0  0  0  0  0
    9.1668  -15.0362   24.4554 C   0  0  0  0  0  0  0  0  0  0  0  0
    9.7008  -13.9016   24.4916 O   0  0  0  0  0  0  0  0  0  0  0  0
    8.4959  -15.4379   25.5968 O   0  0  0  0  0  0  0  0  0  0  0  0
  2  1  1  1
  2  4  1  0
  3  2  1  0
  4  5  1  6
  6  4  1  0
  6 10  1  0
  7  6  2  0
  9 10  1  0
  9  8  1  1
 11  9  1  0
 12 11  2  0
 13 14  1  0
 14 15  1  0
 15 16  1  1
 17 15  1  0
 17 18  1  6
 18 11  1  0
 19 17  1  0
 20 19  2  0
 21 19  1  0
M  END
$$$$
