TAI.pdb
     RDKit          3D

 21 20  0  0  1  0  0  0  0  0999 V2000
    9.4116  -17.9164   18.6607 C   0  0  0  0  0  0  0  0  0  0  0  0
    8.9759  -17.3847   20.0320 C   0  0  1  0  0  0  0  0  0  0  0  0
    9.1747  -15.9963   20.0750 O   0  0  0  0  0  0  0  0  0  0  0  0
    7.5008  -17.6461   20.1671 C   0  0  2  0  0  0  0  0  0  0  0  0
    6.8197  -16.8979   19.1090 N   0  0  0  0  0  0  0  0  0  0  0  0
    7.0647  -17.1063   21.5060 C   0  0  0  0  0  0  0  0  0  0  0  0
    6.6796  -15.9301   21.6878 O   0  0  0  0  0  0  0  0  0  0  0  0
    6.6319  -18.6329   24.8994 C   0  0  0  0  0  0  0  0  0  0  0  0
    6.7357  -17.4616   23.9543 C   0  0  2  0  0  0  0  0  0  0  0  0
    7.0787  -17.9480   22.6561 N   0  0  0  0  0  0  0  0  0  0  0  0
    7.7920  -16.5064   24.4683 C   0  0  0  0  0  0  0  0  0  0  0  0
    8.9928  -16.6030   24.1108 O   0  0  0  0  0  0  0  0  0  0  0  0
    6.4030  -11.8055   27.5401 C   0  0  0  0  0  0  0  0  0  0  0  0
    6.6828  -13.1734   26.9704 C   0  0  0  0  0  0  0  0  0  0  0  0
    7.8802  -13.1484   26.0246 C   0  0  2  0  0  0  0  0  0  0  0  0
    7.3904  -12.7108   24.6663 C   0  0  0  0  0  0  0  0  0  0  0  0
    8.4449  -14.5439   25.9078 C   0  0  2  0  0  0  0  0  0  0  0  0
    7.4563  -15.4682   25.3732 N   0  0  0  0  0  0  0  0  0  0  0  0
    8.9577  -15.0299   27.2239 C   0  0  0  0  0  0  0  0  0  0  0  0
    8.4630  -16.0462   27.7682 O   0  0  0  0  0  0  0  0  0  0  0  0
    9.9857  -14.4044   27.9068 O   0  0  0  0  0  0  0  0  0  0  0  0
  2  1  1  6
  2  4  1  0
  3  2  1  0
  4  5  1  6
  6  4  1  0
  6 10  1  0
  7  6  2  0
  9 10  1  0
  9  8  1  1
 11  9  1  0
 12 11  2  0
 13 14  1  0
 14 15  1  0
 15 16  1  6
 17 15  1  0
 17 18  1  1
 18 11  1  0
 19 17  1  0
 20 19  2  0
 21 19  1  0
M  END
$$$$
