TAI.pdb
     RDKit          3D

 21 20  0  0  1  0  0  0  0  0999 V2000
    9.1174  -12.3632   18.7406 C   0  0  0  0  0  0  0  0  0  0  0  0
    8.7159  -13.2191   19.9486 C   0  0  1  0  0  0  0  0  0  0  0  0
    7.4279  -12.8530   20.3682 O   0  0  0  0  0  0  0  0  0  0  0  0
    8.6641  -14.6500   19.4879 C   0  0  2  0  0  0  0  0  0  0  0  0
    7.6964  -14.7277   18.3920 N   0  0  0  0  0  0  0  0  0  0  0  0
    8.1629  -15.4810   20.6424 C   0  0  0  0  0  0  0  0  0  0  0  0
    7.2236  -16.3019   20.5501 O   0  0  0  0  0  0  0  0  0  0  0  0
    8.8047  -17.6338   22.6367 C   0  0  0  0  0  0  0  0  0  0  0  0
    8.4245  -16.2227   23.0110 C   0  0  2  0  0  0  0  0  0  0  0  0
    8.7625  -15.3538   21.9292 N   0  0  0  0  0  0  0  0  0  0  0  0
    9.1679  -15.8300   24.2701 C   0  0  0  0  0  0  0  0  0  0  0  0
   10.4234  -15.7890   24.3042 O   0  0  0  0  0  0  0  0  0  0  0  0
    6.4050  -11.9415   26.5084 C   0  0  0  0  0  0  0  0  0  0  0  0
    7.5016  -12.8422   25.9983 C   0  0  0  0  0  0  0  0  0  0  0  0
    8.0463  -13.7389   27.1064 C   0  0  2  0  0  0  0  0  0  0  0  0
    8.7440  -12.8598   28.1148 C   0  0  0  0  0  0  0  0  0  0  0  0
    9.0570  -14.6928   26.5161 C   0  0  2  0  0  0  0  0  0  0  0  0
    8.4662  -15.4947   25.4553 N   0  0  0  0  0  0  0  0  0  0  0  0
    9.6480  -15.5720   27.5692 C   0  0  0  0  0  0  0  0  0  0  0  0
    9.1670  -16.7075   27.7994 O   0  0  0  0  0  0  0  0  0  0  0  0
   10.7364  -15.1971   28.3368 O   0  0  0  0  0  0  0  0  0  0  0  0
  2  1  1  6
  2  4  1  0
  3  2  1  0
  4  5  1  6
  6  4  1  0
  6 10  1  0
  7  6  2  0
  9 10  1  0
  9  8  1  6
 11  9  1  0
 12 11  2  0
 13 14  1  0
 14 15  1  0
 15 16  1  1
 17 15  1  0
 17 18  1  6
 18 11  1  0
 19 17  1  0
 20 19  2  0
 21 19  1  0
M  END
$$$$
