TAI.pdb
     RDKit          3D

 21 20  0  0  1  0  0  0  0  0999 V2000
    8.5835  -16.9425   18.9444 C   0  0  0  0  0  0  0  0  0  0  0  0
    8.3180  -16.6693   20.4303 C   0  0  1  0  0  0  0  0  0  0  0  0
    8.3307  -15.2844   20.6563 O   0  0  0  0  0  0  0  0  0  0  0  0
    6.9365  -17.1768   20.7404 C   0  0  2  0  0  0  0  0  0  0  0  0
    5.9877  -16.3890   19.9515 N   0  0  0  0  0  0  0  0  0  0  0  0
    6.6793  -16.9277   22.2055 C   0  0  0  0  0  0  0  0  0  0  0  0
    6.1162  -15.9013   22.6463 O   0  0  0  0  0  0  0  0  0  0  0  0
    7.0622  -18.9793   25.3004 C   0  0  0  0  0  0  0  0  0  0  0  0
    6.9259  -17.6620   24.5779 C   0  0  2  0  0  0  0  0  0  0  0  0
    7.0865  -17.8878   23.1770 N   0  0  0  0  0  0  0  0  0  0  0  0
    7.9804  -16.7059   25.0940 C   0  0  0  0  0  0  0  0  0  0  0  0
    9.1188  -16.6386   24.5662 O   0  0  0  0  0  0  0  0  0  0  0  0
    6.2673  -12.0033   26.5931 C   0  0  0  0  0  0  0  0  0  0  0  0
    7.3034  -12.9736   26.0844 C   0  0  0  0  0  0  0  0  0  0  0  0
    8.0341  -13.6615   27.2339 C   0  0  2  0  0  0  0  0  0  0  0  0
    9.1034  -12.7217   27.7336 C   0  0  0  0  0  0  0  0  0  0  0  0
    8.6969  -14.9156   26.7161 C   0  0  2  0  0  0  0  0  0  0  0  0
    7.7138  -15.8529   26.1944 N   0  0  0  0  0  0  0  0  0  0  0  0
    9.5269  -15.5637   27.7756 C   0  0  0  0  0  0  0  0  0  0  0  0
   10.6154  -15.0552   28.1368 O   0  0  0  0  0  0  0  0  0  0  0  0
    9.1547  -16.7363   28.4087 O   0  0  0  0  0  0  0  0  0  0  0  0
  2  1  1  6
  2  4  1  0
  3  2  1  0
  4  5  1  6
  6  4  1  0
  6 10  1  0
  7  6  2  0
  9 10  1  0
  9  8  1  1
 11  9  1  0
 12 11  2  0
 13 14  1  0
 14 15  1  0
 15 16  1  6
 17 15  1  0
 17 18  1  1
 18 11  1  0
 19 17  1  0
 20 19  2  0
 21 19  1  0
M  END
$$$$
