TAI.pdb
     RDKit          3D

 21 20  0  0  1  0  0  0  0  0999 V2000
    9.5443  -12.9066   17.5653 C   0  0  0  0  0  0  0  0  0  0  0  0
    8.8541  -13.1962   18.9043 C   0  0  1  0  0  0  0  0  0  0  0  0
    7.7373  -12.3576   19.0407 O   0  0  0  0  0  0  0  0  0  0  0  0
    8.3638  -14.6174   18.8588 C   0  0  2  0  0  0  0  0  0  0  0  0
    7.2407  -14.6686   17.9210 N   0  0  0  0  0  0  0  0  0  0  0  0
    7.8656  -14.9703   20.2379 C   0  0  0  0  0  0  0  0  0  0  0  0
    7.0213  -14.2929   20.8649 O   0  0  0  0  0  0  0  0  0  0  0  0
    8.2880  -17.9628   22.4314 C   0  0  0  0  0  0  0  0  0  0  0  0
    7.8745  -16.5333   22.1835 C   0  0  2  0  0  0  0  0  0  0  0  0
    8.3597  -16.1305   20.9021 N   0  0  0  0  0  0  0  0  0  0  0  0
    8.4493  -15.6578   23.2769 C   0  0  0  0  0  0  0  0  0  0  0  0
    9.6051  -15.1726   23.1884 O   0  0  0  0  0  0  0  0  0  0  0  0
    6.8461  -11.4316   27.3300 C   0  0  0  0  0  0  0  0  0  0  0  0
    7.7799  -12.5614   26.9757 C   0  0  0  0  0  0  0  0  0  0  0  0
    7.1827  -13.4599   25.8965 C   0  0  2  0  0  0  0  0  0  0  0  0
    5.9829  -14.1595   26.4859 C   0  0  0  0  0  0  0  0  0  0  0  0
    8.2030  -14.5007   25.5019 C   0  0  2  0  0  0  0  0  0  0  0  0
    7.6967  -15.3571   24.4400 N   0  0  0  0  0  0  0  0  0  0  0  0
    8.6216  -15.3191   26.6793 C   0  0  0  0  0  0  0  0  0  0  0  0
    8.1527  -16.4687   26.8593 O   0  0  0  0  0  0  0  0  0  0  0  0
    9.5309  -14.8704   27.6207 O   0  0  0  0  0  0  0  0  0  0  0  0
  2  1  1  6
  2  4  1  0
  3  2  1  0
  4  5  1  6
  6  4  1  0
  6 10  1  0
  7  6  2  0
  9 10  1  0
  9  8  1  1
 11  9  1  0
 12 11  2  0
 13 14  1  0
 14 15  1  0
 15 16  1  1
 17 15  1  0
 17 18  1  6
 18 11  1  0
 19 17  1  0
 20 19  2  0
 21 19  1  0
M  END
$$$$
