TAI.pdb
     RDKit          3D

 21 20  0  0  1  0  0  0  0  0999 V2000
    9.1886  -15.3643   20.7870 C   0  0  0  0  0  0  0  0  0  0  0  0
    7.9337  -15.6465   19.9511 C   0  0  1  0  0  0  0  0  0  0  0  0
    8.2945  -15.7687   18.6005 O   0  0  0  0  0  0  0  0  0  0  0  0
    7.3802  -16.9695   20.4045 C   0  0  2  0  0  0  0  0  0  0  0  0
    6.2112  -17.2682   19.5752 N   0  0  0  0  0  0  0  0  0  0  0  0
    6.9354  -16.8090   21.8366 C   0  0  0  0  0  0  0  0  0  0  0  0
    6.1543  -15.9120   22.2240 O   0  0  0  0  0  0  0  0  0  0  0  0
    7.2377  -18.8425   24.9307 C   0  0  0  0  0  0  0  0  0  0  0  0
    7.1186  -17.5154   24.2232 C   0  0  2  0  0  0  0  0  0  0  0  0
    7.4091  -17.7058   22.8380 N   0  0  0  0  0  0  0  0  0  0  0  0
    8.0893  -16.5356   24.8477 C   0  0  0  0  0  0  0  0  0  0  0  0
    9.2925  -16.4860   24.4885 O   0  0  0  0  0  0  0  0  0  0  0  0
    5.9243  -11.8870   26.6484 C   0  0  0  0  0  0  0  0  0  0  0  0
    6.8732  -12.8834   26.0314 C   0  0  0  0  0  0  0  0  0  0  0  0
    7.7716  -13.5236   27.0858 C   0  0  2  0  0  0  0  0  0  0  0  0
    8.7406  -12.4736   27.5702 C   0  0  0  0  0  0  0  0  0  0  0  0
    8.5549  -14.6467   26.4494 C   0  0  2  0  0  0  0  0  0  0  0  0
    7.6678  -15.6395   25.8620 N   0  0  0  0  0  0  0  0  0  0  0  0
    9.4771  -15.2869   27.4348 C   0  0  0  0  0  0  0  0  0  0  0  0
    9.1350  -16.3244   28.0516 O   0  0  0  0  0  0  0  0  0  0  0  0
   10.7352  -14.7871   27.7205 O   0  0  0  0  0  0  0  0  0  0  0  0
  2  1  1  1
  2  4  1  0
  3  2  1  0
  4  5  1  6
  6  4  1  0
  6 10  1  0
  7  6  2  0
  9 10  1  0
  9  8  1  1
 11  9  1  0
 12 11  2  0
 13 14  1  0
 14 15  1  0
 15 16  1  6
 17 15  1  0
 17 18  1  1
 18 11  1  0
 19 17  1  0
 20 19  2  0
 21 19  1  0
M  END
$$$$
