KCC.pdb
     RDKit          3D

 22 21  0  0  1  0  0  0  0  0999 V2000
    8.3849  -18.1869   20.0590 N   0  0  0  0  0  0  0  0  0  0  0  0
    8.8583  -18.6151   21.3314 C   0  0  1  0  0  0  0  0  0  0  0  0
   10.3623  -18.8208   21.3654 C   0  0  0  0  0  0  0  0  0  0  0  0
   11.0509  -18.0148   20.3068 C   0  0  0  0  0  0  0  0  0  0  0  0
   12.0753  -17.1190   20.9224 C   0  0  0  0  0  0  0  0  0  0  0  0
   13.4460  -17.3521   20.3513 C   0  0  0  0  0  0  0  0  0  0  0  0
   14.3716  -16.4161   20.9848 N   0  0  0  0  0  0  0  0  0  0  0  0
    8.5368  -17.5714   22.3383 C   0  0  0  0  0  0  0  0  0  0  0  0
    8.2970  -16.3978   21.9286 O   0  0  0  0  0  0  0  0  0  0  0  0
    8.4938  -17.8528   23.7116 N   0  0  0  0  0  0  0  0  0  0  0  0
    8.0488  -16.8206   24.6231 C   0  0  1  0  0  0  0  0  0  0  0  0
    6.8916  -17.3826   25.4009 C   0  0  0  0  0  0  0  0  0  0  0  0
    7.4870  -18.8223   26.3555 S   0  0  0  0  0  0  0  0  0  0  0  0
    9.1656  -16.3746   25.4428 C   0  0  0  0  0  0  0  0  0  0  0  0
   10.2297  -17.0361   25.4507 O   0  0  0  0  0  0  0  0  0  0  0  0
    9.1358  -15.2068   26.2604 N   0  0  0  0  0  0  0  0  0  0  0  0
   10.2203  -14.8506   27.1153 C   0  0  1  0  0  0  0  0  0  0  0  0
   10.1019  -13.4111   27.5510 C   0  0  0  0  0  0  0  0  0  0  0  0
    8.4262  -12.7846   27.4228 S   0  0  0  0  0  0  0  0  0  0  0  0
   10.3124  -15.7847   28.2385 C   0  0  0  0  0  0  0  0  0  0  0  0
   11.3765  -15.6878   29.1153 O   0  0  0  0  0  0  0  0  0  0  0  0
    9.4730  -16.6945   28.4727 O   0  0  0  0  0  0  0  0  0  0  0  0
  2  3  1  0
  2  8  1  0
  2  1  1  6
  4  3  1  0
  5  4  1  0
  6  5  1  0
  6  7  1  0
  8  9  2  0
 10 11  1  0
 10  8  1  0
 11 14  1  0
 12 13  1  0
 11 12  1  1
 14 16  1  0
 14 15  2  0
 16 17  1  0
 17 20  1  0
 17 18  1  1
 19 18  1  0
 20 22  2  0
 20 21  1  0
M  END
$$$$
