KCC.pdb
     RDKit          3D

 22 21  0  0  1  0  0  0  0  0999 V2000
    9.0398  -16.9023   17.3888 N   0  0  0  0  0  0  0  0  0  0  0  0
    7.9557  -16.8696   18.3109 C   0  0  1  0  0  0  0  0  0  0  0  0
    7.3388  -18.2364   18.5488 C   0  0  0  0  0  0  0  0  0  0  0  0
    8.3862  -19.3039   18.6367 C   0  0  0  0  0  0  0  0  0  0  0  0
    7.7503  -20.6355   18.8673 C   0  0  0  0  0  0  0  0  0  0  0  0
    8.7648  -21.7429   18.9292 C   0  0  0  0  0  0  0  0  0  0  0  0
    8.0726  -22.9792   19.2849 N   0  0  0  0  0  0  0  0  0  0  0  0
    8.4562  -16.3816   19.6216 C   0  0  0  0  0  0  0  0  0  0  0  0
    9.7067  -16.3704   19.8186 O   0  0  0  0  0  0  0  0  0  0  0  0
    7.5876  -15.9397   20.6302 N   0  0  0  0  0  0  0  0  0  0  0  0
    8.1441  -15.2860   21.7952 C   0  0  1  0  0  0  0  0  0  0  0  0
    7.0267  -14.5286   22.4566 C   0  0  0  0  0  0  0  0  0  0  0  0
    7.6725  -13.7783   23.9925 S   0  0  0  0  0  0  0  0  0  0  0  0
    8.7918  -16.2712   22.6485 C   0  0  0  0  0  0  0  0  0  0  0  0
    8.2572  -17.3922   22.8144 O   0  0  0  0  0  0  0  0  0  0  0  0
   10.0249  -16.0469   23.3284 N   0  0  0  0  0  0  0  0  0  0  0  0
   10.6604  -17.0618   24.1030 C   0  0  1  0  0  0  0  0  0  0  0  0
   12.0660  -17.3029   23.6111 C   0  0  0  0  0  0  0  0  0  0  0  0
   12.1139  -18.2551   22.0918 S   0  0  0  0  0  0  0  0  0  0  0  0
   10.5996  -16.7293   25.5273 C   0  0  0  0  0  0  0  0  0  0  0  0
   11.2196  -17.5577   26.4438 O   0  0  0  0  0  0  0  0  0  0  0  0
   10.0094  -15.7186   25.9933 O   0  0  0  0  0  0  0  0  0  0  0  0
  2  3  1  0
  2  8  1  0
  2  1  1  6
  4  3  1  0
  5  4  1  0
  6  5  1  0
  6  7  1  0
  8  9  2  0
 10 11  1  0
 10  8  1  0
 11 14  1  0
 12 13  1  0
 11 12  1  1
 14 16  1  0
 14 15  2  0
 16 17  1  0
 17 20  1  0
 17 18  1  6
 19 18  1  0
 20 22  2  0
 20 21  1  0
M  END
$$$$
