KCC.pdb
     RDKit          3D

 22 21  0  0  1  0  0  0  0  0999 V2000
    7.2204  -18.0816   20.1231 N   0  0  0  0  0  0  0  0  0  0  0  0
    7.9217  -16.9799   20.6897 C   0  0  1  0  0  0  0  0  0  0  0  0
    7.7258  -15.6901   19.9129 C   0  0  0  0  0  0  0  0  0  0  0  0
    8.6940  -15.5821   18.7748 C   0  0  0  0  0  0  0  0  0  0  0  0
    8.1570  -14.6676   17.7231 C   0  0  0  0  0  0  0  0  0  0  0  0
    8.7990  -13.3095   17.7738 C   0  0  0  0  0  0  0  0  0  0  0  0
    8.2299  -12.4933   16.7042 N   0  0  0  0  0  0  0  0  0  0  0  0
    7.4120  -16.7438   22.0650 C   0  0  0  0  0  0  0  0  0  0  0  0
    6.1606  -16.7764   22.2537 O   0  0  0  0  0  0  0  0  0  0  0  0
    8.2732  -16.4894   23.1424 N   0  0  0  0  0  0  0  0  0  0  0  0
    7.7115  -16.3534   24.4691 C   0  0  1  0  0  0  0  0  0  0  0  0
    7.8600  -17.6835   25.1537 C   0  0  0  0  0  0  0  0  0  0  0  0
    9.6409  -18.0780   25.2605 S   0  0  0  0  0  0  0  0  0  0  0  0
    8.3511  -15.2447   25.1618 C   0  0  0  0  0  0  0  0  0  0  0  0
    9.4952  -14.8737   24.8105 O   0  0  0  0  0  0  0  0  0  0  0  0
    7.7535  -14.5301   26.2413 N   0  0  0  0  0  0  0  0  0  0  0  0
    8.4360  -13.4838   26.9294 C   0  0  1  0  0  0  0  0  0  0  0  0
    7.5174  -12.3081   27.1529 C   0  0  0  0  0  0  0  0  0  0  0  0
    5.8208  -12.8035   27.4581 S   0  0  0  0  0  0  0  0  0  0  0  0
    9.0312  -13.9908   28.1669 C   0  0  0  0  0  0  0  0  0  0  0  0
    9.8267  -13.1555   28.9284 O   0  0  0  0  0  0  0  0  0  0  0  0
    8.8689  -15.1619   28.6021 O   0  0  0  0  0  0  0  0  0  0  0  0
  2  3  1  0
  2  8  1  0
  2  1  1  6
  4  3  1  0
  5  4  1  0
  6  5  1  0
  6  7  1  0
  8  9  2  0
 10 11  1  0
 10  8  1  0
 11 14  1  0
 12 13  1  0
 11 12  1  1
 14 16  1  0
 14 15  2  0
 16 17  1  0
 17 20  1  0
 17 18  1  1
 19 18  1  0
 20 22  2  0
 20 21  1  0
M  END
$$$$
