KCC.pdb
     RDKit          3D

 22 21  0  0  1  0  0  0  0  0999 V2000
    6.2598  -17.9776   22.6090 N   0  0  0  0  0  0  0  0  0  0  0  0
    6.3415  -17.4897   23.9439 C   0  0  1  0  0  0  0  0  0  0  0  0
    7.2419  -18.3331   24.8289 C   0  0  0  0  0  0  0  0  0  0  0  0
    8.1238  -19.2320   24.0172 C   0  0  0  0  0  0  0  0  0  0  0  0
    8.8543  -20.1826   24.9079 C   0  0  0  0  0  0  0  0  0  0  0  0
    9.8922  -20.9726   24.1610 C   0  0  0  0  0  0  0  0  0  0  0  0
   10.5480  -21.8749   25.1043 N   0  0  0  0  0  0  0  0  0  0  0  0
    6.9130  -16.1187   23.9188 C   0  0  0  0  0  0  0  0  0  0  0  0
    7.6852  -15.8093   22.9646 O   0  0  0  0  0  0  0  0  0  0  0  0
    6.6205  -15.1741   24.9134 N   0  0  0  0  0  0  0  0  0  0  0  0
    7.2630  -13.8786   24.8576 C   0  0  1  0  0  0  0  0  0  0  0  0
    6.3379  -12.8945   25.5177 C   0  0  0  0  0  0  0  0  0  0  0  0
    6.1282  -13.3869   27.2647 S   0  0  0  0  0  0  0  0  0  0  0  0
    8.5852  -13.9599   25.4602 C   0  0  0  0  0  0  0  0  0  0  0  0
    9.3630  -12.9809   25.3789 O   0  0  0  0  0  0  0  0  0  0  0  0
    9.0734  -15.1048   26.1559 N   0  0  0  0  0  0  0  0  0  0  0  0
   10.3923  -15.1600   26.6958 C   0  0  1  0  0  0  0  0  0  0  0  0
   10.5685  -14.1192   27.7737 C   0  0  0  0  0  0  0  0  0  0  0  0
    9.3408  -14.2550   29.0743 S   0  0  0  0  0  0  0  0  0  0  0  0
   10.7004  -16.5165   27.1516 C   0  0  0  0  0  0  0  0  0  0  0  0
   11.9794  -16.8121   27.5843 O   0  0  0  0  0  0  0  0  0  0  0  0
    9.8660  -17.4599   27.1801 O   0  0  0  0  0  0  0  0  0  0  0  0
  2  3  1  0
  2  8  1  0
  2  1  1  6
  4  3  1  0
  5  4  1  0
  6  5  1  0
  6  7  1  0
  8  9  2  0
 10 11  1  0
 10  8  1  0
 11 14  1  0
 12 13  1  0
 11 12  1  1
 14 16  1  0
 14 15  2  0
 16 17  1  0
 17 20  1  0
 17 18  1  1
 19 18  1  0
 20 22  2  0
 20 21  1  0
M  END
$$$$
