KCC.pdb
     RDKit          3D

 22 21  0  0  1  0  0  0  0  0999 V2000
    5.7709  -17.3644   12.5668 N   0  0  0  0  0  0  0  0  0  0  0  0
    5.6679  -18.7658   12.7945 C   0  0  1  0  0  0  0  0  0  0  0  0
    6.1928  -19.5945   11.6354 C   0  0  0  0  0  0  0  0  0  0  0  0
    6.7223  -18.7264   10.5352 C   0  0  0  0  0  0  0  0  0  0  0  0
    7.1419  -19.5636    9.3716 C   0  0  0  0  0  0  0  0  0  0  0  0
    7.7234  -18.7353    8.2603 C   0  0  0  0  0  0  0  0  0  0  0  0
    8.1474  -19.6360    7.1911 N   0  0  0  0  0  0  0  0  0  0  0  0
    6.4802  -19.1184   13.9872 C   0  0  0  0  0  0  0  0  0  0  0  0
    7.5562  -18.4825   14.1883 O   0  0  0  0  0  0  0  0  0  0  0  0
    6.0875  -20.1248   14.8818 N   0  0  0  0  0  0  0  0  0  0  0  0
    6.9090  -20.3863   16.0441 C   0  0  1  0  0  0  0  0  0  0  0  0
    6.0748  -21.1826   17.0084 C   0  0  0  0  0  0  0  0  0  0  0  0
    4.6754  -20.1411   17.5521 S   0  0  0  0  0  0  0  0  0  0  0  0
    8.1445  -21.0382   15.6355 C   0  0  0  0  0  0  0  0  0  0  0  0
    8.5775  -20.8686   14.4720 O   0  0  0  0  0  0  0  0  0  0  0  0
    8.9193  -21.8794   16.4870 N   0  0  0  0  0  0  0  0  0  0  0  0
   10.2839  -22.1888   16.2110 C   0  0  1  0  0  0  0  0  0  0  0  0
   11.0959  -20.9254   16.0671 C   0  0  0  0  0  0  0  0  0  0  0  0
   12.8253  -21.2500   15.7190 S   0  0  0  0  0  0  0  0  0  0  0  0
   10.8154  -23.1004   17.2254 C   0  0  0  0  0  0  0  0  0  0  0  0
   11.5500  -24.2020   16.8288 O   0  0  0  0  0  0  0  0  0  0  0  0
   10.6496  -22.9531   18.4656 O   0  0  0  0  0  0  0  0  0  0  0  0
  2  3  1  0
  2  8  1  0
  2  1  1  6
  4  3  1  0
  5  4  1  0
  6  5  1  0
  6  7  1  0
  8  9  2  0
 10 11  1  0
 10  8  1  0
 11 14  1  0
 12 13  1  0
 11 12  1  1
 14 16  1  0
 14 15  2  0
 16 17  1  0
 17 20  1  0
 17 18  1  1
 19 18  1  0
 20 22  2  0
 20 21  1  0
M  END
$$$$
