KCC.pdb
     RDKit          3D

 22 21  0  0  1  0  0  0  0  0999 V2000
    7.5834  -16.2776   21.1265 N   0  0  0  0  0  0  0  0  0  0  0  0
    6.9582  -16.4513   22.3936 C   0  0  1  0  0  0  0  0  0  0  0  0
    6.9905  -17.8900   22.8779 C   0  0  0  0  0  0  0  0  0  0  0  0
    7.2441  -18.8434   21.7504 C   0  0  0  0  0  0  0  0  0  0  0  0
    6.2242  -19.9345   21.7556 C   0  0  0  0  0  0  0  0  0  0  0  0
    6.4682  -20.9411   20.6664 C   0  0  0  0  0  0  0  0  0  0  0  0
    5.4386  -21.9735   20.7575 N   0  0  0  0  0  0  0  0  0  0  0  0
    7.6822  -15.6344   23.4012 C   0  0  0  0  0  0  0  0  0  0  0  0
    8.9467  -15.6019   23.3490 O   0  0  0  0  0  0  0  0  0  0  0  0
    7.0064  -14.9096   24.3936 N   0  0  0  0  0  0  0  0  0  0  0  0
    7.7796  -14.1596   25.3601 C   0  0  1  0  0  0  0  0  0  0  0  0
    6.8294  -13.2352   26.0690 C   0  0  0  0  0  0  0  0  0  0  0  0
    7.7670  -12.3090   27.3346 S   0  0  0  0  0  0  0  0  0  0  0  0
    8.4937  -15.0767   26.2359 C   0  0  0  0  0  0  0  0  0  0  0  0
    7.8828  -16.0425   26.7498 O   0  0  0  0  0  0  0  0  0  0  0  0
    9.8765  -14.9525   26.5605 N   0  0  0  0  0  0  0  0  0  0  0  0
   10.5150  -15.8105   27.5039 C   0  0  1  0  0  0  0  0  0  0  0  0
   11.9187  -16.1379   27.0583 C   0  0  0  0  0  0  0  0  0  0  0  0
   12.0086  -16.5798   25.3223 S   0  0  0  0  0  0  0  0  0  0  0  0
   10.4600  -15.2252   28.8444 C   0  0  0  0  0  0  0  0  0  0  0  0
   11.0083  -15.9159   29.9088 O   0  0  0  0  0  0  0  0  0  0  0  0
    9.9368  -14.1100   29.1086 O   0  0  0  0  0  0  0  0  0  0  0  0
  2  3  1  0
  2  8  1  0
  2  1  1  6
  4  3  1  0
  5  4  1  0
  6  5  1  0
  6  7  1  0
  8  9  2  0
 10 11  1  0
 10  8  1  0
 11 14  1  0
 12 13  1  0
 11 12  1  1
 14 16  1  0
 14 15  2  0
 16 17  1  0
 17 20  1  0
 17 18  1  6
 19 18  1  0
 20 22  2  0
 20 21  1  0
M  END
$$$$
