KCC.pdb
     RDKit          3D

 22 21  0  0  1  0  0  0  0  0999 V2000
    7.7071  -13.4018   20.1673 N   0  0  0  0  0  0  0  0  0  0  0  0
    7.2017  -14.2254   21.2127 C   0  0  1  0  0  0  0  0  0  0  0  0
    7.4816  -15.7013   20.9920 C   0  0  0  0  0  0  0  0  0  0  0  0
    8.9077  -15.9370   20.5983 C   0  0  0  0  0  0  0  0  0  0  0  0
    9.1035  -17.3600   20.1890 C   0  0  0  0  0  0  0  0  0  0  0  0
   10.4860  -17.6089   19.6541 C   0  0  0  0  0  0  0  0  0  0  0  0
   10.6119  -19.0332   19.3545 N   0  0  0  0  0  0  0  0  0  0  0  0
    7.8616  -13.8410   22.4869 C   0  0  0  0  0  0  0  0  0  0  0  0
    9.0152  -13.3226   22.4312 O   0  0  0  0  0  0  0  0  0  0  0  0
    7.2444  -14.0366   23.7311 N   0  0  0  0  0  0  0  0  0  0  0  0
    7.8862  -13.5163   24.9192 C   0  0  1  0  0  0  0  0  0  0  0  0
    6.8064  -12.9397   25.7918 C   0  0  0  0  0  0  0  0  0  0  0  0
    5.7247  -14.3050   26.3437 S   0  0  0  0  0  0  0  0  0  0  0  0
    8.6751  -14.5641   25.5500 C   0  0  0  0  0  0  0  0  0  0  0  0
    8.5657  -15.7463   25.1495 O   0  0  0  0  0  0  0  0  0  0  0  0
    9.5890  -14.3365   26.6205 N   0  0  0  0  0  0  0  0  0  0  0  0
   10.3406  -15.3929   27.2148 C   0  0  1  0  0  0  0  0  0  0  0  0
   11.2447  -14.8572   28.2972 C   0  0  0  0  0  0  0  0  0  0  0  0
   10.3624  -13.8803   29.5155 S   0  0  0  0  0  0  0  0  0  0  0  0
    9.4470  -16.4525   27.6853 C   0  0  0  0  0  0  0  0  0  0  0  0
    9.9822  -17.6616   28.0879 O   0  0  0  0  0  0  0  0  0  0  0  0
    8.1937  -16.3429   27.7530 O   0  0  0  0  0  0  0  0  0  0  0  0
  2  3  1  0
  2  8  1  0
  2  1  1  6
  4  3  1  0
  5  4  1  0
  6  5  1  0
  6  7  1  0
  8  9  2  0
 10 11  1  0
 10  8  1  0
 11 14  1  0
 12 13  1  0
 11 12  1  1
 14 16  1  0
 14 15  2  0
 16 17  1  0
 17 20  1  0
 17 18  1  1
 19 18  1  0
 20 22  2  0
 20 21  1  0
M  END
$$$$
