KCC.pdb
     RDKit          3D

 22 21  0  0  1  0  0  0  0  0999 V2000
    6.2079  -15.7190   20.4163 N   0  0  0  0  0  0  0  0  0  0  0  0
    7.2728  -15.1001   21.1300 C   0  0  1  0  0  0  0  0  0  0  0  0
    7.2227  -13.5836   21.0713 C   0  0  0  0  0  0  0  0  0  0  0  0
    7.7465  -13.0670   19.7663 C   0  0  0  0  0  0  0  0  0  0  0  0
    9.1032  -13.6291   19.4940 C   0  0  0  0  0  0  0  0  0  0  0  0
    9.8935  -12.7658   18.5509 C   0  0  0  0  0  0  0  0  0  0  0  0
   11.2242  -13.3498   18.4010 N   0  0  0  0  0  0  0  0  0  0  0  0
    7.1780  -15.4856   22.5615 C   0  0  0  0  0  0  0  0  0  0  0  0
    6.0594  -15.3637   23.1417 O   0  0  0  0  0  0  0  0  0  0  0  0
    8.2831  -15.9742   23.2735 N   0  0  0  0  0  0  0  0  0  0  0  0
    8.1177  -16.3216   24.6686 C   0  0  1  0  0  0  0  0  0  0  0  0
    7.8669  -17.8025   24.7316 C   0  0  0  0  0  0  0  0  0  0  0  0
    9.2653  -18.6562   23.9228 S   0  0  0  0  0  0  0  0  0  0  0  0
    9.2767  -15.8742   25.4267 C   0  0  0  0  0  0  0  0  0  0  0  0
   10.4024  -15.8478   24.8770 O   0  0  0  0  0  0  0  0  0  0  0  0
    9.2226  -15.4521   26.7876 N   0  0  0  0  0  0  0  0  0  0  0  0
   10.3941  -15.0982   27.5199 C   0  0  1  0  0  0  0  0  0  0  0  0
   10.2028  -13.7758   28.2204 C   0  0  0  0  0  0  0  0  0  0  0  0
    8.4751  -13.3866   28.5048 S   0  0  0  0  0  0  0  0  0  0  0  0
   10.7729  -16.1804   28.4299 C   0  0  0  0  0  0  0  0  0  0  0  0
   11.9520  -16.0835   29.1448 O   0  0  0  0  0  0  0  0  0  0  0  0
   10.0875  -17.2210   28.6158 O   0  0  0  0  0  0  0  0  0  0  0  0
  2  3  1  0
  2  8  1  0
  2  1  1  6
  4  3  1  0
  5  4  1  0
  6  5  1  0
  6  7  1  0
  8  9  2  0
 10 11  1  0
 10  8  1  0
 11 14  1  0
 12 13  1  0
 11 12  1  6
 14 16  1  0
 14 15  2  0
 16 17  1  0
 17 20  1  0
 17 18  1  1
 19 18  1  0
 20 22  2  0
 20 21  1  0
M  END
$$$$
