KCC.pdb
     RDKit          3D

 22 21  0  0  1  0  0  0  0  0999 V2000
    9.0391  -15.1694   20.5853 N   0  0  0  0  0  0  0  0  0  0  0  0
    7.9939  -15.4901   21.4970 C   0  0  1  0  0  0  0  0  0  0  0  0
    7.8737  -16.9807   21.7600 C   0  0  0  0  0  0  0  0  0  0  0  0
    8.4668  -17.7848   20.6438 C   0  0  0  0  0  0  0  0  0  0  0  0
    9.4140  -18.8042   21.1866 C   0  0  0  0  0  0  0  0  0  0  0  0
    9.8773  -19.7652   20.1278 C   0  0  0  0  0  0  0  0  0  0  0  0
   10.9297  -20.6028   20.6979 N   0  0  0  0  0  0  0  0  0  0  0  0
    8.2784  -14.8376   22.8008 C   0  0  0  0  0  0  0  0  0  0  0  0
    9.4844  -14.7486   23.1754 O   0  0  0  0  0  0  0  0  0  0  0  0
    7.2564  -14.3258   23.6136 N   0  0  0  0  0  0  0  0  0  0  0  0
    7.6116  -13.6733   24.8556 C   0  0  1  0  0  0  0  0  0  0  0  0
    6.4362  -12.8316   25.2679 C   0  0  0  0  0  0  0  0  0  0  0  0
    6.7646  -12.1663   26.9377 S   0  0  0  0  0  0  0  0  0  0  0  0
    8.0121  -14.6705   25.8370 C   0  0  0  0  0  0  0  0  0  0  0  0
    7.5509  -15.8331   25.7608 O   0  0  0  0  0  0  0  0  0  0  0  0
    8.9165  -14.4134   26.9089 N   0  0  0  0  0  0  0  0  0  0  0  0
    9.5333  -15.4638   27.6505 C   0  0  1  0  0  0  0  0  0  0  0  0
   10.4354  -16.2828   26.7608 C   0  0  0  0  0  0  0  0  0  0  0  0
   11.3304  -17.5500   27.6610 S   0  0  0  0  0  0  0  0  0  0  0  0
   10.2212  -14.9236   28.8243 C   0  0  0  0  0  0  0  0  0  0  0  0
   10.7394  -15.7926   29.7660 O   0  0  0  0  0  0  0  0  0  0  0  0
   10.3809  -13.6939   29.0471 O   0  0  0  0  0  0  0  0  0  0  0  0
  2  3  1  0
  2  8  1  0
  2  1  1  6
  4  3  1  0
  5  4  1  0
  6  5  1  0
  6  7  1  0
  8  9  2  0
 10 11  1  0
 10  8  1  0
 11 14  1  0
 12 13  1  0
 11 12  1  1
 14 16  1  0
 14 15  2  0
 16 17  1  0
 17 20  1  0
 17 18  1  6
 19 18  1  0
 20 22  2  0
 20 21  1  0
M  END
$$$$
