VFQ.pdb
     RDKit          3D

 28 28  0  0  1  0  0  0  0  0999 V2000
   13.0551  -23.4604    3.0850 C   0  0  0  0  0  0  0  0  0  0  0  0
   14.0799  -22.4319    3.4005 C   0  0  2  0  0  0  0  0  0  0  0  0
   13.5375  -21.5086    4.4696 C   0  0  0  0  0  0  0  0  0  0  0  0
   14.6673  -21.6996    2.2428 C   0  0  2  0  0  0  0  0  0  0  0  0
   15.3620  -22.6909    1.3977 N   0  0  0  0  0  0  0  0  0  0  0  0
   15.6134  -20.6142    2.6056 C   0  0  0  0  0  0  0  0  0  0  0  0
   16.7928  -20.8949    3.0268 O   0  0  0  0  0  0  0  0  0  0  0  0
   15.3126  -19.2399    2.5206 N   0  0  0  0  0  0  0  0  0  0  0  0
   16.1883  -18.1825    2.9929 C   0  0  1  0  0  0  0  0  0  0  0  0
   16.1877  -17.0103    2.0538 C   0  0  0  0  0  0  0  0  0  0  0  0
   16.9643  -15.8626    2.5105 C   0  0  0  0  0  0  0  0  0  0  0  0
   18.3293  -15.7396    2.4511 C   0  0  0  0  0  0  0  0  0  0  0  0
   19.0001  -14.6033    2.9139 C   0  0  0  0  0  0  0  0  0  0  0  0
   18.2814  -13.5579    3.4527 C   0  0  0  0  0  0  0  0  0  0  0  0
   16.8994  -13.6513    3.5270 C   0  0  0  0  0  0  0  0  0  0  0  0
   16.2728  -14.7876    3.0605 C   0  0  0  0  0  0  0  0  0  0  0  0
   15.9680  -17.8657    4.4005 C   0  0  0  0  0  0  0  0  0  0  0  0
   14.8225  -18.1354    4.9003 O   0  0  0  0  0  0  0  0  0  0  0  0
   17.5518  -20.5292    8.9623 N   0  0  0  0  0  0  0  0  0  0  0  0
   17.0080  -19.4398    9.6675 C   0  0  0  0  0  0  0  0  0  0  0  0
   16.8121  -19.5331   10.8948 O   0  0  0  0  0  0  0  0  0  0  0  0
   16.6739  -18.1876    8.9338 C   0  0  0  0  0  0  0  0  0  0  0  0
   16.9953  -18.3151    7.4689 C   0  0  0  0  0  0  0  0  0  0  0  0
   16.6567  -17.0691    6.7035 C   0  0  2  0  0  0  0  0  0  0  0  0
   16.9020  -17.2911    5.2609 N   0  0  0  0  0  0  0  0  0  0  0  0
   17.3737  -15.8663    7.1535 C   0  0  0  0  0  0  0  0  0  0  0  0
   18.6327  -15.4940    6.6701 O   0  0  0  0  0  0  0  0  0  0  0  0
   16.8754  -15.1065    8.0094 O   0  0  0  0  0  0  0  0  0  0  0  0
  2  1  1  6
  3  2  1  0
  4  2  1  0
  4  5  1  6
  6  4  1  0
  7  6  2  0
  8  6  1  0
  9  8  1  0
  9 10  1  6
 10 11  1  0
 11 16  2  0
 12 11  1  0
 12 13  2  0
 13 14  1  0
 14 15  2  0
 16 15  1  0
 17 18  2  0
 17  9  1  0
 20 22  1  0
 20 19  1  0
 21 20  2  0
 24 23  1  1
 23 22  1  0
 24 25  1  0
 25 17  1  0
 26 24  1  0
 27 26  1  0
 28 26  2  0
M  END
$$$$
