VFQ.pdb
     RDKit          3D

 28 28  0  0  1  0  0  0  0  0999 V2000
   17.0109  -19.6287    1.7149 C   0  0  0  0  0  0  0  0  0  0  0  0
   16.5626  -20.5246    2.8121 C   0  0  2  0  0  0  0  0  0  0  0  0
   15.4170  -21.3781    2.3135 C   0  0  0  0  0  0  0  0  0  0  0  0
   16.2784  -19.8792    4.1252 C   0  0  2  0  0  0  0  0  0  0  0  0
   14.9806  -19.1857    4.0065 N   0  0  0  0  0  0  0  0  0  0  0  0
   17.3105  -18.9152    4.5835 C   0  0  0  0  0  0  0  0  0  0  0  0
   18.5216  -19.2987    4.7661 O   0  0  0  0  0  0  0  0  0  0  0  0
   17.0617  -17.5528    4.8448 N   0  0  0  0  0  0  0  0  0  0  0  0
   18.0678  -16.6139    5.3077 C   0  0  1  0  0  0  0  0  0  0  0  0
   17.8243  -15.2363    4.7609 C   0  0  0  0  0  0  0  0  0  0  0  0
   18.7779  -14.2259    5.2069 C   0  0  0  0  0  0  0  0  0  0  0  0
   18.7571  -12.8960    4.8708 C   0  0  0  0  0  0  0  0  0  0  0  0
   19.7125  -11.9895    5.3406 C   0  0  0  0  0  0  0  0  0  0  0  0
   20.7197  -12.4286    6.1727 C   0  0  0  0  0  0  0  0  0  0  0  0
   20.7686  -13.7677    6.5312 C   0  0  0  0  0  0  0  0  0  0  0  0
   19.8090  -14.6321    6.0482 C   0  0  0  0  0  0  0  0  0  0  0  0
   18.2813  -16.6939    6.7493 C   0  0  0  0  0  0  0  0  0  0  0  0
   17.2726  -16.5079    7.5127 O   0  0  0  0  0  0  0  0  0  0  0  0
   20.9373  -20.9250    9.8421 N   0  0  0  0  0  0  0  0  0  0  0  0
   20.5900  -20.6992    8.4974 C   0  0  0  0  0  0  0  0  0  0  0  0
   20.6850  -21.6263    7.6699 O   0  0  0  0  0  0  0  0  0  0  0  0
   20.1125  -19.3510    8.0824 C   0  0  0  0  0  0  0  0  0  0  0  0
   20.0882  -18.4011    9.2498 C   0  0  0  0  0  0  0  0  0  0  0  0
   19.6603  -17.0196    8.8479 C   0  0  2  0  0  0  0  0  0  0  0  0
   19.4965  -16.9589    7.3783 N   0  0  0  0  0  0  0  0  0  0  0  0
   20.5652  -15.9496    9.2950 C   0  0  0  0  0  0  0  0  0  0  0  0
   21.3331  -15.1744    8.4194 O   0  0  0  0  0  0  0  0  0  0  0  0
   20.6896  -15.6813   10.5076 O   0  0  0  0  0  0  0  0  0  0  0  0
  2  1  1  6
  3  2  1  0
  4  2  1  0
  4  5  1  6
  6  4  1  0
  7  6  2  0
  8  6  1  0
  9  8  1  0
  9 10  1  1
 10 11  1  0
 11 16  2  0
 12 11  1  0
 12 13  2  0
 13 14  1  0
 14 15  2  0
 16 15  1  0
 17 18  2  0
 17  9  1  0
 20 22  1  0
 20 19  1  0
 21 20  2  0
 24 23  1  6
 23 22  1  0
 24 25  1  0
 25 17  1  0
 26 24  1  0
 27 26  1  0
 28 26  2  0
M  END
$$$$
