VFQ.pdb
     RDKit          3D

 28 28  0  0  1  0  0  0  0  0999 V2000
   28.5364  -23.2302  -18.9520 C   0  0  0  0  0  0  0  0  0  0  0  0
   27.7186  -23.5586  -17.7559 C   0  0  2  0  0  0  0  0  0  0  0  0
   27.3472  -25.0247  -17.8009 C   0  0  0  0  0  0  0  0  0  0  0  0
   26.5525  -22.6714  -17.4821 C   0  0  2  0  0  0  0  0  0  0  0  0
   26.9540  -21.2930  -17.8261 N   0  0  0  0  0  0  0  0  0  0  0  0
   26.0579  -22.7043  -16.0825 C   0  0  0  0  0  0  0  0  0  0  0  0
   25.5659  -23.7839  -15.5930 O   0  0  0  0  0  0  0  0  0  0  0  0
   26.0863  -21.6009  -15.2061 N   0  0  0  0  0  0  0  0  0  0  0  0
   25.4414  -21.5754  -13.9055 C   0  0  1  0  0  0  0  0  0  0  0  0
   26.2207  -20.7477  -12.9239 C   0  0  0  0  0  0  0  0  0  0  0  0
   25.6232  -20.6535  -11.5959 C   0  0  0  0  0  0  0  0  0  0  0  0
   25.9962  -21.3783  -10.4925 C   0  0  0  0  0  0  0  0  0  0  0  0
   25.3692  -21.2298   -9.2515 C   0  0  0  0  0  0  0  0  0  0  0  0
   24.3368  -20.3275   -9.1114 C   0  0  0  0  0  0  0  0  0  0  0  0
   23.9358  -19.5792  -10.2084 C   0  0  0  0  0  0  0  0  0  0  0  0
   24.5778  -19.7530  -11.4163 C   0  0  0  0  0  0  0  0  0  0  0  0
   24.0165  -21.2729  -13.9976 C   0  0  0  0  0  0  0  0  0  0  0  0
   23.6670  -20.2488  -14.6786 O   0  0  0  0  0  0  0  0  0  0  0  0
   19.0392  -24.8147  -12.3757 N   0  0  0  0  0  0  0  0  0  0  0  0
   18.4075  -23.6034  -12.7127 C   0  0  0  0  0  0  0  0  0  0  0  0
   17.1633  -23.5322  -12.7073 O   0  0  0  0  0  0  0  0  0  0  0  0
   19.2386  -22.4210  -13.0720 C   0  0  0  0  0  0  0  0  0  0  0  0
   20.7063  -22.7428  -12.9843 C   0  0  0  0  0  0  0  0  0  0  0  0
   21.5654  -21.6058  -13.4558 C   0  0  2  0  0  0  0  0  0  0  0  0
   22.9893  -22.0064  -13.4065 N   0  0  0  0  0  0  0  0  0  0  0  0
   21.3728  -20.3508  -12.7134 C   0  0  0  0  0  0  0  0  0  0  0  0
   20.5779  -19.2965  -13.1760 O   0  0  0  0  0  0  0  0  0  0  0  0
   21.9259  -20.1686  -11.6094 O   0  0  0  0  0  0  0  0  0  0  0  0
  2  1  1  6
  3  2  1  0
  4  2  1  0
  4  5  1  1
  6  4  1  0
  7  6  2  0
  8  6  1  0
  9  8  1  0
  9 10  1  1
 10 11  1  0
 11 16  2  0
 12 11  1  0
 12 13  2  0
 13 14  1  0
 14 15  2  0
 16 15  1  0
 17 18  2  0
 17  9  1  0
 20 22  1  0
 20 19  1  0
 21 20  2  0
 24 23  1  1
 23 22  1  0
 24 25  1  0
 25 17  1  0
 26 24  1  0
 27 26  1  0
 28 26  2  0
M  END
$$$$
