VFQ.pdb
     RDKit          3D

 28 28  0  0  1  0  0  0  0  0999 V2000
   25.8975  -20.6015  -17.3392 C   0  0  0  0  0  0  0  0  0  0  0  0
   25.9826  -22.0839  -17.3895 C   0  0  2  0  0  0  0  0  0  0  0  0
   24.5976  -22.6489  -17.6179 C   0  0  0  0  0  0  0  0  0  0  0  0
   26.7040  -22.7484  -16.2671 C   0  0  2  0  0  0  0  0  0  0  0  0
   26.7129  -24.1987  -16.5429 N   0  0  0  0  0  0  0  0  0  0  0  0
   26.1232  -22.5075  -14.9221 C   0  0  0  0  0  0  0  0  0  0  0  0
   25.0735  -23.1426  -14.5450 O   0  0  0  0  0  0  0  0  0  0  0  0
   26.6522  -21.6011  -13.9814 N   0  0  0  0  0  0  0  0  0  0  0  0
   26.0488  -21.3196  -12.6911 C   0  0  1  0  0  0  0  0  0  0  0  0
   27.0546  -20.7590  -11.7267 C   0  0  0  0  0  0  0  0  0  0  0  0
   26.5303  -20.4759  -10.3948 C   0  0  0  0  0  0  0  0  0  0  0  0
   26.1247  -19.2491   -9.9337 C   0  0  0  0  0  0  0  0  0  0  0  0
   25.6341  -19.0605   -8.6380 C   0  0  0  0  0  0  0  0  0  0  0  0
   25.5470  -20.1337   -7.7776 C   0  0  0  0  0  0  0  0  0  0  0  0
   25.9492  -21.3876   -8.2135 C   0  0  0  0  0  0  0  0  0  0  0  0
   26.4278  -21.5350   -9.4983 C   0  0  0  0  0  0  0  0  0  0  0  0
   24.8023  -20.5702  -12.8122 C   0  0  0  0  0  0  0  0  0  0  0  0
   24.7282  -19.6796  -13.7266 O   0  0  0  0  0  0  0  0  0  0  0  0
   21.1523  -21.8703  -16.1380 N   0  0  0  0  0  0  0  0  0  0  0  0
   20.1953  -21.0953  -15.4573 C   0  0  0  0  0  0  0  0  0  0  0  0
   19.0697  -20.9187  -15.9624 O   0  0  0  0  0  0  0  0  0  0  0  0
   20.5435  -20.4960  -14.1393 C   0  0  0  0  0  0  0  0  0  0  0  0
   21.9322  -20.8910  -13.7137 C   0  0  0  0  0  0  0  0  0  0  0  0
   22.3212  -20.2719  -12.4028 C   0  0  2  0  0  0  0  0  0  0  0  0
   23.6713  -20.7384  -12.0152 N   0  0  0  0  0  0  0  0  0  0  0  0
   21.3719  -20.5223  -11.3075 C   0  0  0  0  0  0  0  0  0  0  0  0
   21.6299  -21.4018  -10.2505 O   0  0  0  0  0  0  0  0  0  0  0  0
   20.2657  -19.9450  -11.2745 O   0  0  0  0  0  0  0  0  0  0  0  0
  2  1  1  1
  3  2  1  0
  4  2  1  0
  4  5  1  6
  6  4  1  0
  7  6  2  0
  8  6  1  0
  9  8  1  0
  9 10  1  1
 10 11  1  0
 11 16  2  0
 12 11  1  0
 12 13  2  0
 13 14  1  0
 14 15  2  0
 16 15  1  0
 17 18  2  0
 17  9  1  0
 20 22  1  0
 20 19  1  0
 21 20  2  0
 24 23  1  6
 23 22  1  0
 24 25  1  0
 25 17  1  0
 26 24  1  0
 27 26  1  0
 28 26  2  0
M  END
$$$$
