VFQ.pdb
     RDKit          3D

 28 28  0  0  1  0  0  0  0  0999 V2000
   16.1758  -11.8777  -17.5995 C   0  0  0  0  0  0  0  0  0  0  0  0
   17.4812  -12.5153  -17.9106 C   0  0  2  0  0  0  0  0  0  0  0  0
   17.2348  -13.7782  -18.7068 C   0  0  0  0  0  0  0  0  0  0  0  0
   18.4113  -12.7226  -16.7645 C   0  0  2  0  0  0  0  0  0  0  0  0
   17.8157  -13.7532  -15.8911 N   0  0  0  0  0  0  0  0  0  0  0  0
   18.6966  -11.5052  -15.9638 C   0  0  0  0  0  0  0  0  0  0  0  0
   17.9248  -11.1698  -14.9948 O   0  0  0  0  0  0  0  0  0  0  0  0
   19.7939  -10.6494  -16.1869 N   0  0  0  0  0  0  0  0  0  0  0  0
   20.0148   -9.4036  -15.4747 C   0  0  1  0  0  0  0  0  0  0  0  0
   21.4570   -9.2426  -15.0869 C   0  0  0  0  0  0  0  0  0  0  0  0
   21.7864   -7.9551  -14.4845 C   0  0  0  0  0  0  0  0  0  0  0  0
   21.5370   -7.5866  -13.1868 C   0  0  0  0  0  0  0  0  0  0  0  0
   21.8835   -6.3281  -12.6855 C   0  0  0  0  0  0  0  0  0  0  0  0
   22.4987   -5.4103  -13.5095 C   0  0  0  0  0  0  0  0  0  0  0  0
   22.7647   -5.7523  -14.8271 C   0  0  0  0  0  0  0  0  0  0  0  0
   22.4084   -7.0029  -15.2860 C   0  0  0  0  0  0  0  0  0  0  0  0
   19.4106   -8.2611  -16.1528 C   0  0  0  0  0  0  0  0  0  0  0  0
   19.6689   -8.0995  -17.3945 O   0  0  0  0  0  0  0  0  0  0  0  0
   14.1012   -8.4212  -15.2826 N   0  0  0  0  0  0  0  0  0  0  0  0
   14.4630   -7.1098  -15.6421 C   0  0  0  0  0  0  0  0  0  0  0  0
   13.7805   -6.1476  -15.2402 O   0  0  0  0  0  0  0  0  0  0  0  0
   15.6602   -6.8912  -16.5005 C   0  0  0  0  0  0  0  0  0  0  0  0
   16.6072   -5.9057  -15.8699 C   0  0  0  0  0  0  0  0  0  0  0  0
   18.0304   -6.1421  -16.2841 C   0  0  2  0  0  0  0  0  0  0  0  0
   18.5670   -7.3197  -15.5658 N   0  0  0  0  0  0  0  0  0  0  0  0
   18.9200   -4.9875  -16.0865 C   0  0  0  0  0  0  0  0  0  0  0  0
   19.6446   -4.3874  -17.1220 O   0  0  0  0  0  0  0  0  0  0  0  0
   19.0703   -4.4811  -14.9556 O   0  0  0  0  0  0  0  0  0  0  0  0
  2  1  1  1
  3  2  1  0
  4  2  1  0
  4  5  1  1
  6  4  1  0
  7  6  2  0
  8  6  1  0
  9  8  1  0
  9 10  1  6
 10 11  1  0
 11 16  2  0
 12 11  1  0
 12 13  2  0
 13 14  1  0
 14 15  2  0
 16 15  1  0
 17 18  2  0
 17  9  1  0
 20 22  1  0
 20 19  1  0
 21 20  2  0
 24 23  1  1
 23 22  1  0
 24 25  1  0
 25 17  1  0
 26 24  1  0
 27 26  1  0
 28 26  2  0
M  END
$$$$
