VFQ.pdb
     RDKit          3D

 28 28  0  0  1  0  0  0  0  0999 V2000
   24.8392  -33.0366   -7.1140 C   0  0  0  0  0  0  0  0  0  0  0  0
   25.8762  -32.1149   -7.6455 C   0  0  2  0  0  0  0  0  0  0  0  0
   25.2308  -31.1614   -8.6271 C   0  0  0  0  0  0  0  0  0  0  0  0
   27.1179  -32.7449   -8.1775 C   0  0  2  0  0  0  0  0  0  0  0  0
   26.7188  -33.6655   -9.2605 N   0  0  0  0  0  0  0  0  0  0  0  0
   27.9214  -33.4868   -7.1732 C   0  0  0  0  0  0  0  0  0  0  0  0
   27.9040  -34.7699   -7.1473 O   0  0  0  0  0  0  0  0  0  0  0  0
   28.7398  -32.8734   -6.2036 N   0  0  0  0  0  0  0  0  0  0  0  0
   29.5334  -33.5995   -5.2283 C   0  0  1  0  0  0  0  0  0  0  0  0
   30.8577  -32.9311   -4.9929 C   0  0  0  0  0  0  0  0  0  0  0  0
   31.8211  -33.0874   -6.0777 C   0  0  0  0  0  0  0  0  0  0  0  0
   32.0356  -32.1958   -7.0979 C   0  0  0  0  0  0  0  0  0  0  0  0
   32.9800  -32.4216   -8.1041 C   0  0  0  0  0  0  0  0  0  0  0  0
   33.7327  -33.5761   -8.0878 C   0  0  0  0  0  0  0  0  0  0  0  0
   33.5397  -34.4979   -7.0695 C   0  0  0  0  0  0  0  0  0  0  0  0
   32.5991  -34.2409   -6.0944 C   0  0  0  0  0  0  0  0  0  0  0  0
   28.7711  -33.9335   -4.0293 C   0  0  0  0  0  0  0  0  0  0  0  0
   28.2145  -32.9760   -3.3905 O   0  0  0  0  0  0  0  0  0  0  0  0
   23.4441  -37.2933   -2.7785 N   0  0  0  0  0  0  0  0  0  0  0  0
   24.6329  -37.8170   -2.2377 C   0  0  0  0  0  0  0  0  0  0  0  0
   24.7934  -39.0515   -2.1764 O   0  0  0  0  0  0  0  0  0  0  0  0
   25.6846  -36.8848   -1.7451 C   0  0  0  0  0  0  0  0  0  0  0  0
   26.6096  -36.4733   -2.8590 C   0  0  0  0  0  0  0  0  0  0  0  0
   27.6720  -35.5215   -2.3915 C   0  0  2  0  0  0  0  0  0  0  0  0
   28.5903  -35.2145   -3.5109 N   0  0  0  0  0  0  0  0  0  0  0  0
   28.4402  -35.9922   -1.2289 C   0  0  0  0  0  0  0  0  0  0  0  0
   28.0316  -35.7966    0.0947 O   0  0  0  0  0  0  0  0  0  0  0  0
   29.5187  -36.6024   -1.3787 O   0  0  0  0  0  0  0  0  0  0  0  0
  2  1  1  6
  3  2  1  0
  4  2  1  0
  4  5  1  6
  6  4  1  0
  7  6  2  0
  8  6  1  0
  9  8  1  0
  9 10  1  1
 10 11  1  0
 11 16  2  0
 12 11  1  0
 12 13  2  0
 13 14  1  0
 14 15  2  0
 16 15  1  0
 17 18  2  0
 17  9  1  0
 20 22  1  0
 20 19  1  0
 21 20  2  0
 24 23  1  6
 23 22  1  0
 24 25  1  0
 25 17  1  0
 26 24  1  0
 27 26  1  0
 28 26  2  0
M  END
$$$$
