EHM.pdb
     RDKit          3D

 28 28  0  0  1  0  0  0  0  0999 V2000
   27.8520  -22.7315  -16.5553 N   0  0  0  0  0  0  0  0  0  0  0  0
   27.4695  -21.4389  -16.0961 C   0  0  1  0  0  0  0  0  0  0  0  0
   26.6840  -20.6504  -17.0755 C   0  0  0  0  0  0  0  0  0  0  0  0
   25.3108  -21.1826  -17.3782 C   0  0  0  0  0  0  0  0  0  0  0  0
   25.2780  -21.9354  -18.6342 C   0  0  0  0  0  0  0  0  0  0  0  0
   26.3145  -22.1278  -19.3079 O   0  0  0  0  0  0  0  0  0  0  0  0
   26.6829  -21.5060  -14.8148 C   0  0  0  0  0  0  0  0  0  0  0  0
   26.0940  -22.5726  -14.5185 O   0  0  0  0  0  0  0  0  0  0  0  0
   24.0662  -22.4604  -19.1083 O   0  0  0  0  0  0  0  0  0  0  0  0
   26.5951  -20.3974  -13.9447 N   0  0  0  0  0  0  0  0  0  0  0  0
   25.9159  -20.4640  -12.6255 C   0  0  1  0  0  0  0  0  0  0  0  0
   26.7498  -19.7734  -11.6095 C   0  0  0  0  0  0  0  0  0  0  0  0
   27.9901  -20.4540  -11.2383 C   0  0  0  0  0  0  0  0  0  0  0  0
   29.2295  -20.3100  -11.8235 C   0  0  0  0  0  0  0  0  0  0  0  0
   30.1115  -21.1243  -11.2461 N   0  0  0  0  0  0  0  0  0  0  0  0
   29.4562  -21.8022  -10.2846 C   0  0  0  0  0  0  0  0  0  0  0  0
   28.1766  -21.3964  -10.2816 N   0  0  0  0  0  0  0  0  0  0  0  0
   24.5432  -20.0140  -12.8173 C   0  0  0  0  0  0  0  0  0  0  0  0
   24.2592  -19.2944  -13.8456 O   0  0  0  0  0  0  0  0  0  0  0  0
   18.5102  -20.3322  -15.2507 C   0  0  0  0  0  0  0  0  0  0  0  0
   20.2542  -20.6812  -15.2986 S   0  0  0  0  0  0  0  0  0  0  0  0
   20.8063  -21.9186  -14.1444 C   0  0  0  0  0  0  0  0  0  0  0  0
   22.1396  -21.6693  -13.5104 C   0  0  0  0  0  0  0  0  0  0  0  0
   22.1084  -20.5386  -12.4959 C   0  0  2  0  0  0  0  0  0  0  0  0
   23.4408  -20.2878  -11.9836 N   0  0  0  0  0  0  0  0  0  0  0  0
   21.1252  -20.7221  -11.4533 C   0  0  0  0  0  0  0  0  0  0  0  0
   21.3471  -20.8393  -10.0992 O   0  0  0  0  0  0  0  0  0  0  0  0
   19.8954  -20.7867  -11.8020 O   0  0  0  0  0  0  0  0  0  0  0  0
  2  1  1  6
  2  3  1  0
  2  7  1  0
  3  4  1  0
  5  4  1  0
  5  6  2  0
  7 10  1  0
  8  7  2  0
  9  5  1  0
 10 11  1  0
 11 12  1  1
 12 13  1  0
 13 17  1  0
 14 13  2  0
 14 15  1  0
 15 16  1  0
 17 16  2  0
 18 11  1  0
 18 19  2  0
 20 21  1  0
 21 22  1  0
 22 23  1  0
 24 23  1  1
 24 25  1  0
 25 18  1  0
 26 27  1  0
 26 24  1  0
 28 26  2  0
M  END
$$$$
