EHM.pdb
     RDKit          3D

 28 28  0  0  1  0  0  0  0  0999 V2000
   25.8951  -19.5053  -17.4719 N   0  0  0  0  0  0  0  0  0  0  0  0
   24.9058  -18.6747  -16.8724 C   0  0  1  0  0  0  0  0  0  0  0  0
   24.2834  -17.6996  -17.7996 C   0  0  0  0  0  0  0  0  0  0  0  0
   25.1600  -17.2340  -18.9288 C   0  0  0  0  0  0  0  0  0  0  0  0
   26.3429  -16.5176  -18.4463 C   0  0  0  0  0  0  0  0  0  0  0  0
   26.3990  -16.0565  -17.2846 O   0  0  0  0  0  0  0  0  0  0  0  0
   23.8050  -19.4795  -16.2355 C   0  0  0  0  0  0  0  0  0  0  0  0
   23.0687  -20.1856  -16.9645 O   0  0  0  0  0  0  0  0  0  0  0  0
   27.4480  -16.3347  -19.2915 O   0  0  0  0  0  0  0  0  0  0  0  0
   23.5860  -19.4547  -14.8408 N   0  0  0  0  0  0  0  0  0  0  0  0
   22.5560  -20.2923  -14.1749 C   0  0  1  0  0  0  0  0  0  0  0  0
   23.1200  -20.8611  -12.9248 C   0  0  0  0  0  0  0  0  0  0  0  0
   24.1106  -21.9228  -13.1018 C   0  0  0  0  0  0  0  0  0  0  0  0
   24.4973  -22.5159  -14.2841 C   0  0  0  0  0  0  0  0  0  0  0  0
   25.3912  -23.4753  -14.0500 N   0  0  0  0  0  0  0  0  0  0  0  0
   25.5926  -23.5145  -12.7191 C   0  0  0  0  0  0  0  0  0  0  0  0
   24.8191  -22.5772  -12.1489 N   0  0  0  0  0  0  0  0  0  0  0  0
   21.3371  -19.4985  -14.0866 C   0  0  0  0  0  0  0  0  0  0  0  0
   21.3866  -18.3360  -13.5372 O   0  0  0  0  0  0  0  0  0  0  0  0
   18.4987  -14.8583  -17.9940 C   0  0  0  0  0  0  0  0  0  0  0  0
   18.3412  -16.6132  -17.7466 S   0  0  0  0  0  0  0  0  0  0  0  0
   18.3542  -17.1378  -16.0457 C   0  0  0  0  0  0  0  0  0  0  0  0
   18.3885  -18.6177  -15.8207 C   0  0  0  0  0  0  0  0  0  0  0  0
   18.9027  -18.9928  -14.4410 C   0  0  2  0  0  0  0  0  0  0  0  0
   20.0584  -19.8601  -14.5555 N   0  0  0  0  0  0  0  0  0  0  0  0
   17.8820  -19.5209  -13.5656 C   0  0  0  0  0  0  0  0  0  0  0  0
   17.0004  -18.8135  -12.7788 O   0  0  0  0  0  0  0  0  0  0  0  0
   17.7616  -20.7931  -13.4940 O   0  0  0  0  0  0  0  0  0  0  0  0
  2  1  1  6
  2  3  1  0
  2  7  1  0
  3  4  1  0
  5  4  1  0
  5  6  2  0
  7 10  1  0
  8  7  2  0
  9  5  1  0
 10 11  1  0
 11 12  1  1
 12 13  1  0
 13 17  1  0
 14 13  2  0
 14 15  1  0
 15 16  1  0
 17 16  2  0
 18 11  1  0
 18 19  2  0
 20 21  1  0
 21 22  1  0
 22 23  1  0
 24 23  1  6
 24 25  1  0
 25 18  1  0
 26 27  1  0
 26 24  1  0
 28 26  2  0
M  END
$$$$
