EHM.pdb
     RDKit          3D

 28 28  0  0  1  0  0  0  0  0999 V2000
   20.2176  -18.1918  -16.4897 N   0  0  0  0  0  0  0  0  0  0  0  0
   20.3781  -17.6805  -15.1703 C   0  0  1  0  0  0  0  0  0  0  0  0
   19.1325  -17.6619  -14.3666 C   0  0  0  0  0  0  0  0  0  0  0  0
   17.9151  -17.1387  -15.0770 C   0  0  0  0  0  0  0  0  0  0  0  0
   17.9956  -15.6957  -15.3147 C   0  0  0  0  0  0  0  0  0  0  0  0
   18.5502  -14.9287  -14.4965 O   0  0  0  0  0  0  0  0  0  0  0  0
   21.4210  -18.4397  -14.3949 C   0  0  0  0  0  0  0  0  0  0  0  0
   21.8772  -17.9396  -13.3394 O   0  0  0  0  0  0  0  0  0  0  0  0
   17.4445  -15.1429  -16.4806 O   0  0  0  0  0  0  0  0  0  0  0  0
   21.8935  -19.6969  -14.8305 N   0  0  0  0  0  0  0  0  0  0  0  0
   23.0223  -20.4026  -14.1718 C   0  0  1  0  0  0  0  0  0  0  0  0
   22.5309  -21.6773  -13.5904 C   0  0  0  0  0  0  0  0  0  0  0  0
   21.5100  -21.5482  -12.5508 C   0  0  0  0  0  0  0  0  0  0  0  0
   20.9978  -20.3826  -12.0232 C   0  0  0  0  0  0  0  0  0  0  0  0
   20.1157  -20.6574  -11.0636 N   0  0  0  0  0  0  0  0  0  0  0  0
   20.0469  -21.9981  -10.9592 C   0  0  0  0  0  0  0  0  0  0  0  0
   20.8889  -22.5337  -11.8571 N   0  0  0  0  0  0  0  0  0  0  0  0
   24.1220  -20.4549  -15.1265 C   0  0  0  0  0  0  0  0  0  0  0  0
   23.9164  -20.0739  -16.3383 O   0  0  0  0  0  0  0  0  0  0  0  0
   29.3031  -15.8215  -17.1130 C   0  0  0  0  0  0  0  0  0  0  0  0
   27.9141  -16.4968  -16.2295 S   0  0  0  0  0  0  0  0  0  0  0  0
   27.7777  -18.2706  -16.2839 C   0  0  0  0  0  0  0  0  0  0  0  0
   26.6208  -18.8582  -15.5367 C   0  0  0  0  0  0  0  0  0  0  0  0
   26.5870  -20.3759  -15.6003 C   0  0  2  0  0  0  0  0  0  0  0  0
   25.4404  -20.8828  -14.8730 N   0  0  0  0  0  0  0  0  0  0  0  0
   27.8291  -21.0005  -15.2075 C   0  0  0  0  0  0  0  0  0  0  0  0
   28.1025  -21.6625  -14.0313 O   0  0  0  0  0  0  0  0  0  0  0  0
   28.8070  -20.9468  -16.0315 O   0  0  0  0  0  0  0  0  0  0  0  0
  2  1  1  6
  2  3  1  0
  2  7  1  0
  3  4  1  0
  5  4  1  0
  5  6  2  0
  7 10  1  0
  8  7  2  0
  9  5  1  0
 10 11  1  0
 11 12  1  6
 12 13  1  0
 13 17  1  0
 14 13  2  0
 14 15  1  0
 15 16  1  0
 17 16  2  0
 18 11  1  0
 18 19  2  0
 20 21  1  0
 21 22  1  0
 22 23  1  0
 24 23  1  1
 24 25  1  0
 25 18  1  0
 26 27  1  0
 26 24  1  0
 28 26  2  0
M  END
$$$$
