EHM.pdb
     RDKit          3D

 28 28  0  0  1  0  0  0  0  0999 V2000
   24.5928  -19.2955  -14.2822 N   0  0  0  0  0  0  0  0  0  0  0  0
   24.1100  -19.8514  -13.0632 C   0  0  1  0  0  0  0  0  0  0  0  0
   22.8485  -20.6182  -13.1989 C   0  0  0  0  0  0  0  0  0  0  0  0
   22.3910  -20.8617  -14.6103 C   0  0  0  0  0  0  0  0  0  0  0  0
   21.8461  -19.6504  -15.2277 C   0  0  0  0  0  0  0  0  0  0  0  0
   20.8893  -19.0290  -14.7142 O   0  0  0  0  0  0  0  0  0  0  0  0
   25.1293  -20.7444  -12.4085 C   0  0  0  0  0  0  0  0  0  0  0  0
   24.7749  -21.8777  -12.0057 O   0  0  0  0  0  0  0  0  0  0  0  0
   22.3966  -19.1606  -16.4217 O   0  0  0  0  0  0  0  0  0  0  0  0
   26.4695  -20.3332  -12.2395 N   0  0  0  0  0  0  0  0  0  0  0  0
   27.4906  -21.1792  -11.5704 C   0  0  1  0  0  0  0  0  0  0  0  0
   28.8199  -20.9143  -12.1763 C   0  0  0  0  0  0  0  0  0  0  0  0
   29.9459  -21.6242  -11.5699 C   0  0  0  0  0  0  0  0  0  0  0  0
   29.8986  -22.5477  -10.5481 C   0  0  0  0  0  0  0  0  0  0  0  0
   31.1282  -22.9493  -10.2298 N   0  0  0  0  0  0  0  0  0  0  0  0
   31.9821  -22.2931  -11.0381 C   0  0  0  0  0  0  0  0  0  0  0  0
   31.2670  -21.4942  -11.8458 N   0  0  0  0  0  0  0  0  0  0  0  0
   27.3356  -20.9968  -10.1329 C   0  0  0  0  0  0  0  0  0  0  0  0
   28.3266  -20.5410   -9.4502 O   0  0  0  0  0  0  0  0  0  0  0  0
   28.1294  -19.9996   -4.3435 C   0  0  0  0  0  0  0  0  0  0  0  0
   27.6776  -18.7144   -5.4880 S   0  0  0  0  0  0  0  0  0  0  0  0
   26.1464  -18.9826   -6.3549 C   0  0  0  0  0  0  0  0  0  0  0  0
   26.2732  -19.4154   -7.7826 C   0  0  0  0  0  0  0  0  0  0  0  0
   26.0680  -20.9096   -7.9666 C   0  0  2  0  0  0  0  0  0  0  0  0
   26.1827  -21.2626   -9.3677 N   0  0  0  0  0  0  0  0  0  0  0  0
   24.8589  -21.4087   -7.3532 C   0  0  0  0  0  0  0  0  0  0  0  0
   23.5860  -21.4054   -7.8787 O   0  0  0  0  0  0  0  0  0  0  0  0
   24.9540  -21.9193   -6.1834 O   0  0  0  0  0  0  0  0  0  0  0  0
  2  1  1  6
  2  3  1  0
  2  7  1  0
  3  4  1  0
  5  4  1  0
  5  6  2  0
  7 10  1  0
  8  7  2  0
  9  5  1  0
 10 11  1  0
 11 12  1  6
 12 13  1  0
 13 17  1  0
 14 13  2  0
 14 15  1  0
 15 16  1  0
 17 16  2  0
 18 11  1  0
 18 19  2  0
 20 21  1  0
 21 22  1  0
 22 23  1  0
 24 23  1  6
 24 25  1  0
 25 18  1  0
 26 27  1  0
 26 24  1  0
 28 26  2  0
M  END
$$$$
