EHM.pdb
     RDKit          3D

 28 28  0  0  1  0  0  0  0  0999 V2000
   17.4073  -14.0391  -18.7671 N   0  0  0  0  0  0  0  0  0  0  0  0
   16.9793  -12.9128  -18.0079 C   0  0  1  0  0  0  0  0  0  0  0  0
   16.7296  -13.2010  -16.5753 C   0  0  0  0  0  0  0  0  0  0  0  0
   17.4825  -14.3748  -16.0134 C   0  0  0  0  0  0  0  0  0  0  0  0
   17.0895  -14.6699  -14.6336 C   0  0  0  0  0  0  0  0  0  0  0  0
   16.2284  -13.9844  -14.0386 O   0  0  0  0  0  0  0  0  0  0  0  0
   17.9589  -11.7731  -18.0896 C   0  0  0  0  0  0  0  0  0  0  0  0
   19.1443  -12.0133  -18.4205 O   0  0  0  0  0  0  0  0  0  0  0  0
   17.6806  -15.7417  -13.9476 O   0  0  0  0  0  0  0  0  0  0  0  0
   17.5716  -10.4461  -17.8020 N   0  0  0  0  0  0  0  0  0  0  0  0
   18.4981   -9.2928  -17.9339 C   0  0  1  0  0  0  0  0  0  0  0  0
   17.7097   -8.0370  -18.0107 C   0  0  0  0  0  0  0  0  0  0  0  0
   18.4900   -6.8032  -18.1027 C   0  0  0  0  0  0  0  0  0  0  0  0
   19.2754   -6.3880  -19.1563 C   0  0  0  0  0  0  0  0  0  0  0  0
   19.8691   -5.2321  -18.8636 N   0  0  0  0  0  0  0  0  0  0  0  0
   19.4769   -4.8870  -17.6225 C   0  0  0  0  0  0  0  0  0  0  0  0
   18.6450   -5.8361  -17.1652 N   0  0  0  0  0  0  0  0  0  0  0  0
   19.5028   -9.4171  -16.8856 C   0  0  0  0  0  0  0  0  0  0  0  0
   19.1368   -9.7913  -15.7101 O   0  0  0  0  0  0  0  0  0  0  0  0
   27.0123  -10.4170  -14.4735 C   0  0  0  0  0  0  0  0  0  0  0  0
   25.8774  -10.0766  -15.8009 S   0  0  0  0  0  0  0  0  0  0  0  0
   24.2040   -9.7440  -15.2938 C   0  0  0  0  0  0  0  0  0  0  0  0
   23.2003   -9.6238  -16.3984 C   0  0  0  0  0  0  0  0  0  0  0  0
   21.8070   -9.2858  -15.8953 C   0  0  2  0  0  0  0  0  0  0  0  0
   20.8854   -9.1746  -17.0085 N   0  0  0  0  0  0  0  0  0  0  0  0
   21.7708   -8.1426  -15.0127 C   0  0  0  0  0  0  0  0  0  0  0  0
   21.8856   -8.1356  -13.6404 O   0  0  0  0  0  0  0  0  0  0  0  0
   21.6144   -6.9882  -15.5429 O   0  0  0  0  0  0  0  0  0  0  0  0
  2  1  1  1
  2  3  1  0
  2  7  1  0
  3  4  1  0
  5  4  1  0
  5  6  2  0
  7 10  1  0
  8  7  2  0
  9  5  1  0
 10 11  1  0
 11 12  1  1
 12 13  1  0
 13 17  1  0
 14 13  2  0
 14 15  1  0
 15 16  1  0
 17 16  2  0
 18 11  1  0
 18 19  2  0
 20 21  1  0
 21 22  1  0
 22 23  1  0
 24 23  1  6
 24 25  1  0
 25 18  1  0
 26 27  1  0
 26 24  1  0
 28 26  2  0
M  END
$$$$
