ELL.pdb
     RDKit          3D

 26 25  0  0  1  0  0  0  0  0999 V2000
   24.3205  -18.3049  -18.2800 N   0  0  0  0  0  0  0  0  0  0  0  0
   24.4585  -18.0522  -16.8597 C   0  0  1  0  0  0  0  0  0  0  0  0
   23.0605  -17.9445  -16.3037 C   0  0  0  0  0  0  0  0  0  0  0  0
   22.3931  -16.7542  -16.9933 C   0  0  0  0  0  0  0  0  0  0  0  0
   21.0274  -16.6385  -16.4714 C   0  0  0  0  0  0  0  0  0  0  0  0
   20.7731  -15.9480  -15.4649 O   0  0  0  0  0  0  0  0  0  0  0  0
   25.1421  -19.2079  -16.2170 C   0  0  0  0  0  0  0  0  0  0  0  0
   24.9303  -20.3623  -16.6686 O   0  0  0  0  0  0  0  0  0  0  0  0
   20.0012  -17.3136  -17.1155 O   0  0  0  0  0  0  0  0  0  0  0  0
   30.1141  -19.8968  -12.9337 C   0  0  0  0  0  0  0  0  0  0  0  0
   28.9761  -20.7216  -13.6134 C   0  0  1  0  0  0  0  0  0  0  0  0
   28.5968  -21.7585  -12.5730 C   0  0  0  0  0  0  0  0  0  0  0  0
   27.8701  -19.8019  -13.9157 C   0  0  0  0  0  0  0  0  0  0  0  0
   26.5985  -20.2901  -14.5239 C   0  0  2  0  0  0  0  0  0  0  0  0
   26.0171  -19.0630  -15.1268 N   0  0  0  0  0  0  0  0  0  0  0  0
   25.6107  -20.9248  -13.6435 C   0  0  0  0  0  0  0  0  0  0  0  0
   25.5656  -22.1378  -13.3635 O   0  0  0  0  0  0  0  0  0  0  0  0
   26.0286  -19.4466  -10.4214 C   0  0  0  0  0  0  0  0  0  0  0  0
   25.0194  -20.5278   -9.9722 C   0  0  1  0  0  0  0  0  0  0  0  0
   24.9522  -20.4021   -8.4697 C   0  0  0  0  0  0  0  0  0  0  0  0
   23.7737  -20.2517  -10.6992 C   0  0  0  0  0  0  0  0  0  0  0  0
   23.6351  -20.7298  -12.1105 C   0  0  2  0  0  0  0  0  0  0  0  0
   24.5707  -20.1568  -13.0074 N   0  0  0  0  0  0  0  0  0  0  0  0
   22.2548  -20.7724  -12.5943 C   0  0  0  0  0  0  0  0  0  0  0  0
   21.9437  -20.2027  -13.6465 O   0  0  0  0  0  0  0  0  0  0  0  0
   21.2871  -21.4381  -11.8976 O   0  0  0  0  0  0  0  0  0  0  0  0
  2  1  1  6
  2  3  1  0
  2  7  1  0
  4  5  1  0
  4  3  1  0
  5  6  2  0
  7  8  2  0
  9  5  1  0
 11 10  1  1
 11 12  1  0
 13 11  1  0
 14 13  1  1
 15 14  1  0
 15  7  1  0
 16 14  1  0
 16 17  2  0
 19 21  1  0
 19 18  1  6
 20 19  1  0
 22 21  1  1
 22 23  1  0
 22 24  1  0
 23 16  1  0
 24 25  2  0
 24 26  1  0
M  END
$$$$
