ELL.pdb
     RDKit          3D

 26 25  0  0  1  0  0  0  0  0999 V2000
   31.2736  -39.9582   -4.6728 N   0  0  0  0  0  0  0  0  0  0  0  0
   30.3682  -38.8571   -4.9337 C   0  0  1  0  0  0  0  0  0  0  0  0
   29.0461  -39.2299   -4.3107 C   0  0  0  0  0  0  0  0  0  0  0  0
   28.1253  -39.6794   -5.4455 C   0  0  0  0  0  0  0  0  0  0  0  0
   26.7397  -39.5101   -4.9957 C   0  0  0  0  0  0  0  0  0  0  0  0
   25.7785  -39.7062   -5.7652 O   0  0  0  0  0  0  0  0  0  0  0  0
   30.8815  -37.6279   -4.2692 C   0  0  0  0  0  0  0  0  0  0  0  0
   31.3933  -37.7289   -3.1248 O   0  0  0  0  0  0  0  0  0  0  0  0
   26.4998  -39.1236   -3.6854 O   0  0  0  0  0  0  0  0  0  0  0  0
   33.7197  -33.8667   -6.7936 C   0  0  0  0  0  0  0  0  0  0  0  0
   33.1916  -34.9515   -5.8028 C   0  0  1  0  0  0  0  0  0  0  0  0
   34.3718  -35.2269   -4.8901 C   0  0  0  0  0  0  0  0  0  0  0  0
   32.0455  -34.3830   -5.0791 C   0  0  0  0  0  0  0  0  0  0  0  0
   31.2819  -35.1861   -4.0805 C   0  0  2  0  0  0  0  0  0  0  0  0
   30.8204  -36.3581   -4.8683 N   0  0  0  0  0  0  0  0  0  0  0  0
   30.1360  -34.5539   -3.4163 C   0  0  0  0  0  0  0  0  0  0  0  0
   30.2007  -33.6119   -2.6038 O   0  0  0  0  0  0  0  0  0  0  0  0
   24.8968  -32.4693   -5.0039 C   0  0  0  0  0  0  0  0  0  0  0  0
   25.4433  -33.2036   -3.7584 C   0  0  1  0  0  0  0  0  0  0  0  0
   24.3266  -34.1200   -3.3214 C   0  0  0  0  0  0  0  0  0  0  0  0
   26.6871  -33.8590   -4.1830 C   0  0  0  0  0  0  0  0  0  0  0  0
   27.6532  -34.3284   -3.1410 C   0  0  2  0  0  0  0  0  0  0  0  0
   28.7875  -34.9959   -3.6660 N   0  0  0  0  0  0  0  0  0  0  0  0
   27.0233  -34.9808   -1.9926 C   0  0  0  0  0  0  0  0  0  0  0  0
   26.1243  -34.4096   -1.3651 O   0  0  0  0  0  0  0  0  0  0  0  0
   27.4133  -36.2269   -1.5923 O   0  0  0  0  0  0  0  0  0  0  0  0
  2  1  1  1
  2  3  1  0
  2  7  1  0
  4  5  1  0
  4  3  1  0
  5  6  2  0
  7  8  2  0
  9  5  1  0
 11 10  1  6
 11 12  1  0
 13 11  1  0
 14 13  1  6
 15 14  1  0
 15  7  1  0
 16 14  1  0
 16 17  2  0
 19 21  1  0
 19 18  1  6
 20 19  1  0
 22 21  1  6
 22 23  1  0
 22 24  1  0
 23 16  1  0
 24 25  2  0
 24 26  1  0
M  END
$$$$
