ELL.pdb
     RDKit          3D

 26 25  0  0  1  0  0  0  0  0999 V2000
   27.6356  -21.3563  -15.2213 N   0  0  0  0  0  0  0  0  0  0  0  0
   27.0632  -20.3134  -14.3938 C   0  0  1  0  0  0  0  0  0  0  0  0
   26.2931  -19.4040  -15.3183 C   0  0  0  0  0  0  0  0  0  0  0  0
   27.1522  -19.2003  -16.5667 C   0  0  0  0  0  0  0  0  0  0  0  0
   27.8571  -17.9220  -16.4252 C   0  0  0  0  0  0  0  0  0  0  0  0
   27.7203  -17.2141  -15.4080 O   0  0  0  0  0  0  0  0  0  0  0  0
   26.1153  -20.9207  -13.4198 C   0  0  0  0  0  0  0  0  0  0  0  0
   25.7855  -22.1252  -13.5687 O   0  0  0  0  0  0  0  0  0  0  0  0
   28.6923  -17.4971  -17.4478 O   0  0  0  0  0  0  0  0  0  0  0  0
   26.4208  -19.5488   -8.1176 C   0  0  0  0  0  0  0  0  0  0  0  0
   26.3984  -20.4418   -9.3979 C   0  0  1  0  0  0  0  0  0  0  0  0
   26.5848  -21.8520   -8.8703 C   0  0  0  0  0  0  0  0  0  0  0  0
   25.0963  -20.2578  -10.0546 C   0  0  0  0  0  0  0  0  0  0  0  0
   24.7683  -20.9480  -11.3357 C   0  0  2  0  0  0  0  0  0  0  0  0
   25.5743  -20.2047  -12.3382 N   0  0  0  0  0  0  0  0  0  0  0  0
   23.3639  -20.9864  -11.7598 C   0  0  0  0  0  0  0  0  0  0  0  0
   22.4284  -21.4998  -11.1171 O   0  0  0  0  0  0  0  0  0  0  0  0
   20.0732  -21.6146  -16.0079 C   0  0  0  0  0  0  0  0  0  0  0  0
   20.1810  -22.4023  -14.6823 C   0  0  1  0  0  0  0  0  0  0  0  0
   20.0207  -23.8514  -15.0725 C   0  0  0  0  0  0  0  0  0  0  0  0
   21.4732  -22.0324  -14.0908 C   0  0  0  0  0  0  0  0  0  0  0  0
   21.6625  -20.6421  -13.5702 C   0  0  2  0  0  0  0  0  0  0  0  0
   22.9422  -20.4062  -13.0094 N   0  0  0  0  0  0  0  0  0  0  0  0
   20.5358  -20.1403  -12.7829 C   0  0  0  0  0  0  0  0  0  0  0  0
   19.3758  -20.3024  -13.1784 O   0  0  0  0  0  0  0  0  0  0  0  0
   20.7410  -19.4861  -11.6018 O   0  0  0  0  0  0  0  0  0  0  0  0
  2  1  1  6
  2  3  1  0
  2  7  1  0
  4  5  1  0
  4  3  1  0
  5  6  2  0
  7  8  2  0
  9  5  1  0
 11 10  1  1
 11 12  1  0
 13 11  1  0
 14 13  1  1
 15 14  1  0
 15  7  1  0
 16 14  1  0
 16 17  2  0
 19 21  1  0
 19 18  1  6
 20 19  1  0
 22 21  1  1
 22 23  1  0
 22 24  1  0
 23 16  1  0
 24 25  2  0
 24 26  1  0
M  END
$$$$
