ELL.pdb
     RDKit          3D

 26 25  0  0  1  0  0  0  0  0999 V2000
   26.5282  -21.1369  -13.3608 N   0  0  0  0  0  0  0  0  0  0  0  0
   26.5996  -20.4968  -12.0626 C   0  0  1  0  0  0  0  0  0  0  0  0
   25.1852  -20.4133  -11.5453 C   0  0  0  0  0  0  0  0  0  0  0  0
   24.2693  -20.2736  -12.7616 C   0  0  0  0  0  0  0  0  0  0  0  0
   22.8978  -20.0922  -12.2748 C   0  0  0  0  0  0  0  0  0  0  0  0
   22.4751  -18.9721  -11.9268 O   0  0  0  0  0  0  0  0  0  0  0  0
   27.3990  -21.3456  -11.1371 C   0  0  0  0  0  0  0  0  0  0  0  0
   27.0709  -22.5503  -10.9871 O   0  0  0  0  0  0  0  0  0  0  0  0
   22.0580  -21.1936  -12.2025 O   0  0  0  0  0  0  0  0  0  0  0  0
   32.8230  -21.1953  -10.7329 C   0  0  0  0  0  0  0  0  0  0  0  0
   31.3982  -21.8254  -10.8348 C   0  0  1  0  0  0  0  0  0  0  0  0
   31.6547  -23.3202  -10.8675 C   0  0  0  0  0  0  0  0  0  0  0  0
   30.6364  -21.4144   -9.6469 C   0  0  0  0  0  0  0  0  0  0  0  0
   29.1984  -21.7760   -9.4832 C   0  0  2  0  0  0  0  0  0  0  0  0
   28.5078  -20.8574  -10.4247 N   0  0  0  0  0  0  0  0  0  0  0  0
   28.6033  -21.6546   -8.1472 C   0  0  0  0  0  0  0  0  0  0  0  0
   28.8782  -22.3707   -7.1656 O   0  0  0  0  0  0  0  0  0  0  0  0
   28.9896  -17.9559   -4.7978 C   0  0  0  0  0  0  0  0  0  0  0  0
   28.8067  -19.3579   -5.4224 C   0  0  1  0  0  0  0  0  0  0  0  0
   29.3617  -20.3189   -4.3995 C   0  0  0  0  0  0  0  0  0  0  0  0
   27.3748  -19.4890   -5.7208 C   0  0  0  0  0  0  0  0  0  0  0  0
   26.9187  -20.5932   -6.6220 C   0  0  2  0  0  0  0  0  0  0  0  0
   27.6104  -20.6516   -7.8573 N   0  0  0  0  0  0  0  0  0  0  0  0
   25.4645  -20.7257   -6.7161 C   0  0  0  0  0  0  0  0  0  0  0  0
   24.9087  -20.7407   -7.8203 O   0  0  0  0  0  0  0  0  0  0  0  0
   24.6954  -20.8347   -5.5928 O   0  0  0  0  0  0  0  0  0  0  0  0
  2  1  1  6
  2  3  1  0
  2  7  1  0
  4  5  1  0
  4  3  1  0
  5  6  2  0
  7  8  2  0
  9  5  1  0
 11 10  1  1
 11 12  1  0
 13 11  1  0
 14 13  1  1
 15 14  1  0
 15  7  1  0
 16 14  1  0
 16 17  2  0
 19 21  1  0
 19 18  1  1
 20 19  1  0
 22 21  1  6
 22 23  1  0
 22 24  1  0
 23 16  1  0
 24 25  2  0
 24 26  1  0
M  END
$$$$
