ELL.pdb
     RDKit          3D

 26 25  0  0  1  0  0  0  0  0999 V2000
   28.1782  -21.0212  -15.8106 N   0  0  0  0  0  0  0  0  0  0  0  0
   27.5608  -20.0166  -14.9680 C   0  0  1  0  0  0  0  0  0  0  0  0
   27.1537  -18.8836  -15.8765 C   0  0  0  0  0  0  0  0  0  0  0  0
   26.2758  -19.4823  -16.9759 C   0  0  0  0  0  0  0  0  0  0  0  0
   25.8839  -18.3968  -17.8810 C   0  0  0  0  0  0  0  0  0  0  0  0
   26.3806  -17.2576  -17.7821 O   0  0  0  0  0  0  0  0  0  0  0  0
   26.3396  -20.5860  -14.3352 C   0  0  0  0  0  0  0  0  0  0  0  0
   25.7820  -21.5735  -14.8790 O   0  0  0  0  0  0  0  0  0  0  0  0
   24.9406  -18.6493  -18.8660 O   0  0  0  0  0  0  0  0  0  0  0  0
   25.9082  -20.5357   -8.8682 C   0  0  0  0  0  0  0  0  0  0  0  0
   26.0348  -20.9904  -10.3563 C   0  0  1  0  0  0  0  0  0  0  0  0
   26.1180  -22.5031  -10.2766 C   0  0  0  0  0  0  0  0  0  0  0  0
   24.8354  -20.5330  -11.0722 C   0  0  0  0  0  0  0  0  0  0  0  0
   24.6516  -20.7991  -12.5285 C   0  0  2  0  0  0  0  0  0  0  0  0
   25.7839  -20.0675  -13.1530 N   0  0  0  0  0  0  0  0  0  0  0  0
   23.3899  -20.3843  -13.1527 C   0  0  0  0  0  0  0  0  0  0  0  0
   23.0217  -19.2068  -13.3257 O   0  0  0  0  0  0  0  0  0  0  0  0
   21.5565  -22.2138  -17.7264 C   0  0  0  0  0  0  0  0  0  0  0  0
   21.8584  -21.2089  -16.5913 C   0  0  1  0  0  0  0  0  0  0  0  0
   21.7503  -19.8473  -17.2333 C   0  0  0  0  0  0  0  0  0  0  0  0
   20.8932  -21.4971  -15.5227 C   0  0  0  0  0  0  0  0  0  0  0  0
   21.1657  -20.9895  -14.1415 C   0  0  2  0  0  0  0  0  0  0  0  0
   22.4382  -21.3527  -13.6348 N   0  0  0  0  0  0  0  0  0  0  0  0
   20.0513  -21.1652  -13.2096 C   0  0  0  0  0  0  0  0  0  0  0  0
   18.9376  -20.6973  -13.4722 O   0  0  0  0  0  0  0  0  0  0  0  0
   20.2175  -21.8455  -12.0371 O   0  0  0  0  0  0  0  0  0  0  0  0
  2  1  1  6
  2  3  1  0
  2  7  1  0
  4  5  1  0
  4  3  1  0
  5  6  2  0
  7  8  2  0
  9  5  1  0
 11 10  1  1
 11 12  1  0
 13 11  1  0
 14 13  1  1
 15 14  1  0
 15  7  1  0
 16 14  1  0
 16 17  2  0
 19 21  1  0
 19 18  1  6
 20 19  1  0
 22 21  1  6
 22 23  1  0
 22 24  1  0
 23 16  1  0
 24 25  2  0
 24 26  1  0
M  END
$$$$
