ELL.pdb
     RDKit          3D

 26 25  0  0  1  0  0  0  0  0999 V2000
   20.0172  -10.8234  -19.2651 N   0  0  0  0  0  0  0  0  0  0  0  0
   20.4553  -10.5992  -17.9020 C   0  0  1  0  0  0  0  0  0  0  0  0
   21.7101   -9.7663  -17.9845 C   0  0  0  0  0  0  0  0  0  0  0  0
   22.8101  -10.6658  -18.5491 C   0  0  0  0  0  0  0  0  0  0  0  0
   24.0206   -9.8528  -18.7067 C   0  0  0  0  0  0  0  0  0  0  0  0
   24.0265   -8.6367  -18.4319 O   0  0  0  0  0  0  0  0  0  0  0  0
   19.4145   -9.8265  -17.1700 C   0  0  0  0  0  0  0  0  0  0  0  0
   18.7807   -8.9324  -17.7868 O   0  0  0  0  0  0  0  0  0  0  0  0
   25.1803  -10.4553  -19.1713 O   0  0  0  0  0  0  0  0  0  0  0  0
   15.6882  -11.9798  -13.9297 C   0  0  0  0  0  0  0  0  0  0  0  0
   16.3510  -11.1036  -15.0389 C   0  0  1  0  0  0  0  0  0  0  0  0
   15.1829  -10.3995  -15.7032 C   0  0  0  0  0  0  0  0  0  0  0  0
   17.2710  -10.1637  -14.3829 C   0  0  0  0  0  0  0  0  0  0  0  0
   18.0842   -9.1942  -15.1727 C   0  0  2  0  0  0  0  0  0  0  0  0
   19.1084  -10.0558  -15.8176 N   0  0  0  0  0  0  0  0  0  0  0  0
   18.7421   -8.0971  -14.4535 C   0  0  0  0  0  0  0  0  0  0  0  0
   19.7652   -8.2043  -13.7507 O   0  0  0  0  0  0  0  0  0  0  0  0
   21.8819   -4.8314  -12.8538 C   0  0  0  0  0  0  0  0  0  0  0  0
   21.3486   -4.5986  -14.2859 C   0  0  1  0  0  0  0  0  0  0  0  0
   22.5804   -4.5007  -15.1525 C   0  0  0  0  0  0  0  0  0  0  0  0
   20.4449   -5.7199  -14.5731 C   0  0  0  0  0  0  0  0  0  0  0  0
   19.0100   -5.6206  -14.1598 C   0  0  2  0  0  0  0  0  0  0  0  0
   18.2304   -6.7513  -14.5087 N   0  0  0  0  0  0  0  0  0  0  0  0
   18.3929   -4.3259  -14.4494 C   0  0  0  0  0  0  0  0  0  0  0  0
   17.4923   -4.2374  -15.2917 O   0  0  0  0  0  0  0  0  0  0  0  0
   18.7967   -3.1947  -13.7992 O   0  0  0  0  0  0  0  0  0  0  0  0
  2  1  1  6
  2  3  1  0
  2  7  1  0
  4  5  1  0
  4  3  1  0
  5  6  2  0
  7  8  2  0
  9  5  1  0
 11 10  1  1
 11 12  1  0
 13 11  1  0
 14 13  1  1
 15 14  1  0
 15  7  1  0
 16 14  1  0
 16 17  2  0
 19 21  1  0
 19 18  1  1
 20 19  1  0
 22 21  1  6
 22 23  1  0
 22 24  1  0
 23 16  1  0
 24 25  2  0
 24 26  1  0
M  END
$$$$
