ELL.pdb
     RDKit          3D

 26 25  0  0  1  0  0  0  0  0999 V2000
   26.7894  -22.9547  -16.1638 N   0  0  0  0  0  0  0  0  0  0  0  0
   26.8005  -21.7726  -15.3254 C   0  0  1  0  0  0  0  0  0  0  0  0
   26.7496  -20.5854  -16.2543 C   0  0  0  0  0  0  0  0  0  0  0  0
   25.5811  -20.8150  -17.2134 C   0  0  0  0  0  0  0  0  0  0  0  0
   25.5176  -19.6707  -18.1287 C   0  0  0  0  0  0  0  0  0  0  0  0
   26.3799  -19.4972  -19.0123 O   0  0  0  0  0  0  0  0  0  0  0  0
   25.5829  -21.7636  -14.4690 C   0  0  0  0  0  0  0  0  0  0  0  0
   24.6187  -22.5079  -14.7821 O   0  0  0  0  0  0  0  0  0  0  0  0
   24.4737  -18.7661  -18.0039 O   0  0  0  0  0  0  0  0  0  0  0  0
   27.0877  -20.7496  -11.2702 C   0  0  0  0  0  0  0  0  0  0  0  0
   25.8222  -21.3144  -10.5513 C   0  0  1  0  0  0  0  0  0  0  0  0
   26.0095  -20.9136   -9.1002 C   0  0  0  0  0  0  0  0  0  0  0  0
   24.6399  -20.6855  -11.1573 C   0  0  0  0  0  0  0  0  0  0  0  0
   24.2034  -21.0259  -12.5425 C   0  0  2  0  0  0  0  0  0  0  0  0
   25.4660  -20.9590  -13.3226 N   0  0  0  0  0  0  0  0  0  0  0  0
   23.1858  -20.1779  -13.1742 C   0  0  0  0  0  0  0  0  0  0  0  0
   23.4150  -19.1736  -13.8748 O   0  0  0  0  0  0  0  0  0  0  0  0
   21.1323  -19.1090  -17.3501 C   0  0  0  0  0  0  0  0  0  0  0  0
   20.3731  -20.1834  -16.5384 C   0  0  1  0  0  0  0  0  0  0  0  0
   20.0898  -21.2918  -17.5227 C   0  0  0  0  0  0  0  0  0  0  0  0
   21.2426  -20.5314  -15.4072 C   0  0  0  0  0  0  0  0  0  0  0  0
   20.8262  -20.1408  -14.0239 C   0  0  2  0  0  0  0  0  0  0  0  0
   21.7800  -20.4562  -13.0245 N   0  0  0  0  0  0  0  0  0  0  0  0
   19.4431  -20.4877  -13.6958 C   0  0  0  0  0  0  0  0  0  0  0  0
   18.5105  -20.0533  -14.3814 O   0  0  0  0  0  0  0  0  0  0  0  0
   19.1551  -21.2935  -12.6314 O   0  0  0  0  0  0  0  0  0  0  0  0
  2  1  1  6
  2  3  1  0
  2  7  1  0
  4  5  1  0
  4  3  1  0
  5  6  2  0
  7  8  2  0
  9  5  1  0
 11 10  1  6
 11 12  1  0
 13 11  1  0
 14 13  1  1
 15 14  1  0
 15  7  1  0
 16 14  1  0
 16 17  2  0
 19 21  1  0
 19 18  1  6
 20 19  1  0
 22 21  1  6
 22 23  1  0
 22 24  1  0
 23 16  1  0
 24 25  2  0
 24 26  1  0
M  END
$$$$
