ETI.pdb
     RDKit          3D

 25 24  0  0  1  0  0  0  0  0999 V2000
   12.6981  -17.5485   19.5585 N   0  0  0  0  0  0  0  0  0  0  0  0
   12.2604  -17.7082   20.9074 C   0  0  1  0  0  0  0  0  0  0  0  0
   13.4568  -17.4616   21.7902 C   0  0  0  0  0  0  0  0  0  0  0  0
   14.4194  -16.4533   21.2549 C   0  0  0  0  0  0  0  0  0  0  0  0
   15.5572  -16.2983   22.1785 C   0  0  0  0  0  0  0  0  0  0  0  0
   16.5908  -17.0258   21.9869 O   0  0  0  0  0  0  0  0  0  0  0  0
   11.2025  -16.7601   21.3187 C   0  0  0  0  0  0  0  0  0  0  0  0
   10.6629  -16.0681   20.4177 O   0  0  0  0  0  0  0  0  0  0  0  0
   15.5570  -15.4054   23.2353 O   0  0  0  0  0  0  0  0  0  0  0  0
    8.2730  -17.0926   21.0629 C   0  0  0  0  0  0  0  0  0  0  0  0
    8.3651  -17.0079   22.5739 C   0  0  1  0  0  0  0  0  0  0  0  0
    8.5599  -18.2994   23.1070 O   0  0  0  0  0  0  0  0  0  0  0  0
    9.4714  -16.0764   23.0165 C   0  0  2  0  0  0  0  0  0  0  0  0
   10.7759  -16.5981   22.6596 N   0  0  0  0  0  0  0  0  0  0  0  0
    9.3615  -15.9425   24.5117 C   0  0  0  0  0  0  0  0  0  0  0  0
   10.1725  -16.6286   25.1683 O   0  0  0  0  0  0  0  0  0  0  0  0
    5.3243  -12.5571   26.8332 C   0  0  0  0  0  0  0  0  0  0  0  0
    6.1494  -13.8055   26.5161 C   0  0  0  0  0  0  0  0  0  0  0  0
    7.6046  -13.5552   26.7819 C   0  0  2  0  0  0  0  0  0  0  0  0
    8.0609  -12.2825   26.1026 C   0  0  0  0  0  0  0  0  0  0  0  0
    8.4338  -14.7460   26.4928 C   0  0  2  0  0  0  0  0  0  0  0  0
    8.4157  -15.1070   25.1136 N   0  0  0  0  0  0  0  0  0  0  0  0
    8.3030  -15.8868   27.4211 C   0  0  0  0  0  0  0  0  0  0  0  0
    8.7005  -15.8163   28.7698 O   0  0  0  0  0  0  0  0  0  0  0  0
    7.8263  -17.0132   27.0990 O   0  0  0  0  0  0  0  0  0  0  0  0
  2  1  1  6
  2  7  1  0
  3  2  1  0
  4  3  1  0
  5  4  1  0
  5  6  2  0
  7  8  2  0
  9  5  1  0
 11 10  1  6
 12 11  1  0
 13 11  1  0
 14  7  1  0
 13 14  1  1
 15 13  1  0
 15 22  1  0
 16 15  2  0
 18 19  1  0
 18 17  1  0
 19 20  1  6
 21 23  1  0
 21 22  1  6
 21 19  1  0
 23 24  1  0
 25 23  2  0
M  END
$$$$
