ETI.pdb
     RDKit          3D

 25 24  0  0  1  0  0  0  0  0999 V2000
   10.8599  -16.3320   18.8979 N   0  0  0  0  0  0  0  0  0  0  0  0
    9.8643  -15.3160   18.7830 C   0  0  1  0  0  0  0  0  0  0  0  0
    9.0874  -15.6019   17.5235 C   0  0  0  0  0  0  0  0  0  0  0  0
    8.7283  -17.0389   17.3346 C   0  0  0  0  0  0  0  0  0  0  0  0
    7.9293  -17.2048   16.1074 C   0  0  0  0  0  0  0  0  0  0  0  0
    7.2806  -18.2958   15.9549 O   0  0  0  0  0  0  0  0  0  0  0  0
    8.8983  -15.2831   19.9023 C   0  0  0  0  0  0  0  0  0  0  0  0
    7.9315  -14.4839   19.8095 O   0  0  0  0  0  0  0  0  0  0  0  0
    7.8493  -16.2381   15.1209 O   0  0  0  0  0  0  0  0  0  0  0  0
    6.7741  -18.1210   21.3969 C   0  0  0  0  0  0  0  0  0  0  0  0
    7.6006  -17.4844   22.4970 C   0  0  1  0  0  0  0  0  0  0  0  0
    8.7197  -18.2968   22.7754 O   0  0  0  0  0  0  0  0  0  0  0  0
    8.0372  -16.0834   22.1305 C   0  0  2  0  0  0  0  0  0  0  0  0
    9.0100  -16.0973   21.0559 N   0  0  0  0  0  0  0  0  0  0  0  0
    8.6433  -15.4744   23.3663 C   0  0  0  0  0  0  0  0  0  0  0  0
    9.8860  -15.3526   23.3449 O   0  0  0  0  0  0  0  0  0  0  0  0
    5.7086  -12.2857   27.2150 C   0  0  0  0  0  0  0  0  0  0  0  0
    6.3021  -13.5342   26.5601 C   0  0  0  0  0  0  0  0  0  0  0  0
    7.6735  -13.2452   26.0246 C   0  0  2  0  0  0  0  0  0  0  0  0
    7.6144  -12.1830   24.9487 C   0  0  0  0  0  0  0  0  0  0  0  0
    8.3898  -14.4812   25.6393 C   0  0  2  0  0  0  0  0  0  0  0  0
    7.8625  -15.0762   24.4557 N   0  0  0  0  0  0  0  0  0  0  0  0
    8.6864  -15.4410   26.7215 C   0  0  0  0  0  0  0  0  0  0  0  0
    8.3159  -16.7975   26.6545 O   0  0  0  0  0  0  0  0  0  0  0  0
    9.2939  -15.1411   27.7896 O   0  0  0  0  0  0  0  0  0  0  0  0
  2  1  1  1
  2  7  1  0
  3  2  1  0
  4  3  1  0
  5  4  1  0
  5  6  2  0
  7  8  2  0
  9  5  1  0
 11 10  1  6
 12 11  1  0
 13 11  1  0
 14  7  1  0
 13 14  1  6
 15 13  1  0
 15 22  1  0
 16 15  2  0
 18 19  1  0
 18 17  1  0
 19 20  1  6
 21 23  1  0
 21 22  1  6
 21 19  1  0
 23 24  1  0
 25 23  2  0
M  END
$$$$
