ETI.pdb
     RDKit          3D

 25 24  0  0  1  0  0  0  0  0999 V2000
   11.5367  -17.8139   18.8151 N   0  0  0  0  0  0  0  0  0  0  0  0
   11.2183  -17.8482   20.2058 C   0  0  1  0  0  0  0  0  0  0  0  0
   12.5252  -17.8939   20.9553 C   0  0  0  0  0  0  0  0  0  0  0  0
   13.4823  -18.9279   20.4610 C   0  0  0  0  0  0  0  0  0  0  0  0
   14.6588  -18.9942   21.3461 C   0  0  0  0  0  0  0  0  0  0  0  0
   14.6620  -19.8696   22.2778 O   0  0  0  0  0  0  0  0  0  0  0  0
   10.4719  -16.6657   20.6872 C   0  0  0  0  0  0  0  0  0  0  0  0
   10.7669  -15.5509   20.1850 O   0  0  0  0  0  0  0  0  0  0  0  0
   15.7530  -18.1580   21.2132 O   0  0  0  0  0  0  0  0  0  0  0  0
    6.7857  -16.0278   20.4029 C   0  0  0  0  0  0  0  0  0  0  0  0
    7.1643  -15.8948   21.8650 C   0  0  1  0  0  0  0  0  0  0  0  0
    6.8169  -17.0775   22.5508 O   0  0  0  0  0  0  0  0  0  0  0  0
    8.6360  -15.5917   22.0373 C   0  0  2  0  0  0  0  0  0  0  0  0
    9.4562  -16.7298   21.6723 N   0  0  0  0  0  0  0  0  0  0  0  0
    8.8472  -15.2483   23.4875 C   0  0  0  0  0  0  0  0  0  0  0  0
    9.7454  -15.8979   24.0627 O   0  0  0  0  0  0  0  0  0  0  0  0
    7.3105  -10.8666   27.5057 C   0  0  0  0  0  0  0  0  0  0  0  0
    7.7206  -12.3272   27.3095 C   0  0  0  0  0  0  0  0  0  0  0  0
    7.4060  -12.7783   25.9136 C   0  0  2  0  0  0  0  0  0  0  0  0
    5.9115  -12.9119   25.7190 C   0  0  0  0  0  0  0  0  0  0  0  0
    8.1925  -13.9702   25.5258 C   0  0  2  0  0  0  0  0  0  0  0  0
    8.0872  -14.2701   24.1359 N   0  0  0  0  0  0  0  0  0  0  0  0
    8.0922  -15.1479   26.4108 C   0  0  0  0  0  0  0  0  0  0  0  0
    7.4351  -16.3319   26.0258 O   0  0  0  0  0  0  0  0  0  0  0  0
    8.5821  -15.2044   27.5755 O   0  0  0  0  0  0  0  0  0  0  0  0
  2  1  1  6
  2  7  1  0
  3  2  1  0
  4  3  1  0
  5  4  1  0
  5  6  2  0
  7  8  2  0
  9  5  1  0
 11 10  1  6
 12 11  1  0
 13 11  1  0
 14  7  1  0
 13 14  1  1
 15 13  1  0
 15 22  1  0
 16 15  2  0
 18 19  1  0
 18 17  1  0
 19 20  1  1
 21 23  1  0
 21 22  1  6
 21 19  1  0
 23 24  1  0
 25 23  2  0
M  END
$$$$
