ETI.pdb
     RDKit          3D

 25 24  0  0  1  0  0  0  0  0999 V2000
   10.9548  -15.4900   17.5750 N   0  0  0  0  0  0  0  0  0  0  0  0
   11.0418  -15.8316   18.9579 C   0  0  1  0  0  0  0  0  0  0  0  0
   12.2462  -15.1154   19.5131 C   0  0  0  0  0  0  0  0  0  0  0  0
   13.4172  -15.0720   18.5876 C   0  0  0  0  0  0  0  0  0  0  0  0
   14.4996  -14.2639   19.1769 C   0  0  0  0  0  0  0  0  0  0  0  0
   15.0062  -13.3285   18.4680 O   0  0  0  0  0  0  0  0  0  0  0  0
    9.8705  -15.4177   19.7605 C   0  0  0  0  0  0  0  0  0  0  0  0
    9.0864  -14.5774   19.2496 O   0  0  0  0  0  0  0  0  0  0  0  0
   14.9870  -14.4702   20.4553 O   0  0  0  0  0  0  0  0  0  0  0  0
    6.9333  -16.9545   20.2940 C   0  0  0  0  0  0  0  0  0  0  0  0
    7.3709  -16.6891   21.7212 C   0  0  1  0  0  0  0  0  0  0  0  0
    7.8833  -17.8763   22.2851 O   0  0  0  0  0  0  0  0  0  0  0  0
    8.3949  -15.5785   21.7959 C   0  0  2  0  0  0  0  0  0  0  0  0
    9.5955  -15.9162   21.0574 N   0  0  0  0  0  0  0  0  0  0  0  0
    8.7236  -15.3809   23.2515 C   0  0  0  0  0  0  0  0  0  0  0  0
    9.8362  -15.8204   23.6099 O   0  0  0  0  0  0  0  0  0  0  0  0
    7.3528  -10.9960   27.2337 C   0  0  0  0  0  0  0  0  0  0  0  0
    8.0172  -12.3542   27.0018 C   0  0  0  0  0  0  0  0  0  0  0  0
    7.4732  -13.0005   25.7619 C   0  0  2  0  0  0  0  0  0  0  0  0
    5.9736  -13.1748   25.8638 C   0  0  0  0  0  0  0  0  0  0  0  0
    8.2188  -14.2272   25.4034 C   0  0  2  0  0  0  0  0  0  0  0  0
    7.8400  -14.7491   24.1318 N   0  0  0  0  0  0  0  0  0  0  0  0
    8.3639  -15.2481   26.4603 C   0  0  0  0  0  0  0  0  0  0  0  0
    7.8985  -16.5680   26.3087 O   0  0  0  0  0  0  0  0  0  0  0  0
    8.9139  -15.0377   27.5797 O   0  0  0  0  0  0  0  0  0  0  0  0
  2  1  1  6
  2  7  1  0
  3  2  1  0
  4  3  1  0
  5  4  1  0
  5  6  2  0
  7  8  2  0
  9  5  1  0
 11 10  1  6
 12 11  1  0
 13 11  1  0
 14  7  1  0
 13 14  1  6
 15 13  1  0
 15 22  1  0
 16 15  2  0
 18 19  1  0
 18 17  1  0
 19 20  1  1
 21 23  1  0
 21 22  1  6
 21 19  1  0
 23 24  1  0
 25 23  2  0
M  END
$$$$
