ETI.pdb
     RDKit          3D

 25 24  0  0  1  0  0  0  0  0999 V2000
    9.1486  -17.5603   18.5166 N   0  0  0  0  0  0  0  0  0  0  0  0
    9.5333  -17.9307   19.8400 C   0  0  1  0  0  0  0  0  0  0  0  0
   10.9356  -17.4196   20.0497 C   0  0  0  0  0  0  0  0  0  0  0  0
   12.0066  -18.3987   19.6976 C   0  0  0  0  0  0  0  0  0  0  0  0
   13.3230  -17.8806   20.1108 C   0  0  0  0  0  0  0  0  0  0  0  0
   13.7429  -18.1714   21.2827 O   0  0  0  0  0  0  0  0  0  0  0  0
    8.6856  -17.3500   20.9037 C   0  0  0  0  0  0  0  0  0  0  0  0
    7.9584  -16.3715   20.5949 O   0  0  0  0  0  0  0  0  0  0  0  0
   14.1195  -17.1004   19.2917 O   0  0  0  0  0  0  0  0  0  0  0  0
    6.0702  -18.0560   24.9985 C   0  0  0  0  0  0  0  0  0  0  0  0
    7.0455  -18.5319   23.9397 C   0  0  1  0  0  0  0  0  0  0  0  0
    6.3740  -19.3663   23.0217 O   0  0  0  0  0  0  0  0  0  0  0  0
    7.7045  -17.3739   23.2239 C   0  0  2  0  0  0  0  0  0  0  0  0
    8.6557  -17.8374   22.2332 N   0  0  0  0  0  0  0  0  0  0  0  0
    8.4093  -16.5537   24.2709 C   0  0  0  0  0  0  0  0  0  0  0  0
    9.6047  -16.8567   24.4684 O   0  0  0  0  0  0  0  0  0  0  0  0
    5.7916  -11.9732   25.9757 C   0  0  0  0  0  0  0  0  0  0  0  0
    6.8504  -12.9307   25.4260 C   0  0  0  0  0  0  0  0  0  0  0  0
    7.4813  -13.7123   26.5404 C   0  0  2  0  0  0  0  0  0  0  0  0
    8.1303  -12.7841   27.5438 C   0  0  0  0  0  0  0  0  0  0  0  0
    8.3582  -14.7911   26.0336 C   0  0  2  0  0  0  0  0  0  0  0  0
    7.7637  -15.5276   24.9674 N   0  0  0  0  0  0  0  0  0  0  0  0
    9.0350  -15.6264   27.0457 C   0  0  0  0  0  0  0  0  0  0  0  0
    8.4560  -16.7960   27.5738 O   0  0  0  0  0  0  0  0  0  0  0  0
   10.1798  -15.3767   27.5219 O   0  0  0  0  0  0  0  0  0  0  0  0
  2  1  1  6
  2  7  1  0
  3  2  1  0
  4  3  1  0
  5  4  1  0
  5  6  2  0
  7  8  2  0
  9  5  1  0
 11 10  1  1
 12 11  1  0
 13 11  1  0
 14  7  1  0
 13 14  1  6
 15 13  1  0
 15 22  1  0
 16 15  2  0
 18 19  1  0
 18 17  1  0
 19 20  1  1
 21 23  1  0
 21 22  1  6
 21 19  1  0
 23 24  1  0
 25 23  2  0
M  END
$$$$
