ETI.pdb
     RDKit          3D

 25 24  0  0  1  0  0  0  0  0999 V2000
   10.7426  -15.8968   17.5753 N   0  0  0  0  0  0  0  0  0  0  0  0
   10.9039  -15.9206   18.9931 C   0  0  1  0  0  0  0  0  0  0  0  0
   12.0888  -15.0467   19.3157 C   0  0  0  0  0  0  0  0  0  0  0  0
   13.2935  -15.3073   18.4728 C   0  0  0  0  0  0  0  0  0  0  0  0
   14.4265  -14.4896   18.9412 C   0  0  0  0  0  0  0  0  0  0  0  0
   14.5658  -13.3174   18.4502 O   0  0  0  0  0  0  0  0  0  0  0  0
    9.7451  -15.3923   19.7450 C   0  0  0  0  0  0  0  0  0  0  0  0
    8.9659  -14.6147   19.1366 O   0  0  0  0  0  0  0  0  0  0  0  0
   15.3387  -14.9304   19.8833 O   0  0  0  0  0  0  0  0  0  0  0  0
    6.7038  -16.5915   20.3351 C   0  0  0  0  0  0  0  0  0  0  0  0
    7.2060  -16.3567   21.7463 C   0  0  1  0  0  0  0  0  0  0  0  0
    7.6904  -17.5687   22.2815 O   0  0  0  0  0  0  0  0  0  0  0  0
    8.2769  -15.2895   21.7896 C   0  0  2  0  0  0  0  0  0  0  0  0
    9.4768  -15.7165   21.0974 N   0  0  0  0  0  0  0  0  0  0  0  0
    8.5830  -15.0326   23.2408 C   0  0  0  0  0  0  0  0  0  0  0  0
    9.6492  -15.5327   23.6562 O   0  0  0  0  0  0  0  0  0  0  0  0
    7.3023  -10.9227   27.3729 C   0  0  0  0  0  0  0  0  0  0  0  0
    7.5189  -12.4352   27.2988 C   0  0  0  0  0  0  0  0  0  0  0  0
    7.0621  -12.9670   25.9723 C   0  0  2  0  0  0  0  0  0  0  0  0
    5.6252  -13.4347   26.0500 C   0  0  0  0  0  0  0  0  0  0  0  0
    8.0094  -13.9585   25.4166 C   0  0  2  0  0  0  0  0  0  0  0  0
    7.7285  -14.2859   24.0577 N   0  0  0  0  0  0  0  0  0  0  0  0
    8.3278  -15.1218   26.2685 C   0  0  0  0  0  0  0  0  0  0  0  0
    9.3482  -15.0950   27.2380 O   0  0  0  0  0  0  0  0  0  0  0  0
    7.7219  -16.2306   26.2113 O   0  0  0  0  0  0  0  0  0  0  0  0
  2  1  1  6
  2  7  1  0
  3  2  1  0
  4  3  1  0
  5  4  1  0
  5  6  2  0
  7  8  2  0
  9  5  1  0
 11 10  1  6
 12 11  1  0
 13 11  1  0
 14  7  1  0
 13 14  1  6
 15 13  1  0
 15 22  1  0
 16 15  2  0
 18 19  1  0
 18 17  1  0
 19 20  1  1
 21 23  1  0
 21 22  1  6
 21 19  1  0
 23 24  1  0
 25 23  2  0
M  END
$$$$
