ETI.pdb
     RDKit          3D

 25 24  0  0  1  0  0  0  0  0999 V2000
   12.1900  -17.2127   19.4021 N   0  0  0  0  0  0  0  0  0  0  0  0
   11.4486  -17.4083   20.6057 C   0  0  1  0  0  0  0  0  0  0  0  0
   12.4507  -17.5242   21.7256 C   0  0  0  0  0  0  0  0  0  0  0  0
   13.7224  -16.7768   21.4934 C   0  0  0  0  0  0  0  0  0  0  0  0
   14.6168  -16.9248   22.6553 C   0  0  0  0  0  0  0  0  0  0  0  0
   14.9048  -15.8777   23.3298 O   0  0  0  0  0  0  0  0  0  0  0  0
   10.5334  -16.2965   20.9426 C   0  0  0  0  0  0  0  0  0  0  0  0
   10.6652  -15.2232   20.3003 O   0  0  0  0  0  0  0  0  0  0  0  0
   15.1533  -18.1385   23.0468 O   0  0  0  0  0  0  0  0  0  0  0  0
    6.9456  -15.7689   20.4639 C   0  0  0  0  0  0  0  0  0  0  0  0
    7.1958  -15.6529   21.9547 C   0  0  1  0  0  0  0  0  0  0  0  0
    6.8467  -16.8649   22.5865 O   0  0  0  0  0  0  0  0  0  0  0  0
    8.6331  -15.2902   22.2551 C   0  0  2  0  0  0  0  0  0  0  0  0
    9.5310  -16.3834   21.9395 N   0  0  0  0  0  0  0  0  0  0  0  0
    8.7077  -14.9696   23.7239 C   0  0  0  0  0  0  0  0  0  0  0  0
    9.4883  -15.6854   24.3856 O   0  0  0  0  0  0  0  0  0  0  0  0
    8.2217  -10.9576   27.4618 C   0  0  0  0  0  0  0  0  0  0  0  0
    7.1784  -12.0760   27.4370 C   0  0  0  0  0  0  0  0  0  0  0  0
    6.9756  -12.5743   26.0365 C   0  0  2  0  0  0  0  0  0  0  0  0
    5.5163  -12.8860   25.7861 C   0  0  0  0  0  0  0  0  0  0  0  0
    7.9122  -13.6681   25.6962 C   0  0  2  0  0  0  0  0  0  0  0  0
    7.9533  -13.9416   24.2975 N   0  0  0  0  0  0  0  0  0  0  0  0
    7.8643  -14.8721   26.5496 C   0  0  0  0  0  0  0  0  0  0  0  0
    7.1342  -16.0229   26.1969 O   0  0  0  0  0  0  0  0  0  0  0  0
    8.4673  -14.9825   27.6559 O   0  0  0  0  0  0  0  0  0  0  0  0
  2  1  1  6
  2  7  1  0
  3  2  1  0
  4  3  1  0
  5  4  1  0
  5  6  2  0
  7  8  2  0
  9  5  1  0
 11 10  1  6
 12 11  1  0
 13 11  1  0
 14  7  1  0
 13 14  1  1
 15 13  1  0
 15 22  1  0
 16 15  2  0
 18 19  1  0
 18 17  1  0
 19 20  1  1
 21 23  1  0
 21 22  1  6
 21 19  1  0
 23 24  1  0
 25 23  2  0
M  END
$$$$
