ETI.pdb
     RDKit          3D

 25 24  0  0  1  0  0  0  0  0999 V2000
    9.1129  -18.3108   18.2348 N   0  0  0  0  0  0  0  0  0  0  0  0
    9.6604  -18.1391   19.5415 C   0  0  1  0  0  0  0  0  0  0  0  0
   11.0038  -17.4770   19.3720 C   0  0  0  0  0  0  0  0  0  0  0  0
   12.1518  -18.4278   19.2842 C   0  0  0  0  0  0  0  0  0  0  0  0
   13.4259  -17.6873   19.3023 C   0  0  0  0  0  0  0  0  0  0  0  0
   14.1019  -17.6270   18.2190 O   0  0  0  0  0  0  0  0  0  0  0  0
    8.8507  -17.2785   20.4309 C   0  0  0  0  0  0  0  0  0  0  0  0
    8.1304  -16.4013   19.8890 O   0  0  0  0  0  0  0  0  0  0  0  0
   13.9183  -17.0575   20.4315 O   0  0  0  0  0  0  0  0  0  0  0  0
    5.9155  -18.1315   21.9750 C   0  0  0  0  0  0  0  0  0  0  0  0
    6.7926  -17.6979   23.1332 C   0  0  1  0  0  0  0  0  0  0  0  0
    7.3598  -18.8349   23.7459 O   0  0  0  0  0  0  0  0  0  0  0  0
    7.8731  -16.7373   22.6888 C   0  0  2  0  0  0  0  0  0  0  0  0
    8.8491  -17.3948   21.8425 N   0  0  0  0  0  0  0  0  0  0  0  0
    8.5384  -16.2172   23.9347 C   0  0  0  0  0  0  0  0  0  0  0  0
    9.6953  -16.6418   24.1368 O   0  0  0  0  0  0  0  0  0  0  0  0
    6.2016  -11.7406   25.9371 C   0  0  0  0  0  0  0  0  0  0  0  0
    7.2349  -12.7260   25.3882 C   0  0  0  0  0  0  0  0  0  0  0  0
    7.7662  -13.5973   26.4880 C   0  0  2  0  0  0  0  0  0  0  0  0
    8.5219  -12.7718   27.5062 C   0  0  0  0  0  0  0  0  0  0  0  0
    8.5066  -14.7650   25.9613 C   0  0  2  0  0  0  0  0  0  0  0  0
    7.8990  -15.3225   24.7981 N   0  0  0  0  0  0  0  0  0  0  0  0
    8.9581  -15.7651   26.9494 C   0  0  0  0  0  0  0  0  0  0  0  0
   10.1679  -15.6384   27.6580 O   0  0  0  0  0  0  0  0  0  0  0  0
    8.3100  -16.8088   27.2500 O   0  0  0  0  0  0  0  0  0  0  0  0
  2  1  1  6
  2  7  1  0
  3  2  1  0
  4  3  1  0
  5  4  1  0
  5  6  2  0
  7  8  2  0
  9  5  1  0
 11 10  1  6
 12 11  1  0
 13 11  1  0
 14  7  1  0
 13 14  1  6
 15 13  1  0
 15 22  1  0
 16 15  2  0
 18 19  1  0
 18 17  1  0
 19 20  1  1
 21 23  1  0
 21 22  1  6
 21 19  1  0
 23 24  1  0
 25 23  2  0
M  END
$$$$
