ETI.pdb
     RDKit          3D

 25 24  0  0  1  0  0  0  0  0999 V2000
   10.3878  -15.2607   17.5447 N   0  0  0  0  0  0  0  0  0  0  0  0
   10.6947  -15.6143   18.8928 C   0  0  1  0  0  0  0  0  0  0  0  0
   11.9156  -14.8236   19.2878 C   0  0  0  0  0  0  0  0  0  0  0  0
   13.1604  -15.6379   19.4185 C   0  0  0  0  0  0  0  0  0  0  0  0
   14.3061  -14.7657   19.7328 C   0  0  0  0  0  0  0  0  0  0  0  0
   14.5735  -13.8102   18.9268 O   0  0  0  0  0  0  0  0  0  0  0  0
    9.6255  -15.2938   19.8631 C   0  0  0  0  0  0  0  0  0  0  0  0
    8.9212  -14.2773   19.6338 O   0  0  0  0  0  0  0  0  0  0  0  0
   15.0983  -14.9330   20.8547 O   0  0  0  0  0  0  0  0  0  0  0  0
    6.1795  -16.7653   22.9598 C   0  0  0  0  0  0  0  0  0  0  0  0
    7.3439  -17.0198   22.0227 C   0  0  1  0  0  0  0  0  0  0  0  0
    6.8542  -17.3998   20.7555 O   0  0  0  0  0  0  0  0  0  0  0  0
    8.2435  -15.8096   21.9052 C   0  0  2  0  0  0  0  0  0  0  0  0
    9.3624  -16.0668   21.0204 N   0  0  0  0  0  0  0  0  0  0  0  0
    8.7431  -15.4973   23.2903 C   0  0  0  0  0  0  0  0  0  0  0  0
    9.9423  -15.7764   23.4988 O   0  0  0  0  0  0  0  0  0  0  0  0
    6.3200  -11.3914   26.0187 C   0  0  0  0  0  0  0  0  0  0  0  0
    7.3265  -12.3519   25.3828 C   0  0  0  0  0  0  0  0  0  0  0  0
    7.4826  -13.5833   26.2257 C   0  0  2  0  0  0  0  0  0  0  0  0
    7.8753  -13.2166   27.6402 C   0  0  0  0  0  0  0  0  0  0  0  0
    8.3533  -14.5903   25.5799 C   0  0  2  0  0  0  0  0  0  0  0  0
    7.9161  -14.9345   24.2672 N   0  0  0  0  0  0  0  0  0  0  0  0
    8.7597  -15.7441   26.4070 C   0  0  0  0  0  0  0  0  0  0  0  0
    8.1101  -16.9913   26.3400 O   0  0  0  0  0  0  0  0  0  0  0  0
    9.7152  -15.7222   27.2354 O   0  0  0  0  0  0  0  0  0  0  0  0
  2  1  1  6
  2  7  1  0
  3  2  1  0
  4  3  1  0
  5  4  1  0
  5  6  2  0
  7  8  2  0
  9  5  1  0
 11 10  1  1
 12 11  1  0
 13 11  1  0
 14  7  1  0
 13 14  1  6
 15 13  1  0
 15 22  1  0
 16 15  2  0
 18 19  1  0
 18 17  1  0
 19 20  1  1
 21 23  1  0
 21 22  1  6
 21 19  1  0
 23 24  1  0
 25 23  2  0
M  END
$$$$
