HDG.pdb
     RDKit          3D

 23 23  0  0  1  0  0  0  0  0999 V2000
   24.1455  -12.0360  -17.0763 N   0  0  0  0  0  0  0  0  0  0  0  0
   24.2824  -10.7487  -16.4134 C   0  0  1  0  0  0  0  0  0  0  0  0
   25.5751  -10.1422  -16.9101 C   0  0  0  0  0  0  0  0  0  0  0  0
   26.6917  -11.0513  -16.5519 C   0  0  0  0  0  0  0  0  0  0  0  0
   27.5488  -11.7396  -17.4013 C   0  0  0  0  0  0  0  0  0  0  0  0
   28.4152  -12.4546  -16.6625 N   0  0  0  0  0  0  0  0  0  0  0  0
   28.1422  -12.2487  -15.3740 C   0  0  0  0  0  0  0  0  0  0  0  0
   27.0898  -11.3899  -15.3149 N   0  0  0  0  0  0  0  0  0  0  0  0
   23.1102   -9.8822  -16.6974 C   0  0  0  0  0  0  0  0  0  0  0  0
   22.5690   -9.9589  -17.8028 O   0  0  0  0  0  0  0  0  0  0  0  0
   22.6171   -8.9951  -15.7481 N   0  0  0  0  0  0  0  0  0  0  0  0
   21.5412   -8.1026  -15.7402 C   0  0  1  0  0  0  0  0  0  0  0  0
   20.2291   -8.5125  -15.2773 C   0  0  0  0  0  0  0  0  0  0  0  0
   19.2130   -7.4648  -15.6662 C   0  0  0  0  0  0  0  0  0  0  0  0
   18.8181   -6.5749  -14.8356 O   0  0  0  0  0  0  0  0  0  0  0  0
   21.9761   -6.7624  -15.2543 C   0  0  0  0  0  0  0  0  0  0  0  0
   22.4139   -6.6518  -14.0903 O   0  0  0  0  0  0  0  0  0  0  0  0
   18.6459   -7.3957  -16.9318 O   0  0  0  0  0  0  0  0  0  0  0  0
   21.9230   -5.5708  -16.0469 N   0  0  0  0  0  0  0  0  0  0  0  0
   22.4787   -4.3129  -15.5469 C   0  0  0  0  0  0  0  0  0  0  0  0
   21.5777   -3.6907  -14.5602 C   0  0  0  0  0  0  0  0  0  0  0  0
   22.0128   -2.5019  -13.9718 O   0  0  0  0  0  0  0  0  0  0  0  0
   20.4551   -4.1441  -14.2090 O   0  0  0  0  0  0  0  0  0  0  0  0
  2  1  1  6
  2  3  1  0
  3  4  1  0
  4  5  2  0
  5  6  1  0
  7  6  1  0
  8  4  1  0
  8  7  2  0
  9  2  1  0
  9 11  1  0
 10  9  2  0
 12 11  1  0
 12 16  1  0
 12 13  1  1
 14 13  1  0
 14 18  1  0
 15 14  2  0
 16 17  2  0
 16 19  1  0
 19 20  1  0
 20 21  1  0
 21 22  1  0
 23 21  2  0
M  END
$$$$
