HDG.pdb
     RDKit          3D

 23 23  0  0  1  0  0  0  0  0999 V2000
   27.5067  -19.5625  -17.9325 N   0  0  0  0  0  0  0  0  0  0  0  0
   26.6784  -18.9340  -16.9155 C   0  0  1  0  0  0  0  0  0  0  0  0
   25.6114  -18.1535  -17.6490 C   0  0  0  0  0  0  0  0  0  0  0  0
   26.2662  -17.0687  -18.4209 C   0  0  0  0  0  0  0  0  0  0  0  0
   26.3167  -16.9013  -19.7990 C   0  0  0  0  0  0  0  0  0  0  0  0
   27.0152  -15.7870  -20.0787 N   0  0  0  0  0  0  0  0  0  0  0  0
   27.4127  -15.2381  -18.9308 C   0  0  0  0  0  0  0  0  0  0  0  0
   26.9503  -16.0257  -17.9235 N   0  0  0  0  0  0  0  0  0  0  0  0
   26.1008  -19.9529  -16.0023 C   0  0  0  0  0  0  0  0  0  0  0  0
   25.8255  -21.0669  -16.4538 O   0  0  0  0  0  0  0  0  0  0  0  0
   25.8677  -19.6755  -14.6608 N   0  0  0  0  0  0  0  0  0  0  0  0
   25.3878  -20.4416  -13.5946 C   0  0  1  0  0  0  0  0  0  0  0  0
   26.0729  -20.4615  -12.3162 C   0  0  0  0  0  0  0  0  0  0  0  0
   25.5322  -21.5958  -11.4780 C   0  0  0  0  0  0  0  0  0  0  0  0
   24.7149  -22.4539  -11.9607 O   0  0  0  0  0  0  0  0  0  0  0  0
   23.9044  -20.3338  -13.4981 C   0  0  0  0  0  0  0  0  0  0  0  0
   23.3918  -19.2232  -13.2480 O   0  0  0  0  0  0  0  0  0  0  0  0
   25.8792  -21.7830  -10.1465 O   0  0  0  0  0  0  0  0  0  0  0  0
   23.0112  -21.4393  -13.6747 N   0  0  0  0  0  0  0  0  0  0  0  0
   21.5647  -21.2301  -13.7445 C   0  0  0  0  0  0  0  0  0  0  0  0
   20.9809  -21.1103  -12.3965 C   0  0  0  0  0  0  0  0  0  0  0  0
   19.5963  -20.9492  -12.3218 O   0  0  0  0  0  0  0  0  0  0  0  0
   21.6284  -21.1413  -11.3153 O   0  0  0  0  0  0  0  0  0  0  0  0
  2  1  1  6
  2  3  1  0
  3  4  1  0
  4  5  2  0
  5  6  1  0
  7  6  1  0
  8  4  1  0
  8  7  2  0
  9  2  1  0
  9 11  1  0
 10  9  2  0
 12 11  1  0
 12 16  1  0
 12 13  1  1
 14 13  1  0
 14 18  1  0
 15 14  2  0
 16 17  2  0
 16 19  1  0
 19 20  1  0
 20 21  1  0
 21 22  1  0
 23 21  2  0
M  END
$$$$
