HDG.pdb
     RDKit          3D

 23 23  0  0  1  0  0  0  0  0999 V2000
   22.0359  -13.1572  -16.9909 N   0  0  0  0  0  0  0  0  0  0  0  0
   21.4138  -11.8835  -16.6654 C   0  0  1  0  0  0  0  0  0  0  0  0
   20.5734  -12.1162  -15.4304 C   0  0  0  0  0  0  0  0  0  0  0  0
   19.4943  -13.0770  -15.7675 C   0  0  0  0  0  0  0  0  0  0  0  0
   18.3926  -12.8815  -16.5909 C   0  0  0  0  0  0  0  0  0  0  0  0
   17.6619  -14.0099  -16.6187 N   0  0  0  0  0  0  0  0  0  0  0  0
   18.2559  -14.9172  -15.8434 C   0  0  0  0  0  0  0  0  0  0  0  0
   19.3744  -14.3405  -15.3286 N   0  0  0  0  0  0  0  0  0  0  0  0
   22.4423  -10.8330  -16.4548 C   0  0  0  0  0  0  0  0  0  0  0  0
   23.4932  -11.1367  -15.8855 O   0  0  0  0  0  0  0  0  0  0  0  0
   22.2431   -9.5265  -16.8843 N   0  0  0  0  0  0  0  0  0  0  0  0
   23.0410   -8.3790  -16.8597 C   0  0  1  0  0  0  0  0  0  0  0  0
   24.0825   -8.1675  -17.8469 C   0  0  0  0  0  0  0  0  0  0  0  0
   24.8676   -6.9285  -17.4862 C   0  0  0  0  0  0  0  0  0  0  0  0
   25.5918   -6.8785  -16.4324 O   0  0  0  0  0  0  0  0  0  0  0  0
   22.2156   -7.1734  -16.5655 C   0  0  0  0  0  0  0  0  0  0  0  0
   21.3370   -6.8258  -17.3816 O   0  0  0  0  0  0  0  0  0  0  0  0
   24.8581   -5.7762  -18.2610 O   0  0  0  0  0  0  0  0  0  0  0  0
   22.3665   -6.3713  -15.3887 N   0  0  0  0  0  0  0  0  0  0  0  0
   21.4718   -5.2424  -15.1316 C   0  0  0  0  0  0  0  0  0  0  0  0
   20.4091   -5.6143  -14.1804 C   0  0  0  0  0  0  0  0  0  0  0  0
   19.4709   -4.6292  -13.8675 O   0  0  0  0  0  0  0  0  0  0  0  0
   20.2825   -6.7423  -13.6320 O   0  0  0  0  0  0  0  0  0  0  0  0
  2  1  1  1
  2  3  1  0
  3  4  1  0
  4  5  2  0
  5  6  1  0
  7  6  1  0
  8  4  1  0
  8  7  2  0
  9  2  1  0
  9 11  1  0
 10  9  2  0
 12 11  1  0
 12 16  1  0
 12 13  1  6
 14 13  1  0
 14 18  1  0
 15 14  2  0
 16 17  2  0
 16 19  1  0
 19 20  1  0
 20 21  1  0
 21 22  1  0
 23 21  2  0
M  END
$$$$
