HDG.pdb
     RDKit          3D

 23 23  0  0  1  0  0  0  0  0999 V2000
   20.5822   -9.8989  -15.1447 N   0  0  0  0  0  0  0  0  0  0  0  0
   19.5798   -8.9144  -15.5207 C   0  0  1  0  0  0  0  0  0  0  0  0
   18.2330   -9.5351  -15.2269 C   0  0  0  0  0  0  0  0  0  0  0  0
   18.0409  -10.6964  -16.1302 C   0  0  0  0  0  0  0  0  0  0  0  0
   17.6705  -10.6947  -17.4691 C   0  0  0  0  0  0  0  0  0  0  0  0
   17.6078  -11.9644  -17.9069 N   0  0  0  0  0  0  0  0  0  0  0  0
   17.9235  -12.7757  -16.8973 C   0  0  0  0  0  0  0  0  0  0  0  0
   18.1879  -11.9939  -15.8167 N   0  0  0  0  0  0  0  0  0  0  0  0
   19.7857   -7.6434  -14.7806 C   0  0  0  0  0  0  0  0  0  0  0  0
   19.7855   -7.6675  -13.5476 O   0  0  0  0  0  0  0  0  0  0  0  0
   19.9770   -6.4390  -15.4468 N   0  0  0  0  0  0  0  0  0  0  0  0
   20.2408   -5.1367  -15.0126 C   0  0  1  0  0  0  0  0  0  0  0  0
   21.6008   -4.6693  -14.8237 C   0  0  0  0  0  0  0  0  0  0  0  0
   22.2727   -5.5057  -13.7604 C   0  0  0  0  0  0  0  0  0  0  0  0
   23.0151   -6.5030  -14.0635 O   0  0  0  0  0  0  0  0  0  0  0  0
   19.3438   -4.1640  -15.6987 C   0  0  0  0  0  0  0  0  0  0  0  0
   19.2908   -4.1632  -16.9461 O   0  0  0  0  0  0  0  0  0  0  0  0
   22.1335   -5.2544  -12.4018 O   0  0  0  0  0  0  0  0  0  0  0  0
   18.5247   -3.2118  -15.0106 N   0  0  0  0  0  0  0  0  0  0  0  0
   17.7172   -2.2432  -15.7528 C   0  0  0  0  0  0  0  0  0  0  0  0
   18.5583   -1.1692  -16.3109 C   0  0  0  0  0  0  0  0  0  0  0  0
   17.9028   -0.1572  -17.0143 O   0  0  0  0  0  0  0  0  0  0  0  0
   19.8121   -1.0938  -16.2040 O   0  0  0  0  0  0  0  0  0  0  0  0
  2  1  1  1
  2  3  1  0
  3  4  1  0
  4  5  2  0
  5  6  1  0
  7  6  1  0
  8  4  1  0
  8  7  2  0
  9  2  1  0
  9 11  1  0
 10  9  2  0
 12 11  1  0
 12 16  1  0
 12 13  1  6
 14 13  1  0
 14 18  1  0
 15 14  2  0
 16 17  2  0
 16 19  1  0
 19 20  1  0
 20 21  1  0
 21 22  1  0
 23 21  2  0
M  END
$$$$
