HDG.pdb
     RDKit          3D

 23 23  0  0  1  0  0  0  0  0999 V2000
   21.5180  -11.5134  -16.7530 N   0  0  0  0  0  0  0  0  0  0  0  0
   20.5794  -11.1851  -17.8144 C   0  0  1  0  0  0  0  0  0  0  0  0
   19.8714  -12.4704  -18.1780 C   0  0  0  0  0  0  0  0  0  0  0  0
   20.8784  -13.4401  -18.6753 C   0  0  0  0  0  0  0  0  0  0  0  0
   21.7254  -13.3179  -19.7695 C   0  0  0  0  0  0  0  0  0  0  0  0
   22.4759  -14.4291  -19.8677 N   0  0  0  0  0  0  0  0  0  0  0  0
   22.1385  -15.2557  -18.8776 C   0  0  0  0  0  0  0  0  0  0  0  0
   21.1638  -14.6440  -18.1534 N   0  0  0  0  0  0  0  0  0  0  0  0
   19.6334  -10.1285  -17.3734 C   0  0  0  0  0  0  0  0  0  0  0  0
   18.8191   -9.6838  -18.1857 O   0  0  0  0  0  0  0  0  0  0  0  0
   19.6495   -9.6372  -16.0736 N   0  0  0  0  0  0  0  0  0  0  0  0
   18.8757   -8.6878  -15.3998 C   0  0  1  0  0  0  0  0  0  0  0  0
   17.9916   -9.0722  -14.3161 C   0  0  0  0  0  0  0  0  0  0  0  0
   16.9545  -10.0389  -14.8372 C   0  0  0  0  0  0  0  0  0  0  0  0
   16.3938   -9.8696  -15.9750 O   0  0  0  0  0  0  0  0  0  0  0  0
   19.6699   -7.4536  -15.1401 C   0  0  0  0  0  0  0  0  0  0  0  0
   19.0809   -6.4239  -14.7507 O   0  0  0  0  0  0  0  0  0  0  0  0
   16.5443  -11.1606  -14.1289 O   0  0  0  0  0  0  0  0  0  0  0  0
   21.0891   -7.3676  -15.3118 N   0  0  0  0  0  0  0  0  0  0  0  0
   21.7867   -6.0909  -15.1557 C   0  0  0  0  0  0  0  0  0  0  0  0
   21.9875   -5.7674  -13.7318 C   0  0  0  0  0  0  0  0  0  0  0  0
   21.4043   -6.6297  -12.8017 O   0  0  0  0  0  0  0  0  0  0  0  0
   22.6386   -4.7816  -13.2920 O   0  0  0  0  0  0  0  0  0  0  0  0
  2  1  1  1
  2  3  1  0
  3  4  1  0
  4  5  2  0
  5  6  1  0
  7  6  1  0
  8  4  1  0
  8  7  2  0
  9  2  1  0
  9 11  1  0
 10  9  2  0
 12 11  1  0
 12 16  1  0
 12 13  1  1
 14 13  1  0
 14 18  1  0
 15 14  2  0
 16 17  2  0
 16 19  1  0
 19 20  1  0
 20 21  1  0
 21 22  1  0
 23 21  2  0
M  END
$$$$
