HDG.pdb
     RDKit          3D

 23 23  0  0  1  0  0  0  0  0999 V2000
   28.9005  -27.3293  -16.6707 N   0  0  0  0  0  0  0  0  0  0  0  0
   27.7134  -26.5885  -17.0674 C   0  0  1  0  0  0  0  0  0  0  0  0
   26.5278  -27.3383  -16.5038 C   0  0  0  0  0  0  0  0  0  0  0  0
   26.3519  -28.5930  -17.2759 C   0  0  0  0  0  0  0  0  0  0  0  0
   26.4228  -29.9030  -16.8192 C   0  0  0  0  0  0  0  0  0  0  0  0
   26.2060  -30.7379  -17.8506 N   0  0  0  0  0  0  0  0  0  0  0  0
   26.0003  -30.0095  -18.9479 C   0  0  0  0  0  0  0  0  0  0  0  0
   26.0896  -28.7012  -18.5885 N   0  0  0  0  0  0  0  0  0  0  0  0
   27.7772  -25.1883  -16.5763 C   0  0  0  0  0  0  0  0  0  0  0  0
   28.3187  -24.9636  -15.4914 O   0  0  0  0  0  0  0  0  0  0  0  0
   27.2427  -24.1370  -17.3112 N   0  0  0  0  0  0  0  0  0  0  0  0
   27.1930  -22.7549  -17.1073 C   0  0  1  0  0  0  0  0  0  0  0  0
   28.1690  -21.8708  -17.7153 C   0  0  0  0  0  0  0  0  0  0  0  0
   27.9777  -20.4719  -17.1785 C   0  0  0  0  0  0  0  0  0  0  0  0
   27.8635  -20.2465  -15.9240 O   0  0  0  0  0  0  0  0  0  0  0  0
   25.7872  -22.2651  -17.1795 C   0  0  0  0  0  0  0  0  0  0  0  0
   25.5567  -21.0526  -16.9903 O   0  0  0  0  0  0  0  0  0  0  0  0
   27.9136  -19.3514  -17.9961 O   0  0  0  0  0  0  0  0  0  0  0  0
   24.6622  -23.1075  -17.4546 N   0  0  0  0  0  0  0  0  0  0  0  0
   23.3122  -22.5499  -17.5418 C   0  0  0  0  0  0  0  0  0  0  0  0
   22.7027  -22.4260  -16.2055 C   0  0  0  0  0  0  0  0  0  0  0  0
   22.9052  -21.2212  -15.5302 O   0  0  0  0  0  0  0  0  0  0  0  0
   22.0192  -23.3151  -15.6298 O   0  0  0  0  0  0  0  0  0  0  0  0
  2  1  1  1
  2  3  1  0
  3  4  1  0
  4  5  2  0
  5  6  1  0
  7  6  1  0
  8  4  1  0
  8  7  2  0
  9  2  1  0
  9 11  1  0
 10  9  2  0
 12 11  1  0
 12 16  1  0
 12 13  1  6
 14 13  1  0
 14 18  1  0
 15 14  2  0
 16 17  2  0
 16 19  1  0
 19 20  1  0
 20 21  1  0
 21 22  1  0
 23 21  2  0
M  END
$$$$
