HDG.pdb
     RDKit          3D

 23 23  0  0  1  0  0  0  0  0999 V2000
   17.0400  -15.3834    6.6115 N   0  0  0  0  0  0  0  0  0  0  0  0
   18.0026  -16.3723    6.1525 C   0  0  1  0  0  0  0  0  0  0  0  0
   19.1434  -15.6053    5.5234 C   0  0  0  0  0  0  0  0  0  0  0  0
   18.6415  -14.9299    4.3014 C   0  0  0  0  0  0  0  0  0  0  0  0
   18.1989  -15.5070    3.1179 C   0  0  0  0  0  0  0  0  0  0  0  0
   17.8357  -14.5328    2.2654 N   0  0  0  0  0  0  0  0  0  0  0  0
   18.0309  -13.3560    2.8607 C   0  0  0  0  0  0  0  0  0  0  0  0
   18.5216  -13.6071    4.1036 N   0  0  0  0  0  0  0  0  0  0  0  0
   18.4554  -17.2292    7.2778 C   0  0  0  0  0  0  0  0  0  0  0  0
   18.4750  -16.7539    8.4156 O   0  0  0  0  0  0  0  0  0  0  0  0
   18.8532  -18.5449    7.0731 N   0  0  0  0  0  0  0  0  0  0  0  0
   19.3242  -19.5461    7.9274 C   0  0  1  0  0  0  0  0  0  0  0  0
   19.1834  -20.9494    7.5888 C   0  0  0  0  0  0  0  0  0  0  0  0
   17.8543  -21.1667    6.9046 C   0  0  0  0  0  0  0  0  0  0  0  0
   16.8464  -20.4166    7.1473 O   0  0  0  0  0  0  0  0  0  0  0  0
   20.6567  -19.1762    8.4833 C   0  0  0  0  0  0  0  0  0  0  0  0
   21.5744  -18.8584    7.6987 O   0  0  0  0  0  0  0  0  0  0  0  0
   17.6377  -22.1794    5.9796 O   0  0  0  0  0  0  0  0  0  0  0  0
   20.9611  -19.1620    9.8827 N   0  0  0  0  0  0  0  0  0  0  0  0
   22.3228  -18.9019   10.3507 C   0  0  0  0  0  0  0  0  0  0  0  0
   22.6122  -17.4567   10.3622 C   0  0  0  0  0  0  0  0  0  0  0  0
   23.8642  -17.0689   10.8427 O   0  0  0  0  0  0  0  0  0  0  0  0
   21.8246  -16.5515    9.9758 O   0  0  0  0  0  0  0  0  0  0  0  0
  2  1  1  1
  2  3  1  0
  3  4  1  0
  4  5  2  0
  5  6  1  0
  7  6  1  0
  8  4  1  0
  8  7  2  0
  9  2  1  0
  9 11  1  0
 10  9  2  0
 12 11  1  0
 12 16  1  0
 12 13  1  6
 14 13  1  0
 14 18  1  0
 15 14  2  0
 16 17  2  0
 16 19  1  0
 19 20  1  0
 20 21  1  0
 21 22  1  0
 23 21  2  0
M  END
$$$$
