HDG.pdb
     RDKit          3D

 23 23  0  0  1  0  0  0  0  0999 V2000
   25.0279  -10.9587  -15.6516 N   0  0  0  0  0  0  0  0  0  0  0  0
   25.2205   -9.9247  -16.6561 C   0  0  1  0  0  0  0  0  0  0  0  0
   25.8103  -10.6060  -17.8700 C   0  0  0  0  0  0  0  0  0  0  0  0
   27.0407  -11.3249  -17.4571 C   0  0  0  0  0  0  0  0  0  0  0  0
   28.1171  -10.8404  -16.7246 C   0  0  0  0  0  0  0  0  0  0  0  0
   29.0231  -11.8228  -16.5770 N   0  0  0  0  0  0  0  0  0  0  0  0
   28.5653  -12.9152  -17.1885 C   0  0  0  0  0  0  0  0  0  0  0  0
   27.3541  -12.6035  -17.7220 N   0  0  0  0  0  0  0  0  0  0  0  0
   23.9376   -9.2424  -16.9631 C   0  0  0  0  0  0  0  0  0  0  0  0
   23.9199   -8.3796  -17.8440 O   0  0  0  0  0  0  0  0  0  0  0  0
   22.7679   -9.5567  -16.2819 N   0  0  0  0  0  0  0  0  0  0  0  0
   21.4424   -9.1315  -16.4097 C   0  0  1  0  0  0  0  0  0  0  0  0
   20.3466  -10.0817  -16.4172 C   0  0  0  0  0  0  0  0  0  0  0  0
   20.6271  -11.1588  -17.4385 C   0  0  0  0  0  0  0  0  0  0  0  0
   20.6448  -12.3973  -17.1170 O   0  0  0  0  0  0  0  0  0  0  0  0
   21.1999   -7.9165  -15.5812 C   0  0  0  0  0  0  0  0  0  0  0  0
   20.1100   -7.3169  -15.6881 O   0  0  0  0  0  0  0  0  0  0  0  0
   20.8811  -10.8840  -18.7757 O   0  0  0  0  0  0  0  0  0  0  0  0
   22.1512   -7.3799  -14.6549 N   0  0  0  0  0  0  0  0  0  0  0  0
   21.8599   -6.1574  -13.9055 C   0  0  0  0  0  0  0  0  0  0  0  0
   22.1654   -4.9588  -14.7072 C   0  0  0  0  0  0  0  0  0  0  0  0
   22.0137   -3.7232  -14.0756 O   0  0  0  0  0  0  0  0  0  0  0  0
   22.5494   -4.9622  -15.9078 O   0  0  0  0  0  0  0  0  0  0  0  0
  2  1  1  1
  2  3  1  0
  3  4  1  0
  4  5  2  0
  5  6  1  0
  7  6  1  0
  8  4  1  0
  8  7  2  0
  9  2  1  0
  9 11  1  0
 10  9  2  0
 12 11  1  0
 12 16  1  0
 12 13  1  1
 14 13  1  0
 14 18  1  0
 15 14  2  0
 16 17  2  0
 16 19  1  0
 19 20  1  0
 20 21  1  0
 21 22  1  0
 23 21  2  0
M  END
$$$$
