HDG.pdb
     RDKit          3D

 23 23  0  0  1  0  0  0  0  0999 V2000
   15.3570  -11.8004  -14.4832 N   0  0  0  0  0  0  0  0  0  0  0  0
   16.4107  -10.8250  -14.2518 C   0  0  1  0  0  0  0  0  0  0  0  0
   17.1001  -10.6103  -15.5801 C   0  0  0  0  0  0  0  0  0  0  0  0
   17.7468  -11.8819  -15.9877 C   0  0  0  0  0  0  0  0  0  0  0  0
   17.3541  -12.7681  -16.9828 C   0  0  0  0  0  0  0  0  0  0  0  0
   18.2188  -13.7971  -17.0179 N   0  0  0  0  0  0  0  0  0  0  0  0
   19.1477  -13.6006  -16.0821 C   0  0  0  0  0  0  0  0  0  0  0  0
   18.8532  -12.4288  -15.4586 N   0  0  0  0  0  0  0  0  0  0  0  0
   15.8509   -9.5651  -13.6997 C   0  0  0  0  0  0  0  0  0  0  0  0
   14.7444   -9.1856  -14.0903 O   0  0  0  0  0  0  0  0  0  0  0  0
   16.5454   -8.8136  -12.7595 N   0  0  0  0  0  0  0  0  0  0  0  0
   16.2760   -7.6036  -12.1134 C   0  0  1  0  0  0  0  0  0  0  0  0
   16.6224   -7.4036  -10.7192 C   0  0  0  0  0  0  0  0  0  0  0  0
   15.9888   -8.4929   -9.8863 C   0  0  0  0  0  0  0  0  0  0  0  0
   14.7411   -8.7629   -9.9753 O   0  0  0  0  0  0  0  0  0  0  0  0
   16.6017   -6.4518  -13.0015 C   0  0  0  0  0  0  0  0  0  0  0  0
   17.7957   -6.2253  -13.2880 O   0  0  0  0  0  0  0  0  0  0  0  0
   16.7050   -9.2645   -8.9809 O   0  0  0  0  0  0  0  0  0  0  0  0
   15.6193   -5.5703  -13.5572 N   0  0  0  0  0  0  0  0  0  0  0  0
   16.0183   -4.4183  -14.3663 C   0  0  0  0  0  0  0  0  0  0  0  0
   16.6195   -3.3650  -13.5285 C   0  0  0  0  0  0  0  0  0  0  0  0
   16.9745   -2.1767  -14.1692 O   0  0  0  0  0  0  0  0  0  0  0  0
   16.8366   -3.4527  -12.2899 O   0  0  0  0  0  0  0  0  0  0  0  0
  2  1  1  6
  2  3  1  0
  3  4  1  0
  4  5  2  0
  5  6  1  0
  7  6  1  0
  8  4  1  0
  8  7  2  0
  9  2  1  0
  9 11  1  0
 10  9  2  0
 12 11  1  0
 12 16  1  0
 12 13  1  1
 14 13  1  0
 14 18  1  0
 15 14  2  0
 16 17  2  0
 16 19  1  0
 19 20  1  0
 20 21  1  0
 21 22  1  0
 23 21  2  0
M  END
$$$$
