HDG.pdb
     RDKit          3D

 23 23  0  0  1  0  0  0  0  0999 V2000
   17.9105  -11.0134  -14.5350 N   0  0  0  0  0  0  0  0  0  0  0  0
   18.1590   -9.8707  -15.3997 C   0  0  1  0  0  0  0  0  0  0  0  0
   16.8424   -9.5366  -16.0633 C   0  0  0  0  0  0  0  0  0  0  0  0
   16.5153  -10.6118  -17.0320 C   0  0  0  0  0  0  0  0  0  0  0  0
   16.6449  -10.5943  -18.4150 C   0  0  0  0  0  0  0  0  0  0  0  0
   16.2303  -11.7746  -18.9079 N   0  0  0  0  0  0  0  0  0  0  0  0
   15.8403  -12.5435  -17.8911 C   0  0  0  0  0  0  0  0  0  0  0  0
   16.0187  -11.8270  -16.7494 N   0  0  0  0  0  0  0  0  0  0  0  0
   18.7010   -8.7283  -14.6208 C   0  0  0  0  0  0  0  0  0  0  0  0
   18.1226   -8.3871  -13.5865 O   0  0  0  0  0  0  0  0  0  0  0  0
   19.8379   -8.0437  -15.0331 N   0  0  0  0  0  0  0  0  0  0  0  0
   20.5242   -6.9361  -14.5269 C   0  0  1  0  0  0  0  0  0  0  0  0
   21.9354   -7.0122  -14.2004 C   0  0  0  0  0  0  0  0  0  0  0  0
   22.3607   -5.7308  -13.5230 C   0  0  0  0  0  0  0  0  0  0  0  0
   22.2914   -5.5907  -12.2529 O   0  0  0  0  0  0  0  0  0  0  0  0
   20.1244   -5.6964  -15.2512 C   0  0  0  0  0  0  0  0  0  0  0  0
   20.4001   -5.5866  -16.4640 O   0  0  0  0  0  0  0  0  0  0  0  0
   22.8485   -4.6337  -14.2205 O   0  0  0  0  0  0  0  0  0  0  0  0
   19.4339   -4.6018  -14.6378 N   0  0  0  0  0  0  0  0  0  0  0  0
   19.0650   -3.4184  -15.4154 C   0  0  0  0  0  0  0  0  0  0  0  0
   18.2779   -2.4742  -14.6021 C   0  0  0  0  0  0  0  0  0  0  0  0
   17.9040   -1.2763  -15.2135 O   0  0  0  0  0  0  0  0  0  0  0  0
   17.9193   -2.6621  -13.4083 O   0  0  0  0  0  0  0  0  0  0  0  0
  2  1  1  1
  2  3  1  0
  3  4  1  0
  4  5  2  0
  5  6  1  0
  7  6  1  0
  8  4  1  0
  8  7  2  0
  9  2  1  0
  9 11  1  0
 10  9  2  0
 12 11  1  0
 12 16  1  0
 12 13  1  6
 14 13  1  0
 14 18  1  0
 15 14  2  0
 16 17  2  0
 16 19  1  0
 19 20  1  0
 20 21  1  0
 21 22  1  0
 23 21  2  0
M  END
$$$$
