EGM.pdb
     RDKit          3D

 22 21  0  0  1  0  0  0  0  0999 V2000
   21.4193  -19.9638  -11.6067 N   0  0  0  0  0  0  0  0  0  0  0  0
   21.7167  -20.8770  -12.6930 C   0  0  1  0  0  0  0  0  0  0  0  0
   21.4932  -20.1129  -13.9722 C   0  0  0  0  0  0  0  0  0  0  0  0
   20.1402  -19.5325  -14.1472 C   0  0  0  0  0  0  0  0  0  0  0  0
   19.1036  -20.5693  -14.1881 C   0  0  0  0  0  0  0  0  0  0  0  0
   18.0050  -20.4608  -13.6363 O   0  0  0  0  0  0  0  0  0  0  0  0
   23.1808  -21.2257  -12.7021 C   0  0  0  0  0  0  0  0  0  0  0  0
   23.6261  -21.7922  -13.7239 O   0  0  0  0  0  0  0  0  0  0  0  0
   19.4400  -21.7349  -14.9150 O   0  0  0  0  0  0  0  0  0  0  0  0
   24.0574  -20.9496  -11.6337 N   0  0  0  0  0  0  0  0  0  0  0  0
   25.4497  -21.2173  -11.6007 C   0  0  0  0  0  0  0  0  0  0  0  0
   26.1830  -20.7536  -10.4187 C   0  0  0  0  0  0  0  0  0  0  0  0
   25.7346  -19.6790   -9.8888 O   0  0  0  0  0  0  0  0  0  0  0  0
   28.9671  -18.7250   -3.9159 C   0  0  0  0  0  0  0  0  0  0  0  0
   27.9406  -19.8002   -4.9432 S   0  0  0  0  0  0  0  0  0  0  0  0
   28.5608  -19.7202   -6.6671 C   0  0  0  0  0  0  0  0  0  0  0  0
   27.6859  -20.5536   -7.5597 C   0  0  0  0  0  0  0  0  0  0  0  0
   28.1733  -20.5392   -8.9688 C   0  0  2  0  0  0  0  0  0  0  0  0
   27.2955  -21.3518   -9.8285 N   0  0  0  0  0  0  0  0  0  0  0  0
   29.5433  -21.0296   -9.1596 C   0  0  0  0  0  0  0  0  0  0  0  0
   29.7230  -22.1209   -9.7867 O   0  0  0  0  0  0  0  0  0  0  0  0
   30.6458  -20.3166   -8.6665 O   0  0  0  0  0  0  0  0  0  0  0  0
  2  1  1  1
  2  3  1  0
  3  4  1  0
  4  5  1  0
  5  6  2  0
  7  2  1  0
  7  8  2  0
  9  5  1  0
 10  7  1  0
 11 10  1  0
 11 12  1  0
 12 19  1  0
 13 12  2  0
 14 15  1  0
 15 16  1  0
 17 16  1  0
 18 17  1  1
 19 18  1  0
 20 18  1  0
 20 22  1  0
 21 20  2  0
M  END
$$$$
