EGM.pdb
     RDKit          3D

 22 21  0  0  1  0  0  0  0  0999 V2000
   17.5436  -30.0656    3.7986 N   0  0  0  0  0  0  0  0  0  0  0  0
   17.6063  -29.1585    4.9281 C   0  0  1  0  0  0  0  0  0  0  0  0
   18.9599  -29.3512    5.5613 C   0  0  0  0  0  0  0  0  0  0  0  0
   19.1023  -30.5486    6.4239 C   0  0  0  0  0  0  0  0  0  0  0  0
   20.2738  -31.3500    6.0547 C   0  0  0  0  0  0  0  0  0  0  0  0
   21.0055  -31.0907    5.0953 O   0  0  0  0  0  0  0  0  0  0  0  0
   17.6002  -27.7292    4.4567 C   0  0  0  0  0  0  0  0  0  0  0  0
   17.1727  -27.5110    3.3021 O   0  0  0  0  0  0  0  0  0  0  0  0
   20.5278  -32.4693    6.8810 O   0  0  0  0  0  0  0  0  0  0  0  0
   18.0452  -26.6453    5.2398 N   0  0  0  0  0  0  0  0  0  0  0  0
   17.8288  -25.2702    4.9686 C   0  0  0  0  0  0  0  0  0  0  0  0
   18.4890  -24.3101    5.8587 C   0  0  0  0  0  0  0  0  0  0  0  0
   18.8452  -24.7792    6.9944 O   0  0  0  0  0  0  0  0  0  0  0  0
   22.9214  -18.9080    6.4280 C   0  0  0  0  0  0  0  0  0  0  0  0
   21.1660  -18.5062    6.5761 S   0  0  0  0  0  0  0  0  0  0  0  0
   20.2962  -19.9578    7.2826 C   0  0  0  0  0  0  0  0  0  0  0  0
   19.7953  -20.8381    6.1731 C   0  0  0  0  0  0  0  0  0  0  0  0
   19.2020  -22.0992    6.7031 C   0  0  2  0  0  0  0  0  0  0  0  0
   18.7601  -22.9676    5.5982 N   0  0  0  0  0  0  0  0  0  0  0  0
   18.0544  -21.9195    7.6001 C   0  0  0  0  0  0  0  0  0  0  0  0
   16.8895  -21.8365    7.0976 O   0  0  0  0  0  0  0  0  0  0  0  0
   18.2238  -21.8413    8.9901 O   0  0  0  0  0  0  0  0  0  0  0  0
  2  1  1  6
  2  3  1  0
  3  4  1  0
  4  5  1  0
  5  6  2  0
  7  2  1  0
  7  8  2  0
  9  5  1  0
 10  7  1  0
 11 10  1  0
 11 12  1  0
 12 19  1  0
 13 12  2  0
 14 15  1  0
 15 16  1  0
 17 16  1  0
 18 17  1  6
 19 18  1  0
 20 18  1  0
 20 22  1  0
 21 20  2  0
M  END
$$$$
