EGM.pdb
     RDKit          3D

 22 21  0  0  1  0  0  0  0  0999 V2000
   25.4349  -17.5384  -17.4979 N   0  0  0  0  0  0  0  0  0  0  0  0
   24.4267  -17.8067  -16.4909 C   0  0  1  0  0  0  0  0  0  0  0  0
   23.8738  -19.1764  -16.7883 C   0  0  0  0  0  0  0  0  0  0  0  0
   24.2928  -19.7732  -18.0791 C   0  0  0  0  0  0  0  0  0  0  0  0
   25.7519  -19.8801  -18.1819 C   0  0  0  0  0  0  0  0  0  0  0  0
   26.4511  -20.4999  -17.3756 O   0  0  0  0  0  0  0  0  0  0  0  0
   25.0604  -17.9326  -15.1316 C   0  0  0  0  0  0  0  0  0  0  0  0
   24.2916  -18.0445  -14.1518 O   0  0  0  0  0  0  0  0  0  0  0  0
   26.3324  -19.2153  -19.2870 O   0  0  0  0  0  0  0  0  0  0  0  0
   26.4528  -17.9304  -14.9143 N   0  0  0  0  0  0  0  0  0  0  0  0
   27.1057  -18.0184  -13.6585 C   0  0  0  0  0  0  0  0  0  0  0  0
   26.6982  -19.1180  -12.7783 C   0  0  0  0  0  0  0  0  0  0  0  0
   26.9933  -20.2889  -13.2005 O   0  0  0  0  0  0  0  0  0  0  0  0
   27.6722  -19.0049   -6.7843 C   0  0  0  0  0  0  0  0  0  0  0  0
   26.7433  -20.5510   -6.6763 S   0  0  0  0  0  0  0  0  0  0  0  0
   26.2056  -21.0239   -8.3644 C   0  0  0  0  0  0  0  0  0  0  0  0
   26.4054  -19.8677   -9.3025 C   0  0  0  0  0  0  0  0  0  0  0  0
   25.9574  -20.2032  -10.6847 C   0  0  2  0  0  0  0  0  0  0  0  0
   26.0351  -19.0178  -11.5560 N   0  0  0  0  0  0  0  0  0  0  0  0
   24.5910  -20.7287  -10.7868 C   0  0  0  0  0  0  0  0  0  0  0  0
   23.6631  -19.9539  -11.1810 O   0  0  0  0  0  0  0  0  0  0  0  0
   24.2985  -22.0611  -10.4612 O   0  0  0  0  0  0  0  0  0  0  0  0
  2  1  1  6
  2  3  1  0
  3  4  1  0
  4  5  1  0
  5  6  2  0
  7  2  1  0
  7  8  2  0
  9  5  1  0
 10  7  1  0
 11 10  1  0
 11 12  1  0
 12 19  1  0
 13 12  2  0
 14 15  1  0
 15 16  1  0
 17 16  1  0
 18 17  1  1
 19 18  1  0
 20 18  1  0
 20 22  1  0
 21 20  2  0
M  END
$$$$
