EGM.pdb
     RDKit          3D

 22 21  0  0  1  0  0  0  0  0999 V2000
   26.8232  -21.5137  -15.0053 N   0  0  0  0  0  0  0  0  0  0  0  0
   27.2139  -20.1332  -15.2154 C   0  0  1  0  0  0  0  0  0  0  0  0
   26.1075  -19.4879  -16.0089 C   0  0  0  0  0  0  0  0  0  0  0  0
   25.7827  -20.1337  -17.3034 C   0  0  0  0  0  0  0  0  0  0  0  0
   24.7288  -19.4114  -18.0235 C   0  0  0  0  0  0  0  0  0  0  0  0
   24.1783  -18.3946  -17.5918 O   0  0  0  0  0  0  0  0  0  0  0  0
   27.2373  -19.3877  -13.9082 C   0  0  0  0  0  0  0  0  0  0  0  0
   27.3542  -18.1440  -13.9626 O   0  0  0  0  0  0  0  0  0  0  0  0
   24.3659  -19.9583  -19.2762 O   0  0  0  0  0  0  0  0  0  0  0  0
   27.1357  -20.0127  -12.6492 N   0  0  0  0  0  0  0  0  0  0  0  0
   26.0815  -19.8498  -11.7147 C   0  0  0  0  0  0  0  0  0  0  0  0
   26.2199  -20.5515  -10.4347 C   0  0  0  0  0  0  0  0  0  0  0  0
   26.1220  -21.8254  -10.5008 O   0  0  0  0  0  0  0  0  0  0  0  0
   28.5093  -19.8802   -3.9761 C   0  0  0  0  0  0  0  0  0  0  0  0
   28.6811  -18.8001   -5.4145 S   0  0  0  0  0  0  0  0  0  0  0  0
   28.1259  -19.7201   -6.9005 C   0  0  0  0  0  0  0  0  0  0  0  0
   26.6758  -20.0854   -6.7580 C   0  0  0  0  0  0  0  0  0  0  0  0
   26.1667  -20.7818   -7.9743 C   0  0  2  0  0  0  0  0  0  0  0  0
   26.4410  -19.9827   -9.1811 N   0  0  0  0  0  0  0  0  0  0  0  0
   24.7295  -21.0787   -7.9671 C   0  0  0  0  0  0  0  0  0  0  0  0
   24.2849  -21.9411   -7.1455 O   0  0  0  0  0  0  0  0  0  0  0  0
   23.8488  -20.4285   -8.8437 O   0  0  0  0  0  0  0  0  0  0  0  0
  2  1  1  1
  2  3  1  0
  3  4  1  0
  4  5  1  0
  5  6  2  0
  7  2  1  0
  7  8  2  0
  9  5  1  0
 10  7  1  0
 11 10  1  0
 11 12  1  0
 12 19  1  0
 13 12  2  0
 14 15  1  0
 15 16  1  0
 17 16  1  0
 18 17  1  1
 19 18  1  0
 20 18  1  0
 20 22  1  0
 21 20  2  0
M  END
$$$$
