EGM.pdb
     RDKit          3D

 22 21  0  0  1  0  0  0  0  0999 V2000
   22.3138  -20.6684  -13.5229 N   0  0  0  0  0  0  0  0  0  0  0  0
   23.2149  -21.2684  -14.4876 C   0  0  1  0  0  0  0  0  0  0  0  0
   23.2025  -20.3767  -15.7021 C   0  0  0  0  0  0  0  0  0  0  0  0
   21.9085  -20.2847  -16.4198 C   0  0  0  0  0  0  0  0  0  0  0  0
   21.0126  -19.3003  -15.8039 C   0  0  0  0  0  0  0  0  0  0  0  0
   19.9400  -19.5923  -15.2677 O   0  0  0  0  0  0  0  0  0  0  0  0
   24.6330  -21.2182  -13.9859 C   0  0  0  0  0  0  0  0  0  0  0  0
   25.4847  -21.8834  -14.6149 O   0  0  0  0  0  0  0  0  0  0  0  0
   21.4562  -17.9585  -15.8590 O   0  0  0  0  0  0  0  0  0  0  0  0
   25.0393  -20.4714  -12.8619 N   0  0  0  0  0  0  0  0  0  0  0  0
   26.3287  -20.4787  -12.2716 C   0  0  0  0  0  0  0  0  0  0  0  0
   26.4097  -20.8955  -10.8682 C   0  0  0  0  0  0  0  0  0  0  0  0
   26.0097  -22.0875  -10.6322 O   0  0  0  0  0  0  0  0  0  0  0  0
   30.0983  -19.6081   -5.4518 C   0  0  0  0  0  0  0  0  0  0  0  0
   28.3873  -19.4046   -4.9076 S   0  0  0  0  0  0  0  0  0  0  0  0
   27.3008  -20.3477   -6.0446 C   0  0  0  0  0  0  0  0  0  0  0  0
   27.4861  -19.8517   -7.4505 C   0  0  0  0  0  0  0  0  0  0  0  0
   26.7136  -20.6742   -8.4252 C   0  0  2  0  0  0  0  0  0  0  0  0
   26.8671  -20.1399   -9.7895 N   0  0  0  0  0  0  0  0  0  0  0  0
   25.2742  -20.7714   -8.1561 C   0  0  0  0  0  0  0  0  0  0  0  0
   24.4809  -19.9894   -8.7689 O   0  0  0  0  0  0  0  0  0  0  0  0
   24.7672  -21.7075   -7.2432 O   0  0  0  0  0  0  0  0  0  0  0  0
  2  1  1  1
  2  3  1  0
  3  4  1  0
  4  5  1  0
  5  6  2  0
  7  2  1  0
  7  8  2  0
  9  5  1  0
 10  7  1  0
 11 10  1  0
 11 12  1  0
 12 19  1  0
 13 12  2  0
 14 15  1  0
 15 16  1  0
 17 16  1  0
 18 17  1  1
 19 18  1  0
 20 18  1  0
 20 22  1  0
 21 20  2  0
M  END
$$$$
