EGM.pdb
     RDKit          3D

 22 21  0  0  1  0  0  0  0  0999 V2000
   17.0355  -12.3435  -16.4252 N   0  0  0  0  0  0  0  0  0  0  0  0
   16.5091  -11.6968  -17.6114 C   0  0  1  0  0  0  0  0  0  0  0  0
   15.0944  -11.2903  -17.2892 C   0  0  0  0  0  0  0  0  0  0  0  0
   14.2182  -12.3671  -16.7686 C   0  0  0  0  0  0  0  0  0  0  0  0
   14.5522  -12.7202  -15.3848 C   0  0  0  0  0  0  0  0  0  0  0  0
   14.3943  -11.9581  -14.4270 O   0  0  0  0  0  0  0  0  0  0  0  0
   17.2331  -10.4031  -17.8712 C   0  0  0  0  0  0  0  0  0  0  0  0
   16.9042   -9.7602  -18.8919 O   0  0  0  0  0  0  0  0  0  0  0  0
   15.0809  -14.0189  -15.2010 O   0  0  0  0  0  0  0  0  0  0  0  0
   18.2452   -9.8913  -17.0346 N   0  0  0  0  0  0  0  0  0  0  0  0
   18.9296   -8.6607  -17.2028 C   0  0  0  0  0  0  0  0  0  0  0  0
   19.8886   -8.2906  -16.1571 C   0  0  0  0  0  0  0  0  0  0  0  0
   19.7237   -8.8830  -15.0353 O   0  0  0  0  0  0  0  0  0  0  0  0
   24.4117  -11.6788  -14.9420 C   0  0  0  0  0  0  0  0  0  0  0  0
   24.4842   -9.8997  -14.6345 S   0  0  0  0  0  0  0  0  0  0  0  0
   23.2540   -9.0736  -15.7147 C   0  0  0  0  0  0  0  0  0  0  0  0
   23.2043   -7.6063  -15.3965 C   0  0  0  0  0  0  0  0  0  0  0  0
   21.8136   -7.1603  -15.0959 C   0  0  2  0  0  0  0  0  0  0  0  0
   20.9373   -7.3777  -16.2600 N   0  0  0  0  0  0  0  0  0  0  0  0
   21.6808   -5.7507  -14.7094 C   0  0  0  0  0  0  0  0  0  0  0  0
   21.2694   -4.9134  -15.5732 O   0  0  0  0  0  0  0  0  0  0  0  0
   21.9961   -5.3200  -13.4125 O   0  0  0  0  0  0  0  0  0  0  0  0
  2  1  1  1
  2  3  1  0
  3  4  1  0
  4  5  1  0
  5  6  2  0
  7  2  1  0
  7  8  2  0
  9  5  1  0
 10  7  1  0
 11 10  1  0
 11 12  1  0
 12 19  1  0
 13 12  2  0
 14 15  1  0
 15 16  1  0
 17 16  1  0
 18 17  1  6
 19 18  1  0
 20 18  1  0
 20 22  1  0
 21 20  2  0
M  END
$$$$
