EGM.pdb
     RDKit          3D

 22 21  0  0  1  0  0  0  0  0999 V2000
   19.5314  -24.3418  -12.4453 N   0  0  0  0  0  0  0  0  0  0  0  0
   18.5408  -24.2738  -11.3887 C   0  0  1  0  0  0  0  0  0  0  0  0
   17.1919  -24.3257  -12.0581 C   0  0  0  0  0  0  0  0  0  0  0  0
   16.8110  -23.1202  -12.8326 C   0  0  0  0  0  0  0  0  0  0  0  0
   16.4946  -21.9872  -11.9566 C   0  0  0  0  0  0  0  0  0  0  0  0
   15.8245  -22.0861  -10.9250 O   0  0  0  0  0  0  0  0  0  0  0  0
   18.5960  -25.5117  -10.5345 C   0  0  0  0  0  0  0  0  0  0  0  0
   18.8835  -26.5864  -11.1052 O   0  0  0  0  0  0  0  0  0  0  0  0
   17.0134  -20.7380  -12.3695 O   0  0  0  0  0  0  0  0  0  0  0  0
   18.3438  -25.5173   -9.1479 N   0  0  0  0  0  0  0  0  0  0  0  0
   18.4576  -26.6325   -8.2794 C   0  0  0  0  0  0  0  0  0  0  0  0
   18.1367  -26.4045   -6.8669 C   0  0  0  0  0  0  0  0  0  0  0  0
   17.9897  -25.1778   -6.5350 O   0  0  0  0  0  0  0  0  0  0  0  0
   14.7870  -28.6040   -0.1391 C   0  0  0  0  0  0  0  0  0  0  0  0
   15.5969  -29.1633   -1.6544 S   0  0  0  0  0  0  0  0  0  0  0  0
   16.3265  -27.7056   -2.4943 C   0  0  0  0  0  0  0  0  0  0  0  0
   16.8661  -28.1112   -3.8363 C   0  0  0  0  0  0  0  0  0  0  0  0
   17.4846  -26.9557   -4.5474 C   0  0  2  0  0  0  0  0  0  0  0  0
   17.9808  -27.3683   -5.8717 N   0  0  0  0  0  0  0  0  0  0  0  0
   18.6031  -26.3170   -3.8439 C   0  0  0  0  0  0  0  0  0  0  0  0
   19.7917  -26.6068   -4.1900 O   0  0  0  0  0  0  0  0  0  0  0  0
   18.3805  -25.3988   -2.8075 O   0  0  0  0  0  0  0  0  0  0  0  0
  2  1  1  6
  2  3  1  0
  3  4  1  0
  4  5  1  0
  5  6  2  0
  7  2  1  0
  7  8  2  0
  9  5  1  0
 10  7  1  0
 11 10  1  0
 11 12  1  0
 12 19  1  0
 13 12  2  0
 14 15  1  0
 15 16  1  0
 17 16  1  0
 18 17  1  1
 19 18  1  0
 20 18  1  0
 20 22  1  0
 21 20  2  0
M  END
$$$$
