EGM.pdb
     RDKit          3D

 22 21  0  0  1  0  0  0  0  0999 V2000
   15.8801  -14.0780  -16.7102 N   0  0  0  0  0  0  0  0  0  0  0  0
   17.0506  -13.6404  -17.4456 C   0  0  1  0  0  0  0  0  0  0  0  0
   16.8239  -14.0237  -18.8850 C   0  0  0  0  0  0  0  0  0  0  0  0
   16.9719  -15.4652  -19.1982 C   0  0  0  0  0  0  0  0  0  0  0  0
   18.3341  -15.9424  -18.9374 C   0  0  0  0  0  0  0  0  0  0  0  0
   19.3394  -15.4694  -19.4747 O   0  0  0  0  0  0  0  0  0  0  0  0
   17.1356  -12.1378  -17.4547 C   0  0  0  0  0  0  0  0  0  0  0  0
   16.4646  -11.5335  -18.3195 O   0  0  0  0  0  0  0  0  0  0  0  0
   18.4373  -17.0052  -18.0101 O   0  0  0  0  0  0  0  0  0  0  0  0
   17.9208  -11.3931  -16.5518 N   0  0  0  0  0  0  0  0  0  0  0  0
   18.0107   -9.9793  -16.4871 C   0  0  0  0  0  0  0  0  0  0  0  0
   18.9884   -9.4226  -15.5468 C   0  0  0  0  0  0  0  0  0  0  0  0
   18.7334   -9.6327  -14.3110 O   0  0  0  0  0  0  0  0  0  0  0  0
   26.3797  -10.8282  -14.7556 C   0  0  0  0  0  0  0  0  0  0  0  0
   24.9723  -10.5320  -15.8495 S   0  0  0  0  0  0  0  0  0  0  0  0
   23.6081   -9.8123  -14.8577 C   0  0  0  0  0  0  0  0  0  0  0  0
   22.4143   -9.5717  -15.7373 C   0  0  0  0  0  0  0  0  0  0  0  0
   21.3320   -8.8548  -15.0036 C   0  0  2  0  0  0  0  0  0  0  0  0
   20.1411   -8.7024  -15.8574 N   0  0  0  0  0  0  0  0  0  0  0  0
   21.6899   -7.5182  -14.5146 C   0  0  0  0  0  0  0  0  0  0  0  0
   21.5422   -6.5211  -15.2894 O   0  0  0  0  0  0  0  0  0  0  0  0
   22.1851   -7.3280  -13.2163 O   0  0  0  0  0  0  0  0  0  0  0  0
  2  1  1  1
  2  3  1  0
  3  4  1  0
  4  5  1  0
  5  6  2  0
  7  2  1  0
  7  8  2  0
  9  5  1  0
 10  7  1  0
 11 10  1  0
 11 12  1  0
 12 19  1  0
 13 12  2  0
 14 15  1  0
 15 16  1  0
 17 16  1  0
 18 17  1  6
 19 18  1  0
 20 18  1  0
 20 22  1  0
 21 20  2  0
M  END
$$$$
