EGM.pdb
     RDKit          3D

 22 21  0  0  1  0  0  0  0  0999 V2000
   19.3981  -14.9723  -18.5047 N   0  0  0  0  0  0  0  0  0  0  0  0
   18.8963  -13.8642  -17.7155 C   0  0  1  0  0  0  0  0  0  0  0  0
   18.8666  -14.3329  -16.2838 C   0  0  0  0  0  0  0  0  0  0  0  0
   17.6961  -15.1587  -15.9012 C   0  0  0  0  0  0  0  0  0  0  0  0
   16.4707  -14.3580  -15.8103 C   0  0  0  0  0  0  0  0  0  0  0  0
   15.6522  -14.2530  -16.7280 O   0  0  0  0  0  0  0  0  0  0  0  0
   19.8767  -12.7223  -17.7278 C   0  0  0  0  0  0  0  0  0  0  0  0
   21.0865  -13.0074  -17.5921 O   0  0  0  0  0  0  0  0  0  0  0  0
   16.2710  -13.6926  -14.5784 O   0  0  0  0  0  0  0  0  0  0  0  0
   19.5032  -11.3722  -17.8821 N   0  0  0  0  0  0  0  0  0  0  0  0
   20.3836  -10.2696  -18.0248 C   0  0  0  0  0  0  0  0  0  0  0  0
   21.0285   -9.7776  -16.8034 C   0  0  0  0  0  0  0  0  0  0  0  0
   20.7231  -10.4118  -15.7352 O   0  0  0  0  0  0  0  0  0  0  0  0
   26.7490  -11.6955  -15.4852 C   0  0  0  0  0  0  0  0  0  0  0  0
   26.2382   -9.9624  -15.4671 S   0  0  0  0  0  0  0  0  0  0  0  0
   24.4066   -9.8979  -15.4044 C   0  0  0  0  0  0  0  0  0  0  0  0
   23.9507   -8.4670  -15.3677 C   0  0  0  0  0  0  0  0  0  0  0  0
   22.4629   -8.3686  -15.3657 C   0  0  2  0  0  0  0  0  0  0  0  0
   21.9197   -8.7113  -16.6916 N   0  0  0  0  0  0  0  0  0  0  0  0
   21.9257   -7.0518  -15.0034 C   0  0  0  0  0  0  0  0  0  0  0  0
   21.4860   -6.2934  -15.9243 O   0  0  0  0  0  0  0  0  0  0  0  0
   21.8890   -6.6243  -13.6681 O   0  0  0  0  0  0  0  0  0  0  0  0
  2  1  1  6
  2  3  1  0
  3  4  1  0
  4  5  1  0
  5  6  2  0
  7  2  1  0
  7  8  2  0
  9  5  1  0
 10  7  1  0
 11 10  1  0
 11 12  1  0
 12 19  1  0
 13 12  2  0
 14 15  1  0
 15 16  1  0
 17 16  1  0
 18 17  1  6
 19 18  1  0
 20 18  1  0
 20 22  1  0
 21 20  2  0
M  END
$$$$
