NLN.pdb
     RDKit          3D

 25 24  0  0  1  0  0  0  0  0999 V2000
   28.5750  -22.5750  -17.9316 N   0  0  0  0  0  0  0  0  0  0  0  0
   28.6269  -21.9515  -16.6677 C   0  0  0  0  0  0  0  0  0  0  0  0
   29.4598  -21.0483  -16.4498 O   0  0  0  0  0  0  0  0  0  0  0  0
   27.6955  -22.3668  -15.6010 C   0  0  0  0  0  0  0  0  0  0  0  0
   26.4165  -21.5740  -15.7556 C   0  0  2  0  0  0  0  0  0  0  0  0
   26.6669  -20.1453  -15.6950 N   0  0  0  0  0  0  0  0  0  0  0  0
   25.3777  -21.9507  -14.7586 C   0  0  0  0  0  0  0  0  0  0  0  0
   24.9478  -23.1278  -14.6247 O   0  0  0  0  0  0  0  0  0  0  0  0
   25.2699  -22.4575  -10.2087 C   0  0  0  0  0  0  0  0  0  0  0  0
   25.4702  -21.1235  -10.8375 C   0  0  2  0  0  0  0  0  0  0  0  0
   25.6726  -20.1177   -9.6803 C   0  0  0  0  0  0  0  0  0  0  0  0
   24.3924  -20.5676  -11.6609 C   0  0  0  0  0  0  0  0  0  0  0  0
   23.8453  -21.2843  -12.8314 C   0  0  2  0  0  0  0  0  0  0  0  0
   24.8361  -20.9659  -13.9133 N   0  0  0  0  0  0  0  0  0  0  0  0
   22.5623  -20.8999  -13.3856 C   0  0  0  0  0  0  0  0  0  0  0  0
   22.3265  -19.6909  -13.7402 O   0  0  0  0  0  0  0  0  0  0  0  0
   20.8395  -24.1343  -16.4175 N   0  0  0  0  0  0  0  0  0  0  0  0
   20.4823  -22.7996  -16.1122 C   0  0  0  0  0  0  0  0  0  0  0  0
   20.9116  -21.8721  -16.8448 O   0  0  0  0  0  0  0  0  0  0  0  0
   19.6253  -22.4754  -14.9684 C   0  0  0  0  0  0  0  0  0  0  0  0
   20.2034  -21.3116  -14.1421 C   0  0  2  0  0  0  0  0  0  0  0  0
   21.4809  -21.7889  -13.5944 N   0  0  0  0  0  0  0  0  0  0  0  0
   19.2786  -20.8304  -13.1257 C   0  0  0  0  0  0  0  0  0  0  0  0
   18.2639  -19.9603  -13.4779 O   0  0  0  0  0  0  0  0  0  0  0  0
   19.3792  -21.1884  -11.9363 O   0  0  0  0  0  0  0  0  0  0  0  0
  2  1  1  0
  2  3  2  0
  4  2  1  0
  5  4  1  0
  5  6  1  1
  7  8  2  0
  7  5  1  0
 10  9  1  1
 10 11  1  0
 10 12  1  0
 13 12  1  1
 13 14  1  0
 14  7  1  0
 15 13  1  0
 15 16  2  0
 18 17  1  0
 18 20  1  0
 19 18  2  0
 21 22  1  0
 21 20  1  1
 22 15  1  0
 23 21  1  0
 24 23  1  0
 25 23  2  0
M  END
$$$$
