NLN.pdb
     RDKit          3D

 25 24  0  0  1  0  0  0  0  0999 V2000
   13.2944  -21.7124    1.0643 N   0  0  0  0  0  0  0  0  0  0  0  0
   14.5173  -21.5485    0.3814 C   0  0  0  0  0  0  0  0  0  0  0  0
   14.6879  -22.0840   -0.7327 O   0  0  0  0  0  0  0  0  0  0  0  0
   15.5970  -20.7429    0.9839 C   0  0  0  0  0  0  0  0  0  0  0  0
   15.0921  -20.1809    2.2943 C   0  0  2  0  0  0  0  0  0  0  0  0
   13.9865  -19.2630    2.0873 N   0  0  0  0  0  0  0  0  0  0  0  0
   16.1608  -19.5181    3.0903 C   0  0  0  0  0  0  0  0  0  0  0  0
   17.2275  -20.0984    3.4271 O   0  0  0  0  0  0  0  0  0  0  0  0
   19.3714  -16.1370    2.6776 C   0  0  0  0  0  0  0  0  0  0  0  0
   17.9222  -15.8120    2.5818 C   0  0  2  0  0  0  0  0  0  0  0  0
   17.8268  -14.2809    2.3859 C   0  0  0  0  0  0  0  0  0  0  0  0
   17.0577  -16.1193    3.7250 C   0  0  0  0  0  0  0  0  0  0  0  0
   17.0107  -17.4625    4.3387 C   0  0  2  0  0  0  0  0  0  0  0  0
   15.9976  -18.1815    3.4960 N   0  0  0  0  0  0  0  0  0  0  0  0
   16.5366  -17.6249    5.6989 C   0  0  0  0  0  0  0  0  0  0  0  0
   15.3689  -17.2278    6.0478 O   0  0  0  0  0  0  0  0  0  0  0  0
   18.0837  -21.6059    7.5819 N   0  0  0  0  0  0  0  0  0  0  0  0
   17.0792  -20.7371    8.0701 C   0  0  0  0  0  0  0  0  0  0  0  0
   15.8722  -21.0397    7.8887 O   0  0  0  0  0  0  0  0  0  0  0  0
   17.4119  -19.4995    8.7812 C   0  0  0  0  0  0  0  0  0  0  0  0
   16.7617  -18.2732    8.1145 C   0  0  2  0  0  0  0  0  0  0  0  0
   17.2824  -18.2256    6.7411 N   0  0  0  0  0  0  0  0  0  0  0  0
   16.9820  -17.0439    8.8628 C   0  0  0  0  0  0  0  0  0  0  0  0
   16.2471  -16.7960   10.0070 O   0  0  0  0  0  0  0  0  0  0  0  0
   17.8255  -16.2036    8.4949 O   0  0  0  0  0  0  0  0  0  0  0  0
  2  1  1  0
  2  3  2  0
  4  2  1  0
  5  4  1  0
  5  6  1  6
  7  8  2  0
  7  5  1  0
 10  9  1  1
 10 11  1  0
 10 12  1  0
 13 12  1  6
 13 14  1  0
 14  7  1  0
 15 13  1  0
 15 16  2  0
 18 17  1  0
 18 20  1  0
 19 18  2  0
 21 22  1  0
 21 20  1  1
 22 15  1  0
 23 21  1  0
 24 23  1  0
 25 23  2  0
M  END
$$$$
