NLN.pdb
     RDKit          3D

 25 24  0  0  1  0  0  0  0  0999 V2000
   31.5700  -25.6478  -15.4831 N   0  0  0  0  0  0  0  0  0  0  0  0
   31.0733  -25.1721  -16.7143 C   0  0  0  0  0  0  0  0  0  0  0  0
   30.9417  -25.9526  -17.6789 O   0  0  0  0  0  0  0  0  0  0  0  0
   30.7081  -23.7500  -16.8629 C   0  0  0  0  0  0  0  0  0  0  0  0
   29.2411  -23.6012  -16.5258 C   0  0  2  0  0  0  0  0  0  0  0  0
   28.4012  -24.2697  -17.5032 N   0  0  0  0  0  0  0  0  0  0  0  0
   28.8212  -22.1807  -16.3815 C   0  0  0  0  0  0  0  0  0  0  0  0
   29.3575  -21.3846  -15.5649 O   0  0  0  0  0  0  0  0  0  0  0  0
   29.4553  -17.9647  -19.7250 C   0  0  0  0  0  0  0  0  0  0  0  0
   29.4358  -19.0559  -18.7132 C   0  0  2  0  0  0  0  0  0  0  0  0
   30.6314  -19.9808  -19.0404 C   0  0  0  0  0  0  0  0  0  0  0  0
   28.2629  -19.9329  -18.6503 C   0  0  0  0  0  0  0  0  0  0  0  0
   27.5522  -20.2085  -17.3846 C   0  0  2  0  0  0  0  0  0  0  0  0
   27.7812  -21.6784  -17.1840 N   0  0  0  0  0  0  0  0  0  0  0  0
   26.1135  -20.0487  -17.3083 C   0  0  0  0  0  0  0  0  0  0  0  0
   25.5504  -18.9392  -17.6167 O   0  0  0  0  0  0  0  0  0  0  0  0
   22.4218  -19.4288  -20.6052 N   0  0  0  0  0  0  0  0  0  0  0  0
   22.6344  -20.2054  -19.4416 C   0  0  0  0  0  0  0  0  0  0  0  0
   21.6591  -20.8087  -18.9260 O   0  0  0  0  0  0  0  0  0  0  0  0
   23.9601  -20.3241  -18.8279 C   0  0  0  0  0  0  0  0  0  0  0  0
   23.9346  -21.2610  -17.6061 C   0  0  2  0  0  0  0  0  0  0  0  0
   25.2142  -21.0665  -16.9101 N   0  0  0  0  0  0  0  0  0  0  0  0
   23.6735  -22.6473  -17.9664 C   0  0  0  0  0  0  0  0  0  0  0  0
   22.4227  -23.1910  -17.7413 O   0  0  0  0  0  0  0  0  0  0  0  0
   24.5570  -23.3611  -18.4791 O   0  0  0  0  0  0  0  0  0  0  0  0
  2  1  1  0
  2  3  2  0
  4  2  1  0
  5  4  1  0
  5  6  1  6
  7  8  2  0
  7  5  1  0
 10  9  1  6
 10 11  1  0
 10 12  1  0
 13 12  1  6
 13 14  1  0
 14  7  1  0
 15 13  1  0
 15 16  2  0
 18 17  1  0
 18 20  1  0
 19 18  2  0
 21 22  1  0
 21 20  1  6
 22 15  1  0
 23 21  1  0
 24 23  1  0
 25 23  2  0
M  END
$$$$
