NLN.pdb
     RDKit          3D

 25 24  0  0  1  0  0  0  0  0999 V2000
   28.8467  -19.9181  -17.8840 N   0  0  0  0  0  0  0  0  0  0  0  0
   29.1082  -21.2318  -17.4427 C   0  0  0  0  0  0  0  0  0  0  0  0
   30.0604  -21.8762  -17.9274 O   0  0  0  0  0  0  0  0  0  0  0  0
   28.2554  -21.8458  -16.4066 C   0  0  0  0  0  0  0  0  0  0  0  0
   27.2374  -20.8187  -15.9629 C   0  0  2  0  0  0  0  0  0  0  0  0
   27.8795  -19.6209  -15.4525 N   0  0  0  0  0  0  0  0  0  0  0  0
   26.2795  -21.3505  -14.9555 C   0  0  0  0  0  0  0  0  0  0  0  0
   25.5492  -22.3560  -15.1648 O   0  0  0  0  0  0  0  0  0  0  0  0
   25.4635  -19.5931   -9.1355 C   0  0  0  0  0  0  0  0  0  0  0  0
   25.1396  -20.6663  -10.1144 C   0  0  2  0  0  0  0  0  0  0  0  0
   25.4813  -22.0081   -9.4253 C   0  0  0  0  0  0  0  0  0  0  0  0
   25.8530  -20.6861  -11.3948 C   0  0  0  0  0  0  0  0  0  0  0  0
   25.2383  -21.2122  -12.6311 C   0  0  2  0  0  0  0  0  0  0  0  0
   26.1669  -20.7206  -13.7032 N   0  0  0  0  0  0  0  0  0  0  0  0
   23.9270  -20.7529  -13.0441 C   0  0  0  0  0  0  0  0  0  0  0  0
   23.7135  -19.5220  -13.3310 O   0  0  0  0  0  0  0  0  0  0  0  0
   19.1808  -21.6425  -16.2516 N   0  0  0  0  0  0  0  0  0  0  0  0
   20.1524  -20.7838  -15.6851 C   0  0  0  0  0  0  0  0  0  0  0  0
   19.9305  -19.5464  -15.6602 O   0  0  0  0  0  0  0  0  0  0  0  0
   21.4046  -21.3018  -15.1269 C   0  0  0  0  0  0  0  0  0  0  0  0
   21.4979  -21.0409  -13.6122 C   0  0  2  0  0  0  0  0  0  0  0  0
   22.7913  -21.5870  -13.1782 N   0  0  0  0  0  0  0  0  0  0  0  0
   20.3627  -21.5813  -12.8779 C   0  0  0  0  0  0  0  0  0  0  0  0
   20.5538  -22.6199  -11.9861 O   0  0  0  0  0  0  0  0  0  0  0  0
   19.2136  -21.1250  -13.0336 O   0  0  0  0  0  0  0  0  0  0  0  0
  2  1  1  0
  2  3  2  0
  4  2  1  0
  5  4  1  0
  5  6  1  1
  7  8  2  0
  7  5  1  0
 10  9  1  1
 10 11  1  0
 10 12  1  0
 13 12  1  1
 13 14  1  0
 14  7  1  0
 15 13  1  0
 15 16  2  0
 18 17  1  0
 18 20  1  0
 19 18  2  0
 21 22  1  0
 21 20  1  6
 22 15  1  0
 23 21  1  0
 24 23  1  0
 25 23  2  0
M  END
$$$$
