NLN.pdb
     RDKit          3D

 25 24  0  0  1  0  0  0  0  0999 V2000
   10.3792  -11.1865  -13.0988 N   0  0  0  0  0  0  0  0  0  0  0  0
   11.7238  -10.7612  -13.0971 C   0  0  0  0  0  0  0  0  0  0  0  0
   12.5364  -11.2540  -13.9056 O   0  0  0  0  0  0  0  0  0  0  0  0
   12.1711   -9.7320  -12.1387 C   0  0  0  0  0  0  0  0  0  0  0  0
   13.3524   -9.0056  -12.7427 C   0  0  2  0  0  0  0  0  0  0  0  0
   14.5702   -9.7880  -12.6317 N   0  0  0  0  0  0  0  0  0  0  0  0
   13.5618   -7.6534  -12.1571 C   0  0  0  0  0  0  0  0  0  0  0  0
   12.7375   -6.7099  -12.2931 O   0  0  0  0  0  0  0  0  0  0  0  0
   13.2821   -5.7299   -8.0829 C   0  0  0  0  0  0  0  0  0  0  0  0
   14.3267   -6.7368   -8.4146 C   0  0  2  0  0  0  0  0  0  0  0  0
   15.0952   -7.0217   -7.1031 C   0  0  0  0  0  0  0  0  0  0  0  0
   15.3495   -6.3860   -9.4043 C   0  0  0  0  0  0  0  0  0  0  0  0
   15.0104   -6.0494  -10.8024 C   0  0  2  0  0  0  0  0  0  0  0  0
   14.7248   -7.3916  -11.4111 N   0  0  0  0  0  0  0  0  0  0  0  0
   16.0089   -5.4587  -11.6713 C   0  0  0  0  0  0  0  0  0  0  0  0
   16.5589   -4.3366  -11.3856 O   0  0  0  0  0  0  0  0  0  0  0  0
   19.1669   -6.1517  -16.8745 N   0  0  0  0  0  0  0  0  0  0  0  0
   19.0792   -5.7490  -15.5209 C   0  0  0  0  0  0  0  0  0  0  0  0
   19.8392   -4.8368  -15.1069 O   0  0  0  0  0  0  0  0  0  0  0  0
   18.1251   -6.3662  -14.5952 C   0  0  0  0  0  0  0  0  0  0  0  0
   17.3606   -5.3052  -13.7821 C   0  0  2  0  0  0  0  0  0  0  0  0
   16.4702   -6.0429  -12.8751 N   0  0  0  0  0  0  0  0  0  0  0  0
   16.6647   -4.3443  -14.6260 C   0  0  0  0  0  0  0  0  0  0  0  0
   17.1991   -3.0836  -14.8152 O   0  0  0  0  0  0  0  0  0  0  0  0
   15.5909   -4.6339  -15.1882 O   0  0  0  0  0  0  0  0  0  0  0  0
  2  1  1  0
  2  3  2  0
  4  2  1  0
  5  4  1  0
  5  6  1  1
  7  8  2  0
  7  5  1  0
 10  9  1  1
 10 11  1  0
 10 12  1  0
 13 12  1  1
 13 14  1  0
 14  7  1  0
 15 13  1  0
 15 16  2  0
 18 17  1  0
 18 20  1  0
 19 18  2  0
 21 22  1  0
 21 20  1  6
 22 15  1  0
 23 21  1  0
 24 23  1  0
 25 23  2  0
M  END
$$$$
