DTY.pdb
     RDKit          3D

 28 28  0  0  1  0  0  0  0  0999 V2000
   19.8470  -13.0834  -17.4199 N   0  0  0  0  0  0  0  0  0  0  0  0
   19.2720  -11.7517  -17.4518 C   0  0  1  0  0  0  0  0  0  0  0  0
   17.9870  -11.7539  -16.6607 C   0  0  0  0  0  0  0  0  0  0  0  0
   17.0326  -12.6607  -17.3536 C   0  0  0  0  0  0  0  0  0  0  0  0
   16.6247  -13.7373  -16.8058 O   0  0  0  0  0  0  0  0  0  0  0  0
   20.2689  -10.8057  -16.8909 C   0  0  0  0  0  0  0  0  0  0  0  0
   20.9918  -11.1211  -15.8919 O   0  0  0  0  0  0  0  0  0  0  0  0
   16.5406  -12.3826  -18.6240 O   0  0  0  0  0  0  0  0  0  0  0  0
   22.8205   -8.6899  -18.8967 C   0  0  0  0  0  0  0  0  0  0  0  0
   22.0462   -7.8041  -17.9509 C   0  0  1  0  0  0  0  0  0  0  0  0
   21.1252   -7.0978  -18.6843 O   0  0  0  0  0  0  0  0  0  0  0  0
   21.4444   -8.5998  -16.8063 C   0  0  2  0  0  0  0  0  0  0  0  0
   20.4826   -9.5033  -17.4209 N   0  0  0  0  0  0  0  0  0  0  0  0
   20.7756   -7.6519  -15.8738 C   0  0  0  0  0  0  0  0  0  0  0  0
   19.5886   -7.2780  -16.0656 O   0  0  0  0  0  0  0  0  0  0  0  0
   17.7237   -3.6761   -8.8322 O   0  0  0  0  0  0  0  0  0  0  0  0
   18.3840   -4.5007   -9.7561 C   0  0  0  0  0  0  0  0  0  0  0  0
   19.5634   -5.0983   -9.3714 C   0  0  0  0  0  0  0  0  0  0  0  0
   20.2220   -5.9095  -10.2660 C   0  0  0  0  0  0  0  0  0  0  0  0
   19.7469   -6.1585  -11.5588 C   0  0  0  0  0  0  0  0  0  0  0  0
   20.5027   -7.0157  -12.4930 C   0  0  0  0  0  0  0  0  0  0  0  0
   20.8135   -6.2776  -13.7469 C   0  0  2  0  0  0  0  0  0  0  0  0
   21.4480   -7.1357  -14.7373 N   0  0  0  0  0  0  0  0  0  0  0  0
   21.7167   -5.1497  -13.4751 C   0  0  0  0  0  0  0  0  0  0  0  0
   21.2163   -4.0313  -13.1633 O   0  0  0  0  0  0  0  0  0  0  0  0
   18.5631   -5.5322  -11.8845 C   0  0  0  0  0  0  0  0  0  0  0  0
   17.8761   -4.7107  -11.0082 C   0  0  0  0  0  0  0  0  0  0  0  0
   23.1010   -5.1930  -13.5258 O   0  0  0  0  0  0  0  0  0  0  0  0
  2  1  1  1
  2  3  1  0
  3  4  1  0
  4  8  1  0
  5  4  2  0
  6  2  1  0
  7  6  2  0
 10  9  1  6
 10 11  1  0
 10 12  1  0
 12 14  1  0
 12 13  1  6
 13  6  1  0
 14 15  2  0
 16 17  1  0
 17 18  2  0
 18 19  1  0
 20 19  2  0
 20 21  1  0
 22 21  1  1
 22 24  1  0
 23 22  1  0
 23 14  1  0
 24 25  2  0
 24 28  1  0
 26 20  1  0
 27 17  1  0
 27 26  2  0
M  END
$$$$
