DTY.pdb
     RDKit          3D

 28 28  0  0  1  0  0  0  0  0999 V2000
   25.3949  -26.9419  -17.0419 N   0  0  0  0  0  0  0  0  0  0  0  0
   24.3280  -26.1283  -16.4894 C   0  0  1  0  0  0  0  0  0  0  0  0
   23.6951  -26.8677  -15.3362 C   0  0  0  0  0  0  0  0  0  0  0  0
   22.4072  -27.4359  -15.8175 C   0  0  0  0  0  0  0  0  0  0  0  0
   21.4997  -26.6919  -16.3160 O   0  0  0  0  0  0  0  0  0  0  0  0
   24.9105  -24.8305  -16.0656 C   0  0  0  0  0  0  0  0  0  0  0  0
   26.1701  -24.6582  -16.0060 O   0  0  0  0  0  0  0  0  0  0  0  0
   22.1296  -28.7966  -15.7490 O   0  0  0  0  0  0  0  0  0  0  0  0
   24.4150  -19.9885  -15.7512 C   0  0  0  0  0  0  0  0  0  0  0  0
   23.9764  -21.3822  -16.1312 C   0  0  1  0  0  0  0  0  0  0  0  0
   24.0841  -21.5073  -17.4941 O   0  0  0  0  0  0  0  0  0  0  0  0
   24.7383  -22.4396  -15.3523 C   0  0  2  0  0  0  0  0  0  0  0  0
   24.1159  -23.7081  -15.7026 N   0  0  0  0  0  0  0  0  0  0  0  0
   24.5939  -22.1501  -13.8995 C   0  0  0  0  0  0  0  0  0  0  0  0
   23.5167  -22.3872  -13.2921 O   0  0  0  0  0  0  0  0  0  0  0  0
   26.3633  -19.6450   -5.6454 O   0  0  0  0  0  0  0  0  0  0  0  0
   26.4849  -19.9301   -7.0141 C   0  0  0  0  0  0  0  0  0  0  0  0
   26.4958  -18.8774   -7.9017 C   0  0  0  0  0  0  0  0  0  0  0  0
   26.6145  -19.1412   -9.2466 C   0  0  0  0  0  0  0  0  0  0  0  0
   26.7258  -20.4385   -9.7599 C   0  0  0  0  0  0  0  0  0  0  0  0
   26.8245  -20.6735  -11.2138 C   0  0  0  0  0  0  0  0  0  0  0  0
   25.5497  -21.2292  -11.7426 C   0  0  2  0  0  0  0  0  0  0  0  0
   25.6610  -21.5980  -13.1466 N   0  0  0  0  0  0  0  0  0  0  0  0
   24.4625  -20.2478  -11.6137 C   0  0  0  0  0  0  0  0  0  0  0  0
   24.3683  -19.3278  -12.4756 O   0  0  0  0  0  0  0  0  0  0  0  0
   26.7083  -21.4488   -8.8224 C   0  0  0  0  0  0  0  0  0  0  0  0
   26.5904  -21.2173   -7.4633 C   0  0  0  0  0  0  0  0  0  0  0  0
   23.5022  -20.2327  -10.6144 O   0  0  0  0  0  0  0  0  0  0  0  0
  2  1  1  1
  2  3  1  0
  3  4  1  0
  4  8  1  0
  5  4  2  0
  6  2  1  0
  7  6  2  0
 10  9  1  1
 10 11  1  0
 10 12  1  0
 12 14  1  0
 12 13  1  1
 13  6  1  0
 14 15  2  0
 16 17  1  0
 17 18  2  0
 18 19  1  0
 20 19  2  0
 20 21  1  0
 22 21  1  6
 22 24  1  0
 23 22  1  0
 23 14  1  0
 24 25  2  0
 24 28  1  0
 26 20  1  0
 27 17  1  0
 27 26  2  0
M  END
$$$$
