DTY.pdb
     RDKit          3D

 28 28  0  0  1  0  0  0  0  0999 V2000
   17.3707  -12.8411  -17.1471 N   0  0  0  0  0  0  0  0  0  0  0  0
   17.1838  -11.5762  -16.4612 C   0  0  1  0  0  0  0  0  0  0  0  0
   16.9140  -11.8459  -15.0012 C   0  0  0  0  0  0  0  0  0  0  0  0
   15.5956  -12.5284  -14.9051 C   0  0  0  0  0  0  0  0  0  0  0  0
   15.4722  -13.6514  -14.3140 O   0  0  0  0  0  0  0  0  0  0  0  0
   18.4074  -10.7595  -16.6591 C   0  0  0  0  0  0  0  0  0  0  0  0
   19.5653  -11.2879  -16.6458 O   0  0  0  0  0  0  0  0  0  0  0  0
   14.4397  -11.9810  -15.4505 O   0  0  0  0  0  0  0  0  0  0  0  0
   19.3639   -8.5411  -19.5361 C   0  0  0  0  0  0  0  0  0  0  0  0
   19.3825   -7.7249  -18.2662 C   0  0  1  0  0  0  0  0  0  0  0  0
   18.2290   -6.9819  -18.2190 O   0  0  0  0  0  0  0  0  0  0  0  0
   19.6047   -8.5978  -17.0440 C   0  0  2  0  0  0  0  0  0  0  0  0
   18.3726   -9.3540  -16.8737 N   0  0  0  0  0  0  0  0  0  0  0  0
   19.8622   -7.7141  -15.8743 C   0  0  0  0  0  0  0  0  0  0  0  0
   18.9147   -7.1733  -15.2456 O   0  0  0  0  0  0  0  0  0  0  0  0
   26.6425   -9.1405  -16.9949 O   0  0  0  0  0  0  0  0  0  0  0  0
   25.6638   -8.6163  -16.1365 C   0  0  0  0  0  0  0  0  0  0  0  0
   24.9746   -9.4875  -15.3229 C   0  0  0  0  0  0  0  0  0  0  0  0
   24.0124   -8.9884  -14.4760 C   0  0  0  0  0  0  0  0  0  0  0  0
   23.6980   -7.6267  -14.4010 C   0  0  0  0  0  0  0  0  0  0  0  0
   22.6385   -7.1412  -13.4951 C   0  0  0  0  0  0  0  0  0  0  0  0
   21.4857   -6.6124  -14.2729 C   0  0  2  0  0  0  0  0  0  0  0  0
   21.1805   -7.4487  -15.4249 N   0  0  0  0  0  0  0  0  0  0  0  0
   21.7663   -5.2530  -14.7578 C   0  0  0  0  0  0  0  0  0  0  0  0
   21.9019   -4.3220  -13.9134 O   0  0  0  0  0  0  0  0  0  0  0  0
   24.4212   -6.8059  -15.2394 C   0  0  0  0  0  0  0  0  0  0  0  0
   25.3953   -7.2759  -16.1025 C   0  0  0  0  0  0  0  0  0  0  0  0
   21.9033   -4.8814  -16.0860 O   0  0  0  0  0  0  0  0  0  0  0  0
  2  1  1  6
  2  3  1  0
  3  4  1  0
  4  8  1  0
  5  4  2  0
  6  2  1  0
  7  6  2  0
 10  9  1  6
 10 11  1  0
 10 12  1  0
 12 14  1  0
 12 13  1  1
 13  6  1  0
 14 15  2  0
 16 17  1  0
 17 18  2  0
 18 19  1  0
 20 19  2  0
 20 21  1  0
 22 21  1  6
 22 24  1  0
 23 22  1  0
 23 14  1  0
 24 25  2  0
 24 28  1  0
 26 20  1  0
 27 17  1  0
 27 26  2  0
M  END
$$$$
