DTY.pdb
     RDKit          3D

 28 28  0  0  1  0  0  0  0  0999 V2000
   19.2994  -14.9384  -16.7552 N   0  0  0  0  0  0  0  0  0  0  0  0
   18.5729  -13.6827  -16.7844 C   0  0  1  0  0  0  0  0  0  0  0  0
   17.4853  -13.7216  -15.7392 C   0  0  0  0  0  0  0  0  0  0  0  0
   16.3683  -14.5412  -16.2813 C   0  0  0  0  0  0  0  0  0  0  0  0
   16.5870  -15.6419  -16.8865 O   0  0  0  0  0  0  0  0  0  0  0  0
   19.5410  -12.5845  -16.5393 C   0  0  0  0  0  0  0  0  0  0  0  0
   20.5343  -12.7396  -15.7588 O   0  0  0  0  0  0  0  0  0  0  0  0
   15.0394  -14.1518  -16.1566 O   0  0  0  0  0  0  0  0  0  0  0  0
   21.0769  -10.2475  -19.2685 C   0  0  0  0  0  0  0  0  0  0  0  0
   20.5037   -9.4360  -18.1318 C   0  0  1  0  0  0  0  0  0  0  0  0
   19.3128   -8.8962  -18.5502 O   0  0  0  0  0  0  0  0  0  0  0  0
   20.3960  -10.2560  -16.8584 C   0  0  2  0  0  0  0  0  0  0  0  0
   19.4285  -11.3043  -17.1486 N   0  0  0  0  0  0  0  0  0  0  0  0
   19.9177   -9.3671  -15.7646 C   0  0  0  0  0  0  0  0  0  0  0  0
   18.6908   -9.2592  -15.5027 O   0  0  0  0  0  0  0  0  0  0  0  0
   19.6121   -3.7787   -9.0068 O   0  0  0  0  0  0  0  0  0  0  0  0
   20.0668   -4.7042   -9.9587 C   0  0  0  0  0  0  0  0  0  0  0  0
   20.6460   -4.2235  -11.1118 C   0  0  0  0  0  0  0  0  0  0  0  0
   21.0967   -5.1186  -12.0541 C   0  0  0  0  0  0  0  0  0  0  0  0
   20.9939   -6.5053  -11.8957 C   0  0  0  0  0  0  0  0  0  0  0  0
   21.4682   -7.4265  -12.9470 C   0  0  0  0  0  0  0  0  0  0  0  0
   20.4040   -7.6574  -13.9607 C   0  0  2  0  0  0  0  0  0  0  0  0
   20.8230   -8.6106  -14.9783 N   0  0  0  0  0  0  0  0  0  0  0  0
   20.0463   -6.3999  -14.6336 C   0  0  0  0  0  0  0  0  0  0  0  0
   18.9817   -5.8094  -14.2930 O   0  0  0  0  0  0  0  0  0  0  0  0
   20.4051   -6.9244  -10.7220 C   0  0  0  0  0  0  0  0  0  0  0  0
   19.9417   -6.0505   -9.7544 C   0  0  0  0  0  0  0  0  0  0  0  0
   20.7827   -5.7792  -15.6302 O   0  0  0  0  0  0  0  0  0  0  0  0
  2  1  1  1
  2  3  1  0
  3  4  1  0
  4  8  1  0
  5  4  2  0
  6  2  1  0
  7  6  2  0
 10  9  1  6
 10 11  1  0
 10 12  1  0
 12 14  1  0
 12 13  1  6
 13  6  1  0
 14 15  2  0
 16 17  1  0
 17 18  2  0
 18 19  1  0
 20 19  2  0
 20 21  1  0
 22 21  1  1
 22 24  1  0
 23 22  1  0
 23 14  1  0
 24 25  2  0
 24 28  1  0
 26 20  1  0
 27 17  1  0
 27 26  2  0
M  END
$$$$
