DTY.pdb
     RDKit          3D

 28 28  0  0  1  0  0  0  0  0999 V2000
   16.7800   -2.5784  -15.4340 N   0  0  0  0  0  0  0  0  0  0  0  0
   17.9213   -3.0503  -16.1956 C   0  0  1  0  0  0  0  0  0  0  0  0
   18.9229   -1.9287  -16.3228 C   0  0  0  0  0  0  0  0  0  0  0  0
   18.3175   -0.8796  -17.1865 C   0  0  0  0  0  0  0  0  0  0  0  0
   18.6857    0.3385  -17.1066 O   0  0  0  0  0  0  0  0  0  0  0  0
   18.4903   -4.2269  -15.4919 C   0  0  0  0  0  0  0  0  0  0  0  0
   18.6087   -4.2469  -14.2248 O   0  0  0  0  0  0  0  0  0  0  0  0
   17.3271   -1.1714  -18.1177 O   0  0  0  0  0  0  0  0  0  0  0  0
   16.9663   -7.2316  -15.0214 C   0  0  0  0  0  0  0  0  0  0  0  0
   18.2702   -7.6140  -15.6793 C   0  0  1  0  0  0  0  0  0  0  0  0
   18.0241   -7.8527  -17.0087 O   0  0  0  0  0  0  0  0  0  0  0  0
   19.3486   -6.5751  -15.4283 C   0  0  2  0  0  0  0  0  0  0  0  0
   18.9351   -5.3941  -16.1721 N   0  0  0  0  0  0  0  0  0  0  0  0
   20.6428   -7.1072  -15.9354 C   0  0  0  0  0  0  0  0  0  0  0  0
   20.9074   -7.1119  -17.1665 O   0  0  0  0  0  0  0  0  0  0  0  0
   28.4582  -11.1761  -16.2202 O   0  0  0  0  0  0  0  0  0  0  0  0
   27.3080  -10.5098  -15.7704 C   0  0  0  0  0  0  0  0  0  0  0  0
   26.4148  -11.2057  -14.9867 C   0  0  0  0  0  0  0  0  0  0  0  0
   25.2828  -10.5658  -14.5381 C   0  0  0  0  0  0  0  0  0  0  0  0
   24.9930   -9.2309  -14.8425 C   0  0  0  0  0  0  0  0  0  0  0  0
   23.7516   -8.5946  -14.3599 C   0  0  0  0  0  0  0  0  0  0  0  0
   22.8709   -8.2305  -15.5023 C   0  0  2  0  0  0  0  0  0  0  0  0
   21.6239   -7.6274  -15.0539 N   0  0  0  0  0  0  0  0  0  0  0  0
   22.5407   -9.4189  -16.3026 C   0  0  0  0  0  0  0  0  0  0  0  0
   21.6178  -10.1846  -15.9023 O   0  0  0  0  0  0  0  0  0  0  0  0
   25.9240   -8.5885  -15.6302 C   0  0  0  0  0  0  0  0  0  0  0  0
   27.0724   -9.2031  -16.0974 C   0  0  0  0  0  0  0  0  0  0  0  0
   23.1565   -9.7919  -17.4869 O   0  0  0  0  0  0  0  0  0  0  0  0
  2  1  1  1
  2  3  1  0
  3  4  1  0
  4  8  1  0
  5  4  2  0
  6  2  1  0
  7  6  2  0
 10  9  1  6
 10 11  1  0
 10 12  1  0
 12 14  1  0
 12 13  1  6
 13  6  1  0
 14 15  2  0
 16 17  1  0
 17 18  2  0
 18 19  1  0
 20 19  2  0
 20 21  1  0
 22 21  1  1
 22 24  1  0
 23 22  1  0
 23 14  1  0
 24 25  2  0
 24 28  1  0
 26 20  1  0
 27 17  1  0
 27 26  2  0
M  END
$$$$
