DTY.pdb
     RDKit          3D

 28 28  0  0  1  0  0  0  0  0999 V2000
   17.1789  -13.4022  -15.5576 N   0  0  0  0  0  0  0  0  0  0  0  0
   17.2631  -12.0678  -16.1214 C   0  0  1  0  0  0  0  0  0  0  0  0
   15.9145  -11.4010  -16.0051 C   0  0  0  0  0  0  0  0  0  0  0  0
   14.9532  -12.1812  -16.8300 C   0  0  0  0  0  0  0  0  0  0  0  0
   13.8038  -12.5029  -16.3816 O   0  0  0  0  0  0  0  0  0  0  0  0
   18.3169  -11.3232  -15.3876 C   0  0  0  0  0  0  0  0  0  0  0  0
   18.3284  -11.2730  -14.1159 O   0  0  0  0  0  0  0  0  0  0  0  0
   15.2566  -12.5961  -18.1219 O   0  0  0  0  0  0  0  0  0  0  0  0
   21.9945  -11.8920  -15.3965 C   0  0  0  0  0  0  0  0  0  0  0  0
   21.7240  -10.4717  -15.8312 C   0  0  1  0  0  0  0  0  0  0  0  0
   21.8073  -10.4208  -17.2006 O   0  0  0  0  0  0  0  0  0  0  0  0
   20.4089   -9.9574  -15.2734 C   0  0  2  0  0  0  0  0  0  0  0  0
   19.3693  -10.6259  -16.0426 N   0  0  0  0  0  0  0  0  0  0  0  0
   20.3598   -8.4824  -15.4666 C   0  0  0  0  0  0  0  0  0  0  0  0
   19.8858   -7.9788  -16.5189 O   0  0  0  0  0  0  0  0  0  0  0  0
   21.0338    0.2011  -14.1523 O   0  0  0  0  0  0  0  0  0  0  0  0
   21.0851   -1.1898  -13.9732 C   0  0  0  0  0  0  0  0  0  0  0  0
   19.9069   -1.8611  -13.7338 C   0  0  0  0  0  0  0  0  0  0  0  0
   19.9412   -3.2248  -13.5564 C   0  0  0  0  0  0  0  0  0  0  0  0
   21.1257   -3.9685  -13.6081 C   0  0  0  0  0  0  0  0  0  0  0  0
   21.1160   -5.4276  -13.3851 C   0  0  0  0  0  0  0  0  0  0  0  0
   20.9632   -6.1538  -14.6746 C   0  0  2  0  0  0  0  0  0  0  0  0
   20.8433   -7.5911  -14.4756 N   0  0  0  0  0  0  0  0  0  0  0  0
   22.1201   -5.9094  -15.5484 C   0  0  0  0  0  0  0  0  0  0  0  0
   23.1987   -6.5267  -15.3163 O   0  0  0  0  0  0  0  0  0  0  0  0
   22.2708   -3.2406  -13.8504 C   0  0  0  0  0  0  0  0  0  0  0  0
   22.2704   -1.8690  -14.0333 C   0  0  0  0  0  0  0  0  0  0  0  0
   22.1452   -5.0471  -16.6332 O   0  0  0  0  0  0  0  0  0  0  0  0
  2  1  1  1
  2  3  1  0
  3  4  1  0
  4  8  1  0
  5  4  2  0
  6  2  1  0
  7  6  2  0
 10  9  1  6
 10 11  1  0
 10 12  1  0
 12 14  1  0
 12 13  1  6
 13  6  1  0
 14 15  2  0
 16 17  1  0
 17 18  2  0
 18 19  1  0
 20 19  2  0
 20 21  1  0
 22 21  1  1
 22 24  1  0
 23 22  1  0
 23 14  1  0
 24 25  2  0
 24 28  1  0
 26 20  1  0
 27 17  1  0
 27 26  2  0
M  END
$$$$
