DQP.pdb
     RDKit          3D

 25 25  0  0  1  0  0  0  0  0999 V2000
   19.9763  -19.4835  -14.0836 N   0  0  0  0  0  0  0  0  0  0  0  0
   20.6672  -19.1896  -15.3228 C   0  0  1  0  0  0  0  0  0  0  0  0
   19.9252  -18.0440  -15.9782 C   0  0  0  0  0  0  0  0  0  0  0  0
   18.6585  -18.5904  -16.5281 C   0  0  0  0  0  0  0  0  0  0  0  0
   17.7805  -17.8706  -17.0199 O   0  0  0  0  0  0  0  0  0  0  0  0
   22.0804  -18.8490  -15.0529 C   0  0  0  0  0  0  0  0  0  0  0  0
   22.5232  -17.6774  -15.1071 O   0  0  0  0  0  0  0  0  0  0  0  0
   18.4341  -19.9612  -16.4973 O   0  0  0  0  0  0  0  0  0  0  0  0
   25.7735  -21.6699  -11.1538 N   0  0  0  0  0  0  0  0  0  0  0  0
   26.7963  -21.1080  -11.9493 C   0  0  0  0  0  0  0  0  0  0  0  0
   27.9827  -21.2103  -11.5877 O   0  0  0  0  0  0  0  0  0  0  0  0
   26.4690  -20.3989  -13.2087 C   0  0  0  0  0  0  0  0  0  0  0  0
   25.0021  -20.4600  -13.4346 C   0  0  0  0  0  0  0  0  0  0  0  0
   24.4449  -19.5995  -14.5067 C   0  0  2  0  0  0  0  0  0  0  0  0
   23.0483  -19.8659  -14.7053 N   0  0  0  0  0  0  0  0  0  0  0  0
   25.2668  -19.3991  -15.6873 C   0  0  0  0  0  0  0  0  0  0  0  0
   24.8736  -20.0218  -16.7472 O   0  0  0  0  0  0  0  0  0  0  0  0
   26.4162  -18.6360  -15.8257 N   0  0  0  0  0  0  0  0  0  0  0  0
   27.2620  -18.0373  -14.8280 C   0  0  0  0  0  0  0  0  0  0  0  0
   27.5427  -16.6660  -15.4029 C   0  0  0  0  0  0  0  0  0  0  0  0
   27.7375  -16.9752  -16.8719 C   0  0  0  0  0  0  0  0  0  0  0  0
   27.1353  -18.3244  -17.0900 C   0  0  1  0  0  0  0  0  0  0  0  0
   28.2065  -19.3366  -17.3051 C   0  0  0  0  0  0  0  0  0  0  0  0
   28.9544  -19.3810  -18.4705 O   0  0  0  0  0  0  0  0  0  0  0  0
   28.4792  -20.2022  -16.4281 O   0  0  0  0  0  0  0  0  0  0  0  0
  2  1  1  1
  2  3  1  0
  4  8  1  0
  4  3  1  0
  5  4  2  0
  6  2  1  0
  6 15  1  0
  7  6  2  0
  9 10  1  0
 10 11  2  0
 12 13  1  0
 12 10  1  0
 14 16  1  0
 14 13  1  6
 14 15  1  0
 16 18  1  0
 17 16  2  0
 18 22  1  0
 18 19  1  0
 19 20  1  0
 20 21  1  0
 22 21  1  0
 22 23  1  1
 24 23  1  0
 25 23  2  0
M  END
$$$$
