DQP.pdb
     RDKit          3D

 25 25  0  0  1  0  0  0  0  0999 V2000
   20.0567  -13.5210  -17.3133 N   0  0  0  0  0  0  0  0  0  0  0  0
   21.2197  -12.6774  -17.5000 C   0  0  1  0  0  0  0  0  0  0  0  0
   21.9103  -13.1543  -18.7603 C   0  0  0  0  0  0  0  0  0  0  0  0
   22.4690  -14.5014  -18.4794 C   0  0  0  0  0  0  0  0  0  0  0  0
   23.2548  -14.7157  -17.5480 O   0  0  0  0  0  0  0  0  0  0  0  0
   20.8135  -11.2591  -17.5966 C   0  0  0  0  0  0  0  0  0  0  0  0
   20.0482  -10.8269  -18.4906 O   0  0  0  0  0  0  0  0  0  0  0  0
   22.1057  -15.5742  -19.2840 O   0  0  0  0  0  0  0  0  0  0  0  0
   16.9215   -7.7291  -16.6912 N   0  0  0  0  0  0  0  0  0  0  0  0
   17.2863   -8.5428  -15.5959 C   0  0  0  0  0  0  0  0  0  0  0  0
   16.4712   -8.7366  -14.6757 O   0  0  0  0  0  0  0  0  0  0  0  0
   18.6290   -9.1666  -15.5337 C   0  0  0  0  0  0  0  0  0  0  0  0
   19.4026   -8.7781  -16.7409 C   0  0  0  0  0  0  0  0  0  0  0  0
   20.8793   -8.8961  -16.6667 C   0  0  2  0  0  0  0  0  0  0  0  0
   21.2842  -10.2734  -16.6487 N   0  0  0  0  0  0  0  0  0  0  0  0
   21.5718   -7.9790  -15.7785 C   0  0  0  0  0  0  0  0  0  0  0  0
   22.0624   -8.5092  -14.7089 O   0  0  0  0  0  0  0  0  0  0  0  0
   21.7702   -6.6143  -15.9227 N   0  0  0  0  0  0  0  0  0  0  0  0
   21.2312   -5.6918  -16.8858 C   0  0  0  0  0  0  0  0  0  0  0  0
   22.4306   -4.8428  -17.2473 C   0  0  0  0  0  0  0  0  0  0  0  0
   23.1012   -4.6581  -15.9028 C   0  0  0  0  0  0  0  0  0  0  0  0
   22.5429   -5.7228  -15.0166 C   0  0  1  0  0  0  0  0  0  0  0  0
   21.6178   -5.1244  -14.0143 C   0  0  0  0  0  0  0  0  0  0  0  0
   22.0800   -4.4757  -12.8808 O   0  0  0  0  0  0  0  0  0  0  0  0
   20.3652   -5.1840  -14.1574 O   0  0  0  0  0  0  0  0  0  0  0  0
  2  1  1  6
  2  3  1  0
  4  8  1  0
  4  3  1  0
  5  4  2  0
  6  2  1  0
  6 15  1  0
  7  6  2  0
  9 10  1  0
 10 11  2  0
 12 13  1  0
 12 10  1  0
 14 16  1  0
 14 13  1  1
 14 15  1  0
 16 18  1  0
 17 16  2  0
 18 22  1  0
 18 19  1  0
 19 20  1  0
 20 21  1  0
 22 21  1  0
 22 23  1  1
 24 23  1  0
 25 23  2  0
M  END
$$$$
