DQP.pdb
     RDKit          3D

 25 25  0  0  1  0  0  0  0  0999 V2000
   26.2940  -19.5008  -16.4190 N   0  0  0  0  0  0  0  0  0  0  0  0
   25.4132  -20.5459  -15.9382 C   0  0  1  0  0  0  0  0  0  0  0  0
   26.2739  -21.5271  -15.1709 C   0  0  0  0  0  0  0  0  0  0  0  0
   27.1603  -22.2038  -16.1519 C   0  0  0  0  0  0  0  0  0  0  0  0
   27.9183  -23.1296  -15.8368 O   0  0  0  0  0  0  0  0  0  0  0  0
   24.3471  -19.9682  -15.0921 C   0  0  0  0  0  0  0  0  0  0  0  0
   24.5687  -19.4522  -13.9712 O   0  0  0  0  0  0  0  0  0  0  0  0
   27.1508  -21.7938  -17.4793 O   0  0  0  0  0  0  0  0  0  0  0  0
   19.6177  -16.8797  -17.0869 N   0  0  0  0  0  0  0  0  0  0  0  0
   19.1466  -17.0515  -15.7666 C   0  0  0  0  0  0  0  0  0  0  0  0
   18.0930  -16.4921  -15.4122 O   0  0  0  0  0  0  0  0  0  0  0  0
   19.8952  -17.8908  -14.8017 C   0  0  0  0  0  0  0  0  0  0  0  0
   21.0913  -18.4581  -15.4756 C   0  0  0  0  0  0  0  0  0  0  0  0
   21.8879  -19.4538  -14.7178 C   0  0  2  0  0  0  0  0  0  0  0  0
   22.9647  -19.9659  -15.5173 N   0  0  0  0  0  0  0  0  0  0  0  0
   21.1541  -20.3972  -13.8926 C   0  0  0  0  0  0  0  0  0  0  0  0
   20.9070  -21.5382  -14.4431 O   0  0  0  0  0  0  0  0  0  0  0  0
   20.6803  -20.2344  -12.5997 N   0  0  0  0  0  0  0  0  0  0  0  0
   20.6599  -19.0700  -11.7554 C   0  0  0  0  0  0  0  0  0  0  0  0
   21.0820  -19.6212  -10.4107 C   0  0  0  0  0  0  0  0  0  0  0  0
   20.3437  -20.9420  -10.3670 C   0  0  0  0  0  0  0  0  0  0  0  0
   19.9591  -21.2434  -11.7783 C   0  0  1  0  0  0  0  0  0  0  0  0
   18.4918  -21.0634  -11.9608 C   0  0  0  0  0  0  0  0  0  0  0  0
   17.5714  -21.9744  -11.4685 O   0  0  0  0  0  0  0  0  0  0  0  0
   18.0229  -20.0661  -12.5760 O   0  0  0  0  0  0  0  0  0  0  0  0
  2  1  1  1
  2  3  1  0
  4  8  1  0
  4  3  1  0
  5  4  2  0
  6  2  1  0
  6 15  1  0
  7  6  2  0
  9 10  1  0
 10 11  2  0
 12 13  1  0
 12 10  1  0
 14 16  1  0
 14 13  1  6
 14 15  1  0
 16 18  1  0
 17 16  2  0
 18 22  1  0
 18 19  1  0
 19 20  1  0
 20 21  1  0
 22 21  1  0
 22 23  1  1
 24 23  1  0
 25 23  2  0
M  END
$$$$
