DQP.pdb
     RDKit          3D

 25 25  0  0  1  0  0  0  0  0999 V2000
   18.4628  -11.0449    5.9954 N   0  0  0  0  0  0  0  0  0  0  0  0
   19.3195  -12.2124    6.0408 C   0  0  1  0  0  0  0  0  0  0  0  0
   20.4484  -11.8918    6.9975 C   0  0  0  0  0  0  0  0  0  0  0  0
   21.3412  -10.9161    6.3219 C   0  0  0  0  0  0  0  0  0  0  0  0
   21.2821  -10.6893    5.1070 O   0  0  0  0  0  0  0  0  0  0  0  0
   18.5483  -13.3970    6.4746 C   0  0  0  0  0  0  0  0  0  0  0  0
   17.8811  -13.4269    7.5356 O   0  0  0  0  0  0  0  0  0  0  0  0
   22.2855  -10.2220    7.0681 O   0  0  0  0  0  0  0  0  0  0  0  0
   17.1066  -18.5367    3.1585 N   0  0  0  0  0  0  0  0  0  0  0  0
   16.3631  -17.3364    3.1949 C   0  0  0  0  0  0  0  0  0  0  0  0
   15.4822  -17.1328    2.3397 O   0  0  0  0  0  0  0  0  0  0  0  0
   16.6230  -16.3195    4.2409 C   0  0  0  0  0  0  0  0  0  0  0  0
   17.7082  -16.8042    5.1320 C   0  0  0  0  0  0  0  0  0  0  0  0
   18.1547  -15.8929    6.2139 C   0  0  2  0  0  0  0  0  0  0  0  0
   18.5198  -14.6089    5.6858 N   0  0  0  0  0  0  0  0  0  0  0  0
   19.0006  -16.4607    7.2491 C   0  0  0  0  0  0  0  0  0  0  0  0
   20.2276  -16.0603    7.2421 O   0  0  0  0  0  0  0  0  0  0  0  0
   18.6688  -17.3761    8.2363 N   0  0  0  0  0  0  0  0  0  0  0  0
   17.4512  -18.1103    8.4538 C   0  0  0  0  0  0  0  0  0  0  0  0
   17.2590  -18.0083    9.9513 C   0  0  0  0  0  0  0  0  0  0  0  0
   18.6738  -18.1795   10.4618 C   0  0  0  0  0  0  0  0  0  0  0  0
   19.5658  -17.9148    9.2936 C   0  0  1  0  0  0  0  0  0  0  0  0
   20.1768  -19.1861    8.8149 C   0  0  0  0  0  0  0  0  0  0  0  0
   21.2822  -19.7496    9.4312 O   0  0  0  0  0  0  0  0  0  0  0  0
   19.7090  -19.8072    7.8207 O   0  0  0  0  0  0  0  0  0  0  0  0
  2  1  1  1
  2  3  1  0
  4  8  1  0
  4  3  1  0
  5  4  2  0
  6  2  1  0
  6 15  1  0
  7  6  2  0
  9 10  1  0
 10 11  2  0
 12 13  1  0
 12 10  1  0
 14 16  1  0
 14 13  1  6
 14 15  1  0
 16 18  1  0
 17 16  2  0
 18 22  1  0
 18 19  1  0
 19 20  1  0
 20 21  1  0
 22 21  1  0
 22 23  1  6
 24 23  1  0
 25 23  2  0
M  END
$$$$
