DQP.pdb
     RDKit          3D

 25 25  0  0  1  0  0  0  0  0999 V2000
   21.5995  -10.8832  -16.0745 N   0  0  0  0  0  0  0  0  0  0  0  0
   21.8433   -9.7935  -15.1514 C   0  0  1  0  0  0  0  0  0  0  0  0
   22.8906   -8.9045  -15.7881 C   0  0  0  0  0  0  0  0  0  0  0  0
   24.1611   -9.6726  -15.8298 C   0  0  0  0  0  0  0  0  0  0  0  0
   24.2422  -10.8471  -15.4493 O   0  0  0  0  0  0  0  0  0  0  0  0
   20.5880   -9.0606  -14.8811 C   0  0  0  0  0  0  0  0  0  0  0  0
   19.7899   -8.7162  -15.7845 O   0  0  0  0  0  0  0  0  0  0  0  0
   25.3131   -9.0639  -16.3120 O   0  0  0  0  0  0  0  0  0  0  0  0
   16.2174   -7.0468   -9.1891 N   0  0  0  0  0  0  0  0  0  0  0  0
   17.1011   -7.8341   -9.9598 C   0  0  0  0  0  0  0  0  0  0  0  0
   17.7031   -8.7835   -9.4263 O   0  0  0  0  0  0  0  0  0  0  0  0
   17.3167   -7.5393  -11.3960 C   0  0  0  0  0  0  0  0  0  0  0  0
   18.5353   -8.2502  -11.8611 C   0  0  0  0  0  0  0  0  0  0  0  0
   19.0250   -7.9346  -13.2253 C   0  0  2  0  0  0  0  0  0  0  0  0
   20.2035   -8.6933  -13.5362 N   0  0  0  0  0  0  0  0  0  0  0  0
   18.9945   -6.5408  -13.6324 C   0  0  0  0  0  0  0  0  0  0  0  0
   20.0754   -5.8737  -13.4030 O   0  0  0  0  0  0  0  0  0  0  0  0
   17.9614   -5.8324  -14.2268 N   0  0  0  0  0  0  0  0  0  0  0  0
   16.6147   -6.2329  -14.5352 C   0  0  0  0  0  0  0  0  0  0  0  0
   16.4015   -5.6605  -15.9197 C   0  0  0  0  0  0  0  0  0  0  0  0
   17.0782   -4.3109  -15.8092 C   0  0  0  0  0  0  0  0  0  0  0  0
   17.9693   -4.3960  -14.6136 C   0  0  1  0  0  0  0  0  0  0  0  0
   17.4090   -3.5859  -13.4963 C   0  0  0  0  0  0  0  0  0  0  0  0
   17.5859   -2.2140  -13.4208 O   0  0  0  0  0  0  0  0  0  0  0  0
   16.7451   -4.1200  -12.5652 O   0  0  0  0  0  0  0  0  0  0  0  0
  2  1  1  6
  2  3  1  0
  4  8  1  0
  4  3  1  0
  5  4  2  0
  6  2  1  0
  6 15  1  0
  7  6  2  0
  9 10  1  0
 10 11  2  0
 12 13  1  0
 12 10  1  0
 14 16  1  0
 14 13  1  1
 14 15  1  0
 16 18  1  0
 17 16  2  0
 18 22  1  0
 18 19  1  0
 19 20  1  0
 20 21  1  0
 22 21  1  0
 22 23  1  1
 24 23  1  0
 25 23  2  0
M  END
$$$$
