DQP.pdb
     RDKit          3D

 25 25  0  0  1  0  0  0  0  0999 V2000
   15.4321   -7.7740   -8.6352 N   0  0  0  0  0  0  0  0  0  0  0  0
   15.8431   -7.0599   -9.8270 C   0  0  1  0  0  0  0  0  0  0  0  0
   16.3752   -5.7171   -9.3729 C   0  0  0  0  0  0  0  0  0  0  0  0
   15.2060   -4.8664   -9.0339 C   0  0  0  0  0  0  0  0  0  0  0  0
   14.2921   -4.6396   -9.8366 O   0  0  0  0  0  0  0  0  0  0  0  0
   16.8629   -7.8369  -10.5635 C   0  0  0  0  0  0  0  0  0  0  0  0
   17.8980   -8.2919  -10.0218 O   0  0  0  0  0  0  0  0  0  0  0  0
   15.1189   -4.2949   -7.7705 O   0  0  0  0  0  0  0  0  0  0  0  0
   15.6427  -11.3678  -15.3736 N   0  0  0  0  0  0  0  0  0  0  0  0
   17.0471  -11.3566  -15.5230 C   0  0  0  0  0  0  0  0  0  0  0  0
   17.5786  -12.0712  -16.3922 O   0  0  0  0  0  0  0  0  0  0  0  0
   17.8914  -10.5026  -14.6547 C   0  0  0  0  0  0  0  0  0  0  0  0
   17.0219   -9.7723  -13.6969 C   0  0  0  0  0  0  0  0  0  0  0  0
   17.6884   -8.8573  -12.7383 C   0  0  2  0  0  0  0  0  0  0  0  0
   16.7214   -8.1206  -11.9746 N   0  0  0  0  0  0  0  0  0  0  0  0
   18.8589   -8.1407  -13.2136 C   0  0  0  0  0  0  0  0  0  0  0  0
   18.6815   -6.8833  -13.4449 O   0  0  0  0  0  0  0  0  0  0  0  0
   20.1347   -8.6261  -13.4567 N   0  0  0  0  0  0  0  0  0  0  0  0
   20.6514   -9.9663  -13.3786 C   0  0  0  0  0  0  0  0  0  0  0  0
   21.9900   -9.7724  -12.6999 C   0  0  0  0  0  0  0  0  0  0  0  0
   22.4958   -8.5070  -13.3589 C   0  0  0  0  0  0  0  0  0  0  0  0
   21.2993   -7.8590  -13.9745 C   0  0  1  0  0  0  0  0  0  0  0  0
   21.3500   -7.9896  -15.4574 C   0  0  0  0  0  0  0  0  0  0  0  0
   22.0812   -7.1187  -16.2486 O   0  0  0  0  0  0  0  0  0  0  0  0
   20.7242   -8.9059  -16.0588 O   0  0  0  0  0  0  0  0  0  0  0  0
  2  1  1  1
  2  3  1  0
  4  8  1  0
  4  3  1  0
  5  4  2  0
  6  2  1  0
  6 15  1  0
  7  6  2  0
  9 10  1  0
 10 11  2  0
 12 13  1  0
 12 10  1  0
 14 16  1  0
 14 13  1  6
 14 15  1  0
 16 18  1  0
 17 16  2  0
 18 22  1  0
 18 19  1  0
 19 20  1  0
 20 21  1  0
 22 21  1  0
 22 23  1  6
 24 23  1  0
 25 23  2  0
M  END
$$$$
