DQP.pdb
     RDKit          3D

 25 25  0  0  1  0  0  0  0  0999 V2000
   20.7494  -17.5779  -15.4635 N   0  0  0  0  0  0  0  0  0  0  0  0
   19.8988  -16.4132  -15.3252 C   0  0  1  0  0  0  0  0  0  0  0  0
   19.2004  -16.5358  -13.9874 C   0  0  0  0  0  0  0  0  0  0  0  0
   18.1917  -17.6191  -14.1092 C   0  0  0  0  0  0  0  0  0  0  0  0
   17.8919  -18.1311  -15.1950 O   0  0  0  0  0  0  0  0  0  0  0  0
   20.7045  -15.1768  -15.4156 C   0  0  0  0  0  0  0  0  0  0  0  0
   21.7674  -15.0055  -14.7733 O   0  0  0  0  0  0  0  0  0  0  0  0
   17.5501  -18.0879  -12.9696 O   0  0  0  0  0  0  0  0  0  0  0  0
   19.2449  -11.9681  -19.7669 N   0  0  0  0  0  0  0  0  0  0  0  0
   20.0269  -13.1390  -19.8770 C   0  0  0  0  0  0  0  0  0  0  0  0
   19.8287  -13.9240  -20.8221 O   0  0  0  0  0  0  0  0  0  0  0  0
   21.0794  -13.4399  -18.8782 C   0  0  0  0  0  0  0  0  0  0  0  0
   21.0556  -12.4001  -17.8176 C   0  0  0  0  0  0  0  0  0  0  0  0
   21.0653  -12.8673  -16.4099 C   0  0  2  0  0  0  0  0  0  0  0  0
   20.3050  -14.0764  -16.2648 N   0  0  0  0  0  0  0  0  0  0  0  0
   20.9255  -11.8558  -15.3769 C   0  0  0  0  0  0  0  0  0  0  0  0
   19.7839  -11.8339  -14.7751 O   0  0  0  0  0  0  0  0  0  0  0  0
   21.8489  -10.9107  -14.9567 N   0  0  0  0  0  0  0  0  0  0  0  0
   23.1795  -10.6350  -15.4286 C   0  0  0  0  0  0  0  0  0  0  0  0
   23.9566  -10.4317  -14.1462 C   0  0  0  0  0  0  0  0  0  0  0  0
   22.9747   -9.6437  -13.3056 C   0  0  0  0  0  0  0  0  0  0  0  0
   21.6379   -9.8452  -13.9403 C   0  0  1  0  0  0  0  0  0  0  0  0
   21.2006   -8.5967  -14.6249 C   0  0  0  0  0  0  0  0  0  0  0  0
   20.6828   -7.5173  -13.9276 O   0  0  0  0  0  0  0  0  0  0  0  0
   21.2843   -8.4697  -15.8778 O   0  0  0  0  0  0  0  0  0  0  0  0
  2  1  1  1
  2  3  1  0
  4  8  1  0
  4  3  1  0
  5  4  2  0
  6  2  1  0
  6 15  1  0
  7  6  2  0
  9 10  1  0
 10 11  2  0
 12 13  1  0
 12 10  1  0
 14 16  1  0
 14 13  1  6
 14 15  1  0
 16 18  1  0
 17 16  2  0
 18 22  1  0
 18 19  1  0
 19 20  1  0
 20 21  1  0
 22 21  1  0
 22 23  1  6
 24 23  1  0
 25 23  2  0
M  END
$$$$
