DQP.pdb
     RDKit          3D

 25 25  0  0  1  0  0  0  0  0999 V2000
   21.1981  -16.7883  -18.5277 N   0  0  0  0  0  0  0  0  0  0  0  0
   22.4147  -16.0730  -18.2000 C   0  0  1  0  0  0  0  0  0  0  0  0
   22.0087  -14.6615  -17.8320 C   0  0  0  0  0  0  0  0  0  0  0  0
   21.6140  -13.9704  -19.0858 C   0  0  0  0  0  0  0  0  0  0  0  0
   22.0423  -14.3088  -20.1962 O   0  0  0  0  0  0  0  0  0  0  0  0
   23.1241  -16.7493  -17.0930 C   0  0  0  0  0  0  0  0  0  0  0  0
   24.1921  -16.3157  -16.5999 O   0  0  0  0  0  0  0  0  0  0  0  0
   20.7302  -12.9000  -19.0281 O   0  0  0  0  0  0  0  0  0  0  0  0
   20.5489  -20.9414  -13.3234 N   0  0  0  0  0  0  0  0  0  0  0  0
   21.9016  -21.1884  -13.0009 C   0  0  0  0  0  0  0  0  0  0  0  0
   22.1812  -22.0204  -12.1186 O   0  0  0  0  0  0  0  0  0  0  0  0
   22.9886  -20.4664  -13.7031 C   0  0  0  0  0  0  0  0  0  0  0  0
   22.3922  -19.5244  -14.6848 C   0  0  0  0  0  0  0  0  0  0  0  0
   23.3285  -18.7338  -15.5206 C   0  0  2  0  0  0  0  0  0  0  0  0
   22.6172  -17.9703  -16.5066 N   0  0  0  0  0  0  0  0  0  0  0  0
   24.5586  -19.3868  -15.9332 C   0  0  0  0  0  0  0  0  0  0  0  0
   24.4912  -20.0434  -17.0423 O   0  0  0  0  0  0  0  0  0  0  0  0
   25.7890  -19.4038  -15.2941 N   0  0  0  0  0  0  0  0  0  0  0  0
   26.1649  -18.9395  -13.9856 C   0  0  0  0  0  0  0  0  0  0  0  0
   27.4845  -18.2442  -14.2409 C   0  0  0  0  0  0  0  0  0  0  0  0
   28.1434  -19.1764  -15.2351 C   0  0  0  0  0  0  0  0  0  0  0  0
   27.0464  -20.0229  -15.7924 C   0  0  1  0  0  0  0  0  0  0  0  0
   27.1500  -21.4117  -15.2642 C   0  0  0  0  0  0  0  0  0  0  0  0
   28.1352  -22.2889  -15.6875 O   0  0  0  0  0  0  0  0  0  0  0  0
   26.3383  -21.8500  -14.4027 O   0  0  0  0  0  0  0  0  0  0  0  0
  2  1  1  1
  2  3  1  0
  4  8  1  0
  4  3  1  0
  5  4  2  0
  6  2  1  0
  6 15  1  0
  7  6  2  0
  9 10  1  0
 10 11  2  0
 12 13  1  0
 12 10  1  0
 14 16  1  0
 14 13  1  6
 14 15  1  0
 16 18  1  0
 17 16  2  0
 18 22  1  0
 18 19  1  0
 19 20  1  0
 20 21  1  0
 22 21  1  0
 22 23  1  1
 24 23  1  0
 25 23  2  0
M  END
$$$$
