WHT.pdb
     RDKit          3D

 32 34  0  0  1  0  0  0  0  0999 V2000
   25.3217  -20.5799  -17.9203 N   0  0  0  0  0  0  0  0  0  0  0  0
   24.9515  -19.6319  -16.9193 C   0  0  1  0  0  0  0  0  0  0  0  0
   24.2638  -18.4107  -17.4748 C   0  0  0  0  0  0  0  0  0  0  0  0
   25.1864  -17.3326  -17.8349 C   0  0  0  0  0  0  0  0  0  0  0  0
   25.5534  -17.0014  -19.1163 C   0  0  0  0  0  0  0  0  0  0  0  0
   26.4037  -15.9743  -19.0541 N   0  0  0  0  0  0  0  0  0  0  0  0
   26.6279  -15.5958  -17.7836 C   0  0  0  0  0  0  0  0  0  0  0  0
   27.4046  -14.6105  -17.1839 C   0  0  0  0  0  0  0  0  0  0  0  0
   27.4334  -14.4586  -15.8214 C   0  0  0  0  0  0  0  0  0  0  0  0
   26.6676  -15.3121  -15.0430 C   0  0  0  0  0  0  0  0  0  0  0  0
   25.8975  -16.2886  -15.6331 C   0  0  0  0  0  0  0  0  0  0  0  0
   25.8552  -16.4577  -17.0061 C   0  0  0  0  0  0  0  0  0  0  0  0
   24.0779  -20.2371  -15.8816 C   0  0  0  0  0  0  0  0  0  0  0  0
   23.2069  -21.0688  -16.2337 O   0  0  0  0  0  0  0  0  0  0  0  0
   24.2013  -19.9024  -14.5145 N   0  0  0  0  0  0  0  0  0  0  0  0
   23.3704  -20.5896  -13.4990 C   0  0  1  0  0  0  0  0  0  0  0  0
   23.9183  -20.2311  -12.1629 C   0  0  0  0  0  0  0  0  0  0  0  0
   23.2222  -20.8660  -11.0315 C   0  0  0  0  0  0  0  0  0  0  0  0
   22.1215  -21.7159  -11.1781 C   0  0  0  0  0  0  0  0  0  0  0  0
   21.7024  -22.1392   -9.9776 N   0  0  0  0  0  0  0  0  0  0  0  0
   22.5152  -21.5746   -9.0766 C   0  0  0  0  0  0  0  0  0  0  0  0
   23.4201  -20.8161   -9.7093 N   0  0  0  0  0  0  0  0  0  0  0  0
   21.9535  -20.2296  -13.7192 C   0  0  0  0  0  0  0  0  0  0  0  0
   21.5457  -19.0562  -13.7375 O   0  0  0  0  0  0  0  0  0  0  0  0
   19.8121  -21.1284  -16.6073 C   0  0  0  0  0  0  0  0  0  0  0  0
   19.1288  -21.7017  -15.3919 C   0  0  1  0  0  0  0  0  0  0  0  0
   19.4727  -23.0269  -15.2376 O   0  0  0  0  0  0  0  0  0  0  0  0
   19.6106  -20.9190  -14.1869 C   0  0  2  0  0  0  0  0  0  0  0  0
   20.9765  -21.2467  -13.9243 N   0  0  0  0  0  0  0  0  0  0  0  0
   18.7764  -21.3055  -13.0404 C   0  0  0  0  0  0  0  0  0  0  0  0
   19.3238  -22.0474  -12.0096 O   0  0  0  0  0  0  0  0  0  0  0  0
   17.5602  -20.9955  -12.9335 O   0  0  0  0  0  0  0  0  0  0  0  0
  2  1  1  6
  3  2  1  0
  3  4  1  0
  4  5  2  0
  5  6  1  0
  7  6  1  0
  8  7  2  0
  9  8  1  0
 10 11  1  0
 10  9  2  0
 11 12  2  0
 12  4  1  0
 12  7  1  0
 13 14  2  0
 13  2  1  0
 15 13  1  0
 16 15  1  0
 16 17  1  1
 18 22  1  0
 18 17  1  0
 19 18  2  0
 20 19  1  0
 20 21  1  0
 21 22  2  0
 23 16  1  0
 24 23  2  0
 26 25  1  6
 27 26  1  0
 28 26  1  0
 28 29  1  1
 29 23  1  0
 30 28  1  0
 31 30  1  0
 32 30  2  0
M  END
$$$$
