WHT.pdb
     RDKit          3D

 32 34  0  0  1  0  0  0  0  0999 V2000
   27.3125  -22.3191  -13.4287 N   0  0  0  0  0  0  0  0  0  0  0  0
   26.2046  -21.8072  -12.6882 C   0  0  1  0  0  0  0  0  0  0  0  0
   26.4829  -20.4774  -12.0347 C   0  0  0  0  0  0  0  0  0  0  0  0
   27.5408  -20.5320  -11.0242 C   0  0  0  0  0  0  0  0  0  0  0  0
   28.8838  -20.6391  -11.2909 C   0  0  0  0  0  0  0  0  0  0  0  0
   29.5394  -20.6602  -10.1284 N   0  0  0  0  0  0  0  0  0  0  0  0
   28.6961  -20.5716   -9.0850 C   0  0  0  0  0  0  0  0  0  0  0  0
   28.8553  -20.5498   -7.7036 C   0  0  0  0  0  0  0  0  0  0  0  0
   27.7753  -20.4482   -6.8647 C   0  0  0  0  0  0  0  0  0  0  0  0
   26.5088  -20.3668   -7.4216 C   0  0  0  0  0  0  0  0  0  0  0  0
   26.3474  -20.3881   -8.7885 C   0  0  0  0  0  0  0  0  0  0  0  0
   27.4246  -20.4900   -9.6515 C   0  0  0  0  0  0  0  0  0  0  0  0
   24.9896  -21.6755  -13.5324 C   0  0  0  0  0  0  0  0  0  0  0  0
   25.0646  -21.0267  -14.6039 O   0  0  0  0  0  0  0  0  0  0  0  0
   23.7571  -22.2588  -13.1624 N   0  0  0  0  0  0  0  0  0  0  0  0
   22.6155  -22.2552  -14.1063 C   0  0  1  0  0  0  0  0  0  0  0  0
   22.3422  -23.6705  -14.4752 C   0  0  0  0  0  0  0  0  0  0  0  0
   23.3857  -24.2930  -15.3068 C   0  0  0  0  0  0  0  0  0  0  0  0
   24.2231  -25.3193  -14.8588 C   0  0  0  0  0  0  0  0  0  0  0  0
   25.0693  -25.6824  -15.8325 N   0  0  0  0  0  0  0  0  0  0  0  0
   24.7837  -24.9071  -16.8854 C   0  0  0  0  0  0  0  0  0  0  0  0
   23.7791  -24.0799  -16.5677 N   0  0  0  0  0  0  0  0  0  0  0  0
   21.4849  -21.5338  -13.4843 C   0  0  0  0  0  0  0  0  0  0  0  0
   21.2064  -21.6194  -12.2766 O   0  0  0  0  0  0  0  0  0  0  0  0
   20.7967  -18.0590  -12.9844 C   0  0  0  0  0  0  0  0  0  0  0  0
   19.6873  -18.5201  -13.8953 C   0  0  1  0  0  0  0  0  0  0  0  0
   20.0193  -18.2689  -15.2087 O   0  0  0  0  0  0  0  0  0  0  0  0
   19.5283  -20.0143  -13.6992 C   0  0  2  0  0  0  0  0  0  0  0  0
   20.6498  -20.6895  -14.2722 N   0  0  0  0  0  0  0  0  0  0  0  0
   18.2953  -20.4262  -14.3849 C   0  0  0  0  0  0  0  0  0  0  0  0
   17.0650  -20.1019  -13.8431 O   0  0  0  0  0  0  0  0  0  0  0  0
   18.2875  -21.0740  -15.4652 O   0  0  0  0  0  0  0  0  0  0  0  0
  2  1  1  6
  3  2  1  0
  3  4  1  0
  4  5  2  0
  5  6  1  0
  7  6  1  0
  8  7  2  0
  9  8  1  0
 10 11  1  0
 10  9  2  0
 11 12  2  0
 12  4  1  0
 12  7  1  0
 13 14  2  0
 13  2  1  0
 15 13  1  0
 16 15  1  0
 16 17  1  1
 18 22  1  0
 18 17  1  0
 19 18  2  0
 20 19  1  0
 20 21  1  0
 21 22  2  0
 23 16  1  0
 24 23  2  0
 26 25  1  1
 27 26  1  0
 28 26  1  0
 28 29  1  6
 29 23  1  0
 30 28  1  0
 31 30  1  0
 32 30  2  0
M  END
$$$$
