WHT.pdb
     RDKit          3D

 32 34  0  0  1  0  0  0  0  0999 V2000
   22.8136  -19.7217  -12.7587 N   0  0  0  0  0  0  0  0  0  0  0  0
   22.6094  -21.1229  -12.9395 C   0  0  1  0  0  0  0  0  0  0  0  0
   23.4731  -21.9754  -12.0451 C   0  0  0  0  0  0  0  0  0  0  0  0
   24.9025  -21.6794  -12.1571 C   0  0  0  0  0  0  0  0  0  0  0  0
   25.6707  -21.1076  -11.1727 C   0  0  0  0  0  0  0  0  0  0  0  0
   26.9186  -20.9918  -11.6322 N   0  0  0  0  0  0  0  0  0  0  0  0
   27.0276  -21.4615  -12.8872 C   0  0  0  0  0  0  0  0  0  0  0  0
   28.0728  -21.5725  -13.7978 C   0  0  0  0  0  0  0  0  0  0  0  0
   27.8766  -22.1114  -15.0434 C   0  0  0  0  0  0  0  0  0  0  0  0
   26.6063  -22.5484  -15.3840 C   0  0  0  0  0  0  0  0  0  0  0  0
   25.5693  -22.4402  -14.4852 C   0  0  0  0  0  0  0  0  0  0  0  0
   25.7472  -21.8994  -13.2237 C   0  0  0  0  0  0  0  0  0  0  0  0
   21.1891  -21.5053  -12.7315 C   0  0  0  0  0  0  0  0  0  0  0  0
   20.5586  -20.9938  -11.7747 O   0  0  0  0  0  0  0  0  0  0  0  0
   20.5324  -22.4257  -13.5788 N   0  0  0  0  0  0  0  0  0  0  0  0
   19.1176  -22.7890  -13.3334 C   0  0  1  0  0  0  0  0  0  0  0  0
   18.4589  -22.9231  -14.6609 C   0  0  0  0  0  0  0  0  0  0  0  0
   17.9653  -21.6554  -15.2240 C   0  0  0  0  0  0  0  0  0  0  0  0
   17.9626  -20.4457  -14.5226 C   0  0  0  0  0  0  0  0  0  0  0  0
   17.4564  -19.4695  -15.2887 N   0  0  0  0  0  0  0  0  0  0  0  0
   17.1398  -20.0373  -16.4585 C   0  0  0  0  0  0  0  0  0  0  0  0
   17.4449  -21.3410  -16.4158 N   0  0  0  0  0  0  0  0  0  0  0  0
   19.0762  -23.9965  -12.4816 C   0  0  0  0  0  0  0  0  0  0  0  0
   19.7090  -25.0335  -12.7420 O   0  0  0  0  0  0  0  0  0  0  0  0
   19.3344  -23.9392   -8.5935 C   0  0  0  0  0  0  0  0  0  0  0  0
   18.0879  -24.6849   -8.9973 C   0  0  1  0  0  0  0  0  0  0  0  0
   16.9954  -23.8479   -8.9341 O   0  0  0  0  0  0  0  0  0  0  0  0
   18.2777  -25.1484  -10.4276 C   0  0  2  0  0  0  0  0  0  0  0  0
   18.2850  -24.0138  -11.2964 N   0  0  0  0  0  0  0  0  0  0  0  0
   17.1494  -26.0273  -10.7658 C   0  0  0  0  0  0  0  0  0  0  0  0
   17.0654  -27.2874  -10.2024 O   0  0  0  0  0  0  0  0  0  0  0  0
   16.2280  -25.6968  -11.5586 O   0  0  0  0  0  0  0  0  0  0  0  0
  2  1  1  1
  3  2  1  0
  3  4  1  0
  4  5  2  0
  5  6  1  0
  7  6  1  0
  8  7  2  0
  9  8  1  0
 10 11  1  0
 10  9  2  0
 11 12  2  0
 12  4  1  0
 12  7  1  0
 13 14  2  0
 13  2  1  0
 15 13  1  0
 16 15  1  0
 16 17  1  6
 18 22  1  0
 18 17  1  0
 19 18  2  0
 20 19  1  0
 20 21  1  0
 21 22  2  0
 23 16  1  0
 24 23  2  0
 26 25  1  6
 27 26  1  0
 28 26  1  0
 28 29  1  6
 29 23  1  0
 30 28  1  0
 31 30  1  0
 32 30  2  0
M  END
$$$$
