WHT.pdb
     RDKit          3D

 32 34  0  0  1  0  0  0  0  0999 V2000
   28.4128  -21.6167  -10.7557 N   0  0  0  0  0  0  0  0  0  0  0  0
   27.1142  -21.2690  -10.2757 C   0  0  1  0  0  0  0  0  0  0  0  0
   27.1096  -20.0525   -9.3852 C   0  0  0  0  0  0  0  0  0  0  0  0
   28.1053  -20.1081   -8.3135 C   0  0  0  0  0  0  0  0  0  0  0  0
   29.4463  -20.3450   -8.4921 C   0  0  0  0  0  0  0  0  0  0  0  0
   30.0367  -20.3221   -7.2952 N   0  0  0  0  0  0  0  0  0  0  0  0
   29.1513  -20.0794   -6.3130 C   0  0  0  0  0  0  0  0  0  0  0  0
   29.2401  -19.9556   -4.9307 C   0  0  0  0  0  0  0  0  0  0  0  0
   28.1308  -19.6979   -4.1669 C   0  0  0  0  0  0  0  0  0  0  0  0
   26.9063  -19.5611   -4.8015 C   0  0  0  0  0  0  0  0  0  0  0  0
   26.8145  -19.6829   -6.1696 C   0  0  0  0  0  0  0  0  0  0  0  0
   27.9223  -19.9428   -6.9575 C   0  0  0  0  0  0  0  0  0  0  0  0
   26.1556  -21.0457  -11.3882 C   0  0  0  0  0  0  0  0  0  0  0  0
   26.5468  -20.4312  -12.4099 O   0  0  0  0  0  0  0  0  0  0  0  0
   24.8209  -21.5051  -11.3267 N   0  0  0  0  0  0  0  0  0  0  0  0
   23.9356  -21.3893  -12.5085 C   0  0  1  0  0  0  0  0  0  0  0  0
   23.5572  -22.7699  -12.9146 C   0  0  0  0  0  0  0  0  0  0  0  0
   24.4925  -23.4020  -13.8598 C   0  0  0  0  0  0  0  0  0  0  0  0
   25.5903  -22.7422  -14.4209 C   0  0  0  0  0  0  0  0  0  0  0  0
   26.2552  -23.5680  -15.2406 N   0  0  0  0  0  0  0  0  0  0  0  0
   25.6005  -24.7348  -15.2087 C   0  0  0  0  0  0  0  0  0  0  0  0
   24.5498  -24.6316  -14.3841 N   0  0  0  0  0  0  0  0  0  0  0  0
   22.8062  -20.4965  -12.1727 C   0  0  0  0  0  0  0  0  0  0  0  0
   22.3622  -20.3672  -11.0196 O   0  0  0  0  0  0  0  0  0  0  0  0
   19.4464  -17.2869  -13.7835 C   0  0  0  0  0  0  0  0  0  0  0  0
   20.6417  -18.1342  -14.1387 C   0  0  1  0  0  0  0  0  0  0  0  0
   21.6977  -17.3301  -14.5083 O   0  0  0  0  0  0  0  0  0  0  0  0
   21.0251  -18.9221  -12.9023 C   0  0  2  0  0  0  0  0  0  0  0  0
   22.1680  -19.7300  -13.1906 N   0  0  0  0  0  0  0  0  0  0  0  0
   19.8855  -19.7797  -12.5478 C   0  0  0  0  0  0  0  0  0  0  0  0
   19.7177  -20.9980  -13.1803 O   0  0  0  0  0  0  0  0  0  0  0  0
   19.0276  -19.4672  -11.6800 O   0  0  0  0  0  0  0  0  0  0  0  0
  2  1  1  6
  3  2  1  0
  3  4  1  0
  4  5  2  0
  5  6  1  0
  7  6  1  0
  8  7  2  0
  9  8  1  0
 10 11  1  0
 10  9  2  0
 11 12  2  0
 12  4  1  0
 12  7  1  0
 13 14  2  0
 13  2  1  0
 15 13  1  0
 16 15  1  0
 16 17  1  1
 18 22  1  0
 18 17  1  0
 19 18  2  0
 20 19  1  0
 20 21  1  0
 21 22  2  0
 23 16  1  0
 24 23  2  0
 26 25  1  1
 27 26  1  0
 28 26  1  0
 28 29  1  6
 29 23  1  0
 30 28  1  0
 31 30  1  0
 32 30  2  0
M  END
$$$$
