WHT.pdb
     RDKit          3D

 32 34  0  0  1  0  0  0  0  0999 V2000
   22.0486   -6.4834  -18.1420 N   0  0  0  0  0  0  0  0  0  0  0  0
   21.4699   -7.2624  -17.0951 C   0  0  1  0  0  0  0  0  0  0  0  0
   20.5718   -6.4672  -16.1819 C   0  0  0  0  0  0  0  0  0  0  0  0
   21.1839   -6.1499  -14.8905 C   0  0  0  0  0  0  0  0  0  0  0  0
   21.6762   -4.9194  -14.5302 C   0  0  0  0  0  0  0  0  0  0  0  0
   22.1543   -5.0093  -13.2871 N   0  0  0  0  0  0  0  0  0  0  0  0
   22.0061   -6.2498  -12.7903 C   0  0  0  0  0  0  0  0  0  0  0  0
   22.3240   -6.8586  -11.5810 C   0  0  0  0  0  0  0  0  0  0  0  0
   22.0426   -8.1816  -11.3552 C   0  0  0  0  0  0  0  0  0  0  0  0
   21.4297   -8.9101  -12.3623 C   0  0  0  0  0  0  0  0  0  0  0  0
   21.1135   -8.3109  -13.5605 C   0  0  0  0  0  0  0  0  0  0  0  0
   21.3894   -6.9773  -13.8075 C   0  0  0  0  0  0  0  0  0  0  0  0
   20.7024   -8.4180  -17.6263 C   0  0  0  0  0  0  0  0  0  0  0  0
   20.3633   -8.4153  -18.8344 O   0  0  0  0  0  0  0  0  0  0  0  0
   20.3457   -9.5151  -16.8106 N   0  0  0  0  0  0  0  0  0  0  0  0
   19.5963  -10.6580  -17.3815 C   0  0  1  0  0  0  0  0  0  0  0  0
   20.5906  -11.7084  -17.7310 C   0  0  0  0  0  0  0  0  0  0  0  0
   20.0096  -12.9123  -18.3482 C   0  0  0  0  0  0  0  0  0  0  0  0
   18.6395  -13.0856  -18.5676 C   0  0  0  0  0  0  0  0  0  0  0  0
   18.4110  -14.2747  -19.1419 N   0  0  0  0  0  0  0  0  0  0  0  0
   19.6077  -14.8554  -19.2896 C   0  0  0  0  0  0  0  0  0  0  0  0
   20.5583  -14.0397  -18.8151 N   0  0  0  0  0  0  0  0  0  0  0  0
   18.5512  -11.0706  -16.4208 C   0  0  0  0  0  0  0  0  0  0  0  0
   18.7929  -11.3611  -15.2373 O   0  0  0  0  0  0  0  0  0  0  0  0
   15.0979   -9.2828  -15.9165 C   0  0  0  0  0  0  0  0  0  0  0  0
   14.8892  -10.7326  -16.2736 C   0  0  1  0  0  0  0  0  0  0  0  0
   14.6709  -10.8587  -17.6282 O   0  0  0  0  0  0  0  0  0  0  0  0
   16.1540  -11.4799  -15.9017 C   0  0  2  0  0  0  0  0  0  0  0  0
   17.1888  -11.1521  -16.8311 N   0  0  0  0  0  0  0  0  0  0  0  0
   15.8598  -12.9182  -15.9708 C   0  0  0  0  0  0  0  0  0  0  0  0
   16.4526  -13.6960  -16.9486 O   0  0  0  0  0  0  0  0  0  0  0  0
   15.0803  -13.5043  -15.1736 O   0  0  0  0  0  0  0  0  0  0  0  0
  2  1  1  6
  3  2  1  0
  3  4  1  0
  4  5  2  0
  5  6  1  0
  7  6  1  0
  8  7  2  0
  9  8  1  0
 10 11  1  0
 10  9  2  0
 11 12  2  0
 12  4  1  0
 12  7  1  0
 13 14  2  0
 13  2  1  0
 15 13  1  0
 16 15  1  0
 16 17  1  1
 18 22  1  0
 18 17  1  0
 19 18  2  0
 20 19  1  0
 20 21  1  0
 21 22  2  0
 23 16  1  0
 24 23  2  0
 26 25  1  6
 27 26  1  0
 28 26  1  0
 28 29  1  6
 29 23  1  0
 30 28  1  0
 31 30  1  0
 32 30  2  0
M  END
$$$$
