WHT.pdb
     RDKit          3D

 32 34  0  0  1  0  0  0  0  0999 V2000
   20.9994  -18.8229  -21.3545 N   0  0  0  0  0  0  0  0  0  0  0  0
   20.4114  -18.0077  -20.3409 C   0  0  1  0  0  0  0  0  0  0  0  0
   19.1488  -17.3146  -20.7859 C   0  0  0  0  0  0  0  0  0  0  0  0
   19.3564  -16.3689  -21.8841 C   0  0  0  0  0  0  0  0  0  0  0  0
   19.4128  -16.7032  -23.2150 C   0  0  0  0  0  0  0  0  0  0  0  0
   19.6134  -15.5860  -23.9173 N   0  0  0  0  0  0  0  0  0  0  0  0
   19.6951  -14.5085  -23.1174 C   0  0  0  0  0  0  0  0  0  0  0  0
   19.8906  -13.1486  -23.3327 C   0  0  0  0  0  0  0  0  0  0  0  0
   19.9286  -12.2613  -22.2879 C   0  0  0  0  0  0  0  0  0  0  0  0
   19.7672  -12.7467  -20.9998 C   0  0  0  0  0  0  0  0  0  0  0  0
   19.5734  -14.0921  -20.7828 C   0  0  0  0  0  0  0  0  0  0  0  0
   19.5321  -15.0033  -21.8239 C   0  0  0  0  0  0  0  0  0  0  0  0
   20.1169  -18.7844  -19.1094 C   0  0  0  0  0  0  0  0  0  0  0  0
   19.8069  -19.9955  -19.2174 O   0  0  0  0  0  0  0  0  0  0  0  0
   20.1764  -18.1980  -17.8253 N   0  0  0  0  0  0  0  0  0  0  0  0
   20.0187  -19.0351  -16.6136 C   0  0  1  0  0  0  0  0  0  0  0  0
   21.0404  -18.5858  -15.6297 C   0  0  0  0  0  0  0  0  0  0  0  0
   22.4043  -19.0644  -15.9100 C   0  0  0  0  0  0  0  0  0  0  0  0
   22.7165  -19.9496  -16.9465 C   0  0  0  0  0  0  0  0  0  0  0  0
   24.0323  -20.2034  -16.9557 N   0  0  0  0  0  0  0  0  0  0  0  0
   24.5571  -19.4973  -15.9472 C   0  0  0  0  0  0  0  0  0  0  0  0
   23.5829  -18.8195  -15.3261 N   0  0  0  0  0  0  0  0  0  0  0  0
   18.6164  -18.9489  -16.1537 C   0  0  0  0  0  0  0  0  0  0  0  0
   17.9730  -17.8863  -16.1309 O   0  0  0  0  0  0  0  0  0  0  0  0
   14.4306  -21.3116  -15.5715 C   0  0  0  0  0  0  0  0  0  0  0  0
   15.8728  -21.3163  -16.0107 C   0  0  1  0  0  0  0  0  0  0  0  0
   15.9484  -21.2482  -17.3847 O   0  0  0  0  0  0  0  0  0  0  0  0
   16.5344  -20.0901  -15.4145 C   0  0  2  0  0  0  0  0  0  0  0  0
   17.9329  -20.1169  -15.7068 N   0  0  0  0  0  0  0  0  0  0  0  0
   16.3287  -20.1342  -13.9600 C   0  0  0  0  0  0  0  0  0  0  0  0
   15.1132  -19.7490  -13.4246 O   0  0  0  0  0  0  0  0  0  0  0  0
   17.2139  -20.5111  -13.1468 O   0  0  0  0  0  0  0  0  0  0  0  0
  2  1  1  6
  3  2  1  0
  3  4  1  0
  4  5  2  0
  5  6  1  0
  7  6  1  0
  8  7  2  0
  9  8  1  0
 10 11  1  0
 10  9  2  0
 11 12  2  0
 12  4  1  0
 12  7  1  0
 13 14  2  0
 13  2  1  0
 15 13  1  0
 16 15  1  0
 16 17  1  1
 18 22  1  0
 18 17  1  0
 19 18  2  0
 20 19  1  0
 20 21  1  0
 21 22  2  0
 23 16  1  0
 24 23  2  0
 26 25  1  6
 27 26  1  0
 28 26  1  0
 28 29  1  1
 29 23  1  0
 30 28  1  0
 31 30  1  0
 32 30  2  0
M  END
$$$$
