ADV.pdb
     RDKit          3D

 21 20  0  0  1  0  0  0  0  0999 V2000
   20.0036  -11.8839  -19.4481 C   0  0  0  0  0  0  0  0  0  0  0  0
   19.5579  -11.2229  -18.1642 C   0  0  2  0  0  0  0  0  0  0  0  0
   18.1737  -10.8229  -18.3349 N   0  0  0  0  0  0  0  0  0  0  0  0
   20.3541  -10.0260  -17.8417 C   0  0  0  0  0  0  0  0  0  0  0  0
   21.4891  -10.1191  -17.2687 O   0  0  0  0  0  0  0  0  0  0  0  0
   19.9294   -8.6981  -18.1375 N   0  0  0  0  0  0  0  0  0  0  0  0
   20.6886   -7.5292  -17.7735 C   0  0  1  0  0  0  0  0  0  0  0  0
   20.3295   -6.4071  -18.6981 C   0  0  0  0  0  0  0  0  0  0  0  0
   21.0743   -5.1662  -18.4756 C   0  0  0  0  0  0  0  0  0  0  0  0
   22.0408   -4.9934  -17.7175 O   0  0  0  0  0  0  0  0  0  0  0  0
   20.4609   -7.1215  -16.3654 C   0  0  0  0  0  0  0  0  0  0  0  0
   19.2947   -6.7898  -16.0402 O   0  0  0  0  0  0  0  0  0  0  0  0
   20.6454   -4.0436  -19.2036 O   0  0  0  0  0  0  0  0  0  0  0  0
   20.3982   -9.0303  -13.3734 C   0  0  0  0  0  0  0  0  0  0  0  0
   21.4289   -7.9621  -13.0788 C   0  0  1  0  0  0  0  0  0  0  0  0
   22.7844   -8.5593  -13.3931 C   0  0  0  0  0  0  0  0  0  0  0  0
   21.1938   -6.7439  -13.9816 C   0  0  2  0  0  0  0  0  0  0  0  0
   21.4646   -7.0802  -15.3641 N   0  0  0  0  0  0  0  0  0  0  0  0
   22.0947   -5.6314  -13.6125 C   0  0  0  0  0  0  0  0  0  0  0  0
   23.0480   -5.1248  -14.4719 O   0  0  0  0  0  0  0  0  0  0  0  0
   21.9944   -5.1225  -12.4736 O   0  0  0  0  0  0  0  0  0  0  0  0
  2  1  1  6
  2  3  1  0
  4  2  1  0
  5  4  2  0
  6  4  1  0
  7 11  1  0
  7  6  1  0
  7  8  1  6
  9  8  1  0
 10  9  2  0
 11 18  1  0
 12 11  2  0
 13  9  1  0
 15 16  1  6
 15 14  1  0
 17 19  1  0
 17 18  1  6
 17 15  1  0
 19 20  1  0
 21 19  2  0
M  END
$$$$
