ADV.pdb
     RDKit          3D

 21 20  0  0  1  0  0  0  0  0999 V2000
   12.3097  -12.2168  -13.0845 C   0  0  0  0  0  0  0  0  0  0  0  0
   13.7297  -12.3479  -13.5850 C   0  0  2  0  0  0  0  0  0  0  0  0
   14.1230  -13.7357  -13.4288 N   0  0  0  0  0  0  0  0  0  0  0  0
   14.6731  -11.5066  -12.8282 C   0  0  0  0  0  0  0  0  0  0  0  0
   15.3160  -11.9661  -11.8279 O   0  0  0  0  0  0  0  0  0  0  0  0
   14.9367  -10.1425  -13.1460 N   0  0  0  0  0  0  0  0  0  0  0  0
   15.9551   -9.3637  -12.4890 C   0  0  1  0  0  0  0  0  0  0  0  0
   16.9741   -8.9401  -13.5014 C   0  0  0  0  0  0  0  0  0  0  0  0
   18.0609   -8.1150  -12.9703 C   0  0  0  0  0  0  0  0  0  0  0  0
   18.7241   -8.3143  -11.9411 O   0  0  0  0  0  0  0  0  0  0  0  0
   15.4006   -8.1747  -11.7963 C   0  0  0  0  0  0  0  0  0  0  0  0
   14.6702   -7.4035  -12.4652 O   0  0  0  0  0  0  0  0  0  0  0  0
   18.3900   -6.9670  -13.7107 O   0  0  0  0  0  0  0  0  0  0  0  0
   13.0637   -7.7804   -9.0395 C   0  0  0  0  0  0  0  0  0  0  0  0
   14.2697   -6.9795   -8.5987 C   0  0  1  0  0  0  0  0  0  0  0  0
   15.0580   -7.8568   -7.6490 C   0  0  0  0  0  0  0  0  0  0  0  0
   15.1444   -6.6383   -9.8124 C   0  0  2  0  0  0  0  0  0  0  0  0
   15.6368   -7.8492  -10.4362 N   0  0  0  0  0  0  0  0  0  0  0  0
   16.3206   -5.8395   -9.4077 C   0  0  0  0  0  0  0  0  0  0  0  0
   17.6064   -6.3398   -9.4267 O   0  0  0  0  0  0  0  0  0  0  0  0
   16.1507   -4.6584   -9.0305 O   0  0  0  0  0  0  0  0  0  0  0  0
  2  1  1  1
  2  3  1  0
  4  2  1  0
  5  4  2  0
  6  4  1  0
  7 11  1  0
  7  6  1  0
  7  8  1  6
  9  8  1  0
 10  9  2  0
 11 18  1  0
 12 11  2  0
 13  9  1  0
 15 16  1  1
 15 14  1  0
 17 19  1  0
 17 18  1  1
 17 15  1  0
 19 20  1  0
 21 19  2  0
M  END
$$$$
