ADV.pdb
     RDKit          3D

 21 20  0  0  1  0  0  0  0  0999 V2000
   20.1879  -13.4828  -16.5841 C   0  0  0  0  0  0  0  0  0  0  0  0
   19.2988  -12.3769  -17.1042 C   0  0  2  0  0  0  0  0  0  0  0  0
   19.7418  -12.0538  -18.4475 N   0  0  0  0  0  0  0  0  0  0  0  0
   19.3766  -11.1580  -16.2804 C   0  0  0  0  0  0  0  0  0  0  0  0
   18.9733  -11.1480  -15.0711 O   0  0  0  0  0  0  0  0  0  0  0  0
   19.8972   -9.9202  -16.7580 N   0  0  0  0  0  0  0  0  0  0  0  0
   19.9371   -8.7221  -15.9590 C   0  0  1  0  0  0  0  0  0  0  0  0
   21.3534   -8.2440  -15.8676 C   0  0  0  0  0  0  0  0  0  0  0  0
   21.5455   -7.0477  -15.0453 C   0  0  0  0  0  0  0  0  0  0  0  0
   21.2752   -6.9091  -13.8425 O   0  0  0  0  0  0  0  0  0  0  0  0
   19.0711   -7.6482  -16.5045 C   0  0  0  0  0  0  0  0  0  0  0  0
   19.3669   -7.1829  -17.6321 O   0  0  0  0  0  0  0  0  0  0  0  0
   22.0988   -5.9298  -15.6921 O   0  0  0  0  0  0  0  0  0  0  0  0
   15.4884   -7.6710  -17.3199 C   0  0  0  0  0  0  0  0  0  0  0  0
   15.6550   -6.4496  -16.4421 C   0  0  1  0  0  0  0  0  0  0  0  0
   15.1995   -6.8407  -15.0519 C   0  0  0  0  0  0  0  0  0  0  0  0
   17.1325   -6.0386  -16.3908 C   0  0  2  0  0  0  0  0  0  0  0  0
   17.9364   -7.1119  -15.8437 N   0  0  0  0  0  0  0  0  0  0  0  0
   17.3220   -4.8573  -15.5225 C   0  0  0  0  0  0  0  0  0  0  0  0
   17.9023   -4.9334  -14.2730 O   0  0  0  0  0  0  0  0  0  0  0  0
   16.9425   -3.7370  -15.9315 O   0  0  0  0  0  0  0  0  0  0  0  0
  2  1  1  1
  2  3  1  0
  4  2  1  0
  5  4  2  0
  6  4  1  0
  7 11  1  0
  7  6  1  0
  7  8  1  6
  9  8  1  0
 10  9  2  0
 11 18  1  0
 12 11  2  0
 13  9  1  0
 15 16  1  1
 15 14  1  0
 17 19  1  0
 17 18  1  1
 17 15  1  0
 19 20  1  0
 21 19  2  0
M  END
$$$$
