ADV.pdb
     RDKit          3D

 21 20  0  0  1  0  0  0  0  0999 V2000
   22.5724  -11.9181  -15.4791 C   0  0  0  0  0  0  0  0  0  0  0  0
   21.2118  -11.9619  -16.1357 C   0  0  2  0  0  0  0  0  0  0  0  0
   21.3674  -12.6130  -17.4230 N   0  0  0  0  0  0  0  0  0  0  0  0
   20.6500  -10.6180  -16.3563 C   0  0  0  0  0  0  0  0  0  0  0  0
   21.0352   -9.8897  -17.3292 O   0  0  0  0  0  0  0  0  0  0  0  0
   19.6536  -10.0371  -15.5192 N   0  0  0  0  0  0  0  0  0  0  0  0
   19.0665   -8.7463  -15.7733 C   0  0  1  0  0  0  0  0  0  0  0  0
   17.6165   -8.7884  -15.4006 C   0  0  0  0  0  0  0  0  0  0  0  0
   16.8809   -7.5484  -15.6563 C   0  0  0  0  0  0  0  0  0  0  0  0
   17.0817   -6.7268  -16.5638 O   0  0  0  0  0  0  0  0  0  0  0  0
   19.7508   -7.6571  -15.0344 C   0  0  0  0  0  0  0  0  0  0  0  0
   20.0057   -7.8521  -13.8209 O   0  0  0  0  0  0  0  0  0  0  0  0
   15.8279   -7.2558  -14.7732 O   0  0  0  0  0  0  0  0  0  0  0  0
   22.0394   -4.8845  -17.0668 C   0  0  0  0  0  0  0  0  0  0  0  0
   22.2780   -5.2260  -15.6119 C   0  0  1  0  0  0  0  0  0  0  0  0
   22.9921   -4.0427  -14.9930 C   0  0  0  0  0  0  0  0  0  0  0  0
   20.9370   -5.4354  -14.8960 C   0  0  2  0  0  0  0  0  0  0  0  0
   20.1361   -6.4151  -15.6006 N   0  0  0  0  0  0  0  0  0  0  0  0
   20.1602   -4.1784  -14.8517 C   0  0  0  0  0  0  0  0  0  0  0  0
   20.3927   -3.1885  -13.9190 O   0  0  0  0  0  0  0  0  0  0  0  0
   19.2514   -3.9974  -15.6928 O   0  0  0  0  0  0  0  0  0  0  0  0
  2  1  1  6
  2  3  1  0
  4  2  1  0
  5  4  2  0
  6  4  1  0
  7 11  1  0
  7  6  1  0
  7  8  1  1
  9  8  1  0
 10  9  2  0
 11 18  1  0
 12 11  2  0
 13  9  1  0
 15 16  1  1
 15 14  1  0
 17 19  1  0
 17 18  1  6
 17 15  1  0
 19 20  1  0
 21 19  2  0
M  END
$$$$
