ADV.pdb
     RDKit          3D

 21 20  0  0  1  0  0  0  0  0999 V2000
   11.5308  -12.3211  -11.6998 C   0  0  0  0  0  0  0  0  0  0  0  0
   12.7213  -12.5409  -12.6045 C   0  0  2  0  0  0  0  0  0  0  0  0
   13.0939  -13.9397  -12.5063 N   0  0  0  0  0  0  0  0  0  0  0  0
   13.8815  -11.7196  -12.2173 C   0  0  0  0  0  0  0  0  0  0  0  0
   14.7500  -12.1479  -11.3882 O   0  0  0  0  0  0  0  0  0  0  0  0
   14.1208  -10.4103  -12.7267 N   0  0  0  0  0  0  0  0  0  0  0  0
   15.2341   -9.5954  -12.3119 C   0  0  1  0  0  0  0  0  0  0  0  0
   16.1287   -9.3565  -13.4890 C   0  0  0  0  0  0  0  0  0  0  0  0
   17.2812   -8.4947  -13.2191 C   0  0  0  0  0  0  0  0  0  0  0  0
   17.6674   -7.5226  -13.8859 O   0  0  0  0  0  0  0  0  0  0  0  0
   14.8029   -8.3012  -11.7289 C   0  0  0  0  0  0  0  0  0  0  0  0
   14.0087   -7.5994  -12.4015 O   0  0  0  0  0  0  0  0  0  0  0  0
   18.0355   -8.8039  -12.0747 O   0  0  0  0  0  0  0  0  0  0  0  0
   13.3212   -7.7241   -8.1923 C   0  0  0  0  0  0  0  0  0  0  0  0
   14.4541   -6.7423   -8.3993 C   0  0  1  0  0  0  0  0  0  0  0  0
   15.6790   -7.3369   -7.7366 C   0  0  0  0  0  0  0  0  0  0  0  0
   14.7282   -6.5670   -9.8989 C   0  0  2  0  0  0  0  0  0  0  0  0
   15.2235   -7.8027  -10.4695 N   0  0  0  0  0  0  0  0  0  0  0  0
   15.7560   -5.5299  -10.1301 C   0  0  0  0  0  0  0  0  0  0  0  0
   15.5288   -4.1883   -9.9016 O   0  0  0  0  0  0  0  0  0  0  0  0
   16.8826   -5.8760  -10.5509 O   0  0  0  0  0  0  0  0  0  0  0  0
  2  1  1  1
  2  3  1  0
  4  2  1  0
  5  4  2  0
  6  4  1  0
  7 11  1  0
  7  6  1  0
  7  8  1  6
  9  8  1  0
 10  9  2  0
 11 18  1  0
 12 11  2  0
 13  9  1  0
 15 16  1  1
 15 14  1  0
 17 19  1  0
 17 18  1  1
 17 15  1  0
 19 20  1  0
 21 19  2  0
M  END
$$$$
