ADV.pdb
     RDKit          3D

 21 20  0  0  1  0  0  0  0  0999 V2000
   28.2280  -18.3069  -16.4684 C   0  0  0  0  0  0  0  0  0  0  0  0
   28.0237  -19.5142  -15.5825 C   0  0  2  0  0  0  0  0  0  0  0  0
   27.6637  -20.6294  -16.4379 N   0  0  0  0  0  0  0  0  0  0  0  0
   26.9464  -19.3135  -14.5977 C   0  0  0  0  0  0  0  0  0  0  0  0
   26.9990  -18.3718  -13.7401 O   0  0  0  0  0  0  0  0  0  0  0  0
   25.7856  -20.1371  -14.5262 N   0  0  0  0  0  0  0  0  0  0  0  0
   24.7553  -19.9612  -13.5347 C   0  0  1  0  0  0  0  0  0  0  0  0
   23.4355  -20.3445  -14.1297 C   0  0  0  0  0  0  0  0  0  0  0  0
   22.2664  -19.8481  -13.4012 C   0  0  0  0  0  0  0  0  0  0  0  0
   22.2157  -18.8780  -12.6296 O   0  0  0  0  0  0  0  0  0  0  0  0
   25.0096  -20.7534  -12.3065 C   0  0  0  0  0  0  0  0  0  0  0  0
   25.1040  -21.9989  -12.4303 O   0  0  0  0  0  0  0  0  0  0  0  0
   21.0654  -20.5502  -13.5985 O   0  0  0  0  0  0  0  0  0  0  0  0
   27.7468  -20.3806   -9.7455 C   0  0  0  0  0  0  0  0  0  0  0  0
   26.4615  -20.4422   -8.9491 C   0  0  1  0  0  0  0  0  0  0  0  0
   26.1169  -19.0205   -8.5581 C   0  0  0  0  0  0  0  0  0  0  0  0
   25.3331  -21.0129   -9.8185 C   0  0  2  0  0  0  0  0  0  0  0  0
   25.1531  -20.2043  -11.0066 N   0  0  0  0  0  0  0  0  0  0  0  0
   24.0497  -21.0128   -9.0848 C   0  0  0  0  0  0  0  0  0  0  0  0
   23.7988  -21.8505   -8.0175 O   0  0  0  0  0  0  0  0  0  0  0  0
   23.1477  -20.2219   -9.4412 O   0  0  0  0  0  0  0  0  0  0  0  0
  2  1  1  6
  2  3  1  0
  4  2  1  0
  5  4  2  0
  6  4  1  0
  7 11  1  0
  7  6  1  0
  7  8  1  6
  9  8  1  0
 10  9  2  0
 11 18  1  0
 12 11  2  0
 13  9  1  0
 15 16  1  6
 15 14  1  0
 17 19  1  0
 17 18  1  6
 17 15  1  0
 19 20  1  0
 21 19  2  0
M  END
$$$$
