ADV.pdb
     RDKit          3D

 21 20  0  0  1  0  0  0  0  0999 V2000
   17.0463  -11.1151  -18.3925 C   0  0  0  0  0  0  0  0  0  0  0  0
   17.7575  -10.9146  -17.0741 C   0  0  2  0  0  0  0  0  0  0  0  0
   16.7888  -11.1326  -16.0161 N   0  0  0  0  0  0  0  0  0  0  0  0
   18.3067   -9.5549  -16.9322 C   0  0  0  0  0  0  0  0  0  0  0  0
   19.4145   -9.2276  -17.4715 O   0  0  0  0  0  0  0  0  0  0  0  0
   17.6588   -8.5198  -16.1974 N   0  0  0  0  0  0  0  0  0  0  0  0
   18.2028   -7.1930  -16.0597 C   0  0  1  0  0  0  0  0  0  0  0  0
   17.0773   -6.2196  -15.8913 C   0  0  0  0  0  0  0  0  0  0  0  0
   16.3527   -5.9000  -17.1229 C   0  0  0  0  0  0  0  0  0  0  0  0
   16.7670   -5.2470  -18.0928 O   0  0  0  0  0  0  0  0  0  0  0  0
   19.1463   -7.0828  -14.9201 C   0  0  0  0  0  0  0  0  0  0  0  0
   18.6677   -7.1640  -13.7626 O   0  0  0  0  0  0  0  0  0  0  0  0
   15.0386   -6.3885  -17.2168 O   0  0  0  0  0  0  0  0  0  0  0  0
   21.9816   -9.3455  -14.3254 C   0  0  0  0  0  0  0  0  0  0  0  0
   22.5735   -7.9604  -14.1787 C   0  0  1  0  0  0  0  0  0  0  0  0
   23.2560   -7.6319  -15.4899 C   0  0  0  0  0  0  0  0  0  0  0  0
   21.4581   -6.9384  -13.9218 C   0  0  2  0  0  0  0  0  0  0  0  0
   20.5462   -6.8929  -15.0461 N   0  0  0  0  0  0  0  0  0  0  0  0
   22.0159   -5.5803  -13.7495 C   0  0  0  0  0  0  0  0  0  0  0  0
   22.6316   -5.1671  -12.5858 O   0  0  0  0  0  0  0  0  0  0  0  0
   21.9298   -4.7650  -14.6951 O   0  0  0  0  0  0  0  0  0  0  0  0
  2  1  1  6
  2  3  1  0
  4  2  1  0
  5  4  2  0
  6  4  1  0
  7 11  1  0
  7  6  1  0
  7  8  1  1
  9  8  1  0
 10  9  2  0
 11 18  1  0
 12 11  2  0
 13  9  1  0
 15 16  1  6
 15 14  1  0
 17 19  1  0
 17 18  1  6
 17 15  1  0
 19 20  1  0
 21 19  2  0
M  END
$$$$
