ADV.pdb
     RDKit          3D

 21 20  0  0  1  0  0  0  0  0999 V2000
   29.2649  -18.7434  -17.3398 C   0  0  0  0  0  0  0  0  0  0  0  0
   28.1900  -19.7637  -17.6356 C   0  0  2  0  0  0  0  0  0  0  0  0
   27.8785  -19.6744  -19.0499 N   0  0  0  0  0  0  0  0  0  0  0  0
   26.9560  -19.5194  -16.8687 C   0  0  0  0  0  0  0  0  0  0  0  0
   26.6081  -18.3407  -16.5300 O   0  0  0  0  0  0  0  0  0  0  0  0
   26.0722  -20.5574  -16.4532 N   0  0  0  0  0  0  0  0  0  0  0  0
   24.8458  -20.3084  -15.7394 C   0  0  1  0  0  0  0  0  0  0  0  0
   23.6882  -20.5737  -16.6517 C   0  0  0  0  0  0  0  0  0  0  0  0
   22.3734  -20.2884  -16.0739 C   0  0  0  0  0  0  0  0  0  0  0  0
   21.2757  -20.7327  -16.4434 O   0  0  0  0  0  0  0  0  0  0  0  0
   24.7268  -21.1337  -14.5124 C   0  0  0  0  0  0  0  0  0  0  0  0
   24.6932  -22.3804  -14.6543 O   0  0  0  0  0  0  0  0  0  0  0  0
   22.3527  -19.4116  -14.9761 O   0  0  0  0  0  0  0  0  0  0  0  0
   26.8762  -21.4271  -11.6382 C   0  0  0  0  0  0  0  0  0  0  0  0
   25.5219  -21.2339  -10.9910 C   0  0  1  0  0  0  0  0  0  0  0  0
   25.4732  -19.8061  -10.4890 C   0  0  0  0  0  0  0  0  0  0  0  0
   24.4108  -21.4408  -12.0289 C   0  0  2  0  0  0  0  0  0  0  0  0
   24.6485  -20.6149  -13.1946 N   0  0  0  0  0  0  0  0  0  0  0  0
   23.0942  -21.0575  -11.4764 C   0  0  0  0  0  0  0  0  0  0  0  0
   22.4097  -21.8370  -10.5666 O   0  0  0  0  0  0  0  0  0  0  0  0
   22.5720  -19.9816  -11.8449 O   0  0  0  0  0  0  0  0  0  0  0  0
  2  1  1  1
  2  3  1  0
  4  2  1  0
  5  4  2  0
  6  4  1  0
  7 11  1  0
  7  6  1  0
  7  8  1  6
  9  8  1  0
 10  9  2  0
 11 18  1  0
 12 11  2  0
 13  9  1  0
 15 16  1  6
 15 14  1  0
 17 19  1  0
 17 18  1  6
 17 15  1  0
 19 20  1  0
 21 19  2  0
M  END
$$$$
