ADV.pdb
     RDKit          3D

 21 20  0  0  1  0  0  0  0  0999 V2000
   17.8627  -12.8132  -17.5149 C   0  0  0  0  0  0  0  0  0  0  0  0
   18.6517  -12.1079  -16.4360 C   0  0  2  0  0  0  0  0  0  0  0  0
   17.9834  -12.3550  -15.1720 N   0  0  0  0  0  0  0  0  0  0  0  0
   18.7220  -10.6521  -16.6509 C   0  0  0  0  0  0  0  0  0  0  0  0
   19.3808  -10.1564  -17.6233 O   0  0  0  0  0  0  0  0  0  0  0  0
   18.0741   -9.7025  -15.8085 N   0  0  0  0  0  0  0  0  0  0  0  0
   18.2453   -8.2791  -15.9494 C   0  0  1  0  0  0  0  0  0  0  0  0
   16.9978   -7.5901  -15.4893 C   0  0  0  0  0  0  0  0  0  0  0  0
   17.0739   -6.1278  -15.4748 C   0  0  0  0  0  0  0  0  0  0  0  0
   17.3552   -5.3788  -16.4227 O   0  0  0  0  0  0  0  0  0  0  0  0
   19.4161   -7.7715  -15.1930 C   0  0  0  0  0  0  0  0  0  0  0  0
   19.5777   -8.1963  -14.0229 O   0  0  0  0  0  0  0  0  0  0  0  0
   16.7967   -5.5021  -14.2477 O   0  0  0  0  0  0  0  0  0  0  0  0
   22.4684   -5.6203  -17.1949 C   0  0  0  0  0  0  0  0  0  0  0  0
   22.7705   -6.5752  -16.0604 C   0  0  1  0  0  0  0  0  0  0  0  0
   24.0352   -6.0789  -15.3917 C   0  0  0  0  0  0  0  0  0  0  0  0
   21.6228   -6.5590  -15.0420 C   0  0  2  0  0  0  0  0  0  0  0  0
   20.3626   -6.8431  -15.6970 N   0  0  0  0  0  0  0  0  0  0  0  0
   21.5007   -5.2305  -14.4053 C   0  0  0  0  0  0  0  0  0  0  0  0
   22.3398   -4.8054  -13.3958 O   0  0  0  0  0  0  0  0  0  0  0  0
   20.6002   -4.4527  -14.7931 O   0  0  0  0  0  0  0  0  0  0  0  0
  2  1  1  6
  2  3  1  0
  4  2  1  0
  5  4  2  0
  6  4  1  0
  7 11  1  0
  7  6  1  0
  7  8  1  1
  9  8  1  0
 10  9  2  0
 11 18  1  0
 12 11  2  0
 13  9  1  0
 15 16  1  1
 15 14  1  0
 17 19  1  0
 17 18  1  6
 17 15  1  0
 19 20  1  0
 21 19  2  0
M  END
$$$$
