ADV.pdb
     RDKit          3D

 21 20  0  0  1  0  0  0  0  0999 V2000
   17.5888  -11.2634  -17.8590 C   0  0  0  0  0  0  0  0  0  0  0  0
   18.4937  -11.0545  -16.6667 C   0  0  2  0  0  0  0  0  0  0  0  0
   17.8652  -11.6888  -15.5232 N   0  0  0  0  0  0  0  0  0  0  0  0
   18.6966   -9.6284  -16.3574 C   0  0  0  0  0  0  0  0  0  0  0  0
   19.3415   -8.8637  -17.1477 O   0  0  0  0  0  0  0  0  0  0  0  0
   18.1997   -9.0033  -15.1770 N   0  0  0  0  0  0  0  0  0  0  0  0
   18.2880   -7.5850  -14.9404 C   0  0  1  0  0  0  0  0  0  0  0  0
   17.1026   -7.1503  -14.1350 C   0  0  0  0  0  0  0  0  0  0  0  0
   15.8285   -7.1740  -14.8562 C   0  0  0  0  0  0  0  0  0  0  0  0
   14.8323   -7.8685  -14.6028 O   0  0  0  0  0  0  0  0  0  0  0  0
   19.5426   -7.2033  -14.2468 C   0  0  0  0  0  0  0  0  0  0  0  0
   19.7760   -7.7391  -13.1359 O   0  0  0  0  0  0  0  0  0  0  0  0
   15.7220   -6.3121  -15.9607 O   0  0  0  0  0  0  0  0  0  0  0  0
   22.9218   -7.3714  -15.9825 C   0  0  0  0  0  0  0  0  0  0  0  0
   22.8808   -6.0479  -15.2496 C   0  0  1  0  0  0  0  0  0  0  0  0
   22.5176   -4.9901  -16.2704 C   0  0  0  0  0  0  0  0  0  0  0  0
   21.8024   -6.0862  -14.1587 C   0  0  2  0  0  0  0  0  0  0  0  0
   20.4938   -6.2786  -14.7489 N   0  0  0  0  0  0  0  0  0  0  0  0
   21.7659   -4.8135  -13.4075 C   0  0  0  0  0  0  0  0  0  0  0  0
   22.6987   -4.4868  -12.4447 O   0  0  0  0  0  0  0  0  0  0  0  0
   20.8529   -3.9925  -13.6497 O   0  0  0  0  0  0  0  0  0  0  0  0
  2  1  1  6
  2  3  1  0
  4  2  1  0
  5  4  2  0
  6  4  1  0
  7 11  1  0
  7  6  1  0
  7  8  1  1
  9  8  1  0
 10  9  2  0
 11 18  1  0
 12 11  2  0
 13  9  1  0
 15 16  1  6
 15 14  1  0
 17 19  1  0
 17 18  1  6
 17 15  1  0
 19 20  1  0
 21 19  2  0
M  END
$$$$
