ADV.pdb
     RDKit          3D

 21 20  0  0  1  0  0  0  0  0999 V2000
   16.2064  -11.2860  -16.9886 C   0  0  0  0  0  0  0  0  0  0  0  0
   17.0147  -11.0069  -15.7425 C   0  0  2  0  0  0  0  0  0  0  0  0
   16.1305  -11.1624  -14.6027 N   0  0  0  0  0  0  0  0  0  0  0  0
   17.5659   -9.6407  -15.7237 C   0  0  0  0  0  0  0  0  0  0  0  0
   18.3965   -9.2485  -16.6077 O   0  0  0  0  0  0  0  0  0  0  0  0
   17.2229   -8.6699  -14.7383 N   0  0  0  0  0  0  0  0  0  0  0  0
   17.6768   -7.3036  -14.7877 C   0  0  1  0  0  0  0  0  0  0  0  0
   16.5879   -6.4094  -14.2801 C   0  0  0  0  0  0  0  0  0  0  0  0
   15.4516   -6.2487  -15.1895 C   0  0  0  0  0  0  0  0  0  0  0  0
   15.4886   -6.0494  -16.4133 O   0  0  0  0  0  0  0  0  0  0  0  0
   18.9181   -7.0900  -14.0039 C   0  0  0  0  0  0  0  0  0  0  0  0
   18.8967   -7.4047  -12.7889 O   0  0  0  0  0  0  0  0  0  0  0  0
   14.1741   -6.3295  -14.6101 O   0  0  0  0  0  0  0  0  0  0  0  0
   22.2142   -8.6599  -14.4409 C   0  0  0  0  0  0  0  0  0  0  0  0
   22.4926   -7.1724  -14.4341 C   0  0  1  0  0  0  0  0  0  0  0  0
   22.5812   -6.7342  -15.8809 C   0  0  0  0  0  0  0  0  0  0  0  0
   21.3384   -6.4262  -13.7518 C   0  0  2  0  0  0  0  0  0  0  0  0
   20.1232   -6.5572  -14.5289 N   0  0  0  0  0  0  0  0  0  0  0  0
   21.6370   -4.9829  -13.6378 C   0  0  0  0  0  0  0  0  0  0  0  0
   22.4920   -4.4695  -12.6842 O   0  0  0  0  0  0  0  0  0  0  0  0
   21.0948   -4.1866  -14.4367 O   0  0  0  0  0  0  0  0  0  0  0  0
  2  1  1  6
  2  3  1  0
  4  2  1  0
  5  4  2  0
  6  4  1  0
  7 11  1  0
  7  6  1  0
  7  8  1  1
  9  8  1  0
 10  9  2  0
 11 18  1  0
 12 11  2  0
 13  9  1  0
 15 16  1  6
 15 14  1  0
 17 19  1  0
 17 18  1  6
 17 15  1  0
 19 20  1  0
 21 19  2  0
M  END
$$$$
