ADV.pdb
     RDKit          3D

 21 20  0  0  1  0  0  0  0  0999 V2000
   16.7050  -12.5796  -19.0709 C   0  0  0  0  0  0  0  0  0  0  0  0
   17.5487  -12.3176  -17.8446 C   0  0  2  0  0  0  0  0  0  0  0  0
   16.7133  -12.5470  -16.6808 N   0  0  0  0  0  0  0  0  0  0  0  0
   18.0524  -10.9341  -17.7933 C   0  0  0  0  0  0  0  0  0  0  0  0
   18.8764  -10.4957  -18.6617 O   0  0  0  0  0  0  0  0  0  0  0  0
   17.6679   -9.9959  -16.7918 N   0  0  0  0  0  0  0  0  0  0  0  0
   18.1933   -8.6562  -16.7247 C   0  0  1  0  0  0  0  0  0  0  0  0
   17.0528   -7.6879  -16.6590 C   0  0  0  0  0  0  0  0  0  0  0  0
   17.4461   -6.2856  -16.5074 C   0  0  0  0  0  0  0  0  0  0  0  0
   18.2575   -5.6518  -17.1993 O   0  0  0  0  0  0  0  0  0  0  0  0
   19.0963   -8.4591  -15.5642 C   0  0  0  0  0  0  0  0  0  0  0  0
   18.6310   -8.6942  -14.4224 O   0  0  0  0  0  0  0  0  0  0  0  0
   16.8350   -5.5773  -15.4590 O   0  0  0  0  0  0  0  0  0  0  0  0
   22.1117  -10.2623  -14.5854 C   0  0  0  0  0  0  0  0  0  0  0  0
   22.5383   -8.8120  -14.6560 C   0  0  1  0  0  0  0  0  0  0  0  0
   23.1506   -8.5990  -16.0245 C   0  0  0  0  0  0  0  0  0  0  0  0
   21.3151   -7.8980  -14.5040 C   0  0  2  0  0  0  0  0  0  0  0  0
   20.4437   -8.0253  -15.6539 N   0  0  0  0  0  0  0  0  0  0  0  0
   21.7235   -6.4801  -14.4134 C   0  0  0  0  0  0  0  0  0  0  0  0
   22.3194   -5.9441  -13.2902 O   0  0  0  0  0  0  0  0  0  0  0  0
   21.5235   -5.7278  -15.3933 O   0  0  0  0  0  0  0  0  0  0  0  0
  2  1  1  6
  2  3  1  0
  4  2  1  0
  5  4  2  0
  6  4  1  0
  7 11  1  0
  7  6  1  0
  7  8  1  1
  9  8  1  0
 10  9  2  0
 11 18  1  0
 12 11  2  0
 13  9  1  0
 15 16  1  6
 15 14  1  0
 17 19  1  0
 17 18  1  6
 17 15  1  0
 19 20  1  0
 21 19  2  0
M  END
$$$$
