ADV.pdb
     RDKit          3D

 21 20  0  0  1  0  0  0  0  0999 V2000
   17.4903  -11.6915  -14.7927 C   0  0  0  0  0  0  0  0  0  0  0  0
   16.3935  -11.0817  -13.9505 C   0  0  2  0  0  0  0  0  0  0  0  0
   15.2883  -10.7624  -14.8347 N   0  0  0  0  0  0  0  0  0  0  0  0
   16.8242   -9.8452  -13.2751 C   0  0  0  0  0  0  0  0  0  0  0  0
   17.7157   -9.8632  -12.3641 O   0  0  0  0  0  0  0  0  0  0  0  0
   16.2912   -8.5589  -13.5790 N   0  0  0  0  0  0  0  0  0  0  0  0
   16.7026   -7.3560  -12.9013 C   0  0  1  0  0  0  0  0  0  0  0  0
   17.0943   -6.3315  -13.9210 C   0  0  0  0  0  0  0  0  0  0  0  0
   17.4744   -5.0298  -13.3687 C   0  0  0  0  0  0  0  0  0  0  0  0
   17.0908   -3.9113  -13.7438 O   0  0  0  0  0  0  0  0  0  0  0  0
   15.6431   -6.8139  -12.0157 C   0  0  0  0  0  0  0  0  0  0  0  0
   14.4995   -6.6584  -12.5094 O   0  0  0  0  0  0  0  0  0  0  0  0
   18.3760   -5.0498  -12.2912 O   0  0  0  0  0  0  0  0  0  0  0  0
   13.8510   -7.9779   -9.0888 C   0  0  0  0  0  0  0  0  0  0  0  0
   14.4566   -6.6666   -8.6373 C   0  0  1  0  0  0  0  0  0  0  0  0
   15.7233   -7.0042   -7.8793 C   0  0  0  0  0  0  0  0  0  0  0  0
   14.8137   -5.8068   -9.8570 C   0  0  2  0  0  0  0  0  0  0  0  0
   15.8306   -6.4601  -10.6550 N   0  0  0  0  0  0  0  0  0  0  0  0
   15.3542   -4.4959   -9.4389 C   0  0  0  0  0  0  0  0  0  0  0  0
   14.5819   -3.5294   -8.8278 O   0  0  0  0  0  0  0  0  0  0  0  0
   16.5629   -4.2449   -9.6447 O   0  0  0  0  0  0  0  0  0  0  0  0
  2  1  1  6
  2  3  1  0
  4  2  1  0
  5  4  2  0
  6  4  1  0
  7 11  1  0
  7  6  1  0
  7  8  1  6
  9  8  1  0
 10  9  2  0
 11 18  1  0
 12 11  2  0
 13  9  1  0
 15 16  1  6
 15 14  1  0
 17 19  1  0
 17 18  1  1
 17 15  1  0
 19 20  1  0
 21 19  2  0
M  END
$$$$
