TCD.pdb
     RDKit          3D

 22 21  0  0  1  0  0  0  0  0999 V2000
   19.8718   -9.6856  -19.1362 C   0  0  0  0  0  0  0  0  0  0  0  0
   19.2413  -11.0038  -18.7676 C   0  0  1  0  0  0  0  0  0  0  0  0
   18.9525  -11.7010  -19.9218 O   0  0  0  0  0  0  0  0  0  0  0  0
   20.1866  -11.8176  -17.8750 C   0  0  2  0  0  0  0  0  0  0  0  0
   19.6681  -13.1390  -17.6527 N   0  0  0  0  0  0  0  0  0  0  0  0
   20.4130  -11.1093  -16.5973 C   0  0  0  0  0  0  0  0  0  0  0  0
   19.4512  -10.9746  -15.7784 O   0  0  0  0  0  0  0  0  0  0  0  0
   21.6553  -10.5534  -16.2039 N   0  0  0  0  0  0  0  0  0  0  0  0
   21.8046   -9.7436  -14.9962 C   0  0  1  0  0  0  0  0  0  0  0  0
   23.0517  -10.1703  -14.2336 C   0  0  0  0  0  0  0  0  0  0  0  0
   23.2547   -9.2498  -12.6955 S   0  0  0  0  0  0  0  0  0  0  0  0
   21.8537   -8.3101  -15.2976 C   0  0  0  0  0  0  0  0  0  0  0  0
   22.5211   -7.8209  -16.2487 O   0  0  0  0  0  0  0  0  0  0  0  0
   21.1177   -7.4200  -14.4847 N   0  0  0  0  0  0  0  0  0  0  0  0
   21.1793   -5.9786  -14.7202 C   0  0  1  0  0  0  0  0  0  0  0  0
   19.8199   -5.3858  -14.8838 C   0  0  0  0  0  0  0  0  0  0  0  0
   19.9365   -3.9421  -15.1750 C   0  0  0  0  0  0  0  0  0  0  0  0
   21.0008   -3.4215  -15.6372 O   0  0  0  0  0  0  0  0  0  0  0  0
   21.8468   -5.3811  -13.5574 C   0  0  0  0  0  0  0  0  0  0  0  0
   22.1420   -6.1327  -12.4446 O   0  0  0  0  0  0  0  0  0  0  0  0
   18.8931   -3.0388  -14.9678 O   0  0  0  0  0  0  0  0  0  0  0  0
   22.1538   -4.1771  -13.5693 O   0  0  0  0  0  0  0  0  0  0  0  0
  2  1  1  6
  2  4  1  0
  3  2  1  0
  4  5  1  1
  6  8  1  0
  6  4  1  0
  7  6  2  0
  9  8  1  0
  9 12  1  0
  9 10  1  6
 11 10  1  0
 12 14  1  0
 12 13  2  0
 14 15  1  0
 15 19  1  0
 15 16  1  1
 16 17  1  0
 17 21  1  0
 18 17  2  0
 19 20  1  0
 22 19  2  0
M  END
$$$$
