TCD.pdb
     RDKit          3D

 22 21  0  0  1  0  0  0  0  0999 V2000
   16.1731  -11.9435  -11.5695 C   0  0  0  0  0  0  0  0  0  0  0  0
   14.6712  -12.0532  -11.6276 C   0  0  1  0  0  0  0  0  0  0  0  0
   14.3188  -13.3864  -11.6306 O   0  0  0  0  0  0  0  0  0  0  0  0
   14.0361  -11.3362  -10.4296 C   0  0  2  0  0  0  0  0  0  0  0  0
   12.6201  -11.5752  -10.3832 N   0  0  0  0  0  0  0  0  0  0  0  0
   14.3331   -9.8892  -10.4887 C   0  0  0  0  0  0  0  0  0  0  0  0
   13.8412   -9.1880  -11.4268 O   0  0  0  0  0  0  0  0  0  0  0  0
   15.1470   -9.2042   -9.5531 N   0  0  0  0  0  0  0  0  0  0  0  0
   15.5117   -7.7977   -9.7128 C   0  0  1  0  0  0  0  0  0  0  0  0
   15.2964   -7.0516   -8.4030 C   0  0  0  0  0  0  0  0  0  0  0  0
   16.0578   -5.4163   -8.4205 S   0  0  0  0  0  0  0  0  0  0  0  0
   16.8939   -7.6367  -10.1731 C   0  0  0  0  0  0  0  0  0  0  0  0
   17.8724   -8.2496   -9.6669 O   0  0  0  0  0  0  0  0  0  0  0  0
   17.1549   -6.7492  -11.2404 N   0  0  0  0  0  0  0  0  0  0  0  0
   18.4903   -6.6718  -11.8298 C   0  0  1  0  0  0  0  0  0  0  0  0
   18.9210   -7.9819  -12.3991 C   0  0  0  0  0  0  0  0  0  0  0  0
   20.1985   -7.8162  -13.1225 C   0  0  0  0  0  0  0  0  0  0  0  0
   21.0180   -6.8806  -12.8574 O   0  0  0  0  0  0  0  0  0  0  0  0
   18.4332   -5.6611  -12.8928 C   0  0  0  0  0  0  0  0  0  0  0  0
   19.5707   -5.2602  -13.5529 O   0  0  0  0  0  0  0  0  0  0  0  0
   20.6063   -8.6693  -14.1490 O   0  0  0  0  0  0  0  0  0  0  0  0
   17.3437   -5.1535  -13.2081 O   0  0  0  0  0  0  0  0  0  0  0  0
  2  1  1  1
  2  4  1  0
  3  2  1  0
  4  5  1  6
  6  8  1  0
  6  4  1  0
  7  6  2  0
  9  8  1  0
  9 12  1  0
  9 10  1  1
 11 10  1  0
 12 14  1  0
 12 13  2  0
 14 15  1  0
 15 19  1  0
 15 16  1  6
 16 17  1  0
 17 21  1  0
 18 17  2  0
 19 20  1  0
 22 19  2  0
M  END
$$$$
