TCD.pdb
     RDKit          3D

 22 21  0  0  1  0  0  0  0  0999 V2000
   26.5256  -35.1063   -8.2952 C   0  0  0  0  0  0  0  0  0  0  0  0
   26.3660  -33.8030   -9.0350 C   0  0  1  0  0  0  0  0  0  0  0  0
   26.3922  -34.0512  -10.3912 O   0  0  0  0  0  0  0  0  0  0  0  0
   25.0483  -33.1232   -8.6424 C   0  0  2  0  0  0  0  0  0  0  0  0
   24.8855  -31.8805   -9.3447 N   0  0  0  0  0  0  0  0  0  0  0  0
   24.9979  -32.9216   -7.1787 C   0  0  0  0  0  0  0  0  0  0  0  0
   25.5000  -31.8689   -6.6752 O   0  0  0  0  0  0  0  0  0  0  0  0
   24.4162  -33.8376   -6.2679 N   0  0  0  0  0  0  0  0  0  0  0  0
   24.4046  -33.6077   -4.8244 C   0  0  1  0  0  0  0  0  0  0  0  0
   22.9708  -33.4713   -4.3300 C   0  0  0  0  0  0  0  0  0  0  0  0
   22.8940  -32.8992   -2.6209 S   0  0  0  0  0  0  0  0  0  0  0  0
   25.1001  -34.6701   -4.0926 C   0  0  0  0  0  0  0  0  0  0  0  0
   24.8548  -35.8972   -4.2461 O   0  0  0  0  0  0  0  0  0  0  0  0
   26.1005  -34.3110   -3.1625 N   0  0  0  0  0  0  0  0  0  0  0  0
   26.8158  -35.3398   -2.4096 C   0  0  1  0  0  0  0  0  0  0  0  0
   28.1132  -34.8331   -1.8750 C   0  0  0  0  0  0  0  0  0  0  0  0
   28.8335  -35.9275   -1.1922 C   0  0  0  0  0  0  0  0  0  0  0  0
   28.8048  -36.0821    0.0698 O   0  0  0  0  0  0  0  0  0  0  0  0
   25.9439  -35.7452   -1.3004 C   0  0  0  0  0  0  0  0  0  0  0  0
   25.8801  -37.0559   -0.8904 O   0  0  0  0  0  0  0  0  0  0  0  0
   29.5985  -36.8748   -1.8740 O   0  0  0  0  0  0  0  0  0  0  0  0
   25.2482  -34.8972   -0.7166 O   0  0  0  0  0  0  0  0  0  0  0  0
  2  1  1  1
  2  4  1  0
  3  2  1  0
  4  5  1  6
  6  8  1  0
  6  4  1  0
  7  6  2  0
  9  8  1  0
  9 12  1  0
  9 10  1  1
 11 10  1  0
 12 14  1  0
 12 13  2  0
 14 15  1  0
 15 19  1  0
 15 16  1  1
 16 17  1  0
 17 21  1  0
 18 17  2  0
 19 20  1  0
 22 19  2  0
M  END
$$$$
