TCD.pdb
     RDKit          3D

 22 21  0  0  1  0  0  0  0  0999 V2000
   18.4531  -10.6992  -19.7570 C   0  0  0  0  0  0  0  0  0  0  0  0
   18.8720   -9.8931  -18.5546 C   0  0  1  0  0  0  0  0  0  0  0  0
   17.7995   -9.1414  -18.1230 O   0  0  0  0  0  0  0  0  0  0  0  0
   19.3598  -10.8194  -17.4335 C   0  0  2  0  0  0  0  0  0  0  0  0
   18.3223  -11.7301  -17.0356 N   0  0  0  0  0  0  0  0  0  0  0  0
   19.8386  -10.0190  -16.2865 C   0  0  0  0  0  0  0  0  0  0  0  0
   19.0622   -9.8097  -15.3030 O   0  0  0  0  0  0  0  0  0  0  0  0
   21.1334   -9.4512  -16.1964 N   0  0  0  0  0  0  0  0  0  0  0  0
   21.5277   -8.5679  -15.1006 C   0  0  1  0  0  0  0  0  0  0  0  0
   22.9184   -8.9410  -14.6051 C   0  0  0  0  0  0  0  0  0  0  0  0
   22.9279  -10.5225  -13.7374 S   0  0  0  0  0  0  0  0  0  0  0  0
   21.4842   -7.1555  -15.4897 C   0  0  0  0  0  0  0  0  0  0  0  0
   21.8257   -6.7360  -16.6285 O   0  0  0  0  0  0  0  0  0  0  0  0
   21.0376   -6.2047  -14.5456 N   0  0  0  0  0  0  0  0  0  0  0  0
   21.0134   -4.7822  -14.8813 C   0  0  1  0  0  0  0  0  0  0  0  0
   19.8270   -4.0947  -14.2932 C   0  0  0  0  0  0  0  0  0  0  0  0
   19.8433   -2.6649  -14.6649 C   0  0  0  0  0  0  0  0  0  0  0  0
   20.6777   -2.1838  -15.4954 O   0  0  0  0  0  0  0  0  0  0  0  0
   22.2468   -4.1931  -14.3461 C   0  0  0  0  0  0  0  0  0  0  0  0
   23.0337   -3.3710  -15.1177 O   0  0  0  0  0  0  0  0  0  0  0  0
   18.9486   -1.7327  -14.1375 O   0  0  0  0  0  0  0  0  0  0  0  0
   22.5939   -4.4356  -13.1779 O   0  0  0  0  0  0  0  0  0  0  0  0
  2  1  1  6
  2  4  1  0
  3  2  1  0
  4  5  1  1
  6  8  1  0
  6  4  1  0
  7  6  2  0
  9  8  1  0
  9 12  1  0
  9 10  1  6
 11 10  1  0
 12 14  1  0
 12 13  2  0
 14 15  1  0
 15 19  1  0
 15 16  1  1
 16 17  1  0
 17 21  1  0
 18 17  2  0
 19 20  1  0
 22 19  2  0
M  END
$$$$
