TCD.pdb
     RDKit          3D

 22 21  0  0  1  0  0  0  0  0999 V2000
   18.3518  -11.7674  -19.6917 C   0  0  0  0  0  0  0  0  0  0  0  0
   18.8220  -10.9900  -18.4892 C   0  0  1  0  0  0  0  0  0  0  0  0
   17.7286  -10.6438  -17.7236 O   0  0  0  0  0  0  0  0  0  0  0  0
   19.8080  -11.8263  -17.6640 C   0  0  2  0  0  0  0  0  0  0  0  0
   19.1639  -12.9933  -17.1277 N   0  0  0  0  0  0  0  0  0  0  0  0
   20.3992  -11.0000  -16.5902 C   0  0  0  0  0  0  0  0  0  0  0  0
   19.9525  -11.1020  -15.4053 O   0  0  0  0  0  0  0  0  0  0  0  0
   21.4559  -10.0769  -16.7856 N   0  0  0  0  0  0  0  0  0  0  0  0
   22.0054   -9.2719  -15.6962 C   0  0  1  0  0  0  0  0  0  0  0  0
   23.4614   -9.6467  -15.4544 C   0  0  0  0  0  0  0  0  0  0  0  0
   23.6981  -10.4550  -13.8592 S   0  0  0  0  0  0  0  0  0  0  0  0
   21.8829   -7.8350  -15.9580 C   0  0  0  0  0  0  0  0  0  0  0  0
   22.2525   -7.2889  -17.0325 O   0  0  0  0  0  0  0  0  0  0  0  0
   21.3224   -7.0084  -14.9593 N   0  0  0  0  0  0  0  0  0  0  0  0
   21.2034   -5.5670  -15.1713 C   0  0  1  0  0  0  0  0  0  0  0  0
   19.7883   -5.1066  -15.0642 C   0  0  0  0  0  0  0  0  0  0  0  0
   19.7261   -3.6404  -15.2344 C   0  0  0  0  0  0  0  0  0  0  0  0
   20.6439   -2.9800  -15.8165 O   0  0  0  0  0  0  0  0  0  0  0  0
   22.0199   -4.9122  -14.1420 C   0  0  0  0  0  0  0  0  0  0  0  0
   22.3516   -3.5815  -14.2395 O   0  0  0  0  0  0  0  0  0  0  0  0
   18.6602   -2.8667  -14.7728 O   0  0  0  0  0  0  0  0  0  0  0  0
   22.4229   -5.5629  -13.1632 O   0  0  0  0  0  0  0  0  0  0  0  0
  2  1  1  6
  2  4  1  0
  3  2  1  0
  4  5  1  1
  6  8  1  0
  6  4  1  0
  7  6  2  0
  9  8  1  0
  9 12  1  0
  9 10  1  6
 11 10  1  0
 12 14  1  0
 12 13  2  0
 14 15  1  0
 15 19  1  0
 15 16  1  1
 16 17  1  0
 17 21  1  0
 18 17  2  0
 19 20  1  0
 22 19  2  0
M  END
$$$$
