TCD.pdb
     RDKit          3D

 22 21  0  0  1  0  0  0  0  0999 V2000
   18.1633   -9.4851  -18.1194 C   0  0  0  0  0  0  0  0  0  0  0  0
   17.9216  -10.6397  -17.1814 C   0  0  1  0  0  0  0  0  0  0  0  0
   17.0123  -11.5020  -17.7569 O   0  0  0  0  0  0  0  0  0  0  0  0
   19.2364  -11.3713  -16.8841 C   0  0  2  0  0  0  0  0  0  0  0  0
   18.9958  -12.5647  -16.1210 N   0  0  0  0  0  0  0  0  0  0  0  0
   20.1728  -10.4673  -16.1833 C   0  0  0  0  0  0  0  0  0  0  0  0
   19.9643  -10.1738  -14.9650 O   0  0  0  0  0  0  0  0  0  0  0  0
   21.3178   -9.8863  -16.7821 N   0  0  0  0  0  0  0  0  0  0  0  0
   22.1689   -8.9277  -16.0797 C   0  0  1  0  0  0  0  0  0  0  0  0
   23.5922   -9.0042  -16.6156 C   0  0  0  0  0  0  0  0  0  0  0  0
   24.6473   -7.7141  -15.9253 S   0  0  0  0  0  0  0  0  0  0  0  0
   21.6559   -7.5586  -16.1818 C   0  0  0  0  0  0  0  0  0  0  0  0
   21.3827   -6.9970  -17.2770 O   0  0  0  0  0  0  0  0  0  0  0  0
   21.4533   -6.8193  -14.9955 N   0  0  0  0  0  0  0  0  0  0  0  0
   21.0070   -5.4287  -15.0562 C   0  0  1  0  0  0  0  0  0  0  0  0
   19.5552   -5.2988  -14.7377 C   0  0  0  0  0  0  0  0  0  0  0  0
   19.1634   -3.8746  -14.7653 C   0  0  0  0  0  0  0  0  0  0  0  0
   19.8727   -2.9811  -15.3275 O   0  0  0  0  0  0  0  0  0  0  0  0
   21.8014   -4.6789  -14.0756 C   0  0  0  0  0  0  0  0  0  0  0  0
   21.7116   -3.3098  -13.9873 O   0  0  0  0  0  0  0  0  0  0  0  0
   17.9894   -3.3983  -14.1802 O   0  0  0  0  0  0  0  0  0  0  0  0
   22.5707   -5.2825  -13.3089 O   0  0  0  0  0  0  0  0  0  0  0  0
  2  1  1  6
  2  4  1  0
  3  2  1  0
  4  5  1  1
  6  8  1  0
  6  4  1  0
  7  6  2  0
  9  8  1  0
  9 12  1  0
  9 10  1  6
 11 10  1  0
 12 14  1  0
 12 13  2  0
 14 15  1  0
 15 19  1  0
 15 16  1  1
 16 17  1  0
 17 21  1  0
 18 17  2  0
 19 20  1  0
 22 19  2  0
M  END
$$$$
