FLL.pdb
     RDKit          3D

 28 28  0  0  1  0  0  0  0  0999 V2000
   10.7981  -15.9922   19.5563 N   0  0  0  0  0  0  0  0  0  0  0  0
    9.8433  -16.5552   20.5090 C   0  0  1  0  0  0  0  0  0  0  0  0
   10.2514  -18.0009   20.7131 C   0  0  0  0  0  0  0  0  0  0  0  0
    9.3988  -18.8242   19.7858 C   0  0  0  0  0  0  0  0  0  0  0  0
    8.5102  -18.2281   18.9195 C   0  0  0  0  0  0  0  0  0  0  0  0
    7.7357  -18.9827   18.0766 C   0  0  0  0  0  0  0  0  0  0  0  0
    7.8216  -20.3530   18.0700 C   0  0  0  0  0  0  0  0  0  0  0  0
    8.7004  -20.9691   18.9249 C   0  0  0  0  0  0  0  0  0  0  0  0
    9.4722  -20.1978   19.7662 C   0  0  0  0  0  0  0  0  0  0  0  0
    9.8885  -15.7773   21.7537 C   0  0  0  0  0  0  0  0  0  0  0  0
   10.9492  -15.2275   22.1399 O   0  0  0  0  0  0  0  0  0  0  0  0
    5.7468  -13.4382   25.5982 C   0  0  0  0  0  0  0  0  0  0  0  0
    7.2670  -13.6494   25.4108 C   0  0  2  0  0  0  0  0  0  0  0  0
    7.8509  -12.2607   25.4217 C   0  0  0  0  0  0  0  0  0  0  0  0
    7.4124  -14.3981   24.1406 C   0  0  0  0  0  0  0  0  0  0  0  0
    8.7952  -14.8107   23.7458 C   0  0  2  0  0  0  0  0  0  0  0  0
    8.7319  -15.6243   22.5579 N   0  0  0  0  0  0  0  0  0  0  0  0
    9.3010  -15.7186   24.8418 C   0  0  0  0  0  0  0  0  0  0  0  0
    9.2206  -16.9714   24.7748 O   0  0  0  0  0  0  0  0  0  0  0  0
   10.7872  -13.1200   29.2953 C   0  0  0  0  0  0  0  0  0  0  0  0
   10.5135  -14.5818   28.9576 C   0  0  2  0  0  0  0  0  0  0  0  0
   10.3387  -15.4038   30.1920 C   0  0  0  0  0  0  0  0  0  0  0  0
   11.4271  -15.1470   27.9398 C   0  0  0  0  0  0  0  0  0  0  0  0
   10.8473  -15.9357   26.8332 C   0  0  2  0  0  0  0  0  0  0  0  0
    9.9011  -15.1856   26.0187 N   0  0  0  0  0  0  0  0  0  0  0  0
   10.3004  -17.2615   27.1984 C   0  0  0  0  0  0  0  0  0  0  0  0
   10.9977  -18.2120   27.6245 O   0  0  0  0  0  0  0  0  0  0  0  0
    8.9396  -17.5011   27.0737 O   0  0  0  0  0  0  0  0  0  0  0  0
  2  1  1  6
  2  3  1  0
  4  3  1  0
  4  9  2  0
  5  4  1  0
  6  5  2  0
  6  7  1  0
  7  8  2  0
  8  9  1  0
 10  2  1  0
 10 17  1  0
 11 10  2  0
 13 14  1  6
 13 12  1  0
 15 13  1  0
 16 15  1  1
 17 16  1  0
 18 16  1  0
 19 18  2  0
 21 20  1  1
 21 23  1  0
 22 21  1  0
 24 23  1  1
 24 26  1  0
 24 25  1  0
 25 18  1  0
 26 28  1  0
 27 26  2  0
M  END
$$$$
