FLL.pdb
     RDKit          3D

 28 28  0  0  1  0  0  0  0  0999 V2000
    5.7677  -18.9606   24.1874 N   0  0  0  0  0  0  0  0  0  0  0  0
    6.0831  -17.5802   24.5495 C   0  0  1  0  0  0  0  0  0  0  0  0
    6.4150  -17.5956   26.0286 C   0  0  0  0  0  0  0  0  0  0  0  0
    6.5562  -16.1589   26.4534 C   0  0  0  0  0  0  0  0  0  0  0  0
    7.5337  -15.7731   27.3428 C   0  0  0  0  0  0  0  0  0  0  0  0
    7.6582  -14.4628   27.7267 C   0  0  0  0  0  0  0  0  0  0  0  0
    6.8141  -13.4966   27.2374 C   0  0  0  0  0  0  0  0  0  0  0  0
    5.8322  -13.8579   26.3497 C   0  0  0  0  0  0  0  0  0  0  0  0
    5.7192  -15.1784   25.9731 C   0  0  0  0  0  0  0  0  0  0  0  0
    7.2050  -17.1102   23.7267 C   0  0  0  0  0  0  0  0  0  0  0  0
    8.1352  -17.8838   23.3908 O   0  0  0  0  0  0  0  0  0  0  0  0
    8.3126  -12.0172   20.4902 C   0  0  0  0  0  0  0  0  0  0  0  0
    8.7319  -13.4949   20.6682 C   0  0  2  0  0  0  0  0  0  0  0  0
    8.3821  -14.1527   19.3589 C   0  0  0  0  0  0  0  0  0  0  0  0
    7.9858  -13.9817   21.8520 C   0  0  0  0  0  0  0  0  0  0  0  0
    8.2376  -15.3912   22.2855 C   0  0  2  0  0  0  0  0  0  0  0  0
    7.2704  -15.7649   23.2865 N   0  0  0  0  0  0  0  0  0  0  0  0
    9.5767  -15.3921   22.9842 C   0  0  0  0  0  0  0  0  0  0  0  0
   10.6651  -15.2935   22.3630 O   0  0  0  0  0  0  0  0  0  0  0  0
   10.4395  -12.7871   26.2469 C   0  0  0  0  0  0  0  0  0  0  0  0
   10.0312  -14.0788   26.9474 C   0  0  2  0  0  0  0  0  0  0  0  0
    9.8752  -13.8761   28.4187 C   0  0  0  0  0  0  0  0  0  0  0  0
   10.8285  -15.2597   26.5479 C   0  0  0  0  0  0  0  0  0  0  0  0
   10.9355  -15.5838   25.1104 C   0  0  2  0  0  0  0  0  0  0  0  0
    9.6656  -15.5068   24.4014 N   0  0  0  0  0  0  0  0  0  0  0  0
   11.6544  -16.8343   24.7791 C   0  0  0  0  0  0  0  0  0  0  0  0
   11.1850  -17.7378   24.0480 O   0  0  0  0  0  0  0  0  0  0  0  0
   12.9252  -17.0522   25.2914 O   0  0  0  0  0  0  0  0  0  0  0  0
  2  1  1  6
  2  3  1  0
  4  3  1  0
  4  9  2  0
  5  4  1  0
  6  5  2  0
  6  7  1  0
  7  8  2  0
  8  9  1  0
 10  2  1  0
 10 17  1  0
 11 10  2  0
 13 14  1  6
 13 12  1  0
 15 13  1  0
 16 15  1  1
 17 16  1  0
 18 16  1  0
 19 18  2  0
 21 20  1  1
 21 23  1  0
 22 21  1  0
 24 23  1  1
 24 26  1  0
 24 25  1  0
 25 18  1  0
 26 28  1  0
 27 26  2  0
M  END
$$$$
