FLL.pdb
     RDKit          3D

 28 28  0  0  1  0  0  0  0  0999 V2000
    6.8153  -16.7378   25.7942 N   0  0  0  0  0  0  0  0  0  0  0  0
    6.1084  -16.8926   24.5243 C   0  0  1  0  0  0  0  0  0  0  0  0
    5.0663  -15.7924   24.4829 C   0  0  0  0  0  0  0  0  0  0  0  0
    5.6874  -14.5861   25.1339 C   0  0  0  0  0  0  0  0  0  0  0  0
    6.4698  -13.7126   24.4126 C   0  0  0  0  0  0  0  0  0  0  0  0
    7.0334  -12.6149   25.0105 C   0  0  0  0  0  0  0  0  0  0  0  0
    6.8358  -12.3531   26.3437 C   0  0  0  0  0  0  0  0  0  0  0  0
    6.0595  -13.2100   27.0826 C   0  0  0  0  0  0  0  0  0  0  0  0
    5.4997  -14.3089   26.4683 C   0  0  0  0  0  0  0  0  0  0  0  0
    7.0724  -16.7955   23.4208 C   0  0  0  0  0  0  0  0  0  0  0  0
    7.0619  -17.6185   22.4726 O   0  0  0  0  0  0  0  0  0  0  0  0
    7.7061  -14.8535   20.0528 C   0  0  0  0  0  0  0  0  0  0  0  0
    8.1719  -13.9630   21.2280 C   0  0  2  0  0  0  0  0  0  0  0  0
    8.3819  -12.6019   20.6174 C   0  0  0  0  0  0  0  0  0  0  0  0
    9.3851  -14.6190   21.7693 C   0  0  0  0  0  0  0  0  0  0  0  0
    9.1909  -15.8936   22.5281 C   0  0  2  0  0  0  0  0  0  0  0  0
    8.0459  -15.7662   23.3942 N   0  0  0  0  0  0  0  0  0  0  0  0
   10.3857  -16.0352   23.4413 C   0  0  0  0  0  0  0  0  0  0  0  0
   11.5678  -16.0463   23.0136 O   0  0  0  0  0  0  0  0  0  0  0  0
   10.3916  -14.4731   29.0404 C   0  0  0  0  0  0  0  0  0  0  0  0
   10.8521  -14.6441   27.5967 C   0  0  2  0  0  0  0  0  0  0  0  0
   10.0707  -13.7743   26.6677 C   0  0  0  0  0  0  0  0  0  0  0  0
   11.0019  -16.0545   27.1744 C   0  0  0  0  0  0  0  0  0  0  0  0
   11.3430  -16.3352   25.7645 C   0  0  2  0  0  0  0  0  0  0  0  0
   10.2220  -16.1645   24.8504 N   0  0  0  0  0  0  0  0  0  0  0  0
   12.0477  -17.6114   25.5092 C   0  0  0  0  0  0  0  0  0  0  0  0
   13.2665  -17.7946   25.7375 O   0  0  0  0  0  0  0  0  0  0  0  0
   11.3482  -18.6894   24.9863 O   0  0  0  0  0  0  0  0  0  0  0  0
  2  1  1  1
  2  3  1  0
  4  3  1  0
  4  9  2  0
  5  4  1  0
  6  5  2  0
  6  7  1  0
  7  8  2  0
  8  9  1  0
 10  2  1  0
 10 17  1  0
 11 10  2  0
 13 14  1  6
 13 12  1  0
 15 13  1  0
 16 15  1  1
 17 16  1  0
 18 16  1  0
 19 18  2  0
 21 20  1  1
 21 23  1  0
 22 21  1  0
 24 23  1  1
 24 26  1  0
 24 25  1  0
 25 18  1  0
 26 28  1  0
 27 26  2  0
M  END
$$$$
