FLL.pdb
     RDKit          3D

 28 28  0  0  1  0  0  0  0  0999 V2000
    8.0505  -17.3609   21.6864 N   0  0  0  0  0  0  0  0  0  0  0  0
    9.3444  -16.6831   21.6361 C   0  0  1  0  0  0  0  0  0  0  0  0
    9.4228  -16.0208   20.2747 C   0  0  0  0  0  0  0  0  0  0  0  0
    8.4271  -14.8925   20.2866 C   0  0  0  0  0  0  0  0  0  0  0  0
    7.0760  -15.1375   20.3869 C   0  0  0  0  0  0  0  0  0  0  0  0
    6.1729  -14.1059   20.3973 C   0  0  0  0  0  0  0  0  0  0  0  0
    6.5863  -12.7997   20.3083 C   0  0  0  0  0  0  0  0  0  0  0  0
    7.9282  -12.5315   20.2075 C   0  0  0  0  0  0  0  0  0  0  0  0
    8.8241  -13.5782   20.1983 C   0  0  0  0  0  0  0  0  0  0  0  0
    9.4249  -15.7151   22.7375 C   0  0  0  0  0  0  0  0  0  0  0  0
   10.4273  -14.9724   22.8797 O   0  0  0  0  0  0  0  0  0  0  0  0
    5.6259  -12.7645   26.3971 C   0  0  0  0  0  0  0  0  0  0  0  0
    7.1247  -13.0944   26.2079 C   0  0  2  0  0  0  0  0  0  0  0  0
    7.7841  -11.7601   25.9748 C   0  0  0  0  0  0  0  0  0  0  0  0
    7.1836  -14.0474   25.0750 C   0  0  0  0  0  0  0  0  0  0  0  0
    8.5076  -14.6798   24.7832 C   0  0  2  0  0  0  0  0  0  0  0  0
    8.3698  -15.5910   23.6751 N   0  0  0  0  0  0  0  0  0  0  0  0
    8.8477  -15.5347   25.9811 C   0  0  0  0  0  0  0  0  0  0  0  0
    9.0196  -15.0538   27.1298 O   0  0  0  0  0  0  0  0  0  0  0  0
    6.4270  -18.3941   28.0395 C   0  0  0  0  0  0  0  0  0  0  0  0
    7.1728  -19.0266   26.8693 C   0  0  2  0  0  0  0  0  0  0  0  0
    6.5385  -20.3112   26.4480 C   0  0  0  0  0  0  0  0  0  0  0  0
    8.6420  -19.0680   27.0420 C   0  0  0  0  0  0  0  0  0  0  0  0
    9.3959  -17.7995   26.9679 C   0  0  2  0  0  0  0  0  0  0  0  0
    8.9908  -16.9468   25.8589 N   0  0  0  0  0  0  0  0  0  0  0  0
   10.8696  -17.9157   27.0386 C   0  0  0  0  0  0  0  0  0  0  0  0
   11.4813  -18.4971   27.9654 O   0  0  0  0  0  0  0  0  0  0  0  0
   11.6512  -17.3593   26.0363 O   0  0  0  0  0  0  0  0  0  0  0  0
  2  1  1  6
  2  3  1  0
  4  3  1  0
  4  9  2  0
  5  4  1  0
  6  5  2  0
  6  7  1  0
  7  8  2  0
  8  9  1  0
 10  2  1  0
 10 17  1  0
 11 10  2  0
 13 14  1  6
 13 12  1  0
 15 13  1  0
 16 15  1  1
 17 16  1  0
 18 16  1  0
 19 18  2  0
 21 20  1  1
 21 23  1  0
 22 21  1  0
 24 23  1  6
 24 26  1  0
 24 25  1  0
 25 18  1  0
 26 28  1  0
 27 26  2  0
M  END
$$$$
