FLL.pdb
     RDKit          3D

 28 28  0  0  1  0  0  0  0  0999 V2000
    7.5559  -18.6135   21.1193 N   0  0  0  0  0  0  0  0  0  0  0  0
    9.0163  -18.6705   21.1147 C   0  0  1  0  0  0  0  0  0  0  0  0
    9.4133  -19.2467   19.7699 C   0  0  0  0  0  0  0  0  0  0  0  0
    8.8821  -20.6541   19.7305 C   0  0  0  0  0  0  0  0  0  0  0  0
    9.3753  -21.6242   20.5737 C   0  0  0  0  0  0  0  0  0  0  0  0
    8.8878  -22.9051   20.5339 C   0  0  0  0  0  0  0  0  0  0  0  0
    7.8951  -23.2597   19.6541 C   0  0  0  0  0  0  0  0  0  0  0  0
    7.3882  -22.3094   18.8040 C   0  0  0  0  0  0  0  0  0  0  0  0
    7.8879  -21.0263   18.8554 C   0  0  0  0  0  0  0  0  0  0  0  0
    9.5524  -17.3201   21.3279 C   0  0  0  0  0  0  0  0  0  0  0  0
   10.7667  -17.0639   21.1374 O   0  0  0  0  0  0  0  0  0  0  0  0
    8.8208  -13.5652   19.1272 C   0  0  0  0  0  0  0  0  0  0  0  0
    7.6913  -14.0739   20.0527 C   0  0  2  0  0  0  0  0  0  0  0  0
    6.5033  -13.2104   19.7175 C   0  0  0  0  0  0  0  0  0  0  0  0
    8.2150  -13.9399   21.4322 C   0  0  0  0  0  0  0  0  0  0  0  0
    9.2474  -14.9301   21.8696 C   0  0  2  0  0  0  0  0  0  0  0  0
    8.7114  -16.2632   21.7564 N   0  0  0  0  0  0  0  0  0  0  0  0
    9.4668  -14.6971   23.3458 C   0  0  0  0  0  0  0  0  0  0  0  0
   10.2995  -13.8633   23.7837 O   0  0  0  0  0  0  0  0  0  0  0  0
    8.7614  -12.1659   26.4301 C   0  0  0  0  0  0  0  0  0  0  0  0
    7.5716  -13.0320   26.0303 C   0  0  2  0  0  0  0  0  0  0  0  0
    6.2804  -12.4192   26.4629 C   0  0  0  0  0  0  0  0  0  0  0  0
    7.7351  -14.4672   26.3520 C   0  0  0  0  0  0  0  0  0  0  0  0
    8.8711  -15.1982   25.7536 C   0  0  2  0  0  0  0  0  0  0  0  0
    8.7271  -15.4244   24.3221 N   0  0  0  0  0  0  0  0  0  0  0  0
    9.2834  -16.4379   26.4490 C   0  0  0  0  0  0  0  0  0  0  0  0
    9.4024  -16.5350   27.6930 O   0  0  0  0  0  0  0  0  0  0  0  0
    9.5628  -17.5789   25.7108 O   0  0  0  0  0  0  0  0  0  0  0  0
  2  1  1  6
  2  3  1  0
  4  3  1  0
  4  9  2  0
  5  4  1  0
  6  5  2  0
  6  7  1  0
  7  8  2  0
  8  9  1  0
 10  2  1  0
 10 17  1  0
 11 10  2  0
 13 14  1  1
 13 12  1  0
 15 13  1  0
 16 15  1  1
 17 16  1  0
 18 16  1  0
 19 18  2  0
 21 20  1  1
 21 23  1  0
 22 21  1  0
 24 23  1  1
 24 26  1  0
 24 25  1  0
 25 18  1  0
 26 28  1  0
 27 26  2  0
M  END
$$$$
