FLL.pdb
     RDKit          3D

 28 28  0  0  1  0  0  0  0  0999 V2000
    5.6071  -18.3319   23.9457 N   0  0  0  0  0  0  0  0  0  0  0  0
    6.1505  -17.0188   24.2872 C   0  0  1  0  0  0  0  0  0  0  0  0
    6.1898  -16.9575   25.8014 C   0  0  0  0  0  0  0  0  0  0  0  0
    6.4935  -15.5297   26.1670 C   0  0  0  0  0  0  0  0  0  0  0  0
    7.6019  -15.2082   26.9177 C   0  0  0  0  0  0  0  0  0  0  0  0
    7.8742  -13.9056   27.2481 C   0  0  0  0  0  0  0  0  0  0  0  0
    7.0522  -12.8837   26.8418 C   0  0  0  0  0  0  0  0  0  0  0  0
    5.9415  -13.1803   26.0928 C   0  0  0  0  0  0  0  0  0  0  0  0
    5.6807  -14.4938   25.7684 C   0  0  0  0  0  0  0  0  0  0  0  0
    7.4819  -16.8762   23.6842 C   0  0  0  0  0  0  0  0  0  0  0  0
    8.2235  -17.8725   23.5000 O   0  0  0  0  0  0  0  0  0  0  0  0
    8.0161  -14.5552   19.9286 C   0  0  0  0  0  0  0  0  0  0  0  0
    8.1286  -13.6605   21.1847 C   0  0  2  0  0  0  0  0  0  0  0  0
    8.2390  -12.2575   20.6471 C   0  0  0  0  0  0  0  0  0  0  0  0
    9.3102  -14.1600   21.9259 C   0  0  0  0  0  0  0  0  0  0  0  0
    9.2021  -15.5157   22.5491 C   0  0  2  0  0  0  0  0  0  0  0  0
    7.9699  -15.6052   23.2914 N   0  0  0  0  0  0  0  0  0  0  0  0
   10.3087  -15.6063   23.5731 C   0  0  0  0  0  0  0  0  0  0  0  0
   11.5221  -15.4715   23.2732 O   0  0  0  0  0  0  0  0  0  0  0  0
   11.1724  -13.1876   26.9186 C   0  0  0  0  0  0  0  0  0  0  0  0
   10.2177  -14.2302   27.4907 C   0  0  2  0  0  0  0  0  0  0  0  0
    9.7870  -13.8745   28.8756 C   0  0  0  0  0  0  0  0  0  0  0  0
   10.6674  -15.6275   27.3024 C   0  0  0  0  0  0  0  0  0  0  0  0
   11.0577  -16.0652   25.9464 C   0  0  2  0  0  0  0  0  0  0  0  0
   10.0205  -15.8528   24.9463 N   0  0  0  0  0  0  0  0  0  0  0  0
   11.6251  -17.4282   25.8428 C   0  0  0  0  0  0  0  0  0  0  0  0
   12.6088  -17.8283   26.5085 O   0  0  0  0  0  0  0  0  0  0  0  0
   11.0592  -18.3428   24.9663 O   0  0  0  0  0  0  0  0  0  0  0  0
  2  1  1  1
  2  3  1  0
  4  3  1  0
  4  9  2  0
  5  4  1  0
  6  5  2  0
  6  7  1  0
  7  8  2  0
  8  9  1  0
 10  2  1  0
 10 17  1  0
 11 10  2  0
 13 14  1  6
 13 12  1  0
 15 13  1  0
 16 15  1  1
 17 16  1  0
 18 16  1  0
 19 18  2  0
 21 20  1  1
 21 23  1  0
 22 21  1  0
 24 23  1  1
 24 26  1  0
 24 25  1  0
 25 18  1  0
 26 28  1  0
 27 26  2  0
M  END
$$$$
