FLL.pdb
     RDKit          3D

 28 28  0  0  1  0  0  0  0  0999 V2000
    6.6566  -16.8931   26.2891 N   0  0  0  0  0  0  0  0  0  0  0  0
    6.1171  -16.8487   24.9315 C   0  0  1  0  0  0  0  0  0  0  0  0
    5.3376  -15.5526   24.8278 C   0  0  0  0  0  0  0  0  0  0  0  0
    6.1885  -14.4863   25.4632 C   0  0  0  0  0  0  0  0  0  0  0  0
    5.7407  -13.7750   26.5536 C   0  0  0  0  0  0  0  0  0  0  0  0
    6.5199  -12.8044   27.1287 C   0  0  0  0  0  0  0  0  0  0  0  0
    7.7679  -12.5121   26.6367 C   0  0  0  0  0  0  0  0  0  0  0  0
    8.2352  -13.2083   25.5505 C   0  0  0  0  0  0  0  0  0  0  0  0
    7.4410  -14.1807   24.9830 C   0  0  0  0  0  0  0  0  0  0  0  0
    7.2248  -16.9168   23.9698 C   0  0  0  0  0  0  0  0  0  0  0  0
    7.6216  -18.0159   23.5104 O   0  0  0  0  0  0  0  0  0  0  0  0
    7.8319  -15.0254   20.0995 C   0  0  0  0  0  0  0  0  0  0  0  0
    8.1175  -14.0224   21.2412 C   0  0  2  0  0  0  0  0  0  0  0  0
    8.3456  -12.7055   20.5461 C   0  0  0  0  0  0  0  0  0  0  0  0
    9.2816  -14.5728   21.9741 C   0  0  0  0  0  0  0  0  0  0  0  0
    9.0726  -15.8475   22.7286 C   0  0  2  0  0  0  0  0  0  0  0  0
    7.8802  -15.7397   23.5310 N   0  0  0  0  0  0  0  0  0  0  0  0
   10.2190  -15.9604   23.7055 C   0  0  0  0  0  0  0  0  0  0  0  0
   11.4187  -15.8049   23.3633 O   0  0  0  0  0  0  0  0  0  0  0  0
    9.4624  -13.8824   27.2324 C   0  0  0  0  0  0  0  0  0  0  0  0
    9.3498  -15.3271   27.7078 C   0  0  2  0  0  0  0  0  0  0  0  0
    8.7926  -15.4048   29.0911 C   0  0  0  0  0  0  0  0  0  0  0  0
   10.5625  -16.1390   27.4627 C   0  0  0  0  0  0  0  0  0  0  0  0
   11.0503  -16.2753   26.0748 C   0  0  2  0  0  0  0  0  0  0  0  0
    9.9866  -16.2528   25.0802 N   0  0  0  0  0  0  0  0  0  0  0  0
   11.9894  -17.3914   25.8239 C   0  0  0  0  0  0  0  0  0  0  0  0
   13.0658  -17.5525   26.4456 O   0  0  0  0  0  0  0  0  0  0  0  0
   11.6919  -18.3332   24.8495 O   0  0  0  0  0  0  0  0  0  0  0  0
  2  1  1  1
  2  3  1  0
  4  3  1  0
  4  9  2  0
  5  4  1  0
  6  5  2  0
  6  7  1  0
  7  8  2  0
  8  9  1  0
 10  2  1  0
 10 17  1  0
 11 10  2  0
 13 14  1  6
 13 12  1  0
 15 13  1  0
 16 15  1  1
 17 16  1  0
 18 16  1  0
 19 18  2  0
 21 20  1  1
 21 23  1  0
 22 21  1  0
 24 23  1  1
 24 26  1  0
 24 25  1  0
 25 18  1  0
 26 28  1  0
 27 26  2  0
M  END
$$$$
