SHI.pdb
     RDKit          3D

 25 25  0  0  1  0  0  0  0  0999 V2000
   28.8805  -32.9428  -19.0151 O   0  0  0  0  0  0  0  0  0  0  0  0
   29.0588  -31.7222  -19.7068 C   0  0  0  0  0  0  0  0  0  0  0  0
   29.6034  -30.7418  -18.6894 C   0  0  2  0  0  0  0  0  0  0  0  0
   30.6826  -31.3241  -17.9154 N   0  0  0  0  0  0  0  0  0  0  0  0
   28.5399  -30.1842  -17.8201 C   0  0  0  0  0  0  0  0  0  0  0  0
   28.6699  -30.2327  -16.5705 O   0  0  0  0  0  0  0  0  0  0  0  0
   27.3524  -29.5826  -18.3162 N   0  0  0  0  0  0  0  0  0  0  0  0
   26.2917  -29.0873  -17.4999 C   0  0  1  0  0  0  0  0  0  0  0  0
   25.9813  -27.6302  -17.7069 C   0  0  0  0  0  0  0  0  0  0  0  0
   27.1189  -26.7484  -17.3650 C   0  0  0  0  0  0  0  0  0  0  0  0
   28.3452  -27.1476  -16.8899 C   0  0  0  0  0  0  0  0  0  0  0  0
   29.1141  -26.0395  -16.6983 N   0  0  0  0  0  0  0  0  0  0  0  0
   28.3907  -24.9754  -17.0434 C   0  0  0  0  0  0  0  0  0  0  0  0
   27.1961  -25.4032  -17.4423 N   0  0  0  0  0  0  0  0  0  0  0  0
   25.0475  -29.9080  -17.6235 C   0  0  0  0  0  0  0  0  0  0  0  0
   24.8099  -30.4641  -18.7234 O   0  0  0  0  0  0  0  0  0  0  0  0
   23.1295  -33.0789  -13.5657 C   0  0  0  0  0  0  0  0  0  0  0  0
   23.1243  -31.7948  -14.3784 C   0  0  0  0  0  0  0  0  0  0  0  0
   23.1270  -32.1732  -15.8342 C   0  0  2  0  0  0  0  0  0  0  0  0
   24.4001  -32.9561  -16.1027 C   0  0  0  0  0  0  0  0  0  0  0  0
   22.9865  -30.9826  -16.7189 C   0  0  2  0  0  0  0  0  0  0  0  0
   24.1374  -30.0854  -16.5740 N   0  0  0  0  0  0  0  0  0  0  0  0
   21.7604  -30.1953  -16.5515 C   0  0  0  0  0  0  0  0  0  0  0  0
   20.5442  -30.7397  -16.9231 O   0  0  0  0  0  0  0  0  0  0  0  0
   21.7730  -29.0429  -16.0824 O   0  0  0  0  0  0  0  0  0  0  0  0
  1  2  1  0
  3  2  1  0
  3  4  1  1
  5  6  2  0
  5  3  1  0
  7  5  1  0
  8  7  1  0
  8  9  1  6
 10  9  1  0
 11 10  2  0
 12 11  1  0
 12 13  1  0
 13 14  2  0
 14 10  1  0
 15  8  1  0
 16 15  2  0
 18 19  1  0
 18 17  1  0
 19 21  1  0
 19 20  1  6
 21 22  1  1
 22 15  1  0
 23 24  1  0
 23 21  1  0
 25 23  2  0
M  END
$$$$
