SHI.pdb
     RDKit          3D

 25 25  0  0  1  0  0  0  0  0999 V2000
   13.3940  -20.3221  -68.2371 O   0  0  0  0  0  0  0  0  0  0  0  0
   12.3977  -21.2191  -67.7869 C   0  0  0  0  0  0  0  0  0  0  0  0
   11.8496  -21.8913  -69.0282 C   0  0  2  0  0  0  0  0  0  0  0  0
   12.4084  -21.3141  -70.2354 N   0  0  0  0  0  0  0  0  0  0  0  0
   10.3675  -21.8994  -69.0558 C   0  0  0  0  0  0  0  0  0  0  0  0
    9.7544  -21.0520  -69.7534 O   0  0  0  0  0  0  0  0  0  0  0  0
    9.5715  -22.8243  -68.3283 N   0  0  0  0  0  0  0  0  0  0  0  0
    8.2903  -22.5307  -67.7724 C   0  0  1  0  0  0  0  0  0  0  0  0
    7.2850  -23.6401  -67.9170 C   0  0  0  0  0  0  0  0  0  0  0  0
    6.0775  -23.2247  -68.6639 C   0  0  0  0  0  0  0  0  0  0  0  0
    4.9422  -23.9742  -68.8594 C   0  0  0  0  0  0  0  0  0  0  0  0
    4.0631  -23.2397  -69.5964 N   0  0  0  0  0  0  0  0  0  0  0  0
    4.6307  -22.0628  -69.8560 C   0  0  0  0  0  0  0  0  0  0  0  0
    5.8373  -22.0568  -69.2961 N   0  0  0  0  0  0  0  0  0  0  0  0
    8.3765  -22.0878  -66.3465 C   0  0  0  0  0  0  0  0  0  0  0  0
    9.1932  -22.6703  -65.5921 O   0  0  0  0  0  0  0  0  0  0  0  0
    6.7579  -21.6595  -64.0704 C   0  0  0  0  0  0  0  0  0  0  0  0
    6.3564  -20.2877  -63.5541 C   0  0  0  0  0  0  0  0  0  0  0  0
    7.2689  -19.2739  -64.1882 C   0  0  2  0  0  0  0  0  0  0  0  0
    6.3970  -18.2074  -64.8270 C   0  0  0  0  0  0  0  0  0  0  0  0
    8.2114  -19.9021  -65.1563 C   0  0  2  0  0  0  0  0  0  0  0  0
    7.5919  -21.0572  -65.8139 N   0  0  0  0  0  0  0  0  0  0  0  0
    9.5101  -20.3174  -64.6157 C   0  0  0  0  0  0  0  0  0  0  0  0
   10.6278  -19.5369  -64.8508 O   0  0  0  0  0  0  0  0  0  0  0  0
    9.6460  -21.3572  -63.9460 O   0  0  0  0  0  0  0  0  0  0  0  0
  1  2  1  0
  3  2  1  0
  3  4  1  6
  5  6  2  0
  5  3  1  0
  7  5  1  0
  8  7  1  0
  8  9  1  1
 10  9  1  0
 11 10  2  0
 12 11  1  0
 12 13  1  0
 13 14  2  0
 14 10  1  0
 15  8  1  0
 16 15  2  0
 18 19  1  0
 18 17  1  0
 19 21  1  0
 19 20  1  6
 21 22  1  1
 22 15  1  0
 23 24  1  0
 23 21  1  0
 25 23  2  0
M  END
$$$$
