SHI.pdb
     RDKit          3D

 25 25  0  0  1  0  0  0  0  0999 V2000
   18.7511  -13.2305  -20.4127 O   0  0  0  0  0  0  0  0  0  0  0  0
   18.9973  -12.4446  -19.2630 C   0  0  0  0  0  0  0  0  0  0  0  0
   19.8078  -13.3167  -18.3273 C   0  0  2  0  0  0  0  0  0  0  0  0
   18.9873  -14.3425  -17.7130 N   0  0  0  0  0  0  0  0  0  0  0  0
   20.5464  -12.5226  -17.3165 C   0  0  0  0  0  0  0  0  0  0  0  0
   19.9823  -12.2129  -16.2365 O   0  0  0  0  0  0  0  0  0  0  0  0
   21.8839  -12.0761  -17.4899 N   0  0  0  0  0  0  0  0  0  0  0  0
   22.6082  -11.2956  -16.5397 C   0  0  1  0  0  0  0  0  0  0  0  0
   24.1001  -11.4773  -16.5997 C   0  0  0  0  0  0  0  0  0  0  0  0
   24.5240  -12.8509  -16.2501 C   0  0  0  0  0  0  0  0  0  0  0  0
   24.0999  -13.5839  -15.1676 C   0  0  0  0  0  0  0  0  0  0  0  0
   24.7212  -14.7958  -15.1984 N   0  0  0  0  0  0  0  0  0  0  0  0
   25.5126  -14.8223  -16.2697 C   0  0  0  0  0  0  0  0  0  0  0  0
   25.3923  -13.6559  -16.8976 N   0  0  0  0  0  0  0  0  0  0  0  0
   22.2567   -9.8436  -16.6097 C   0  0  0  0  0  0  0  0  0  0  0  0
   22.3031   -9.2746  -17.7275 O   0  0  0  0  0  0  0  0  0  0  0  0
   18.1774   -6.5042  -17.3301 C   0  0  0  0  0  0  0  0  0  0  0  0
   19.4469   -6.3827  -16.5037 C   0  0  0  0  0  0  0  0  0  0  0  0
   20.0427   -7.7577  -16.3733 C   0  0  2  0  0  0  0  0  0  0  0  0
   19.0085   -8.6446  -15.7027 C   0  0  0  0  0  0  0  0  0  0  0  0
   21.3411   -7.7346  -15.6427 C   0  0  2  0  0  0  0  0  0  0  0  0
   21.8792   -9.0903  -15.4910 N   0  0  0  0  0  0  0  0  0  0  0  0
   21.3290   -7.0900  -14.3253 C   0  0  0  0  0  0  0  0  0  0  0  0
   21.2631   -5.7107  -14.2414 O   0  0  0  0  0  0  0  0  0  0  0  0
   21.3762   -7.7444  -13.2681 O   0  0  0  0  0  0  0  0  0  0  0  0
  1  2  1  0
  3  2  1  0
  3  4  1  1
  5  6  2  0
  5  3  1  0
  7  5  1  0
  8  7  1  0
  8  9  1  6
 10  9  1  0
 11 10  2  0
 12 11  1  0
 12 13  1  0
 13 14  2  0
 14 10  1  0
 15  8  1  0
 16 15  2  0
 18 19  1  0
 18 17  1  0
 19 21  1  0
 19 20  1  1
 21 22  1  1
 22 15  1  0
 23 24  1  0
 23 21  1  0
 25 23  2  0
M  END
$$$$
