SHI.pdb
     RDKit          3D

 25 25  0  0  1  0  0  0  0  0999 V2000
   24.1478  -11.5525  -20.3551 O   0  0  0  0  0  0  0  0  0  0  0  0
   23.2537  -10.5010  -20.0466 C   0  0  0  0  0  0  0  0  0  0  0  0
   21.9676  -11.1644  -19.6004 C   0  0  2  0  0  0  0  0  0  0  0  0
   21.1331  -11.5202  -20.7317 N   0  0  0  0  0  0  0  0  0  0  0  0
   21.2300  -10.3496  -18.6056 C   0  0  0  0  0  0  0  0  0  0  0  0
   20.4579   -9.4385  -18.9986 O   0  0  0  0  0  0  0  0  0  0  0  0
   21.3390  -10.5332  -17.2011 N   0  0  0  0  0  0  0  0  0  0  0  0
   20.6889   -9.7213  -16.2239 C   0  0  1  0  0  0  0  0  0  0  0  0
   20.2301  -10.4713  -15.0035 C   0  0  0  0  0  0  0  0  0  0  0  0
   19.4695   -9.6213  -14.0615 C   0  0  0  0  0  0  0  0  0  0  0  0
   18.1988   -9.1322  -14.2491 C   0  0  0  0  0  0  0  0  0  0  0  0
   17.8557   -8.3947  -13.1564 N   0  0  0  0  0  0  0  0  0  0  0  0
   18.8820   -8.4203  -12.3074 C   0  0  0  0  0  0  0  0  0  0  0  0
   19.8471   -9.1557  -12.8523 N   0  0  0  0  0  0  0  0  0  0  0  0
   21.5124   -8.5369  -15.8289 C   0  0  0  0  0  0  0  0  0  0  0  0
   22.7514   -8.6913  -15.7006 O   0  0  0  0  0  0  0  0  0  0  0  0
   22.1098   -4.2275  -18.4120 C   0  0  0  0  0  0  0  0  0  0  0  0
   22.3372   -5.3947  -17.4657 C   0  0  0  0  0  0  0  0  0  0  0  0
   21.7501   -5.0244  -16.1312 C   0  0  2  0  0  0  0  0  0  0  0  0
   22.4747   -3.7841  -15.6390 C   0  0  0  0  0  0  0  0  0  0  0  0
   21.8176   -6.1532  -15.1610 C   0  0  2  0  0  0  0  0  0  0  0  0
   20.9690   -7.2673  -15.5960 N   0  0  0  0  0  0  0  0  0  0  0  0
   21.4822   -5.8299  -13.7703 C   0  0  0  0  0  0  0  0  0  0  0  0
   22.4940   -5.5237  -12.8781 O   0  0  0  0  0  0  0  0  0  0  0  0
   20.3082   -5.8204  -13.3580 O   0  0  0  0  0  0  0  0  0  0  0  0
  1  2  1  0
  3  2  1  0
  3  4  1  6
  5  6  2  0
  5  3  1  0
  7  5  1  0
  8  7  1  0
  8  9  1  1
 10  9  1  0
 11 10  2  0
 12 11  1  0
 12 13  1  0
 13 14  2  0
 14 10  1  0
 15  8  1  0
 16 15  2  0
 18 19  1  0
 18 17  1  0
 19 21  1  0
 19 20  1  1
 21 22  1  6
 22 15  1  0
 23 24  1  0
 23 21  1  0
 25 23  2  0
M  END
$$$$
