SHI.pdb
     RDKit          3D

 25 25  0  0  1  0  0  0  0  0999 V2000
   22.1290  -17.7001  -14.8331 O   0  0  0  0  0  0  0  0  0  0  0  0
   22.2894  -16.3545  -15.2376 C   0  0  0  0  0  0  0  0  0  0  0  0
   21.1990  -16.0919  -16.2550 C   0  0  2  0  0  0  0  0  0  0  0  0
   21.3405  -16.9466  -17.4179 N   0  0  0  0  0  0  0  0  0  0  0  0
   21.1124  -14.6603  -16.6302 C   0  0  0  0  0  0  0  0  0  0  0  0
   21.5957  -14.2747  -17.7249 O   0  0  0  0  0  0  0  0  0  0  0  0
   20.5043  -13.6682  -15.8152 N   0  0  0  0  0  0  0  0  0  0  0  0
   20.3589  -12.2961  -16.1798 C   0  0  1  0  0  0  0  0  0  0  0  0
   18.9373  -11.8045  -16.1814 C   0  0  0  0  0  0  0  0  0  0  0  0
   18.1085  -12.4532  -17.2209 C   0  0  0  0  0  0  0  0  0  0  0  0
   17.9855  -12.0555  -18.5308 C   0  0  0  0  0  0  0  0  0  0  0  0
   17.1322  -12.9095  -19.1616 N   0  0  0  0  0  0  0  0  0  0  0  0
   16.7311  -13.8172  -18.2729 C   0  0  0  0  0  0  0  0  0  0  0  0
   17.3176  -13.5413  -17.1114 N   0  0  0  0  0  0  0  0  0  0  0  0
   21.2216  -11.3939  -15.3562 C   0  0  0  0  0  0  0  0  0  0  0  0
   21.1664  -11.4976  -14.1065 O   0  0  0  0  0  0  0  0  0  0  0  0
   26.2505  -11.4061  -15.5795 C   0  0  0  0  0  0  0  0  0  0  0  0
   24.7956  -11.2721  -15.1614 C   0  0  0  0  0  0  0  0  0  0  0  0
   24.3851   -9.8417  -15.3809 C   0  0  2  0  0  0  0  0  0  0  0  0
   25.3145   -8.9659  -14.5593 C   0  0  0  0  0  0  0  0  0  0  0  0
   22.9481   -9.6190  -15.0559 C   0  0  2  0  0  0  0  0  0  0  0  0
   22.0858  -10.4414  -15.9107 N   0  0  0  0  0  0  0  0  0  0  0  0
   22.4791   -8.2309  -15.1222 C   0  0  0  0  0  0  0  0  0  0  0  0
   22.5404   -7.4356  -13.9920 O   0  0  0  0  0  0  0  0  0  0  0  0
   22.0228   -7.7360  -16.1686 O   0  0  0  0  0  0  0  0  0  0  0  0
  1  2  1  0
  3  2  1  0
  3  4  1  6
  5  6  2  0
  5  3  1  0
  7  5  1  0
  8  7  1  0
  8  9  1  1
 10  9  1  0
 11 10  2  0
 12 11  1  0
 12 13  1  0
 13 14  2  0
 14 10  1  0
 15  8  1  0
 16 15  2  0
 18 19  1  0
 18 17  1  0
 19 21  1  0
 19 20  1  1
 21 22  1  6
 22 15  1  0
 23 24  1  0
 23 21  1  0
 25 23  2  0
M  END
$$$$
