SHI.pdb
     RDKit          3D

 25 25  0  0  1  0  0  0  0  0999 V2000
   20.7444  -30.7276   -8.7520 O   0  0  0  0  0  0  0  0  0  0  0  0
   21.5825  -29.9159   -9.5512 C   0  0  0  0  0  0  0  0  0  0  0  0
   22.2105  -30.8420  -10.5715 C   0  0  2  0  0  0  0  0  0  0  0  0
   21.2098  -31.4359  -11.4368 N   0  0  0  0  0  0  0  0  0  0  0  0
   23.0750  -31.8688   -9.9424 C   0  0  0  0  0  0  0  0  0  0  0  0
   22.6804  -33.0610   -9.8822 O   0  0  0  0  0  0  0  0  0  0  0  0
   24.3531  -31.5900   -9.3883 N   0  0  0  0  0  0  0  0  0  0  0  0
   25.1944  -32.5577   -8.7618 C   0  0  1  0  0  0  0  0  0  0  0  0
   26.5976  -32.5987   -9.3020 C   0  0  0  0  0  0  0  0  0  0  0  0
   26.6719  -33.1834  -10.6588 C   0  0  0  0  0  0  0  0  0  0  0  0
   25.6358  -33.7557  -11.3574 C   0  0  0  0  0  0  0  0  0  0  0  0
   26.1094  -34.1739  -12.5642 N   0  0  0  0  0  0  0  0  0  0  0  0
   27.4058  -33.8726  -12.6212 C   0  0  0  0  0  0  0  0  0  0  0  0
   27.7398  -33.2794  -11.4784 N   0  0  0  0  0  0  0  0  0  0  0  0
   25.2128  -32.4173   -7.2730 C   0  0  0  0  0  0  0  0  0  0  0  0
   25.3736  -31.2714   -6.7866 O   0  0  0  0  0  0  0  0  0  0  0  0
   21.4242  -34.2645   -4.3032 C   0  0  0  0  0  0  0  0  0  0  0  0
   22.5528  -33.4083   -4.8532 C   0  0  0  0  0  0  0  0  0  0  0  0
   23.8490  -33.9724   -4.3391 C   0  0  2  0  0  0  0  0  0  0  0  0
   23.8270  -33.8668   -2.8245 C   0  0  0  0  0  0  0  0  0  0  0  0
   25.0298  -33.2959   -4.9458 C   0  0  2  0  0  0  0  0  0  0  0  0
   25.0597  -33.4998   -6.3977 N   0  0  0  0  0  0  0  0  0  0  0  0
   26.3386  -33.6677   -4.3981 C   0  0  0  0  0  0  0  0  0  0  0  0
   27.0873  -34.6471   -5.0257 O   0  0  0  0  0  0  0  0  0  0  0  0
   26.8063  -33.1293   -3.3785 O   0  0  0  0  0  0  0  0  0  0  0  0
  1  2  1  0
  3  2  1  0
  3  4  1  1
  5  6  2  0
  5  3  1  0
  7  5  1  0
  8  7  1  0
  8  9  1  6
 10  9  1  0
 11 10  2  0
 12 11  1  0
 12 13  1  0
 13 14  2  0
 14 10  1  0
 15  8  1  0
 16 15  2  0
 18 19  1  0
 18 17  1  0
 19 21  1  0
 19 20  1  1
 21 22  1  6
 22 15  1  0
 23 24  1  0
 23 21  1  0
 25 23  2  0
M  END
$$$$
