SHI.pdb
     RDKit          3D

 25 25  0  0  1  0  0  0  0  0999 V2000
   10.9723  -12.1155  -13.9889 O   0  0  0  0  0  0  0  0  0  0  0  0
   11.8180  -11.5264  -13.0205 C   0  0  0  0  0  0  0  0  0  0  0  0
   13.2201  -11.9923  -13.3523 C   0  0  2  0  0  0  0  0  0  0  0  0
   13.3982  -13.3990  -13.0485 N   0  0  0  0  0  0  0  0  0  0  0  0
   14.2590  -11.1533  -12.7085 C   0  0  0  0  0  0  0  0  0  0  0  0
   14.5218  -11.3161  -11.4899 O   0  0  0  0  0  0  0  0  0  0  0  0
   14.9974  -10.1512  -13.3932 N   0  0  0  0  0  0  0  0  0  0  0  0
   16.0387   -9.3693  -12.8091 C   0  0  1  0  0  0  0  0  0  0  0  0
   17.0222   -8.8106  -13.8006 C   0  0  0  0  0  0  0  0  0  0  0  0
   17.8960   -9.8499  -14.3879 C   0  0  0  0  0  0  0  0  0  0  0  0
   17.9340  -11.1776  -14.0345 C   0  0  0  0  0  0  0  0  0  0  0  0
   18.8682  -11.8015  -14.8050 N   0  0  0  0  0  0  0  0  0  0  0  0
   19.4010  -10.8912  -15.6187 C   0  0  0  0  0  0  0  0  0  0  0  0
   18.8167   -9.7232  -15.3665 N   0  0  0  0  0  0  0  0  0  0  0  0
   15.5089   -8.2810  -11.9306 C   0  0  0  0  0  0  0  0  0  0  0  0
   14.6108   -7.5329  -12.3881 O   0  0  0  0  0  0  0  0  0  0  0  0
   12.9045   -9.0704   -7.8003 C   0  0  0  0  0  0  0  0  0  0  0  0
   13.4533   -8.3781   -9.0368 C   0  0  0  0  0  0  0  0  0  0  0  0
   14.6650   -7.5896   -8.6212 C   0  0  2  0  0  0  0  0  0  0  0  0
   14.2090   -6.5372   -7.6261 C   0  0  0  0  0  0  0  0  0  0  0  0
   15.3764   -7.0040   -9.7922 C   0  0  2  0  0  0  0  0  0  0  0  0
   15.9653   -8.0572  -10.6256 N   0  0  0  0  0  0  0  0  0  0  0  0
   16.4176   -6.0171   -9.4873 C   0  0  0  0  0  0  0  0  0  0  0  0
   17.7484   -6.3909   -9.5407 O   0  0  0  0  0  0  0  0  0  0  0  0
   16.1460   -4.8426   -9.1788 O   0  0  0  0  0  0  0  0  0  0  0  0
  1  2  1  0
  3  2  1  0
  3  4  1  1
  5  6  2  0
  5  3  1  0
  7  5  1  0
  8  7  1  0
  8  9  1  6
 10  9  1  0
 11 10  2  0
 12 11  1  0
 12 13  1  0
 13 14  2  0
 14 10  1  0
 15  8  1  0
 16 15  2  0
 18 19  1  0
 18 17  1  0
 19 21  1  0
 19 20  1  1
 21 22  1  1
 22 15  1  0
 23 24  1  0
 23 21  1  0
 25 23  2  0
M  END
$$$$
