SHI.pdb
     RDKit          3D

 25 25  0  0  1  0  0  0  0  0999 V2000
   17.7837  -16.5923  -14.7617 O   0  0  0  0  0  0  0  0  0  0  0  0
   18.2682  -15.2637  -14.7764 C   0  0  0  0  0  0  0  0  0  0  0  0
   18.0857  -14.7687  -16.1958 C   0  0  2  0  0  0  0  0  0  0  0  0
   18.8561  -15.5585  -17.1369 N   0  0  0  0  0  0  0  0  0  0  0  0
   18.3717  -13.3201  -16.3276 C   0  0  0  0  0  0  0  0  0  0  0  0
   19.4406  -12.9450  -16.8729 O   0  0  0  0  0  0  0  0  0  0  0  0
   17.4966  -12.2998  -15.8677 N   0  0  0  0  0  0  0  0  0  0  0  0
   17.7435  -10.9001  -15.9970 C   0  0  1  0  0  0  0  0  0  0  0  0
   16.5336  -10.0357  -15.7702 C   0  0  0  0  0  0  0  0  0  0  0  0
   16.7777   -8.6130  -16.0942 C   0  0  0  0  0  0  0  0  0  0  0  0
   17.9502   -8.0747  -16.5679 C   0  0  0  0  0  0  0  0  0  0  0  0
   17.7706   -6.7353  -16.7389 N   0  0  0  0  0  0  0  0  0  0  0  0
   16.5211   -6.4416  -16.3826 C   0  0  0  0  0  0  0  0  0  0  0  0
   15.9288   -7.5684  -15.9968 N   0  0  0  0  0  0  0  0  0  0  0  0
   18.8801  -10.4411  -15.1402 C   0  0  0  0  0  0  0  0  0  0  0  0
   18.8994  -10.7994  -13.9374 O   0  0  0  0  0  0  0  0  0  0  0  0
   23.6016  -11.7781  -16.0773 C   0  0  0  0  0  0  0  0  0  0  0  0
   22.3060  -11.3359  -15.4177 C   0  0  0  0  0  0  0  0  0  0  0  0
   22.3296   -9.8350  -15.3208 C   0  0  2  0  0  0  0  0  0  0  0  0
   23.5482   -9.4467  -14.5023 C   0  0  0  0  0  0  0  0  0  0  0  0
   21.0613   -9.2938  -14.7563 C   0  0  2  0  0  0  0  0  0  0  0  0
   19.9212   -9.6330  -15.6140 N   0  0  0  0  0  0  0  0  0  0  0  0
   21.0341   -7.8503  -14.4977 C   0  0  0  0  0  0  0  0  0  0  0  0
   20.6747   -6.9822  -15.5130 O   0  0  0  0  0  0  0  0  0  0  0  0
   21.3255   -7.3715  -13.3868 O   0  0  0  0  0  0  0  0  0  0  0  0
  1  2  1  0
  3  2  1  0
  3  4  1  6
  5  6  2  0
  5  3  1  0
  7  5  1  0
  8  7  1  0
  8  9  1  1
 10  9  1  0
 11 10  2  0
 12 11  1  0
 12 13  1  0
 13 14  2  0
 14 10  1  0
 15  8  1  0
 16 15  2  0
 18 19  1  0
 18 17  1  0
 19 21  1  0
 19 20  1  1
 21 22  1  6
 22 15  1  0
 23 24  1  0
 23 21  1  0
 25 23  2  0
M  END
$$$$
