SHI.pdb
     RDKit          3D

 25 25  0  0  1  0  0  0  0  0999 V2000
   22.4105  -15.7937  -17.4039 O   0  0  0  0  0  0  0  0  0  0  0  0
   23.6384  -15.9135  -18.0952 C   0  0  0  0  0  0  0  0  0  0  0  0
   23.5180  -17.1602  -18.9462 C   0  0  2  0  0  0  0  0  0  0  0  0
   22.4840  -17.0184  -19.9530 N   0  0  0  0  0  0  0  0  0  0  0  0
   23.3285  -18.3828  -18.1295 C   0  0  0  0  0  0  0  0  0  0  0  0
   22.1684  -18.8272  -17.9363 O   0  0  0  0  0  0  0  0  0  0  0  0
   24.3971  -19.1058  -17.5347 N   0  0  0  0  0  0  0  0  0  0  0  0
   24.2371  -20.2690  -16.7235 C   0  0  1  0  0  0  0  0  0  0  0  0
   25.4977  -21.0669  -16.5319 C   0  0  0  0  0  0  0  0  0  0  0  0
   25.2854  -22.2872  -15.7230 C   0  0  0  0  0  0  0  0  0  0  0  0
   25.5032  -22.4175  -14.3722 C   0  0  0  0  0  0  0  0  0  0  0  0
   25.1912  -23.6922  -14.0070 N   0  0  0  0  0  0  0  0  0  0  0  0
   24.7891  -24.3431  -15.0975 C   0  0  0  0  0  0  0  0  0  0  0  0
   24.8467  -23.4989  -16.1238 N   0  0  0  0  0  0  0  0  0  0  0  0
   23.6104  -19.9590  -15.4014 C   0  0  0  0  0  0  0  0  0  0  0  0
   24.0750  -19.0033  -14.7335 O   0  0  0  0  0  0  0  0  0  0  0  0
   19.2173  -17.6941  -12.9195 C   0  0  0  0  0  0  0  0  0  0  0  0
   20.1890  -18.8110  -12.5766 C   0  0  0  0  0  0  0  0  0  0  0  0
   20.8268  -19.2736  -13.8580 C   0  0  2  0  0  0  0  0  0  0  0  0
   19.7222  -19.8015  -14.7562 C   0  0  0  0  0  0  0  0  0  0  0  0
   21.8997  -20.2783  -13.6145 C   0  0  2  0  0  0  0  0  0  0  0  0
   22.5330  -20.6820  -14.8741 N   0  0  0  0  0  0  0  0  0  0  0  0
   21.4985  -21.4879  -12.8885 C   0  0  0  0  0  0  0  0  0  0  0  0
   21.6133  -22.7219  -13.5030 O   0  0  0  0  0  0  0  0  0  0  0  0
   21.0536  -21.4455  -11.7272 O   0  0  0  0  0  0  0  0  0  0  0  0
  1  2  1  0
  3  2  1  0
  3  4  1  6
  5  6  2  0
  5  3  1  0
  7  5  1  0
  8  7  1  0
  8  9  1  1
 10  9  1  0
 11 10  2  0
 12 11  1  0
 12 13  1  0
 13 14  2  0
 14 10  1  0
 15  8  1  0
 16 15  2  0
 18 19  1  0
 18 17  1  0
 19 21  1  0
 19 20  1  6
 21 22  1  6
 22 15  1  0
 23 24  1  0
 23 21  1  0
 25 23  2  0
M  END
$$$$
