SHI.pdb
     RDKit          3D

 25 25  0  0  1  0  0  0  0  0999 V2000
   27.6264  -21.5957  -16.0279 O   0  0  0  0  0  0  0  0  0  0  0  0
   26.6944  -21.5346  -14.9659 C   0  0  0  0  0  0  0  0  0  0  0  0
   25.3773  -22.0146  -15.5387 C   0  0  2  0  0  0  0  0  0  0  0  0
   25.5804  -22.8848  -16.6807 N   0  0  0  0  0  0  0  0  0  0  0  0
   24.4598  -20.8941  -15.8554 C   0  0  0  0  0  0  0  0  0  0  0  0
   24.5340  -20.3281  -16.9755 O   0  0  0  0  0  0  0  0  0  0  0  0
   23.4761  -20.4035  -14.9553 N   0  0  0  0  0  0  0  0  0  0  0  0
   22.6429  -19.2715  -15.2024 C   0  0  1  0  0  0  0  0  0  0  0  0
   21.3024  -19.3309  -14.5227 C   0  0  0  0  0  0  0  0  0  0  0  0
   20.3897  -20.3167  -15.1421 C   0  0  0  0  0  0  0  0  0  0  0  0
   20.6649  -21.1113  -16.2292 C   0  0  0  0  0  0  0  0  0  0  0  0
   19.5701  -21.8789  -16.4895 N   0  0  0  0  0  0  0  0  0  0  0  0
   18.6346  -21.5746  -15.5911 C   0  0  0  0  0  0  0  0  0  0  0  0
   19.1285  -20.6386  -14.7854 N   0  0  0  0  0  0  0  0  0  0  0  0
   23.3295  -17.9803  -14.8893 C   0  0  0  0  0  0  0  0  0  0  0  0
   23.5708  -17.7124  -13.6870 O   0  0  0  0  0  0  0  0  0  0  0  0
   27.9633  -17.0395  -16.0696 C   0  0  0  0  0  0  0  0  0  0  0  0
   26.5942  -17.0131  -15.4106 C   0  0  0  0  0  0  0  0  0  0  0  0
   25.8284  -15.8554  -15.9902 C   0  0  2  0  0  0  0  0  0  0  0  0
   26.5914  -14.5861  -15.6548 C   0  0  0  0  0  0  0  0  0  0  0  0
   24.4188  -15.8236  -15.5083 C   0  0  2  0  0  0  0  0  0  0  0  0
   23.7150  -17.0582  -15.8704 N   0  0  0  0  0  0  0  0  0  0  0  0
   23.6111  -14.6822  -15.9509 C   0  0  0  0  0  0  0  0  0  0  0  0
   23.4381  -13.6005  -15.1061 O   0  0  0  0  0  0  0  0  0  0  0  0
   23.0693  -14.6496  -17.0706 O   0  0  0  0  0  0  0  0  0  0  0  0
  1  2  1  0
  3  2  1  0
  3  4  1  6
  5  6  2  0
  5  3  1  0
  7  5  1  0
  8  7  1  0
  8  9  1  1
 10  9  1  0
 11 10  2  0
 12 11  1  0
 12 13  1  0
 13 14  2  0
 14 10  1  0
 15  8  1  0
 16 15  2  0
 18 19  1  0
 18 17  1  0
 19 21  1  0
 19 20  1  1
 21 22  1  6
 22 15  1  0
 23 24  1  0
 23 21  1  0
 25 23  2  0
M  END
$$$$
