CFG.pdb
     RDKit          3D

 22 22  0  0  1  0  0  0  0  0999 V2000
    7.6719  -13.2473   20.0376 N   0  0  0  0  0  0  0  0  0  0  0  0
    7.3451  -14.3164   20.9334 C   0  0  1  0  0  0  0  0  0  0  0  0
    7.5378  -15.6273   20.1587 C   0  0  0  0  0  0  0  0  0  0  0  0
    7.0325  -17.0475   21.1591 S   0  0  0  0  0  0  0  0  0  0  0  0
    8.2731  -14.3867   22.0968 C   0  0  0  0  0  0  0  0  0  0  0  0
    9.4116  -13.8582   22.0408 O   0  0  0  0  0  0  0  0  0  0  0  0
    7.8932  -15.0451   23.2787 N   0  0  0  0  0  0  0  0  0  0  0  0
    8.6375  -14.9282   24.5162 C   0  0  1  0  0  0  0  0  0  0  0  0
    7.6100  -14.9794   25.6238 C   0  0  0  0  0  0  0  0  0  0  0  0
    7.0672  -13.6733   26.0052 C   0  0  0  0  0  0  0  0  0  0  0  0
    5.7313  -13.4261   26.1594 C   0  0  0  0  0  0  0  0  0  0  0  0
    5.2458  -12.1741   26.5257 C   0  0  0  0  0  0  0  0  0  0  0  0
    6.1166  -11.1437   26.7432 C   0  0  0  0  0  0  0  0  0  0  0  0
    7.4794  -11.3645   26.5943 C   0  0  0  0  0  0  0  0  0  0  0  0
    7.9415  -12.6313   26.2257 C   0  0  0  0  0  0  0  0  0  0  0  0
    9.6190  -16.0264   24.5653 C   0  0  0  0  0  0  0  0  0  0  0  0
   10.3342  -16.2529   25.5698 O   0  0  0  0  0  0  0  0  0  0  0  0
    9.7692  -16.8667   23.4375 N   0  0  0  0  0  0  0  0  0  0  0  0
   10.7618  -17.9134   23.4057 C   0  0  0  0  0  0  0  0  0  0  0  0
   12.1082  -17.4334   23.0558 C   0  0  0  0  0  0  0  0  0  0  0  0
   12.4109  -16.2301   22.8602 O   0  0  0  0  0  0  0  0  0  0  0  0
   13.1199  -18.3656   22.9307 O   0  0  0  0  0  0  0  0  0  0  0  0
  2  1  1  6
  2  3  1  0
  2  5  1  0
  4  3  1  0
  5  6  2  0
  7  8  1  0
  7  5  1  0
  9 10  1  0
  8  9  1  1
 10 15  2  0
 11 12  2  0
 11 10  1  0
 12 13  1  0
 13 14  2  0
 15 14  1  0
 16  8  1  0
 16 17  2  0
 18 16  1  0
 19 18  1  0
 19 20  1  0
 20 21  2  0
 20 22  1  0
M  END
$$$$
