CFG.pdb
     RDKit          3D

 22 22  0  0  1  0  0  0  0  0999 V2000
    7.7389  -13.6043   19.7085 N   0  0  0  0  0  0  0  0  0  0  0  0
    7.4519  -14.6706   20.6213 C   0  0  1  0  0  0  0  0  0  0  0  0
    7.9434  -15.9684   19.9658 C   0  0  0  0  0  0  0  0  0  0  0  0
    6.5520  -16.9447   19.3461 S   0  0  0  0  0  0  0  0  0  0  0  0
    8.2077  -14.5440   21.8988 C   0  0  0  0  0  0  0  0  0  0  0  0
    9.2794  -13.8899   21.9469 O   0  0  0  0  0  0  0  0  0  0  0  0
    7.7369  -15.1533   23.0743 N   0  0  0  0  0  0  0  0  0  0  0  0
    8.3424  -14.9291   24.3714 C   0  0  1  0  0  0  0  0  0  0  0  0
    7.1995  -14.8854   25.3599 C   0  0  0  0  0  0  0  0  0  0  0  0
    6.8698  -13.5425   25.8434 C   0  0  0  0  0  0  0  0  0  0  0  0
    5.7533  -13.2573   26.5793 C   0  0  0  0  0  0  0  0  0  0  0  0
    5.4685  -11.9706   27.0273 C   0  0  0  0  0  0  0  0  0  0  0  0
    6.3203  -10.9435   26.7326 C   0  0  0  0  0  0  0  0  0  0  0  0
    7.4626  -11.2025   25.9868 C   0  0  0  0  0  0  0  0  0  0  0  0
    7.7259  -12.5036   25.5488 C   0  0  0  0  0  0  0  0  0  0  0  0
    9.3033  -16.0178   24.6221 C   0  0  0  0  0  0  0  0  0  0  0  0
    9.9196  -16.1426   25.7068 O   0  0  0  0  0  0  0  0  0  0  0  0
    9.5489  -16.9678   23.6034 N   0  0  0  0  0  0  0  0  0  0  0  0
   10.3824  -18.1223   23.8360 C   0  0  0  0  0  0  0  0  0  0  0  0
   11.7909  -17.9121   23.4650 C   0  0  0  0  0  0  0  0  0  0  0  0
   12.3099  -18.2855   22.3837 O   0  0  0  0  0  0  0  0  0  0  0  0
   12.6106  -17.2579   24.3640 O   0  0  0  0  0  0  0  0  0  0  0  0
  2  1  1  6
  2  3  1  0
  2  5  1  0
  4  3  1  0
  5  6  2  0
  7  8  1  0
  7  5  1  0
  9 10  1  0
  8  9  1  1
 10 15  2  0
 11 12  2  0
 11 10  1  0
 12 13  1  0
 13 14  2  0
 15 14  1  0
 16  8  1  0
 16 17  2  0
 18 16  1  0
 19 18  1  0
 19 20  1  0
 20 21  2  0
 20 22  1  0
M  END
$$$$
