CFG.pdb
     RDKit          3D

 22 22  0  0  1  0  0  0  0  0999 V2000
    9.2325  -16.5714   19.0955 N   0  0  0  0  0  0  0  0  0  0  0  0
    8.5067  -16.8504   20.2986 C   0  0  1  0  0  0  0  0  0  0  0  0
    8.9472  -18.2405   20.7777 C   0  0  0  0  0  0  0  0  0  0  0  0
   10.4468  -18.7735   19.9174 S   0  0  0  0  0  0  0  0  0  0  0  0
    8.8497  -15.9085   21.4007 C   0  0  0  0  0  0  0  0  0  0  0  0
    9.8986  -15.2185   21.3504 O   0  0  0  0  0  0  0  0  0  0  0  0
    8.0073  -15.7736   22.5174 N   0  0  0  0  0  0  0  0  0  0  0  0
    8.1858  -14.7377   23.5145 C   0  0  1  0  0  0  0  0  0  0  0  0
    6.7940  -14.3188   23.9301 C   0  0  0  0  0  0  0  0  0  0  0  0
    6.7574  -13.3476   25.0262 C   0  0  0  0  0  0  0  0  0  0  0  0
    6.1103  -13.5687   26.2102 C   0  0  0  0  0  0  0  0  0  0  0  0
    6.0957  -12.6268   27.2349 C   0  0  0  0  0  0  0  0  0  0  0  0
    6.7436  -11.4347   27.0726 C   0  0  0  0  0  0  0  0  0  0  0  0
    7.4097  -11.1816   25.8808 C   0  0  0  0  0  0  0  0  0  0  0  0
    7.4094  -12.1441   24.8671 C   0  0  0  0  0  0  0  0  0  0  0  0
    8.9915  -15.2959   24.6149 C   0  0  0  0  0  0  0  0  0  0  0  0
    9.2568  -14.6507   25.6568 O   0  0  0  0  0  0  0  0  0  0  0  0
    9.4921  -16.6139   24.5021 N   0  0  0  0  0  0  0  0  0  0  0  0
   10.2443  -17.2273   25.5697 C   0  0  0  0  0  0  0  0  0  0  0  0
   11.7013  -17.0928   25.4120 C   0  0  0  0  0  0  0  0  0  0  0  0
   12.2688  -16.5686   24.4215 O   0  0  0  0  0  0  0  0  0  0  0  0
   12.5128  -17.5747   26.4206 O   0  0  0  0  0  0  0  0  0  0  0  0
  2  1  1  6
  2  3  1  0
  2  5  1  0
  4  3  1  0
  5  6  2  0
  7  8  1  0
  7  5  1  0
  9 10  1  0
  8  9  1  1
 10 15  2  0
 11 12  2  0
 11 10  1  0
 12 13  1  0
 13 14  2  0
 15 14  1  0
 16  8  1  0
 16 17  2  0
 18 16  1  0
 19 18  1  0
 19 20  1  0
 20 21  2  0
 20 22  1  0
M  END
$$$$
