CFG.pdb
     RDKit          3D

 22 22  0  0  1  0  0  0  0  0999 V2000
    8.2655  -16.5937   19.0966 N   0  0  0  0  0  0  0  0  0  0  0  0
    7.8210  -16.8991   20.4238 C   0  0  1  0  0  0  0  0  0  0  0  0
    8.4334  -18.2546   20.8025 C   0  0  0  0  0  0  0  0  0  0  0  0
   10.2336  -18.1340   20.9357 S   0  0  0  0  0  0  0  0  0  0  0  0
    8.3265  -15.9245   21.4308 C   0  0  0  0  0  0  0  0  0  0  0  0
    9.1959  -15.0731   21.1180 O   0  0  0  0  0  0  0  0  0  0  0  0
    7.8408  -15.9384   22.7494 N   0  0  0  0  0  0  0  0  0  0  0  0
    8.1131  -14.8771   23.6974 C   0  0  1  0  0  0  0  0  0  0  0  0
    6.7993  -14.5923   24.3887 C   0  0  0  0  0  0  0  0  0  0  0  0
    6.8541  -13.5010   25.3644 C   0  0  0  0  0  0  0  0  0  0  0  0
    6.7977  -13.6931   26.7169 C   0  0  0  0  0  0  0  0  0  0  0  0
    6.8550  -12.6353   27.6198 C   0  0  0  0  0  0  0  0  0  0  0  0
    6.9716  -11.3538   27.1597 C   0  0  0  0  0  0  0  0  0  0  0  0
    7.0312  -11.1273   25.7911 C   0  0  0  0  0  0  0  0  0  0  0  0
    6.9717  -12.2071   24.9052 C   0  0  0  0  0  0  0  0  0  0  0  0
    9.1758  -15.3386   24.6081 C   0  0  0  0  0  0  0  0  0  0  0  0
    9.6572  -14.6145   25.5113 O   0  0  0  0  0  0  0  0  0  0  0  0
    9.6817  -16.6518   24.4667 N   0  0  0  0  0  0  0  0  0  0  0  0
   10.6922  -17.1690   25.3573 C   0  0  0  0  0  0  0  0  0  0  0  0
   10.2493  -17.2566   26.7579 C   0  0  0  0  0  0  0  0  0  0  0  0
    9.9895  -16.2692   27.4897 O   0  0  0  0  0  0  0  0  0  0  0  0
   10.1056  -18.5109   27.3184 O   0  0  0  0  0  0  0  0  0  0  0  0
  2  1  1  6
  2  3  1  0
  2  5  1  0
  4  3  1  0
  5  6  2  0
  7  8  1  0
  7  5  1  0
  9 10  1  0
  8  9  1  1
 10 15  2  0
 11 12  2  0
 11 10  1  0
 12 13  1  0
 13 14  2  0
 15 14  1  0
 16  8  1  0
 16 17  2  0
 18 16  1  0
 19 18  1  0
 19 20  1  0
 20 21  2  0
 20 22  1  0
M  END
$$$$
