CFG.pdb
     RDKit          3D

 22 22  0  0  1  0  0  0  0  0999 V2000
    8.1038  -12.6717   19.6456 N   0  0  0  0  0  0  0  0  0  0  0  0
    7.6269  -13.8085   20.3754 C   0  0  1  0  0  0  0  0  0  0  0  0
    7.9445  -15.0505   19.5315 C   0  0  0  0  0  0  0  0  0  0  0  0
    6.6181  -16.2740   19.6606 S   0  0  0  0  0  0  0  0  0  0  0  0
    8.3440  -13.9958   21.6677 C   0  0  0  0  0  0  0  0  0  0  0  0
    9.4872  -13.5049   21.8430 O   0  0  0  0  0  0  0  0  0  0  0  0
    7.7560  -14.7249   22.7154 N   0  0  0  0  0  0  0  0  0  0  0  0
    8.3194  -14.7754   24.0493 C   0  0  1  0  0  0  0  0  0  0  0  0
    7.1425  -14.7412   24.9974 C   0  0  0  0  0  0  0  0  0  0  0  0
    6.9037  -13.4355   25.6172 C   0  0  0  0  0  0  0  0  0  0  0  0
    7.7474  -12.3684   25.4801 C   0  0  0  0  0  0  0  0  0  0  0  0
    7.4918  -11.1384   26.0794 C   0  0  0  0  0  0  0  0  0  0  0  0
    6.3652  -10.9706   26.8345 C   0  0  0  0  0  0  0  0  0  0  0  0
    5.4893  -12.0365   26.9920 C   0  0  0  0  0  0  0  0  0  0  0  0
    5.7690  -13.2615   26.3795 C   0  0  0  0  0  0  0  0  0  0  0  0
    9.1329  -15.9994   24.1562 C   0  0  0  0  0  0  0  0  0  0  0  0
    9.6148  -16.4013   25.2417 O   0  0  0  0  0  0  0  0  0  0  0  0
    9.3876  -16.7610   22.9919 N   0  0  0  0  0  0  0  0  0  0  0  0
   10.1948  -17.9562   23.0359 C   0  0  0  0  0  0  0  0  0  0  0  0
   11.6414  -17.6863   23.0362 C   0  0  0  0  0  0  0  0  0  0  0  0
   12.5345  -18.5696   23.0450 O   0  0  0  0  0  0  0  0  0  0  0  0
   12.0583  -16.3694   23.0260 O   0  0  0  0  0  0  0  0  0  0  0  0
  2  1  1  6
  2  3  1  0
  2  5  1  0
  4  3  1  0
  5  6  2  0
  7  8  1  0
  7  5  1  0
  9 10  1  0
  8  9  1  1
 10 15  2  0
 11 12  2  0
 11 10  1  0
 12 13  1  0
 13 14  2  0
 15 14  1  0
 16  8  1  0
 16 17  2  0
 18 16  1  0
 19 18  1  0
 19 20  1  0
 20 21  2  0
 20 22  1  0
M  END
$$$$
