CFG.pdb
     RDKit          3D

 22 22  0  0  1  0  0  0  0  0999 V2000
    7.7104  -12.8400   18.1822 N   0  0  0  0  0  0  0  0  0  0  0  0
    7.4693  -13.9842   19.0098 C   0  0  1  0  0  0  0  0  0  0  0  0
    8.2564  -15.1531   18.4016 C   0  0  0  0  0  0  0  0  0  0  0  0
    8.0801  -16.6437   19.4116 S   0  0  0  0  0  0  0  0  0  0  0  0
    7.9981  -13.8079   20.3914 C   0  0  0  0  0  0  0  0  0  0  0  0
    9.0517  -13.1544   20.5955 O   0  0  0  0  0  0  0  0  0  0  0  0
    7.3290  -14.3687   21.4926 N   0  0  0  0  0  0  0  0  0  0  0  0
    7.7758  -14.1860   22.8587 C   0  0  1  0  0  0  0  0  0  0  0  0
    6.5471  -13.7945   23.6474 C   0  0  0  0  0  0  0  0  0  0  0  0
    6.8287  -13.2878   24.9927 C   0  0  0  0  0  0  0  0  0  0  0  0
    7.1913  -14.0876   26.0407 C   0  0  0  0  0  0  0  0  0  0  0  0
    7.4555  -13.5759   27.3079 C   0  0  0  0  0  0  0  0  0  0  0  0
    7.3549  -12.2319   27.5335 C   0  0  0  0  0  0  0  0  0  0  0  0
    6.9886  -11.3943   26.4883 C   0  0  0  0  0  0  0  0  0  0  0  0
    6.7286  -11.9332   25.2249 C   0  0  0  0  0  0  0  0  0  0  0  0
    8.3950  -15.4449   23.3097 C   0  0  0  0  0  0  0  0  0  0  0  0
    7.7235  -16.4396   23.6724 O   0  0  0  0  0  0  0  0  0  0  0  0
    9.8054  -15.5469   23.3389 N   0  0  0  0  0  0  0  0  0  0  0  0
   10.4687  -16.6046   24.0621 C   0  0  0  0  0  0  0  0  0  0  0  0
   11.9339  -16.5763   23.9281 C   0  0  0  0  0  0  0  0  0  0  0  0
   12.6549  -15.5743   24.1608 O   0  0  0  0  0  0  0  0  0  0  0  0
   12.5728  -17.7301   23.5174 O   0  0  0  0  0  0  0  0  0  0  0  0
  2  1  1  6
  2  3  1  0
  2  5  1  0
  4  3  1  0
  5  6  2  0
  7  8  1  0
  7  5  1  0
  9 10  1  0
  8  9  1  1
 10 15  2  0
 11 12  2  0
 11 10  1  0
 12 13  1  0
 13 14  2  0
 15 14  1  0
 16  8  1  0
 16 17  2  0
 18 16  1  0
 19 18  1  0
 19 20  1  0
 20 21  2  0
 20 22  1  0
M  END
$$$$
