CFG.pdb
     RDKit          3D

 22 22  0  0  1  0  0  0  0  0999 V2000
    7.8118  -13.4019   20.2583 N   0  0  0  0  0  0  0  0  0  0  0  0
    7.3286  -14.4128   21.1509 C   0  0  1  0  0  0  0  0  0  0  0  0
    7.3139  -15.7336   20.3693 C   0  0  0  0  0  0  0  0  0  0  0  0
    6.6765  -17.0818   21.3936 S   0  0  0  0  0  0  0  0  0  0  0  0
    8.2399  -14.6311   22.3090 C   0  0  0  0  0  0  0  0  0  0  0  0
    9.4302  -14.2303   22.2719 O   0  0  0  0  0  0  0  0  0  0  0  0
    7.7863  -15.2892   23.4649 N   0  0  0  0  0  0  0  0  0  0  0  0
    8.4810  -15.2149   24.7341 C   0  0  1  0  0  0  0  0  0  0  0  0
    7.4077  -15.0392   25.7840 C   0  0  0  0  0  0  0  0  0  0  0  0
    7.1053  -13.6437   26.1113 C   0  0  0  0  0  0  0  0  0  0  0  0
    5.8385  -13.1746   26.3224 C   0  0  0  0  0  0  0  0  0  0  0  0
    5.5829  -11.8425   26.6348 C   0  0  0  0  0  0  0  0  0  0  0  0
    6.6188  -10.9573   26.7389 C   0  0  0  0  0  0  0  0  0  0  0  0
    7.9166  -11.4045   26.5300 C   0  0  0  0  0  0  0  0  0  0  0  0
    8.1466  -12.7475   26.2174 C   0  0  0  0  0  0  0  0  0  0  0  0
    9.2732  -16.4471   24.8949 C   0  0  0  0  0  0  0  0  0  0  0  0
    9.8053  -16.7748   25.9818 O   0  0  0  0  0  0  0  0  0  0  0  0
    9.4473  -17.3038   23.7830 N   0  0  0  0  0  0  0  0  0  0  0  0
   10.2242  -18.5157   23.8810 C   0  0  0  0  0  0  0  0  0  0  0  0
   11.6742  -18.2929   23.7661 C   0  0  0  0  0  0  0  0  0  0  0  0
   12.2159  -17.5152   22.9416 O   0  0  0  0  0  0  0  0  0  0  0  0
   12.5093  -18.9841   24.6223 O   0  0  0  0  0  0  0  0  0  0  0  0
  2  1  1  6
  2  3  1  0
  2  5  1  0
  4  3  1  0
  5  6  2  0
  7  8  1  0
  7  5  1  0
  9 10  1  0
  8  9  1  1
 10 15  2  0
 11 12  2  0
 11 10  1  0
 12 13  1  0
 13 14  2  0
 15 14  1  0
 16  8  1  0
 16 17  2  0
 18 16  1  0
 19 18  1  0
 19 20  1  0
 20 21  2  0
 20 22  1  0
M  END
$$$$
