CFG.pdb
     RDKit          3D

 22 22  0  0  1  0  0  0  0  0999 V2000
    7.9612  -12.8632   19.8090 N   0  0  0  0  0  0  0  0  0  0  0  0
    7.6060  -14.0193   20.5768 C   0  0  1  0  0  0  0  0  0  0  0  0
    7.9469  -15.2485   19.7231 C   0  0  0  0  0  0  0  0  0  0  0  0
    6.8718  -16.6421   20.1414 S   0  0  0  0  0  0  0  0  0  0  0  0
    8.4157  -14.1461   21.8209 C   0  0  0  0  0  0  0  0  0  0  0  0
    9.5367  -13.5864   21.9154 O   0  0  0  0  0  0  0  0  0  0  0  0
    7.9418  -14.8939   22.9123 N   0  0  0  0  0  0  0  0  0  0  0  0
    8.5886  -14.8866   24.2087 C   0  0  1  0  0  0  0  0  0  0  0  0
    7.4730  -14.9226   25.2282 C   0  0  0  0  0  0  0  0  0  0  0  0
    7.0865  -13.6084   25.7475 C   0  0  0  0  0  0  0  0  0  0  0  0
    5.8379  -13.3222   26.2253 C   0  0  0  0  0  0  0  0  0  0  0  0
    5.5014  -12.0636   26.7153 C   0  0  0  0  0  0  0  0  0  0  0  0
    6.4357  -11.0664   26.7282 C   0  0  0  0  0  0  0  0  0  0  0  0
    7.7126  -11.3272   26.2493 C   0  0  0  0  0  0  0  0  0  0  0  0
    8.0253  -12.5998   25.7625 C   0  0  0  0  0  0  0  0  0  0  0  0
    9.4921  -16.0489   24.2757 C   0  0  0  0  0  0  0  0  0  0  0  0
   10.0576  -16.4086   25.3353 O   0  0  0  0  0  0  0  0  0  0  0  0
    9.7393  -16.7976   23.1015 N   0  0  0  0  0  0  0  0  0  0  0  0
   10.6605  -17.9081   23.0969 C   0  0  0  0  0  0  0  0  0  0  0  0
   12.0720  -17.4979   23.0265 C   0  0  0  0  0  0  0  0  0  0  0  0
   13.0265  -18.2628   22.7405 O   0  0  0  0  0  0  0  0  0  0  0  0
   12.3808  -16.1780   23.2925 O   0  0  0  0  0  0  0  0  0  0  0  0
  2  1  1  6
  2  3  1  0
  2  5  1  0
  4  3  1  0
  5  6  2  0
  7  8  1  0
  7  5  1  0
  9 10  1  0
  8  9  1  1
 10 15  2  0
 11 12  2  0
 11 10  1  0
 12 13  1  0
 13 14  2  0
 15 14  1  0
 16  8  1  0
 16 17  2  0
 18 16  1  0
 19 18  1  0
 19 20  1  0
 20 21  2  0
 20 22  1  0
M  END
$$$$
