DVS.pdb
     RDKit          3D

 22 21  0  0  1  0  0  0  0  0999 V2000
    8.8802  -17.5488   16.1585 N   0  0  0  0  0  0  0  0  0  0  0  0
    7.8934  -17.3278   17.1807 C   0  0  1  0  0  0  0  0  0  0  0  0
    7.3138  -18.6731   17.5995 C   0  0  0  0  0  0  0  0  0  0  0  0
    6.5331  -19.2847   16.4948 C   0  0  0  0  0  0  0  0  0  0  0  0
    7.1069  -19.8949   15.5447 O   0  0  0  0  0  0  0  0  0  0  0  0
    8.5057  -16.6353   18.3475 C   0  0  0  0  0  0  0  0  0  0  0  0
    9.6744  -16.9164   18.6790 O   0  0  0  0  0  0  0  0  0  0  0  0
    5.1549  -19.1769   16.5197 O   0  0  0  0  0  0  0  0  0  0  0  0
    7.2462  -12.8232   19.4527 C   0  0  0  0  0  0  0  0  0  0  0  0
    7.4616  -13.7468   20.6483 C   0  0  2  0  0  0  0  0  0  0  0  0
    8.0794  -12.9321   21.7510 C   0  0  0  0  0  0  0  0  0  0  0  0
    8.2760  -14.9544   20.2441 C   0  0  2  0  0  0  0  0  0  0  0  0
    7.7968  -15.6593   19.1001 N   0  0  0  0  0  0  0  0  0  0  0  0
    8.6631  -15.8020   21.3982 C   0  0  0  0  0  0  0  0  0  0  0  0
    7.7507  -16.3419   22.1114 O   0  0  0  0  0  0  0  0  0  0  0  0
   11.9590  -18.2640   21.7577 O   0  0  0  0  0  0  0  0  0  0  0  0
   10.7933  -18.3031   22.4826 C   0  0  0  0  0  0  0  0  0  0  0  0
   10.3052  -16.9440   22.9412 C   0  0  2  0  0  0  0  0  0  0  0  0
    9.9845  -16.0858   21.8123 N   0  0  0  0  0  0  0  0  0  0  0  0
   11.1855  -16.3072   23.9222 C   0  0  0  0  0  0  0  0  0  0  0  0
   11.7121  -15.2042   23.6878 O   0  0  0  0  0  0  0  0  0  0  0  0
   11.4356  -16.9357   25.1222 O   0  0  0  0  0  0  0  0  0  0  0  0
  2  1  1  6
  2  6  1  0
  2  3  1  0
  3  4  1  0
  4  5  2  0
  4  8  1  0
  6  7  2  0
  6 13  1  0
 10  9  1  6
 10 12  1  0
 11 10  1  0
 12 14  1  0
 12 13  1  6
 14 15  2  0
 14 19  1  0
 16 17  1  0
 18 20  1  0
 18 17  1  6
 19 18  1  0
 20 22  1  0
 21 20  2  0
M  END
$$$$
