DVS.pdb
     RDKit          3D

 22 21  0  0  1  0  0  0  0  0999 V2000
    9.2315  -17.1431   15.7970 N   0  0  0  0  0  0  0  0  0  0  0  0
    8.4710  -17.2805   17.0095 C   0  0  1  0  0  0  0  0  0  0  0  0
    8.5429  -18.7312   17.4697 C   0  0  0  0  0  0  0  0  0  0  0  0
    7.8045  -19.6228   16.5404 C   0  0  0  0  0  0  0  0  0  0  0  0
    6.5461  -19.7482   16.6116 O   0  0  0  0  0  0  0  0  0  0  0  0
    9.0055  -16.3709   18.0596 C   0  0  0  0  0  0  0  0  0  0  0  0
   10.2347  -16.1722   18.1261 O   0  0  0  0  0  0  0  0  0  0  0  0
    8.5196  -20.3215   15.5854 O   0  0  0  0  0  0  0  0  0  0  0  0
    7.2547  -12.9368   19.5436 C   0  0  0  0  0  0  0  0  0  0  0  0
    7.5682  -13.9528   20.6384 C   0  0  2  0  0  0  0  0  0  0  0  0
    8.0255  -13.1918   21.8521 C   0  0  0  0  0  0  0  0  0  0  0  0
    8.5639  -14.9758   20.1413 C   0  0  2  0  0  0  0  0  0  0  0  0
    8.1553  -15.7187   18.9939 N   0  0  0  0  0  0  0  0  0  0  0  0
    9.1651  -15.7754   21.2365 C   0  0  0  0  0  0  0  0  0  0  0  0
    8.5031  -16.7462   21.7382 O   0  0  0  0  0  0  0  0  0  0  0  0
   13.1078  -16.9571   23.9432 O   0  0  0  0  0  0  0  0  0  0  0  0
   12.4990  -16.1539   23.0104 C   0  0  0  0  0  0  0  0  0  0  0  0
   11.0302  -16.4584   22.7974 C   0  0  2  0  0  0  0  0  0  0  0  0
   10.4407  -15.5691   21.8098 N   0  0  0  0  0  0  0  0  0  0  0  0
   10.2624  -16.5338   24.0415 C   0  0  0  0  0  0  0  0  0  0  0  0
    9.4990  -15.6106   24.3788 O   0  0  0  0  0  0  0  0  0  0  0  0
   10.3851  -17.6413   24.8516 O   0  0  0  0  0  0  0  0  0  0  0  0
  2  1  1  6
  2  6  1  0
  2  3  1  0
  3  4  1  0
  4  5  2  0
  4  8  1  0
  6  7  2  0
  6 13  1  0
 10  9  1  6
 10 12  1  0
 11 10  1  0
 12 14  1  0
 12 13  1  6
 14 15  2  0
 14 19  1  0
 16 17  1  0
 18 20  1  0
 18 17  1  1
 19 18  1  0
 20 22  1  0
 21 20  2  0
M  END
$$$$
