DVS.pdb
     RDKit          3D

 22 21  0  0  1  0  0  0  0  0999 V2000
    8.8140  -17.6653   16.4834 N   0  0  0  0  0  0  0  0  0  0  0  0
    7.8979  -17.5364   17.5841 C   0  0  1  0  0  0  0  0  0  0  0  0
    7.5041  -18.9298   18.0581 C   0  0  0  0  0  0  0  0  0  0  0  0
    6.8241  -19.6882   16.9781 C   0  0  0  0  0  0  0  0  0  0  0  0
    7.1315  -20.8910   16.7267 O   0  0  0  0  0  0  0  0  0  0  0  0
    8.5268  -16.7650   18.6910 C   0  0  0  0  0  0  0  0  0  0  0  0
    9.6965  -17.0308   19.0317 O   0  0  0  0  0  0  0  0  0  0  0  0
    5.8394  -19.0543   16.2433 O   0  0  0  0  0  0  0  0  0  0  0  0
    7.4055  -12.8319   19.5838 C   0  0  0  0  0  0  0  0  0  0  0  0
    7.5214  -13.7289   20.8130 C   0  0  2  0  0  0  0  0  0  0  0  0
    8.1058  -12.9057   21.9273 C   0  0  0  0  0  0  0  0  0  0  0  0
    8.3135  -14.9743   20.4862 C   0  0  2  0  0  0  0  0  0  0  0  0
    7.8329  -15.7302   19.3759 N   0  0  0  0  0  0  0  0  0  0  0  0
    8.6671  -15.7656   21.6900 C   0  0  0  0  0  0  0  0  0  0  0  0
    7.7454  -16.3780   22.3287 O   0  0  0  0  0  0  0  0  0  0  0  0
   11.9784  -18.1077   22.4452 O   0  0  0  0  0  0  0  0  0  0  0  0
   10.7466  -18.0943   23.0522 C   0  0  0  0  0  0  0  0  0  0  0  0
   10.2523  -16.7089   23.4159 C   0  0  2  0  0  0  0  0  0  0  0  0
    9.9646  -15.9189   22.2298 N   0  0  0  0  0  0  0  0  0  0  0  0
   11.1093  -16.0168   24.3799 C   0  0  0  0  0  0  0  0  0  0  0  0
   11.6236  -14.9174   24.1044 O   0  0  0  0  0  0  0  0  0  0  0  0
   11.3512  -16.5884   25.6097 O   0  0  0  0  0  0  0  0  0  0  0  0
  2  1  1  6
  2  6  1  0
  2  3  1  0
  3  4  1  0
  4  5  2  0
  4  8  1  0
  6  7  2  0
  6 13  1  0
 10  9  1  6
 10 12  1  0
 11 10  1  0
 12 14  1  0
 12 13  1  6
 14 15  2  0
 14 19  1  0
 16 17  1  0
 18 20  1  0
 18 17  1  6
 19 18  1  0
 20 22  1  0
 21 20  2  0
M  END
$$$$
