DVS.pdb
     RDKit          3D

 22 21  0  0  1  0  0  0  0  0999 V2000
   10.2545  -16.6415   15.3378 N   0  0  0  0  0  0  0  0  0  0  0  0
    9.1797  -16.6640   16.2926 C   0  0  1  0  0  0  0  0  0  0  0  0
    8.8815  -18.1126   16.6588 C   0  0  0  0  0  0  0  0  0  0  0  0
    8.3633  -18.8631   15.4874 C   0  0  0  0  0  0  0  0  0  0  0  0
    8.2322  -18.3069   14.3570 O   0  0  0  0  0  0  0  0  0  0  0  0
    9.5499  -15.8831   17.5045 C   0  0  0  0  0  0  0  0  0  0  0  0
   10.7508  -15.7912   17.8274 O   0  0  0  0  0  0  0  0  0  0  0  0
    8.0225  -20.1929   15.6514 O   0  0  0  0  0  0  0  0  0  0  0  0
    7.5344  -12.5234   18.7287 C   0  0  0  0  0  0  0  0  0  0  0  0
    7.7546  -13.4973   19.8829 C   0  0  2  0  0  0  0  0  0  0  0  0
    8.0800  -12.6890   21.1084 C   0  0  0  0  0  0  0  0  0  0  0  0
    8.8089  -14.5179   19.5201 C   0  0  2  0  0  0  0  0  0  0  0  0
    8.5733  -15.2359   18.3100 N   0  0  0  0  0  0  0  0  0  0  0  0
    9.2361  -15.3424   20.6768 C   0  0  0  0  0  0  0  0  0  0  0  0
    8.3979  -16.1387   21.2206 O   0  0  0  0  0  0  0  0  0  0  0  0
   11.5280  -18.8602   21.6933 O   0  0  0  0  0  0  0  0  0  0  0  0
   10.9624  -17.7487   21.1183 C   0  0  0  0  0  0  0  0  0  0  0  0
   11.0920  -16.4891   21.9503 C   0  0  2  0  0  0  0  0  0  0  0  0
   10.5203  -15.3399   21.2675 N   0  0  0  0  0  0  0  0  0  0  0  0
   12.4489  -16.2532   22.4462 C   0  0  0  0  0  0  0  0  0  0  0  0
   13.0295  -17.1009   23.1485 O   0  0  0  0  0  0  0  0  0  0  0  0
   13.0941  -15.0772   22.1323 O   0  0  0  0  0  0  0  0  0  0  0  0
  2  1  1  6
  2  6  1  0
  2  3  1  0
  3  4  1  0
  4  5  2  0
  4  8  1  0
  6  7  2  0
  6 13  1  0
 10  9  1  6
 10 12  1  0
 11 10  1  0
 12 14  1  0
 12 13  1  6
 14 15  2  0
 14 19  1  0
 16 17  1  0
 18 20  1  0
 18 17  1  6
 19 18  1  0
 20 22  1  0
 21 20  2  0
M  END
$$$$
