DVS.pdb
     RDKit          3D

 22 21  0  0  1  0  0  0  0  0999 V2000
    7.6578  -16.5401   21.3978 N   0  0  0  0  0  0  0  0  0  0  0  0
    6.9806  -16.5899   22.6653 C   0  0  1  0  0  0  0  0  0  0  0  0
    6.8032  -18.0487   23.0677 C   0  0  0  0  0  0  0  0  0  0  0  0
    5.8849  -18.7509   22.1363 C   0  0  0  0  0  0  0  0  0  0  0  0
    6.3279  -19.4072   21.1477 O   0  0  0  0  0  0  0  0  0  0  0  0
    7.7615  -15.8535   23.6966 C   0  0  0  0  0  0  0  0  0  0  0  0
    8.9997  -15.9940   23.7396 O   0  0  0  0  0  0  0  0  0  0  0  0
    4.5238  -18.6768   22.3676 O   0  0  0  0  0  0  0  0  0  0  0  0
    6.5832  -12.2153   25.3948 C   0  0  0  0  0  0  0  0  0  0  0  0
    6.9601  -13.2755   26.4259 C   0  0  2  0  0  0  0  0  0  0  0  0
    7.6817  -12.5850   27.5500 C   0  0  0  0  0  0  0  0  0  0  0  0
    7.7520  -14.3873   25.7764 C   0  0  2  0  0  0  0  0  0  0  0  0
    7.1375  -14.9911   24.6392 N   0  0  0  0  0  0  0  0  0  0  0  0
    8.3360  -15.3309   26.7606 C   0  0  0  0  0  0  0  0  0  0  0  0
    7.5612  -16.0942   27.4310 O   0  0  0  0  0  0  0  0  0  0  0  0
   12.3733  -16.7285   26.9222 O   0  0  0  0  0  0  0  0  0  0  0  0
   11.2474  -17.3645   27.3844 C   0  0  0  0  0  0  0  0  0  0  0  0
   10.2290  -16.4369   28.0154 C   0  0  2  0  0  0  0  0  0  0  0  0
    9.7115  -15.4805   27.0505 N   0  0  0  0  0  0  0  0  0  0  0  0
   10.6946  -15.8150   29.2561 C   0  0  0  0  0  0  0  0  0  0  0  0
   11.0819  -16.5095   30.2134 O   0  0  0  0  0  0  0  0  0  0  0  0
   10.7051  -14.4419   29.3675 O   0  0  0  0  0  0  0  0  0  0  0  0
  2  1  1  6
  2  6  1  0
  2  3  1  0
  3  4  1  0
  4  5  2  0
  4  8  1  0
  6  7  2  0
  6 13  1  0
 10  9  1  6
 10 12  1  0
 11 10  1  0
 12 14  1  0
 12 13  1  6
 14 15  2  0
 14 19  1  0
 16 17  1  0
 18 20  1  0
 18 17  1  6
 19 18  1  0
 20 22  1  0
 21 20  2  0
M  END
$$$$
