ESK.pdb
     RDKit          3D

 25 24  0  0  1  0  0  0  0  0999 V2000
   12.7577   -9.1407   -9.6377 N   0  0  0  0  0  0  0  0  0  0  0  0
   14.2176   -9.3064   -9.5008 C   0  0  1  0  0  0  0  0  0  0  0  0
   14.5951  -10.3844  -10.4544 C   0  0  0  0  0  0  0  0  0  0  0  0
   14.2823  -11.7769  -10.0516 C   0  0  0  0  0  0  0  0  0  0  0  0
   14.6848  -12.7436  -11.0722 C   0  0  0  0  0  0  0  0  0  0  0  0
   15.7220  -13.4301  -10.8966 O   0  0  0  0  0  0  0  0  0  0  0  0
   14.8282   -8.0080   -9.8855 C   0  0  0  0  0  0  0  0  0  0  0  0
   14.3110   -7.3815  -10.8333 O   0  0  0  0  0  0  0  0  0  0  0  0
   13.9726  -12.9535  -12.2521 O   0  0  0  0  0  0  0  0  0  0  0  0
   15.4128   -4.9677   -7.9247 O   0  0  0  0  0  0  0  0  0  0  0  0
   16.6730   -5.2879   -8.3772 C   0  0  0  0  0  0  0  0  0  0  0  0
   16.5273   -6.1894   -9.5834 C   0  0  2  0  0  0  0  0  0  0  0  0
   15.9449   -7.4707   -9.2334 N   0  0  0  0  0  0  0  0  0  0  0  0
   17.8757   -6.3725  -10.1774 C   0  0  0  0  0  0  0  0  0  0  0  0
   18.5673   -7.3651   -9.8036 O   0  0  0  0  0  0  0  0  0  0  0  0
   18.3795   -5.4615  -11.1387 N   0  0  0  0  0  0  0  0  0  0  0  0
   19.6167   -5.7751  -11.8135 C   0  0  1  0  0  0  0  0  0  0  0  0
   19.4265   -7.0839  -12.5476 C   0  0  0  0  0  0  0  0  0  0  0  0
   20.6111   -7.4676  -13.3652 C   0  0  0  0  0  0  0  0  0  0  0  0
   20.4161   -8.8105  -14.0188 C   0  0  0  0  0  0  0  0  0  0  0  0
   21.6251   -9.1556  -14.8522 C   0  0  0  0  0  0  0  0  0  0  0  0
   21.4623  -10.4557  -15.5006 N   0  0  0  0  0  0  0  0  0  0  0  0
   20.0180   -4.6777  -12.7084 C   0  0  0  0  0  0  0  0  0  0  0  0
   19.2278   -3.8835  -13.2752 O   0  0  0  0  0  0  0  0  0  0  0  0
   21.3738   -4.4997  -12.9501 O   0  0  0  0  0  0  0  0  0  0  0  0
  2  1  1  6
  2  7  1  0
  3  2  1  0
  4  3  1  0
  5  6  2  0
  5  4  1  0
  7  8  2  0
  9  5  1  0
 10 11  1  0
 12 11  1  1
 12 14  1  0
 13 12  1  0
 13  7  1  0
 14 15  2  0
 14 16  1  0
 16 17  1  0
 17 23  1  0
 18 19  1  0
 17 18  1  6
 20 21  1  0
 20 19  1  0
 21 22  1  0
 23 24  2  0
 23 25  1  0
M  END
$$$$
