ESK.pdb
     RDKit          3D

 25 24  0  0  1  0  0  0  0  0999 V2000
   20.4847  -13.7927  -17.4291 N   0  0  0  0  0  0  0  0  0  0  0  0
   21.1105  -12.5584  -17.9412 C   0  0  1  0  0  0  0  0  0  0  0  0
   20.0866  -11.9128  -18.8064 C   0  0  0  0  0  0  0  0  0  0  0  0
   18.6702  -12.2716  -18.5525 C   0  0  0  0  0  0  0  0  0  0  0  0
   17.8209  -11.0877  -18.4301 C   0  0  0  0  0  0  0  0  0  0  0  0
   18.0808  -10.0684  -19.1167 O   0  0  0  0  0  0  0  0  0  0  0  0
   21.4215  -11.7190  -16.7558 C   0  0  0  0  0  0  0  0  0  0  0  0
   20.5608  -11.6456  -15.8546 O   0  0  0  0  0  0  0  0  0  0  0  0
   16.7177  -11.0205  -17.5803 O   0  0  0  0  0  0  0  0  0  0  0  0
   25.0707   -9.7529  -16.3062 O   0  0  0  0  0  0  0  0  0  0  0  0
   24.3861  -10.1084  -15.1660 C   0  0  0  0  0  0  0  0  0  0  0  0
   22.9095  -10.1450  -15.4932 C   0  0  2  0  0  0  0  0  0  0  0  0
   22.6261  -11.0188  -16.6155 N   0  0  0  0  0  0  0  0  0  0  0  0
   22.4767   -8.7560  -15.7895 C   0  0  0  0  0  0  0  0  0  0  0  0
   22.1595   -8.4665  -16.9806 O   0  0  0  0  0  0  0  0  0  0  0  0
   22.4187   -7.7760  -14.7675 N   0  0  0  0  0  0  0  0  0  0  0  0
   22.0140   -6.4338  -15.1125 C   0  0  1  0  0  0  0  0  0  0  0  0
   20.6066   -6.5001  -15.6629 C   0  0  0  0  0  0  0  0  0  0  0  0
   20.0462   -5.1580  -15.9852 C   0  0  0  0  0  0  0  0  0  0  0  0
   18.6182   -5.2568  -16.4537 C   0  0  0  0  0  0  0  0  0  0  0  0
   18.1323   -3.9027  -16.9070 C   0  0  0  0  0  0  0  0  0  0  0  0
   16.8240   -4.0028  -17.5515 N   0  0  0  0  0  0  0  0  0  0  0  0
   22.1250   -5.5382  -13.9499 C   0  0  0  0  0  0  0  0  0  0  0  0
   22.1249   -5.9096  -12.7505 O   0  0  0  0  0  0  0  0  0  0  0  0
   22.2392   -4.1751  -14.1888 O   0  0  0  0  0  0  0  0  0  0  0  0
  2  1  1  1
  2  7  1  0
  3  2  1  0
  4  3  1  0
  5  6  2  0
  5  4  1  0
  7  8  2  0
  9  5  1  0
 10 11  1  0
 12 11  1  6
 12 14  1  0
 13 12  1  0
 13  7  1  0
 14 15  2  0
 14 16  1  0
 16 17  1  0
 17 23  1  0
 18 19  1  0
 17 18  1  1
 20 21  1  0
 20 19  1  0
 21 22  1  0
 23 24  2  0
 23 25  1  0
M  END
$$$$
