ESK.pdb
     RDKit          3D

 25 24  0  0  1  0  0  0  0  0999 V2000
   19.3418  -11.5522  -15.4556 N   0  0  0  0  0  0  0  0  0  0  0  0
   18.9569  -10.1284  -15.5031 C   0  0  1  0  0  0  0  0  0  0  0  0
   17.5503  -10.1041  -15.9873 C   0  0  0  0  0  0  0  0  0  0  0  0
   17.3250  -10.4447  -17.4130 C   0  0  0  0  0  0  0  0  0  0  0  0
   15.9086  -10.3841  -17.7712 C   0  0  0  0  0  0  0  0  0  0  0  0
   15.3740   -9.2679  -17.9862 O   0  0  0  0  0  0  0  0  0  0  0  0
   19.0572   -9.6169  -14.1121 C   0  0  0  0  0  0  0  0  0  0  0  0
   18.7391  -10.3899  -13.1850 O   0  0  0  0  0  0  0  0  0  0  0  0
   15.0995  -11.5131  -17.8911 O   0  0  0  0  0  0  0  0  0  0  0  0
   20.7961   -6.0028  -13.3403 O   0  0  0  0  0  0  0  0  0  0  0  0
   20.8167   -6.9071  -12.3025 C   0  0  0  0  0  0  0  0  0  0  0  0
   19.6239   -7.8257  -12.4521 C   0  0  2  0  0  0  0  0  0  0  0  0
   19.4889   -8.3197  -13.8089 N   0  0  0  0  0  0  0  0  0  0  0  0
   18.4136   -7.0655  -12.0494 C   0  0  0  0  0  0  0  0  0  0  0  0
   17.8288   -6.3601  -12.9231 O   0  0  0  0  0  0  0  0  0  0  0  0
   17.9224   -7.1255  -10.7216 N   0  0  0  0  0  0  0  0  0  0  0  0
   16.7812   -6.3165  -10.3644 C   0  0  1  0  0  0  0  0  0  0  0  0
   15.9978   -7.0605   -9.3056 C   0  0  0  0  0  0  0  0  0  0  0  0
   14.9082   -7.9019   -9.8747 C   0  0  0  0  0  0  0  0  0  0  0  0
   14.1293   -8.5994   -8.7905 C   0  0  0  0  0  0  0  0  0  0  0  0
   12.9962   -9.3874   -9.3991 C   0  0  0  0  0  0  0  0  0  0  0  0
   12.2204  -10.0738   -8.3676 N   0  0  0  0  0  0  0  0  0  0  0  0
   17.2056   -4.9795   -9.9192 C   0  0  0  0  0  0  0  0  0  0  0  0
   18.3950   -4.6286   -9.7222 O   0  0  0  0  0  0  0  0  0  0  0  0
   16.2209   -4.0260   -9.6973 O   0  0  0  0  0  0  0  0  0  0  0  0
  2  1  1  1
  2  7  1  0
  3  2  1  0
  4  3  1  0
  5  6  2  0
  5  4  1  0
  7  8  2  0
  9  5  1  0
 10 11  1  0
 12 11  1  6
 12 14  1  0
 13 12  1  0
 13  7  1  0
 14 15  2  0
 14 16  1  0
 16 17  1  0
 17 23  1  0
 18 19  1  0
 17 18  1  1
 20 21  1  0
 20 19  1  0
 21 22  1  0
 23 24  2  0
 23 25  1  0
M  END
$$$$
