ESK.pdb
     RDKit          3D

 25 24  0  0  1  0  0  0  0  0999 V2000
   25.3982  -22.5944  -12.7668 N   0  0  0  0  0  0  0  0  0  0  0  0
   24.6303  -21.3488  -12.9576 C   0  0  1  0  0  0  0  0  0  0  0  0
   24.5469  -20.7135  -11.6148 C   0  0  0  0  0  0  0  0  0  0  0  0
   24.5128  -21.6220  -10.4432 C   0  0  0  0  0  0  0  0  0  0  0  0
   24.4110  -20.8853   -9.1842 C   0  0  0  0  0  0  0  0  0  0  0  0
   24.3082  -19.6336   -9.2086 O   0  0  0  0  0  0  0  0  0  0  0  0
   25.4121  -20.5110  -13.9029 C   0  0  0  0  0  0  0  0  0  0  0  0
   24.9673  -19.3776  -14.1784 O   0  0  0  0  0  0  0  0  0  0  0  0
   24.4213  -21.5006   -7.9333 O   0  0  0  0  0  0  0  0  0  0  0  0
   28.5242  -22.0532  -16.1044 O   0  0  0  0  0  0  0  0  0  0  0  0
   28.7220  -20.7451  -15.7236 C   0  0  0  0  0  0  0  0  0  0  0  0
   27.3729  -20.1323  -15.4185 C   0  0  2  0  0  0  0  0  0  0  0  0
   26.6105  -20.9404  -14.4862 N   0  0  0  0  0  0  0  0  0  0  0  0
   26.6417  -19.9849  -16.7023 C   0  0  0  0  0  0  0  0  0  0  0  0
   25.7565  -20.8428  -16.9916 O   0  0  0  0  0  0  0  0  0  0  0  0
   26.9245  -18.9125  -17.5843 N   0  0  0  0  0  0  0  0  0  0  0  0
   26.1864  -18.8155  -18.8213 C   0  0  1  0  0  0  0  0  0  0  0  0
   24.9904  -17.9215  -18.5796 C   0  0  0  0  0  0  0  0  0  0  0  0
   24.1962  -17.6691  -19.8143 C   0  0  0  0  0  0  0  0  0  0  0  0
   23.0357  -16.7482  -19.5426 C   0  0  0  0  0  0  0  0  0  0  0  0
   22.2400  -16.5393  -20.8069 C   0  0  0  0  0  0  0  0  0  0  0  0
   21.2013  -15.5291  -20.6128 N   0  0  0  0  0  0  0  0  0  0  0  0
   27.0486  -18.3251  -19.9086 C   0  0  0  0  0  0  0  0  0  0  0  0
   26.7549  -18.3498  -21.1291 O   0  0  0  0  0  0  0  0  0  0  0  0
   28.2846  -17.7923  -19.5671 O   0  0  0  0  0  0  0  0  0  0  0  0
  2  1  1  1
  2  7  1  0
  3  2  1  0
  4  3  1  0
  5  6  2  0
  5  4  1  0
  7  8  2  0
  9  5  1  0
 10 11  1  0
 12 11  1  6
 12 14  1  0
 13 12  1  0
 13  7  1  0
 14 15  2  0
 14 16  1  0
 16 17  1  0
 17 23  1  0
 18 19  1  0
 17 18  1  1
 20 21  1  0
 20 19  1  0
 21 22  1  0
 23 24  2  0
 23 25  1  0
M  END
$$$$
