ESK.pdb
     RDKit          3D

 25 24  0  0  1  0  0  0  0  0999 V2000
   27.7323  -21.7369  -16.0986 N   0  0  0  0  0  0  0  0  0  0  0  0
   27.4831  -20.6518  -15.1300 C   0  0  1  0  0  0  0  0  0  0  0  0
   26.9166  -19.5251  -15.9195 C   0  0  0  0  0  0  0  0  0  0  0  0
   27.0010  -19.6308  -17.3964 C   0  0  0  0  0  0  0  0  0  0  0  0
   28.3470  -19.3400  -17.8882 C   0  0  0  0  0  0  0  0  0  0  0  0
   28.9871  -18.3756  -17.4002 O   0  0  0  0  0  0  0  0  0  0  0  0
   26.4946  -21.1762  -14.1531 C   0  0  0  0  0  0  0  0  0  0  0  0
   25.6097  -21.9467  -14.5794 O   0  0  0  0  0  0  0  0  0  0  0  0
   28.9754  -20.0834  -18.8862 O   0  0  0  0  0  0  0  0  0  0  0  0
   24.9683  -21.4708   -9.6012 O   0  0  0  0  0  0  0  0  0  0  0  0
   25.7640  -20.7458  -10.4593 C   0  0  0  0  0  0  0  0  0  0  0  0
   25.4484  -21.1771  -11.8747 C   0  0  2  0  0  0  0  0  0  0  0  0
   26.5197  -20.8425  -12.7933 N   0  0  0  0  0  0  0  0  0  0  0  0
   24.1848  -20.5109  -12.2800 C   0  0  0  0  0  0  0  0  0  0  0  0
   24.2380  -19.3070  -12.6684 O   0  0  0  0  0  0  0  0  0  0  0  0
   22.9485  -21.2018  -12.2345 N   0  0  0  0  0  0  0  0  0  0  0  0
   21.7444  -20.4994  -12.6100 C   0  0  1  0  0  0  0  0  0  0  0  0
   21.5843  -20.6209  -14.1093 C   0  0  0  0  0  0  0  0  0  0  0  0
   20.3731  -19.9212  -14.6216 C   0  0  0  0  0  0  0  0  0  0  0  0
   20.1873  -20.1540  -16.0981 C   0  0  0  0  0  0  0  0  0  0  0  0
   18.9851  -19.3877  -16.5907 C   0  0  0  0  0  0  0  0  0  0  0  0
   18.8152  -19.5483  -18.0338 N   0  0  0  0  0  0  0  0  0  0  0  0
   20.5822  -21.0209  -11.8729 C   0  0  0  0  0  0  0  0  0  0  0  0
   20.5717  -22.0800  -11.1986 O   0  0  0  0  0  0  0  0  0  0  0  0
   19.4016  -20.2916  -11.9216 O   0  0  0  0  0  0  0  0  0  0  0  0
  2  1  1  6
  2  7  1  0
  3  2  1  0
  4  3  1  0
  5  6  2  0
  5  4  1  0
  7  8  2  0
  9  5  1  0
 10 11  1  0
 12 11  1  1
 12 14  1  0
 13 12  1  0
 13  7  1  0
 14 15  2  0
 14 16  1  0
 16 17  1  0
 17 23  1  0
 18 19  1  0
 17 18  1  6
 20 21  1  0
 20 19  1  0
 21 22  1  0
 23 24  2  0
 23 25  1  0
M  END
$$$$
