ESK.pdb
     RDKit          3D

 25 24  0  0  1  0  0  0  0  0999 V2000
   22.4650  -14.4641  -17.7036 N   0  0  0  0  0  0  0  0  0  0  0  0
   21.2488  -14.0448  -16.9806 C   0  0  1  0  0  0  0  0  0  0  0  0
   20.8549  -15.2077  -16.1402 C   0  0  0  0  0  0  0  0  0  0  0  0
   21.7347  -16.4005  -16.1895 C   0  0  0  0  0  0  0  0  0  0  0  0
   21.2252  -17.4891  -15.3569 C   0  0  0  0  0  0  0  0  0  0  0  0
   21.8697  -18.5650  -15.2859 O   0  0  0  0  0  0  0  0  0  0  0  0
   21.6354  -12.8805  -16.1431 C   0  0  0  0  0  0  0  0  0  0  0  0
   20.8154  -12.4807  -15.2909 O   0  0  0  0  0  0  0  0  0  0  0  0
   20.0434  -17.4033  -14.6222 O   0  0  0  0  0  0  0  0  0  0  0  0
   25.3906  -11.7546  -14.8667 O   0  0  0  0  0  0  0  0  0  0  0  0
   24.7195  -10.7782  -15.5677 C   0  0  0  0  0  0  0  0  0  0  0  0
   23.2372  -11.0689  -15.4819 C   0  0  2  0  0  0  0  0  0  0  0  0
   22.8666  -12.2263  -16.2732 N   0  0  0  0  0  0  0  0  0  0  0  0
   22.5111   -9.8611  -15.9497 C   0  0  0  0  0  0  0  0  0  0  0  0
   22.4762   -9.6250  -17.1931 O   0  0  0  0  0  0  0  0  0  0  0  0
   21.8720   -8.9922  -15.0307 N   0  0  0  0  0  0  0  0  0  0  0  0
   21.1204   -7.8701  -15.5411 C   0  0  1  0  0  0  0  0  0  0  0  0
   19.6515   -8.2240  -15.4694 C   0  0  0  0  0  0  0  0  0  0  0  0
   18.7643   -7.1059  -15.8960 C   0  0  0  0  0  0  0  0  0  0  0  0
   17.3128   -7.5040  -15.8397 C   0  0  0  0  0  0  0  0  0  0  0  0
   16.4512   -6.3744  -16.3464 C   0  0  0  0  0  0  0  0  0  0  0  0
   15.0458   -6.7721  -16.4068 N   0  0  0  0  0  0  0  0  0  0  0  0
   21.4434   -6.6417  -14.7976 C   0  0  0  0  0  0  0  0  0  0  0  0
   21.9983   -6.6047  -13.6720 O   0  0  0  0  0  0  0  0  0  0  0  0
   21.1121   -5.4249  -15.3788 O   0  0  0  0  0  0  0  0  0  0  0  0
  2  1  1  1
  2  7  1  0
  3  2  1  0
  4  3  1  0
  5  6  2  0
  5  4  1  0
  7  8  2  0
  9  5  1  0
 10 11  1  0
 12 11  1  6
 12 14  1  0
 13 12  1  0
 13  7  1  0
 14 15  2  0
 14 16  1  0
 16 17  1  0
 17 23  1  0
 18 19  1  0
 17 18  1  1
 20 21  1  0
 20 19  1  0
 21 22  1  0
 23 24  2  0
 23 25  1  0
M  END
$$$$
