ESK.pdb
     RDKit          3D

 25 24  0  0  1  0  0  0  0  0999 V2000
   12.9092   -9.0221   -9.4080 N   0  0  0  0  0  0  0  0  0  0  0  0
   14.3680   -9.2320   -9.4818 C   0  0  1  0  0  0  0  0  0  0  0  0
   14.5798  -10.2351  -10.5601 C   0  0  0  0  0  0  0  0  0  0  0  0
   14.1874  -11.6339  -10.2624 C   0  0  0  0  0  0  0  0  0  0  0  0
   14.5219  -12.5398  -11.3603 C   0  0  0  0  0  0  0  0  0  0  0  0
   14.2186  -13.7555  -11.2711 O   0  0  0  0  0  0  0  0  0  0  0  0
   14.9661   -7.9204   -9.8404 C   0  0  0  0  0  0  0  0  0  0  0  0
   14.3106   -7.1696  -10.5921 O   0  0  0  0  0  0  0  0  0  0  0  0
   15.1703  -12.1275  -12.5236 O   0  0  0  0  0  0  0  0  0  0  0  0
   17.6101   -4.1493   -9.2176 O   0  0  0  0  0  0  0  0  0  0  0  0
   17.0166   -5.2800   -8.7032 C   0  0  0  0  0  0  0  0  0  0  0  0
   16.8678   -6.2868   -9.8226 C   0  0  2  0  0  0  0  0  0  0  0  0
   16.2184   -7.5031   -9.3730 N   0  0  0  0  0  0  0  0  0  0  0  0
   18.2242   -6.5821  -10.3494 C   0  0  0  0  0  0  0  0  0  0  0  0
   18.8010   -7.6413   -9.9641 O   0  0  0  0  0  0  0  0  0  0  0  0
   18.8606   -5.7030  -11.2606 N   0  0  0  0  0  0  0  0  0  0  0  0
   20.1083   -6.1086  -11.8629 C   0  0  1  0  0  0  0  0  0  0  0  0
   19.8472   -7.3572  -12.6759 C   0  0  0  0  0  0  0  0  0  0  0  0
   21.0450   -7.8175  -13.4325 C   0  0  0  0  0  0  0  0  0  0  0  0
   20.7318   -9.0259  -14.2752 C   0  0  0  0  0  0  0  0  0  0  0  0
   21.9740   -9.4824  -14.9989 C   0  0  0  0  0  0  0  0  0  0  0  0
   21.7215  -10.7087  -15.7536 N   0  0  0  0  0  0  0  0  0  0  0  0
   20.6797   -5.0179  -12.6691 C   0  0  0  0  0  0  0  0  0  0  0  0
   20.0178   -4.1016  -13.2155 O   0  0  0  0  0  0  0  0  0  0  0  0
   22.0570   -4.9926  -12.8442 O   0  0  0  0  0  0  0  0  0  0  0  0
  2  1  1  6
  2  7  1  0
  3  2  1  0
  4  3  1  0
  5  6  2  0
  5  4  1  0
  7  8  2  0
  9  5  1  0
 10 11  1  0
 12 11  1  1
 12 14  1  0
 13 12  1  0
 13  7  1  0
 14 15  2  0
 14 16  1  0
 16 17  1  0
 17 23  1  0
 18 19  1  0
 17 18  1  6
 20 21  1  0
 20 19  1  0
 21 22  1  0
 23 24  2  0
 23 25  1  0
M  END
$$$$
