QRV.pdb
     RDKit          3D

 28 27  0  0  1  0  0  0  0  0999 V2000
   15.2085  -13.6518   19.6768 N   0  0  0  0  0  0  0  0  0  0  0  0
   14.1490  -14.0940   18.8473 C   0  0  0  0  0  0  0  0  0  0  0  0
   14.1017  -13.7352   17.6551 O   0  0  0  0  0  0  0  0  0  0  0  0
   13.1146  -14.9772   19.4131 C   0  0  0  0  0  0  0  0  0  0  0  0
   13.7287  -15.8214   20.4952 C   0  0  0  0  0  0  0  0  0  0  0  0
   12.7626  -16.6744   21.2477 C   0  0  2  0  0  0  0  0  0  0  0  0
   11.8444  -17.2778   20.2789 N   0  0  0  0  0  0  0  0  0  0  0  0
   12.0468  -16.0212   22.3470 C   0  0  0  0  0  0  0  0  0  0  0  0
   12.6664  -15.3376   23.1791 O   0  0  0  0  0  0  0  0  0  0  0  0
    8.7070  -14.7645   18.2954 N   0  0  0  0  0  0  0  0  0  0  0  0
    7.9500  -13.8213   19.0527 C   0  0  0  0  0  0  0  0  0  0  0  0
    8.1703  -12.5610   18.8681 N   0  0  0  0  0  0  0  0  0  0  0  0
    6.9740  -14.2652   19.9873 N   0  0  0  0  0  0  0  0  0  0  0  0
    7.3292  -15.0806   21.1040 C   0  0  0  0  0  0  0  0  0  0  0  0
    8.0241  -14.3144   22.2254 C   0  0  0  0  0  0  0  0  0  0  0  0
    8.4234  -15.3407   23.2546 C   0  0  0  0  0  0  0  0  0  0  0  0
    9.8974  -15.4167   23.4716 C   0  0  2  0  0  0  0  0  0  0  0  0
   10.6282  -16.1540   22.4906 N   0  0  0  0  0  0  0  0  0  0  0  0
   10.1811  -15.9325   24.8608 C   0  0  0  0  0  0  0  0  0  0  0  0
   10.5788  -17.1049   25.0594 O   0  0  0  0  0  0  0  0  0  0  0  0
    7.6260  -11.8417   19.3645 C   0  0  0  0  0  0  0  0  0  0  0  0
   10.5671  -14.5951   29.6727 C   0  0  2  0  0  0  0  0  0  0  0  0
   10.0814  -14.3152   28.2907 C   0  0  0  0  0  0  0  0  0  0  0  0
   10.7753  -13.1265   27.7090 C   0  0  1  0  0  0  0  0  0  0  0  0
   10.2789  -15.4931   27.3572 N   0  0  0  0  0  0  0  0  0  0  0  0
   10.0042  -15.0979   25.9922 C   0  0  0  0  0  0  0  0  0  0  0  0
    9.4185  -16.6445   27.6894 O   0  0  0  0  0  0  0  0  0  0  0  0
    8.2417  -16.7731   27.2459 O   0  0  0  0  0  0  0  0  0  0  0  0
  2  3  2  0
  2  1  1  0
  4  2  1  0
  5  4  1  0
  6  8  1  0
  6  5  1  0
  6  7  1  6
  8 18  1  0
  9  8  2  0
 11 10  1  0
 11 12  2  0
 13 11  1  0
 14 13  1  0
 14 15  1  0
 16 15  1  0
 17 16  1  6
 17 19  1  0
 18 17  1  0
 19 20  2  0
 19 25  1  0
 22 21  1  1
 22 23  1  0
 24 26  1  0
 24 22  1  0
 24 25  1  1
 26 28  1  0
 27 26  2  0
M  END
$$$$
