QRV.pdb
     RDKit          3D

 28 27  0  0  1  0  0  0  0  0999 V2000
   14.6678  -13.3292   18.5202 N   0  0  0  0  0  0  0  0  0  0  0  0
   14.8095  -14.6765   18.1065 C   0  0  0  0  0  0  0  0  0  0  0  0
   15.5023  -14.9503   17.1078 O   0  0  0  0  0  0  0  0  0  0  0  0
   14.1310  -15.7375   18.8705 C   0  0  0  0  0  0  0  0  0  0  0  0
   13.4515  -15.1250   20.0637 C   0  0  0  0  0  0  0  0  0  0  0  0
   12.7710  -16.1001   20.9655 C   0  0  2  0  0  0  0  0  0  0  0  0
   11.9503  -16.9851   20.1354 N   0  0  0  0  0  0  0  0  0  0  0  0
   12.0058  -15.5256   22.0755 C   0  0  0  0  0  0  0  0  0  0  0  0
   12.5697  -14.8109   22.9211 O   0  0  0  0  0  0  0  0  0  0  0  0
    7.6662  -12.6326   19.0777 N   0  0  0  0  0  0  0  0  0  0  0  0
    7.6801  -14.0541   18.9545 C   0  0  0  0  0  0  0  0  0  0  0  0
    8.1471  -14.5760   17.8679 N   0  0  0  0  0  0  0  0  0  0  0  0
    7.1913  -14.8734   20.0094 N   0  0  0  0  0  0  0  0  0  0  0  0
    6.7915  -14.3156   21.2613 C   0  0  0  0  0  0  0  0  0  0  0  0
    7.9603  -13.8658   22.1326 C   0  0  0  0  0  0  0  0  0  0  0  0
    8.3557  -15.0620   22.9601 C   0  0  0  0  0  0  0  0  0  0  0  0
    9.8215  -15.1364   23.2275 C   0  0  2  0  0  0  0  0  0  0  0  0
   10.6020  -15.7721   22.2143 N   0  0  0  0  0  0  0  0  0  0  0  0
   10.0611  -15.7707   24.5753 C   0  0  0  0  0  0  0  0  0  0  0  0
   10.4008  -16.9727   24.6862 O   0  0  0  0  0  0  0  0  0  0  0  0
    8.2237  -15.5960   17.7511 C   0  0  0  0  0  0  0  0  0  0  0  0
   10.2252  -14.8882   29.5136 C   0  0  2  0  0  0  0  0  0  0  0  0
    9.9173  -14.4385   28.1254 C   0  0  0  0  0  0  0  0  0  0  0  0
   10.7535  -13.2597   27.7457 C   0  0  1  0  0  0  0  0  0  0  0  0
   10.1342  -15.5335   27.0998 N   0  0  0  0  0  0  0  0  0  0  0  0
    9.9074  -15.0186   25.7662 C   0  0  0  0  0  0  0  0  0  0  0  0
    9.2531  -16.6991   27.3035 O   0  0  0  0  0  0  0  0  0  0  0  0
    9.5016  -17.6090   28.1452 O   0  0  0  0  0  0  0  0  0  0  0  0
  2  3  2  0
  2  1  1  0
  4  2  1  0
  5  4  1  0
  6  8  1  0
  6  5  1  0
  6  7  1  6
  8 18  1  0
  9  8  2  0
 11 10  1  0
 11 12  2  0
 13 11  1  0
 14 13  1  0
 14 15  1  0
 16 15  1  0
 17 16  1  6
 17 19  1  0
 18 17  1  0
 19 20  2  0
 19 25  1  0
 22 21  1  1
 22 23  1  0
 24 26  1  0
 24 22  1  0
 24 25  1  1
 26 28  1  0
 27 26  2  0
M  END
$$$$
