QRV.pdb
     RDKit          3D

 28 27  0  0  1  0  0  0  0  0999 V2000
    8.1683  -13.5551   16.1133 N   0  0  0  0  0  0  0  0  0  0  0  0
    7.7206  -14.5381   17.0296 C   0  0  0  0  0  0  0  0  0  0  0  0
    7.9705  -15.7409   16.8222 O   0  0  0  0  0  0  0  0  0  0  0  0
    6.9625  -14.1174   18.2206 C   0  0  0  0  0  0  0  0  0  0  0  0
    7.7711  -13.1061   18.9848 C   0  0  0  0  0  0  0  0  0  0  0  0
    8.7597  -13.6875   19.9399 C   0  0  2  0  0  0  0  0  0  0  0  0
    9.4356  -14.7997   19.2676 N   0  0  0  0  0  0  0  0  0  0  0  0
    8.2356  -14.0778   21.2516 C   0  0  0  0  0  0  0  0  0  0  0  0
    7.6134  -13.2573   21.9468 O   0  0  0  0  0  0  0  0  0  0  0  0
    8.6432  -21.0321   27.3551 N   0  0  0  0  0  0  0  0  0  0  0  0
    7.4257  -20.4218   26.9292 C   0  0  0  0  0  0  0  0  0  0  0  0
    6.4436  -20.3509   27.7668 N   0  0  0  0  0  0  0  0  0  0  0  0
    7.3029  -19.9024   25.6108 N   0  0  0  0  0  0  0  0  0  0  0  0
    8.2153  -18.9267   25.1070 C   0  0  0  0  0  0  0  0  0  0  0  0
    7.5536  -17.6027   24.7373 C   0  0  0  0  0  0  0  0  0  0  0  0
    8.0540  -17.2498   23.3600 C   0  0  0  0  0  0  0  0  0  0  0  0
    7.9140  -15.8007   23.0343 C   0  0  2  0  0  0  0  0  0  0  0  0
    8.4268  -15.4019   21.7623 N   0  0  0  0  0  0  0  0  0  0  0  0
    8.5094  -14.9701   24.1443 C   0  0  0  0  0  0  0  0  0  0  0  0
    9.7487  -14.8995   24.3215 O   0  0  0  0  0  0  0  0  0  0  0  0
    5.5618  -19.8789   27.5227 C   0  0  0  0  0  0  0  0  0  0  0  0
    6.9590  -11.4173   25.3335 C   0  0  2  0  0  0  0  0  0  0  0  0
    7.1618  -12.3566   26.4740 C   0  0  0  0  0  0  0  0  0  0  0  0
    5.8705  -12.9850   26.8872 C   0  0  2  0  0  0  0  0  0  0  0  0
    8.1514  -13.4579   26.1491 N   0  0  0  0  0  0  0  0  0  0  0  0
    7.6764  -14.2389   25.0269 C   0  0  0  0  0  0  0  0  0  0  0  0
    8.3920  -14.3715   27.2821 O   0  0  0  0  0  0  0  0  0  0  0  0
    7.9639  -15.5607   27.3083 O   0  0  0  0  0  0  0  0  0  0  0  0
  2  3  2  0
  2  1  1  0
  4  2  1  0
  5  4  1  0
  6  8  1  0
  6  5  1  0
  6  7  1  6
  8 18  1  0
  9  8  2  0
 11 10  1  0
 11 12  2  0
 13 11  1  0
 14 13  1  0
 14 15  1  0
 16 15  1  0
 17 16  1  1
 17 19  1  0
 18 17  1  0
 19 20  2  0
 19 25  1  0
 22 21  1  1
 22 23  1  0
 24 26  1  0
 24 22  1  0
 24 25  1  1
 26 28  1  0
 27 26  2  0
M  END
$$$$
