QRV.pdb
     RDKit          3D

 28 27  0  0  1  0  0  0  0  0999 V2000
    7.8991  -12.7986   16.5997 N   0  0  0  0  0  0  0  0  0  0  0  0
    7.5526  -14.1704   16.6659 C   0  0  0  0  0  0  0  0  0  0  0  0
    6.8534  -14.6788   15.7686 O   0  0  0  0  0  0  0  0  0  0  0  0
    8.0293  -14.9776   17.8022 C   0  0  0  0  0  0  0  0  0  0  0  0
    8.6970  -14.0731   18.8005 C   0  0  0  0  0  0  0  0  0  0  0  0
    9.3655  -14.7771   19.9340 C   0  0  2  0  0  0  0  0  0  0  0  0
    9.8039  -16.0898   19.4537 N   0  0  0  0  0  0  0  0  0  0  0  0
    8.5930  -14.8784   21.1752 C   0  0  0  0  0  0  0  0  0  0  0  0
    8.0256  -13.8770   21.6431 O   0  0  0  0  0  0  0  0  0  0  0  0
    8.1688  -21.7862   24.9989 N   0  0  0  0  0  0  0  0  0  0  0  0
    7.1468  -20.9443   25.5309 C   0  0  0  0  0  0  0  0  0  0  0  0
    6.6761  -21.2099   26.7052 N   0  0  0  0  0  0  0  0  0  0  0  0
    6.6627  -19.8370   24.7809 N   0  0  0  0  0  0  0  0  0  0  0  0
    6.6166  -19.8671   23.3543 C   0  0  0  0  0  0  0  0  0  0  0  0
    6.6506  -18.4841   22.7111 C   0  0  0  0  0  0  0  0  0  0  0  0
    7.5296  -17.6308   23.5891 C   0  0  0  0  0  0  0  0  0  0  0  0
    7.7079  -16.2419   23.0745 C   0  0  2  0  0  0  0  0  0  0  0  0
    8.4745  -16.1220   21.8753 N   0  0  0  0  0  0  0  0  0  0  0  0
    8.2663  -15.3627   24.1660 C   0  0  0  0  0  0  0  0  0  0  0  0
    9.5011  -15.2085   24.3201 O   0  0  0  0  0  0  0  0  0  0  0  0
    5.9209  -20.6474   27.1215 C   0  0  0  0  0  0  0  0  0  0  0  0
    7.0724  -11.8906   27.5633 C   0  0  1  0  0  0  0  0  0  0  0  0
    6.6909  -12.8460   26.4836 C   0  0  0  0  0  0  0  0  0  0  0  0
    6.2018  -12.1195   25.2728 C   0  0  1  0  0  0  0  0  0  0  0  0
    7.8394  -13.7466   26.0740 N   0  0  0  0  0  0  0  0  0  0  0  0
    7.4023  -14.6795   25.0573 C   0  0  0  0  0  0  0  0  0  0  0  0
    8.4003  -14.5165   27.2004 O   0  0  0  0  0  0  0  0  0  0  0  0
    8.0674  -15.7103   27.4496 O   0  0  0  0  0  0  0  0  0  0  0  0
  2  3  2  0
  2  1  1  0
  4  2  1  0
  5  4  1  0
  6  8  1  0
  6  5  1  0
  6  7  1  6
  8 18  1  0
  9  8  2  0
 11 10  1  0
 11 12  2  0
 13 11  1  0
 14 13  1  0
 14 15  1  0
 16 15  1  0
 17 16  1  1
 17 19  1  0
 18 17  1  0
 19 20  2  0
 19 25  1  0
 22 21  1  1
 22 23  1  0
 24 26  1  0
 24 22  1  0
 24 25  1  1
 26 28  1  0
 27 26  2  0
M  END
$$$$
