QRV.pdb
     RDKit          3D

 28 27  0  0  1  0  0  0  0  0999 V2000
    8.8165  -12.4627   18.6273 N   0  0  0  0  0  0  0  0  0  0  0  0
    8.3048  -13.4413   17.7403 C   0  0  0  0  0  0  0  0  0  0  0  0
    8.8590  -13.6344   16.6412 O   0  0  0  0  0  0  0  0  0  0  0  0
    7.1185  -14.2195   18.1364 C   0  0  0  0  0  0  0  0  0  0  0  0
    6.9324  -14.1072   19.6241 C   0  0  0  0  0  0  0  0  0  0  0  0
    7.9242  -14.8691   20.4384 C   0  0  2  0  0  0  0  0  0  0  0  0
    8.1710  -16.1478   19.7677 N   0  0  0  0  0  0  0  0  0  0  0  0
    7.5931  -15.0488   21.8546 C   0  0  0  0  0  0  0  0  0  0  0  0
    7.0346  -14.1372   22.4877 O   0  0  0  0  0  0  0  0  0  0  0  0
    6.7830  -21.5342   22.4654 N   0  0  0  0  0  0  0  0  0  0  0  0
    5.5004  -21.1379   22.9493 C   0  0  0  0  0  0  0  0  0  0  0  0
    4.4824  -21.2418   22.1593 N   0  0  0  0  0  0  0  0  0  0  0  0
    5.3519  -20.6422   24.2741 N   0  0  0  0  0  0  0  0  0  0  0  0
    6.2280  -19.6441   24.7982 C   0  0  0  0  0  0  0  0  0  0  0  0
    6.9830  -18.8668   23.7242 C   0  0  0  0  0  0  0  0  0  0  0  0
    7.8044  -17.8321   24.4498 C   0  0  0  0  0  0  0  0  0  0  0  0
    7.6088  -16.4492   23.9255 C   0  0  2  0  0  0  0  0  0  0  0  0
    7.9032  -16.2674   22.5398 N   0  0  0  0  0  0  0  0  0  0  0  0
    8.3773  -15.4689   24.7769 C   0  0  0  0  0  0  0  0  0  0  0  0
    9.6289  -15.4031   24.7380 O   0  0  0  0  0  0  0  0  0  0  0  0
    3.5371  -20.9682   22.4618 C   0  0  0  0  0  0  0  0  0  0  0  0
    7.1376  -11.7210   25.3816 C   0  0  2  0  0  0  0  0  0  0  0  0
    7.4502  -12.3955   26.6744 C   0  0  0  0  0  0  0  0  0  0  0  0
    6.2003  -12.8314   27.3678 C   0  0  2  0  0  0  0  0  0  0  0  0
    8.3483  -13.6036   26.4956 N   0  0  0  0  0  0  0  0  0  0  0  0
    7.6995  -14.5859   25.6536 C   0  0  0  0  0  0  0  0  0  0  0  0
    8.7077  -14.2505   27.7718 O   0  0  0  0  0  0  0  0  0  0  0  0
    9.4738  -13.7136   28.6221 O   0  0  0  0  0  0  0  0  0  0  0  0
  2  3  2  0
  2  1  1  0
  4  2  1  0
  5  4  1  0
  6  8  1  0
  6  5  1  0
  6  7  1  6
  8 18  1  0
  9  8  2  0
 11 10  1  0
 11 12  2  0
 13 11  1  0
 14 13  1  0
 14 15  1  0
 16 15  1  0
 17 16  1  1
 17 19  1  0
 18 17  1  0
 19 20  2  0
 19 25  1  0
 22 21  1  1
 22 23  1  0
 24 26  1  0
 24 22  1  0
 24 25  1  1
 26 28  1  0
 27 26  2  0
M  END
$$$$
