QRV.pdb
     RDKit          3D

 28 27  0  0  1  0  0  0  0  0999 V2000
   16.3140  -17.9883   22.1229 N   0  0  0  0  0  0  0  0  0  0  0  0
   15.9756  -18.3994   20.8104 C   0  0  0  0  0  0  0  0  0  0  0  0
   16.6568  -19.2710   20.2370 O   0  0  0  0  0  0  0  0  0  0  0  0
   14.8154  -17.7852   20.1421 C   0  0  0  0  0  0  0  0  0  0  0  0
   14.1229  -16.8651   21.1087 C   0  0  0  0  0  0  0  0  0  0  0  0
   12.9258  -17.4497   21.7814 C   0  0  2  0  0  0  0  0  0  0  0  0
   12.1126  -18.1121   20.7588 N   0  0  0  0  0  0  0  0  0  0  0  0
   12.1325  -16.5285   22.5997 C   0  0  0  0  0  0  0  0  0  0  0  0
   12.6948  -15.7333   23.3711 O   0  0  0  0  0  0  0  0  0  0  0  0
    8.3783  -12.2828   19.6254 N   0  0  0  0  0  0  0  0  0  0  0  0
    7.5676  -13.3994   19.2620 C   0  0  0  0  0  0  0  0  0  0  0  0
    7.7473  -13.9426   18.1028 N   0  0  0  0  0  0  0  0  0  0  0  0
    6.5863  -13.9003   20.1615 N   0  0  0  0  0  0  0  0  0  0  0  0
    6.9320  -14.8001   21.2147 C   0  0  0  0  0  0  0  0  0  0  0  0
    8.3941  -14.7106   21.6414 C   0  0  0  0  0  0  0  0  0  0  0  0
    8.5032  -15.4699   22.9389 C   0  0  0  0  0  0  0  0  0  0  0  0
    9.9119  -15.6858   23.3799 C   0  0  2  0  0  0  0  0  0  0  0  0
   10.7020  -16.5222   22.5337 N   0  0  0  0  0  0  0  0  0  0  0  0
    9.9284  -16.1840   24.8040 C   0  0  0  0  0  0  0  0  0  0  0  0
    9.9090  -17.4085   25.0733 O   0  0  0  0  0  0  0  0  0  0  0  0
    7.1849  -14.7475   17.7933 C   0  0  0  0  0  0  0  0  0  0  0  0
   10.3230  -14.7467   29.5982 C   0  0  2  0  0  0  0  0  0  0  0  0
   10.1279  -14.4180   28.1567 C   0  0  0  0  0  0  0  0  0  0  0  0
   11.1994  -13.4990   27.6665 C   0  0  1  0  0  0  0  0  0  0  0  0
   10.1127  -15.6527   27.2775 N   0  0  0  0  0  0  0  0  0  0  0  0
    9.9665  -15.2729   25.8884 C   0  0  0  0  0  0  0  0  0  0  0  0
    9.0274  -16.5919   27.6187 O   0  0  0  0  0  0  0  0  0  0  0  0
    9.0904  -17.3869   28.5996 O   0  0  0  0  0  0  0  0  0  0  0  0
  2  3  2  0
  2  1  1  0
  4  2  1  0
  5  4  1  0
  6  8  1  0
  6  5  1  0
  6  7  1  6
  8 18  1  0
  9  8  2  0
 11 10  1  0
 11 12  2  0
 13 11  1  0
 14 13  1  0
 14 15  1  0
 16 15  1  0
 17 16  1  6
 17 19  1  0
 18 17  1  0
 19 20  2  0
 19 25  1  0
 22 21  1  1
 22 23  1  0
 24 26  1  0
 24 22  1  0
 24 25  1  6
 26 28  1  0
 27 26  2  0
M  END
$$$$
