QRV.pdb
     RDKit          3D

 28 27  0  0  1  0  0  0  0  0999 V2000
    9.2379  -12.3799   18.7906 N   0  0  0  0  0  0  0  0  0  0  0  0
    8.5116  -13.1261   17.8305 C   0  0  0  0  0  0  0  0  0  0  0  0
    8.6156  -12.8498   16.6200 O   0  0  0  0  0  0  0  0  0  0  0  0
    7.6404  -14.2242   18.2835 C   0  0  0  0  0  0  0  0  0  0  0  0
    7.9360  -14.5211   19.7275 C   0  0  0  0  0  0  0  0  0  0  0  0
    7.7318  -15.9440   20.1285 C   0  0  2  0  0  0  0  0  0  0  0  0
    6.8335  -16.5635   19.1512 N   0  0  0  0  0  0  0  0  0  0  0  0
    7.2809  -16.1672   21.5049 C   0  0  0  0  0  0  0  0  0  0  0  0
    6.1532  -15.7883   21.8637 O   0  0  0  0  0  0  0  0  0  0  0  0
    7.1021  -21.5797   26.4053 N   0  0  0  0  0  0  0  0  0  0  0  0
    7.3137  -20.6154   27.4357 C   0  0  0  0  0  0  0  0  0  0  0  0
    8.1934  -20.8688   28.3484 N   0  0  0  0  0  0  0  0  0  0  0  0
    6.5708  -19.4026   27.4509 N   0  0  0  0  0  0  0  0  0  0  0  0
    6.6275  -18.4811   26.3618 C   0  0  0  0  0  0  0  0  0  0  0  0
    8.0262  -17.9327   26.0958 C   0  0  0  0  0  0  0  0  0  0  0  0
    8.2468  -18.0404   24.6087 C   0  0  0  0  0  0  0  0  0  0  0  0
    7.8085  -16.8283   23.8575 C   0  0  2  0  0  0  0  0  0  0  0  0
    8.1207  -16.8198   22.4638 N   0  0  0  0  0  0  0  0  0  0  0  0
    8.3346  -15.5895   24.5392 C   0  0  0  0  0  0  0  0  0  0  0  0
    9.5211  -15.2112   24.3932 O   0  0  0  0  0  0  0  0  0  0  0  0
    8.4047  -20.1913   29.0942 C   0  0  0  0  0  0  0  0  0  0  0  0
    5.5667  -13.2097   26.8619 C   0  0  2  0  0  0  0  0  0  0  0  0
    6.7176  -12.6301   26.1111 C   0  0  0  0  0  0  0  0  0  0  0  0
    7.1818  -11.3568   26.7404 C   0  0  1  0  0  0  0  0  0  0  0  0
    7.8937  -13.5828   26.0270 N   0  0  0  0  0  0  0  0  0  0  0  0
    7.4941  -14.8104   25.3725 C   0  0  0  0  0  0  0  0  0  0  0  0
    8.4578  -13.9227   27.3470 O   0  0  0  0  0  0  0  0  0  0  0  0
    8.2381  -15.0256   27.9244 O   0  0  0  0  0  0  0  0  0  0  0  0
  2  3  2  0
  2  1  1  0
  4  2  1  0
  5  4  1  0
  6  8  1  0
  6  5  1  0
  6  7  1  6
  8 18  1  0
  9  8  2  0
 11 10  1  0
 11 12  2  0
 13 11  1  0
 14 13  1  0
 14 15  1  0
 16 15  1  0
 17 16  1  1
 17 19  1  0
 18 17  1  0
 19 20  2  0
 19 25  1  0
 22 21  1  6
 22 23  1  0
 24 26  1  0
 24 22  1  0
 24 25  1  6
 26 28  1  0
 27 26  2  0
M  END
$$$$
