QRV.pdb
     RDKit          3D

 28 27  0  0  1  0  0  0  0  0999 V2000
    8.4202  -12.5674   18.4443 N   0  0  0  0  0  0  0  0  0  0  0  0
    8.6729  -13.6775   17.6017 C   0  0  0  0  0  0  0  0  0  0  0  0
    9.1392  -13.4981   16.4603 O   0  0  0  0  0  0  0  0  0  0  0  0
    8.3786  -15.0344   18.0938 C   0  0  0  0  0  0  0  0  0  0  0  0
    7.7796  -14.9381   19.4695 C   0  0  0  0  0  0  0  0  0  0  0  0
    7.5950  -16.2457   20.1649 C   0  0  2  0  0  0  0  0  0  0  0  0
    6.7410  -17.0872   19.3232 N   0  0  0  0  0  0  0  0  0  0  0  0
    7.1072  -16.1782   21.5451 C   0  0  0  0  0  0  0  0  0  0  0  0
    6.1538  -15.4367   21.8368 O   0  0  0  0  0  0  0  0  0  0  0  0
    9.0012  -20.3538   26.8527 N   0  0  0  0  0  0  0  0  0  0  0  0
    7.6962  -20.2493   27.4203 C   0  0  0  0  0  0  0  0  0  0  0  0
    7.5857  -20.1686   28.7058 N   0  0  0  0  0  0  0  0  0  0  0  0
    6.5460  -20.2324   26.5838 N   0  0  0  0  0  0  0  0  0  0  0  0
    6.6540  -20.3694   25.1668 C   0  0  0  0  0  0  0  0  0  0  0  0
    6.3142  -19.0945   24.4006 C   0  0  0  0  0  0  0  0  0  0  0  0
    7.3822  -18.0913   24.7541 C   0  0  0  0  0  0  0  0  0  0  0  0
    7.3053  -16.8383   23.9482 C   0  0  2  0  0  0  0  0  0  0  0  0
    7.7119  -16.9562   22.5841 N   0  0  0  0  0  0  0  0  0  0  0  0
    8.0628  -15.7366   24.6472 C   0  0  0  0  0  0  0  0  0  0  0  0
    9.3051  -15.6142   24.5289 O   0  0  0  0  0  0  0  0  0  0  0  0
    6.6653  -20.1165   29.1640 C   0  0  0  0  0  0  0  0  0  0  0  0
    7.5438  -11.4613   27.1978 C   0  0  1  0  0  0  0  0  0  0  0  0
    6.9558  -12.6584   26.5305 C   0  0  0  0  0  0  0  0  0  0  0  0
    6.1601  -12.2654   25.3283 C   0  0  1  0  0  0  0  0  0  0  0  0
    8.0100  -13.6607   26.1040 N   0  0  0  0  0  0  0  0  0  0  0  0
    7.3849  -14.7994   25.4656 C   0  0  0  0  0  0  0  0  0  0  0  0
    8.8300  -14.1508   27.2282 O   0  0  0  0  0  0  0  0  0  0  0  0
    8.5813  -15.2281   27.8412 O   0  0  0  0  0  0  0  0  0  0  0  0
  2  3  2  0
  2  1  1  0
  4  2  1  0
  5  4  1  0
  6  8  1  0
  6  5  1  0
  6  7  1  6
  8 18  1  0
  9  8  2  0
 11 10  1  0
 11 12  2  0
 13 11  1  0
 14 13  1  0
 14 15  1  0
 16 15  1  0
 17 16  1  1
 17 19  1  0
 18 17  1  0
 19 20  2  0
 19 25  1  0
 22 21  1  1
 22 23  1  0
 24 26  1  0
 24 22  1  0
 24 25  1  1
 26 28  1  0
 27 26  2  0
M  END
$$$$
