QRV.pdb
     RDKit          3D

 28 27  0  0  1  0  0  0  0  0999 V2000
   13.1199  -14.7885   20.6721 N   0  0  0  0  0  0  0  0  0  0  0  0
   12.5957  -14.0891   19.5575 C   0  0  0  0  0  0  0  0  0  0  0  0
   13.3172  -13.8706   18.5655 O   0  0  0  0  0  0  0  0  0  0  0  0
   11.1964  -13.6299   19.5911 C   0  0  0  0  0  0  0  0  0  0  0  0
   10.2914  -14.7919   19.2887 C   0  0  0  0  0  0  0  0  0  0  0  0
    8.8329  -14.4934   19.3938 C   0  0  2  0  0  0  0  0  0  0  0  0
    8.6097  -13.1449   18.8668 N   0  0  0  0  0  0  0  0  0  0  0  0
    8.2331  -14.6693   20.7192 C   0  0  0  0  0  0  0  0  0  0  0  0
    7.8192  -13.6853   21.3550 O   0  0  0  0  0  0  0  0  0  0  0  0
    9.1812  -20.0872   26.0165 N   0  0  0  0  0  0  0  0  0  0  0  0
    7.8250  -20.4976   26.1852 C   0  0  0  0  0  0  0  0  0  0  0  0
    7.5900  -21.6952   26.6116 N   0  0  0  0  0  0  0  0  0  0  0  0
    6.7596  -19.6025   25.8911 N   0  0  0  0  0  0  0  0  0  0  0  0
    6.4398  -19.2417   24.5472 C   0  0  0  0  0  0  0  0  0  0  0  0
    6.5276  -17.7425   24.2782 C   0  0  0  0  0  0  0  0  0  0  0  0
    7.2504  -17.5902   22.9643 C   0  0  0  0  0  0  0  0  0  0  0  0
    7.4421  -16.1678   22.5573 C   0  0  2  0  0  0  0  0  0  0  0  0
    8.1112  -15.9674   21.3115 N   0  0  0  0  0  0  0  0  0  0  0  0
    8.1245  -15.4085   23.6683 C   0  0  0  0  0  0  0  0  0  0  0  0
    9.3707  -15.4218   23.8060 O   0  0  0  0  0  0  0  0  0  0  0  0
    6.6289  -22.0393   26.7452 C   0  0  0  0  0  0  0  0  0  0  0  0
    7.3923  -12.1866   27.4419 C   0  0  1  0  0  0  0  0  0  0  0  0
    6.8599  -13.0281   26.3317 C   0  0  0  0  0  0  0  0  0  0  0  0
    6.2208  -12.1834   25.2776 C   0  0  1  0  0  0  0  0  0  0  0  0
    7.9339  -13.8782   25.6824 N   0  0  0  0  0  0  0  0  0  0  0  0
    7.3685  -14.6512   24.5971 C   0  0  0  0  0  0  0  0  0  0  0  0
    8.5838  -14.8081   26.6253 O   0  0  0  0  0  0  0  0  0  0  0  0
    8.1303  -15.9615   26.8750 O   0  0  0  0  0  0  0  0  0  0  0  0
  2  3  2  0
  2  1  1  0
  4  2  1  0
  5  4  1  0
  6  8  1  0
  6  5  1  0
  6  7  1  1
  8 18  1  0
  9  8  2  0
 11 10  1  0
 11 12  2  0
 13 11  1  0
 14 13  1  0
 14 15  1  0
 16 15  1  0
 17 16  1  1
 17 19  1  0
 18 17  1  0
 19 20  2  0
 19 25  1  0
 22 21  1  1
 22 23  1  0
 24 26  1  0
 24 22  1  0
 24 25  1  1
 26 28  1  0
 27 26  2  0
M  END
$$$$
