YFS.pdb
     RDKit          3D

 30 31  0  0  1  0  0  0  0  0999 V2000
   16.2049   -9.8843  -17.1170 O   0  0  0  0  0  0  0  0  0  0  0  0
   17.5792   -9.9934  -17.3469 C   0  0  0  0  0  0  0  0  0  0  0  0
   18.4086  -10.6196  -16.4401 C   0  0  0  0  0  0  0  0  0  0  0  0
   19.7646  -10.7244  -16.6723 C   0  0  0  0  0  0  0  0  0  0  0  0
   20.3566  -10.2127  -17.8140 C   0  0  0  0  0  0  0  0  0  0  0  0
   21.8227  -10.3410  -18.0370 C   0  0  0  0  0  0  0  0  0  0  0  0
   22.5946   -9.1896  -17.4336 C   0  0  2  0  0  0  0  0  0  0  0  0
   22.2357   -7.9174  -17.9825 N   0  0  0  0  0  0  0  0  0  0  0  0
   24.0393   -9.4979  -17.5910 C   0  0  0  0  0  0  0  0  0  0  0  0
   24.5947   -9.1564  -18.6647 O   0  0  0  0  0  0  0  0  0  0  0  0
   19.5190   -9.5878  -18.7159 C   0  0  0  0  0  0  0  0  0  0  0  0
   18.1615   -9.4808  -18.4872 C   0  0  0  0  0  0  0  0  0  0  0  0
   24.8190  -10.1495  -16.6069 N   0  0  0  0  0  0  0  0  0  0  0  0
   26.1979  -10.4185  -16.8479 C   0  0  1  0  0  0  0  0  0  0  0  0
   27.0292  -10.3676  -15.5838 C   0  0  0  0  0  0  0  0  0  0  0  0
   28.4215  -10.7972  -15.7847 C   0  0  0  0  0  0  0  0  0  0  0  0
   29.3548  -10.0212  -16.4318 C   0  0  0  0  0  0  0  0  0  0  0  0
   30.6676  -10.4511  -16.6097 C   0  0  0  0  0  0  0  0  0  0  0  0
   31.0806  -11.6795  -16.1396 C   0  0  0  0  0  0  0  0  0  0  0  0
   30.1553  -12.4604  -15.4925 C   0  0  0  0  0  0  0  0  0  0  0  0
   28.8672  -12.0196  -15.3271 C   0  0  0  0  0  0  0  0  0  0  0  0
   26.3540  -11.6438  -17.6308 C   0  0  0  0  0  0  0  0  0  0  0  0
   25.8966  -12.7775  -17.2741 O   0  0  0  0  0  0  0  0  0  0  0  0
   27.4206  -11.3027  -21.4504 O   0  0  0  0  0  0  0  0  0  0  0  0
   26.8590  -12.5190  -21.0854 C   0  0  0  0  0  0  0  0  0  0  0  0
   27.2861  -12.7939  -19.6456 C   0  0  2  0  0  0  0  0  0  0  0  0
   27.0471  -11.6060  -18.8652 N   0  0  0  0  0  0  0  0  0  0  0  0
   28.7406  -13.0456  -19.6905 C   0  0  0  0  0  0  0  0  0  0  0  0
   29.2385  -14.0467  -20.2582 O   0  0  0  0  0  0  0  0  0  0  0  0
   29.5994  -12.1432  -19.0826 O   0  0  0  0  0  0  0  0  0  0  0  0
  2  3  2  0
  2  1  1  0
  4  3  1  0
  5  4  2  0
  6  5  1  0
  7  6  1  0
  7  8  1  6
  9  7  1  0
  9 10  2  0
 11  5  1  0
 11 12  2  0
 12  2  1  0
 13  9  1  0
 14 13  1  0
 14 15  1  1
 16 15  1  0
 16 17  2  0
 18 17  1  0
 19 18  2  0
 20 21  2  0
 20 19  1  0
 21 16  1  0
 22 14  1  0
 23 22  2  0
 25 24  1  0
 26 25  1  6
 26 27  1  0
 27 22  1  0
 28 26  1  0
 28 30  1  0
 29 28  2  0
M  END
$$$$
