YFS.pdb
     RDKit          3D

 30 31  0  0  1  0  0  0  0  0999 V2000
   29.3997  -14.8925  -18.9894 O   0  0  0  0  0  0  0  0  0  0  0  0
   28.5818  -15.7500  -18.2484 C   0  0  0  0  0  0  0  0  0  0  0  0
   28.8798  -16.0697  -16.9402 C   0  0  0  0  0  0  0  0  0  0  0  0
   28.0686  -16.9169  -16.2136 C   0  0  0  0  0  0  0  0  0  0  0  0
   26.9269  -17.4836  -16.7530 C   0  0  0  0  0  0  0  0  0  0  0  0
   26.0713  -18.3943  -15.9442 C   0  0  0  0  0  0  0  0  0  0  0  0
   26.6090  -19.8069  -15.9157 C   0  0  2  0  0  0  0  0  0  0  0  0
   26.7025  -20.4040  -17.2131 N   0  0  0  0  0  0  0  0  0  0  0  0
   25.7526  -20.5852  -14.9840 C   0  0  0  0  0  0  0  0  0  0  0  0
   24.7154  -21.1171  -15.4521 O   0  0  0  0  0  0  0  0  0  0  0  0
   26.6365  -17.1582  -18.0626 C   0  0  0  0  0  0  0  0  0  0  0  0
   27.4456  -16.3109  -18.7932 C   0  0  0  0  0  0  0  0  0  0  0  0
   26.0374  -20.7596  -13.6095 N   0  0  0  0  0  0  0  0  0  0  0  0
   25.1634  -21.5307  -12.7891 C   0  0  1  0  0  0  0  0  0  0  0  0
   25.8452  -22.0496  -11.5411 C   0  0  0  0  0  0  0  0  0  0  0  0
   25.5926  -21.2212  -10.3522 C   0  0  0  0  0  0  0  0  0  0  0  0
   24.3979  -21.2401   -9.6710 C   0  0  0  0  0  0  0  0  0  0  0  0
   24.1834  -20.4453   -8.5474 C   0  0  0  0  0  0  0  0  0  0  0  0
   25.1692  -19.6053   -8.0752 C   0  0  0  0  0  0  0  0  0  0  0  0
   26.3649  -19.5804   -8.7494 C   0  0  0  0  0  0  0  0  0  0  0  0
   26.5571  -20.3703   -9.8539 C   0  0  0  0  0  0  0  0  0  0  0  0
   23.9151  -20.8085  -12.5458 C   0  0  0  0  0  0  0  0  0  0  0  0
   23.8560  -19.6497  -12.0212 O   0  0  0  0  0  0  0  0  0  0  0  0
   20.6763  -22.0150  -14.4961 O   0  0  0  0  0  0  0  0  0  0  0  0
   20.6365  -20.7246  -13.9850 C   0  0  0  0  0  0  0  0  0  0  0  0
   21.4193  -20.7390  -12.6742 C   0  0  2  0  0  0  0  0  0  0  0  0
   22.6793  -21.4000  -12.9038 N   0  0  0  0  0  0  0  0  0  0  0  0
   20.6242  -21.5509  -11.7310 C   0  0  0  0  0  0  0  0  0  0  0  0
   20.9971  -22.6767  -11.3238 O   0  0  0  0  0  0  0  0  0  0  0  0
   19.4138  -21.0563  -11.2710 O   0  0  0  0  0  0  0  0  0  0  0  0
  2  3  2  0
  2  1  1  0
  4  3  1  0
  5  4  2  0
  6  5  1  0
  7  6  1  0
  7  8  1  6
  9  7  1  0
  9 10  2  0
 11  5  1  0
 11 12  2  0
 12  2  1  0
 13  9  1  0
 14 13  1  0
 14 15  1  1
 16 15  1  0
 16 17  2  0
 18 17  1  0
 19 18  2  0
 20 21  2  0
 20 19  1  0
 21 16  1  0
 22 14  1  0
 23 22  2  0
 25 24  1  0
 26 25  1  6
 26 27  1  0
 27 22  1  0
 28 26  1  0
 28 30  1  0
 29 28  2  0
M  END
$$$$
