YFS.pdb
     RDKit          3D

 30 31  0  0  1  0  0  0  0  0999 V2000
   30.1334  -15.4858  -19.2637 O   0  0  0  0  0  0  0  0  0  0  0  0
   29.3191  -16.5638  -18.9053 C   0  0  0  0  0  0  0  0  0  0  0  0
   29.4348  -17.7870  -19.5318 C   0  0  0  0  0  0  0  0  0  0  0  0
   28.6282  -18.8476  -19.1738 C   0  0  0  0  0  0  0  0  0  0  0  0
   27.6720  -18.7408  -18.1789 C   0  0  0  0  0  0  0  0  0  0  0  0
   26.8163  -19.9029  -17.8145 C   0  0  0  0  0  0  0  0  0  0  0  0
   27.5910  -20.9744  -17.0814 C   0  0  2  0  0  0  0  0  0  0  0  0
   27.8132  -22.1503  -17.8663 N   0  0  0  0  0  0  0  0  0  0  0  0
   26.8643  -21.2551  -15.8163 C   0  0  0  0  0  0  0  0  0  0  0  0
   26.0592  -22.2193  -15.8082 O   0  0  0  0  0  0  0  0  0  0  0  0
   27.5632  -17.5132  -17.5573 C   0  0  0  0  0  0  0  0  0  0  0  0
   28.3684  -16.4493  -17.9126 C   0  0  0  0  0  0  0  0  0  0  0  0
   27.0269  -20.5033  -14.6292 N   0  0  0  0  0  0  0  0  0  0  0  0
   26.2836  -20.8401  -13.4606 C   0  0  1  0  0  0  0  0  0  0  0  0
   26.9140  -20.2991  -12.1952 C   0  0  0  0  0  0  0  0  0  0  0  0
   26.1007  -20.5348  -10.9924 C   0  0  0  0  0  0  0  0  0  0  0  0
   26.2761  -21.6284  -10.1769 C   0  0  0  0  0  0  0  0  0  0  0  0
   25.4922  -21.8292   -9.0433 C   0  0  0  0  0  0  0  0  0  0  0  0
   24.5052  -20.9314   -8.6963 C   0  0  0  0  0  0  0  0  0  0  0  0
   24.3236  -19.8369   -9.5050 C   0  0  0  0  0  0  0  0  0  0  0  0
   25.1056  -19.6566  -10.6171 C   0  0  0  0  0  0  0  0  0  0  0  0
   24.8720  -20.4985  -13.6322 C   0  0  0  0  0  0  0  0  0  0  0  0
   24.4586  -19.3508  -13.9975 O   0  0  0  0  0  0  0  0  0  0  0  0
   20.4446  -22.0772  -14.2967 O   0  0  0  0  0  0  0  0  0  0  0  0
   21.7930  -22.3870  -14.1800 C   0  0  0  0  0  0  0  0  0  0  0  0
   22.4714  -21.1880  -13.5217 C   0  0  2  0  0  0  0  0  0  0  0  0
   23.8772  -21.4766  -13.3891 N   0  0  0  0  0  0  0  0  0  0  0  0
   21.8826  -21.0741  -12.1721 C   0  0  0  0  0  0  0  0  0  0  0  0
   22.3814  -21.6308  -11.1653 O   0  0  0  0  0  0  0  0  0  0  0  0
   20.7305  -20.3227  -12.0011 O   0  0  0  0  0  0  0  0  0  0  0  0
  2  3  2  0
  2  1  1  0
  4  3  1  0
  5  4  2  0
  6  5  1  0
  7  6  1  0
  7  8  1  6
  9  7  1  0
  9 10  2  0
 11  5  1  0
 11 12  2  0
 12  2  1  0
 13  9  1  0
 14 13  1  0
 14 15  1  1
 16 15  1  0
 16 17  2  0
 18 17  1  0
 19 18  2  0
 20 21  2  0
 20 19  1  0
 21 16  1  0
 22 14  1  0
 23 22  2  0
 25 24  1  0
 26 25  1  6
 26 27  1  0
 27 22  1  0
 28 26  1  0
 28 30  1  0
 29 28  2  0
M  END
$$$$
