YFS.pdb
     RDKit          3D

 30 31  0  0  1  0  0  0  0  0999 V2000
   14.3406  -37.4890   -2.4634 O   0  0  0  0  0  0  0  0  0  0  0  0
   15.6548  -37.2975   -2.8988 C   0  0  0  0  0  0  0  0  0  0  0  0
   16.5130  -38.3630   -3.0733 C   0  0  0  0  0  0  0  0  0  0  0  0
   17.8094  -38.1679   -3.5034 C   0  0  0  0  0  0  0  0  0  0  0  0
   18.3106  -36.9076   -3.7790 C   0  0  0  0  0  0  0  0  0  0  0  0
   19.7140  -36.7284   -4.2417 C   0  0  0  0  0  0  0  0  0  0  0  0
   19.7994  -36.5153   -5.7360 C   0  0  2  0  0  0  0  0  0  0  0  0
   19.3377  -37.6370   -6.4957 N   0  0  0  0  0  0  0  0  0  0  0  0
   21.2044  -36.1472   -6.0484 C   0  0  0  0  0  0  0  0  0  0  0  0
   21.9561  -37.0466   -6.4997 O   0  0  0  0  0  0  0  0  0  0  0  0
   17.4449  -35.8472   -3.6017 C   0  0  0  0  0  0  0  0  0  0  0  0
   16.1468  -36.0381   -3.1714 C   0  0  0  0  0  0  0  0  0  0  0  0
   21.7392  -34.8502   -5.8677 N   0  0  0  0  0  0  0  0  0  0  0  0
   23.0749  -34.5631   -6.2740 C   0  0  1  0  0  0  0  0  0  0  0  0
   23.2157  -33.1796   -6.8718 C   0  0  0  0  0  0  0  0  0  0  0  0
   24.5489  -32.9223   -7.4374 C   0  0  0  0  0  0  0  0  0  0  0  0
   24.8188  -33.0184   -8.7827 C   0  0  0  0  0  0  0  0  0  0  0  0
   26.0905  -32.7699   -9.2936 C   0  0  0  0  0  0  0  0  0  0  0  0
   27.1314  -32.4162   -8.4618 C   0  0  0  0  0  0  0  0  0  0  0  0
   26.8705  -32.3180   -7.1175 C   0  0  0  0  0  0  0  0  0  0  0  0
   25.6117  -32.5666   -6.6335 C   0  0  0  0  0  0  0  0  0  0  0  0
   24.0162  -34.8590   -5.1944 C   0  0  0  0  0  0  0  0  0  0  0  0
   23.8032  -34.5798   -3.9704 O   0  0  0  0  0  0  0  0  0  0  0  0
   28.4764  -36.3710   -4.1597 O   0  0  0  0  0  0  0  0  0  0  0  0
   27.5577  -36.0865   -5.1611 C   0  0  0  0  0  0  0  0  0  0  0  0
   26.2348  -35.7580   -4.4733 C   0  0  2  0  0  0  0  0  0  0  0  0
   25.2467  -35.4949   -5.4890 N   0  0  0  0  0  0  0  0  0  0  0  0
   26.4681  -34.5169   -3.7076 C   0  0  0  0  0  0  0  0  0  0  0  0
   26.1866  -34.4077   -2.4906 O   0  0  0  0  0  0  0  0  0  0  0  0
   27.0210  -33.4216   -4.3525 O   0  0  0  0  0  0  0  0  0  0  0  0
  2  3  2  0
  2  1  1  0
  4  3  1  0
  5  4  2  0
  6  5  1  0
  7  6  1  0
  7  8  1  6
  9  7  1  0
  9 10  2  0
 11  5  1  0
 11 12  2  0
 12  2  1  0
 13  9  1  0
 14 13  1  0
 14 15  1  1
 16 15  1  0
 16 17  2  0
 18 17  1  0
 19 18  2  0
 20 21  2  0
 20 19  1  0
 21 16  1  0
 22 14  1  0
 23 22  2  0
 25 24  1  0
 26 25  1  6
 26 27  1  0
 27 22  1  0
 28 26  1  0
 28 30  1  0
 29 28  2  0
M  END
$$$$
