QKQ.pdb
     RDKit          3D

 28 27  0  0  1  0  0  0  0  0999 V2000
   29.2151  -20.2325  -18.0103 N   0  0  0  0  0  0  0  0  0  0  0  0
   28.1307  -19.3072  -17.9811 C   0  0  0  0  0  0  0  0  0  0  0  0
   28.3645  -18.1234  -18.2969 O   0  0  0  0  0  0  0  0  0  0  0  0
   26.7696  -19.7412  -17.5882 C   0  0  0  0  0  0  0  0  0  0  0  0
   26.6651  -21.2109  -17.2835 C   0  0  0  0  0  0  0  0  0  0  0  0
   27.1542  -21.5726  -15.9048 C   0  0  2  0  0  0  0  0  0  0  0  0
   28.0280  -22.7061  -16.0280 N   0  0  0  0  0  0  0  0  0  0  0  0
   25.9490  -21.8829  -15.0852 C   0  0  0  0  0  0  0  0  0  0  0  0
   25.1490  -22.7915  -15.4228 O   0  0  0  0  0  0  0  0  0  0  0  0
   25.6655  -21.1643  -13.8989 N   0  0  0  0  0  0  0  0  0  0  0  0
   24.5407  -21.5767  -13.0517 C   0  0  1  0  0  0  0  0  0  0  0  0
   24.7327  -20.7540  -11.7713 C   0  0  0  0  0  0  0  0  0  0  0  0
   25.8535  -21.2618  -10.9153 C   0  0  0  0  0  0  0  0  0  0  0  0
   26.0146  -20.3537   -9.7215 C   0  0  0  0  0  0  0  0  0  0  0  0
   27.2480  -20.7385   -8.9591 C   0  0  0  0  0  0  0  0  0  0  0  0
   27.3449  -19.8685   -7.7930 N   0  0  0  0  0  0  0  0  0  0  0  0
   23.2549  -21.3189  -13.7194 C   0  0  0  0  0  0  0  0  0  0  0  0
   23.0848  -20.2304  -14.3130 O   0  0  0  0  0  0  0  0  0  0  0  0
   19.5351  -25.5172  -16.6964 N   0  0  0  0  0  0  0  0  0  0  0  0
   18.8091  -24.3099  -16.6554 C   0  0  0  0  0  0  0  0  0  0  0  0
   17.7395  -24.2820  -17.3164 O   0  0  0  0  0  0  0  0  0  0  0  0
   19.2116  -23.1164  -15.9116 C   0  0  0  0  0  0  0  0  0  0  0  0
   20.4736  -23.1997  -15.1459 C   0  0  0  0  0  0  0  0  0  0  0  0
   20.8999  -22.0219  -14.3728 C   0  0  2  0  0  0  0  0  0  0  0  0
   22.1724  -22.2494  -13.7315 N   0  0  0  0  0  0  0  0  0  0  0  0
   19.9070  -21.5234  -13.4011 C   0  0  0  0  0  0  0  0  0  0  0  0
   20.1310  -21.6889  -12.1818 O   0  0  0  0  0  0  0  0  0  0  0  0
   18.7381  -20.8813  -13.7578 O   0  0  0  0  0  0  0  0  0  0  0  0
  1  2  1  0
  2  3  2  0
  4  2  1  0
  4  5  1  0
  5  6  1  0
  6  8  1  0
  6  7  1  6
  8  9  2  0
 10 11  1  0
 10  8  1  0
 11 12  1  1
 13 14  1  0
 13 12  1  0
 14 15  1  0
 16 15  1  0
 17 25  1  0
 17 11  1  0
 18 17  2  0
 19 20  1  0
 20 22  1  0
 21 20  2  0
 22 23  1  0
 24 23  1  1
 24 26  1  0
 24 25  1  0
 26 28  1  0
 27 26  2  0
M  END
$$$$
