QKQ.pdb
     RDKit          3D

 28 27  0  0  1  0  0  0  0  0999 V2000
   21.4179  -12.6046  -16.1352 N   0  0  0  0  0  0  0  0  0  0  0  0
   22.7610  -12.3597  -16.5462 C   0  0  0  0  0  0  0  0  0  0  0  0
   23.3812  -11.4303  -15.9917 O   0  0  0  0  0  0  0  0  0  0  0  0
   23.3979  -13.1854  -17.5987 C   0  0  0  0  0  0  0  0  0  0  0  0
   23.0164  -14.6398  -17.5435 C   0  0  0  0  0  0  0  0  0  0  0  0
   23.4637  -15.3284  -16.2799 C   0  0  2  0  0  0  0  0  0  0  0  0
   24.9000  -15.3505  -16.2719 N   0  0  0  0  0  0  0  0  0  0  0  0
   22.8841  -16.7010  -16.3062 C   0  0  0  0  0  0  0  0  0  0  0  0
   21.6912  -16.8969  -16.6497 O   0  0  0  0  0  0  0  0  0  0  0  0
   23.6584  -17.8297  -15.9450 N   0  0  0  0  0  0  0  0  0  0  0  0
   23.0200  -19.1474  -15.8490 C   0  0  1  0  0  0  0  0  0  0  0  0
   24.2039  -20.1127  -15.7092 C   0  0  0  0  0  0  0  0  0  0  0  0
   23.7805  -21.5495  -15.6537 C   0  0  0  0  0  0  0  0  0  0  0  0
   24.9971  -22.4158  -15.4415 C   0  0  0  0  0  0  0  0  0  0  0  0
   24.5800  -23.8533  -15.3398 C   0  0  0  0  0  0  0  0  0  0  0  0
   25.7716  -24.6485  -15.0684 N   0  0  0  0  0  0  0  0  0  0  0  0
   22.0900  -19.2013  -14.7098 C   0  0  0  0  0  0  0  0  0  0  0  0
   22.5051  -18.8935  -13.5700 O   0  0  0  0  0  0  0  0  0  0  0  0
   17.0394  -16.1816  -13.7064 N   0  0  0  0  0  0  0  0  0  0  0  0
   16.9824  -17.1961  -12.7297 C   0  0  0  0  0  0  0  0  0  0  0  0
   16.1145  -17.0537  -11.8307 O   0  0  0  0  0  0  0  0  0  0  0  0
   17.8481  -18.3747  -12.6960 C   0  0  0  0  0  0  0  0  0  0  0  0
   18.8948  -18.4655  -13.7363 C   0  0  0  0  0  0  0  0  0  0  0  0
   19.7839  -19.6387  -13.7312 C   0  0  2  0  0  0  0  0  0  0  0  0
   20.7212  -19.5896  -14.8271 N   0  0  0  0  0  0  0  0  0  0  0  0
   19.0927  -20.9423  -13.6931 C   0  0  0  0  0  0  0  0  0  0  0  0
   18.9095  -21.5516  -14.7698 O   0  0  0  0  0  0  0  0  0  0  0  0
   18.6328  -21.5344  -12.5339 O   0  0  0  0  0  0  0  0  0  0  0  0
  1  2  1  0
  2  3  2  0
  4  2  1  0
  4  5  1  0
  5  6  1  0
  6  8  1  0
  6  7  1  6
  8  9  2  0
 10 11  1  0
 10  8  1  0
 11 12  1  1
 13 14  1  0
 13 12  1  0
 14 15  1  0
 16 15  1  0
 17 25  1  0
 17 11  1  0
 18 17  2  0
 19 20  1  0
 20 22  1  0
 21 20  2  0
 22 23  1  0
 24 23  1  6
 24 26  1  0
 24 25  1  0
 26 28  1  0
 27 26  2  0
M  END
$$$$
