QKQ.pdb
     RDKit          3D

 28 27  0  0  1  0  0  0  0  0999 V2000
   23.1870  -13.3472  -18.7356 N   0  0  0  0  0  0  0  0  0  0  0  0
   23.3698  -14.2191  -19.8489 C   0  0  0  0  0  0  0  0  0  0  0  0
   22.9571  -13.8385  -20.9627 O   0  0  0  0  0  0  0  0  0  0  0  0
   24.0304  -15.5352  -19.6850 C   0  0  0  0  0  0  0  0  0  0  0  0
   24.4464  -15.8339  -18.2703 C   0  0  0  0  0  0  0  0  0  0  0  0
   25.8014  -16.4857  -18.1698 C   0  0  2  0  0  0  0  0  0  0  0  0
   26.3030  -16.6729  -19.5028 N   0  0  0  0  0  0  0  0  0  0  0  0
   25.6073  -17.7809  -17.4590 C   0  0  0  0  0  0  0  0  0  0  0  0
   25.4387  -18.8525  -18.0938 O   0  0  0  0  0  0  0  0  0  0  0  0
   25.6066  -17.8471  -16.0449 N   0  0  0  0  0  0  0  0  0  0  0  0
   25.5611  -19.1541  -15.3794 C   0  0  1  0  0  0  0  0  0  0  0  0
   26.9398  -19.2698  -14.7168 C   0  0  0  0  0  0  0  0  0  0  0  0
   28.0014  -19.7479  -15.6609 C   0  0  0  0  0  0  0  0  0  0  0  0
   28.0022  -21.2563  -15.6813 C   0  0  0  0  0  0  0  0  0  0  0  0
   29.1075  -21.7471  -16.5691 C   0  0  0  0  0  0  0  0  0  0  0  0
   29.1133  -23.2042  -16.5151 N   0  0  0  0  0  0  0  0  0  0  0  0
   24.4485  -19.2184  -14.4184 C   0  0  0  0  0  0  0  0  0  0  0  0
   24.2989  -18.2860  -13.5971 O   0  0  0  0  0  0  0  0  0  0  0  0
   19.9243  -17.2628  -16.4466 N   0  0  0  0  0  0  0  0  0  0  0  0
   19.3519  -17.8723  -15.3120 C   0  0  0  0  0  0  0  0  0  0  0  0
   18.1736  -17.5320  -15.0335 O   0  0  0  0  0  0  0  0  0  0  0  0
   20.0254  -18.8509  -14.4586 C   0  0  0  0  0  0  0  0  0  0  0  0
   21.4494  -19.1231  -14.7484 C   0  0  0  0  0  0  0  0  0  0  0  0
   22.1328  -20.1684  -13.9692 C   0  0  2  0  0  0  0  0  0  0  0  0
   23.5145  -20.2967  -14.3647 N   0  0  0  0  0  0  0  0  0  0  0  0
   21.4639  -21.4842  -13.9734 C   0  0  0  0  0  0  0  0  0  0  0  0
   21.8086  -22.3253  -14.8324 O   0  0  0  0  0  0  0  0  0  0  0  0
   20.4744  -21.8458  -13.0813 O   0  0  0  0  0  0  0  0  0  0  0  0
  1  2  1  0
  2  3  2  0
  4  2  1  0
  4  5  1  0
  5  6  1  0
  6  8  1  0
  6  7  1  6
  8  9  2  0
 10 11  1  0
 10  8  1  0
 11 12  1  1
 13 14  1  0
 13 12  1  0
 14 15  1  0
 16 15  1  0
 17 25  1  0
 17 11  1  0
 18 17  2  0
 19 20  1  0
 20 22  1  0
 21 20  2  0
 22 23  1  0
 24 23  1  6
 24 26  1  0
 24 25  1  0
 26 28  1  0
 27 26  2  0
M  END
$$$$
