QKQ.pdb
     RDKit          3D

 28 27  0  0  1  0  0  0  0  0999 V2000
   17.4944  -16.9380  -14.6575 N   0  0  0  0  0  0  0  0  0  0  0  0
   16.1755  -16.4539  -14.9002 C   0  0  0  0  0  0  0  0  0  0  0  0
   15.2184  -17.2083  -14.6344 O   0  0  0  0  0  0  0  0  0  0  0  0
   15.9517  -15.0965  -15.4502 C   0  0  0  0  0  0  0  0  0  0  0  0
   17.2048  -14.2709  -15.5587 C   0  0  0  0  0  0  0  0  0  0  0  0
   16.9574  -12.8697  -16.0551 C   0  0  2  0  0  0  0  0  0  0  0  0
   16.3512  -12.9605  -17.3542 N   0  0  0  0  0  0  0  0  0  0  0  0
   18.2812  -12.1872  -16.1030 C   0  0  0  0  0  0  0  0  0  0  0  0
   18.9957  -12.0805  -15.0745 O   0  0  0  0  0  0  0  0  0  0  0  0
   18.7778  -11.6363  -17.3088 N   0  0  0  0  0  0  0  0  0  0  0  0
   20.1464  -11.1093  -17.3567 C   0  0  1  0  0  0  0  0  0  0  0  0
   20.6737  -11.5973  -18.7120 C   0  0  0  0  0  0  0  0  0  0  0  0
   22.1044  -11.2192  -18.9506 C   0  0  0  0  0  0  0  0  0  0  0  0
   22.5509  -11.7847  -20.2760 C   0  0  0  0  0  0  0  0  0  0  0  0
   23.9939  -11.4456  -20.5075 C   0  0  0  0  0  0  0  0  0  0  0  0
   24.4491  -12.1924  -21.6742 N   0  0  0  0  0  0  0  0  0  0  0  0
   20.1523   -9.6436  -17.2256 C   0  0  0  0  0  0  0  0  0  0  0  0
   19.2705   -8.9765  -17.8119 O   0  0  0  0  0  0  0  0  0  0  0  0
   22.4783   -6.1787  -12.3184 N   0  0  0  0  0  0  0  0  0  0  0  0
   22.3944   -5.2962  -13.4141 C   0  0  0  0  0  0  0  0  0  0  0  0
   22.7845   -4.1181  -13.2098 O   0  0  0  0  0  0  0  0  0  0  0  0
   21.8939   -5.6550  -14.7409 C   0  0  0  0  0  0  0  0  0  0  0  0
   21.6280   -7.0878  -14.9904 C   0  0  0  0  0  0  0  0  0  0  0  0
   21.1590   -7.4882  -16.3270 C   0  0  2  0  0  0  0  0  0  0  0  0
   21.1179   -8.9245  -16.4585 N   0  0  0  0  0  0  0  0  0  0  0  0
   21.8969   -6.8815  -17.4522 C   0  0  0  0  0  0  0  0  0  0  0  0
   21.3612   -5.9405  -18.0780 O   0  0  0  0  0  0  0  0  0  0  0  0
   23.1506   -7.2919  -17.8591 O   0  0  0  0  0  0  0  0  0  0  0  0
  1  2  1  0
  2  3  2  0
  4  2  1  0
  4  5  1  0
  5  6  1  0
  6  8  1  0
  6  7  1  6
  8  9  2  0
 10 11  1  0
 10  8  1  0
 11 12  1  6
 13 14  1  0
 13 12  1  0
 14 15  1  0
 16 15  1  0
 17 25  1  0
 17 11  1  0
 18 17  2  0
 19 20  1  0
 20 22  1  0
 21 20  2  0
 22 23  1  0
 24 23  1  1
 24 26  1  0
 24 25  1  0
 26 28  1  0
 27 26  2  0
M  END
$$$$
