QKQ.pdb
     RDKit          3D

 28 27  0  0  1  0  0  0  0  0999 V2000
   19.0348  -17.2606  -16.2039 N   0  0  0  0  0  0  0  0  0  0  0  0
   19.1254  -16.2307  -17.1858 C   0  0  0  0  0  0  0  0  0  0  0  0
   18.1586  -15.4518  -17.3060 O   0  0  0  0  0  0  0  0  0  0  0  0
   20.3317  -16.0919  -18.0347 C   0  0  0  0  0  0  0  0  0  0  0  0
   20.7566  -14.6659  -18.2577 C   0  0  0  0  0  0  0  0  0  0  0  0
   21.8864  -14.5253  -19.2450 C   0  0  2  0  0  0  0  0  0  0  0  0
   22.8238  -15.5858  -18.9996 N   0  0  0  0  0  0  0  0  0  0  0  0
   22.4918  -13.1821  -19.0220 C   0  0  0  0  0  0  0  0  0  0  0  0
   23.1315  -12.9230  -17.9716 O   0  0  0  0  0  0  0  0  0  0  0  0
   22.3664  -12.1533  -19.9863 N   0  0  0  0  0  0  0  0  0  0  0  0
   22.9324  -10.8277  -19.7114 C   0  0  1  0  0  0  0  0  0  0  0  0
   23.1528  -10.2327  -21.1080 C   0  0  0  0  0  0  0  0  0  0  0  0
   24.5841  -10.2961  -21.5488 C   0  0  0  0  0  0  0  0  0  0  0  0
   24.9727  -11.7381  -21.7614 C   0  0  0  0  0  0  0  0  0  0  0  0
   26.4137  -11.8159  -22.1717 C   0  0  0  0  0  0  0  0  0  0  0  0
   26.7717  -13.2244  -22.2891 N   0  0  0  0  0  0  0  0  0  0  0  0
   22.0216  -10.0277  -18.8772 C   0  0  0  0  0  0  0  0  0  0  0  0
   20.8083   -9.9743  -19.1794 O   0  0  0  0  0  0  0  0  0  0  0  0
   22.2452   -9.6821  -12.6030 N   0  0  0  0  0  0  0  0  0  0  0  0
   21.3124   -8.6974  -12.9861 C   0  0  0  0  0  0  0  0  0  0  0  0
   20.6467   -8.1715  -12.0575 O   0  0  0  0  0  0  0  0  0  0  0  0
   21.0751   -8.2597  -14.3615 C   0  0  0  0  0  0  0  0  0  0  0  0
   21.8535   -8.9349  -15.4218 C   0  0  0  0  0  0  0  0  0  0  0  0
   21.5591   -8.5996  -16.8246 C   0  0  2  0  0  0  0  0  0  0  0  0
   22.4441   -9.2969  -17.7260 N   0  0  0  0  0  0  0  0  0  0  0  0
   21.5375   -7.1550  -17.1271 C   0  0  0  0  0  0  0  0  0  0  0  0
   22.5378   -6.6468  -17.6797 O   0  0  0  0  0  0  0  0  0  0  0  0
   20.4738   -6.3248  -16.8355 O   0  0  0  0  0  0  0  0  0  0  0  0
  1  2  1  0
  2  3  2  0
  4  2  1  0
  4  5  1  0
  5  6  1  0
  6  8  1  0
  6  7  1  1
  8  9  2  0
 10 11  1  0
 10  8  1  0
 11 12  1  6
 13 14  1  0
 13 12  1  0
 14 15  1  0
 16 15  1  0
 17 25  1  0
 17 11  1  0
 18 17  2  0
 19 20  1  0
 20 22  1  0
 21 20  2  0
 22 23  1  0
 24 23  1  1
 24 26  1  0
 24 25  1  0
 26 28  1  0
 27 26  2  0
M  END
$$$$
