QKQ.pdb
     RDKit          3D

 28 27  0  0  1  0  0  0  0  0999 V2000
   25.8974  -20.5675  -18.7443 N   0  0  0  0  0  0  0  0  0  0  0  0
   26.1497  -21.7140  -19.5534 C   0  0  0  0  0  0  0  0  0  0  0  0
   26.4124  -21.5316  -20.7590 O   0  0  0  0  0  0  0  0  0  0  0  0
   26.1015  -23.0782  -18.9773 C   0  0  0  0  0  0  0  0  0  0  0  0
   25.7729  -23.1063  -17.5094 C   0  0  0  0  0  0  0  0  0  0  0  0
   26.7390  -22.3167  -16.6644 C   0  0  2  0  0  0  0  0  0  0  0  0
   27.9440  -23.0874  -16.5318 N   0  0  0  0  0  0  0  0  0  0  0  0
   26.0762  -22.0859  -15.3498 C   0  0  0  0  0  0  0  0  0  0  0  0
   24.8924  -22.4548  -15.1444 O   0  0  0  0  0  0  0  0  0  0  0  0
   26.7582  -21.4432  -14.2888 N   0  0  0  0  0  0  0  0  0  0  0  0
   26.0637  -21.2039  -13.0187 C   0  0  1  0  0  0  0  0  0  0  0  0
   27.1660  -20.6591  -12.1016 C   0  0  0  0  0  0  0  0  0  0  0  0
   28.3257  -21.5986  -11.9633 C   0  0  0  0  0  0  0  0  0  0  0  0
   29.2934  -21.0436  -10.9478 C   0  0  0  0  0  0  0  0  0  0  0  0
   30.4412  -21.9941  -10.7742 C   0  0  0  0  0  0  0  0  0  0  0  0
   31.3607  -21.4149   -9.8021 N   0  0  0  0  0  0  0  0  0  0  0  0
   24.9430  -20.2672  -13.1984 C   0  0  0  0  0  0  0  0  0  0  0  0
   25.0379  -19.3623  -14.0577 O   0  0  0  0  0  0  0  0  0  0  0  0
   20.4293  -23.3051  -14.4601 N   0  0  0  0  0  0  0  0  0  0  0  0
   20.0572  -22.0371  -14.9502 C   0  0  0  0  0  0  0  0  0  0  0  0
   18.9276  -21.9629  -15.4983 O   0  0  0  0  0  0  0  0  0  0  0  0
   20.8818  -20.8320  -14.8645 C   0  0  0  0  0  0  0  0  0  0  0  0
   22.1772  -20.9566  -14.1630 C   0  0  0  0  0  0  0  0  0  0  0  0
   22.4141  -20.1135  -12.9798 C   0  0  2  0  0  0  0  0  0  0  0  0
   23.7350  -20.3284  -12.4402 N   0  0  0  0  0  0  0  0  0  0  0  0
   21.3923  -20.2273  -11.9207 C   0  0  0  0  0  0  0  0  0  0  0  0
   21.6252  -20.9752  -10.9457 O   0  0  0  0  0  0  0  0  0  0  0  0
   20.1871  -19.5544  -11.9404 O   0  0  0  0  0  0  0  0  0  0  0  0
  1  2  1  0
  2  3  2  0
  4  2  1  0
  4  5  1  0
  5  6  1  0
  6  8  1  0
  6  7  1  1
  8  9  2  0
 10 11  1  0
 10  8  1  0
 11 12  1  1
 13 14  1  0
 13 12  1  0
 14 15  1  0
 16 15  1  0
 17 25  1  0
 17 11  1  0
 18 17  2  0
 19 20  1  0
 20 22  1  0
 21 20  2  0
 22 23  1  0
 24 23  1  6
 24 26  1  0
 24 25  1  0
 26 28  1  0
 27 26  2  0
M  END
$$$$
