RRA.pdb
     RDKit          3D

 28 27  0  0  1  0  0  0  0  0999 V2000
   12.5520  -18.5385   15.7555 N   0  0  0  0  0  0  0  0  0  0  0  0
   13.7722  -18.7434   15.0189 C   0  0  0  0  0  0  0  0  0  0  0  0
   13.7652  -18.6575   13.7328 N   0  0  0  0  0  0  0  0  0  0  0  0
   14.9912  -19.0392   15.6650 N   0  0  0  0  0  0  0  0  0  0  0  0
   15.1061  -18.9972   17.1018 C   0  0  0  0  0  0  0  0  0  0  0  0
   13.7906  -18.4325   17.6221 C   0  0  0  0  0  0  0  0  0  0  0  0
   13.9786  -17.4857   18.7712 C   0  0  0  0  0  0  0  0  0  0  0  0
   13.3654  -18.0544   20.0324 C   0  0  2  0  0  0  0  0  0  0  0  0
   12.4763  -19.1468   19.6516 N   0  0  0  0  0  0  0  0  0  0  0  0
   12.5603  -17.0739   20.7897 C   0  0  0  0  0  0  0  0  0  0  0  0
   12.9841  -15.9327   21.1194 O   0  0  0  0  0  0  0  0  0  0  0  0
   14.5746  -18.7498   13.1077 N   0  0  0  0  0  0  0  0  0  0  0  0
    7.7244  -12.2424   20.1316 C   0  0  0  0  0  0  0  0  0  0  0  0
    7.6813  -13.3080   19.1955 N   0  0  0  0  0  0  0  0  0  0  0  0
    8.0391  -13.1195   17.9886 N   0  0  0  0  0  0  0  0  0  0  0  0
    7.2398  -14.5908   19.5956 C   0  0  0  0  0  0  0  0  0  0  0  0
    7.0071  -14.8757   21.0098 C   0  0  0  0  0  0  0  0  0  0  0  0
    8.3128  -15.0413   21.7497 C   0  0  0  0  0  0  0  0  0  0  0  0
    9.1194  -16.1900   21.2514 C   0  0  2  0  0  0  0  0  0  0  0  0
   10.4408  -16.3664   21.9575 N   0  0  0  0  0  0  0  0  0  0  0  0
   11.2194  -17.3526   21.2097 C   0  0  0  0  0  0  0  0  0  0  0  0
   10.3367  -16.8320   23.3428 O   0  0  0  0  0  0  0  0  0  0  0  0
   10.3663  -18.0523   23.5951 C   0  0  0  0  0  0  0  0  0  0  0  0
    8.0283  -13.8610   17.2804 C   0  0  2  0  0  0  0  0  0  0  0  0
    9.9522  -15.2845   26.7678 N   0  0  0  0  0  0  0  0  0  0  0  0
   10.1250  -16.4148   25.7797 C   0  0  0  0  0  0  0  0  0  0  0  0
   10.2024  -15.9136   24.4063 O   0  0  0  0  0  0  0  0  0  0  0  0
    8.9804  -17.3632   25.8995 O   0  0  0  0  0  0  0  0  0  0  0  0
  2  4  1  0
  2  1  1  0
  3  2  2  0
  5  4  1  0
  6  5  1  0
  7  6  1  0
  8  7  1  0
  8  9  1  6
 10 20  1  0
 10  8  1  0
 11 10  2  0
 13 12  1  0
 14 13  2  0
 15 13  1  0
 16 15  1  0
 17 18  1  0
 17 16  1  0
 19 18  1  6
 19 21  1  0
 19 20  1  0
 21 22  2  0
 24 23  1  6
 25 24  1  0
 25 21  1  0
 26 24  1  0
 27 26  2  0
 28 26  1  0
M  END
$$$$
