RRA.pdb
     RDKit          3D

 28 27  0  0  1  0  0  0  0  0999 V2000
    9.1227  -23.7636   18.3934 N   0  0  0  0  0  0  0  0  0  0  0  0
    8.5590  -22.5141   17.9525 C   0  0  0  0  0  0  0  0  0  0  0  0
    8.6110  -22.1936   16.7051 N   0  0  0  0  0  0  0  0  0  0  0  0
    7.9437  -21.6167   18.8508 N   0  0  0  0  0  0  0  0  0  0  0  0
    8.6248  -21.1607   20.0372 C   0  0  0  0  0  0  0  0  0  0  0  0
    8.4563  -19.6474   20.0750 C   0  0  0  0  0  0  0  0  0  0  0  0
    9.1389  -18.9578   18.9300 C   0  0  0  0  0  0  0  0  0  0  0  0
    8.9191  -17.4624   19.0047 C   0  0  2  0  0  0  0  0  0  0  0  0
    9.7091  -16.8349   17.9507 N   0  0  0  0  0  0  0  0  0  0  0  0
    9.3451  -16.8680   20.2885 C   0  0  0  0  0  0  0  0  0  0  0  0
   10.5530  -16.6979   20.6091 O   0  0  0  0  0  0  0  0  0  0  0  0
    8.2488  -21.3331   16.2775 N   0  0  0  0  0  0  0  0  0  0  0  0
    5.1767  -11.8505   26.9180 C   0  0  0  0  0  0  0  0  0  0  0  0
    6.5198  -11.6498   26.5061 N   0  0  0  0  0  0  0  0  0  0  0  0
    7.0390  -10.4884   26.5473 N   0  0  0  0  0  0  0  0  0  0  0  0
    7.2945  -12.7399   26.0454 C   0  0  0  0  0  0  0  0  0  0  0  0
    6.9404  -13.4129   24.7976 C   0  0  0  0  0  0  0  0  0  0  0  0
    7.9388  -14.4957   24.4654 C   0  0  0  0  0  0  0  0  0  0  0  0
    7.6407  -15.1835   23.1784 C   0  0  2  0  0  0  0  0  0  0  0  0
    8.8460  -15.8094   22.5216 N   0  0  0  0  0  0  0  0  0  0  0  0
    8.4026  -16.4344   21.2763 C   0  0  0  0  0  0  0  0  0  0  0  0
    9.5173  -16.8343   23.3252 O   0  0  0  0  0  0  0  0  0  0  0  0
    9.3307  -18.0419   23.0789 C   0  0  0  0  0  0  0  0  0  0  0  0
    8.0169  -10.3046   26.2996 C   0  0  2  0  0  0  0  0  0  0  0  0
   12.3270  -17.9386   24.6961 N   0  0  0  0  0  0  0  0  0  0  0  0
   10.9696  -17.5242   25.2152 C   0  0  0  0  0  0  0  0  0  0  0  0
   10.3797  -16.4741   24.3829 O   0  0  0  0  0  0  0  0  0  0  0  0
   11.0988  -17.0338   26.6176 O   0  0  0  0  0  0  0  0  0  0  0  0
  2  4  1  0
  2  1  1  0
  3  2  2  0
  5  4  1  0
  6  5  1  0
  7  6  1  0
  8  7  1  0
  8  9  1  6
 10 20  1  0
 10  8  1  0
 11 10  2  0
 13 12  1  0
 14 13  2  0
 15 13  1  0
 16 15  1  0
 17 18  1  0
 17 16  1  0
 19 18  1  6
 19 21  1  0
 19 20  1  0
 21 22  2  0
 24 23  1  6
 25 24  1  0
 25 21  1  0
 26 24  1  0
 27 26  2  0
 28 26  1  0
M  END
$$$$
