RRA.pdb
     RDKit          3D

 28 27  0  0  1  0  0  0  0  0999 V2000
    7.5734  -14.3007   12.8971 N   0  0  0  0  0  0  0  0  0  0  0  0
    8.9345  -14.7322   13.0837 C   0  0  0  0  0  0  0  0  0  0  0  0
    9.8275  -14.4306   12.2044 N   0  0  0  0  0  0  0  0  0  0  0  0
    9.3295  -15.4838   14.2107 N   0  0  0  0  0  0  0  0  0  0  0  0
    8.3745  -15.8879   15.2127 C   0  0  0  0  0  0  0  0  0  0  0  0
    8.2917  -14.7433   16.2143 C   0  0  0  0  0  0  0  0  0  0  0  0
    7.4042  -15.0569   17.3832 C   0  0  0  0  0  0  0  0  0  0  0  0
    7.2983  -13.8610   18.3044 C   0  0  2  0  0  0  0  0  0  0  0  0
    7.8838  -12.7110   17.6235 N   0  0  0  0  0  0  0  0  0  0  0  0
    8.0231  -14.0344   19.5801 C   0  0  0  0  0  0  0  0  0  0  0  0
    9.1908  -13.6016   19.7808 O   0  0  0  0  0  0  0  0  0  0  0  0
   10.8344  -14.6238   12.2618 N   0  0  0  0  0  0  0  0  0  0  0  0
    7.1611  -19.2781   26.0909 C   0  0  0  0  0  0  0  0  0  0  0  0
    7.8907  -18.2562   26.7518 N   0  0  0  0  0  0  0  0  0  0  0  0
    8.4009  -18.4682   27.8985 N   0  0  0  0  0  0  0  0  0  0  0  0
    8.0578  -16.9911   26.1416 C   0  0  0  0  0  0  0  0  0  0  0  0
    7.5460  -16.7564   24.7932 C   0  0  0  0  0  0  0  0  0  0  0  0
    7.7065  -15.3079   24.3987 C   0  0  0  0  0  0  0  0  0  0  0  0
    7.1266  -15.0042   23.0608 C   0  0  1  0  0  0  0  0  0  0  0  0
    8.1544  -14.8217   21.9717 N   0  0  0  0  0  0  0  0  0  0  0  0
    7.4430  -14.7159   20.6986 C   0  0  0  0  0  0  0  0  0  0  0  0
    9.1235  -15.9145   21.8559 O   0  0  0  0  0  0  0  0  0  0  0  0
    8.7764  -17.0076   21.3679 C   0  0  0  0  0  0  0  0  0  0  0  0
    8.9464  -17.7638   28.4062 C   0  0  2  0  0  0  0  0  0  0  0  0
   12.7262  -16.3619   21.5813 N   0  0  0  0  0  0  0  0  0  0  0  0
   11.4052  -16.8511   22.1282 C   0  0  0  0  0  0  0  0  0  0  0  0
   10.4559  -15.7486   22.2915 O   0  0  0  0  0  0  0  0  0  0  0  0
   11.6246  -17.5177   23.4441 O   0  0  0  0  0  0  0  0  0  0  0  0
  2  4  1  0
  2  1  1  0
  3  2  2  0
  5  4  1  0
  6  5  1  0
  7  6  1  0
  8  7  1  0
  8  9  1  6
 10 20  1  0
 10  8  1  0
 11 10  2  0
 13 12  1  0
 14 13  2  0
 15 13  1  0
 16 15  1  0
 17 18  1  0
 17 16  1  0
 19 18  1  1
 19 21  1  0
 19 20  1  0
 21 22  2  0
 24 23  1  1
 25 24  1  0
 25 21  1  0
 26 24  1  0
 27 26  2  0
 28 26  1  0
M  END
$$$$
