RRA.pdb
     RDKit          3D

 28 27  0  0  1  0  0  0  0  0999 V2000
    7.0850  -12.6090   18.0714 N   0  0  0  0  0  0  0  0  0  0  0  0
    7.3660  -13.5499   17.0182 C   0  0  0  0  0  0  0  0  0  0  0  0
    7.6614  -13.1209   15.8391 N   0  0  0  0  0  0  0  0  0  0  0  0
    7.3285  -14.9436   17.2352 N   0  0  0  0  0  0  0  0  0  0  0  0
    8.5399  -15.7075   17.4036 C   0  0  0  0  0  0  0  0  0  0  0  0
    9.4907  -14.8335   18.2112 C   0  0  0  0  0  0  0  0  0  0  0  0
   10.0711  -15.5477   19.3968 C   0  0  0  0  0  0  0  0  0  0  0  0
   10.8140  -14.5769   20.2889 C   0  0  2  0  0  0  0  0  0  0  0  0
   12.0503  -14.1961   19.6140 N   0  0  0  0  0  0  0  0  0  0  0  0
   11.1851  -15.1479   21.6001 C   0  0  0  0  0  0  0  0  0  0  0  0
   12.3031  -15.6828   21.8343 O   0  0  0  0  0  0  0  0  0  0  0  0
    7.9930  -13.6839   15.0470 N   0  0  0  0  0  0  0  0  0  0  0  0
   11.1340  -15.5748   30.5118 C   0  0  0  0  0  0  0  0  0  0  0  0
   10.3465  -14.8488   29.5809 N   0  0  0  0  0  0  0  0  0  0  0  0
   10.5090  -13.5942   29.4407 N   0  0  0  0  0  0  0  0  0  0  0  0
    9.3728  -15.5136   28.7995 C   0  0  0  0  0  0  0  0  0  0  0  0
    9.0586  -15.0304   27.4567 C   0  0  0  0  0  0  0  0  0  0  0  0
   10.0319  -15.5817   26.4425 C   0  0  0  0  0  0  0  0  0  0  0  0
    9.7643  -15.0972   25.0598 C   0  0  1  0  0  0  0  0  0  0  0  0
   10.6915  -15.6700   24.0168 N   0  0  0  0  0  0  0  0  0  0  0  0
   10.2887  -15.1340   22.7174 C   0  0  0  0  0  0  0  0  0  0  0  0
   10.6788  -17.1322   23.9237 O   0  0  0  0  0  0  0  0  0  0  0  0
    9.6761  -17.7203   23.4740 C   0  0  0  0  0  0  0  0  0  0  0  0
   10.0026  -13.0399   28.7422 C   0  0  2  0  0  0  0  0  0  0  0  0
   12.8586  -19.9296   23.4713 N   0  0  0  0  0  0  0  0  0  0  0  0
   11.7224  -19.3543   24.2847 C   0  0  0  0  0  0  0  0  0  0  0  0
   11.7931  -17.8930   24.3383 O   0  0  0  0  0  0  0  0  0  0  0  0
   11.7693  -19.9058   25.6695 O   0  0  0  0  0  0  0  0  0  0  0  0
  2  4  1  0
  2  1  1  0
  3  2  2  0
  5  4  1  0
  6  5  1  0
  7  6  1  0
  8  7  1  0
  8  9  1  6
 10 20  1  0
 10  8  1  0
 11 10  2  0
 13 12  1  0
 14 13  2  0
 15 13  1  0
 16 15  1  0
 17 18  1  0
 17 16  1  0
 19 18  1  1
 19 21  1  0
 19 20  1  0
 21 22  2  0
 24 23  1  6
 25 24  1  0
 25 21  1  0
 26 24  1  0
 27 26  2  0
 28 26  1  0
M  END
$$$$
