RRA.pdb
     RDKit          3D

 28 27  0  0  1  0  0  0  0  0999 V2000
    9.4910  -15.7222   15.8481 N   0  0  0  0  0  0  0  0  0  0  0  0
    8.1320  -15.2596   15.7362 C   0  0  0  0  0  0  0  0  0  0  0  0
    7.2812  -15.9353   15.0424 N   0  0  0  0  0  0  0  0  0  0  0  0
    7.6937  -14.0766   16.3680 N   0  0  0  0  0  0  0  0  0  0  0  0
    8.6283  -13.1644   16.9795 C   0  0  0  0  0  0  0  0  0  0  0  0
    8.4451  -13.3061   18.4850 C   0  0  0  0  0  0  0  0  0  0  0  0
    8.0181  -14.6863   18.8912 C   0  0  0  0  0  0  0  0  0  0  0  0
    7.8750  -14.7760   20.3950 C   0  0  2  0  0  0  0  0  0  0  0  0
    7.0428  -13.6626   20.8384 N   0  0  0  0  0  0  0  0  0  0  0  0
    9.1612  -14.6797   21.1158 C   0  0  0  0  0  0  0  0  0  0  0  0
    9.7534  -13.5886   21.3384 O   0  0  0  0  0  0  0  0  0  0  0  0
    6.3207  -15.6567   14.8097 N   0  0  0  0  0  0  0  0  0  0  0  0
   13.0868  -16.1234   26.7621 C   0  0  0  0  0  0  0  0  0  0  0  0
   12.2537  -17.0192   27.4812 N   0  0  0  0  0  0  0  0  0  0  0  0
   12.3833  -17.1484   28.7408 N   0  0  0  0  0  0  0  0  0  0  0  0
   11.2703  -17.7775   26.8039 C   0  0  0  0  0  0  0  0  0  0  0  0
   11.4020  -18.0320   25.3710 C   0  0  0  0  0  0  0  0  0  0  0  0
   11.2575  -16.7543   24.5796 C   0  0  0  0  0  0  0  0  0  0  0  0
   11.3434  -16.9711   23.1086 C   0  0  2  0  0  0  0  0  0  0  0  0
   11.1344  -15.7219   22.2892 N   0  0  0  0  0  0  0  0  0  0  0  0
    9.8382  -15.8361   21.6223 C   0  0  0  0  0  0  0  0  0  0  0  0
   12.1507  -15.4882   21.2600 O   0  0  0  0  0  0  0  0  0  0  0  0
   11.8268  -15.4659   20.0566 C   0  0  0  0  0  0  0  0  0  0  0  0
   11.7929  -17.7711   29.3022 C   0  0  2  0  0  0  0  0  0  0  0  0
   14.1668  -13.7318   19.8285 N   0  0  0  0  0  0  0  0  0  0  0  0
   14.4837  -15.0163   20.5587 C   0  0  0  0  0  0  0  0  0  0  0  0
   13.5027  -15.2858   21.6115 O   0  0  0  0  0  0  0  0  0  0  0  0
   15.8460  -14.9275   21.1589 O   0  0  0  0  0  0  0  0  0  0  0  0
  2  4  1  0
  2  1  1  0
  3  2  2  0
  5  4  1  0
  6  5  1  0
  7  6  1  0
  8  7  1  0
  8  9  1  1
 10 20  1  0
 10  8  1  0
 11 10  2  0
 13 12  1  0
 14 13  2  0
 15 13  1  0
 16 15  1  0
 17 18  1  0
 17 16  1  0
 19 18  1  1
 19 21  1  0
 19 20  1  0
 21 22  2  0
 24 23  1  6
 25 24  1  0
 25 21  1  0
 26 24  1  0
 27 26  2  0
 28 26  1  0
M  END
$$$$
