RRA.pdb
     RDKit          3D

 28 27  0  0  1  0  0  0  0  0999 V2000
    9.6021  -14.9100   12.5281 N   0  0  0  0  0  0  0  0  0  0  0  0
    8.2109  -14.6297   12.2838 C   0  0  0  0  0  0  0  0  0  0  0  0
    7.8568  -14.0593   11.1834 N   0  0  0  0  0  0  0  0  0  0  0  0
    7.2089  -14.9622   13.2199 N   0  0  0  0  0  0  0  0  0  0  0  0
    7.5016  -15.7805   14.3706 C   0  0  0  0  0  0  0  0  0  0  0  0
    7.9806  -14.8322   15.4621 C   0  0  0  0  0  0  0  0  0  0  0  0
    8.9091  -15.4923   16.4391 C   0  0  0  0  0  0  0  0  0  0  0  0
    8.8853  -14.7662   17.7666 C   0  0  2  0  0  0  0  0  0  0  0  0
    9.2983  -13.3860   17.5360 N   0  0  0  0  0  0  0  0  0  0  0  0
    9.8066  -15.3407   18.7687 C   0  0  0  0  0  0  0  0  0  0  0  0
    9.6853  -16.5052   19.2378 O   0  0  0  0  0  0  0  0  0  0  0  0
    6.8965  -13.9050   10.8542 N   0  0  0  0  0  0  0  0  0  0  0  0
   16.0741  -15.9835   17.9891 C   0  0  0  0  0  0  0  0  0  0  0  0
   16.3234  -14.7802   17.2793 N   0  0  0  0  0  0  0  0  0  0  0  0
   16.9705  -14.8015   16.1835 N   0  0  0  0  0  0  0  0  0  0  0  0
   15.8544  -13.5448   17.7839 C   0  0  0  0  0  0  0  0  0  0  0  0
   15.1197  -13.5022   19.0463 C   0  0  0  0  0  0  0  0  0  0  0  0
   13.9045  -14.3969   18.9948 C   0  0  0  0  0  0  0  0  0  0  0  0
   13.1064  -14.3628   20.2519 C   0  0  2  0  0  0  0  0  0  0  0  0
   11.8667  -15.2218   20.2172 N   0  0  0  0  0  0  0  0  0  0  0  0
   10.9217  -14.6058   19.2870 C   0  0  0  0  0  0  0  0  0  0  0  0
   11.1920  -15.3744   21.5088 O   0  0  0  0  0  0  0  0  0  0  0  0
   10.2121  -14.6572   21.7896 C   0  0  0  0  0  0  0  0  0  0  0  0
   17.1576  -13.9596   15.6288 C   0  0  2  0  0  0  0  0  0  0  0  0
    9.4803  -16.6795   23.5719 N   0  0  0  0  0  0  0  0  0  0  0  0
   10.9605  -16.4279   23.7435 C   0  0  0  0  0  0  0  0  0  0  0  0
   11.6368  -16.3288   22.4488 O   0  0  0  0  0  0  0  0  0  0  0  0
   11.5671  -17.5344   24.5382 O   0  0  0  0  0  0  0  0  0  0  0  0
  2  4  1  0
  2  1  1  0
  3  2  2  0
  5  4  1  0
  6  5  1  0
  7  6  1  0
  8  7  1  0
  8  9  1  6
 10 20  1  0
 10  8  1  0
 11 10  2  0
 13 12  1  0
 14 13  2  0
 15 13  1  0
 16 15  1  0
 17 18  1  0
 17 16  1  0
 19 18  1  6
 19 21  1  0
 19 20  1  0
 21 22  2  0
 24 23  1  1
 25 24  1  0
 25 21  1  0
 26 24  1  0
 27 26  2  0
 28 26  1  0
M  END
$$$$
