TGT.pdb
     RDKit          3D

 19 18  0  0  1  0  0  0  0  0999 V2000
    2.5196  -23.4589   20.4193 C   0  0  0  0  0  0  0  0  0  0  0  0
    3.0199  -22.0737   20.7780 C   0  0  1  0  0  0  0  0  0  0  0  0
    1.9643  -21.3664   21.3088 O   0  0  0  0  0  0  0  0  0  0  0  0
    4.1702  -22.1820   21.7828 C   0  0  2  0  0  0  0  0  0  0  0  0
    3.6769  -22.9024   22.9198 N   0  0  0  0  0  0  0  0  0  0  0  0
    4.6389  -20.8388   22.1536 C   0  0  0  0  0  0  0  0  0  0  0  0
    5.2750  -20.1501   21.2990 O   0  0  0  0  0  0  0  0  0  0  0  0
    4.4344  -20.2327   23.4192 N   0  0  0  0  0  0  0  0  0  0  0  0
    4.8939  -18.9080   23.7098 C   0  0  0  0  0  0  0  0  0  0  0  0
    6.3460  -18.8855   24.0787 C   0  0  0  0  0  0  0  0  0  0  0  0
    7.0148  -19.9500   24.1305 O   0  0  0  0  0  0  0  0  0  0  0  0
    8.9610  -16.1384   22.6672 C   0  0  0  0  0  0  0  0  0  0  0  0
    8.9676  -16.2283   24.1610 C   0  0  1  0  0  0  0  0  0  0  0  0
    8.2961  -15.1467   24.7286 O   0  0  0  0  0  0  0  0  0  0  0  0
    8.3592  -17.5063   24.6801 C   0  0  2  0  0  0  0  0  0  0  0  0
    6.9702  -17.6411   24.3728 N   0  0  0  0  0  0  0  0  0  0  0  0
    8.6306  -17.5553   26.1533 C   0  0  0  0  0  0  0  0  0  0  0  0
    9.8912  -17.7138   26.6821 O   0  0  0  0  0  0  0  0  0  0  0  0
    7.6138  -17.4404   26.8987 O   0  0  0  0  0  0  0  0  0  0  0  0
  2  1  1  1
  2  3  1  0
  4  2  1  0
  4  5  1  1
  6  8  1  0
  6  4  1  0
  7  6  2  0
  9 10  1  0
  9  8  1  0
 10 16  1  0
 11 10  2  0
 13 14  1  0
 13 12  1  6
 13 15  1  0
 15 17  1  0
 15 16  1  1
 17 19  2  0
 17 18  1  0
M  END
$$$$
