TGT.pdb
     RDKit          3D

 19 18  0  0  1  0  0  0  0  0999 V2000
    7.7590  -12.4854   19.0289 C   0  0  0  0  0  0  0  0  0  0  0  0
    7.7595  -13.9196   18.5380 C   0  0  1  0  0  0  0  0  0  0  0  0
    8.0749  -13.9083   17.1975 O   0  0  0  0  0  0  0  0  0  0  0  0
    8.7769  -14.7402   19.3356 C   0  0  2  0  0  0  0  0  0  0  0  0
    8.7589  -16.0725   18.8065 N   0  0  0  0  0  0  0  0  0  0  0  0
    8.4274  -14.7192   20.7635 C   0  0  0  0  0  0  0  0  0  0  0  0
    8.5793  -13.6441   21.4195 O   0  0  0  0  0  0  0  0  0  0  0  0
    7.9218  -15.8285   21.4878 N   0  0  0  0  0  0  0  0  0  0  0  0
    7.3498  -15.6863   22.7928 C   0  0  0  0  0  0  0  0  0  0  0  0
    8.3849  -15.3672   23.8281 C   0  0  0  0  0  0  0  0  0  0  0  0
    9.5958  -15.2388   23.5112 O   0  0  0  0  0  0  0  0  0  0  0  0
    8.8568  -12.7193   27.8857 C   0  0  0  0  0  0  0  0  0  0  0  0
    7.9920  -13.6048   27.0445 C   0  0  1  0  0  0  0  0  0  0  0  0
    7.1395  -12.8506   26.2400 O   0  0  0  0  0  0  0  0  0  0  0  0
    8.7813  -14.5457   26.1701 C   0  0  2  0  0  0  0  0  0  0  0  0
    7.9865  -15.2088   25.1848 N   0  0  0  0  0  0  0  0  0  0  0  0
    9.4870  -15.5042   27.0811 C   0  0  0  0  0  0  0  0  0  0  0  0
   10.5088  -15.1293   27.9233 O   0  0  0  0  0  0  0  0  0  0  0  0
    9.0815  -16.7025   27.0309 O   0  0  0  0  0  0  0  0  0  0  0  0
  2  1  1  1
  2  3  1  0
  4  2  1  0
  4  5  1  6
  6  8  1  0
  6  4  1  0
  7  6  2  0
  9 10  1  0
  9  8  1  0
 10 16  1  0
 11 10  2  0
 13 14  1  0
 13 12  1  6
 13 15  1  0
 15 17  1  0
 15 16  1  6
 17 19  2  0
 17 18  1  0
M  END
$$$$
