TGT.pdb
     RDKit          3D

 19 18  0  0  1  0  0  0  0  0999 V2000
    7.5568  -12.4836   19.6661 C   0  0  0  0  0  0  0  0  0  0  0  0
    7.8502  -13.9001   19.2129 C   0  0  1  0  0  0  0  0  0  0  0  0
    8.1260  -13.8647   17.8642 O   0  0  0  0  0  0  0  0  0  0  0  0
    9.0358  -14.4619   20.0023 C   0  0  2  0  0  0  0  0  0  0  0  0
    9.3686  -15.7317   19.4260 N   0  0  0  0  0  0  0  0  0  0  0  0
    8.6767  -14.5885   21.4223 C   0  0  0  0  0  0  0  0  0  0  0  0
    8.5034  -13.5370   22.1104 O   0  0  0  0  0  0  0  0  0  0  0  0
    8.5031  -15.8193   22.1050 N   0  0  0  0  0  0  0  0  0  0  0  0
    8.0847  -15.8761   23.4733 C   0  0  0  0  0  0  0  0  0  0  0  0
    9.1607  -15.4163   24.4092 C   0  0  0  0  0  0  0  0  0  0  0  0
   10.3149  -15.1509   23.9844 O   0  0  0  0  0  0  0  0  0  0  0  0
    8.7788  -12.4183   26.9278 C   0  0  0  0  0  0  0  0  0  0  0  0
    9.1335  -13.6846   27.6422 C   0  0  1  0  0  0  0  0  0  0  0  0
    8.0101  -14.2485   28.2446 O   0  0  0  0  0  0  0  0  0  0  0  0
    9.7721  -14.7127   26.7434 C   0  0  2  0  0  0  0  0  0  0  0  0
    8.8666  -15.2804   25.7948 N   0  0  0  0  0  0  0  0  0  0  0  0
   10.3974  -15.7452   27.6319 C   0  0  0  0  0  0  0  0  0  0  0  0
   11.4283  -15.4671   28.5002 O   0  0  0  0  0  0  0  0  0  0  0  0
    9.9137  -16.9112   27.5364 O   0  0  0  0  0  0  0  0  0  0  0  0
  2  1  1  1
  2  3  1  0
  4  2  1  0
  4  5  1  6
  6  8  1  0
  6  4  1  0
  7  6  2  0
  9 10  1  0
  9  8  1  0
 10 16  1  0
 11 10  2  0
 13 14  1  0
 13 12  1  6
 13 15  1  0
 15 17  1  0
 15 16  1  6
 17 19  2  0
 17 18  1  0
M  END
$$$$
