TGT.pdb
     RDKit          3D

 19 18  0  0  1  0  0  0  0  0999 V2000
    8.7532  -14.5673   15.2345 C   0  0  0  0  0  0  0  0  0  0  0  0
    8.5002  -13.8457   16.5434 C   0  0  1  0  0  0  0  0  0  0  0  0
    7.1655  -13.5101   16.5910 O   0  0  0  0  0  0  0  0  0  0  0  0
    8.8818  -14.7519   17.7172 C   0  0  2  0  0  0  0  0  0  0  0  0
    7.9932  -15.8766   17.6940 N   0  0  0  0  0  0  0  0  0  0  0  0
    8.7788  -14.0056   18.9796 C   0  0  0  0  0  0  0  0  0  0  0  0
    9.8112  -13.4318   19.4425 O   0  0  0  0  0  0  0  0  0  0  0  0
    7.5916  -13.8698   19.7432 N   0  0  0  0  0  0  0  0  0  0  0  0
    7.5478  -13.0962   20.9475 C   0  0  0  0  0  0  0  0  0  0  0  0
    7.9544  -13.8988   22.1456 C   0  0  0  0  0  0  0  0  0  0  0  0
    7.4181  -13.7012   23.2665 O   0  0  0  0  0  0  0  0  0  0  0  0
    7.2444  -17.3104   22.5715 C   0  0  0  0  0  0  0  0  0  0  0  0
    8.7363  -17.2484   22.6734 C   0  0  1  0  0  0  0  0  0  0  0  0
    9.3350  -17.6760   21.4895 O   0  0  0  0  0  0  0  0  0  0  0  0
    9.2501  -15.8716   23.0096 C   0  0  2  0  0  0  0  0  0  0  0  0
    8.9605  -14.8954   22.0070 N   0  0  0  0  0  0  0  0  0  0  0  0
   10.7190  -16.0041   23.2771 C   0  0  0  0  0  0  0  0  0  0  0  0
   11.6844  -15.4371   22.4769 O   0  0  0  0  0  0  0  0  0  0  0  0
   11.0273  -16.6810   24.3015 O   0  0  0  0  0  0  0  0  0  0  0  0
  2  1  1  6
  2  3  1  0
  4  2  1  0
  4  5  1  1
  6  8  1  0
  6  4  1  0
  7  6  2  0
  9 10  1  0
  9  8  1  0
 10 16  1  0
 11 10  2  0
 13 14  1  0
 13 12  1  6
 13 15  1  0
 15 17  1  0
 15 16  1  6
 17 19  2  0
 17 18  1  0
M  END
$$$$
