TGT.pdb
     RDKit          3D

 19 18  0  0  1  0  0  0  0  0999 V2000
    7.3904  -12.5977   17.5427 C   0  0  0  0  0  0  0  0  0  0  0  0
    8.4206  -13.3130   18.3942 C   0  0  1  0  0  0  0  0  0  0  0  0
    7.7545  -14.2059   19.2039 O   0  0  0  0  0  0  0  0  0  0  0  0
    9.4282  -14.0328   17.4936 C   0  0  2  0  0  0  0  0  0  0  0  0
    8.6868  -14.9278   16.6544 N   0  0  0  0  0  0  0  0  0  0  0  0
   10.4115  -14.7512   18.3172 C   0  0  0  0  0  0  0  0  0  0  0  0
   10.2889  -16.0044   18.4708 O   0  0  0  0  0  0  0  0  0  0  0  0
   11.5141  -14.1452   18.9714 N   0  0  0  0  0  0  0  0  0  0  0  0
   12.5060  -14.9157   19.6592 C   0  0  0  0  0  0  0  0  0  0  0  0
   12.1665  -15.1047   21.1063 C   0  0  0  0  0  0  0  0  0  0  0  0
   13.0456  -14.9759   21.9972 O   0  0  0  0  0  0  0  0  0  0  0  0
    8.6371  -13.8959   22.9429 C   0  0  0  0  0  0  0  0  0  0  0  0
    8.9553  -15.3541   23.0537 C   0  0  1  0  0  0  0  0  0  0  0  0
    8.1869  -16.1012   22.1624 O   0  0  0  0  0  0  0  0  0  0  0  0
   10.4121  -15.6619   22.8177 C   0  0  2  0  0  0  0  0  0  0  0  0
   10.8310  -15.4341   21.4706 N   0  0  0  0  0  0  0  0  0  0  0  0
   10.6397  -17.0757   23.2603 C   0  0  0  0  0  0  0  0  0  0  0  0
   10.5278  -17.4821   24.5703 O   0  0  0  0  0  0  0  0  0  0  0  0
   10.9468  -17.8913   22.3420 O   0  0  0  0  0  0  0  0  0  0  0  0
  2  1  1  6
  2  3  1  0
  4  2  1  0
  4  5  1  6
  6  8  1  0
  6  4  1  0
  7  6  2  0
  9 10  1  0
  9  8  1  0
 10 16  1  0
 11 10  2  0
 13 14  1  0
 13 12  1  6
 13 15  1  0
 15 17  1  0
 15 16  1  6
 17 19  2  0
 17 18  1  0
M  END
$$$$
