TGT.pdb
     RDKit          3D

 19 18  0  0  1  0  0  0  0  0999 V2000
    8.8582  -12.4526   19.6342 C   0  0  0  0  0  0  0  0  0  0  0  0
    8.1470  -13.4276   18.7169 C   0  0  1  0  0  0  0  0  0  0  0  0
    8.6094  -13.2190   17.4367 O   0  0  0  0  0  0  0  0  0  0  0  0
    8.4209  -14.8632   19.1736 C   0  0  2  0  0  0  0  0  0  0  0  0
    7.8794  -15.7388   18.1759 N   0  0  0  0  0  0  0  0  0  0  0  0
    7.8075  -15.0954   20.4893 C   0  0  0  0  0  0  0  0  0  0  0  0
    6.5427  -15.0993   20.5878 O   0  0  0  0  0  0  0  0  0  0  0  0
    8.5295  -15.3213   21.6887 N   0  0  0  0  0  0  0  0  0  0  0  0
    7.8712  -15.5659   22.9367 C   0  0  0  0  0  0  0  0  0  0  0  0
    8.3317  -14.6255   24.0084 C   0  0  0  0  0  0  0  0  0  0  0  0
    9.3114  -13.8595   23.8170 O   0  0  0  0  0  0  0  0  0  0  0  0
    6.5216  -11.7465   25.8580 C   0  0  0  0  0  0  0  0  0  0  0  0
    6.8368  -12.8702   26.7948 C   0  0  1  0  0  0  0  0  0  0  0  0
    5.7224  -13.6846   26.9892 O   0  0  0  0  0  0  0  0  0  0  0  0
    7.9888  -13.7239   26.3293 C   0  0  2  0  0  0  0  0  0  0  0  0
    7.6480  -14.6037   25.2561 N   0  0  0  0  0  0  0  0  0  0  0  0
    8.5074  -14.4548   27.5307 C   0  0  0  0  0  0  0  0  0  0  0  0
    9.0297  -13.8173   28.6328 O   0  0  0  0  0  0  0  0  0  0  0  0
    8.4363  -15.7175   27.4728 O   0  0  0  0  0  0  0  0  0  0  0  0
  2  1  1  1
  2  3  1  0
  4  2  1  0
  4  5  1  6
  6  8  1  0
  6  4  1  0
  7  6  2  0
  9 10  1  0
  9  8  1  0
 10 16  1  0
 11 10  2  0
 13 14  1  0
 13 12  1  6
 13 15  1  0
 15 17  1  0
 15 16  1  6
 17 19  2  0
 17 18  1  0
M  END
$$$$
