KQH.pdb
     RDKit          3D

 29 29  0  0  1  0  0  0  0  0999 V2000
   13.3801  -16.3416   13.7481 N   0  0  0  0  0  0  0  0  0  0  0  0
   12.2794  -17.0684   14.3528 C   0  0  1  0  0  0  0  0  0  0  0  0
   12.6244  -18.5053   14.5318 C   0  0  0  0  0  0  0  0  0  0  0  0
   13.8856  -18.8107   15.2464 C   0  0  0  0  0  0  0  0  0  0  0  0
   14.2880  -20.2332   15.3443 C   0  0  0  0  0  0  0  0  0  0  0  0
   15.6002  -20.2592   16.1465 C   0  0  0  0  0  0  0  0  0  0  0  0
   15.9925  -21.6592   16.2265 N   0  0  0  0  0  0  0  0  0  0  0  0
   12.0371  -16.4667   15.6902 C   0  0  0  0  0  0  0  0  0  0  0  0
   12.9592  -15.8190   16.2709 O   0  0  0  0  0  0  0  0  0  0  0  0
    9.1993  -12.4598   19.2302 N   0  0  0  0  0  0  0  0  0  0  0  0
    8.5861  -13.4381   18.4143 C   0  0  0  0  0  0  0  0  0  0  0  0
    8.0415  -13.1000   17.3361 O   0  0  0  0  0  0  0  0  0  0  0  0
    8.5786  -14.8620   18.8181 C   0  0  0  0  0  0  0  0  0  0  0  0
    8.9584  -15.7023   17.6550 C   0  0  0  0  0  0  0  0  0  0  0  0
   10.4413  -15.9878   17.5773 C   0  0  2  0  0  0  0  0  0  0  0  0
   10.7825  -16.6038   16.3364 N   0  0  0  0  0  0  0  0  0  0  0  0
   10.8514  -16.8081   18.7543 C   0  0  0  0  0  0  0  0  0  0  0  0
   11.0700  -18.0571   18.6366 O   0  0  0  0  0  0  0  0  0  0  0  0
   11.0198  -16.2627   20.0466 N   0  0  0  0  0  0  0  0  0  0  0  0
   12.0951  -16.6675   20.9513 C   0  0  1  0  0  0  0  0  0  0  0  0
   13.4384  -16.5652   20.2714 C   0  0  0  0  0  0  0  0  0  0  0  0
   14.0293  -17.8802   19.9621 C   0  0  0  0  0  0  0  0  0  0  0  0
   13.3981  -19.0998   20.0703 C   0  0  0  0  0  0  0  0  0  0  0  0
   14.2415  -20.0817   19.7100 N   0  0  0  0  0  0  0  0  0  0  0  0
   15.4104  -19.5116   19.3702 C   0  0  0  0  0  0  0  0  0  0  0  0
   15.2750  -18.1648   19.5262 N   0  0  0  0  0  0  0  0  0  0  0  0
   12.0192  -15.9467   22.2370 C   0  0  0  0  0  0  0  0  0  0  0  0
   11.9454  -16.5112   23.3485 O   0  0  0  0  0  0  0  0  0  0  0  0
   12.0311  -14.5597   22.2008 O   0  0  0  0  0  0  0  0  0  0  0  0
  2  1  1  1
  3  2  1  0
  3  4  1  0
  5  6  1  0
  5  4  1  0
  7  6  1  0
  8  9  2  0
  8  2  1  0
 10 11  1  0
 11 13  1  0
 12 11  2  0
 13 14  1  0
 15 14  1  6
 15 17  1  0
 15 16  1  0
 16  8  1  0
 17 19  1  0
 18 17  2  0
 19 20  1  0
 20 27  1  0
 21 22  1  0
 20 21  1  6
 22 26  1  0
 23 24  1  0
 23 22  2  0
 24 25  1  0
 25 26  2  0
 27 28  2  0
 27 29  1  0
M  END
$$$$
