KQH.pdb
     RDKit          3D

 29 29  0  0  1  0  0  0  0  0999 V2000
    9.8923  -15.9566   16.2672 N   0  0  0  0  0  0  0  0  0  0  0  0
   10.4408  -14.9166   17.1175 C   0  0  1  0  0  0  0  0  0  0  0  0
    9.4303  -14.4476   18.1047 C   0  0  0  0  0  0  0  0  0  0  0  0
    8.1944  -13.8358   17.5638 C   0  0  0  0  0  0  0  0  0  0  0  0
    7.2453  -13.2412   18.5338 C   0  0  0  0  0  0  0  0  0  0  0  0
    6.1166  -12.6063   17.7038 C   0  0  0  0  0  0  0  0  0  0  0  0
    5.1951  -12.0180   18.6656 N   0  0  0  0  0  0  0  0  0  0  0  0
   11.5869  -15.5102   17.8546 C   0  0  0  0  0  0  0  0  0  0  0  0
   11.5502  -16.7259   18.2120 O   0  0  0  0  0  0  0  0  0  0  0  0
   17.3594  -13.0884   17.9407 N   0  0  0  0  0  0  0  0  0  0  0  0
   16.8174  -13.9095   16.9253 C   0  0  0  0  0  0  0  0  0  0  0  0
   17.3984  -13.9979   15.8171 O   0  0  0  0  0  0  0  0  0  0  0  0
   15.5679  -14.6690   17.1545 C   0  0  0  0  0  0  0  0  0  0  0  0
   15.1098  -14.4479   18.5489 C   0  0  0  0  0  0  0  0  0  0  0  0
   13.8581  -15.2199   18.9008 C   0  0  2  0  0  0  0  0  0  0  0  0
   12.7325  -14.7363   18.1695 N   0  0  0  0  0  0  0  0  0  0  0  0
   13.6439  -15.1725   20.3767 C   0  0  0  0  0  0  0  0  0  0  0  0
   13.8029  -14.0887   21.0260 O   0  0  0  0  0  0  0  0  0  0  0  0
   13.2593  -16.3032   21.1315 N   0  0  0  0  0  0  0  0  0  0  0  0
   13.1185  -16.2826   22.5869 C   0  0  1  0  0  0  0  0  0  0  0  0
   11.8786  -17.0264   23.0190 C   0  0  0  0  0  0  0  0  0  0  0  0
   10.6328  -16.3867   22.5576 C   0  0  0  0  0  0  0  0  0  0  0  0
   10.5388  -15.2092   21.8490 C   0  0  0  0  0  0  0  0  0  0  0  0
    9.2480  -14.9276   21.6044 N   0  0  0  0  0  0  0  0  0  0  0  0
    8.5064  -15.9090   22.1464 C   0  0  0  0  0  0  0  0  0  0  0  0
    9.3585  -16.7989   22.7281 N   0  0  0  0  0  0  0  0  0  0  0  0
   14.3528  -16.7387   23.2554 C   0  0  0  0  0  0  0  0  0  0  0  0
   15.3563  -17.1670   22.6480 O   0  0  0  0  0  0  0  0  0  0  0  0
   14.3933  -16.6854   24.6414 O   0  0  0  0  0  0  0  0  0  0  0  0
  2  1  1  6
  3  2  1  0
  3  4  1  0
  5  6  1  0
  5  4  1  0
  7  6  1  0
  8  9  2  0
  8  2  1  0
 10 11  1  0
 11 13  1  0
 12 11  2  0
 13 14  1  0
 15 14  1  1
 15 17  1  0
 15 16  1  0
 16  8  1  0
 17 19  1  0
 18 17  2  0
 19 20  1  0
 20 27  1  0
 21 22  1  0
 20 21  1  6
 22 26  1  0
 23 24  1  0
 23 22  2  0
 24 25  1  0
 25 26  2  0
 27 28  2  0
 27 29  1  0
M  END
$$$$
