KQH.pdb
     RDKit          3D

 29 29  0  0  1  0  0  0  0  0999 V2000
    9.6982  -17.5448   16.2833 N   0  0  0  0  0  0  0  0  0  0  0  0
    9.0058  -17.4425   17.5543 C   0  0  1  0  0  0  0  0  0  0  0  0
    8.3193  -18.7196   17.8912 C   0  0  0  0  0  0  0  0  0  0  0  0
    7.2078  -19.1400   17.0066 C   0  0  0  0  0  0  0  0  0  0  0  0
    5.8847  -19.3675   17.6332 C   0  0  0  0  0  0  0  0  0  0  0  0
    4.9263  -19.7576   16.4950 C   0  0  0  0  0  0  0  0  0  0  0  0
    3.6134  -19.8996   17.1086 N   0  0  0  0  0  0  0  0  0  0  0  0
   10.0320  -17.1651   18.5932 C   0  0  0  0  0  0  0  0  0  0  0  0
    9.9909  -17.7745   19.7040 O   0  0  0  0  0  0  0  0  0  0  0  0
   15.3622  -14.1308   17.3571 N   0  0  0  0  0  0  0  0  0  0  0  0
   15.4863  -14.3172   18.7531 C   0  0  0  0  0  0  0  0  0  0  0  0
   16.5454  -13.9827   19.3361 O   0  0  0  0  0  0  0  0  0  0  0  0
   14.3776  -14.9045   19.5384 C   0  0  0  0  0  0  0  0  0  0  0  0
   13.2127  -15.1303   18.6467 C   0  0  0  0  0  0  0  0  0  0  0  0
   12.0943  -15.9081   19.3031 C   0  0  2  0  0  0  0  0  0  0  0  0
   11.0666  -16.2231   18.3647 N   0  0  0  0  0  0  0  0  0  0  0  0
   11.5810  -15.1444   20.4777 C   0  0  0  0  0  0  0  0  0  0  0  0
   11.1429  -13.9562   20.3442 O   0  0  0  0  0  0  0  0  0  0  0  0
   11.5492  -15.6796   21.7848 N   0  0  0  0  0  0  0  0  0  0  0  0
   10.4563  -15.4312   22.7240 C   0  0  1  0  0  0  0  0  0  0  0  0
    9.1171  -15.5910   22.0469 C   0  0  0  0  0  0  0  0  0  0  0  0
    8.6844  -14.3764   21.3318 C   0  0  0  0  0  0  0  0  0  0  0  0
    9.1571  -13.0995   21.5403 C   0  0  0  0  0  0  0  0  0  0  0  0
    8.5335  -12.2432   20.7137 N   0  0  0  0  0  0  0  0  0  0  0  0
    7.6633  -12.9513   19.9733 C   0  0  0  0  0  0  0  0  0  0  0  0
    7.7597  -14.2555   20.3555 N   0  0  0  0  0  0  0  0  0  0  0  0
   10.6056  -16.2368   23.9517 C   0  0  0  0  0  0  0  0  0  0  0  0
   11.4787  -17.1161   24.1058 O   0  0  0  0  0  0  0  0  0  0  0  0
    9.7196  -15.9971   24.9923 O   0  0  0  0  0  0  0  0  0  0  0  0
  2  1  1  6
  3  2  1  0
  3  4  1  0
  5  6  1  0
  5  4  1  0
  7  6  1  0
  8  9  2  0
  8  2  1  0
 10 11  1  0
 11 13  1  0
 12 11  2  0
 13 14  1  0
 15 14  1  6
 15 17  1  0
 15 16  1  0
 16  8  1  0
 17 19  1  0
 18 17  2  0
 19 20  1  0
 20 27  1  0
 21 22  1  0
 20 21  1  6
 22 26  1  0
 23 24  1  0
 23 22  2  0
 24 25  1  0
 25 26  2  0
 27 28  2  0
 27 29  1  0
M  END
$$$$
