KQH.pdb
     RDKit          3D

 29 29  0  0  1  0  0  0  0  0999 V2000
    8.0042  -26.0894   22.1732 N   0  0  0  0  0  0  0  0  0  0  0  0
    8.7308  -26.6642   23.2900 C   0  0  1  0  0  0  0  0  0  0  0  0
    8.7620  -28.1495   23.1972 C   0  0  0  0  0  0  0  0  0  0  0  0
    7.9882  -28.7716   22.0978 C   0  0  0  0  0  0  0  0  0  0  0  0
    7.9485  -30.2516   22.0427 C   0  0  0  0  0  0  0  0  0  0  0  0
    7.1031  -30.6179   20.8110 C   0  0  0  0  0  0  0  0  0  0  0  0
    7.0605  -32.0730   20.7735 N   0  0  0  0  0  0  0  0  0  0  0  0
   10.1246  -26.1531   23.2177 C   0  0  0  0  0  0  0  0  0  0  0  0
   11.0278  -26.6692   23.9421 O   0  0  0  0  0  0  0  0  0  0  0  0
   12.5520  -24.1905   18.4274 N   0  0  0  0  0  0  0  0  0  0  0  0
   13.5346  -23.5669   19.2303 C   0  0  0  0  0  0  0  0  0  0  0  0
   14.6521  -23.2789   18.7386 O   0  0  0  0  0  0  0  0  0  0  0  0
   13.2601  -23.2485   20.6494 C   0  0  0  0  0  0  0  0  0  0  0  0
   11.8729  -23.6577   20.9831 C   0  0  0  0  0  0  0  0  0  0  0  0
   11.7871  -24.5684   22.1871 C   0  0  2  0  0  0  0  0  0  0  0  0
   10.4683  -25.0892   22.3457 N   0  0  0  0  0  0  0  0  0  0  0  0
   12.2622  -23.8370   23.3978 C   0  0  0  0  0  0  0  0  0  0  0  0
   13.4923  -23.8468   23.7268 O   0  0  0  0  0  0  0  0  0  0  0  0
   11.3957  -23.1029   24.2383 N   0  0  0  0  0  0  0  0  0  0  0  0
   11.8699  -22.2646   25.3387 C   0  0  1  0  0  0  0  0  0  0  0  0
   11.6010  -20.8061   25.0595 C   0  0  0  0  0  0  0  0  0  0  0  0
   12.4941  -20.2422   24.0307 C   0  0  0  0  0  0  0  0  0  0  0  0
   13.7437  -20.7135   23.6934 C   0  0  0  0  0  0  0  0  0  0  0  0
   14.2692  -19.9517   22.7193 N   0  0  0  0  0  0  0  0  0  0  0  0
   13.3742  -18.9936   22.4228 C   0  0  0  0  0  0  0  0  0  0  0  0
   12.2903  -19.1760   23.2279 N   0  0  0  0  0  0  0  0  0  0  0  0
   11.3465  -22.7312   26.6374 C   0  0  0  0  0  0  0  0  0  0  0  0
   10.4921  -23.6337   26.7603 O   0  0  0  0  0  0  0  0  0  0  0  0
   11.8376  -22.1266   27.7857 O   0  0  0  0  0  0  0  0  0  0  0  0
  2  1  1  6
  3  2  1  0
  3  4  1  0
  5  6  1  0
  5  4  1  0
  7  6  1  0
  8  9  2  0
  8  2  1  0
 10 11  1  0
 11 13  1  0
 12 11  2  0
 13 14  1  0
 15 14  1  6
 15 17  1  0
 15 16  1  0
 16  8  1  0
 17 19  1  0
 18 17  2  0
 19 20  1  0
 20 27  1  0
 21 22  1  0
 20 21  1  6
 22 26  1  0
 23 24  1  0
 23 22  2  0
 24 25  1  0
 25 26  2  0
 27 28  2  0
 27 29  1  0
M  END
$$$$
