KQH.pdb
     RDKit          3D

 29 29  0  0  1  0  0  0  0  0999 V2000
    9.0212  -17.7720   19.1090 N   0  0  0  0  0  0  0  0  0  0  0  0
    9.8621  -16.7237   19.6562 C   0  0  1  0  0  0  0  0  0  0  0  0
    9.0928  -15.4617   19.8331 C   0  0  0  0  0  0  0  0  0  0  0  0
    8.5138  -14.8500   18.6145 C   0  0  0  0  0  0  0  0  0  0  0  0
    7.7535  -13.5889   18.7784 C   0  0  0  0  0  0  0  0  0  0  0  0
    7.2878  -13.1766   17.3716 C   0  0  0  0  0  0  0  0  0  0  0  0
    6.4503  -11.9998   17.5564 N   0  0  0  0  0  0  0  0  0  0  0  0
   10.3308  -17.1865   20.9886 C   0  0  0  0  0  0  0  0  0  0  0  0
    9.5335  -17.7913   21.7667 O   0  0  0  0  0  0  0  0  0  0  0  0
   16.3617  -17.8882   22.3935 N   0  0  0  0  0  0  0  0  0  0  0  0
   15.5620  -18.7495   21.6077 C   0  0  0  0  0  0  0  0  0  0  0  0
   16.1059  -19.5868   20.8483 O   0  0  0  0  0  0  0  0  0  0  0  0
   14.0851  -18.6752   21.6699 C   0  0  0  0  0  0  0  0  0  0  0  0
   13.6888  -17.5840   22.5947 C   0  0  0  0  0  0  0  0  0  0  0  0
   12.1933  -17.3738   22.6719 C   0  0  2  0  0  0  0  0  0  0  0  0
   11.6655  -16.9629   21.4116 N   0  0  0  0  0  0  0  0  0  0  0  0
   11.8836  -16.4057   23.7642 C   0  0  0  0  0  0  0  0  0  0  0  0
   12.2216  -15.1817   23.6683 O   0  0  0  0  0  0  0  0  0  0  0  0
   11.2100  -16.7776   24.9491 N   0  0  0  0  0  0  0  0  0  0  0  0
   10.2380  -15.9155   25.6203 C   0  0  1  0  0  0  0  0  0  0  0  0
    9.2170  -15.3901   24.6411 C   0  0  0  0  0  0  0  0  0  0  0  0
    8.2278  -14.4929   25.2659 C   0  0  0  0  0  0  0  0  0  0  0  0
    8.2226  -14.0792   26.5798 C   0  0  0  0  0  0  0  0  0  0  0  0
    7.1713  -13.2714   26.7980 N   0  0  0  0  0  0  0  0  0  0  0  0
    6.4968  -13.1580   25.6408 C   0  0  0  0  0  0  0  0  0  0  0  0
    7.1474  -13.9071   24.7071 N   0  0  0  0  0  0  0  0  0  0  0  0
    9.6491  -16.5810   26.7988 C   0  0  0  0  0  0  0  0  0  0  0  0
    8.8722  -17.5564   26.7320 O   0  0  0  0  0  0  0  0  0  0  0  0
    9.9833  -16.0880   28.0521 O   0  0  0  0  0  0  0  0  0  0  0  0
  2  1  1  1
  3  2  1  0
  3  4  1  0
  5  6  1  0
  5  4  1  0
  7  6  1  0
  8  9  2  0
  8  2  1  0
 10 11  1  0
 11 13  1  0
 12 11  2  0
 13 14  1  0
 15 14  1  6
 15 17  1  0
 15 16  1  0
 16  8  1  0
 17 19  1  0
 18 17  2  0
 19 20  1  0
 20 27  1  0
 21 22  1  0
 20 21  1  6
 22 26  1  0
 23 24  1  0
 23 22  2  0
 24 25  1  0
 25 26  2  0
 27 28  2  0
 27 29  1  0
M  END
$$$$
