KQH.pdb
     RDKit          3D

 29 29  0  0  1  0  0  0  0  0999 V2000
   10.0284  -16.2463   15.4635 N   0  0  0  0  0  0  0  0  0  0  0  0
   10.5295  -15.0465   16.1076 C   0  0  1  0  0  0  0  0  0  0  0  0
    9.4738  -14.4089   16.9410 C   0  0  0  0  0  0  0  0  0  0  0  0
    8.2452  -13.9616   16.2446 C   0  0  0  0  0  0  0  0  0  0  0  0
    7.1585  -13.3914   17.0747 C   0  0  0  0  0  0  0  0  0  0  0  0
    6.0093  -13.0500   16.1110 C   0  0  0  0  0  0  0  0  0  0  0  0
    4.9708  -12.4379   16.9278 N   0  0  0  0  0  0  0  0  0  0  0  0
   11.6508  -15.4579   16.9923 C   0  0  0  0  0  0  0  0  0  0  0  0
   11.6059  -16.5708   17.5976 O   0  0  0  0  0  0  0  0  0  0  0  0
   17.3392  -12.8348   16.6968 N   0  0  0  0  0  0  0  0  0  0  0  0
   17.4556  -13.5848   17.8896 C   0  0  0  0  0  0  0  0  0  0  0  0
   18.5126  -13.5277   18.5626 O   0  0  0  0  0  0  0  0  0  0  0  0
   16.3413  -14.4400   18.3562 C   0  0  0  0  0  0  0  0  0  0  0  0
   15.1271  -14.1408   17.5566 C   0  0  0  0  0  0  0  0  0  0  0  0
   13.9263  -14.9702   17.9523 C   0  0  2  0  0  0  0  0  0  0  0  0
   12.7816  -14.6222   17.1750 N   0  0  0  0  0  0  0  0  0  0  0  0
   13.6863  -14.8287   19.4182 C   0  0  0  0  0  0  0  0  0  0  0  0
   13.3322  -13.7122   19.9179 O   0  0  0  0  0  0  0  0  0  0  0  0
   13.8334  -15.9015   20.3255 N   0  0  0  0  0  0  0  0  0  0  0  0
   13.2641  -15.8932   21.6725 C   0  0  1  0  0  0  0  0  0  0  0  0
   12.0999  -16.8483   21.7713 C   0  0  0  0  0  0  0  0  0  0  0  0
   11.3034  -16.6610   22.9978 C   0  0  0  0  0  0  0  0  0  0  0  0
   11.5834  -15.7830   24.0217 C   0  0  0  0  0  0  0  0  0  0  0  0
   10.6455  -15.8861   24.9782 N   0  0  0  0  0  0  0  0  0  0  0  0
    9.7625  -16.8202   24.5851 C   0  0  0  0  0  0  0  0  0  0  0  0
   10.1697  -17.2909   23.3731 N   0  0  0  0  0  0  0  0  0  0  0  0
   14.3025  -16.1079   22.6991 C   0  0  0  0  0  0  0  0  0  0  0  0
   14.0684  -16.1703   23.9241 O   0  0  0  0  0  0  0  0  0  0  0  0
   15.6146  -16.2480   22.2701 O   0  0  0  0  0  0  0  0  0  0  0  0
  2  1  1  1
  3  2  1  0
  3  4  1  0
  5  6  1  0
  5  4  1  0
  7  6  1  0
  8  9  2  0
  8  2  1  0
 10 11  1  0
 11 13  1  0
 12 11  2  0
 13 14  1  0
 15 14  1  6
 15 17  1  0
 15 16  1  0
 16  8  1  0
 17 19  1  0
 18 17  2  0
 19 20  1  0
 20 27  1  0
 21 22  1  0
 20 21  1  6
 22 26  1  0
 23 24  1  0
 23 22  2  0
 24 25  1  0
 25 26  2  0
 27 28  2  0
 27 29  1  0
M  END
$$$$
