KQH.pdb
     RDKit          3D

 29 29  0  0  1  0  0  0  0  0999 V2000
    8.4388  -16.2691   16.4850 N   0  0  0  0  0  0  0  0  0  0  0  0
    9.0067  -15.0326   16.9888 C   0  0  1  0  0  0  0  0  0  0  0  0
    7.9374  -14.0511   17.3191 C   0  0  0  0  0  0  0  0  0  0  0  0
    7.3201  -13.3220   16.1869 C   0  0  0  0  0  0  0  0  0  0  0  0
    7.3255  -13.9860   14.8625 C   0  0  0  0  0  0  0  0  0  0  0  0
    6.5475  -13.0620   13.9101 C   0  0  0  0  0  0  0  0  0  0  0  0
    6.6308  -13.6816   12.5950 N   0  0  0  0  0  0  0  0  0  0  0  0
    9.7492  -15.3644   18.2330 C   0  0  0  0  0  0  0  0  0  0  0  0
    9.3701  -16.3319   18.9590 O   0  0  0  0  0  0  0  0  0  0  0  0
   15.7763  -13.9846   18.8580 N   0  0  0  0  0  0  0  0  0  0  0  0
   15.4648  -14.3991   20.1733 C   0  0  0  0  0  0  0  0  0  0  0  0
   16.3338  -14.3221   21.0747 O   0  0  0  0  0  0  0  0  0  0  0  0
   14.1207  -14.9250   20.5014 C   0  0  0  0  0  0  0  0  0  0  0  0
   13.1513  -14.4635   19.4766 C   0  0  0  0  0  0  0  0  0  0  0  0
   11.7419  -14.9563   19.7161 C   0  0  2  0  0  0  0  0  0  0  0  0
   10.8848  -14.6131   18.6283 N   0  0  0  0  0  0  0  0  0  0  0  0
   11.2470  -14.4301   21.0217 C   0  0  0  0  0  0  0  0  0  0  0  0
   10.8716  -13.2189   21.1385 O   0  0  0  0  0  0  0  0  0  0  0  0
   11.1652  -15.2254   22.1866 N   0  0  0  0  0  0  0  0  0  0  0  0
   10.2555  -14.9313   23.2930 C   0  0  1  0  0  0  0  0  0  0  0  0
    8.8508  -14.7046   22.7901 C   0  0  0  0  0  0  0  0  0  0  0  0
    7.8944  -14.3991   23.8698 C   0  0  0  0  0  0  0  0  0  0  0  0
    8.1868  -14.3125   25.2132 C   0  0  0  0  0  0  0  0  0  0  0  0
    7.0712  -14.0225   25.9035 N   0  0  0  0  0  0  0  0  0  0  0  0
    6.0611  -13.9206   25.0226 C   0  0  0  0  0  0  0  0  0  0  0  0
    6.5702  -14.1518   23.7801 N   0  0  0  0  0  0  0  0  0  0  0  0
   10.3526  -15.9494   24.3572 C   0  0  0  0  0  0  0  0  0  0  0  0
    9.6778  -15.9254   25.4077 O   0  0  0  0  0  0  0  0  0  0  0  0
   11.2489  -16.9924   24.1724 O   0  0  0  0  0  0  0  0  0  0  0  0
  2  1  1  1
  3  2  1  0
  3  4  1  0
  5  6  1  0
  5  4  1  0
  7  6  1  0
  8  9  2  0
  8  2  1  0
 10 11  1  0
 11 13  1  0
 12 11  2  0
 13 14  1  0
 15 14  1  6
 15 17  1  0
 15 16  1  0
 16  8  1  0
 17 19  1  0
 18 17  2  0
 19 20  1  0
 20 27  1  0
 21 22  1  0
 20 21  1  6
 22 26  1  0
 23 24  1  0
 23 22  2  0
 24 25  1  0
 25 26  2  0
 27 28  2  0
 27 29  1  0
M  END
$$$$
