WDL.pdb
     RDKit          3D

 31 32  0  0  1  0  0  0  0  0999 V2000
    6.8113  -17.7846   24.7448 N   0  0  0  0  0  0  0  0  0  0  0  0
    7.6128  -17.4338   23.5495 C   0  0  1  0  0  0  0  0  0  0  0  0
    7.1380  -16.0885   23.0809 C   0  0  0  0  0  0  0  0  0  0  0  0
    6.4795  -15.2511   24.0773 C   0  0  0  0  0  0  0  0  0  0  0  0
    5.7233  -15.8036   25.1282 C   0  0  0  0  0  0  0  0  0  0  0  0
    5.2902  -14.8021   25.8953 N   0  0  0  0  0  0  0  0  0  0  0  0
    5.7233  -13.6446   25.3971 C   0  0  0  0  0  0  0  0  0  0  0  0
    5.5254  -12.3675   25.8247 C   0  0  0  0  0  0  0  0  0  0  0  0
    6.0733  -11.3118   25.1150 C   0  0  0  0  0  0  0  0  0  0  0  0
    6.8124  -11.5563   23.9848 C   0  0  0  0  0  0  0  0  0  0  0  0
    7.0167  -12.8660   23.5456 C   0  0  0  0  0  0  0  0  0  0  0  0
    6.4677  -13.8919   24.2621 C   0  0  0  0  0  0  0  0  0  0  0  0
    9.0197  -17.3986   23.9536 C   0  0  0  0  0  0  0  0  0  0  0  0
    9.3464  -18.1208   24.9461 O   0  0  0  0  0  0  0  0  0  0  0  0
   10.0226  -16.6085   23.3049 N   0  0  0  0  0  0  0  0  0  0  0  0
   11.3846  -16.8250   23.6603 C   0  0  1  0  0  0  0  0  0  0  0  0
   12.2897  -16.1313   22.6895 C   0  0  0  0  0  0  0  0  0  0  0  0
   13.6531  -16.6947   22.6460 C   0  0  0  0  0  0  0  0  0  0  0  0
   13.9676  -17.7270   23.3180 O   0  0  0  0  0  0  0  0  0  0  0  0
   11.6896  -16.3925   25.0575 C   0  0  0  0  0  0  0  0  0  0  0  0
   12.5047  -15.4836   25.3372 O   0  0  0  0  0  0  0  0  0  0  0  0
   14.6741  -16.1515   21.8845 O   0  0  0  0  0  0  0  0  0  0  0  0
   12.8473  -14.1149   28.0742 C   0  0  0  0  0  0  0  0  0  0  0  0
   11.4242  -14.3931   27.7915 C   0  0  2  0  0  0  0  0  0  0  0  0
   10.5681  -13.3541   28.5635 C   0  0  0  0  0  0  0  0  0  0  0  0
   10.8535  -15.7107   28.1442 C   0  0  0  0  0  0  0  0  0  0  0  0
   11.4700  -16.8910   27.5475 C   0  0  2  0  0  0  0  0  0  0  0  0
   11.0353  -17.0287   26.1321 N   0  0  0  0  0  0  0  0  0  0  0  0
   11.3665  -18.2046   28.1403 C   0  0  0  0  0  0  0  0  0  0  0  0
   11.8126  -18.6415   29.3727 O   0  0  0  0  0  0  0  0  0  0  0  0
   10.7897  -19.1377   27.4565 O   0  0  0  0  0  0  0  0  0  0  0  0
  2  1  1  1
  2  3  1  0
  2 13  1  0
  3  4  1  0
  4  5  2  0
  5  6  1  0
  7  6  1  0
  8  7  2  0
  9  8  1  0
 10 11  1  0
 10  9  2  0
 11 12  2  0
 12  4  1  0
 12  7  1  0
 13 15  1  0
 13 14  2  0
 15 16  1  0
 16 17  1  6
 18 22  1  0
 18 17  1  0
 19 18  2  0
 20 16  1  0
 20 21  2  0
 24 23  1  1
 24 26  1  0
 25 24  1  0
 27 26  1  1
 27 28  1  0
 28 20  1  0
 29 27  1  0
 30 29  1  0
 31 29  2  0
M  END
$$$$
