WDL.pdb
     RDKit          3D

 31 32  0  0  1  0  0  0  0  0999 V2000
    7.0016  -18.6850   22.4207 N   0  0  0  0  0  0  0  0  0  0  0  0
    7.4135  -17.4442   23.1170 C   0  0  1  0  0  0  0  0  0  0  0  0
    6.6462  -17.3881   24.4066 C   0  0  0  0  0  0  0  0  0  0  0  0
    6.3502  -16.0579   24.9266 C   0  0  0  0  0  0  0  0  0  0  0  0
    5.5642  -15.8695   26.0790 C   0  0  0  0  0  0  0  0  0  0  0  0
    5.5099  -14.5610   26.3317 N   0  0  0  0  0  0  0  0  0  0  0  0
    6.2126  -13.9033   25.4101 C   0  0  0  0  0  0  0  0  0  0  0  0
    6.4317  -12.5695   25.2491 C   0  0  0  0  0  0  0  0  0  0  0  0
    7.1954  -12.1216   24.1840 C   0  0  0  0  0  0  0  0  0  0  0  0
    7.7277  -13.0223   23.2959 C   0  0  0  0  0  0  0  0  0  0  0  0
    7.5042  -14.3909   23.4604 C   0  0  0  0  0  0  0  0  0  0  0  0
    6.7487  -14.8101   24.5190 C   0  0  0  0  0  0  0  0  0  0  0  0
    8.8567  -17.5252   23.3511 C   0  0  0  0  0  0  0  0  0  0  0  0
    9.3078  -18.6430   23.7515 O   0  0  0  0  0  0  0  0  0  0  0  0
    9.7643  -16.4342   23.1592 N   0  0  0  0  0  0  0  0  0  0  0  0
   11.1533  -16.6692   23.3682 C   0  0  1  0  0  0  0  0  0  0  0  0
   11.9687  -15.7427   22.5199 C   0  0  0  0  0  0  0  0  0  0  0  0
   13.2010  -16.3574   21.9891 C   0  0  0  0  0  0  0  0  0  0  0  0
   13.2829  -16.7464   20.7816 O   0  0  0  0  0  0  0  0  0  0  0  0
   11.5476  -16.5439   24.8038 C   0  0  0  0  0  0  0  0  0  0  0  0
   12.7345  -16.4291   25.1870 O   0  0  0  0  0  0  0  0  0  0  0  0
   14.3397  -16.5538   22.7519 O   0  0  0  0  0  0  0  0  0  0  0  0
   11.8793  -13.4801   27.5906 C   0  0  0  0  0  0  0  0  0  0  0  0
   10.5428  -14.0583   27.3415 C   0  0  2  0  0  0  0  0  0  0  0  0
    9.4829  -13.0965   27.9415 C   0  0  0  0  0  0  0  0  0  0  0  0
   10.2120  -15.3934   27.8840 C   0  0  0  0  0  0  0  0  0  0  0  0
   10.8403  -16.5492   27.2526 C   0  0  2  0  0  0  0  0  0  0  0  0
   10.5452  -16.5531   25.7951 N   0  0  0  0  0  0  0  0  0  0  0  0
   10.6281  -17.8999   27.7198 C   0  0  0  0  0  0  0  0  0  0  0  0
   10.1565  -18.9975   27.0260 O   0  0  0  0  0  0  0  0  0  0  0  0
   10.8962  -18.1659   28.9562 O   0  0  0  0  0  0  0  0  0  0  0  0
  2  1  1  1
  2  3  1  0
  2 13  1  0
  3  4  1  0
  4  5  2  0
  5  6  1  0
  7  6  1  0
  8  7  2  0
  9  8  1  0
 10 11  1  0
 10  9  2  0
 11 12  2  0
 12  4  1  0
 12  7  1  0
 13 15  1  0
 13 14  2  0
 15 16  1  0
 16 17  1  6
 18 22  1  0
 18 17  1  0
 19 18  2  0
 20 16  1  0
 20 21  2  0
 24 23  1  1
 24 26  1  0
 25 24  1  0
 27 26  1  1
 27 28  1  0
 28 20  1  0
 29 27  1  0
 30 29  1  0
 31 29  2  0
M  END
$$$$
