WDL.pdb
     RDKit          3D

 31 32  0  0  1  0  0  0  0  0999 V2000
    6.4785  -18.4658   23.5384 N   0  0  0  0  0  0  0  0  0  0  0  0
    7.2688  -17.2503   23.8422 C   0  0  1  0  0  0  0  0  0  0  0  0
    6.9984  -16.8969   25.2763 C   0  0  0  0  0  0  0  0  0  0  0  0
    6.6570  -15.5048   25.5467 C   0  0  0  0  0  0  0  0  0  0  0  0
    5.4836  -15.1493   26.2383 C   0  0  0  0  0  0  0  0  0  0  0  0
    5.4702  -13.8224   26.3727 N   0  0  0  0  0  0  0  0  0  0  0  0
    6.5630  -13.3099   25.8081 C   0  0  0  0  0  0  0  0  0  0  0  0
    6.9730  -12.0177   25.6854 C   0  0  0  0  0  0  0  0  0  0  0  0
    8.1585  -11.7315   25.0289 C   0  0  0  0  0  0  0  0  0  0  0  0
    8.9146  -12.7500   24.5050 C   0  0  0  0  0  0  0  0  0  0  0  0
    8.4954  -14.0760   24.6308 C   0  0  0  0  0  0  0  0  0  0  0  0
    7.3231  -14.3348   25.2834 C   0  0  0  0  0  0  0  0  0  0  0  0
    8.6803  -17.5727   23.6230 C   0  0  0  0  0  0  0  0  0  0  0  0
    9.0323  -18.7729   23.8446 O   0  0  0  0  0  0  0  0  0  0  0  0
    9.6619  -16.6267   23.1847 N   0  0  0  0  0  0  0  0  0  0  0  0
   11.0366  -16.9803   23.3003 C   0  0  1  0  0  0  0  0  0  0  0  0
   11.8707  -16.1162   22.4057 C   0  0  0  0  0  0  0  0  0  0  0  0
   11.7211  -16.4318   20.9717 C   0  0  0  0  0  0  0  0  0  0  0  0
   11.5099  -17.6195   20.5710 O   0  0  0  0  0  0  0  0  0  0  0  0
   11.5328  -16.9052   24.7076 C   0  0  0  0  0  0  0  0  0  0  0  0
   12.7135  -17.1604   25.0387 O   0  0  0  0  0  0  0  0  0  0  0  0
   11.7986  -15.4759   19.9729 O   0  0  0  0  0  0  0  0  0  0  0  0
    9.1183  -13.4018   28.4746 C   0  0  0  0  0  0  0  0  0  0  0  0
   10.1877  -14.2489   27.9077 C   0  0  2  0  0  0  0  0  0  0  0  0
   10.3607  -13.8693   26.4129 C   0  0  0  0  0  0  0  0  0  0  0  0
   10.0398  -15.7200   27.9238 C   0  0  0  0  0  0  0  0  0  0  0  0
   11.0154  -16.5011   27.1705 C   0  0  2  0  0  0  0  0  0  0  0  0
   10.6401  -16.5286   25.7318 N   0  0  0  0  0  0  0  0  0  0  0  0
   11.3703  -17.8548   27.5300 C   0  0  0  0  0  0  0  0  0  0  0  0
   11.2992  -19.0053   26.7685 O   0  0  0  0  0  0  0  0  0  0  0  0
   11.8149  -18.0711   28.7245 O   0  0  0  0  0  0  0  0  0  0  0  0
  2  1  1  1
  2  3  1  0
  2 13  1  0
  3  4  1  0
  4  5  2  0
  5  6  1  0
  7  6  1  0
  8  7  2  0
  9  8  1  0
 10 11  1  0
 10  9  2  0
 11 12  2  0
 12  4  1  0
 12  7  1  0
 13 15  1  0
 13 14  2  0
 15 16  1  0
 16 17  1  6
 18 22  1  0
 18 17  1  0
 19 18  2  0
 20 16  1  0
 20 21  2  0
 24 23  1  6
 24 26  1  0
 25 24  1  0
 27 26  1  1
 27 28  1  0
 28 20  1  0
 29 27  1  0
 30 29  1  0
 31 29  2  0
M  END
$$$$
