WDL.pdb
     RDKit          3D

 31 32  0  0  1  0  0  0  0  0999 V2000
    6.5850  -17.7076   23.8279 N   0  0  0  0  0  0  0  0  0  0  0  0
    7.7657  -16.8489   24.0784 C   0  0  1  0  0  0  0  0  0  0  0  0
    7.5629  -16.2022   25.4184 C   0  0  0  0  0  0  0  0  0  0  0  0
    6.6907  -15.0335   25.4479 C   0  0  0  0  0  0  0  0  0  0  0  0
    5.4513  -15.0490   26.1151 C   0  0  0  0  0  0  0  0  0  0  0  0
    4.9103  -13.8346   26.0082 N   0  0  0  0  0  0  0  0  0  0  0  0
    5.7286  -13.0458   25.3127 C   0  0  0  0  0  0  0  0  0  0  0  0
    5.5980  -11.7429   24.9408 C   0  0  0  0  0  0  0  0  0  0  0  0
    6.5939  -11.1382   24.1917 C   0  0  0  0  0  0  0  0  0  0  0  0
    7.7069  -11.8535   23.8274 C   0  0  0  0  0  0  0  0  0  0  0  0
    7.8424  -13.1899   24.2088 C   0  0  0  0  0  0  0  0  0  0  0  0
    6.8480  -13.7655   24.9485 C   0  0  0  0  0  0  0  0  0  0  0  0
    8.9502  -17.7097   24.0686 C   0  0  0  0  0  0  0  0  0  0  0  0
    8.7867  -18.9094   24.4526 O   0  0  0  0  0  0  0  0  0  0  0  0
   10.2535  -17.2786   23.6607 N   0  0  0  0  0  0  0  0  0  0  0  0
   11.3795  -18.0341   24.0958 C   0  0  1  0  0  0  0  0  0  0  0  0
   12.4710  -17.9733   23.0723 C   0  0  0  0  0  0  0  0  0  0  0  0
   12.6555  -16.6325   22.4837 C   0  0  0  0  0  0  0  0  0  0  0  0
   11.7117  -16.0389   21.8731 O   0  0  0  0  0  0  0  0  0  0  0  0
   11.8893  -17.5900   25.4282 C   0  0  0  0  0  0  0  0  0  0  0  0
   13.1061  -17.4539   25.6922 O   0  0  0  0  0  0  0  0  0  0  0  0
   13.8485  -15.9328   22.5503 O   0  0  0  0  0  0  0  0  0  0  0  0
   10.2638  -14.1693   27.2679 C   0  0  0  0  0  0  0  0  0  0  0  0
    9.6097  -15.3861   27.7916 C   0  0  2  0  0  0  0  0  0  0  0  0
    8.4362  -14.9457   28.7066 C   0  0  0  0  0  0  0  0  0  0  0  0
   10.3935  -16.3483   28.5953 C   0  0  0  0  0  0  0  0  0  0  0  0
   11.3533  -17.1894   27.8876 C   0  0  2  0  0  0  0  0  0  0  0  0
   10.9677  -17.3037   26.4560 N   0  0  0  0  0  0  0  0  0  0  0  0
   11.6926  -18.5220   28.3310 C   0  0  0  0  0  0  0  0  0  0  0  0
   12.3707  -18.9152   29.4687 O   0  0  0  0  0  0  0  0  0  0  0  0
   11.3396  -19.5194   27.5882 O   0  0  0  0  0  0  0  0  0  0  0  0
  2  1  1  1
  2  3  1  0
  2 13  1  0
  3  4  1  0
  4  5  2  0
  5  6  1  0
  7  6  1  0
  8  7  2  0
  9  8  1  0
 10 11  1  0
 10  9  2  0
 11 12  2  0
 12  4  1  0
 12  7  1  0
 13 15  1  0
 13 14  2  0
 15 16  1  0
 16 17  1  6
 18 22  1  0
 18 17  1  0
 19 18  2  0
 20 16  1  0
 20 21  2  0
 24 23  1  1
 24 26  1  0
 25 24  1  0
 27 26  1  1
 27 28  1  0
 28 20  1  0
 29 27  1  0
 30 29  1  0
 31 29  2  0
M  END
$$$$
