WDL.pdb
     RDKit          3D

 31 32  0  0  1  0  0  0  0  0999 V2000
    6.3241  -18.7008   23.1279 N   0  0  0  0  0  0  0  0  0  0  0  0
    7.2412  -17.6833   22.5642 C   0  0  1  0  0  0  0  0  0  0  0  0
    6.5097  -16.3721   22.5851 C   0  0  0  0  0  0  0  0  0  0  0  0
    6.8387  -15.4300   21.5212 C   0  0  0  0  0  0  0  0  0  0  0  0
    6.7507  -15.7852   20.1620 C   0  0  0  0  0  0  0  0  0  0  0  0
    7.0650  -14.7125   19.4343 N   0  0  0  0  0  0  0  0  0  0  0  0
    7.3490  -13.6951   20.2466 C   0  0  0  0  0  0  0  0  0  0  0  0
    7.7318  -12.4192   19.9668 C   0  0  0  0  0  0  0  0  0  0  0  0
    7.9917  -11.5363   21.0018 C   0  0  0  0  0  0  0  0  0  0  0  0
    7.8628  -11.9501   22.3039 C   0  0  0  0  0  0  0  0  0  0  0  0
    7.4695  -13.2586   22.5923 C   0  0  0  0  0  0  0  0  0  0  0  0
    7.2173  -14.1119   21.5552 C   0  0  0  0  0  0  0  0  0  0  0  0
    8.4369  -17.6474   23.4087 C   0  0  0  0  0  0  0  0  0  0  0  0
    8.2845  -17.9718   24.6273 O   0  0  0  0  0  0  0  0  0  0  0  0
    9.7381  -17.2716   22.9437 N   0  0  0  0  0  0  0  0  0  0  0  0
   10.8017  -17.2178   23.8894 C   0  0  1  0  0  0  0  0  0  0  0  0
   12.1168  -17.0953   23.1835 C   0  0  0  0  0  0  0  0  0  0  0  0
   13.2822  -17.1894   24.0840 C   0  0  0  0  0  0  0  0  0  0  0  0
   13.3896  -18.1261   24.9366 O   0  0  0  0  0  0  0  0  0  0  0  0
   10.6358  -16.1101   24.8781 C   0  0  0  0  0  0  0  0  0  0  0  0
   11.2152  -15.0039   24.7802 O   0  0  0  0  0  0  0  0  0  0  0  0
   14.3272  -16.2811   24.0690 O   0  0  0  0  0  0  0  0  0  0  0  0
    9.2464  -12.3891   26.0679 C   0  0  0  0  0  0  0  0  0  0  0  0
    8.3972  -13.5980   26.0764 C   0  0  2  0  0  0  0  0  0  0  0  0
    6.9147  -13.1442   26.1431 C   0  0  0  0  0  0  0  0  0  0  0  0
    8.5521  -14.5916   27.1604 C   0  0  0  0  0  0  0  0  0  0  0  0
    9.7705  -15.3945   27.1663 C   0  0  2  0  0  0  0  0  0  0  0  0
    9.7862  -16.3002   25.9870 N   0  0  0  0  0  0  0  0  0  0  0  0
   10.1696  -16.1914   28.3036 C   0  0  0  0  0  0  0  0  0  0  0  0
   10.3868  -17.5536   28.3793 O   0  0  0  0  0  0  0  0  0  0  0  0
   10.3544  -15.5909   29.4333 O   0  0  0  0  0  0  0  0  0  0  0  0
  2  1  1  1
  2  3  1  0
  2 13  1  0
  3  4  1  0
  4  5  2  0
  5  6  1  0
  7  6  1  0
  8  7  2  0
  9  8  1  0
 10 11  1  0
 10  9  2  0
 11 12  2  0
 12  4  1  0
 12  7  1  0
 13 15  1  0
 13 14  2  0
 15 16  1  0
 16 17  1  6
 18 22  1  0
 18 17  1  0
 19 18  2  0
 20 16  1  0
 20 21  2  0
 24 23  1  1
 24 26  1  0
 25 24  1  0
 27 26  1  1
 27 28  1  0
 28 20  1  0
 29 27  1  0
 30 29  1  0
 31 29  2  0
M  END
$$$$
