ARC.pdb
     RDKit          3D

 23 22  0  0  1  0  0  0  0  0999 V2000
    9.4420  -20.4643   22.0771 C   0  0  0  0  0  0  0  0  0  0  0  0
    8.9985  -19.6287   23.2704 C   0  0  2  0  0  0  0  0  0  0  0  0
    7.5564  -19.7593   23.3526 N   0  0  0  0  0  0  0  0  0  0  0  0
    9.4077  -18.2085   23.1109 C   0  0  0  0  0  0  0  0  0  0  0  0
   10.6147  -17.8589   23.0845 O   0  0  0  0  0  0  0  0  0  0  0  0
    7.3650  -12.8174   17.3427 N   0  0  0  0  0  0  0  0  0  0  0  0
    8.3721  -13.7331   17.7033 C   0  0  0  0  0  0  0  0  0  0  0  0
    9.0461  -14.2854   16.7488 N   0  0  0  0  0  0  0  0  0  0  0  0
    8.6229  -14.0257   19.0670 N   0  0  0  0  0  0  0  0  0  0  0  0
    7.7498  -13.4613   20.0501 C   0  0  0  0  0  0  0  0  0  0  0  0
    8.1952  -13.7595   21.4669 C   0  0  0  0  0  0  0  0  0  0  0  0
    7.9292  -15.2142   21.7234 C   0  0  0  0  0  0  0  0  0  0  0  0
    8.7732  -15.7841   22.8303 C   0  0  2  0  0  0  0  0  0  0  0  0
    8.4456  -17.1670   22.9794 N   0  0  0  0  0  0  0  0  0  0  0  0
    8.7366  -15.0171   24.0692 C   0  0  0  0  0  0  0  0  0  0  0  0
    7.8236  -14.1729   24.2237 O   0  0  0  0  0  0  0  0  0  0  0  0
    9.7842  -14.9832   16.8957 N   0  0  0  0  0  0  0  0  0  0  0  0
    9.6978  -15.2014   25.0907 C   0  0  1  0  0  0  0  0  0  0  0  0
    9.6440  -14.5152   26.3633 C   0  0  0  0  0  0  0  0  0  0  0  0
    8.3337  -14.7461   27.0847 S   0  0  0  0  0  0  0  0  0  0  0  0
    8.3070  -13.5790   28.5003 C   0  0  0  0  0  0  0  0  0  0  0  0
   10.8011  -14.8803   27.2279 O   0  0  0  0  0  0  0  0  0  0  0  0
   11.5319  -15.8732   26.9863 O   0  0  0  0  0  0  0  0  0  0  0  0
  2  1  1  6
  2  3  1  0
  4 14  1  0
  4  2  1  0
  5  4  2  0
  6  7  1  0
  7  9  1  0
  7  8  2  0
  9 10  1  0
 10 11  1  0
 11 12  1  0
 13 12  1  6
 13 15  1  0
 13 14  1  0
 15 17  1  0
 16 15  2  0
 17 18  1  0
 18 21  1  0
 19 20  1  0
 18 19  1  1
 21 22  2  0
 21 23  1  0
M  END
$$$$
