ARC.pdb
     RDKit          3D

 23 22  0  0  1  0  0  0  0  0999 V2000
    7.7649  -12.0125   19.3924 C   0  0  0  0  0  0  0  0  0  0  0  0
    7.8296  -13.3344   18.6392 C   0  0  2  0  0  0  0  0  0  0  0  0
    6.5095  -13.5565   18.0811 N   0  0  0  0  0  0  0  0  0  0  0  0
    8.2326  -14.4452   19.5412 C   0  0  0  0  0  0  0  0  0  0  0  0
    7.4108  -15.0291   20.2919 O   0  0  0  0  0  0  0  0  0  0  0  0
   10.9680  -21.2193   17.9617 N   0  0  0  0  0  0  0  0  0  0  0  0
   12.2498  -20.9421   18.4745 C   0  0  0  0  0  0  0  0  0  0  0  0
   13.2131  -21.7334   18.1331 N   0  0  0  0  0  0  0  0  0  0  0  0
   12.4567  -19.8327   19.3315 N   0  0  0  0  0  0  0  0  0  0  0  0
   11.3479  -18.9679   19.5959 C   0  0  0  0  0  0  0  0  0  0  0  0
   11.7068  -17.8245   20.5224 C   0  0  0  0  0  0  0  0  0  0  0  0
   11.2763  -16.5525   19.8519 C   0  0  0  0  0  0  0  0  0  0  0  0
   10.0321  -15.9582   20.4529 C   0  0  2  0  0  0  0  0  0  0  0  0
    9.5788  -14.9056   19.5995 N   0  0  0  0  0  0  0  0  0  0  0  0
   10.1620  -15.5856   21.8561 C   0  0  0  0  0  0  0  0  0  0  0  0
   10.3156  -14.3754   22.1422 O   0  0  0  0  0  0  0  0  0  0  0  0
   14.1655  -21.6755   18.5111 N   0  0  0  0  0  0  0  0  0  0  0  0
   10.1190  -16.5484   22.8918 C   0  0  2  0  0  0  0  0  0  0  0  0
   10.1411  -16.2032   24.2967 C   0  0  0  0  0  0  0  0  0  0  0  0
    9.0055  -15.2783   24.6782 S   0  0  0  0  0  0  0  0  0  0  0  0
    7.8299  -16.2798   25.6691 C   0  0  0  0  0  0  0  0  0  0  0  0
   10.1503  -17.4202   25.1561 O   0  0  0  0  0  0  0  0  0  0  0  0
    9.7935  -18.5461   24.7281 O   0  0  0  0  0  0  0  0  0  0  0  0
  2  1  1  1
  2  3  1  0
  4 14  1  0
  4  2  1  0
  5  4  2  0
  6  7  1  0
  7  9  1  0
  7  8  2  0
  9 10  1  0
 10 11  1  0
 11 12  1  0
 13 12  1  6
 13 15  1  0
 13 14  1  0
 15 17  1  0
 16 15  2  0
 17 18  1  0
 18 21  1  0
 19 20  1  0
 18 19  1  6
 21 22  2  0
 21 23  1  0
M  END
$$$$
