ARC.pdb
     RDKit          3D

 23 22  0  0  1  0  0  0  0  0999 V2000
    8.6934  -12.4427   19.1070 C   0  0  0  0  0  0  0  0  0  0  0  0
    8.5390  -13.9575   19.0874 C   0  0  2  0  0  0  0  0  0  0  0  0
    7.7265  -14.2746   17.9286 N   0  0  0  0  0  0  0  0  0  0  0  0
    7.9110  -14.4477   20.3425 C   0  0  0  0  0  0  0  0  0  0  0  0
    6.6664  -14.4338   20.5177 O   0  0  0  0  0  0  0  0  0  0  0  0
    9.0910  -20.5696   25.4224 N   0  0  0  0  0  0  0  0  0  0  0  0
    7.6958  -20.4502   25.5712 C   0  0  0  0  0  0  0  0  0  0  0  0
    7.1269  -21.1822   26.4718 N   0  0  0  0  0  0  0  0  0  0  0  0
    6.9598  -19.5556   24.7551 N   0  0  0  0  0  0  0  0  0  0  0  0
    7.6470  -18.8937   23.6889 C   0  0  0  0  0  0  0  0  0  0  0  0
    8.1516  -17.5207   24.0826 C   0  0  0  0  0  0  0  0  0  0  0  0
    8.6813  -16.8650   22.8407 C   0  0  0  0  0  0  0  0  0  0  0  0
    8.1506  -15.4729   22.6339 C   0  0  2  0  0  0  0  0  0  0  0  0
    8.6940  -14.9607   21.4155 N   0  0  0  0  0  0  0  0  0  0  0  0
    8.3101  -14.5923   23.7844 C   0  0  0  0  0  0  0  0  0  0  0  0
    9.4596  -14.1839   24.0707 O   0  0  0  0  0  0  0  0  0  0  0  0
    6.1119  -21.2306   26.6158 N   0  0  0  0  0  0  0  0  0  0  0  0
    7.2089  -14.1921   24.5772 C   0  0  2  0  0  0  0  0  0  0  0  0
    7.3466  -13.4262   25.7969 C   0  0  0  0  0  0  0  0  0  0  0  0
    6.0955  -12.6403   26.1254 S   0  0  0  0  0  0  0  0  0  0  0  0
    6.3997  -11.8313   27.7439 C   0  0  0  0  0  0  0  0  0  0  0  0
    7.7491  -14.2918   26.9407 O   0  0  0  0  0  0  0  0  0  0  0  0
    7.3298  -15.4689   27.0709 O   0  0  0  0  0  0  0  0  0  0  0  0
  2  1  1  1
  2  3  1  0
  4 14  1  0
  4  2  1  0
  5  4  2  0
  6  7  1  0
  7  9  1  0
  7  8  2  0
  9 10  1  0
 10 11  1  0
 11 12  1  0
 13 12  1  1
 13 15  1  0
 13 14  1  0
 15 17  1  0
 16 15  2  0
 17 18  1  0
 18 21  1  0
 19 20  1  0
 18 19  1  6
 21 22  2  0
 21 23  1  0
M  END
$$$$
