ARC.pdb
     RDKit          3D

 23 22  0  0  1  0  0  0  0  0999 V2000
    8.4688  -19.4704   11.4343 C   0  0  0  0  0  0  0  0  0  0  0  0
    9.8107  -19.0536   12.0213 C   0  0  2  0  0  0  0  0  0  0  0  0
   10.7822  -19.1646   10.9501 N   0  0  0  0  0  0  0  0  0  0  0  0
   10.1777  -19.9107   13.1792 C   0  0  0  0  0  0  0  0  0  0  0  0
    9.5162  -19.9106   14.2479 O   0  0  0  0  0  0  0  0  0  0  0  0
    9.5075  -24.6300   15.7095 N   0  0  0  0  0  0  0  0  0  0  0  0
   10.2157  -25.8463   15.7541 C   0  0  0  0  0  0  0  0  0  0  0  0
    9.8570  -26.7135   16.6428 N   0  0  0  0  0  0  0  0  0  0  0  0
   11.2790  -26.0926   14.8502 N   0  0  0  0  0  0  0  0  0  0  0  0
   11.6077  -25.0737   13.9010 C   0  0  0  0  0  0  0  0  0  0  0  0
   12.5329  -24.0193   14.4728 C   0  0  0  0  0  0  0  0  0  0  0  0
   12.4494  -22.8172   13.5780 C   0  0  0  0  0  0  0  0  0  0  0  0
   11.6648  -21.6841   14.1804 C   0  0  2  0  0  0  0  0  0  0  0  0
   11.3046  -20.7800   13.1341 N   0  0  0  0  0  0  0  0  0  0  0  0
   12.3040  -21.0553   15.3296 C   0  0  0  0  0  0  0  0  0  0  0  0
   13.2895  -20.3073   15.1313 O   0  0  0  0  0  0  0  0  0  0  0  0
    9.1384  -26.5424   17.3553 N   0  0  0  0  0  0  0  0  0  0  0  0
   11.8425  -21.2676   16.6500 C   0  0  2  0  0  0  0  0  0  0  0  0
   12.4203  -20.6171   17.8061 C   0  0  0  0  0  0  0  0  0  0  0  0
   11.3785  -20.2621   18.8450 S   0  0  0  0  0  0  0  0  0  0  0  0
   10.3263  -18.9559   18.1009 C   0  0  0  0  0  0  0  0  0  0  0  0
   13.5119  -21.4367   18.4029 O   0  0  0  0  0  0  0  0  0  0  0  0
   14.2025  -21.0310   19.3708 O   0  0  0  0  0  0  0  0  0  0  0  0
  2  1  1  6
  2  3  1  0
  4 14  1  0
  4  2  1  0
  5  4  2  0
  6  7  1  0
  7  9  1  0
  7  8  2  0
  9 10  1  0
 10 11  1  0
 11 12  1  0
 13 12  1  6
 13 15  1  0
 13 14  1  0
 15 17  1  0
 16 15  2  0
 17 18  1  0
 18 21  1  0
 19 20  1  0
 18 19  1  6
 21 22  2  0
 21 23  1  0
M  END
$$$$
