ARC.pdb
     RDKit          3D

 23 22  0  0  1  0  0  0  0  0999 V2000
    7.7746  -12.2190   19.8619 C   0  0  0  0  0  0  0  0  0  0  0  0
    7.9192  -13.7324   19.7746 C   0  0  2  0  0  0  0  0  0  0  0  0
    6.8334  -14.2031   18.9362 N   0  0  0  0  0  0  0  0  0  0  0  0
    7.8723  -14.3532   21.1245 C   0  0  0  0  0  0  0  0  0  0  0  0
    6.7883  -14.5865   21.7164 O   0  0  0  0  0  0  0  0  0  0  0  0
   12.4622  -19.1391   21.5264 N   0  0  0  0  0  0  0  0  0  0  0  0
   11.3330  -19.8846   21.9163 C   0  0  0  0  0  0  0  0  0  0  0  0
   10.9333  -20.8220   21.1212 N   0  0  0  0  0  0  0  0  0  0  0  0
   10.6726  -19.6033   23.1381 N   0  0  0  0  0  0  0  0  0  0  0  0
   11.1431  -18.5025   23.9218 C   0  0  0  0  0  0  0  0  0  0  0  0
   10.0769  -17.4511   24.1514 C   0  0  0  0  0  0  0  0  0  0  0  0
   10.0461  -16.5714   22.9358 C   0  0  0  0  0  0  0  0  0  0  0  0
    9.0834  -15.4225   23.0607 C   0  0  2  0  0  0  0  0  0  0  0  0
    9.0614  -14.7168   21.8184 N   0  0  0  0  0  0  0  0  0  0  0  0
    9.3016  -14.5807   24.2305 C   0  0  0  0  0  0  0  0  0  0  0  0
   10.3592  -13.9122   24.2980 O   0  0  0  0  0  0  0  0  0  0  0  0
   10.1172  -21.4180   21.3002 N   0  0  0  0  0  0  0  0  0  0  0  0
    8.3569  -14.5016   25.2807 C   0  0  2  0  0  0  0  0  0  0  0  0
    8.6147  -13.8176   26.5293 C   0  0  0  0  0  0  0  0  0  0  0  0
    7.4933  -12.8747   26.9091 S   0  0  0  0  0  0  0  0  0  0  0  0
    6.2352  -13.0010   25.5795 C   0  0  0  0  0  0  0  0  0  0  0  0
    8.8976  -14.7814   27.6296 O   0  0  0  0  0  0  0  0  0  0  0  0
    8.7852  -16.0235   27.4786 O   0  0  0  0  0  0  0  0  0  0  0  0
  2  1  1  1
  2  3  1  0
  4 14  1  0
  4  2  1  0
  5  4  2  0
  6  7  1  0
  7  9  1  0
  7  8  2  0
  9 10  1  0
 10 11  1  0
 11 12  1  0
 13 12  1  6
 13 15  1  0
 13 14  1  0
 15 17  1  0
 16 15  2  0
 17 18  1  0
 18 21  1  0
 19 20  1  0
 18 19  1  6
 21 22  2  0
 21 23  1  0
M  END
$$$$
