ARC.pdb
     RDKit          3D

 23 22  0  0  1  0  0  0  0  0999 V2000
    6.4885  -19.0396   26.0149 C   0  0  0  0  0  0  0  0  0  0  0  0
    6.6659  -19.0318   24.5025 C   0  0  2  0  0  0  0  0  0  0  0  0
    7.2160  -20.3252   24.1447 N   0  0  0  0  0  0  0  0  0  0  0  0
    7.5593  -17.9236   24.0741 C   0  0  0  0  0  0  0  0  0  0  0  0
    8.8109  -18.0024   24.1584 O   0  0  0  0  0  0  0  0  0  0  0  0
    9.4555  -13.5527   17.5990 N   0  0  0  0  0  0  0  0  0  0  0  0
    8.1806  -13.7174   18.1736 C   0  0  0  0  0  0  0  0  0  0  0  0
    7.4710  -14.7211   17.7740 N   0  0  0  0  0  0  0  0  0  0  0  0
    7.7099  -12.8067   19.1521 N   0  0  0  0  0  0  0  0  0  0  0  0
    7.0156  -13.3342   20.2866 C   0  0  0  0  0  0  0  0  0  0  0  0
    7.9174  -14.1358   21.2025 C   0  0  0  0  0  0  0  0  0  0  0  0
    7.0634  -14.6740   22.3132 C   0  0  0  0  0  0  0  0  0  0  0  0
    7.8230  -15.5466   23.2744 C   0  0  2  0  0  0  0  0  0  0  0  0
    7.0375  -16.7096   23.5434 N   0  0  0  0  0  0  0  0  0  0  0  0
    8.3041  -14.8536   24.4630 C   0  0  0  0  0  0  0  0  0  0  0  0
    7.7654  -13.7682   24.7822 O   0  0  0  0  0  0  0  0  0  0  0  0
    6.5415  -14.9509   18.1434 N   0  0  0  0  0  0  0  0  0  0  0  0
    9.3542  -15.3723   25.2566 C   0  0  1  0  0  0  0  0  0  0  0  0
    9.8002  -14.7522   26.4854 C   0  0  0  0  0  0  0  0  0  0  0  0
    8.6632  -14.5220   27.4574 S   0  0  0  0  0  0  0  0  0  0  0  0
    9.3710  -13.5984   28.8761 C   0  0  0  0  0  0  0  0  0  0  0  0
   10.8972  -15.5334   27.1223 O   0  0  0  0  0  0  0  0  0  0  0  0
   11.4972  -15.1316   28.1504 O   0  0  0  0  0  0  0  0  0  0  0  0
  2  1  1  1
  2  3  1  0
  4 14  1  0
  4  2  1  0
  5  4  2  0
  6  7  1  0
  7  9  1  0
  7  8  2  0
  9 10  1  0
 10 11  1  0
 11 12  1  0
 13 12  1  1
 13 15  1  0
 13 14  1  0
 15 17  1  0
 16 15  2  0
 17 18  1  0
 18 21  1  0
 19 20  1  0
 18 19  1  6
 21 22  2  0
 21 23  1  0
M  END
$$$$
