ARC.pdb
     RDKit          3D

 23 22  0  0  1  0  0  0  0  0999 V2000
    6.4272  -18.9746   25.3383 C   0  0  0  0  0  0  0  0  0  0  0  0
    5.9136  -18.8665   23.9089 C   0  0  2  0  0  0  0  0  0  0  0  0
    5.7658  -20.2239   23.4197 N   0  0  0  0  0  0  0  0  0  0  0  0
    6.8499  -18.0821   23.0616 C   0  0  0  0  0  0  0  0  0  0  0  0
    7.8064  -18.6187   22.4478 O   0  0  0  0  0  0  0  0  0  0  0  0
    8.1920  -15.2164   16.3545 N   0  0  0  0  0  0  0  0  0  0  0  0
    7.9895  -14.2708   17.3781 C   0  0  0  0  0  0  0  0  0  0  0  0
    8.6089  -13.1409   17.2777 N   0  0  0  0  0  0  0  0  0  0  0  0
    7.1350  -14.5648   18.4696 N   0  0  0  0  0  0  0  0  0  0  0  0
    6.9521  -13.5613   19.4730 C   0  0  0  0  0  0  0  0  0  0  0  0
    7.7604  -13.8329   20.7250 C   0  0  0  0  0  0  0  0  0  0  0  0
    6.9107  -14.6725   21.6336 C   0  0  0  0  0  0  0  0  0  0  0  0
    7.6500  -15.8432   22.2212 C   0  0  2  0  0  0  0  0  0  0  0  0
    6.7081  -16.6741   22.9026 N   0  0  0  0  0  0  0  0  0  0  0  0
    8.8189  -15.4794   23.0124 C   0  0  0  0  0  0  0  0  0  0  0  0
    8.6447  -14.8591   24.0871 O   0  0  0  0  0  0  0  0  0  0  0  0
    9.2412  -12.8988   16.5064 N   0  0  0  0  0  0  0  0  0  0  0  0
   10.1318  -15.8070   22.5997 C   0  0  1  0  0  0  0  0  0  0  0  0
   11.2347  -15.9723   23.5214 C   0  0  0  0  0  0  0  0  0  0  0  0
   10.9800  -17.0719   24.5297 S   0  0  0  0  0  0  0  0  0  0  0  0
   10.2055  -16.2711   25.9877 C   0  0  0  0  0  0  0  0  0  0  0  0
   12.5185  -16.1967   22.7995 O   0  0  0  0  0  0  0  0  0  0  0  0
   12.7941  -17.2901   22.2456 O   0  0  0  0  0  0  0  0  0  0  0  0
  2  1  1  1
  2  3  1  0
  4 14  1  0
  4  2  1  0
  5  4  2  0
  6  7  1  0
  7  9  1  0
  7  8  2  0
  9 10  1  0
 10 11  1  0
 11 12  1  0
 13 12  1  1
 13 15  1  0
 13 14  1  0
 15 17  1  0
 16 15  2  0
 17 18  1  0
 18 21  1  0
 19 20  1  0
 18 19  1  1
 21 22  2  0
 21 23  1  0
M  END
$$$$
