ARC.pdb
     RDKit          3D

 23 22  0  0  1  0  0  0  0  0999 V2000
    7.6228  -12.1355   19.9034 C   0  0  0  0  0  0  0  0  0  0  0  0
    7.9397  -13.6150   19.7313 C   0  0  2  0  0  0  0  0  0  0  0  0
    7.0404  -14.1134   18.7083 N   0  0  0  0  0  0  0  0  0  0  0  0
    7.7688  -14.3513   21.0113 C   0  0  0  0  0  0  0  0  0  0  0  0
    6.6456  -14.7534   21.4070 O   0  0  0  0  0  0  0  0  0  0  0  0
   10.8552  -21.0730   20.9492 N   0  0  0  0  0  0  0  0  0  0  0  0
   10.9998  -20.4840   22.2201 C   0  0  0  0  0  0  0  0  0  0  0  0
   11.8064  -21.0541   23.0537 N   0  0  0  0  0  0  0  0  0  0  0  0
   10.2797  -19.3103   22.5546 N   0  0  0  0  0  0  0  0  0  0  0  0
   10.5385  -18.6977   23.8215 C   0  0  0  0  0  0  0  0  0  0  0  0
    9.6149  -17.5311   24.1058 C   0  0  0  0  0  0  0  0  0  0  0  0
    9.6631  -16.6207   22.9135 C   0  0  0  0  0  0  0  0  0  0  0  0
    8.7910  -15.4042   23.0620 C   0  0  2  0  0  0  0  0  0  0  0  0
    8.8768  -14.6395   21.8579 N   0  0  0  0  0  0  0  0  0  0  0  0
    9.0274  -14.6410   24.2811 C   0  0  0  0  0  0  0  0  0  0  0  0
   10.1388  -14.0820   24.4313 O   0  0  0  0  0  0  0  0  0  0  0  0
   12.0030  -20.6997   23.9966 N   0  0  0  0  0  0  0  0  0  0  0  0
    8.0417  -14.5180   25.2884 C   0  0  2  0  0  0  0  0  0  0  0  0
    8.2279  -13.7308   26.4881 C   0  0  0  0  0  0  0  0  0  0  0  0
    6.9513  -13.0488   26.9306 S   0  0  0  0  0  0  0  0  0  0  0  0
    6.3000  -12.1616   25.4625 C   0  0  0  0  0  0  0  0  0  0  0  0
    8.8066  -14.5482   27.5911 O   0  0  0  0  0  0  0  0  0  0  0  0
    9.0896  -14.0572   28.7123 O   0  0  0  0  0  0  0  0  0  0  0  0
  2  1  1  1
  2  3  1  0
  4 14  1  0
  4  2  1  0
  5  4  2  0
  6  7  1  0
  7  9  1  0
  7  8  2  0
  9 10  1  0
 10 11  1  0
 11 12  1  0
 13 12  1  6
 13 15  1  0
 13 14  1  0
 15 17  1  0
 16 15  2  0
 17 18  1  0
 18 21  1  0
 19 20  1  0
 18 19  1  6
 21 22  2  0
 21 23  1  0
M  END
$$$$
