CAT.pdb
     RDKit          3D

 19 18  0  0  1  0  0  0  0  0999 V2000
    7.3981  -15.1239   18.3763 N   0  0  0  0  0  0  0  0  0  0  0  0
    8.2789  -14.5291   19.3278 C   0  0  1  0  0  0  0  0  0  0  0  0
    8.0355  -13.0370   19.4738 C   0  0  0  0  0  0  0  0  0  0  0  0
    8.5293  -12.1977   17.9407 S   0  0  0  0  0  0  0  0  0  0  0  0
    8.1358  -15.1133   20.6943 C   0  0  0  0  0  0  0  0  0  0  0  0
    6.9477  -15.2550   21.0861 O   0  0  0  0  0  0  0  0  0  0  0  0
    9.9892  -17.3642   22.8784 C   0  0  0  0  0  0  0  0  0  0  0  0
    9.0505  -16.1663   22.7370 C   0  0  2  0  0  0  0  0  0  0  0  0
    9.2399  -15.4839   21.4987 N   0  0  0  0  0  0  0  0  0  0  0  0
    9.2946  -15.3092   23.9198 C   0  0  0  0  0  0  0  0  0  0  0  0
   10.2947  -14.5676   24.0516 O   0  0  0  0  0  0  0  0  0  0  0  0
    6.7409  -12.8491   25.2366 C   0  0  0  0  0  0  0  0  0  0  0  0
    7.0481  -13.8584   26.3244 C   0  0  1  0  0  0  0  0  0  0  0  0
    6.0630  -14.8261   26.2809 O   0  0  0  0  0  0  0  0  0  0  0  0
    8.4233  -14.4705   26.1284 C   0  0  2  0  0  0  0  0  0  0  0  0
    8.3366  -15.3314   24.9650 N   0  0  0  0  0  0  0  0  0  0  0  0
    8.8453  -15.2603   27.3057 C   0  0  0  0  0  0  0  0  0  0  0  0
    9.0454  -16.6253   27.1750 O   0  0  0  0  0  0  0  0  0  0  0  0
    9.0346  -14.7573   28.4305 O   0  0  0  0  0  0  0  0  0  0  0  0
  2  1  1  6
  2  3  1  0
  4  3  1  0
  5  2  1  0
  5  6  2  0
  8  7  1  6
  9  8  1  0
  9  5  1  0
 10  8  1  0
 11 10  2  0
 13 12  1  6
 13 15  1  0
 14 13  1  0
 15 16  1  6
 15 17  1  0
 16 10  1  0
 17 18  1  0
 19 17  2  0
M  END
$$$$
