CAT.pdb
     RDKit          3D

 19 18  0  0  1  0  0  0  0  0999 V2000
    9.5076  -15.8716   15.1549 N   0  0  0  0  0  0  0  0  0  0  0  0
    8.6748  -15.8116   16.3115 C   0  0  1  0  0  0  0  0  0  0  0  0
    8.6107  -17.1446   17.0367 C   0  0  0  0  0  0  0  0  0  0  0  0
    7.5968  -18.3021   16.0719 S   0  0  0  0  0  0  0  0  0  0  0  0
    9.1464  -14.8108   17.3139 C   0  0  0  0  0  0  0  0  0  0  0  0
   10.3919  -14.6269   17.3307 O   0  0  0  0  0  0  0  0  0  0  0  0
    7.6604  -12.1845   19.5623 C   0  0  0  0  0  0  0  0  0  0  0  0
    8.7686  -13.1199   19.0792 C   0  0  2  0  0  0  0  0  0  0  0  0
    8.2740  -14.1148   18.1845 N   0  0  0  0  0  0  0  0  0  0  0  0
    9.3900  -13.6870   20.2980 C   0  0  0  0  0  0  0  0  0  0  0  0
    9.9262  -12.9976   21.1950 O   0  0  0  0  0  0  0  0  0  0  0  0
    7.6367  -16.0965   22.5565 C   0  0  0  0  0  0  0  0  0  0  0  0
    8.9011  -16.7790   22.0751 C   0  0  1  0  0  0  0  0  0  0  0  0
    8.5467  -17.6245   21.0414 O   0  0  0  0  0  0  0  0  0  0  0  0
    9.9308  -15.7613   21.6189 C   0  0  2  0  0  0  0  0  0  0  0  0
    9.3758  -15.0961   20.4564 N   0  0  0  0  0  0  0  0  0  0  0  0
   11.2157  -16.4023   21.2634 C   0  0  0  0  0  0  0  0  0  0  0  0
   11.9232  -17.0952   22.2327 O   0  0  0  0  0  0  0  0  0  0  0  0
   11.7071  -16.3533   20.1188 O   0  0  0  0  0  0  0  0  0  0  0  0
  2  1  1  6
  2  3  1  0
  4  3  1  0
  5  2  1  0
  5  6  2  0
  8  7  1  1
  9  8  1  0
  9  5  1  0
 10  8  1  0
 11 10  2  0
 13 12  1  6
 13 15  1  0
 14 13  1  0
 15 16  1  6
 15 17  1  0
 16 10  1  0
 17 18  1  0
 19 17  2  0
M  END
$$$$
