CAT.pdb
     RDKit          3D

 19 18  0  0  1  0  0  0  0  0999 V2000
    6.9492  -15.2699   18.2221 N   0  0  0  0  0  0  0  0  0  0  0  0
    8.2937  -15.0029   18.6168 C   0  0  1  0  0  0  0  0  0  0  0  0
    8.3600  -14.1620   19.8799 C   0  0  0  0  0  0  0  0  0  0  0  0
    7.6766  -12.5143   19.5379 S   0  0  0  0  0  0  0  0  0  0  0  0
    9.0727  -16.2450   18.8983 C   0  0  0  0  0  0  0  0  0  0  0  0
    8.3731  -17.2673   19.1232 O   0  0  0  0  0  0  0  0  0  0  0  0
   12.6219  -17.4381   18.5715 C   0  0  0  0  0  0  0  0  0  0  0  0
   11.1846  -17.5189   19.0852 C   0  0  2  0  0  0  0  0  0  0  0  0
   10.4875  -16.2861   18.9146 N   0  0  0  0  0  0  0  0  0  0  0  0
   11.2758  -17.9477   20.4998 C   0  0  0  0  0  0  0  0  0  0  0  0
   12.0051  -18.8827   20.9014 O   0  0  0  0  0  0  0  0  0  0  0  0
   11.2530  -15.2918   23.4098 C   0  0  0  0  0  0  0  0  0  0  0  0
   10.1707  -16.3299   23.6276 C   0  0  1  0  0  0  0  0  0  0  0  0
    8.9757  -15.7749   23.2117 O   0  0  0  0  0  0  0  0  0  0  0  0
   10.4756  -17.6050   22.8625 C   0  0  2  0  0  0  0  0  0  0  0  0
   10.4888  -17.2561   21.4554 N   0  0  0  0  0  0  0  0  0  0  0  0
    9.4583  -18.6500   23.1100 C   0  0  0  0  0  0  0  0  0  0  0  0
    8.6472  -19.0722   22.0688 O   0  0  0  0  0  0  0  0  0  0  0  0
    9.2864  -19.1823   24.2241 O   0  0  0  0  0  0  0  0  0  0  0  0
  2  1  1  1
  2  3  1  0
  4  3  1  0
  5  2  1  0
  5  6  2  0
  8  7  1  1
  9  8  1  0
  9  5  1  0
 10  8  1  0
 11 10  2  0
 13 12  1  6
 13 15  1  0
 14 13  1  0
 15 16  1  6
 15 17  1  0
 16 10  1  0
 17 18  1  0
 19 17  2  0
M  END
$$$$
