CAT.pdb
     RDKit          3D

 19 18  0  0  1  0  0  0  0  0999 V2000
    4.6309  -18.9557   19.6543 N   0  0  0  0  0  0  0  0  0  0  0  0
    4.4910  -18.0086   20.7118 C   0  0  1  0  0  0  0  0  0  0  0  0
    3.7650  -18.5960   21.9097 C   0  0  0  0  0  0  0  0  0  0  0  0
    1.9860  -18.6731   21.5521 S   0  0  0  0  0  0  0  0  0  0  0  0
    5.8029  -17.5091   21.2198 C   0  0  0  0  0  0  0  0  0  0  0  0
    6.6971  -18.3889   21.3273 O   0  0  0  0  0  0  0  0  0  0  0  0
    7.3601  -14.2188   22.2695 C   0  0  0  0  0  0  0  0  0  0  0  0
    7.3127  -15.7290   22.0383 C   0  0  2  0  0  0  0  0  0  0  0  0
    6.0388  -16.1551   21.5584 N   0  0  0  0  0  0  0  0  0  0  0  0
    7.6914  -16.3553   23.3258 C   0  0  0  0  0  0  0  0  0  0  0  0
    7.0678  -16.1827   24.3976 O   0  0  0  0  0  0  0  0  0  0  0  0
    7.6350  -19.5606   24.6026 C   0  0  0  0  0  0  0  0  0  0  0  0
    9.1171  -19.2574   24.5126 C   0  0  1  0  0  0  0  0  0  0  0  0
    9.5787  -19.7987   23.3282 O   0  0  0  0  0  0  0  0  0  0  0  0
    9.3724  -17.7620   24.5652 C   0  0  2  0  0  0  0  0  0  0  0  0
    8.8294  -17.2012   23.3434 N   0  0  0  0  0  0  0  0  0  0  0  0
   10.8163  -17.4548   24.6590 C   0  0  0  0  0  0  0  0  0  0  0  0
   11.5147  -17.8041   25.8037 O   0  0  0  0  0  0  0  0  0  0  0  0
   11.4523  -16.8886   23.7486 O   0  0  0  0  0  0  0  0  0  0  0  0
  2  1  1  6
  2  3  1  0
  4  3  1  0
  5  2  1  0
  5  6  2  0
  8  7  1  1
  9  8  1  0
  9  5  1  0
 10  8  1  0
 11 10  2  0
 13 12  1  6
 13 15  1  0
 14 13  1  0
 15 16  1  6
 15 17  1  0
 16 10  1  0
 17 18  1  0
 19 17  2  0
M  END
$$$$
