CAT.pdb
     RDKit          3D

 19 18  0  0  1  0  0  0  0  0999 V2000
    7.8332  -15.8041   13.3291 N   0  0  0  0  0  0  0  0  0  0  0  0
    8.9996  -15.7171   14.1457 C   0  0  1  0  0  0  0  0  0  0  0  0
    9.6795  -14.3642   14.0250 C   0  0  0  0  0  0  0  0  0  0  0  0
   10.3120  -14.1615   12.3346 S   0  0  0  0  0  0  0  0  0  0  0  0
    8.7070  -15.9118   15.5967 C   0  0  0  0  0  0  0  0  0  0  0  0
    7.6943  -15.2941   16.0186 O   0  0  0  0  0  0  0  0  0  0  0  0
    9.5640  -18.4166   18.2145 C   0  0  0  0  0  0  0  0  0  0  0  0
    9.0665  -17.0423   17.7671 C   0  0  2  0  0  0  0  0  0  0  0  0
    9.4971  -16.7241   16.4449 N   0  0  0  0  0  0  0  0  0  0  0  0
    9.5450  -16.0790   18.7852 C   0  0  0  0  0  0  0  0  0  0  0  0
   10.7073  -15.6151   18.8172 O   0  0  0  0  0  0  0  0  0  0  0  0
    7.3375  -13.0742   19.7513 C   0  0  0  0  0  0  0  0  0  0  0  0
    7.7165  -13.8301   21.0088 C   0  0  1  0  0  0  0  0  0  0  0  0
    6.6400  -14.6242   21.3543 O   0  0  0  0  0  0  0  0  0  0  0  0
    8.9633  -14.6673   20.7874 C   0  0  2  0  0  0  0  0  0  0  0  0
    8.6295  -15.6581   19.7830 N   0  0  0  0  0  0  0  0  0  0  0  0
    9.3997  -15.3408   22.0300 C   0  0  0  0  0  0  0  0  0  0  0  0
    9.8513  -14.5792   23.0959 O   0  0  0  0  0  0  0  0  0  0  0  0
    9.3839  -16.5788   22.1748 O   0  0  0  0  0  0  0  0  0  0  0  0
  2  1  1  6
  2  3  1  0
  4  3  1  0
  5  2  1  0
  5  6  2  0
  8  7  1  1
  9  8  1  0
  9  5  1  0
 10  8  1  0
 11 10  2  0
 13 12  1  6
 13 15  1  0
 14 13  1  0
 15 16  1  6
 15 17  1  0
 16 10  1  0
 17 18  1  0
 19 17  2  0
M  END
$$$$
