FVT.pdb
     RDKit          3D

 26 26  0  0  1  0  0  0  0  0999 V2000
    5.9179  -17.4550   24.0479 N   0  0  0  0  0  0  0  0  0  0  0  0
    6.8135  -16.4191   24.4740 C   0  0  1  0  0  0  0  0  0  0  0  0
    6.3737  -15.9779   25.8647 C   0  0  0  0  0  0  0  0  0  0  0  0
    6.6530  -14.5130   25.9480 C   0  0  0  0  0  0  0  0  0  0  0  0
    5.6467  -13.5734   25.8628 C   0  0  0  0  0  0  0  0  0  0  0  0
    5.8786  -12.2119   25.9370 C   0  0  0  0  0  0  0  0  0  0  0  0
    7.1945  -11.7689   26.1062 C   0  0  0  0  0  0  0  0  0  0  0  0
    8.2228  -12.6817   26.1949 C   0  0  0  0  0  0  0  0  0  0  0  0
    7.9428  -14.0303   26.1155 C   0  0  0  0  0  0  0  0  0  0  0  0
    8.2343  -16.8833   24.4941 C   0  0  0  0  0  0  0  0  0  0  0  0
    8.5942  -17.9528   25.0509 O   0  0  0  0  0  0  0  0  0  0  0  0
   12.7858  -16.2598   22.5624 C   0  0  0  0  0  0  0  0  0  0  0  0
   11.3426  -15.8558   22.7116 C   0  0  1  0  0  0  0  0  0  0  0  0
   10.5762  -15.9754   21.4360 C   0  0  0  0  0  0  0  0  0  0  0  0
   10.6411  -16.5548   23.8253 C   0  0  2  0  0  0  0  0  0  0  0  0
    9.2497  -16.1100   23.8680 N   0  0  0  0  0  0  0  0  0  0  0  0
   11.2978  -16.1713   25.1062 C   0  0  0  0  0  0  0  0  0  0  0  0
   12.2675  -15.3496   25.1133 O   0  0  0  0  0  0  0  0  0  0  0  0
   10.5307  -14.2063   27.9507 C   0  0  0  0  0  0  0  0  0  0  0  0
   10.6776  -15.5910   28.5408 C   0  0  1  0  0  0  0  0  0  0  0  0
    9.4085  -16.1674   28.5769 O   0  0  0  0  0  0  0  0  0  0  0  0
   11.5575  -16.3947   27.6118 C   0  0  2  0  0  0  0  0  0  0  0  0
   10.8908  -16.6864   26.3587 N   0  0  0  0  0  0  0  0  0  0  0  0
   11.8574  -17.6810   28.2928 C   0  0  0  0  0  0  0  0  0  0  0  0
   12.5833  -17.7457   29.4748 O   0  0  0  0  0  0  0  0  0  0  0  0
   11.4619  -18.7920   27.8242 O   0  0  0  0  0  0  0  0  0  0  0  0
  2  1  1  1
  2 10  1  0
  3  2  1  0
  3  4  1  0
  4  9  2  0
  4  5  1  0
  5  6  2  0
  6  7  1  0
  8  7  2  0
  9  8  1  0
 10 11  2  0
 13 12  1  6
 13 15  1  0
 14 13  1  0
 15 17  1  0
 15 16  1  1
 16 10  1  0
 17 18  2  0
 20 19  1  6
 20 22  1  0
 21 20  1  0
 22 24  1  0
 22 23  1  6
 23 17  1  0
 24 26  2  0
 24 25  1  0
M  END
$$$$
