FVT.pdb
     RDKit          3D

 26 26  0  0  1  0  0  0  0  0999 V2000
    5.5730  -17.8221   25.8024 N   0  0  0  0  0  0  0  0  0  0  0  0
    6.2229  -16.5787   25.5052 C   0  0  1  0  0  0  0  0  0  0  0  0
    7.0804  -16.2116   26.7103 C   0  0  0  0  0  0  0  0  0  0  0  0
    7.2063  -14.7234   26.6979 C   0  0  0  0  0  0  0  0  0  0  0  0
    8.4347  -14.0959   26.6956 C   0  0  0  0  0  0  0  0  0  0  0  0
    8.5784  -12.7203   26.6841 C   0  0  0  0  0  0  0  0  0  0  0  0
    7.4242  -11.9304   26.6743 C   0  0  0  0  0  0  0  0  0  0  0  0
    6.1816  -12.5260   26.6763 C   0  0  0  0  0  0  0  0  0  0  0  0
    6.0880  -13.9023   26.6879 C   0  0  0  0  0  0  0  0  0  0  0  0
    7.0611  -16.6683   24.2708 C   0  0  0  0  0  0  0  0  0  0  0  0
    7.7634  -17.6755   23.9954 O   0  0  0  0  0  0  0  0  0  0  0  0
    7.8529  -13.1072   22.1833 C   0  0  0  0  0  0  0  0  0  0  0  0
    7.7241  -14.3697   21.3722 C   0  0  1  0  0  0  0  0  0  0  0  0
    8.5723  -14.3541   20.1436 C   0  0  0  0  0  0  0  0  0  0  0  0
    7.9515  -15.6116   22.1641 C   0  0  2  0  0  0  0  0  0  0  0  0
    7.0915  -15.5895   23.3455 N   0  0  0  0  0  0  0  0  0  0  0  0
    9.3712  -15.6260   22.6149 C   0  0  0  0  0  0  0  0  0  0  0  0
    9.8393  -14.6658   23.3037 O   0  0  0  0  0  0  0  0  0  0  0  0
   11.5949  -18.2168   24.6011 C   0  0  0  0  0  0  0  0  0  0  0  0
   12.0879  -18.0650   23.1794 C   0  0  1  0  0  0  0  0  0  0  0  0
   11.4589  -19.0442   22.4115 O   0  0  0  0  0  0  0  0  0  0  0  0
   11.6585  -16.7021   22.6880 C   0  0  2  0  0  0  0  0  0  0  0  0
   10.2596  -16.6833   22.3105 N   0  0  0  0  0  0  0  0  0  0  0  0
   12.4724  -16.3920   21.4840 C   0  0  0  0  0  0  0  0  0  0  0  0
   13.8401  -16.1610   21.5496 O   0  0  0  0  0  0  0  0  0  0  0  0
   11.9537  -16.3224   20.3280 O   0  0  0  0  0  0  0  0  0  0  0  0
  2  1  1  1
  2 10  1  0
  3  2  1  0
  3  4  1  0
  4  9  2  0
  4  5  1  0
  5  6  2  0
  6  7  1  0
  8  7  2  0
  9  8  1  0
 10 11  2  0
 13 12  1  1
 13 15  1  0
 14 13  1  0
 15 17  1  0
 15 16  1  1
 16 10  1  0
 17 18  2  0
 20 19  1  1
 20 22  1  0
 21 20  1  0
 22 24  1  0
 22 23  1  6
 23 17  1  0
 24 26  2  0
 24 25  1  0
M  END
$$$$
