FVT.pdb
     RDKit          3D

 26 26  0  0  1  0  0  0  0  0999 V2000
    5.5735  -17.9694   25.9058 N   0  0  0  0  0  0  0  0  0  0  0  0
    6.2196  -16.7045   25.7080 C   0  0  1  0  0  0  0  0  0  0  0  0
    6.9470  -16.3554   27.0008 C   0  0  0  0  0  0  0  0  0  0  0  0
    7.1669  -14.8784   26.9728 C   0  0  0  0  0  0  0  0  0  0  0  0
    6.1274  -13.9839   27.1206 C   0  0  0  0  0  0  0  0  0  0  0  0
    6.3043  -12.6123   27.0984 C   0  0  0  0  0  0  0  0  0  0  0  0
    7.5974  -12.1107   26.9179 C   0  0  0  0  0  0  0  0  0  0  0  0
    8.6579  -12.9775   26.7673 C   0  0  0  0  0  0  0  0  0  0  0  0
    8.4325  -14.3382   26.7962 C   0  0  0  0  0  0  0  0  0  0  0  0
    7.1758  -16.7399   24.5596 C   0  0  0  0  0  0  0  0  0  0  0  0
    7.9373  -17.7166   24.3365 O   0  0  0  0  0  0  0  0  0  0  0  0
    8.9058  -14.2751   20.5554 C   0  0  0  0  0  0  0  0  0  0  0  0
    7.9486  -14.4182   21.7094 C   0  0  1  0  0  0  0  0  0  0  0  0
    6.5193  -14.3405   21.2853 C   0  0  0  0  0  0  0  0  0  0  0  0
    8.1955  -15.6305   22.5404 C   0  0  2  0  0  0  0  0  0  0  0  0
    7.2565  -15.6420   23.6601 N   0  0  0  0  0  0  0  0  0  0  0  0
    9.5791  -15.5499   23.0865 C   0  0  0  0  0  0  0  0  0  0  0  0
    9.9663  -14.5139   23.7129 O   0  0  0  0  0  0  0  0  0  0  0  0
   11.8151  -17.7245   25.5096 C   0  0  0  0  0  0  0  0  0  0  0  0
   12.3322  -17.7829   24.0896 C   0  0  1  0  0  0  0  0  0  0  0  0
   11.7287  -18.8760   23.4691 O   0  0  0  0  0  0  0  0  0  0  0  0
   11.8961  -16.5165   23.3901 C   0  0  2  0  0  0  0  0  0  0  0  0
   10.5199  -16.5960   22.9436 N   0  0  0  0  0  0  0  0  0  0  0  0
   12.7664  -16.3508   22.1971 C   0  0  0  0  0  0  0  0  0  0  0  0
   14.1077  -16.0051   22.2966 O   0  0  0  0  0  0  0  0  0  0  0  0
   12.3235  -16.5183   21.0198 O   0  0  0  0  0  0  0  0  0  0  0  0
  2  1  1  1
  2 10  1  0
  3  2  1  0
  3  4  1  0
  4  9  2  0
  4  5  1  0
  5  6  2  0
  6  7  1  0
  8  7  2  0
  9  8  1  0
 10 11  2  0
 13 12  1  6
 13 15  1  0
 14 13  1  0
 15 17  1  0
 15 16  1  1
 16 10  1  0
 17 18  2  0
 20 19  1  1
 20 22  1  0
 21 20  1  0
 22 24  1  0
 22 23  1  6
 23 17  1  0
 24 26  2  0
 24 25  1  0
M  END
$$$$
