FVT.pdb
     RDKit          3D

 26 26  0  0  1  0  0  0  0  0999 V2000
    5.7105  -17.6160   25.6237 N   0  0  0  0  0  0  0  0  0  0  0  0
    6.3625  -16.3809   25.2975 C   0  0  1  0  0  0  0  0  0  0  0  0
    7.0842  -15.9001   26.5506 C   0  0  0  0  0  0  0  0  0  0  0  0
    6.8437  -14.4284   26.6346 C   0  0  0  0  0  0  0  0  0  0  0  0
    5.5706  -13.8980   26.6536 C   0  0  0  0  0  0  0  0  0  0  0  0
    5.3210  -12.5398   26.7309 C   0  0  0  0  0  0  0  0  0  0  0  0
    6.4107  -11.6651   26.7926 C   0  0  0  0  0  0  0  0  0  0  0  0
    7.6955  -12.1627   26.7756 C   0  0  0  0  0  0  0  0  0  0  0  0
    7.8952  -13.5255   26.6975 C   0  0  0  0  0  0  0  0  0  0  0  0
    7.3246  -16.5401   24.1647 C   0  0  0  0  0  0  0  0  0  0  0  0
    8.0322  -17.5693   24.0108 O   0  0  0  0  0  0  0  0  0  0  0  0
    6.7730  -14.2597   20.6386 C   0  0  0  0  0  0  0  0  0  0  0  0
    8.1750  -14.4698   21.1472 C   0  0  1  0  0  0  0  0  0  0  0  0
    8.7354  -13.2552   21.8102 C   0  0  0  0  0  0  0  0  0  0  0  0
    8.3181  -15.6700   22.0191 C   0  0  2  0  0  0  0  0  0  0  0  0
    7.4739  -15.5061   23.2007 N   0  0  0  0  0  0  0  0  0  0  0  0
    9.7373  -15.7599   22.4627 C   0  0  0  0  0  0  0  0  0  0  0  0
   10.2302  -14.8759   23.2315 O   0  0  0  0  0  0  0  0  0  0  0  0
   11.7862  -18.3544   24.4426 C   0  0  0  0  0  0  0  0  0  0  0  0
   12.2947  -18.2974   23.0194 C   0  0  1  0  0  0  0  0  0  0  0  0
   11.5880  -19.2482   22.2840 O   0  0  0  0  0  0  0  0  0  0  0  0
   11.9831  -16.9225   22.4756 C   0  0  2  0  0  0  0  0  0  0  0  0
   10.5982  -16.8086   22.0643 N   0  0  0  0  0  0  0  0  0  0  0  0
   12.8442  -16.7157   21.2823 C   0  0  0  0  0  0  0  0  0  0  0  0
   14.2266  -16.6176   21.3702 O   0  0  0  0  0  0  0  0  0  0  0  0
   12.3549  -16.6177   20.1155 O   0  0  0  0  0  0  0  0  0  0  0  0
  2  1  1  1
  2 10  1  0
  3  2  1  0
  3  4  1  0
  4  9  2  0
  4  5  1  0
  5  6  2  0
  6  7  1  0
  8  7  2  0
  9  8  1  0
 10 11  2  0
 13 12  1  1
 13 15  1  0
 14 13  1  0
 15 17  1  0
 15 16  1  1
 16 10  1  0
 17 18  2  0
 20 19  1  1
 20 22  1  0
 21 20  1  0
 22 24  1  0
 22 23  1  6
 23 17  1  0
 24 26  2  0
 24 25  1  0
M  END
$$$$
