FVT.pdb
     RDKit          3D

 26 26  0  0  1  0  0  0  0  0999 V2000
    5.6380  -17.5385   25.1106 N   0  0  0  0  0  0  0  0  0  0  0  0
    6.4178  -16.3876   24.7583 C   0  0  1  0  0  0  0  0  0  0  0  0
    7.4072  -16.1415   25.8909 C   0  0  0  0  0  0  0  0  0  0  0  0
    7.2696  -14.7015   26.2626 C   0  0  0  0  0  0  0  0  0  0  0  0
    6.0399  -14.1260   26.5061 C   0  0  0  0  0  0  0  0  0  0  0  0
    5.8855  -12.7957   26.8517 C   0  0  0  0  0  0  0  0  0  0  0  0
    7.0297  -11.9985   26.9589 C   0  0  0  0  0  0  0  0  0  0  0  0
    8.2733  -12.5427   26.7221 C   0  0  0  0  0  0  0  0  0  0  0  0
    8.3778  -13.8751   26.3800 C   0  0  0  0  0  0  0  0  0  0  0  0
    7.1383  -16.5772   23.4624 C   0  0  0  0  0  0  0  0  0  0  0  0
    7.5464  -17.7001   23.0673 O   0  0  0  0  0  0  0  0  0  0  0  0
    6.4868  -14.0670   20.1986 C   0  0  0  0  0  0  0  0  0  0  0  0
    7.9225  -14.3652   20.5426 C   0  0  1  0  0  0  0  0  0  0  0  0
    8.6111  -13.2105   21.1917 C   0  0  0  0  0  0  0  0  0  0  0  0
    8.0965  -15.6108   21.3421 C   0  0  2  0  0  0  0  0  0  0  0  0
    7.3915  -15.4651   22.6139 N   0  0  0  0  0  0  0  0  0  0  0  0
    9.5483  -15.7862   21.6256 C   0  0  0  0  0  0  0  0  0  0  0  0
   10.4059  -15.6733   20.6943 O   0  0  0  0  0  0  0  0  0  0  0  0
   11.7860  -14.4456   24.6333 C   0  0  0  0  0  0  0  0  0  0  0  0
   11.8285  -15.9569   24.5931 C   0  0  1  0  0  0  0  0  0  0  0  0
   10.8814  -16.4266   25.5023 O   0  0  0  0  0  0  0  0  0  0  0  0
   11.4323  -16.3901   23.2008 C   0  0  2  0  0  0  0  0  0  0  0  0
   10.0455  -16.0811   22.9162 N   0  0  0  0  0  0  0  0  0  0  0  0
   11.6070  -17.8642   23.1322 C   0  0  0  0  0  0  0  0  0  0  0  0
   12.8412  -18.4763   23.3069 O   0  0  0  0  0  0  0  0  0  0  0  0
   10.6296  -18.6421   22.9089 O   0  0  0  0  0  0  0  0  0  0  0  0
  2  1  1  1
  2 10  1  0
  3  2  1  0
  3  4  1  0
  4  9  2  0
  4  5  1  0
  5  6  2  0
  6  7  1  0
  8  7  2  0
  9  8  1  0
 10 11  2  0
 13 12  1  1
 13 15  1  0
 14 13  1  0
 15 17  1  0
 15 16  1  1
 16 10  1  0
 17 18  2  0
 20 19  1  6
 20 22  1  0
 21 20  1  0
 22 24  1  0
 22 23  1  1
 23 17  1  0
 24 26  2  0
 24 25  1  0
M  END
$$$$
