FVT.pdb
     RDKit          3D

 26 26  0  0  1  0  0  0  0  0999 V2000
    5.7563  -18.0052   25.5494 N   0  0  0  0  0  0  0  0  0  0  0  0
    6.2722  -16.6746   25.4072 C   0  0  1  0  0  0  0  0  0  0  0  0
    6.7425  -16.2172   26.7827 C   0  0  0  0  0  0  0  0  0  0  0  0
    6.7217  -14.7240   26.7581 C   0  0  0  0  0  0  0  0  0  0  0  0
    7.8822  -13.9787   26.7741 C   0  0  0  0  0  0  0  0  0  0  0  0
    7.8902  -12.5958   26.7518 C   0  0  0  0  0  0  0  0  0  0  0  0
    6.6644  -11.9234   26.7112 C   0  0  0  0  0  0  0  0  0  0  0  0
    5.4866  -12.6385   26.6943 C   0  0  0  0  0  0  0  0  0  0  0  0
    5.5285  -14.0172   26.7177 C   0  0  0  0  0  0  0  0  0  0  0  0
    7.3935  -16.6134   24.4207 C   0  0  0  0  0  0  0  0  0  0  0  0
    8.3150  -17.4696   24.3820 O   0  0  0  0  0  0  0  0  0  0  0  0
    6.7774  -14.3976   20.8626 C   0  0  0  0  0  0  0  0  0  0  0  0
    8.1502  -14.3982   21.4820 C   0  0  1  0  0  0  0  0  0  0  0  0
    8.4633  -13.1214   22.1897 C   0  0  0  0  0  0  0  0  0  0  0  0
    8.4060  -15.5743   22.3609 C   0  0  2  0  0  0  0  0  0  0  0  0
    7.4552  -15.5578   23.4705 N   0  0  0  0  0  0  0  0  0  0  0  0
    9.7822  -15.4521   22.9177 C   0  0  0  0  0  0  0  0  0  0  0  0
   10.0866  -14.4804   23.6784 O   0  0  0  0  0  0  0  0  0  0  0  0
   11.7112  -17.3815   25.3864 C   0  0  0  0  0  0  0  0  0  0  0  0
   12.4220  -17.5569   24.0631 C   0  0  1  0  0  0  0  0  0  0  0  0
   11.8765  -18.6789   23.4404 O   0  0  0  0  0  0  0  0  0  0  0  0
   12.1320  -16.3362   23.2211 C   0  0  2  0  0  0  0  0  0  0  0  0
   10.8057  -16.3874   22.6396 N   0  0  0  0  0  0  0  0  0  0  0  0
   13.1266  -16.3167   22.1172 C   0  0  0  0  0  0  0  0  0  0  0  0
   14.4892  -16.1777   22.3455 O   0  0  0  0  0  0  0  0  0  0  0  0
   12.7769  -16.4268   20.9022 O   0  0  0  0  0  0  0  0  0  0  0  0
  2  1  1  1
  2 10  1  0
  3  2  1  0
  3  4  1  0
  4  9  2  0
  4  5  1  0
  5  6  2  0
  6  7  1  0
  8  7  2  0
  9  8  1  0
 10 11  2  0
 13 12  1  1
 13 15  1  0
 14 13  1  0
 15 17  1  0
 15 16  1  1
 16 10  1  0
 17 18  2  0
 20 19  1  1
 20 22  1  0
 21 20  1  0
 22 24  1  0
 22 23  1  6
 23 17  1  0
 24 26  2  0
 24 25  1  0
M  END
$$$$
