FVT.pdb
     RDKit          3D

 26 26  0  0  1  0  0  0  0  0999 V2000
    6.2828  -16.9679   25.5363 N   0  0  0  0  0  0  0  0  0  0  0  0
    6.7576  -15.8355   24.7953 C   0  0  1  0  0  0  0  0  0  0  0  0
    7.9025  -15.2174   25.5886 C   0  0  0  0  0  0  0  0  0  0  0  0
    7.3660  -13.9592   26.1885 C   0  0  0  0  0  0  0  0  0  0  0  0
    7.7879  -13.5010   27.4192 C   0  0  0  0  0  0  0  0  0  0  0  0
    7.3072  -12.3396   27.9964 C   0  0  0  0  0  0  0  0  0  0  0  0
    6.3491  -11.5967   27.2990 C   0  0  0  0  0  0  0  0  0  0  0  0
    5.9063  -12.0269   26.0671 C   0  0  0  0  0  0  0  0  0  0  0  0
    6.4150  -13.1920   25.5313 C   0  0  0  0  0  0  0  0  0  0  0  0
    7.2138  -16.2175   23.4240 C   0  0  0  0  0  0  0  0  0  0  0  0
    7.2988  -17.4136   23.0424 O   0  0  0  0  0  0  0  0  0  0  0  0
    6.4503  -13.8332   20.1013 C   0  0  0  0  0  0  0  0  0  0  0  0
    7.8636  -14.3264   20.2678 C   0  0  1  0  0  0  0  0  0  0  0  0
    8.7942  -13.2591   20.7409 C   0  0  0  0  0  0  0  0  0  0  0  0
    7.9720  -15.5463   21.1170 C   0  0  2  0  0  0  0  0  0  0  0  0
    7.5753  -15.2144   22.4838 N   0  0  0  0  0  0  0  0  0  0  0  0
    9.3967  -15.9810   21.1323 C   0  0  0  0  0  0  0  0  0  0  0  0
   10.0336  -16.1433   20.0444 O   0  0  0  0  0  0  0  0  0  0  0  0
   12.3205  -14.9399   23.8341 C   0  0  0  0  0  0  0  0  0  0  0  0
   12.1164  -16.4339   23.7176 C   0  0  1  0  0  0  0  0  0  0  0  0
   11.2355  -16.8161   24.7286 O   0  0  0  0  0  0  0  0  0  0  0  0
   11.4755  -16.7063   22.3766 C   0  0  2  0  0  0  0  0  0  0  0  0
   10.1069  -16.2324   22.3291 N   0  0  0  0  0  0  0  0  0  0  0  0
   11.4676  -18.1797   22.1837 C   0  0  0  0  0  0  0  0  0  0  0  0
   12.6354  -18.9287   22.1240 O   0  0  0  0  0  0  0  0  0  0  0  0
   10.3850  -18.8309   22.0632 O   0  0  0  0  0  0  0  0  0  0  0  0
  2  1  1  1
  2 10  1  0
  3  2  1  0
  3  4  1  0
  4  9  2  0
  4  5  1  0
  5  6  2  0
  6  7  1  0
  8  7  2  0
  9  8  1  0
 10 11  2  0
 13 12  1  1
 13 15  1  0
 14 13  1  0
 15 17  1  0
 15 16  1  1
 16 10  1  0
 17 18  2  0
 20 19  1  1
 20 22  1  0
 21 20  1  0
 22 24  1  0
 22 23  1  1
 23 17  1  0
 24 26  2  0
 24 25  1  0
M  END
$$$$
