FVT.pdb
     RDKit          3D

 26 26  0  0  1  0  0  0  0  0999 V2000
    9.7087  -15.4098   22.1098 N   0  0  0  0  0  0  0  0  0  0  0  0
    9.1799  -14.9181   23.3489 C   0  0  1  0  0  0  0  0  0  0  0  0
    7.6769  -15.1693   23.3363 C   0  0  0  0  0  0  0  0  0  0  0  0
    7.0964  -14.2938   24.3980 C   0  0  0  0  0  0  0  0  0  0  0  0
    6.4838  -14.8155   25.5184 C   0  0  0  0  0  0  0  0  0  0  0  0
    5.9386  -14.0270   26.5155 C   0  0  0  0  0  0  0  0  0  0  0  0
    6.0127  -12.6369   26.3802 C   0  0  0  0  0  0  0  0  0  0  0  0
    6.6182  -12.0836   25.2729 C   0  0  0  0  0  0  0  0  0  0  0  0
    7.1479  -12.9106   24.3040 C   0  0  0  0  0  0  0  0  0  0  0  0
    9.8144  -15.5814   24.5287 C   0  0  0  0  0  0  0  0  0  0  0  0
   10.2767  -16.7510   24.4861 O   0  0  0  0  0  0  0  0  0  0  0  0
   11.0427  -13.1273   27.7812 C   0  0  0  0  0  0  0  0  0  0  0  0
   10.5447  -14.5212   28.0596 C   0  0  1  0  0  0  0  0  0  0  0  0
    9.1567  -14.5379   28.6094 C   0  0  0  0  0  0  0  0  0  0  0  0
   10.6701  -15.4417   26.8942 C   0  0  2  0  0  0  0  0  0  0  0  0
    9.9176  -14.8929   25.7681 N   0  0  0  0  0  0  0  0  0  0  0  0
   10.0707  -16.7534   27.2670 C   0  0  0  0  0  0  0  0  0  0  0  0
    8.8414  -16.8356   27.5794 O   0  0  0  0  0  0  0  0  0  0  0  0
   10.2511  -20.2557   25.4859 C   0  0  0  0  0  0  0  0  0  0  0  0
   10.8357  -20.3697   26.8760 C   0  0  1  0  0  0  0  0  0  0  0  0
   12.2166  -20.2121   26.7636 O   0  0  0  0  0  0  0  0  0  0  0  0
   10.2761  -19.2359   27.7035 C   0  0  2  0  0  0  0  0  0  0  0  0
   10.8161  -17.9549   27.2945 N   0  0  0  0  0  0  0  0  0  0  0  0
   10.6737  -19.4826   29.1139 C   0  0  0  0  0  0  0  0  0  0  0  0
   10.2088  -20.5723   29.8384 O   0  0  0  0  0  0  0  0  0  0  0  0
   11.4634  -18.7037   29.7304 O   0  0  0  0  0  0  0  0  0  0  0  0
  2  1  1  6
  2 10  1  0
  3  2  1  0
  3  4  1  0
  4  9  2  0
  4  5  1  0
  5  6  2  0
  6  7  1  0
  8  7  2  0
  9  8  1  0
 10 11  2  0
 13 12  1  6
 13 15  1  0
 14 13  1  0
 15 17  1  0
 15 16  1  6
 16 10  1  0
 17 18  2  0
 20 19  1  6
 20 22  1  0
 21 20  1  0
 22 24  1  0
 22 23  1  6
 23 17  1  0
 24 26  2  0
 24 25  1  0
M  END
$$$$
