FVT.pdb
     RDKit          3D

 26 26  0  0  1  0  0  0  0  0999 V2000
    7.6188  -15.2709   20.3050 N   0  0  0  0  0  0  0  0  0  0  0  0
    7.8815  -14.8773   21.6588 C   0  0  1  0  0  0  0  0  0  0  0  0
    6.5640  -14.4048   22.2615 C   0  0  0  0  0  0  0  0  0  0  0  0
    6.8867  -13.8942   23.6275 C   0  0  0  0  0  0  0  0  0  0  0  0
    7.5971  -12.7277   23.8204 C   0  0  0  0  0  0  0  0  0  0  0  0
    7.9086  -12.2336   25.0741 C   0  0  0  0  0  0  0  0  0  0  0  0
    7.4832  -12.9507   26.1970 C   0  0  0  0  0  0  0  0  0  0  0  0
    6.7714  -14.1200   26.0388 C   0  0  0  0  0  0  0  0  0  0  0  0
    6.4842  -14.5737   24.7681 C   0  0  0  0  0  0  0  0  0  0  0  0
    8.4565  -15.9977   22.4641 C   0  0  0  0  0  0  0  0  0  0  0  0
    7.8365  -17.0716   22.6780 O   0  0  0  0  0  0  0  0  0  0  0  0
   12.4188  -15.5215   23.9476 C   0  0  0  0  0  0  0  0  0  0  0  0
   11.9029  -16.8608   23.4911 C   0  0  1  0  0  0  0  0  0  0  0  0
   12.6357  -18.0030   24.1136 C   0  0  0  0  0  0  0  0  0  0  0  0
   10.4297  -17.0177   23.6532 C   0  0  2  0  0  0  0  0  0  0  0  0
    9.7562  -15.8812   23.0282 N   0  0  0  0  0  0  0  0  0  0  0  0
   10.1153  -17.0092   25.1092 C   0  0  0  0  0  0  0  0  0  0  0  0
   10.1862  -15.9310   25.7784 O   0  0  0  0  0  0  0  0  0  0  0  0
    7.0437  -18.1535   27.0769 C   0  0  0  0  0  0  0  0  0  0  0  0
    8.2158  -18.9729   27.5689 C   0  0  1  0  0  0  0  0  0  0  0  0
    8.2137  -20.1738   26.8604 O   0  0  0  0  0  0  0  0  0  0  0  0
    9.4784  -18.2100   27.2418 C   0  0  2  0  0  0  0  0  0  0  0  0
    9.7288  -18.1721   25.8150 N   0  0  0  0  0  0  0  0  0  0  0  0
   10.6057  -18.9236   27.8960 C   0  0  0  0  0  0  0  0  0  0  0  0
   10.6851  -19.0855   29.2729 O   0  0  0  0  0  0  0  0  0  0  0  0
   11.5586  -19.4239   27.2236 O   0  0  0  0  0  0  0  0  0  0  0  0
  2  1  1  6
  2 10  1  0
  3  2  1  0
  3  4  1  0
  4  9  2  0
  4  5  1  0
  5  6  2  0
  6  7  1  0
  8  7  2  0
  9  8  1  0
 10 11  2  0
 13 12  1  1
 13 15  1  0
 14 13  1  0
 15 17  1  0
 15 16  1  6
 16 10  1  0
 17 18  2  0
 20 19  1  6
 20 22  1  0
 21 20  1  0
 22 24  1  0
 22 23  1  6
 23 17  1  0
 24 26  2  0
 24 25  1  0
M  END
$$$$
