KQH.pdb
     RDKit          3D

 29 29  0  0  1  0  0  0  0  0999 V2000
   27.7285  -20.4827  -15.1663 N   0  0  0  0  0  0  0  0  0  0  0  0
   27.1405  -21.4059  -14.2138 C   0  0  1  0  0  0  0  0  0  0  0  0
   27.3672  -20.9456  -12.8164 C   0  0  0  0  0  0  0  0  0  0  0  0
   28.7668  -20.9308  -12.3314 C   0  0  0  0  0  0  0  0  0  0  0  0
   28.9973  -20.5351  -10.9223 C   0  0  0  0  0  0  0  0  0  0  0  0
   30.5198  -20.5675  -10.7056 C   0  0  0  0  0  0  0  0  0  0  0  0
   30.8887  -21.9757  -10.6693 N   0  0  0  0  0  0  0  0  0  0  0  0
   25.6775  -21.4342  -14.4744 C   0  0  0  0  0  0  0  0  0  0  0  0
   25.0948  -20.4061  -14.9329 O   0  0  0  0  0  0  0  0  0  0  0  0
   22.3198  -26.7618  -14.3330 N   0  0  0  0  0  0  0  0  0  0  0  0
   21.3068  -25.8089  -14.5874 C   0  0  0  0  0  0  0  0  0  0  0  0
   20.1217  -26.1859  -14.7512 O   0  0  0  0  0  0  0  0  0  0  0  0
   21.6285  -24.3661  -14.6632 C   0  0  0  0  0  0  0  0  0  0  0  0
   23.0753  -24.1728  -14.3940 C   0  0  0  0  0  0  0  0  0  0  0  0
   23.5204  -22.7317  -14.5026 C   0  0  2  0  0  0  0  0  0  0  0  0
   24.9123  -22.6000  -14.2179 N   0  0  0  0  0  0  0  0  0  0  0  0
   22.6729  -21.8820  -13.6160 C   0  0  0  0  0  0  0  0  0  0  0  0
   23.1632  -21.3239  -12.5817 O   0  0  0  0  0  0  0  0  0  0  0  0
   21.3016  -21.6477  -13.8623 N   0  0  0  0  0  0  0  0  0  0  0  0
   20.6969  -20.3171  -13.8156 C   0  0  1  0  0  0  0  0  0  0  0  0
   21.4700  -19.3435  -14.6710 C   0  0  0  0  0  0  0  0  0  0  0  0
   20.8679  -17.9979  -14.7002 C   0  0  0  0  0  0  0  0  0  0  0  0
   19.7092  -17.6128  -14.0626 C   0  0  0  0  0  0  0  0  0  0  0  0
   19.4611  -16.3165  -14.3144 N   0  0  0  0  0  0  0  0  0  0  0  0
   20.4455  -15.8589  -15.1070 C   0  0  0  0  0  0  0  0  0  0  0  0
   21.3034  -16.8915  -15.3399 N   0  0  0  0  0  0  0  0  0  0  0  0
   19.2542  -20.3683  -14.1229 C   0  0  0  0  0  0  0  0  0  0  0  0
   18.7801  -20.8863  -15.1555 O   0  0  0  0  0  0  0  0  0  0  0  0
   18.3787  -19.8056  -13.2051 O   0  0  0  0  0  0  0  0  0  0  0  0
  2  1  1  6
  3  2  1  0
  3  4  1  0
  5  6  1  0
  5  4  1  0
  7  6  1  0
  8  9  2  0
  8  2  1  0
 10 11  1  0
 11 13  1  0
 12 11  2  0
 13 14  1  0
 15 14  1  1
 15 17  1  0
 15 16  1  0
 16  8  1  0
 17 19  1  0
 18 17  2  0
 19 20  1  0
 20 27  1  0
 21 22  1  0
 20 21  1  6
 22 26  1  0
 23 24  1  0
 23 22  2  0
 24 25  1  0
 25 26  2  0
 27 28  2  0
 27 29  1  0
M  END
$$$$
