KQH.pdb
     RDKit          3D

 29 29  0  0  1  0  0  0  0  0999 V2000
   22.6513  -20.7136  -20.5720 N   0  0  0  0  0  0  0  0  0  0  0  0
   22.1775  -20.3940  -19.2383 C   0  0  1  0  0  0  0  0  0  0  0  0
   21.0045  -19.4794  -19.2948 C   0  0  0  0  0  0  0  0  0  0  0  0
   21.1825  -18.2006  -20.0209 C   0  0  0  0  0  0  0  0  0  0  0  0
   20.0661  -17.7417  -20.8800 C   0  0  0  0  0  0  0  0  0  0  0  0
   20.4493  -16.3373  -21.3770 C   0  0  0  0  0  0  0  0  0  0  0  0
   20.2296  -15.4407  -20.2508 N   0  0  0  0  0  0  0  0  0  0  0  0
   21.7561  -21.6703  -18.6036 C   0  0  0  0  0  0  0  0  0  0  0  0
   21.1019  -22.5256  -19.2724 O   0  0  0  0  0  0  0  0  0  0  0  0
   24.8904  -24.4511  -14.0979 N   0  0  0  0  0  0  0  0  0  0  0  0
   23.8313  -25.3654  -14.3004 C   0  0  0  0  0  0  0  0  0  0  0  0
   23.8696  -26.4957  -13.7577 O   0  0  0  0  0  0  0  0  0  0  0  0
   22.6731  -25.0043  -15.1483 C   0  0  0  0  0  0  0  0  0  0  0  0
   22.9190  -23.6813  -15.7747 C   0  0  0  0  0  0  0  0  0  0  0  0
   21.7470  -23.1704  -16.5820 C   0  0  2  0  0  0  0  0  0  0  0  0
   22.0744  -21.9535  -17.2513 N   0  0  0  0  0  0  0  0  0  0  0  0
   20.5555  -23.0318  -15.6946 C   0  0  0  0  0  0  0  0  0  0  0  0
   20.3771  -21.9802  -14.9990 O   0  0  0  0  0  0  0  0  0  0  0  0
   19.5704  -24.0371  -15.5724 N   0  0  0  0  0  0  0  0  0  0  0  0
   18.4399  -23.9407  -14.6499 C   0  0  1  0  0  0  0  0  0  0  0  0
   17.1331  -24.1485  -15.3754 C   0  0  0  0  0  0  0  0  0  0  0  0
   16.6719  -22.9431  -16.0884 C   0  0  0  0  0  0  0  0  0  0  0  0
   17.2903  -21.7122  -16.0868 C   0  0  0  0  0  0  0  0  0  0  0  0
   16.5879  -20.8495  -16.8401 N   0  0  0  0  0  0  0  0  0  0  0  0
   15.5227  -21.5079  -17.3288 C   0  0  0  0  0  0  0  0  0  0  0  0
   15.5790  -22.7880  -16.8659 N   0  0  0  0  0  0  0  0  0  0  0  0
   18.6209  -24.8220  -13.4798 C   0  0  0  0  0  0  0  0  0  0  0  0
   18.8784  -26.0413  -13.5595 O   0  0  0  0  0  0  0  0  0  0  0  0
   18.4962  -24.2548  -12.2196 O   0  0  0  0  0  0  0  0  0  0  0  0
  2  1  1  6
  3  2  1  0
  3  4  1  0
  5  6  1  0
  5  4  1  0
  7  6  1  0
  8  9  2  0
  8  2  1  0
 10 11  1  0
 11 13  1  0
 12 11  2  0
 13 14  1  0
 15 14  1  1
 15 17  1  0
 15 16  1  0
 16  8  1  0
 17 19  1  0
 18 17  2  0
 19 20  1  0
 20 27  1  0
 21 22  1  0
 20 21  1  6
 22 26  1  0
 23 24  1  0
 23 22  2  0
 24 25  1  0
 25 26  2  0
 27 28  2  0
 27 29  1  0
M  END
$$$$
