KQH.pdb
     RDKit          3D

 29 29  0  0  1  0  0  0  0  0999 V2000
   18.0404  -14.3450  -18.2045 N   0  0  0  0  0  0  0  0  0  0  0  0
   19.3649  -13.7565  -18.1351 C   0  0  1  0  0  0  0  0  0  0  0  0
   20.0842  -13.9095  -19.4294 C   0  0  0  0  0  0  0  0  0  0  0  0
   19.8134  -15.1399  -20.2085 C   0  0  0  0  0  0  0  0  0  0  0  0
   20.6557  -16.3259  -19.9270 C   0  0  0  0  0  0  0  0  0  0  0  0
   20.1754  -17.4353  -20.8781 C   0  0  0  0  0  0  0  0  0  0  0  0
   20.9993  -18.5993  -20.5832 N   0  0  0  0  0  0  0  0  0  0  0  0
   19.1883  -12.3072  -17.8569 C   0  0  0  0  0  0  0  0  0  0  0  0
   19.7460  -11.4458  -18.6011 O   0  0  0  0  0  0  0  0  0  0  0  0
   14.9275   -9.9314  -13.8451 N   0  0  0  0  0  0  0  0  0  0  0  0
   14.6566  -10.4769  -15.1210 C   0  0  0  0  0  0  0  0  0  0  0  0
   13.4767  -10.7547  -15.4437 O   0  0  0  0  0  0  0  0  0  0  0  0
   15.7522  -10.7254  -16.0846 C   0  0  0  0  0  0  0  0  0  0  0  0
   17.0434  -10.3265  -15.4707 C   0  0  0  0  0  0  0  0  0  0  0  0
   18.2276  -10.4964  -16.3957 C   0  0  2  0  0  0  0  0  0  0  0  0
   18.4004  -11.8637  -16.7647 N   0  0  0  0  0  0  0  0  0  0  0  0
   19.4451   -9.9192  -15.7548 C   0  0  0  0  0  0  0  0  0  0  0  0
   20.3854  -10.6717  -15.3411 O   0  0  0  0  0  0  0  0  0  0  0  0
   19.6283   -8.5305  -15.5701 N   0  0  0  0  0  0  0  0  0  0  0  0
   20.8606   -7.9505  -15.0377 C   0  0  1  0  0  0  0  0  0  0  0  0
   22.0361   -8.2726  -15.9275 C   0  0  0  0  0  0  0  0  0  0  0  0
   22.6174   -9.6001  -15.6561 C   0  0  0  0  0  0  0  0  0  0  0  0
   22.2036  -10.4846  -14.6845 C   0  0  0  0  0  0  0  0  0  0  0  0
   22.9647  -11.5913  -14.7232 N   0  0  0  0  0  0  0  0  0  0  0  0
   23.8655  -11.4328  -15.7082 C   0  0  0  0  0  0  0  0  0  0  0  0
   23.6486  -10.2132  -16.2755 N   0  0  0  0  0  0  0  0  0  0  0  0
   20.7016   -6.5106  -14.7549 C   0  0  0  0  0  0  0  0  0  0  0  0
   19.7398   -5.8238  -15.1581 O   0  0  0  0  0  0  0  0  0  0  0  0
   21.6830   -5.8902  -13.9952 O   0  0  0  0  0  0  0  0  0  0  0  0
  2  1  1  6
  3  2  1  0
  3  4  1  0
  5  6  1  0
  5  4  1  0
  7  6  1  0
  8  9  2  0
  8  2  1  0
 10 11  1  0
 11 13  1  0
 12 11  2  0
 13 14  1  0
 15 14  1  1
 15 17  1  0
 15 16  1  0
 16  8  1  0
 17 19  1  0
 18 17  2  0
 19 20  1  0
 20 27  1  0
 21 22  1  0
 20 21  1  6
 22 26  1  0
 23 24  1  0
 23 22  2  0
 24 25  1  0
 25 26  2  0
 27 28  2  0
 27 29  1  0
M  END
$$$$
