KQH.pdb
     RDKit          3D

 29 29  0  0  1  0  0  0  0  0999 V2000
   25.4520  -23.3200  -11.8197 N   0  0  0  0  0  0  0  0  0  0  0  0
   25.5861  -21.8964  -12.0666 C   0  0  1  0  0  0  0  0  0  0  0  0
   27.0133  -21.5220  -12.2632 C   0  0  0  0  0  0  0  0  0  0  0  0
   27.9586  -21.8810  -11.1807 C   0  0  0  0  0  0  0  0  0  0  0  0
   29.3343  -21.3378  -11.2670 C   0  0  0  0  0  0  0  0  0  0  0  0
   30.0953  -21.8870  -10.0483 C   0  0  0  0  0  0  0  0  0  0  0  0
   31.4736  -21.4436  -10.2043 N   0  0  0  0  0  0  0  0  0  0  0  0
   24.8382  -21.5942  -13.3151 C   0  0  0  0  0  0  0  0  0  0  0  0
   25.0431  -22.2825  -14.3597 O   0  0  0  0  0  0  0  0  0  0  0  0
   21.0041  -23.1805  -13.6092 N   0  0  0  0  0  0  0  0  0  0  0  0
   20.8212  -22.1186  -12.6940 C   0  0  0  0  0  0  0  0  0  0  0  0
   20.3560  -22.3511  -11.5525 O   0  0  0  0  0  0  0  0  0  0  0  0
   21.1730  -20.7302  -13.0675 C   0  0  0  0  0  0  0  0  0  0  0  0
   21.7279  -20.7197  -14.4441 C   0  0  0  0  0  0  0  0  0  0  0  0
   23.1388  -20.1810  -14.5202 C   0  0  2  0  0  0  0  0  0  0  0  0
   23.8903  -20.5408  -13.3619 N   0  0  0  0  0  0  0  0  0  0  0  0
   23.0960  -18.7055  -14.7380 C   0  0  0  0  0  0  0  0  0  0  0  0
   22.9022  -17.9064  -13.7656 O   0  0  0  0  0  0  0  0  0  0  0  0
   23.2640  -18.1138  -16.0098 N   0  0  0  0  0  0  0  0  0  0  0  0
   23.1854  -16.6714  -16.2372 C   0  0  1  0  0  0  0  0  0  0  0  0
   24.2007  -16.2315  -17.2634 C   0  0  0  0  0  0  0  0  0  0  0  0
   25.5924  -16.4324  -16.8199 C   0  0  0  0  0  0  0  0  0  0  0  0
   25.9970  -16.7955  -15.5542 C   0  0  0  0  0  0  0  0  0  0  0  0
   27.3372  -16.8805  -15.5122 N   0  0  0  0  0  0  0  0  0  0  0  0
   27.8040  -16.5767  -16.7356 C   0  0  0  0  0  0  0  0  0  0  0  0
   26.7325  -16.3035  -17.5316 N   0  0  0  0  0  0  0  0  0  0  0  0
   21.8049  -16.2471  -16.5417 C   0  0  0  0  0  0  0  0  0  0  0  0
   20.8438  -17.0357  -16.6591 O   0  0  0  0  0  0  0  0  0  0  0  0
   21.5686  -14.8897  -16.7058 O   0  0  0  0  0  0  0  0  0  0  0  0
  2  1  1  6
  3  2  1  0
  3  4  1  0
  5  6  1  0
  5  4  1  0
  7  6  1  0
  8  9  2  0
  8  2  1  0
 10 11  1  0
 11 13  1  0
 12 11  2  0
 13 14  1  0
 15 14  1  1
 15 17  1  0
 15 16  1  0
 16  8  1  0
 17 19  1  0
 18 17  2  0
 19 20  1  0
 20 27  1  0
 21 22  1  0
 20 21  1  6
 22 26  1  0
 23 24  1  0
 23 22  2  0
 24 25  1  0
 25 26  2  0
 27 28  2  0
 27 29  1  0
M  END
$$$$
