KQH.pdb
     RDKit          3D

 29 29  0  0  1  0  0  0  0  0999 V2000
   20.9621  -11.4790  -19.4188 N   0  0  0  0  0  0  0  0  0  0  0  0
   20.0852  -11.3460  -18.2704 C   0  0  1  0  0  0  0  0  0  0  0  0
   19.6518  -12.6806  -17.7737 C   0  0  0  0  0  0  0  0  0  0  0  0
   20.1817  -13.8676  -18.4841 C   0  0  0  0  0  0  0  0  0  0  0  0
   19.7217  -15.1995  -18.0262 C   0  0  0  0  0  0  0  0  0  0  0  0
   20.4164  -16.2330  -18.9292 C   0  0  0  0  0  0  0  0  0  0  0  0
   19.9821  -17.5381  -18.4508 N   0  0  0  0  0  0  0  0  0  0  0  0
   20.8625  -10.6688  -17.1996 C   0  0  0  0  0  0  0  0  0  0  0  0
   20.3429  -10.4853  -16.0579 O   0  0  0  0  0  0  0  0  0  0  0  0
   27.1221  -10.3690  -16.6275 N   0  0  0  0  0  0  0  0  0  0  0  0
   26.3839  -11.0756  -15.6505 C   0  0  0  0  0  0  0  0  0  0  0  0
   26.9759  -11.8450  -14.8560 O   0  0  0  0  0  0  0  0  0  0  0  0
   24.9154  -10.9184  -15.5529 C   0  0  0  0  0  0  0  0  0  0  0  0
   24.4533   -9.9777  -16.6040 C   0  0  0  0  0  0  0  0  0  0  0  0
   23.0037   -9.5740  -16.4553 C   0  0  2  0  0  0  0  0  0  0  0  0
   22.1870  -10.2193  -17.4313 N   0  0  0  0  0  0  0  0  0  0  0  0
   22.8940   -8.0870  -16.5112 C   0  0  0  0  0  0  0  0  0  0  0  0
   22.8571   -7.4756  -17.6276 O   0  0  0  0  0  0  0  0  0  0  0  0
   22.8255   -7.2800  -15.3536 N   0  0  0  0  0  0  0  0  0  0  0  0
   22.4579   -5.8650  -15.3861 C   0  0  1  0  0  0  0  0  0  0  0  0
   21.1488   -5.6648  -16.1097 C   0  0  0  0  0  0  0  0  0  0  0  0
   21.3242   -5.2653  -17.5181 C   0  0  0  0  0  0  0  0  0  0  0  0
   22.0499   -4.1859  -17.9717 C   0  0  0  0  0  0  0  0  0  0  0  0
   21.9853   -4.1256  -19.3124 N   0  0  0  0  0  0  0  0  0  0  0  0
   21.2264   -5.1531  -19.7310 C   0  0  0  0  0  0  0  0  0  0  0  0
   20.8247   -5.8470  -18.6294 N   0  0  0  0  0  0  0  0  0  0  0  0
   22.4932   -5.2667  -14.0374 C   0  0  0  0  0  0  0  0  0  0  0  0
   21.9217   -5.7587  -13.0420 O   0  0  0  0  0  0  0  0  0  0  0  0
   23.2059   -4.0875  -13.8732 O   0  0  0  0  0  0  0  0  0  0  0  0
  2  1  1  6
  3  2  1  0
  3  4  1  0
  5  6  1  0
  5  4  1  0
  7  6  1  0
  8  9  2  0
  8  2  1  0
 10 11  1  0
 11 13  1  0
 12 11  2  0
 13 14  1  0
 15 14  1  6
 15 17  1  0
 15 16  1  0
 16  8  1  0
 17 19  1  0
 18 17  2  0
 19 20  1  0
 20 27  1  0
 21 22  1  0
 20 21  1  1
 22 26  1  0
 23 24  1  0
 23 22  2  0
 24 25  1  0
 25 26  2  0
 27 28  2  0
 27 29  1  0
M  END
$$$$
