KQH.pdb
     RDKit          3D

 29 29  0  0  1  0  0  0  0  0999 V2000
   29.7655  -26.0678  -17.6947 N   0  0  0  0  0  0  0  0  0  0  0  0
   28.4881  -25.9011  -17.0271 C   0  0  1  0  0  0  0  0  0  0  0  0
   27.8724  -24.5912  -17.3747 C   0  0  0  0  0  0  0  0  0  0  0  0
   28.6955  -23.3801  -17.1506 C   0  0  0  0  0  0  0  0  0  0  0  0
   28.1424  -22.0839  -17.6080 C   0  0  0  0  0  0  0  0  0  0  0  0
   29.2388  -21.0332  -17.3634 C   0  0  0  0  0  0  0  0  0  0  0  0
   28.6474  -19.7492  -17.7126 N   0  0  0  0  0  0  0  0  0  0  0  0
   27.5958  -26.9888  -17.5068 C   0  0  0  0  0  0  0  0  0  0  0  0
   27.7944  -27.5181  -18.6414 O   0  0  0  0  0  0  0  0  0  0  0  0
   27.7693  -32.2682  -14.7540 N   0  0  0  0  0  0  0  0  0  0  0  0
   27.0756  -31.6513  -15.8204 C   0  0  0  0  0  0  0  0  0  0  0  0
   26.4117  -32.3518  -16.6216 O   0  0  0  0  0  0  0  0  0  0  0  0
   27.1232  -30.1834  -16.0040 C   0  0  0  0  0  0  0  0  0  0  0  0
   26.3520  -29.8170  -17.2181 C   0  0  0  0  0  0  0  0  0  0  0  0
   25.6237  -28.4977  -17.0931 C   0  0  2  0  0  0  0  0  0  0  0  0
   26.5160  -27.4513  -16.7129 N   0  0  0  0  0  0  0  0  0  0  0  0
   24.4823  -28.6485  -16.1441 C   0  0  0  0  0  0  0  0  0  0  0  0
   24.6718  -28.6286  -14.8850 O   0  0  0  0  0  0  0  0  0  0  0  0
   23.1470  -28.8194  -16.5730 N   0  0  0  0  0  0  0  0  0  0  0  0
   21.9918  -28.4347  -15.7631 C   0  0  1  0  0  0  0  0  0  0  0  0
   22.1603  -27.0399  -15.2123 C   0  0  0  0  0  0  0  0  0  0  0  0
   20.9909  -26.5796  -14.4412 C   0  0  0  0  0  0  0  0  0  0  0  0
   19.8090  -27.2665  -14.2710 C   0  0  0  0  0  0  0  0  0  0  0  0
   18.9673  -26.5423  -13.5144 N   0  0  0  0  0  0  0  0  0  0  0  0
   19.5908  -25.3955  -13.1935 C   0  0  0  0  0  0  0  0  0  0  0  0
   20.8283  -25.4236  -13.7629 N   0  0  0  0  0  0  0  0  0  0  0  0
   20.7267  -28.6396  -16.4952 C   0  0  0  0  0  0  0  0  0  0  0  0
   20.6612  -28.8786  -17.7192 O   0  0  0  0  0  0  0  0  0  0  0  0
   19.5439  -28.5607  -15.7740 O   0  0  0  0  0  0  0  0  0  0  0  0
  2  1  1  6
  3  2  1  0
  3  4  1  0
  5  6  1  0
  5  4  1  0
  7  6  1  0
  8  9  2  0
  8  2  1  0
 10 11  1  0
 11 13  1  0
 12 11  2  0
 13 14  1  0
 15 14  1  1
 15 17  1  0
 15 16  1  0
 16  8  1  0
 17 19  1  0
 18 17  2  0
 19 20  1  0
 20 27  1  0
 21 22  1  0
 20 21  1  6
 22 26  1  0
 23 24  1  0
 23 22  2  0
 24 25  1  0
 25 26  2  0
 27 28  2  0
 27 29  1  0
M  END
$$$$
