KQH.pdb
     RDKit          3D

 29 29  0  0  1  0  0  0  0  0999 V2000
   25.8033  -19.0642  -18.5539 N   0  0  0  0  0  0  0  0  0  0  0  0
   25.5104  -18.4191  -17.2877 C   0  0  1  0  0  0  0  0  0  0  0  0
   24.5109  -17.3300  -17.4633 C   0  0  0  0  0  0  0  0  0  0  0  0
   24.3616  -16.7669  -18.8253 C   0  0  0  0  0  0  0  0  0  0  0  0
   23.4117  -15.6433  -18.9996 C   0  0  0  0  0  0  0  0  0  0  0  0
   23.4739  -15.2483  -20.4849 C   0  0  0  0  0  0  0  0  0  0  0  0
   22.5890  -14.1011  -20.6311 N   0  0  0  0  0  0  0  0  0  0  0  0
   24.9341  -19.4539  -16.3897 C   0  0  0  0  0  0  0  0  0  0  0  0
   24.2707  -20.4181  -16.8767 O   0  0  0  0  0  0  0  0  0  0  0  0
   27.1488  -20.7964  -10.7490 N   0  0  0  0  0  0  0  0  0  0  0  0
   26.0500  -21.6824  -10.8295 C   0  0  0  0  0  0  0  0  0  0  0  0
   25.8788  -22.5475   -9.9374 O   0  0  0  0  0  0  0  0  0  0  0  0
   25.0955  -21.6018  -11.9578 C   0  0  0  0  0  0  0  0  0  0  0  0
   25.5284  -20.5302  -12.8891 C   0  0  0  0  0  0  0  0  0  0  0  0
   24.5869  -20.3297  -14.0553 C   0  0  2  0  0  0  0  0  0  0  0  0
   25.1131  -19.3839  -14.9850 N   0  0  0  0  0  0  0  0  0  0  0  0
   23.2399  -19.9405  -13.5448 C   0  0  0  0  0  0  0  0  0  0  0  0
   23.0071  -18.7508  -13.1551 O   0  0  0  0  0  0  0  0  0  0  0  0
   22.1602  -20.8480  -13.4631 N   0  0  0  0  0  0  0  0  0  0  0  0
   20.7732  -20.4660  -13.7253 C   0  0  1  0  0  0  0  0  0  0  0  0
   20.7055  -19.3266  -14.7125 C   0  0  0  0  0  0  0  0  0  0  0  0
   19.3244  -18.9114  -15.0194 C   0  0  0  0  0  0  0  0  0  0  0  0
   18.3670  -18.5354  -14.1032 C   0  0  0  0  0  0  0  0  0  0  0  0
   17.2246  -18.2272  -14.7399 N   0  0  0  0  0  0  0  0  0  0  0  0
   17.4321  -18.3995  -16.0568 C   0  0  0  0  0  0  0  0  0  0  0  0
   18.7181  -18.8181  -16.2221 N   0  0  0  0  0  0  0  0  0  0  0  0
   19.9535  -21.6339  -14.1028 C   0  0  0  0  0  0  0  0  0  0  0  0
   20.3442  -22.5415  -14.8664 O   0  0  0  0  0  0  0  0  0  0  0  0
   18.6737  -21.7218  -13.5739 O   0  0  0  0  0  0  0  0  0  0  0  0
  2  1  1  6
  3  2  1  0
  3  4  1  0
  5  6  1  0
  5  4  1  0
  7  6  1  0
  8  9  2  0
  8  2  1  0
 10 11  1  0
 11 13  1  0
 12 11  2  0
 13 14  1  0
 15 14  1  1
 15 17  1  0
 15 16  1  0
 16  8  1  0
 17 19  1  0
 18 17  2  0
 19 20  1  0
 20 27  1  0
 21 22  1  0
 20 21  1  6
 22 26  1  0
 23 24  1  0
 23 22  2  0
 24 25  1  0
 25 26  2  0
 27 28  2  0
 27 29  1  0
M  END
$$$$
