KQH.pdb
     RDKit          3D

 29 29  0  0  1  0  0  0  0  0999 V2000
   28.0499  -21.6687  -16.9745 N   0  0  0  0  0  0  0  0  0  0  0  0
   27.6609  -20.4695  -16.2562 C   0  0  1  0  0  0  0  0  0  0  0  0
   27.2721  -19.3859  -17.1999 C   0  0  0  0  0  0  0  0  0  0  0  0
   27.2276  -19.7313  -18.6398 C   0  0  0  0  0  0  0  0  0  0  0  0
   28.0985  -18.9576  -19.5552 C   0  0  0  0  0  0  0  0  0  0  0  0
   27.7507  -19.4204  -20.9803 C   0  0  0  0  0  0  0  0  0  0  0  0
   28.6896  -18.7409  -21.8618 N   0  0  0  0  0  0  0  0  0  0  0  0
   26.4819  -20.8196  -15.4216 C   0  0  0  0  0  0  0  0  0  0  0  0
   25.6541  -21.6901  -15.8264 O   0  0  0  0  0  0  0  0  0  0  0  0
   26.0764  -22.2214  -10.3075 N   0  0  0  0  0  0  0  0  0  0  0  0
   25.1311  -21.2511   -9.9027 C   0  0  0  0  0  0  0  0  0  0  0  0
   24.8762  -21.0978   -8.6841 O   0  0  0  0  0  0  0  0  0  0  0  0
   24.4355  -20.4106  -10.9030 C   0  0  0  0  0  0  0  0  0  0  0  0
   25.4168  -19.9364  -11.9107 C   0  0  0  0  0  0  0  0  0  0  0  0
   25.1741  -20.4931  -13.2955 C   0  0  2  0  0  0  0  0  0  0  0  0
   26.2620  -20.1934  -14.1686 N   0  0  0  0  0  0  0  0  0  0  0  0
   23.8697  -19.9862  -13.8130 C   0  0  0  0  0  0  0  0  0  0  0  0
   23.8245  -19.1975  -14.8117 O   0  0  0  0  0  0  0  0  0  0  0  0
   22.6282  -20.3415  -13.2399 N   0  0  0  0  0  0  0  0  0  0  0  0
   21.3944  -20.4607  -14.0157 C   0  0  1  0  0  0  0  0  0  0  0  0
   21.5630  -21.4431  -15.1487 C   0  0  0  0  0  0  0  0  0  0  0  0
   21.9082  -20.7947  -16.4271 C   0  0  0  0  0  0  0  0  0  0  0  0
   21.9604  -19.4383  -16.6615 C   0  0  0  0  0  0  0  0  0  0  0  0
   22.3042  -19.2108  -17.9404 N   0  0  0  0  0  0  0  0  0  0  0  0
   22.4747  -20.4039  -18.5355 C   0  0  0  0  0  0  0  0  0  0  0  0
   22.2313  -21.3692  -17.6054 N   0  0  0  0  0  0  0  0  0  0  0  0
   20.2352  -20.7431  -13.1469 C   0  0  0  0  0  0  0  0  0  0  0  0
   20.3166  -21.3215  -12.0432 O   0  0  0  0  0  0  0  0  0  0  0  0
   18.9837  -20.3389  -13.5894 O   0  0  0  0  0  0  0  0  0  0  0  0
  2  1  1  6
  3  2  1  0
  3  4  1  0
  5  6  1  0
  5  4  1  0
  7  6  1  0
  8  9  2  0
  8  2  1  0
 10 11  1  0
 11 13  1  0
 12 11  2  0
 13 14  1  0
 15 14  1  1
 15 17  1  0
 15 16  1  0
 16  8  1  0
 17 19  1  0
 18 17  2  0
 19 20  1  0
 20 27  1  0
 21 22  1  0
 20 21  1  6
 22 26  1  0
 23 24  1  0
 23 22  2  0
 24 25  1  0
 25 26  2  0
 27 28  2  0
 27 29  1  0
M  END
$$$$
