KQH.pdb
     RDKit          3D

 29 29  0  0  1  0  0  0  0  0999 V2000
   27.1677  -25.8356  -18.5170 N   0  0  0  0  0  0  0  0  0  0  0  0
   27.2994  -25.8795  -17.0727 C   0  0  1  0  0  0  0  0  0  0  0  0
   28.6566  -26.3443  -16.6755 C   0  0  0  0  0  0  0  0  0  0  0  0
   29.1117  -27.6419  -17.2267 C   0  0  0  0  0  0  0  0  0  0  0  0
   28.1592  -28.7757  -17.1799 C   0  0  0  0  0  0  0  0  0  0  0  0
   28.9876  -30.0249  -16.8341 C   0  0  0  0  0  0  0  0  0  0  0  0
   28.6390  -30.3690  -15.4628 N   0  0  0  0  0  0  0  0  0  0  0  0
   27.1048  -24.4940  -16.5709 C   0  0  0  0  0  0  0  0  0  0  0  0
   27.2705  -24.2357  -15.3410 O   0  0  0  0  0  0  0  0  0  0  0  0
   28.9016  -19.6611  -19.5773 N   0  0  0  0  0  0  0  0  0  0  0  0
   29.4896  -20.0571  -18.3541 C   0  0  0  0  0  0  0  0  0  0  0  0
   30.6459  -19.6681  -18.0622 O   0  0  0  0  0  0  0  0  0  0  0  0
   28.7550  -20.9284  -17.4097 C   0  0  0  0  0  0  0  0  0  0  0  0
   27.3807  -21.1561  -17.9223 C   0  0  0  0  0  0  0  0  0  0  0  0
   26.5608  -22.0842  -17.0546 C   0  0  2  0  0  0  0  0  0  0  0  0
   26.7338  -23.4445  -17.4490 N   0  0  0  0  0  0  0  0  0  0  0  0
   25.1311  -21.6581  -17.0842 C   0  0  0  0  0  0  0  0  0  0  0  0
   24.2917  -22.2379  -17.8463 O   0  0  0  0  0  0  0  0  0  0  0  0
   24.6287  -20.6064  -16.2858 N   0  0  0  0  0  0  0  0  0  0  0  0
   23.2345  -20.5284  -15.8513 C   0  0  1  0  0  0  0  0  0  0  0  0
   22.8417  -21.7625  -15.0767 C   0  0  0  0  0  0  0  0  0  0  0  0
   21.4369  -21.7393  -14.6295 C   0  0  0  0  0  0  0  0  0  0  0  0
   20.5608  -20.6842  -14.7591 C   0  0  0  0  0  0  0  0  0  0  0  0
   19.3687  -21.0162  -14.2357 N   0  0  0  0  0  0  0  0  0  0  0  0
   19.4636  -22.2733  -13.7692 C   0  0  0  0  0  0  0  0  0  0  0  0
   20.7308  -22.7107  -14.0127 N   0  0  0  0  0  0  0  0  0  0  0  0
   22.9601  -19.2641  -15.1410 C   0  0  0  0  0  0  0  0  0  0  0  0
   21.8150  -18.7971  -14.9674 O   0  0  0  0  0  0  0  0  0  0  0  0
   24.0438  -18.5578  -14.6389 O   0  0  0  0  0  0  0  0  0  0  0  0
  2  1  1  6
  3  2  1  0
  3  4  1  0
  5  6  1  0
  5  4  1  0
  7  6  1  0
  8  9  2  0
  8  2  1  0
 10 11  1  0
 11 13  1  0
 12 11  2  0
 13 14  1  0
 15 14  1  6
 15 17  1  0
 15 16  1  0
 16  8  1  0
 17 19  1  0
 18 17  2  0
 19 20  1  0
 20 27  1  0
 21 22  1  0
 20 21  1  1
 22 26  1  0
 23 24  1  0
 23 22  2  0
 24 25  1  0
 25 26  2  0
 27 28  2  0
 27 29  1  0
M  END
$$$$
