KQH.pdb
     RDKit          3D

 29 29  0  0  1  0  0  0  0  0999 V2000
   45.4827  -11.6957   -8.5583 N   0  0  0  0  0  0  0  0  0  0  0  0
   44.8738  -10.4900   -8.0283 C   0  0  1  0  0  0  0  0  0  0  0  0
   45.6886   -9.2902   -8.3636 C   0  0  0  0  0  0  0  0  0  0  0  0
   47.0308   -9.1936   -7.7442 C   0  0  0  0  0  0  0  0  0  0  0  0
   47.8470   -7.9995   -8.0653 C   0  0  0  0  0  0  0  0  0  0  0  0
   49.1865   -8.1786   -7.3307 C   0  0  0  0  0  0  0  0  0  0  0  0
   48.8490   -8.6286   -5.9875 N   0  0  0  0  0  0  0  0  0  0  0  0
   43.5393  -10.3533   -8.6683 C   0  0  0  0  0  0  0  0  0  0  0  0
   43.4428  -10.3123   -9.9316 O   0  0  0  0  0  0  0  0  0  0  0  0
   38.0882  -11.4164   -5.7526 N   0  0  0  0  0  0  0  0  0  0  0  0
   37.6422  -10.8418   -6.9649 C   0  0  0  0  0  0  0  0  0  0  0  0
   36.4176  -10.8281   -7.2362 O   0  0  0  0  0  0  0  0  0  0  0  0
   38.6061  -10.2538   -7.9219 C   0  0  0  0  0  0  0  0  0  0  0  0
   39.9881  -10.5515   -7.4695 C   0  0  0  0  0  0  0  0  0  0  0  0
   41.0534  -10.0467   -8.4165 C   0  0  2  0  0  0  0  0  0  0  0  0
   42.3596  -10.2671   -7.8865 N   0  0  0  0  0  0  0  0  0  0  0  0
   40.7988   -8.6103   -8.7300 C   0  0  0  0  0  0  0  0  0  0  0  0
   41.2997   -7.6855   -8.0120 O   0  0  0  0  0  0  0  0  0  0  0  0
   40.0026   -8.1938   -9.8203 N   0  0  0  0  0  0  0  0  0  0  0  0
   39.9290   -6.8048  -10.2719 C   0  0  1  0  0  0  0  0  0  0  0  0
   41.0339   -6.4980  -11.2530 C   0  0  0  0  0  0  0  0  0  0  0  0
   41.0039   -5.1058  -11.7376 C   0  0  0  0  0  0  0  0  0  0  0  0
   40.3633   -4.0482  -11.1304 C   0  0  0  0  0  0  0  0  0  0  0  0
   40.5449   -2.9307  -11.8539 N   0  0  0  0  0  0  0  0  0  0  0  0
   41.2953   -3.2531  -12.9215 C   0  0  0  0  0  0  0  0  0  0  0  0
   41.5733   -4.5847  -12.8454 N   0  0  0  0  0  0  0  0  0  0  0  0
   38.5797   -6.4685  -10.7665 C   0  0  0  0  0  0  0  0  0  0  0  0
   38.2468   -5.3324  -11.1639 O   0  0  0  0  0  0  0  0  0  0  0  0
   37.6299   -7.4798  -10.7882 O   0  0  0  0  0  0  0  0  0  0  0  0
  2  1  1  6
  3  2  1  0
  3  4  1  0
  5  6  1  0
  5  4  1  0
  7  6  1  0
  8  9  2  0
  8  2  1  0
 10 11  1  0
 11 13  1  0
 12 11  2  0
 13 14  1  0
 15 14  1  1
 15 17  1  0
 15 16  1  0
 16  8  1  0
 17 19  1  0
 18 17  2  0
 19 20  1  0
 20 27  1  0
 21 22  1  0
 20 21  1  6
 22 26  1  0
 23 24  1  0
 23 22  2  0
 24 25  1  0
 25 26  2  0
 27 28  2  0
 27 29  1  0
M  END
$$$$
