CRN.pdb
     RDKit          3D

 26 25  0  0  1  0  0  0  0  0999 V2000
   15.1509  -12.2066  -13.4545 N   0  0  0  0  0  0  0  0  0  0  0  0
   16.3298  -11.5793  -12.8841 C   0  0  1  0  0  0  0  0  0  0  0  0
   17.5230  -11.7303  -13.7713 C   0  0  0  0  0  0  0  0  0  0  0  0
   18.1532  -13.4176  -13.8355 S   0  0  0  0  0  0  0  0  0  0  0  0
   16.0463  -10.1545  -12.5518 C   0  0  0  0  0  0  0  0  0  0  0  0
   15.4549   -9.4356  -13.3848 O   0  0  0  0  0  0  0  0  0  0  0  0
   14.5935   -4.6073   -5.5543 N   0  0  0  0  0  0  0  0  0  0  0  0
   13.5203   -4.9428   -6.4234 C   0  0  0  0  0  0  0  0  0  0  0  0
   12.3179   -4.9415   -5.9696 N   0  0  0  0  0  0  0  0  0  0  0  0
   13.8086   -5.2770   -7.7926 N   0  0  0  0  0  0  0  0  0  0  0  0
   14.3648   -6.5793   -8.0590 C   0  0  0  0  0  0  0  0  0  0  0  0
   15.1891   -6.6089   -9.3217 C   0  0  0  0  0  0  0  0  0  0  0  0
   15.6256   -8.0464   -9.5611 C   0  0  0  0  0  0  0  0  0  0  0  0
   16.1305   -8.2049  -10.9963 C   0  0  2  0  0  0  0  0  0  0  0  0
   16.4280   -9.5715  -11.3083 N   0  0  0  0  0  0  0  0  0  0  0  0
   17.4046   -7.3947  -11.0595 C   0  0  0  0  0  0  0  0  0  0  0  0
   18.3324   -7.7459  -10.3037 O   0  0  0  0  0  0  0  0  0  0  0  0
   11.5135   -5.0762   -6.6131 N   0  0  0  0  0  0  0  0  0  0  0  0
   22.0174   -5.6104  -11.7057 C   0  0  0  0  0  0  0  0  0  0  0  0
   21.1919   -6.0281  -12.7836 O   0  0  0  0  0  0  0  0  0  0  0  0
   21.5838   -5.7576  -13.9679 C   0  0  0  0  0  0  0  0  0  0  0  0
   19.9070   -6.7580  -12.5469 C   0  0  1  0  0  0  0  0  0  0  0  0
   18.8820   -5.7370  -12.1328 N   0  0  0  0  0  0  0  0  0  0  0  0
   17.5858   -6.2990  -11.9074 C   0  0  0  0  0  0  0  0  0  0  0  0
   18.8032   -4.6490  -13.1213 O   0  0  0  0  0  0  0  0  0  0  0  0
   17.9170   -4.7092  -14.0383 O   0  0  0  0  0  0  0  0  0  0  0  0
  2  1  1  6
  3  2  1  0
  4  3  1  0
  5  2  1  0
  5  6  2  0
  7  8  1  0
  8 10  1  0
  8  9  2  0
 10 11  1  0
 11 12  1  0
 12 13  1  0
 14 13  1  1
 15 14  1  0
 15  5  1  0
 16 14  1  0
 17 16  2  0
 18 19  1  0
 19 21  1  0
 19 20  2  0
 22 21  1  1
 22 23  1  0
 22 24  1  0
 23 16  1  0
 24 26  1  0
 25 24  2  0
M  END
$$$$
