CRN.pdb
     RDKit          3D

 26 25  0  0  1  0  0  0  0  0999 V2000
   23.0829  -11.4743  -16.2059 N   0  0  0  0  0  0  0  0  0  0  0  0
   23.1630  -10.4652  -15.1646 C   0  0  1  0  0  0  0  0  0  0  0  0
   24.4027   -9.6394  -15.2863 C   0  0  0  0  0  0  0  0  0  0  0  0
   25.9115  -10.5672  -14.9533 S   0  0  0  0  0  0  0  0  0  0  0  0
   21.9260   -9.6342  -15.1554 C   0  0  0  0  0  0  0  0  0  0  0  0
   21.3557   -9.3700  -16.2350 O   0  0  0  0  0  0  0  0  0  0  0  0
   15.3462   -9.3052   -9.6595 N   0  0  0  0  0  0  0  0  0  0  0  0
   15.4221  -10.0303  -10.8794 C   0  0  0  0  0  0  0  0  0  0  0  0
   14.6046  -10.9997  -11.0881 N   0  0  0  0  0  0  0  0  0  0  0  0
   16.4156   -9.6598  -11.8516 N   0  0  0  0  0  0  0  0  0  0  0  0
   17.0867   -8.3972  -11.6725 C   0  0  0  0  0  0  0  0  0  0  0  0
   17.9201   -8.0105  -12.8685 C   0  0  0  0  0  0  0  0  0  0  0  0
   19.2736   -8.6921  -12.7349 C   0  0  0  0  0  0  0  0  0  0  0  0
   20.1406   -8.3710  -13.9536 C   0  0  2  0  0  0  0  0  0  0  0  0
   21.3614   -9.1215  -13.9511 N   0  0  0  0  0  0  0  0  0  0  0  0
   20.4644   -6.8999  -13.8326 C   0  0  0  0  0  0  0  0  0  0  0  0
   21.3593   -6.5858  -13.0227 O   0  0  0  0  0  0  0  0  0  0  0  0
   14.5938  -11.4897  -12.0042 N   0  0  0  0  0  0  0  0  0  0  0  0
   21.7786   -2.1335  -13.3666 C   0  0  0  0  0  0  0  0  0  0  0  0
   22.1471   -2.9982  -14.4316 O   0  0  0  0  0  0  0  0  0  0  0  0
   22.7917   -2.4904  -15.4095 C   0  0  0  0  0  0  0  0  0  0  0  0
   21.7946   -4.4525  -14.4156 C   0  0  1  0  0  0  0  0  0  0  0  0
   20.3014   -4.5529  -14.5724 N   0  0  0  0  0  0  0  0  0  0  0  0
   19.8239   -5.9015  -14.5709 C   0  0  0  0  0  0  0  0  0  0  0  0
   19.8586   -3.8546  -15.7904 O   0  0  0  0  0  0  0  0  0  0  0  0
   20.0236   -2.5914  -15.8740 O   0  0  0  0  0  0  0  0  0  0  0  0
  2  1  1  6
  3  2  1  0
  4  3  1  0
  5  2  1  0
  5  6  2  0
  7  8  1  0
  8 10  1  0
  8  9  2  0
 10 11  1  0
 11 12  1  0
 12 13  1  0
 14 13  1  1
 15 14  1  0
 15  5  1  0
 16 14  1  0
 17 16  2  0
 18 19  1  0
 19 21  1  0
 19 20  2  0
 22 21  1  1
 22 23  1  0
 22 24  1  0
 23 16  1  0
 24 26  1  0
 25 24  2  0
M  END
$$$$
