CRN.pdb
     RDKit          3D

 26 25  0  0  1  0  0  0  0  0999 V2000
   22.1422  -19.8670   -9.9175 N   0  0  0  0  0  0  0  0  0  0  0  0
   22.6692  -20.7345  -10.9560 C   0  0  1  0  0  0  0  0  0  0  0  0
   21.7556  -20.8050  -12.1367 C   0  0  0  0  0  0  0  0  0  0  0  0
   20.1087  -21.4116  -11.7270 S   0  0  0  0  0  0  0  0  0  0  0  0
   24.0485  -20.3122  -11.3300 C   0  0  0  0  0  0  0  0  0  0  0  0
   24.3333  -19.0961  -11.3534 O   0  0  0  0  0  0  0  0  0  0  0  0
   30.8930  -22.5280   -8.6026 N   0  0  0  0  0  0  0  0  0  0  0  0
   31.7226  -22.1835   -9.7039 C   0  0  0  0  0  0  0  0  0  0  0  0
   32.9971  -22.1419   -9.5440 N   0  0  0  0  0  0  0  0  0  0  0  0
   31.1123  -21.8885  -10.9728 N   0  0  0  0  0  0  0  0  0  0  0  0
   29.7632  -22.3469  -11.1874 C   0  0  0  0  0  0  0  0  0  0  0  0
   28.8409  -21.2409  -11.6354 C   0  0  0  0  0  0  0  0  0  0  0  0
   27.4420  -21.5676  -11.1350 C   0  0  0  0  0  0  0  0  0  0  0  0
   26.4016  -20.8303  -11.9799 C   0  0  2  0  0  0  0  0  0  0  0  0
   25.0675  -21.2501  -11.6675 N   0  0  0  0  0  0  0  0  0  0  0  0
   26.7155  -21.2047  -13.4099 C   0  0  0  0  0  0  0  0  0  0  0  0
   26.7416  -22.4221  -13.6797 O   0  0  0  0  0  0  0  0  0  0  0  0
   33.6201  -21.9202  -10.3453 N   0  0  0  0  0  0  0  0  0  0  0  0
   25.4403  -20.7743  -18.2129 C   0  0  0  0  0  0  0  0  0  0  0  0
   24.8614  -21.5697  -17.1883 O   0  0  0  0  0  0  0  0  0  0  0  0
   23.9903  -22.4365  -17.5336 C   0  0  0  0  0  0  0  0  0  0  0  0
   25.2525  -21.4022  -15.7535 C   0  0  2  0  0  0  0  0  0  0  0  0
   26.3571  -20.3814  -15.7069 N   0  0  0  0  0  0  0  0  0  0  0  0
   26.9688  -20.2713  -14.4183 C   0  0  0  0  0  0  0  0  0  0  0  0
   25.8695  -19.0670  -16.1559 O   0  0  0  0  0  0  0  0  0  0  0  0
   24.6538  -18.7482  -15.9311 O   0  0  0  0  0  0  0  0  0  0  0  0
  2  1  1  1
  3  2  1  0
  4  3  1  0
  5  2  1  0
  5  6  2  0
  7  8  1  0
  8 10  1  0
  8  9  2  0
 10 11  1  0
 11 12  1  0
 12 13  1  0
 14 13  1  1
 15 14  1  0
 15  5  1  0
 16 14  1  0
 17 16  2  0
 18 19  1  0
 19 21  1  0
 19 20  2  0
 22 21  1  6
 22 23  1  0
 22 24  1  0
 23 16  1  0
 24 26  1  0
 25 24  2  0
M  END
$$$$
