CRN.pdb
     RDKit          3D

 26 25  0  0  1  0  0  0  0  0999 V2000
   24.8889  -21.3314  -16.2388 N   0  0  0  0  0  0  0  0  0  0  0  0
   24.3760  -22.2667  -15.2533 C   0  0  1  0  0  0  0  0  0  0  0  0
   25.3609  -22.5129  -14.1566 C   0  0  0  0  0  0  0  0  0  0  0  0
   26.9242  -23.1913  -14.7429 S   0  0  0  0  0  0  0  0  0  0  0  0
   23.0573  -21.8015  -14.7381 C   0  0  0  0  0  0  0  0  0  0  0  0
   22.9914  -20.7316  -14.0965 O   0  0  0  0  0  0  0  0  0  0  0  0
   19.7488  -16.9922  -14.4861 N   0  0  0  0  0  0  0  0  0  0  0  0
   19.2156  -17.5233  -15.6917 C   0  0  0  0  0  0  0  0  0  0  0  0
   18.8319  -16.7202  -16.6187 N   0  0  0  0  0  0  0  0  0  0  0  0
   19.1181  -18.9506  -15.8432 N   0  0  0  0  0  0  0  0  0  0  0  0
   18.5506  -19.7006  -14.7514 C   0  0  0  0  0  0  0  0  0  0  0  0
   18.3411  -21.1540  -15.0954 C   0  0  0  0  0  0  0  0  0  0  0  0
   19.6531  -21.6993  -15.6389 C   0  0  0  0  0  0  0  0  0  0  0  0
   20.5880  -22.0555  -14.4816 C   0  0  2  0  0  0  0  0  0  0  0  0
   21.8543  -22.5367  -14.9488 N   0  0  0  0  0  0  0  0  0  0  0  0
   19.8847  -23.1627  -13.7311 C   0  0  0  0  0  0  0  0  0  0  0  0
   19.8291  -24.2751  -14.2920 O   0  0  0  0  0  0  0  0  0  0  0  0
   18.3694  -17.0873  -17.4735 N   0  0  0  0  0  0  0  0  0  0  0  0
   19.6698  -24.9029   -8.2175 C   0  0  0  0  0  0  0  0  0  0  0  0
   19.4771  -24.8962   -9.6248 O   0  0  0  0  0  0  0  0  0  0  0  0
   20.0759  -25.7930  -10.3079 C   0  0  0  0  0  0  0  0  0  0  0  0
   18.6062  -23.8768  -10.2897 C   0  0  2  0  0  0  0  0  0  0  0  0
   18.7110  -24.0986  -11.7744 N   0  0  0  0  0  0  0  0  0  0  0  0
   19.3110  -23.0003  -12.4674 C   0  0  0  0  0  0  0  0  0  0  0  0
   17.3907  -24.4061  -12.3484 O   0  0  0  0  0  0  0  0  0  0  0  0
   16.6128  -23.4434  -12.6617 O   0  0  0  0  0  0  0  0  0  0  0  0
  2  1  1  6
  3  2  1  0
  4  3  1  0
  5  2  1  0
  5  6  2  0
  7  8  1  0
  8 10  1  0
  8  9  2  0
 10 11  1  0
 11 12  1  0
 12 13  1  0
 14 13  1  6
 15 14  1  0
 15  5  1  0
 16 14  1  0
 17 16  2  0
 18 19  1  0
 19 21  1  0
 19 20  2  0
 22 21  1  1
 22 23  1  0
 22 24  1  0
 23 16  1  0
 24 26  1  0
 25 24  2  0
M  END
$$$$
