CRN.pdb
     RDKit          3D

 26 25  0  0  1  0  0  0  0  0999 V2000
   28.2343  -11.7088  -19.2508 N   0  0  0  0  0  0  0  0  0  0  0  0
   27.6459  -11.2963  -17.9888 C   0  0  1  0  0  0  0  0  0  0  0  0
   28.2921  -10.0599  -17.4530 C   0  0  0  0  0  0  0  0  0  0  0  0
   30.0472  -10.2694  -17.1010 S   0  0  0  0  0  0  0  0  0  0  0  0
   26.1698  -11.1490  -18.1317 C   0  0  0  0  0  0  0  0  0  0  0  0
   25.7001  -10.6609  -19.1813 O   0  0  0  0  0  0  0  0  0  0  0  0
   21.3449  -17.4813  -17.0971 N   0  0  0  0  0  0  0  0  0  0  0  0
   20.6716  -16.3028  -17.5186 C   0  0  0  0  0  0  0  0  0  0  0  0
   19.3912  -16.3135  -17.6278 N   0  0  0  0  0  0  0  0  0  0  0  0
   21.4433  -15.1251  -17.8137 N   0  0  0  0  0  0  0  0  0  0  0  0
   22.8669  -15.1890  -17.6002 C   0  0  0  0  0  0  0  0  0  0  0  0
   23.5661  -13.9064  -17.9753 C   0  0  0  0  0  0  0  0  0  0  0  0
   23.1897  -12.8510  -16.9464 C   0  0  0  0  0  0  0  0  0  0  0  0
   23.8431  -11.5158  -17.3074 C   0  0  2  0  0  0  0  0  0  0  0  0
   25.2617  -11.5457  -17.1070 N   0  0  0  0  0  0  0  0  0  0  0  0
   23.2315  -10.5075  -16.3625 C   0  0  0  0  0  0  0  0  0  0  0  0
   23.8057  -10.3423  -15.2678 O   0  0  0  0  0  0  0  0  0  0  0  0
   18.8857  -15.4707  -17.9647 N   0  0  0  0  0  0  0  0  0  0  0  0
   22.4346   -5.8173  -14.1153 C   0  0  0  0  0  0  0  0  0  0  0  0
   22.0692   -7.1832  -13.9786 O   0  0  0  0  0  0  0  0  0  0  0  0
   21.1921   -7.4755  -13.0985 C   0  0  0  0  0  0  0  0  0  0  0  0
   22.6871   -8.2468  -14.8310 C   0  0  2  0  0  0  0  0  0  0  0  0
   21.6304   -8.7204  -15.7920 N   0  0  0  0  0  0  0  0  0  0  0  0
   22.0819   -9.7688  -16.6544 C   0  0  0  0  0  0  0  0  0  0  0  0
   21.1069   -7.5956  -16.5845 O   0  0  0  0  0  0  0  0  0  0  0  0
   20.6615   -6.5649  -15.9768 O   0  0  0  0  0  0  0  0  0  0  0  0
  2  1  1  6
  3  2  1  0
  4  3  1  0
  5  2  1  0
  5  6  2  0
  7  8  1  0
  8 10  1  0
  8  9  2  0
 10 11  1  0
 11 12  1  0
 12 13  1  0
 14 13  1  1
 15 14  1  0
 15  5  1  0
 16 14  1  0
 17 16  2  0
 18 19  1  0
 19 21  1  0
 19 20  2  0
 22 21  1  1
 22 23  1  0
 22 24  1  0
 23 16  1  0
 24 26  1  0
 25 24  2  0
M  END
$$$$
