CRN.pdb
     RDKit          3D

 26 25  0  0  1  0  0  0  0  0999 V2000
   13.7280  -13.3329  -13.7613 N   0  0  0  0  0  0  0  0  0  0  0  0
   13.5496  -12.1062  -14.5177 C   0  0  1  0  0  0  0  0  0  0  0  0
   12.1331  -11.6313  -14.4789 C   0  0  0  0  0  0  0  0  0  0  0  0
   10.9419  -12.9078  -14.9259 S   0  0  0  0  0  0  0  0  0  0  0  0
   14.5096  -11.0672  -14.0492 C   0  0  0  0  0  0  0  0  0  0  0  0
   14.7332  -10.9444  -12.8262 O   0  0  0  0  0  0  0  0  0  0  0  0
   22.7129   -9.5570  -15.7590 N   0  0  0  0  0  0  0  0  0  0  0  0
   22.2633   -8.2275  -15.5355 C   0  0  0  0  0  0  0  0  0  0  0  0
   23.0243   -7.2427  -15.8558 N   0  0  0  0  0  0  0  0  0  0  0  0
   20.9643   -8.0179  -14.9539 N   0  0  0  0  0  0  0  0  0  0  0  0
   19.8997   -8.8986  -15.3630 C   0  0  0  0  0  0  0  0  0  0  0  0
   18.5763   -8.5358  -14.7373 C   0  0  0  0  0  0  0  0  0  0  0  0
   17.5511   -9.5687  -15.1806 C   0  0  0  0  0  0  0  0  0  0  0  0
   16.2092   -9.2960  -14.4987 C   0  0  2  0  0  0  0  0  0  0  0  0
   15.1899  -10.1966  -14.9498 N   0  0  0  0  0  0  0  0  0  0  0  0
   15.8388   -7.8877  -14.9029 C   0  0  0  0  0  0  0  0  0  0  0  0
   15.2212   -7.7554  -15.9782 O   0  0  0  0  0  0  0  0  0  0  0  0
   22.7230   -6.2652  -15.6737 N   0  0  0  0  0  0  0  0  0  0  0  0
   12.5895   -3.4090  -14.6249 C   0  0  0  0  0  0  0  0  0  0  0  0
   13.8120   -4.0015  -15.0399 O   0  0  0  0  0  0  0  0  0  0  0  0
   14.6000   -3.2941  -15.7526 C   0  0  0  0  0  0  0  0  0  0  0  0
   14.1693   -5.4043  -14.6604 C   0  0  2  0  0  0  0  0  0  0  0  0
   15.6653   -5.4595  -14.5078 N   0  0  0  0  0  0  0  0  0  0  0  0
   16.1473   -6.7563  -14.1433 C   0  0  0  0  0  0  0  0  0  0  0  0
   16.1265   -4.4513  -13.5392 O   0  0  0  0  0  0  0  0  0  0  0  0
   15.8902   -3.2181  -13.7699 O   0  0  0  0  0  0  0  0  0  0  0  0
  2  1  1  1
  3  2  1  0
  4  3  1  0
  5  2  1  0
  5  6  2  0
  7  8  1  0
  8 10  1  0
  8  9  2  0
 10 11  1  0
 11 12  1  0
 12 13  1  0
 14 13  1  6
 15 14  1  0
 15  5  1  0
 16 14  1  0
 17 16  2  0
 18 19  1  0
 19 21  1  0
 19 20  2  0
 22 21  1  6
 22 23  1  0
 22 24  1  0
 23 16  1  0
 24 26  1  0
 25 24  2  0
M  END
$$$$
