CRN.pdb
     RDKit          3D

 26 25  0  0  1  0  0  0  0  0999 V2000
   26.5741  -22.4889  -10.8223 N   0  0  0  0  0  0  0  0  0  0  0  0
   25.7221  -21.3279  -11.0100 C   0  0  1  0  0  0  0  0  0  0  0  0
   26.4654  -20.0515  -10.7825 C   0  0  0  0  0  0  0  0  0  0  0  0
   26.9104  -19.7850   -9.0565 S   0  0  0  0  0  0  0  0  0  0  0  0
   25.0733  -21.3758  -12.3508 C   0  0  0  0  0  0  0  0  0  0  0  0
   25.7001  -21.8543  -13.3196 O   0  0  0  0  0  0  0  0  0  0  0  0
   18.9052  -20.1169  -11.8845 N   0  0  0  0  0  0  0  0  0  0  0  0
   18.5610  -21.4887  -11.7450 C   0  0  0  0  0  0  0  0  0  0  0  0
   17.9499  -21.8804  -10.6845 N   0  0  0  0  0  0  0  0  0  0  0  0
   18.9076  -22.4064  -12.7974 N   0  0  0  0  0  0  0  0  0  0  0  0
   19.5160  -21.8616  -13.9846 C   0  0  0  0  0  0  0  0  0  0  0  0
   21.0112  -22.0568  -14.0098 C   0  0  0  0  0  0  0  0  0  0  0  0
   21.6634  -20.6919  -13.8490 C   0  0  0  0  0  0  0  0  0  0  0  0
   23.1859  -20.8343  -13.8910 C   0  0  2  0  0  0  0  0  0  0  0  0
   23.7519  -20.8908  -12.5757 N   0  0  0  0  0  0  0  0  0  0  0  0
   23.6808  -19.5887  -14.5891 C   0  0  0  0  0  0  0  0  0  0  0  0
   24.2004  -18.7108  -13.8716 O   0  0  0  0  0  0  0  0  0  0  0  0
   17.6379  -22.8670  -10.5921 N   0  0  0  0  0  0  0  0  0  0  0  0
   28.2169  -18.3088  -16.7581 C   0  0  0  0  0  0  0  0  0  0  0  0
   26.9968  -18.7661  -17.3238 O   0  0  0  0  0  0  0  0  0  0  0  0
   26.7974  -18.5368  -18.5636 C   0  0  0  0  0  0  0  0  0  0  0  0
   25.9768  -19.4898  -16.5020 C   0  0  1  0  0  0  0  0  0  0  0  0
   24.6593  -18.7926  -16.7083 N   0  0  0  0  0  0  0  0  0  0  0  0
   23.5870  -19.3833  -15.9679 C   0  0  0  0  0  0  0  0  0  0  0  0
   24.3211  -18.7337  -18.1399 O   0  0  0  0  0  0  0  0  0  0  0  0
   24.4264  -17.6200  -18.7552 O   0  0  0  0  0  0  0  0  0  0  0  0
  2  1  1  6
  3  2  1  0
  4  3  1  0
  5  2  1  0
  5  6  2  0
  7  8  1  0
  8 10  1  0
  8  9  2  0
 10 11  1  0
 11 12  1  0
 12 13  1  0
 14 13  1  1
 15 14  1  0
 15  5  1  0
 16 14  1  0
 17 16  2  0
 18 19  1  0
 19 21  1  0
 19 20  2  0
 22 21  1  1
 22 23  1  0
 22 24  1  0
 23 16  1  0
 24 26  1  0
 25 24  2  0
M  END
$$$$
