CRN.pdb
     RDKit          3D

 26 25  0  0  1  0  0  0  0  0999 V2000
   27.7350  -16.7162  -17.3301 N   0  0  0  0  0  0  0  0  0  0  0  0
   27.0488  -16.5898  -16.0565 C   0  0  1  0  0  0  0  0  0  0  0  0
   26.2698  -15.3173  -15.9698 C   0  0  0  0  0  0  0  0  0  0  0  0
   27.3070  -13.8623  -15.7352 S   0  0  0  0  0  0  0  0  0  0  0  0
   26.2038  -17.7911  -15.8044 C   0  0  0  0  0  0  0  0  0  0  0  0
   25.6437  -18.3605  -16.7650 O   0  0  0  0  0  0  0  0  0  0  0  0
   26.3427  -20.2473   -8.9215 N   0  0  0  0  0  0  0  0  0  0  0  0
   25.2929  -21.0315   -9.4717 C   0  0  0  0  0  0  0  0  0  0  0  0
   24.1804  -21.1302   -8.8359 N   0  0  0  0  0  0  0  0  0  0  0  0
   25.5037  -21.6973  -10.7294 N   0  0  0  0  0  0  0  0  0  0  0  0
   26.7655  -21.4870  -11.3928 C   0  0  0  0  0  0  0  0  0  0  0  0
   26.5992  -21.0199  -12.8171 C   0  0  0  0  0  0  0  0  0  0  0  0
   25.4243  -20.0544  -12.8580 C   0  0  0  0  0  0  0  0  0  0  0  0
   25.2425  -19.5157  -14.2781 C   0  0  2  0  0  0  0  0  0  0  0  0
   26.0050  -18.3222  -14.4966 N   0  0  0  0  0  0  0  0  0  0  0  0
   23.7712  -19.1903  -14.3927 C   0  0  0  0  0  0  0  0  0  0  0  0
   23.4034  -18.0850  -13.9474 O   0  0  0  0  0  0  0  0  0  0  0  0
   23.4164  -21.7303   -9.2041 N   0  0  0  0  0  0  0  0  0  0  0  0
   21.2113  -20.4662  -11.3987 C   0  0  0  0  0  0  0  0  0  0  0  0
   20.7897  -20.4737  -12.7551 O   0  0  0  0  0  0  0  0  0  0  0  0
   20.2834  -21.5532  -13.2110 C   0  0  0  0  0  0  0  0  0  0  0  0
   20.9322  -19.2641  -13.6248 C   0  0  2  0  0  0  0  0  0  0  0  0
   21.4340  -19.7323  -14.9639 N   0  0  0  0  0  0  0  0  0  0  0  0
   22.8290  -20.0498  -14.9635 C   0  0  0  0  0  0  0  0  0  0  0  0
   21.1360  -18.7375  -16.0074 O   0  0  0  0  0  0  0  0  0  0  0  0
   19.9429  -18.2975  -16.1201 O   0  0  0  0  0  0  0  0  0  0  0  0
  2  1  1  6
  3  2  1  0
  4  3  1  0
  5  2  1  0
  5  6  2  0
  7  8  1  0
  8 10  1  0
  8  9  2  0
 10 11  1  0
 11 12  1  0
 12 13  1  0
 14 13  1  1
 15 14  1  0
 15  5  1  0
 16 14  1  0
 17 16  2  0
 18 19  1  0
 19 21  1  0
 19 20  2  0
 22 21  1  1
 22 23  1  0
 22 24  1  0
 23 16  1  0
 24 26  1  0
 25 24  2  0
M  END
$$$$
