HVL.pdb
     RDKit          3D

 26 26  0  0  1  0  0  0  0  0999 V2000
    9.4865  -18.8416   19.3905 N   0  0  0  0  0  0  0  0  0  0  0  0
    8.5085  -18.2642   20.2927 C   0  0  1  0  0  0  0  0  0  0  0  0
    8.4215  -19.1857   21.4921 C   0  0  0  0  0  0  0  0  0  0  0  0
    7.7411  -20.4575   21.1471 C   0  0  0  0  0  0  0  0  0  0  0  0
    7.3010  -20.8236   19.8954 C   0  0  0  0  0  0  0  0  0  0  0  0
    6.7342  -22.0413   19.9643 N   0  0  0  0  0  0  0  0  0  0  0  0
    6.8090  -22.4523   21.2426 C   0  0  0  0  0  0  0  0  0  0  0  0
    7.4202  -21.4872   21.9520 N   0  0  0  0  0  0  0  0  0  0  0  0
    8.9717  -16.9130   20.6701 C   0  0  0  0  0  0  0  0  0  0  0  0
   10.2145  -16.6694   20.7687 O   0  0  0  0  0  0  0  0  0  0  0  0
    8.0285  -12.1300   21.4865 C   0  0  0  0  0  0  0  0  0  0  0  0
    7.5539  -13.4445   20.9579 C   0  0  1  0  0  0  0  0  0  0  0  0
    7.3802  -13.4746   19.4684 C   0  0  0  0  0  0  0  0  0  0  0  0
    8.5250  -14.5293   21.3538 C   0  0  2  0  0  0  0  0  0  0  0  0
    8.0834  -15.8400   20.9366 N   0  0  0  0  0  0  0  0  0  0  0  0
    8.8414  -14.4892   22.8057 C   0  0  0  0  0  0  0  0  0  0  0  0
    9.6377  -13.6132   23.2296 O   0  0  0  0  0  0  0  0  0  0  0  0
    6.1865  -12.1384   26.2045 C   0  0  0  0  0  0  0  0  0  0  0  0
    7.3835  -12.8845   25.7065 C   0  0  1  0  0  0  0  0  0  0  0  0
    8.5878  -12.2951   26.4404 C   0  0  0  0  0  0  0  0  0  0  0  0
    7.3543  -14.3449   25.7189 C   0  0  0  0  0  0  0  0  0  0  0  0
    8.4574  -15.1757   25.2221 C   0  0  2  0  0  0  0  0  0  0  0  0
    8.2999  -15.3814   23.7522 N   0  0  0  0  0  0  0  0  0  0  0  0
    8.7872  -16.4343   25.8686 C   0  0  0  0  0  0  0  0  0  0  0  0
    9.4336  -16.5974   27.0643 O   0  0  0  0  0  0  0  0  0  0  0  0
    8.4368  -17.5115   25.2427 O   0  0  0  0  0  0  0  0  0  0  0  0
  2  9  1  0
  2  1  1  6
  3  2  1  0
  4  3  1  0
  5  4  2  0
  6  7  1  0
  6  5  1  0
  7  8  2  0
  8  4  1  0
  9 10  2  0
 12 14  1  0
 12 11  1  6
 13 12  1  0
 14 15  1  1
 15  9  1  0
 16 14  1  0
 17 16  2  0
 19 18  1  1
 19 21  1  0
 20 19  1  0
 22 21  1  1
 22 23  1  0
 22 24  1  0
 23 16  1  0
 24 25  1  0
 26 24  2  0
M  END
$$$$
