HVL.pdb
     RDKit          3D

 26 26  0  0  1  0  0  0  0  0999 V2000
    9.1779  -16.9780   15.8523 N   0  0  0  0  0  0  0  0  0  0  0  0
    8.2699  -17.1736   16.9663 C   0  0  1  0  0  0  0  0  0  0  0  0
    8.2500  -18.6599   17.2592 C   0  0  0  0  0  0  0  0  0  0  0  0
    7.6318  -19.4208   16.1464 C   0  0  0  0  0  0  0  0  0  0  0  0
    6.3247  -19.3193   15.7275 C   0  0  0  0  0  0  0  0  0  0  0  0
    6.1241  -20.1589   14.6961 N   0  0  0  0  0  0  0  0  0  0  0  0
    7.2863  -20.7913   14.4554 C   0  0  0  0  0  0  0  0  0  0  0  0
    8.1940  -20.3384   15.3381 N   0  0  0  0  0  0  0  0  0  0  0  0
    8.7757  -16.3938   18.1147 C   0  0  0  0  0  0  0  0  0  0  0  0
   10.0039  -16.4518   18.4336 O   0  0  0  0  0  0  0  0  0  0  0  0
    7.9570  -13.2078   21.8289 C   0  0  0  0  0  0  0  0  0  0  0  0
    7.4408  -13.8320   20.5733 C   0  0  1  0  0  0  0  0  0  0  0  0
    7.2309  -12.8588   19.4515 C   0  0  0  0  0  0  0  0  0  0  0  0
    8.3967  -14.9040   20.1113 C   0  0  2  0  0  0  0  0  0  0  0  0
    7.9452  -15.5592   18.9055 N   0  0  0  0  0  0  0  0  0  0  0  0
    8.7002  -15.8806   21.1901 C   0  0  0  0  0  0  0  0  0  0  0  0
    8.0719  -16.9695   21.2177 O   0  0  0  0  0  0  0  0  0  0  0  0
   10.6765  -20.1919   22.3851 C   0  0  0  0  0  0  0  0  0  0  0  0
   11.5409  -18.9789   22.2469 C   0  0  1  0  0  0  0  0  0  0  0  0
   12.6787  -19.3723   21.3051 C   0  0  0  0  0  0  0  0  0  0  0  0
   10.9130  -17.7067   21.8986 C   0  0  0  0  0  0  0  0  0  0  0  0
   10.3517  -16.7874   22.8954 C   0  0  2  0  0  0  0  0  0  0  0  0
    9.6597  -15.6633   22.1987 N   0  0  0  0  0  0  0  0  0  0  0  0
   11.1753  -16.2720   23.9757 C   0  0  0  0  0  0  0  0  0  0  0  0
   12.1122  -15.2775   23.8899 O   0  0  0  0  0  0  0  0  0  0  0  0
   11.0066  -16.8166   25.1375 O   0  0  0  0  0  0  0  0  0  0  0  0
  2  9  1  0
  2  1  1  6
  3  2  1  0
  4  3  1  0
  5  4  2  0
  6  7  1  0
  6  5  1  0
  7  8  2  0
  8  4  1  0
  9 10  2  0
 12 14  1  0
 12 11  1  1
 13 12  1  0
 14 15  1  6
 15  9  1  0
 16 14  1  0
 17 16  2  0
 19 18  1  6
 19 21  1  0
 20 19  1  0
 22 21  1  6
 22 23  1  0
 22 24  1  0
 23 16  1  0
 24 25  1  0
 26 24  2  0
M  END
$$$$
