HVL.pdb
     RDKit          3D

 26 26  0  0  1  0  0  0  0  0999 V2000
   10.7245  -18.1294   19.0075 N   0  0  0  0  0  0  0  0  0  0  0  0
    9.5790  -18.0065   19.8885 C   0  0  1  0  0  0  0  0  0  0  0  0
    9.6930  -19.1171   20.9127 C   0  0  0  0  0  0  0  0  0  0  0  0
    9.2873  -20.4233   20.3394 C   0  0  0  0  0  0  0  0  0  0  0  0
    8.9395  -20.6562   19.0282 C   0  0  0  0  0  0  0  0  0  0  0  0
    8.6310  -21.9564   18.8766 N   0  0  0  0  0  0  0  0  0  0  0  0
    8.7784  -22.5511   20.0737 C   0  0  0  0  0  0  0  0  0  0  0  0
    9.1760  -21.6155   20.9539 N   0  0  0  0  0  0  0  0  0  0  0  0
    9.6242  -16.6709   20.5186 C   0  0  0  0  0  0  0  0  0  0  0  0
   10.7398  -16.1537   20.8374 O   0  0  0  0  0  0  0  0  0  0  0  0
    7.5949  -12.4016   21.8057 C   0  0  0  0  0  0  0  0  0  0  0  0
    7.5426  -13.6414   20.9735 C   0  0  1  0  0  0  0  0  0  0  0  0
    7.8929  -13.4219   19.5317 C   0  0  0  0  0  0  0  0  0  0  0  0
    8.4796  -14.6755   21.5470 C   0  0  2  0  0  0  0  0  0  0  0  0
    8.4602  -15.9099   20.7966 N   0  0  0  0  0  0  0  0  0  0  0  0
    8.2346  -14.9055   22.9950 C   0  0  0  0  0  0  0  0  0  0  0  0
    7.2217  -15.5649   23.3422 O   0  0  0  0  0  0  0  0  0  0  0  0
    6.0128  -11.9222   26.0196 C   0  0  0  0  0  0  0  0  0  0  0  0
    7.3545  -12.5092   25.7147 C   0  0  1  0  0  0  0  0  0  0  0  0
    8.3632  -11.7220   26.5507 C   0  0  0  0  0  0  0  0  0  0  0  0
    7.5246  -13.9568   25.8117 C   0  0  0  0  0  0  0  0  0  0  0  0
    8.7735  -14.6449   25.4647 C   0  0  2  0  0  0  0  0  0  0  0  0
    9.0749  -14.4262   24.0193 N   0  0  0  0  0  0  0  0  0  0  0  0
    8.9703  -16.0428   25.8085 C   0  0  0  0  0  0  0  0  0  0  0  0
    9.3537  -17.0490   24.9631 O   0  0  0  0  0  0  0  0  0  0  0  0
    8.7539  -16.3676   27.0423 O   0  0  0  0  0  0  0  0  0  0  0  0
  2  9  1  0
  2  1  1  6
  3  2  1  0
  4  3  1  0
  5  4  2  0
  6  7  1  0
  6  5  1  0
  7  8  2  0
  8  4  1  0
  9 10  2  0
 12 14  1  0
 12 11  1  1
 13 12  1  0
 14 15  1  6
 15  9  1  0
 16 14  1  0
 17 16  2  0
 19 18  1  1
 19 21  1  0
 20 19  1  0
 22 21  1  6
 22 23  1  0
 22 24  1  0
 23 16  1  0
 24 25  1  0
 26 24  2  0
M  END
$$$$
