HVL.pdb
     RDKit          3D

 26 26  0  0  1  0  0  0  0  0999 V2000
    9.8223  -19.1786   19.6254 N   0  0  0  0  0  0  0  0  0  0  0  0
    9.0820  -18.7322   20.7900 C   0  0  1  0  0  0  0  0  0  0  0  0
    9.5890  -19.5399   21.9672 C   0  0  0  0  0  0  0  0  0  0  0  0
    9.2494  -20.9763   21.8222 C   0  0  0  0  0  0  0  0  0  0  0  0
    8.5772  -21.5438   20.7637 C   0  0  0  0  0  0  0  0  0  0  0  0
    8.4511  -22.8657   20.9772 N   0  0  0  0  0  0  0  0  0  0  0  0
    9.0341  -23.1439   22.1567 C   0  0  0  0  0  0  0  0  0  0  0  0
    9.5149  -21.9942   22.6617 N   0  0  0  0  0  0  0  0  0  0  0  0
    9.3308  -17.2867   20.9672 C   0  0  0  0  0  0  0  0  0  0  0  0
   10.4899  -16.8092   20.7620 O   0  0  0  0  0  0  0  0  0  0  0  0
    7.5354  -12.7168   21.5775 C   0  0  0  0  0  0  0  0  0  0  0  0
    7.2938  -14.1498   21.2302 C   0  0  1  0  0  0  0  0  0  0  0  0
    6.8759  -14.3690   19.8065 C   0  0  0  0  0  0  0  0  0  0  0  0
    8.5433  -14.9525   21.4967 C   0  0  2  0  0  0  0  0  0  0  0  0
    8.3209  -16.3738   21.3650 N   0  0  0  0  0  0  0  0  0  0  0  0
    9.1562  -14.6083   22.8065 C   0  0  0  0  0  0  0  0  0  0  0  0
    9.8419  -13.5583   22.8988 O   0  0  0  0  0  0  0  0  0  0  0  0
    8.7782  -11.9523   26.9844 C   0  0  0  0  0  0  0  0  0  0  0  0
    7.6763  -12.7800   26.4027 C   0  0  1  0  0  0  0  0  0  0  0  0
    6.5085  -11.8240   26.1606 C   0  0  0  0  0  0  0  0  0  0  0  0
    7.9727  -13.6359   25.2566 C   0  0  0  0  0  0  0  0  0  0  0  0
    8.8793  -14.7879   25.3262 C   0  0  2  0  0  0  0  0  0  0  0  0
    9.0174  -15.3926   23.9686 N   0  0  0  0  0  0  0  0  0  0  0  0
    8.6786  -15.8306   26.3179 C   0  0  0  0  0  0  0  0  0  0  0  0
    9.4032  -16.0233   27.4633 O   0  0  0  0  0  0  0  0  0  0  0  0
    7.7172  -16.6657   26.0877 O   0  0  0  0  0  0  0  0  0  0  0  0
  2  9  1  0
  2  1  1  6
  3  2  1  0
  4  3  1  0
  5  4  2  0
  6  7  1  0
  6  5  1  0
  7  8  2  0
  8  4  1  0
  9 10  2  0
 12 14  1  0
 12 11  1  6
 13 12  1  0
 14 15  1  1
 15  9  1  0
 16 14  1  0
 17 16  2  0
 19 18  1  6
 19 21  1  0
 20 19  1  0
 22 21  1  6
 22 23  1  0
 22 24  1  0
 23 16  1  0
 24 25  1  0
 26 24  2  0
M  END
$$$$
