HVL.pdb
     RDKit          3D

 26 26  0  0  1  0  0  0  0  0999 V2000
    7.1031  -17.4261   18.6309 N   0  0  0  0  0  0  0  0  0  0  0  0
    7.9570  -16.4906   19.3377 C   0  0  1  0  0  0  0  0  0  0  0  0
    7.3277  -15.1211   19.1838 C   0  0  0  0  0  0  0  0  0  0  0  0
    7.6964  -14.5005   17.8883 C   0  0  0  0  0  0  0  0  0  0  0  0
    8.4844  -15.0716   16.9150 C   0  0  0  0  0  0  0  0  0  0  0  0
    8.6012  -14.2175   15.8827 N   0  0  0  0  0  0  0  0  0  0  0  0
    7.8980  -13.1127   16.1882 C   0  0  0  0  0  0  0  0  0  0  0  0
    7.3534  -13.2924   17.4044 N   0  0  0  0  0  0  0  0  0  0  0  0
    8.0249  -16.9085   20.7531 C   0  0  0  0  0  0  0  0  0  0  0  0
    6.9625  -17.2104   21.3806 O   0  0  0  0  0  0  0  0  0  0  0  0
   10.5746  -18.6820   24.5458 C   0  0  0  0  0  0  0  0  0  0  0  0
   10.4606  -18.3879   23.0853 C   0  0  1  0  0  0  0  0  0  0  0  0
   10.2458  -19.6042   22.2344 C   0  0  0  0  0  0  0  0  0  0  0  0
    9.3223  -17.4258   22.8503 C   0  0  2  0  0  0  0  0  0  0  0  0
    9.2435  -16.9948   21.4738 N   0  0  0  0  0  0  0  0  0  0  0  0
    9.3659  -16.2735   23.7884 C   0  0  0  0  0  0  0  0  0  0  0  0
   10.1448  -15.3180   23.5405 O   0  0  0  0  0  0  0  0  0  0  0  0
    8.0970  -11.8889   26.4931 C   0  0  0  0  0  0  0  0  0  0  0  0
    7.3237  -13.1184   26.8508 C   0  0  1  0  0  0  0  0  0  0  0  0
    5.8686  -12.6763   27.0036 C   0  0  0  0  0  0  0  0  0  0  0  0
    7.4837  -14.3122   26.0243 C   0  0  0  0  0  0  0  0  0  0  0  0
    8.7396  -15.0662   25.9350 C   0  0  2  0  0  0  0  0  0  0  0  0
    8.5804  -16.1800   24.9542 N   0  0  0  0  0  0  0  0  0  0  0  0
    9.4012  -15.5498   27.1348 C   0  0  0  0  0  0  0  0  0  0  0  0
   10.3589  -14.8967   27.8630 O   0  0  0  0  0  0  0  0  0  0  0  0
    9.0497  -16.7234   27.5519 O   0  0  0  0  0  0  0  0  0  0  0  0
  2  9  1  0
  2  1  1  6
  3  2  1  0
  4  3  1  0
  5  4  2  0
  6  7  1  0
  6  5  1  0
  7  8  2  0
  8  4  1  0
  9 10  2  0
 12 14  1  0
 12 11  1  1
 13 12  1  0
 14 15  1  6
 15  9  1  0
 16 14  1  0
 17 16  2  0
 19 18  1  6
 19 21  1  0
 20 19  1  0
 22 21  1  1
 22 23  1  0
 22 24  1  0
 23 16  1  0
 24 25  1  0
 26 24  2  0
M  END
$$$$
