HVL.pdb
     RDKit          3D

 26 26  0  0  1  0  0  0  0  0999 V2000
   11.6964  -17.8290   19.6575 N   0  0  0  0  0  0  0  0  0  0  0  0
   10.6974  -18.0074   20.6938 C   0  0  1  0  0  0  0  0  0  0  0  0
   11.2934  -18.9501   21.7191 C   0  0  0  0  0  0  0  0  0  0  0  0
   11.3117  -20.3470   21.2210 C   0  0  0  0  0  0  0  0  0  0  0  0
   10.2109  -21.1518   21.0344 C   0  0  0  0  0  0  0  0  0  0  0  0
   10.6117  -22.3496   20.5725 N   0  0  0  0  0  0  0  0  0  0  0  0
   11.9517  -22.3153   20.4639 C   0  0  0  0  0  0  0  0  0  0  0  0
   12.3675  -21.0989   20.8586 N   0  0  0  0  0  0  0  0  0  0  0  0
   10.3955  -16.6830   21.2749 C   0  0  0  0  0  0  0  0  0  0  0  0
   11.3372  -15.8707   21.5340 O   0  0  0  0  0  0  0  0  0  0  0  0
    7.3760  -12.9564   22.1315 C   0  0  0  0  0  0  0  0  0  0  0  0
    7.6666  -14.2490   21.4407 C   0  0  1  0  0  0  0  0  0  0  0  0
    8.0553  -14.0953   20.0002 C   0  0  0  0  0  0  0  0  0  0  0  0
    8.7741  -14.9725   22.1662 C   0  0  2  0  0  0  0  0  0  0  0  0
    9.0765  -16.2527   21.5690 N   0  0  0  0  0  0  0  0  0  0  0  0
    8.4987  -15.0932   23.6220 C   0  0  0  0  0  0  0  0  0  0  0  0
    7.6268  -15.9123   24.0091 O   0  0  0  0  0  0  0  0  0  0  0  0
    5.4197  -13.2522   26.6960 C   0  0  0  0  0  0  0  0  0  0  0  0
    6.8877  -13.2450   26.4088 C   0  0  1  0  0  0  0  0  0  0  0  0
    7.4896  -12.1561   27.2967 C   0  0  0  0  0  0  0  0  0  0  0  0
    7.6188  -14.5085   26.4638 C   0  0  0  0  0  0  0  0  0  0  0  0
    9.0254  -14.6417   26.0667 C   0  0  2  0  0  0  0  0  0  0  0  0
    9.1603  -14.3391   24.6113 N   0  0  0  0  0  0  0  0  0  0  0  0
    9.7795  -15.8384   26.3986 C   0  0  0  0  0  0  0  0  0  0  0  0
   10.4594  -16.6470   25.5279 O   0  0  0  0  0  0  0  0  0  0  0  0
    9.8037  -16.1749   27.6479 O   0  0  0  0  0  0  0  0  0  0  0  0
  2  9  1  0
  2  1  1  6
  3  2  1  0
  4  3  1  0
  5  4  2  0
  6  7  1  0
  6  5  1  0
  7  8  2  0
  8  4  1  0
  9 10  2  0
 12 14  1  0
 12 11  1  1
 13 12  1  0
 14 15  1  6
 15  9  1  0
 16 14  1  0
 17 16  2  0
 19 18  1  1
 19 21  1  0
 20 19  1  0
 22 21  1  6
 22 23  1  0
 22 24  1  0
 23 16  1  0
 24 25  1  0
 26 24  2  0
M  END
$$$$
