LGC.pdb
     RDKit          3D

 19 18  0  0  1  0  0  0  0  0999 V2000
    7.5722  -12.6085   20.0833 C   0  0  0  0  0  0  0  0  0  0  0  0
    8.6234  -13.5722   19.6311 C   0  0  2  0  0  0  0  0  0  0  0  0
    9.8517  -12.8367   19.1445 C   0  0  0  0  0  0  0  0  0  0  0  0
    8.0890  -14.5392   18.5933 C   0  0  0  0  0  0  0  0  0  0  0  0
    9.1901  -15.5365   18.3114 C   0  0  2  0  0  0  0  0  0  0  0  0
    8.6952  -16.4647   17.3116 N   0  0  0  0  0  0  0  0  0  0  0  0
    9.4780  -16.3176   19.5548 C   0  0  0  0  0  0  0  0  0  0  0  0
    8.5327  -16.9059   20.1707 O   0  0  0  0  0  0  0  0  0  0  0  0
   10.7800  -16.4261   20.0757 N   0  0  0  0  0  0  0  0  0  0  0  0
   11.0108  -17.1966   21.2561 C   0  0  0  0  0  0  0  0  0  0  0  0
   10.9762  -16.3637   22.4894 C   0  0  0  0  0  0  0  0  0  0  0  0
   12.0018  -15.7399   22.8187 O   0  0  0  0  0  0  0  0  0  0  0  0
    9.8185  -16.2537   23.3042 N   0  0  0  0  0  0  0  0  0  0  0  0
    9.8603  -15.6644   24.6276 C   0  0  1  0  0  0  0  0  0  0  0  0
    8.4785  -15.4320   25.1939 C   0  0  0  0  0  0  0  0  0  0  0  0
    7.4893  -14.4703   24.0359 S   0  0  0  0  0  0  0  0  0  0  0  0
   10.5475  -16.6321   25.5216 C   0  0  0  0  0  0  0  0  0  0  0  0
   10.9183  -16.2803   26.8169 O   0  0  0  0  0  0  0  0  0  0  0  0
   10.8261  -17.8040   25.1585 O   0  0  0  0  0  0  0  0  0  0  0  0
  2  1  1  6
  3  2  1  0
  4  2  1  0
  5  4  1  0
  5  6  1  6
  7  8  2  0
  7  5  1  0
  9  7  1  0
 10  9  1  0
 11 10  1  0
 11 13  1  0
 12 11  2  0
 14 13  1  0
 14 15  1  1
 15 16  1  0
 17 18  1  0
 17 14  1  0
 19 17  2  0
M  END
$$$$
