LGC.pdb
     RDKit          3D

 19 18  0  0  1  0  0  0  0  0999 V2000
    7.8013  -12.0126   19.3517 C   0  0  0  0  0  0  0  0  0  0  0  0
    8.3422  -13.4071   19.3805 C   0  0  2  0  0  0  0  0  0  0  0  0
    8.0681  -14.1158   18.0731 C   0  0  0  0  0  0  0  0  0  0  0  0
    7.8216  -14.1865   20.5718 C   0  0  0  0  0  0  0  0  0  0  0  0
    9.0160  -14.8457   21.2237 C   0  0  2  0  0  0  0  0  0  0  0  0
    9.2654  -16.0919   20.5230 N   0  0  0  0  0  0  0  0  0  0  0  0
    8.6807  -15.1808   22.6429 C   0  0  0  0  0  0  0  0  0  0  0  0
    8.4759  -14.2500   23.4859 O   0  0  0  0  0  0  0  0  0  0  0  0
    8.5822  -16.5123   23.0855 N   0  0  0  0  0  0  0  0  0  0  0  0
    8.3031  -16.7851   24.4595 C   0  0  0  0  0  0  0  0  0  0  0  0
    9.3702  -16.2763   25.3641 C   0  0  0  0  0  0  0  0  0  0  0  0
   10.4355  -15.8712   24.8635 O   0  0  0  0  0  0  0  0  0  0  0  0
    9.2194  -16.2354   26.7754 N   0  0  0  0  0  0  0  0  0  0  0  0
   10.2215  -15.6463   27.6411 C   0  0  1  0  0  0  0  0  0  0  0  0
    9.6669  -14.5074   28.4652 C   0  0  0  0  0  0  0  0  0  0  0  0
   10.9723  -13.3256   28.8444 S   0  0  0  0  0  0  0  0  0  0  0  0
   10.6645  -16.7024   28.5879 C   0  0  0  0  0  0  0  0  0  0  0  0
   11.8991  -16.6266   29.2274 O   0  0  0  0  0  0  0  0  0  0  0  0
    9.9556  -17.7064   28.8569 O   0  0  0  0  0  0  0  0  0  0  0  0
  2  1  1  6
  3  2  1  0
  4  2  1  0
  5  4  1  0
  5  6  1  6
  7  8  2  0
  7  5  1  0
  9  7  1  0
 10  9  1  0
 11 10  1  0
 11 13  1  0
 12 11  2  0
 14 13  1  0
 14 15  1  1
 15 16  1  0
 17 18  1  0
 17 14  1  0
 19 17  2  0
M  END
$$$$
