LGC.pdb
     RDKit          3D

 19 18  0  0  1  0  0  0  0  0999 V2000
    9.3972  -12.7592   18.9179 C   0  0  0  0  0  0  0  0  0  0  0  0
    8.0950  -13.4955   18.8968 C   0  0  2  0  0  0  0  0  0  0  0  0
    6.9528  -12.5561   18.5818 C   0  0  0  0  0  0  0  0  0  0  0  0
    7.8638  -14.2635   20.1830 C   0  0  0  0  0  0  0  0  0  0  0  0
    9.0195  -15.2266   20.3355 C   0  0  2  0  0  0  0  0  0  0  0  0
    8.9028  -16.2210   19.2849 N   0  0  0  0  0  0  0  0  0  0  0  0
    8.9010  -15.9352   21.6480 C   0  0  0  0  0  0  0  0  0  0  0  0
    8.6014  -17.1714   21.6798 O   0  0  0  0  0  0  0  0  0  0  0  0
    9.1128  -15.2707   22.8696 N   0  0  0  0  0  0  0  0  0  0  0  0
    8.9729  -15.9836   24.0994 C   0  0  0  0  0  0  0  0  0  0  0  0
    9.2615  -15.1287   25.2833 C   0  0  0  0  0  0  0  0  0  0  0  0
    9.1933  -13.8920   25.1588 O   0  0  0  0  0  0  0  0  0  0  0  0
    9.6114  -15.6697   26.5486 N   0  0  0  0  0  0  0  0  0  0  0  0
   10.6801  -15.1153   27.3554 C   0  0  1  0  0  0  0  0  0  0  0  0
   10.3567  -13.7267   27.8566 C   0  0  0  0  0  0  0  0  0  0  0  0
    8.6619  -13.6675   28.4637 S   0  0  0  0  0  0  0  0  0  0  0  0
   10.8352  -15.9902   28.5464 C   0  0  0  0  0  0  0  0  0  0  0  0
   10.0836  -17.1536   28.6900 O   0  0  0  0  0  0  0  0  0  0  0  0
   11.6433  -15.7279   29.4743 O   0  0  0  0  0  0  0  0  0  0  0  0
  2  1  1  1
  3  2  1  0
  4  2  1  0
  5  4  1  0
  5  6  1  6
  7  8  2  0
  7  5  1  0
  9  7  1  0
 10  9  1  0
 11 10  1  0
 11 13  1  0
 12 11  2  0
 14 13  1  0
 14 15  1  1
 15 16  1  0
 17 18  1  0
 17 14  1  0
 19 17  2  0
M  END
$$$$
