LGC.pdb
     RDKit          3D

 19 18  0  0  1  0  0  0  0  0999 V2000
    5.4873  -13.2891   26.3994 C   0  0  0  0  0  0  0  0  0  0  0  0
    6.8329  -13.0941   25.7755 C   0  0  2  0  0  0  0  0  0  0  0  0
    7.4494  -11.7892   26.2269 C   0  0  0  0  0  0  0  0  0  0  0  0
    6.7723  -13.2038   24.2648 C   0  0  0  0  0  0  0  0  0  0  0  0
    6.9047  -14.6709   23.9235 C   0  0  2  0  0  0  0  0  0  0  0  0
    6.4012  -15.4307   25.0528 N   0  0  0  0  0  0  0  0  0  0  0  0
    8.3526  -15.0094   23.7564 C   0  0  0  0  0  0  0  0  0  0  0  0
    9.0790  -14.3276   22.9649 O   0  0  0  0  0  0  0  0  0  0  0  0
    8.9493  -16.0739   24.4560 N   0  0  0  0  0  0  0  0  0  0  0  0
   10.3315  -16.3712   24.2526 C   0  0  0  0  0  0  0  0  0  0  0  0
   11.1171  -16.2934   25.5146 C   0  0  0  0  0  0  0  0  0  0  0  0
   12.3035  -16.6700   25.5045 O   0  0  0  0  0  0  0  0  0  0  0  0
   10.5651  -15.8064   26.7288 N   0  0  0  0  0  0  0  0  0  0  0  0
   11.2896  -15.8636   27.9828 C   0  0  1  0  0  0  0  0  0  0  0  0
   10.7963  -14.8365   28.9755 C   0  0  0  0  0  0  0  0  0  0  0  0
   10.3575  -13.3123   28.1217 S   0  0  0  0  0  0  0  0  0  0  0  0
   11.0444  -17.2043   28.5749 C   0  0  0  0  0  0  0  0  0  0  0  0
   10.1489  -18.0975   27.9925 O   0  0  0  0  0  0  0  0  0  0  0  0
   11.6259  -17.5958   29.6195 O   0  0  0  0  0  0  0  0  0  0  0  0
  2  1  1  1
  3  2  1  0
  4  2  1  0
  5  4  1  0
  5  6  1  1
  7  8  2  0
  7  5  1  0
  9  7  1  0
 10  9  1  0
 11 10  1  0
 11 13  1  0
 12 11  2  0
 14 13  1  0
 14 15  1  1
 15 16  1  0
 17 18  1  0
 17 14  1  0
 19 17  2  0
M  END
$$$$
