LGC.pdb
     RDKit          3D

 19 18  0  0  1  0  0  0  0  0999 V2000
    6.4518  -14.2425   20.1963 C   0  0  0  0  0  0  0  0  0  0  0  0
    7.6837  -13.6321   20.7863 C   0  0  2  0  0  0  0  0  0  0  0  0
    7.9974  -12.3098   20.1231 C   0  0  0  0  0  0  0  0  0  0  0  0
    8.8603  -14.5867   20.7403 C   0  0  0  0  0  0  0  0  0  0  0  0
    8.5793  -15.6817   21.7445 C   0  0  2  0  0  0  0  0  0  0  0  0
    7.7826  -15.1042   22.8112 N   0  0  0  0  0  0  0  0  0  0  0  0
    9.8703  -16.1465   22.3412 C   0  0  0  0  0  0  0  0  0  0  0  0
   10.7571  -16.6823   21.6026 O   0  0  0  0  0  0  0  0  0  0  0  0
   10.1428  -16.0094   23.7144 N   0  0  0  0  0  0  0  0  0  0  0  0
   11.3803  -16.4871   24.2440 C   0  0  0  0  0  0  0  0  0  0  0  0
   11.5088  -16.2237   25.7034 C   0  0  0  0  0  0  0  0  0  0  0  0
   12.6038  -16.4374   26.2555 O   0  0  0  0  0  0  0  0  0  0  0  0
   10.4305  -15.7382   26.4895 N   0  0  0  0  0  0  0  0  0  0  0  0
   10.6274  -15.2037   27.8222 C   0  0  1  0  0  0  0  0  0  0  0  0
    9.6270  -14.1219   28.1578 C   0  0  0  0  0  0  0  0  0  0  0  0
    9.3712  -13.0521   26.7314 S   0  0  0  0  0  0  0  0  0  0  0  0
   10.4127  -16.3176   28.7820 C   0  0  0  0  0  0  0  0  0  0  0  0
    9.9788  -17.5685   28.3505 O   0  0  0  0  0  0  0  0  0  0  0  0
   10.6096  -16.1892   30.0179 O   0  0  0  0  0  0  0  0  0  0  0  0
  2  1  1  6
  3  2  1  0
  4  2  1  0
  5  4  1  0
  5  6  1  1
  7  8  2  0
  7  5  1  0
  9  7  1  0
 10  9  1  0
 11 10  1  0
 11 13  1  0
 12 11  2  0
 14 13  1  0
 14 15  1  1
 15 16  1  0
 17 18  1  0
 17 14  1  0
 19 17  2  0
M  END
$$$$
