LGC.pdb
     RDKit          3D

 19 18  0  0  1  0  0  0  0  0999 V2000
    6.2950  -11.9669   24.4333 C   0  0  0  0  0  0  0  0  0  0  0  0
    6.1482  -12.7734   25.6848 C   0  0  2  0  0  0  0  0  0  0  0  0
    5.9365  -11.8732   26.8812 C   0  0  0  0  0  0  0  0  0  0  0  0
    7.3156  -13.7199   25.8826 C   0  0  0  0  0  0  0  0  0  0  0  0
    7.4103  -14.5700   24.6358 C   0  0  2  0  0  0  0  0  0  0  0  0
    6.5532  -15.7254   24.8271 N   0  0  0  0  0  0  0  0  0  0  0  0
    8.8139  -15.0650   24.4819 C   0  0  0  0  0  0  0  0  0  0  0  0
    9.7616  -14.2404   24.2799 O   0  0  0  0  0  0  0  0  0  0  0  0
    9.1279  -16.4342   24.5542 N   0  0  0  0  0  0  0  0  0  0  0  0
   10.4804  -16.8624   24.3877 C   0  0  0  0  0  0  0  0  0  0  0  0
   11.2451  -16.8261   25.6643 C   0  0  0  0  0  0  0  0  0  0  0  0
   12.4646  -17.0743   25.6381 O   0  0  0  0  0  0  0  0  0  0  0  0
   10.6369  -16.5194   26.9102 N   0  0  0  0  0  0  0  0  0  0  0  0
   11.3803  -16.5291   28.1543 C   0  0  1  0  0  0  0  0  0  0  0  0
   10.8420  -15.5277   29.1498 C   0  0  0  0  0  0  0  0  0  0  0  0
   10.5269  -13.9530   28.3340 S   0  0  0  0  0  0  0  0  0  0  0  0
   11.2208  -17.8790   28.7547 C   0  0  0  0  0  0  0  0  0  0  0  0
   11.8867  -18.2312   29.9257 O   0  0  0  0  0  0  0  0  0  0  0  0
   10.4851  -18.7615   28.2421 O   0  0  0  0  0  0  0  0  0  0  0  0
  2  1  1  6
  3  2  1  0
  4  2  1  0
  5  4  1  0
  5  6  1  1
  7  8  2  0
  7  5  1  0
  9  7  1  0
 10  9  1  0
 11 10  1  0
 11 13  1  0
 12 11  2  0
 14 13  1  0
 14 15  1  1
 15 16  1  0
 17 18  1  0
 17 14  1  0
 19 17  2  0
M  END
$$$$
