LGC.pdb
     RDKit          3D

 19 18  0  0  1  0  0  0  0  0999 V2000
    2.8241  -18.4670   20.1520 C   0  0  0  0  0  0  0  0  0  0  0  0
    3.0153  -19.6661   21.0260 C   0  0  2  0  0  0  0  0  0  0  0  0
    1.7498  -20.4912   21.0889 C   0  0  0  0  0  0  0  0  0  0  0  0
    3.5148  -19.2817   22.4046 C   0  0  0  0  0  0  0  0  0  0  0  0
    4.6988  -18.3629   22.2044 C   0  0  2  0  0  0  0  0  0  0  0  0
    5.7740  -19.1520   21.6322 N   0  0  0  0  0  0  0  0  0  0  0  0
    5.1623  -17.8588   23.5348 C   0  0  0  0  0  0  0  0  0  0  0  0
    4.4010  -17.1189   24.2361 O   0  0  0  0  0  0  0  0  0  0  0  0
    6.4327  -18.1801   24.0463 N   0  0  0  0  0  0  0  0  0  0  0  0
    6.8406  -17.6602   25.3125 C   0  0  0  0  0  0  0  0  0  0  0  0
    7.3391  -16.2610   25.2141 C   0  0  0  0  0  0  0  0  0  0  0  0
    8.0268  -15.9392   24.2277 O   0  0  0  0  0  0  0  0  0  0  0  0
    7.0602  -15.2799   26.2020 N   0  0  0  0  0  0  0  0  0  0  0  0
    7.7549  -14.0086   26.2438 C   0  0  1  0  0  0  0  0  0  0  0  0
    7.1173  -13.0402   27.2132 C   0  0  0  0  0  0  0  0  0  0  0  0
    5.3711  -12.8339   26.8224 S   0  0  0  0  0  0  0  0  0  0  0  0
    9.1348  -14.2740   26.7272 C   0  0  0  0  0  0  0  0  0  0  0  0
   10.1204  -13.2919   26.6713 O   0  0  0  0  0  0  0  0  0  0  0  0
    9.4787  -15.3855   27.2058 O   0  0  0  0  0  0  0  0  0  0  0  0
  2  1  1  6
  3  2  1  0
  4  2  1  0
  5  4  1  0
  5  6  1  1
  7  8  2  0
  7  5  1  0
  9  7  1  0
 10  9  1  0
 11 10  1  0
 11 13  1  0
 12 11  2  0
 14 13  1  0
 14 15  1  1
 15 16  1  0
 17 18  1  0
 17 14  1  0
 19 17  2  0
M  END
$$$$
