LGC.pdb
     RDKit          3D

 19 18  0  0  1  0  0  0  0  0999 V2000
    8.0533  -13.8886   19.1811 C   0  0  0  0  0  0  0  0  0  0  0  0
    7.4321  -13.7769   20.5375 C   0  0  2  0  0  0  0  0  0  0  0  0
    6.9030  -12.3798   20.7716 C   0  0  0  0  0  0  0  0  0  0  0  0
    8.3870  -14.2156   21.6299 C   0  0  0  0  0  0  0  0  0  0  0  0
    8.8539  -15.6091   21.2741 C   0  0  2  0  0  0  0  0  0  0  0  0
    7.8083  -16.5354   21.6675 N   0  0  0  0  0  0  0  0  0  0  0  0
   10.0769  -15.9379   22.0710 C   0  0  0  0  0  0  0  0  0  0  0  0
   11.1595  -15.3009   21.8684 O   0  0  0  0  0  0  0  0  0  0  0  0
   10.0714  -16.9443   23.0537 N   0  0  0  0  0  0  0  0  0  0  0  0
   11.2493  -17.1926   23.8225 C   0  0  0  0  0  0  0  0  0  0  0  0
   11.3086  -16.3543   25.0511 C   0  0  0  0  0  0  0  0  0  0  0  0
   12.4095  -16.1845   25.6067 O   0  0  0  0  0  0  0  0  0  0  0  0
   10.1578  -15.7411   25.6133 N   0  0  0  0  0  0  0  0  0  0  0  0
   10.2294  -14.9040   26.7943 C   0  0  1  0  0  0  0  0  0  0  0  0
    9.0325  -13.9901   26.9206 C   0  0  0  0  0  0  0  0  0  0  0  0
    9.1699  -12.9943   28.4153 S   0  0  0  0  0  0  0  0  0  0  0  0
   10.2247  -15.8048   27.9761 C   0  0  0  0  0  0  0  0  0  0  0  0
    9.7475  -17.1099   27.8869 O   0  0  0  0  0  0  0  0  0  0  0  0
   10.6463  -15.4388   29.1035 O   0  0  0  0  0  0  0  0  0  0  0  0
  2  1  1  6
  3  2  1  0
  4  2  1  0
  5  4  1  0
  5  6  1  1
  7  8  2  0
  7  5  1  0
  9  7  1  0
 10  9  1  0
 11 10  1  0
 11 13  1  0
 12 11  2  0
 14 13  1  0
 14 15  1  1
 15 16  1  0
 17 18  1  0
 17 14  1  0
 19 17  2  0
M  END
$$$$
