LGC.pdb
     RDKit          3D

 19 18  0  0  1  0  0  0  0  0999 V2000
    8.6832  -14.1534   18.8401 C   0  0  0  0  0  0  0  0  0  0  0  0
    7.5853  -13.6171   19.7033 C   0  0  2  0  0  0  0  0  0  0  0  0
    7.4478  -12.1214   19.5286 C   0  0  0  0  0  0  0  0  0  0  0  0
    7.7727  -14.0068   21.1562 C   0  0  0  0  0  0  0  0  0  0  0  0
    7.7618  -15.5178   21.2124 C   0  0  2  0  0  0  0  0  0  0  0  0
    6.4177  -15.9587   20.8878 N   0  0  0  0  0  0  0  0  0  0  0  0
    8.0613  -15.9613   22.6097 C   0  0  0  0  0  0  0  0  0  0  0  0
    7.1675  -15.8745   23.5111 O   0  0  0  0  0  0  0  0  0  0  0  0
    9.3187  -16.4801   22.9679 N   0  0  0  0  0  0  0  0  0  0  0  0
    9.5469  -16.9297   24.3043 C   0  0  0  0  0  0  0  0  0  0  0  0
   10.1926  -15.8872   25.1481 C   0  0  0  0  0  0  0  0  0  0  0  0
   11.3576  -15.5391   24.8815 O   0  0  0  0  0  0  0  0  0  0  0  0
    9.5306  -15.2748   26.2450 N   0  0  0  0  0  0  0  0  0  0  0  0
   10.2229  -14.4062   27.1760 C   0  0  1  0  0  0  0  0  0  0  0  0
    9.3934  -13.2027   27.5599 C   0  0  0  0  0  0  0  0  0  0  0  0
    7.6444  -13.6333   27.5651 S   0  0  0  0  0  0  0  0  0  0  0  0
   10.4656  -15.1895   28.4152 C   0  0  0  0  0  0  0  0  0  0  0  0
   11.2635  -14.6887   29.4408 O   0  0  0  0  0  0  0  0  0  0  0  0
    9.9690  -16.3307   28.5989 O   0  0  0  0  0  0  0  0  0  0  0  0
  2  1  1  6
  3  2  1  0
  4  2  1  0
  5  4  1  0
  5  6  1  1
  7  8  2  0
  7  5  1  0
  9  7  1  0
 10  9  1  0
 11 10  1  0
 11 13  1  0
 12 11  2  0
 14 13  1  0
 14 15  1  1
 15 16  1  0
 17 18  1  0
 17 14  1  0
 19 17  2  0
M  END
$$$$
