LGC.pdb
     RDKit          3D

 19 18  0  0  1  0  0  0  0  0999 V2000
    7.3176  -14.2783   19.5574 C   0  0  0  0  0  0  0  0  0  0  0  0
    7.3057  -13.6705   20.9244 C   0  0  2  0  0  0  0  0  0  0  0  0
    6.9716  -12.1975   20.8535 C   0  0  0  0  0  0  0  0  0  0  0  0
    8.6044  -13.9259   21.6634 C   0  0  0  0  0  0  0  0  0  0  0  0
    8.7775  -15.4258   21.7455 C   0  0  2  0  0  0  0  0  0  0  0  0
    7.7176  -15.9436   22.5909 N   0  0  0  0  0  0  0  0  0  0  0  0
   10.0819  -15.7359   22.4096 C   0  0  0  0  0  0  0  0  0  0  0  0
   11.1695  -15.3031   21.9107 O   0  0  0  0  0  0  0  0  0  0  0  0
   10.1492  -16.5028   23.5868 N   0  0  0  0  0  0  0  0  0  0  0  0
   11.4183  -16.7884   24.1768 C   0  0  0  0  0  0  0  0  0  0  0  0
   11.5426  -16.2246   25.5488 C   0  0  0  0  0  0  0  0  0  0  0  0
   12.6356  -16.3181   26.1370 O   0  0  0  0  0  0  0  0  0  0  0  0
   10.4624  -15.5843   26.2119 N   0  0  0  0  0  0  0  0  0  0  0  0
   10.5857  -15.0600   27.5575 C   0  0  1  0  0  0  0  0  0  0  0  0
    9.4618  -14.1119   27.9067 C   0  0  0  0  0  0  0  0  0  0  0  0
    9.0134  -13.1272   26.4666 S   0  0  0  0  0  0  0  0  0  0  0  0
   10.4982  -16.2125   28.4914 C   0  0  0  0  0  0  0  0  0  0  0  0
   10.8096  -16.0726   29.8414 O   0  0  0  0  0  0  0  0  0  0  0  0
   10.1429  -17.3591   28.1148 O   0  0  0  0  0  0  0  0  0  0  0  0
  2  1  1  6
  3  2  1  0
  4  2  1  0
  5  4  1  0
  5  6  1  1
  7  8  2  0
  7  5  1  0
  9  7  1  0
 10  9  1  0
 11 10  1  0
 11 13  1  0
 12 11  2  0
 14 13  1  0
 14 15  1  1
 15 16  1  0
 17 18  1  0
 17 14  1  0
 19 17  2  0
M  END
$$$$
