LGC.pdb
     RDKit          3D

 19 18  0  0  1  0  0  0  0  0999 V2000
    7.8784  -14.2146   19.2210 C   0  0  0  0  0  0  0  0  0  0  0  0
    7.5439  -13.6812   20.5781 C   0  0  2  0  0  0  0  0  0  0  0  0
    7.1606  -12.2205   20.5008 C   0  0  0  0  0  0  0  0  0  0  0  0
    8.6649  -13.9251   21.5689 C   0  0  0  0  0  0  0  0  0  0  0  0
    8.9337  -15.4131   21.5732 C   0  0  2  0  0  0  0  0  0  0  0  0
    7.8473  -16.0526   22.2921 N   0  0  0  0  0  0  0  0  0  0  0  0
   10.1986  -15.6834   22.3255 C   0  0  0  0  0  0  0  0  0  0  0  0
   11.3043  -15.2192   21.9001 O   0  0  0  0  0  0  0  0  0  0  0  0
   10.2082  -16.4461   23.5073 N   0  0  0  0  0  0  0  0  0  0  0  0
   11.4440  -16.7069   24.1742 C   0  0  0  0  0  0  0  0  0  0  0  0
   11.4593  -16.1730   25.5636 C   0  0  0  0  0  0  0  0  0  0  0  0
   12.5306  -16.1856   26.1974 O   0  0  0  0  0  0  0  0  0  0  0  0
   10.2990  -15.6501   26.1933 N   0  0  0  0  0  0  0  0  0  0  0  0
   10.3335  -15.0881   27.5288 C   0  0  1  0  0  0  0  0  0  0  0  0
    9.0853  -14.2986   27.8493 C   0  0  0  0  0  0  0  0  0  0  0  0
    8.7427  -13.1211   26.5301 S   0  0  0  0  0  0  0  0  0  0  0  0
   10.3964  -16.2235   28.4854 C   0  0  0  0  0  0  0  0  0  0  0  0
   10.6380  -16.0129   29.8405 O   0  0  0  0  0  0  0  0  0  0  0  0
   10.2366  -17.4180   28.1244 O   0  0  0  0  0  0  0  0  0  0  0  0
  2  1  1  6
  3  2  1  0
  4  2  1  0
  5  4  1  0
  5  6  1  1
  7  8  2  0
  7  5  1  0
  9  7  1  0
 10  9  1  0
 11 10  1  0
 11 13  1  0
 12 11  2  0
 14 13  1  0
 14 15  1  1
 15 16  1  0
 17 18  1  0
 17 14  1  0
 19 17  2  0
M  END
$$$$
