TPN.pdb
     RDKit          3D

 23 23  0  0  1  0  0  0  0  0999 V2000
   24.0498  -17.4802  -15.4355 C   0  0  0  0  0  0  0  0  0  0  0  0
   23.4139  -18.4803  -16.3771 C   0  0  1  0  0  0  0  0  0  0  0  0
   22.9677  -17.8047  -17.5012 O   0  0  0  0  0  0  0  0  0  0  0  0
   24.4695  -19.5189  -16.7076 C   0  0  2  0  0  0  0  0  0  0  0  0
   23.9440  -20.3772  -17.7089 N   0  0  0  0  0  0  0  0  0  0  0  0
   24.9077  -20.2567  -15.5221 C   0  0  0  0  0  0  0  0  0  0  0  0
   24.0707  -21.0628  -14.9612 O   0  0  0  0  0  0  0  0  0  0  0  0
   26.2084  -20.1064  -14.9874 N   0  0  0  0  0  0  0  0  0  0  0  0
   27.2661  -19.2956  -15.5179 C   0  0  0  0  0  0  0  0  0  0  0  0
   28.4754  -19.4816  -14.6146 C   0  0  0  0  0  0  0  0  0  0  0  0
   28.1147  -20.6812  -13.7995 C   0  0  0  0  0  0  0  0  0  0  0  0
   26.6319  -20.7923  -13.7795 C   0  0  1  0  0  0  0  0  0  0  0  0
   25.9713  -20.2716  -12.5788 C   0  0  0  0  0  0  0  0  0  0  0  0
   25.6997  -19.0230  -12.5261 O   0  0  0  0  0  0  0  0  0  0  0  0
   22.4389  -21.8997   -7.8855 N   0  0  0  0  0  0  0  0  0  0  0  0
   23.1208  -20.9052   -8.6460 C   0  0  0  0  0  0  0  0  0  0  0  0
   23.1226  -19.7477   -8.1893 O   0  0  0  0  0  0  0  0  0  0  0  0
   23.7613  -21.3052   -9.8905 C   0  0  0  0  0  0  0  0  0  0  0  0
   24.9479  -20.4605  -10.2644 C   0  0  2  0  0  0  0  0  0  0  0  0
   25.6010  -21.0310  -11.4583 N   0  0  0  0  0  0  0  0  0  0  0  0
   26.0088  -20.4515   -9.2396 C   0  0  0  0  0  0  0  0  0  0  0  0
   26.9539  -21.4428   -9.2010 O   0  0  0  0  0  0  0  0  0  0  0  0
   26.0647  -19.5417   -8.3889 O   0  0  0  0  0  0  0  0  0  0  0  0
  2  1  1  1
  2  3  1  0
  4  2  1  0
  4  5  1  6
  6  8  1  0
  6  4  1  0
  7  6  2  0
  8 12  1  0
  9 10  1  0
  9  8  1  0
 10 11  1  0
 11 12  1  0
 12 13  1  1
 13 20  1  0
 14 13  2  0
 16 17  2  0
 16 15  1  0
 18 16  1  0
 19 20  1  0
 19 21  1  0
 19 18  1  1
 21 23  2  0
 21 22  1  0
M  END
$$$$
