TPN.pdb
     RDKit          3D

 23 23  0  0  1  0  0  0  0  0999 V2000
   26.2298  -23.9248  -18.8643 C   0  0  0  0  0  0  0  0  0  0  0  0
   26.7788  -25.0733  -18.0454 C   0  0  1  0  0  0  0  0  0  0  0  0
   27.5556  -25.8705  -18.8703 O   0  0  0  0  0  0  0  0  0  0  0  0
   27.5775  -24.4696  -16.9054 C   0  0  2  0  0  0  0  0  0  0  0  0
   28.1648  -25.5316  -16.1687 N   0  0  0  0  0  0  0  0  0  0  0  0
   26.7605  -23.5973  -16.0607 C   0  0  0  0  0  0  0  0  0  0  0  0
   25.8782  -24.1430  -15.2933 O   0  0  0  0  0  0  0  0  0  0  0  0
   26.9157  -22.1915  -16.0685 N   0  0  0  0  0  0  0  0  0  0  0  0
   27.7862  -21.4287  -16.9158 C   0  0  0  0  0  0  0  0  0  0  0  0
   27.6218  -19.9658  -16.5336 C   0  0  0  0  0  0  0  0  0  0  0  0
   26.8964  -20.0306  -15.2286 C   0  0  0  0  0  0  0  0  0  0  0  0
   26.1686  -21.3262  -15.1730 C   0  0  1  0  0  0  0  0  0  0  0  0
   24.7427  -21.2696  -15.5089 C   0  0  0  0  0  0  0  0  0  0  0  0
   24.3574  -21.7789  -16.6169 O   0  0  0  0  0  0  0  0  0  0  0  0
   21.2216  -24.7584  -14.9331 N   0  0  0  0  0  0  0  0  0  0  0  0
   21.1435  -23.3411  -14.7994 C   0  0  0  0  0  0  0  0  0  0  0  0
   20.0662  -22.8029  -15.1127 O   0  0  0  0  0  0  0  0  0  0  0  0
   22.3146  -22.6274  -14.3114 C   0  0  0  0  0  0  0  0  0  0  0  0
   22.3430  -21.1722  -14.6894 C   0  0  2  0  0  0  0  0  0  0  0  0
   23.7398  -20.6970  -14.7117 N   0  0  0  0  0  0  0  0  0  0  0  0
   21.6773  -20.2969  -13.7064 C   0  0  0  0  0  0  0  0  0  0  0  0
   22.2162  -20.1049  -12.4614 O   0  0  0  0  0  0  0  0  0  0  0  0
   20.6112  -19.7159  -13.9901 O   0  0  0  0  0  0  0  0  0  0  0  0
  2  1  1  6
  2  3  1  0
  4  2  1  0
  4  5  1  1
  6  8  1  0
  6  4  1  0
  7  6  2  0
  8 12  1  0
  9 10  1  0
  9  8  1  0
 10 11  1  0
 11 12  1  0
 12 13  1  6
 13 20  1  0
 14 13  2  0
 16 17  2  0
 16 15  1  0
 18 16  1  0
 19 20  1  0
 19 21  1  0
 19 18  1  1
 21 23  2  0
 21 22  1  0
M  END
$$$$
