TPN.pdb
     RDKit          3D

 23 23  0  0  1  0  0  0  0  0999 V2000
   17.1872  -10.7758  -11.0633 C   0  0  0  0  0  0  0  0  0  0  0  0
   15.9381  -10.7050  -11.9153 C   0  0  1  0  0  0  0  0  0  0  0  0
   15.3476  -11.9580  -11.9359 O   0  0  0  0  0  0  0  0  0  0  0  0
   15.0360   -9.6506  -11.3016 C   0  0  2  0  0  0  0  0  0  0  0  0
   13.7750   -9.7187  -11.9502 N   0  0  0  0  0  0  0  0  0  0  0  0
   15.6230   -8.3119  -11.3748 C   0  0  0  0  0  0  0  0  0  0  0  0
   15.9527   -7.8528  -12.5347 O   0  0  0  0  0  0  0  0  0  0  0  0
   15.8329   -7.5244  -10.2189 N   0  0  0  0  0  0  0  0  0  0  0  0
   15.4906   -7.8715   -8.8699 C   0  0  0  0  0  0  0  0  0  0  0  0
   15.8853   -6.6980   -7.9866 C   0  0  0  0  0  0  0  0  0  0  0  0
   16.1247   -5.5952   -8.9665 C   0  0  0  0  0  0  0  0  0  0  0  0
   16.4519   -6.2121  -10.2794 C   0  0  1  0  0  0  0  0  0  0  0  0
   17.8780   -6.2803  -10.6122 C   0  0  0  0  0  0  0  0  0  0  0  0
   18.5581   -7.2723  -10.1776 O   0  0  0  0  0  0  0  0  0  0  0  0
   22.0742   -6.2183  -13.5523 N   0  0  0  0  0  0  0  0  0  0  0  0
   20.9977   -7.1519  -13.6000 C   0  0  0  0  0  0  0  0  0  0  0  0
   21.1385   -8.1387  -14.3448 O   0  0  0  0  0  0  0  0  0  0  0  0
   19.8204   -6.8915  -12.7843 C   0  0  0  0  0  0  0  0  0  0  0  0
   19.8916   -5.6087  -12.0030 C   0  0  2  0  0  0  0  0  0  0  0  0
   18.5816   -5.3393  -11.3794 N   0  0  0  0  0  0  0  0  0  0  0  0
   20.1448   -4.4228  -12.8427 C   0  0  0  0  0  0  0  0  0  0  0  0
   21.4007   -3.8820  -12.9306 O   0  0  0  0  0  0  0  0  0  0  0  0
   19.2203   -3.8900  -13.4876 O   0  0  0  0  0  0  0  0  0  0  0  0
  2  1  1  1
  2  3  1  0
  4  2  1  0
  4  5  1  6
  6  8  1  0
  6  4  1  0
  7  6  2  0
  8 12  1  0
  9 10  1  0
  9  8  1  0
 10 11  1  0
 11 12  1  0
 12 13  1  1
 13 20  1  0
 14 13  2  0
 16 17  2  0
 16 15  1  0
 18 16  1  0
 19 20  1  0
 19 21  1  0
 19 18  1  6
 21 23  2  0
 21 22  1  0
M  END
$$$$
