TPN.pdb
     RDKit          3D

 23 23  0  0  1  0  0  0  0  0999 V2000
   20.6905  -18.9177  -14.0701 C   0  0  0  0  0  0  0  0  0  0  0  0
   20.4154  -19.7574  -12.8411 C   0  0  1  0  0  0  0  0  0  0  0  0
   19.1405  -20.2890  -12.9473 O   0  0  0  0  0  0  0  0  0  0  0  0
   21.4864  -20.8305  -12.7823 C   0  0  2  0  0  0  0  0  0  0  0  0
   21.3949  -21.6089  -13.9660 N   0  0  0  0  0  0  0  0  0  0  0  0
   21.3817  -21.6490  -11.5736 C   0  0  0  0  0  0  0  0  0  0  0  0
   20.7665  -22.7804  -11.6543 O   0  0  0  0  0  0  0  0  0  0  0  0
   21.9316  -21.2318  -10.3392 N   0  0  0  0  0  0  0  0  0  0  0  0
   22.7179  -20.0555  -10.1036 C   0  0  0  0  0  0  0  0  0  0  0  0
   23.0994  -20.0536   -8.6313 C   0  0  0  0  0  0  0  0  0  0  0  0
   22.7757  -21.4444   -8.1903 C   0  0  0  0  0  0  0  0  0  0  0  0
   21.7465  -21.9901   -9.1146 C   0  0  1  0  0  0  0  0  0  0  0  0
   20.3644  -21.9402   -8.6284 C   0  0  0  0  0  0  0  0  0  0  0  0
   19.5519  -21.1248   -9.1855 O   0  0  0  0  0  0  0  0  0  0  0  0
   16.1222  -24.6793   -7.8966 N   0  0  0  0  0  0  0  0  0  0  0  0
   17.0690  -24.8568   -8.9477 C   0  0  0  0  0  0  0  0  0  0  0  0
   16.7428  -25.6141   -9.8796 O   0  0  0  0  0  0  0  0  0  0  0  0
   18.3381  -24.1490   -8.8616 C   0  0  0  0  0  0  0  0  0  0  0  0
   18.4906  -23.3201   -7.6163 C   0  0  2  0  0  0  0  0  0  0  0  0
   19.8383  -22.7199   -7.5870 N   0  0  0  0  0  0  0  0  0  0  0  0
   18.4177  -24.1097   -6.3725 C   0  0  0  0  0  0  0  0  0  0  0  0
   17.2740  -24.1240   -5.6180 O   0  0  0  0  0  0  0  0  0  0  0  0
   19.3958  -24.7783   -5.9843 O   0  0  0  0  0  0  0  0  0  0  0  0
  2  1  1  6
  2  3  1  0
  4  2  1  0
  4  5  1  6
  6  8  1  0
  6  4  1  0
  7  6  2  0
  8 12  1  0
  9 10  1  0
  9  8  1  0
 10 11  1  0
 11 12  1  0
 12 13  1  1
 13 20  1  0
 14 13  2  0
 16 17  2  0
 16 15  1  0
 18 16  1  0
 19 20  1  0
 19 21  1  0
 19 18  1  6
 21 23  2  0
 21 22  1  0
M  END
$$$$
