TPN.pdb
     RDKit          3D

 23 23  0  0  1  0  0  0  0  0999 V2000
   13.3274   -6.9236   -9.7431 C   0  0  0  0  0  0  0  0  0  0  0  0
   14.6899   -6.7639  -10.3829 C   0  0  1  0  0  0  0  0  0  0  0  0
   15.0183   -5.4181  -10.3896 O   0  0  0  0  0  0  0  0  0  0  0  0
   15.6667   -7.5936   -9.5707 C   0  0  2  0  0  0  0  0  0  0  0  0
   15.6736   -7.0907   -8.2431 N   0  0  0  0  0  0  0  0  0  0  0  0
   17.0049   -7.6071  -10.1631 C   0  0  0  0  0  0  0  0  0  0  0  0
   17.8665   -6.7431   -9.7435 O   0  0  0  0  0  0  0  0  0  0  0  0
   17.3667   -8.5324  -11.1697 N   0  0  0  0  0  0  0  0  0  0  0  0
   16.5436   -9.5728  -11.7153 C   0  0  0  0  0  0  0  0  0  0  0  0
   17.3791  -10.3175  -12.7451 C   0  0  0  0  0  0  0  0  0  0  0  0
   18.7697   -9.8474  -12.4648 C   0  0  0  0  0  0  0  0  0  0  0  0
   18.6791   -8.5247  -11.7913 C   0  0  1  0  0  0  0  0  0  0  0  0
   18.8838   -7.3567  -12.6532 C   0  0  0  0  0  0  0  0  0  0  0  0
   17.8555   -6.7551  -13.1181 O   0  0  0  0  0  0  0  0  0  0  0  0
   20.7600   -2.9097  -14.4152 N   0  0  0  0  0  0  0  0  0  0  0  0
   19.8264   -3.1024  -13.3551 C   0  0  0  0  0  0  0  0  0  0  0  0
   19.2755   -2.0854  -12.8960 O   0  0  0  0  0  0  0  0  0  0  0  0
   19.5832   -4.4589  -12.8863 C   0  0  0  0  0  0  0  0  0  0  0  0
   20.2947   -5.5164  -13.6841 C   0  0  2  0  0  0  0  0  0  0  0  0
   20.1288   -6.8255  -13.0237 N   0  0  0  0  0  0  0  0  0  0  0  0
   21.7557   -5.3229  -13.7448 C   0  0  0  0  0  0  0  0  0  0  0  0
   22.5287   -5.4682  -12.6228 O   0  0  0  0  0  0  0  0  0  0  0  0
   22.3143   -5.0228  -14.8183 O   0  0  0  0  0  0  0  0  0  0  0  0
  2  1  1  1
  2  3  1  0
  4  2  1  0
  4  5  1  1
  6  8  1  0
  6  4  1  0
  7  6  2  0
  8 12  1  0
  9 10  1  0
  9  8  1  0
 10 11  1  0
 11 12  1  0
 12 13  1  6
 13 20  1  0
 14 13  2  0
 16 17  2  0
 16 15  1  0
 18 16  1  0
 19 20  1  0
 19 21  1  0
 19 18  1  1
 21 23  2  0
 21 22  1  0
M  END
$$$$
