TPN.pdb
     RDKit          3D

 23 23  0  0  1  0  0  0  0  0999 V2000
   23.8159  -10.8696  -20.1266 C   0  0  0  0  0  0  0  0  0  0  0  0
   22.8111  -11.8390  -19.5420 C   0  0  1  0  0  0  0  0  0  0  0  0
   22.6036  -12.8613  -20.4537 O   0  0  0  0  0  0  0  0  0  0  0  0
   23.3838  -12.3415  -18.2300 C   0  0  2  0  0  0  0  0  0  0  0  0
   22.6101  -13.4552  -17.8098 N   0  0  0  0  0  0  0  0  0  0  0  0
   23.4370  -11.2908  -17.2126 C   0  0  0  0  0  0  0  0  0  0  0  0
   22.3237  -10.7940  -16.7899 O   0  0  0  0  0  0  0  0  0  0  0  0
   24.6636  -10.8164  -16.6924 N   0  0  0  0  0  0  0  0  0  0  0  0
   25.9799  -11.2238  -17.0909 C   0  0  0  0  0  0  0  0  0  0  0  0
   26.9712  -10.4568  -16.2295 C   0  0  0  0  0  0  0  0  0  0  0  0
   26.1176   -9.8978  -15.1376 C   0  0  0  0  0  0  0  0  0  0  0  0
   24.7225   -9.8119  -15.6454 C   0  0  1  0  0  0  0  0  0  0  0  0
   24.2962   -8.4896  -16.1132 C   0  0  0  0  0  0  0  0  0  0  0  0
   24.2786   -8.2654  -17.3721 O   0  0  0  0  0  0  0  0  0  0  0  0
   21.1690   -4.4516  -16.4928 N   0  0  0  0  0  0  0  0  0  0  0  0
   20.8380   -5.8139  -16.7516 C   0  0  0  0  0  0  0  0  0  0  0  0
   19.7462   -6.0342  -17.3065 O   0  0  0  0  0  0  0  0  0  0  0  0
   21.7875   -6.8433  -16.3545 C   0  0  0  0  0  0  0  0  0  0  0  0
   23.0575   -6.3036  -15.7571 C   0  0  2  0  0  0  0  0  0  0  0  0
   23.8971   -7.4242  -15.2916 N   0  0  0  0  0  0  0  0  0  0  0  0
   22.8376   -5.4879  -14.5479 C   0  0  0  0  0  0  0  0  0  0  0  0
   23.0547   -4.1352  -14.5664 O   0  0  0  0  0  0  0  0  0  0  0  0
   22.4506   -6.0147  -13.4862 O   0  0  0  0  0  0  0  0  0  0  0  0
  2  1  1  6
  2  3  1  0
  4  2  1  0
  4  5  1  1
  6  8  1  0
  6  4  1  0
  7  6  2  0
  8 12  1  0
  9 10  1  0
  9  8  1  0
 10 11  1  0
 11 12  1  0
 12 13  1  6
 13 20  1  0
 14 13  2  0
 16 17  2  0
 16 15  1  0
 18 16  1  0
 19 20  1  0
 19 21  1  0
 19 18  1  1
 21 23  2  0
 21 22  1  0
M  END
$$$$
