GNC.pdb
     RDKit          3D

 19 18  0  0  1  0  0  0  0  0999 V2000
    4.6445  -19.5943   22.2906 N   0  0  0  0  0  0  0  0  0  0  0  0
    4.4982  -18.1662   22.3934 C   0  0  0  0  0  0  0  0  0  0  0  0
    5.7506  -17.4983   21.9032 C   0  0  0  0  0  0  0  0  0  0  0  0
    6.8193  -18.1373   21.7478 O   0  0  0  0  0  0  0  0  0  0  0  0
    7.9805  -12.1156   19.9267 N   0  0  0  0  0  0  0  0  0  0  0  0
    7.7642  -13.5220   19.7644 C   0  0  0  0  0  0  0  0  0  0  0  0
    8.6008  -14.1228   19.0549 O   0  0  0  0  0  0  0  0  0  0  0  0
    6.6267  -14.2001   20.3985 C   0  0  0  0  0  0  0  0  0  0  0  0
    6.9769  -15.4200   21.1989 C   0  0  2  0  0  0  0  0  0  0  0  0
    5.7429  -16.1269   21.6070 N   0  0  0  0  0  0  0  0  0  0  0  0
    7.5888  -14.9624   22.4987 C   0  0  0  0  0  0  0  0  0  0  0  0
    7.2734  -13.8778   23.0576 O   0  0  0  0  0  0  0  0  0  0  0  0
    8.5695  -15.7386   23.1765 N   0  0  0  0  0  0  0  0  0  0  0  0
    9.0768  -15.3326   24.4622 C   0  0  1  0  0  0  0  0  0  0  0  0
    7.9511  -15.2142   25.4898 C   0  0  0  0  0  0  0  0  0  0  0  0
    8.3550  -13.8572   26.6238 S   0  0  0  0  0  0  0  0  0  0  0  0
   10.1304  -16.2453   24.9668 C   0  0  0  0  0  0  0  0  0  0  0  0
   10.9310  -15.9243   26.0547 O   0  0  0  0  0  0  0  0  0  0  0  0
   10.3337  -17.3561   24.4152 O   0  0  0  0  0  0  0  0  0  0  0  0
  1  2  1  0
  2  3  1  0
  3  4  2  0
  5  6  1  0
  6  7  2  0
  8  6  1  0
  9  8  1  6
 10  3  1  0
 10  9  1  0
 11  9  1  0
 11 13  1  0
 12 11  2  0
 14 13  1  0
 14 15  1  1
 16 15  1  0
 17 14  1  0
 18 17  1  0
 19 17  2  0
M  END
$$$$
