GNC.pdb
     RDKit          3D

 19 18  0  0  1  0  0  0  0  0999 V2000
    4.6951  -18.7490   21.4119 N   0  0  0  0  0  0  0  0  0  0  0  0
    4.7601  -17.3169   21.5392 C   0  0  0  0  0  0  0  0  0  0  0  0
    6.1968  -16.8806   21.5561 C   0  0  0  0  0  0  0  0  0  0  0  0
    7.1258  -17.6858   21.8074 O   0  0  0  0  0  0  0  0  0  0  0  0
    7.1570  -12.7400   18.4384 N   0  0  0  0  0  0  0  0  0  0  0  0
    7.8631  -13.7761   19.1304 C   0  0  0  0  0  0  0  0  0  0  0  0
    8.3250  -14.6917   18.4144 O   0  0  0  0  0  0  0  0  0  0  0  0
    8.0257  -13.7495   20.5895 C   0  0  0  0  0  0  0  0  0  0  0  0
    7.9327  -15.0856   21.2659 C   0  0  2  0  0  0  0  0  0  0  0  0
    6.5259  -15.5436   21.2865 N   0  0  0  0  0  0  0  0  0  0  0  0
    8.2815  -14.8949   22.7203 C   0  0  0  0  0  0  0  0  0  0  0  0
    8.0156  -13.8382   23.3535 O   0  0  0  0  0  0  0  0  0  0  0  0
    8.9392  -15.9095   23.4698 N   0  0  0  0  0  0  0  0  0  0  0  0
    9.1841  -15.7476   24.8800 C   0  0  1  0  0  0  0  0  0  0  0  0
    7.8753  -15.7139   25.6695 C   0  0  0  0  0  0  0  0  0  0  0  0
    7.1152  -14.0826   25.4434 S   0  0  0  0  0  0  0  0  0  0  0  0
   10.0766  -16.7999   25.4221 C   0  0  0  0  0  0  0  0  0  0  0  0
   10.5468  -16.7732   26.7281 O   0  0  0  0  0  0  0  0  0  0  0  0
   10.4405  -17.7642   24.7030 O   0  0  0  0  0  0  0  0  0  0  0  0
  1  2  1  0
  2  3  1  0
  3  4  2  0
  5  6  1  0
  6  7  2  0
  8  6  1  0
  9  8  1  6
 10  3  1  0
 10  9  1  0
 11  9  1  0
 11 13  1  0
 12 11  2  0
 14 13  1  0
 14 15  1  1
 16 15  1  0
 17 14  1  0
 18 17  1  0
 19 17  2  0
M  END
$$$$
