GNC.pdb
     RDKit          3D

 19 18  0  0  1  0  0  0  0  0999 V2000
    7.8924  -12.4152   19.0944 N   0  0  0  0  0  0  0  0  0  0  0  0
    8.8261  -13.2220   19.8352 C   0  0  0  0  0  0  0  0  0  0  0  0
    8.1069  -13.9209   20.9529 C   0  0  0  0  0  0  0  0  0  0  0  0
    6.8791  -13.7540   21.1510 O   0  0  0  0  0  0  0  0  0  0  0  0
    9.0998  -18.2104   20.7806 N   0  0  0  0  0  0  0  0  0  0  0  0
    8.1428  -17.7260   21.7295 C   0  0  0  0  0  0  0  0  0  0  0  0
    6.9481  -18.0080   21.4898 O   0  0  0  0  0  0  0  0  0  0  0  0
    8.5555  -16.9487   22.9048 C   0  0  0  0  0  0  0  0  0  0  0  0
    8.1280  -15.5104   22.9003 C   0  0  2  0  0  0  0  0  0  0  0  0
    8.8100  -14.7850   21.8058 N   0  0  0  0  0  0  0  0  0  0  0  0
    8.6551  -14.8655   24.1571 C   0  0  0  0  0  0  0  0  0  0  0  0
    9.8723  -14.5831   24.3210 O   0  0  0  0  0  0  0  0  0  0  0  0
    7.7977  -14.5351   25.2431 N   0  0  0  0  0  0  0  0  0  0  0  0
    8.3277  -13.9858   26.4647 C   0  0  1  0  0  0  0  0  0  0  0  0
    7.2982  -13.0998   27.1665 C   0  0  0  0  0  0  0  0  0  0  0  0
    6.6839  -11.8826   25.9701 S   0  0  0  0  0  0  0  0  0  0  0  0
    8.8099  -15.0363   27.3930 C   0  0  0  0  0  0  0  0  0  0  0  0
    9.4253  -14.7336   28.6001 O   0  0  0  0  0  0  0  0  0  0  0  0
    8.6736  -16.2531   27.1100 O   0  0  0  0  0  0  0  0  0  0  0  0
  1  2  1  0
  2  3  1  0
  3  4  2  0
  5  6  1  0
  6  7  2  0
  8  6  1  0
  9  8  1  1
 10  3  1  0
 10  9  1  0
 11  9  1  0
 11 13  1  0
 12 11  2  0
 14 13  1  0
 14 15  1  1
 16 15  1  0
 17 14  1  0
 18 17  1  0
 19 17  2  0
M  END
$$$$
