GNC.pdb
     RDKit          3D

 19 18  0  0  1  0  0  0  0  0999 V2000
    5.8395  -19.4336   21.0859 N   0  0  0  0  0  0  0  0  0  0  0  0
    5.6648  -18.0594   21.4764 C   0  0  0  0  0  0  0  0  0  0  0  0
    6.9842  -17.3463   21.4022 C   0  0  0  0  0  0  0  0  0  0  0  0
    8.0545  -17.9642   21.1847 O   0  0  0  0  0  0  0  0  0  0  0  0
    8.2011  -15.4131   18.6595 N   0  0  0  0  0  0  0  0  0  0  0  0
    8.0435  -14.1274   19.2703 C   0  0  0  0  0  0  0  0  0  0  0  0
    7.8185  -13.1775   18.4885 O   0  0  0  0  0  0  0  0  0  0  0  0
    8.1426  -13.9532   20.7249 C   0  0  0  0  0  0  0  0  0  0  0  0
    8.3217  -15.2205   21.5081 C   0  0  2  0  0  0  0  0  0  0  0  0
    7.0395  -15.9555   21.5782 N   0  0  0  0  0  0  0  0  0  0  0  0
    8.6120  -14.8446   22.9391 C   0  0  0  0  0  0  0  0  0  0  0  0
    9.6756  -14.2677   23.2914 O   0  0  0  0  0  0  0  0  0  0  0  0
    7.6903  -15.1236   23.9862 N   0  0  0  0  0  0  0  0  0  0  0  0
    8.0356  -14.8759   25.3626 C   0  0  1  0  0  0  0  0  0  0  0  0
    6.7902  -14.6011   26.2056 C   0  0  0  0  0  0  0  0  0  0  0  0
    5.9748  -13.1187   25.5514 S   0  0  0  0  0  0  0  0  0  0  0  0
    8.8157  -15.9875   25.9573 C   0  0  0  0  0  0  0  0  0  0  0  0
    9.2426  -15.9703   27.2782 O   0  0  0  0  0  0  0  0  0  0  0  0
    9.1190  -16.9960   25.2715 O   0  0  0  0  0  0  0  0  0  0  0  0
  1  2  1  0
  2  3  1  0
  3  4  2  0
  5  6  1  0
  6  7  2  0
  8  6  1  0
  9  8  1  6
 10  3  1  0
 10  9  1  0
 11  9  1  0
 11 13  1  0
 12 11  2  0
 14 13  1  0
 14 15  1  1
 16 15  1  0
 17 14  1  0
 18 17  1  0
 19 17  2  0
M  END
$$$$
