GNC.pdb
     RDKit          3D

 19 18  0  0  1  0  0  0  0  0999 V2000
    2.0365  -19.6743   13.9571 N   0  0  0  0  0  0  0  0  0  0  0  0
    3.1048  -19.4321   14.8907 C   0  0  0  0  0  0  0  0  0  0  0  0
    2.9462  -20.3370   16.0786 C   0  0  0  0  0  0  0  0  0  0  0  0
    1.9622  -21.1074   16.1918 O   0  0  0  0  0  0  0  0  0  0  0  0
    4.7550  -24.6730   18.2895 N   0  0  0  0  0  0  0  0  0  0  0  0
    4.7161  -23.3974   17.6396 C   0  0  0  0  0  0  0  0  0  0  0  0
    4.5149  -23.4214   16.4054 O   0  0  0  0  0  0  0  0  0  0  0  0
    4.9026  -22.1494   18.3904 C   0  0  0  0  0  0  0  0  0  0  0  0
    3.7639  -21.1762   18.3026 C   0  0  2  0  0  0  0  0  0  0  0  0
    3.9127  -20.3334   17.0956 N   0  0  0  0  0  0  0  0  0  0  0  0
    3.8927  -20.2063   19.4498 C   0  0  0  0  0  0  0  0  0  0  0  0
    4.7533  -19.2860   19.4727 O   0  0  0  0  0  0  0  0  0  0  0  0
    3.0394  -20.2761   20.5860 N   0  0  0  0  0  0  0  0  0  0  0  0
    3.2298  -19.3960   21.7104 C   0  0  1  0  0  0  0  0  0  0  0  0
    1.9159  -19.1542   22.4536 C   0  0  0  0  0  0  0  0  0  0  0  0
    0.6486  -18.7001   21.2378 S   0  0  0  0  0  0  0  0  0  0  0  0
    4.2600  -19.8975   22.6512 C   0  0  0  0  0  0  0  0  0  0  0  0
    4.6655  -19.1714   23.7628 O   0  0  0  0  0  0  0  0  0  0  0  0
    4.8062  -21.0143   22.4672 O   0  0  0  0  0  0  0  0  0  0  0  0
  1  2  1  0
  2  3  1  0
  3  4  2  0
  5  6  1  0
  6  7  2  0
  8  6  1  0
  9  8  1  1
 10  3  1  0
 10  9  1  0
 11  9  1  0
 11 13  1  0
 12 11  2  0
 14 13  1  0
 14 15  1  1
 16 15  1  0
 17 14  1  0
 18 17  1  0
 19 17  2  0
M  END
$$$$
