GNC.pdb
     RDKit          3D

 19 18  0  0  1  0  0  0  0  0999 V2000
    6.0854  -19.1215   20.7099 N   0  0  0  0  0  0  0  0  0  0  0  0
    5.8092  -17.8417   21.3077 C   0  0  0  0  0  0  0  0  0  0  0  0
    7.0599  -17.0106   21.3111 C   0  0  0  0  0  0  0  0  0  0  0  0
    8.1563  -17.4702   20.9097 O   0  0  0  0  0  0  0  0  0  0  0  0
    8.3960  -12.4667   18.8235 N   0  0  0  0  0  0  0  0  0  0  0  0
    7.8320  -13.5301   19.5994 C   0  0  0  0  0  0  0  0  0  0  0  0
    7.3177  -14.4656   18.9478 O   0  0  0  0  0  0  0  0  0  0  0  0
    7.8644  -13.5078   21.0672 C   0  0  0  0  0  0  0  0  0  0  0  0
    8.2135  -14.8143   21.7173 C   0  0  2  0  0  0  0  0  0  0  0  0
    7.0190  -15.6858   21.7713 N   0  0  0  0  0  0  0  0  0  0  0  0
    8.5383  -14.5408   23.1640 C   0  0  0  0  0  0  0  0  0  0  0  0
    9.5163  -13.8312   23.5220 O   0  0  0  0  0  0  0  0  0  0  0  0
    7.7495  -15.0752   24.2204 N   0  0  0  0  0  0  0  0  0  0  0  0
    8.1534  -14.9259   25.5950 C   0  0  1  0  0  0  0  0  0  0  0  0
    6.9637  -14.5698   26.4866 C   0  0  0  0  0  0  0  0  0  0  0  0
    6.1361  -13.1185   25.7801 S   0  0  0  0  0  0  0  0  0  0  0  0
    8.8349  -16.1345   26.1171 C   0  0  0  0  0  0  0  0  0  0  0  0
    9.3516  -16.1968   27.4042 O   0  0  0  0  0  0  0  0  0  0  0  0
    8.9674  -17.1564   25.3977 O   0  0  0  0  0  0  0  0  0  0  0  0
  1  2  1  0
  2  3  1  0
  3  4  2  0
  5  6  1  0
  6  7  2  0
  8  6  1  0
  9  8  1  6
 10  3  1  0
 10  9  1  0
 11  9  1  0
 11 13  1  0
 12 11  2  0
 14 13  1  0
 14 15  1  1
 16 15  1  0
 17 14  1  0
 18 17  1  0
 19 17  2  0
M  END
$$$$
