GNC.pdb
     RDKit          3D

 19 18  0  0  1  0  0  0  0  0999 V2000
    8.6841  -18.2031   21.6150 N   0  0  0  0  0  0  0  0  0  0  0  0
    7.8753  -17.6363   22.6619 C   0  0  0  0  0  0  0  0  0  0  0  0
    8.4193  -16.2889   23.0408 C   0  0  0  0  0  0  0  0  0  0  0  0
    9.4773  -15.8411   22.5361 O   0  0  0  0  0  0  0  0  0  0  0  0
    5.6631  -12.4814   26.5099 N   0  0  0  0  0  0  0  0  0  0  0  0
    6.2216  -13.5197   25.6968 C   0  0  0  0  0  0  0  0  0  0  0  0
    5.8958  -14.6871   26.0054 O   0  0  0  0  0  0  0  0  0  0  0  0
    7.1186  -13.2151   24.5749 C   0  0  0  0  0  0  0  0  0  0  0  0
    8.2576  -14.1744   24.3905 C   0  0  2  0  0  0  0  0  0  0  0  0
    7.7403  -15.4986   23.9803 N   0  0  0  0  0  0  0  0  0  0  0  0
    8.8793  -14.4219   25.7417 C   0  0  0  0  0  0  0  0  0  0  0  0
    8.2156  -14.4025   26.8128 O   0  0  0  0  0  0  0  0  0  0  0  0
   10.2680  -14.6945   25.8860 N   0  0  0  0  0  0  0  0  0  0  0  0
   10.8134  -15.1112   27.1525 C   0  0  1  0  0  0  0  0  0  0  0  0
    9.8890  -14.7260   28.3076 C   0  0  0  0  0  0  0  0  0  0  0  0
   10.9054  -14.4580   29.7859 S   0  0  0  0  0  0  0  0  0  0  0  0
   11.0972  -16.5657   27.1933 C   0  0  0  0  0  0  0  0  0  0  0  0
   11.9817  -17.1234   28.1066 O   0  0  0  0  0  0  0  0  0  0  0  0
   10.5359  -17.3508   26.3884 O   0  0  0  0  0  0  0  0  0  0  0  0
  1  2  1  0
  2  3  1  0
  3  4  2  0
  5  6  1  0
  6  7  2  0
  8  6  1  0
  9  8  1  1
 10  3  1  0
 10  9  1  0
 11  9  1  0
 11 13  1  0
 12 11  2  0
 14 13  1  0
 14 15  1  1
 16 15  1  0
 17 14  1  0
 18 17  1  0
 19 17  2  0
M  END
$$$$
