GNC.pdb
     RDKit          3D

 19 18  0  0  1  0  0  0  0  0999 V2000
    7.4401  -12.6814   18.9235 N   0  0  0  0  0  0  0  0  0  0  0  0
    8.4331  -13.3102   19.7541 C   0  0  0  0  0  0  0  0  0  0  0  0
    7.7623  -13.9666   20.9264 C   0  0  0  0  0  0  0  0  0  0  0  0
    6.5307  -13.8442   21.1328 O   0  0  0  0  0  0  0  0  0  0  0  0
    8.7924  -18.2331   20.9638 N   0  0  0  0  0  0  0  0  0  0  0  0
    7.8997  -17.7307   21.9645 C   0  0  0  0  0  0  0  0  0  0  0  0
    6.7065  -18.0908   21.8597 O   0  0  0  0  0  0  0  0  0  0  0  0
    8.3722  -16.8491   23.0395 C   0  0  0  0  0  0  0  0  0  0  0  0
    7.8817  -15.4330   22.9647 C   0  0  2  0  0  0  0  0  0  0  0  0
    8.5165  -14.7391   21.8224 N   0  0  0  0  0  0  0  0  0  0  0  0
    8.3966  -14.6988   24.1767 C   0  0  0  0  0  0  0  0  0  0  0  0
    9.6117  -14.4014   24.3300 O   0  0  0  0  0  0  0  0  0  0  0  0
    7.5293  -14.2951   25.2296 N   0  0  0  0  0  0  0  0  0  0  0  0
    8.0414  -13.6139   26.3910 C   0  0  1  0  0  0  0  0  0  0  0  0
    6.9640  -12.7496   27.0464 C   0  0  0  0  0  0  0  0  0  0  0  0
    6.1332  -11.7929   25.7485 S   0  0  0  0  0  0  0  0  0  0  0  0
    8.6159  -14.5502   27.3866 C   0  0  0  0  0  0  0  0  0  0  0  0
    9.2792  -14.1086   28.5234 O   0  0  0  0  0  0  0  0  0  0  0  0
    8.5178  -15.7930   27.2284 O   0  0  0  0  0  0  0  0  0  0  0  0
  1  2  1  0
  2  3  1  0
  3  4  2  0
  5  6  1  0
  6  7  2  0
  8  6  1  0
  9  8  1  1
 10  3  1  0
 10  9  1  0
 11  9  1  0
 11 13  1  0
 12 11  2  0
 14 13  1  0
 14 15  1  1
 16 15  1  0
 17 14  1  0
 18 17  1  0
 19 17  2  0
M  END
$$$$
