GNC.pdb
     RDKit          3D

 19 18  0  0  1  0  0  0  0  0999 V2000
   -6.5991  -27.2254   26.9468 N   0  0  0  0  0  0  0  0  0  0  0  0
   -5.2409  -27.5621   26.6102 C   0  0  0  0  0  0  0  0  0  0  0  0
   -4.3058  -26.5920   27.2728 C   0  0  0  0  0  0  0  0  0  0  0  0
   -3.5059  -26.9565   28.1683 O   0  0  0  0  0  0  0  0  0  0  0  0
   -2.0437  -20.9157   26.4918 N   0  0  0  0  0  0  0  0  0  0  0  0
   -1.9617  -22.2788   26.9235 C   0  0  0  0  0  0  0  0  0  0  0  0
   -1.0331  -22.5428   27.7187 O   0  0  0  0  0  0  0  0  0  0  0  0
   -2.9162  -23.2901   26.4524 C   0  0  0  0  0  0  0  0  0  0  0  0
   -3.3766  -24.2667   27.4944 C   0  0  2  0  0  0  0  0  0  0  0  0
   -4.3136  -25.2413   26.8932 N   0  0  0  0  0  0  0  0  0  0  0  0
   -4.2162  -23.5151   28.4963 C   0  0  0  0  0  0  0  0  0  0  0  0
   -3.7305  -22.6768   29.3022 O   0  0  0  0  0  0  0  0  0  0  0  0
   -5.6218  -23.7123   28.5902 N   0  0  0  0  0  0  0  0  0  0  0  0
   -6.3879  -23.0947   29.6423 C   0  0  1  0  0  0  0  0  0  0  0  0
   -7.2326  -21.9383   29.1072 C   0  0  0  0  0  0  0  0  0  0  0  0
   -8.2161  -21.2696   30.4767 S   0  0  0  0  0  0  0  0  0  0  0  0
   -7.2512  -24.0658   30.3561 C   0  0  0  0  0  0  0  0  0  0  0  0
   -7.7508  -23.8191   31.6276 O   0  0  0  0  0  0  0  0  0  0  0  0
   -7.5619  -25.1602   29.8220 O   0  0  0  0  0  0  0  0  0  0  0  0
  1  2  1  0
  2  3  1  0
  3  4  2  0
  5  6  1  0
  6  7  2  0
  8  6  1  0
  9  8  1  6
 10  3  1  0
 10  9  1  0
 11  9  1  0
 11 13  1  0
 12 11  2  0
 14 13  1  0
 14 15  1  6
 16 15  1  0
 17 14  1  0
 18 17  1  0
 19 17  2  0
M  END
$$$$
