NTD.pdb
     RDKit          3D

 24 23  0  0  1  0  0  0  0  0999 V2000
    9.2942  -18.0393   15.3934 N   0  0  0  0  0  0  0  0  0  0  0  0
    8.3306  -17.5784   16.2959 C   0  0  0  0  0  0  0  0  0  0  0  0
    7.1320  -17.9933   16.1543 O   0  0  0  0  0  0  0  0  0  0  0  0
    8.5452  -16.6422   17.4220 C   0  0  0  0  0  0  0  0  0  0  0  0
    8.8852  -17.3306   18.7115 C   0  0  2  0  0  0  0  0  0  0  0  0
    7.7617  -18.0187   19.2557 N   0  0  0  0  0  0  0  0  0  0  0  0
    9.4107  -16.3762   19.7330 C   0  0  0  0  0  0  0  0  0  0  0  0
   10.3917  -15.6331   19.5258 O   0  0  0  0  0  0  0  0  0  0  0  0
    7.5036  -13.8230   21.8664 C   0  0  0  0  0  0  0  0  0  0  0  0
    8.2297  -14.7630   22.7784 C   0  0  1  0  0  0  0  0  0  0  0  0
    7.2787  -15.7083   23.2268 O   0  0  0  0  0  0  0  0  0  0  0  0
    9.3700  -15.4927   22.0768 C   0  0  2  0  0  0  0  0  0  0  0  0
    8.7756  -16.3116   20.9882 N   0  0  0  0  0  0  0  0  0  0  0  0
   10.1848  -16.3237   22.9446 C   0  0  0  0  0  0  0  0  0  0  0  0
    9.8962  -17.5514   23.0626 O   0  0  0  0  0  0  0  0  0  0  0  0
   11.3069  -15.8931   23.6958 N   0  0  0  0  0  0  0  0  0  0  0  0
   12.1102  -16.8312   24.4701 C   0  0  1  0  0  0  0  0  0  0  0  0
   13.5070  -16.2648   24.7520 C   0  0  0  0  0  0  0  0  0  0  0  0
   14.2560  -16.2038   23.4830 C   0  0  0  0  0  0  0  0  0  0  0  0
   14.0378  -16.8994   22.5110 O   0  0  0  0  0  0  0  0  0  0  0  0
   11.4828  -17.0736   25.7676 C   0  0  0  0  0  0  0  0  0  0  0  0
   10.3773  -16.2741   26.1270 O   0  0  0  0  0  0  0  0  0  0  0  0
   15.3185  -15.2489   23.3865 O   0  0  0  0  0  0  0  0  0  0  0  0
   11.8447  -17.9333   26.5943 O   0  0  0  0  0  0  0  0  0  0  0  0
  2  3  2  0
  2  1  1  0
  4  5  1  0
  4  2  1  0
  5  7  1  0
  5  6  1  1
  7  8  2  0
 10  9  1  6
 10 12  1  0
 11 10  1  0
 12 14  1  0
 12 13  1  6
 13  7  1  0
 14 15  2  0
 16 14  1  0
 16 17  1  0
 17 21  1  0
 17 18  1  1
 19 20  2  0
 19 18  1  0
 21 24  2  0
 21 22  1  0
 23 19  1  0
M  END
$$$$
