NTD.pdb
     RDKit          3D

 24 23  0  0  1  0  0  0  0  0999 V2000
    7.6304  -15.0575   13.0109 N   0  0  0  0  0  0  0  0  0  0  0  0
    8.9056  -15.1919   13.5690 C   0  0  0  0  0  0  0  0  0  0  0  0
    9.7807  -15.8461   12.9095 O   0  0  0  0  0  0  0  0  0  0  0  0
    9.3679  -14.6511   14.8668 C   0  0  0  0  0  0  0  0  0  0  0  0
    9.2858  -15.6445   15.9886 C   0  0  2  0  0  0  0  0  0  0  0  0
    7.9980  -16.2510   16.0646 N   0  0  0  0  0  0  0  0  0  0  0  0
    9.6087  -15.0251   17.3087 C   0  0  0  0  0  0  0  0  0  0  0  0
   10.6907  -14.4481   17.5406 O   0  0  0  0  0  0  0  0  0  0  0  0
    7.2780  -12.8292   19.2868 C   0  0  0  0  0  0  0  0  0  0  0  0
    7.7882  -13.8607   20.2450 C   0  0  1  0  0  0  0  0  0  0  0  0
    6.7304  -14.7744   20.4580 O   0  0  0  0  0  0  0  0  0  0  0  0
    8.9990  -14.6126   19.7031 C   0  0  2  0  0  0  0  0  0  0  0  0
    8.6535  -15.0963   18.3409 N   0  0  0  0  0  0  0  0  0  0  0  0
    9.4488  -15.7171   20.5308 C   0  0  0  0  0  0  0  0  0  0  0  0
    9.5300  -16.8722   20.0174 O   0  0  0  0  0  0  0  0  0  0  0  0
    9.8214  -15.6365   21.8959 N   0  0  0  0  0  0  0  0  0  0  0  0
   10.9316  -16.4160   22.4295 C   0  0  1  0  0  0  0  0  0  0  0  0
   12.2583  -16.0118   21.7756 C   0  0  0  0  0  0  0  0  0  0  0  0
   13.3458  -16.7938   22.3928 C   0  0  0  0  0  0  0  0  0  0  0  0
   13.2853  -17.9761   22.6664 O   0  0  0  0  0  0  0  0  0  0  0  0
   11.0736  -16.1668   23.8626 C   0  0  0  0  0  0  0  0  0  0  0  0
   11.8711  -17.0567   24.6126 O   0  0  0  0  0  0  0  0  0  0  0  0
   14.5684  -16.1095   22.6880 O   0  0  0  0  0  0  0  0  0  0  0  0
   10.5438  -15.2272   24.4871 O   0  0  0  0  0  0  0  0  0  0  0  0
  2  3  2  0
  2  1  1  0
  4  5  1  0
  4  2  1  0
  5  7  1  0
  5  6  1  1
  7  8  2  0
 10  9  1  6
 10 12  1  0
 11 10  1  0
 12 14  1  0
 12 13  1  6
 13  7  1  0
 14 15  2  0
 16 14  1  0
 16 17  1  0
 17 21  1  0
 17 18  1  6
 19 20  2  0
 19 18  1  0
 21 24  2  0
 21 22  1  0
 23 19  1  0
M  END
$$$$
