NTD.pdb
     RDKit          3D

 24 23  0  0  1  0  0  0  0  0999 V2000
    7.8257  -16.2374   14.0251 N   0  0  0  0  0  0  0  0  0  0  0  0
    9.0750  -16.4877   14.6012 C   0  0  0  0  0  0  0  0  0  0  0  0
    9.8628  -17.2886   13.9956 O   0  0  0  0  0  0  0  0  0  0  0  0
    9.6010  -15.9186   15.8622 C   0  0  0  0  0  0  0  0  0  0  0  0
    8.5975  -15.0835   16.6023 C   0  0  2  0  0  0  0  0  0  0  0  0
    8.1873  -13.9508   15.8403 N   0  0  0  0  0  0  0  0  0  0  0  0
    9.1219  -14.6170   17.9206 C   0  0  0  0  0  0  0  0  0  0  0  0
   10.0543  -13.7944   18.0270 O   0  0  0  0  0  0  0  0  0  0  0  0
    7.2962  -12.8385   20.3654 C   0  0  0  0  0  0  0  0  0  0  0  0
    7.8504  -13.9982   21.1337 C   0  0  1  0  0  0  0  0  0  0  0  0
    6.8000  -14.9352   21.2672 O   0  0  0  0  0  0  0  0  0  0  0  0
    9.0260  -14.6605   20.4235 C   0  0  2  0  0  0  0  0  0  0  0  0
    8.5431  -15.1285   19.0980 N   0  0  0  0  0  0  0  0  0  0  0  0
    9.6371  -15.7570   21.1527 C   0  0  0  0  0  0  0  0  0  0  0  0
    9.9467  -16.8121   20.5238 O   0  0  0  0  0  0  0  0  0  0  0  0
    9.9361  -15.7710   22.5380 N   0  0  0  0  0  0  0  0  0  0  0  0
   11.1116  -16.4601   23.0563 C   0  0  1  0  0  0  0  0  0  0  0  0
   12.4044  -15.8143   22.5437 C   0  0  0  0  0  0  0  0  0  0  0  0
   13.5533  -16.5379   23.1193 C   0  0  0  0  0  0  0  0  0  0  0  0
   13.4735  -17.4447   23.9240 O   0  0  0  0  0  0  0  0  0  0  0  0
   11.1422  -16.3673   24.5146 C   0  0  0  0  0  0  0  0  0  0  0  0
   12.0592  -17.1837   25.2098 O   0  0  0  0  0  0  0  0  0  0  0  0
   14.8632  -16.1460   22.6940 O   0  0  0  0  0  0  0  0  0  0  0  0
   10.4194  -15.6231   25.2052 O   0  0  0  0  0  0  0  0  0  0  0  0
  2  3  2  0
  2  1  1  0
  4  5  1  0
  4  2  1  0
  5  7  1  0
  5  6  1  6
  7  8  2  0
 10  9  1  6
 10 12  1  0
 11 10  1  0
 12 14  1  0
 12 13  1  6
 13  7  1  0
 14 15  2  0
 16 14  1  0
 16 17  1  0
 17 21  1  0
 17 18  1  6
 19 20  2  0
 19 18  1  0
 21 24  2  0
 21 22  1  0
 23 19  1  0
M  END
$$$$
