NTD.pdb
     RDKit          3D

 24 23  0  0  1  0  0  0  0  0999 V2000
    9.3592  -18.7008   14.3443 N   0  0  0  0  0  0  0  0  0  0  0  0
   10.2749  -17.6463   14.4154 C   0  0  0  0  0  0  0  0  0  0  0  0
   10.8805  -17.3074   13.3444 O   0  0  0  0  0  0  0  0  0  0  0  0
   10.6318  -16.8603   15.6177 C   0  0  0  0  0  0  0  0  0  0  0  0
    9.5165  -15.9845   16.1087 C   0  0  2  0  0  0  0  0  0  0  0  0
    9.0604  -15.0913   15.0957 N   0  0  0  0  0  0  0  0  0  0  0  0
    9.9154  -15.1921   17.3102 C   0  0  0  0  0  0  0  0  0  0  0  0
   10.8786  -14.3985   17.3101 O   0  0  0  0  0  0  0  0  0  0  0  0
    7.8660  -12.8068   19.2178 C   0  0  0  0  0  0  0  0  0  0  0  0
    8.3334  -13.8341   20.2020 C   0  0  1  0  0  0  0  0  0  0  0  0
    7.2666  -14.7460   20.3734 O   0  0  0  0  0  0  0  0  0  0  0  0
    9.5658  -14.5894   19.7164 C   0  0  2  0  0  0  0  0  0  0  0  0
    9.1762  -15.3472   18.4986 N   0  0  0  0  0  0  0  0  0  0  0  0
   10.1572  -15.4815   20.6970 C   0  0  0  0  0  0  0  0  0  0  0  0
    9.8575  -16.7118   20.6635 O   0  0  0  0  0  0  0  0  0  0  0  0
   11.0661  -15.1099   21.7191 N   0  0  0  0  0  0  0  0  0  0  0  0
   11.6326  -16.0970   22.6300 C   0  0  1  0  0  0  0  0  0  0  0  0
   12.9162  -15.5744   23.2861 C   0  0  0  0  0  0  0  0  0  0  0  0
   13.9541  -15.4362   22.2475 C   0  0  0  0  0  0  0  0  0  0  0  0
   14.0480  -16.1361   21.2587 O   0  0  0  0  0  0  0  0  0  0  0  0
   10.6899  -16.3781   23.7109 C   0  0  0  0  0  0  0  0  0  0  0  0
   11.0011  -17.4249   24.6041 O   0  0  0  0  0  0  0  0  0  0  0  0
   14.9226  -14.3948   22.4136 O   0  0  0  0  0  0  0  0  0  0  0  0
    9.6219  -15.7682   23.9131 O   0  0  0  0  0  0  0  0  0  0  0  0
  2  3  2  0
  2  1  1  0
  4  5  1  0
  4  2  1  0
  5  7  1  0
  5  6  1  6
  7  8  2  0
 10  9  1  6
 10 12  1  0
 11 10  1  0
 12 14  1  0
 12 13  1  6
 13  7  1  0
 14 15  2  0
 16 14  1  0
 16 17  1  0
 17 21  1  0
 17 18  1  1
 19 20  2  0
 19 18  1  0
 21 24  2  0
 21 22  1  0
 23 19  1  0
M  END
$$$$
