NTD.pdb
     RDKit          3D

 24 23  0  0  1  0  0  0  0  0999 V2000
    6.9790  -18.3625   15.2979 N   0  0  0  0  0  0  0  0  0  0  0  0
    8.1309  -18.2796   16.0864 C   0  0  0  0  0  0  0  0  0  0  0  0
    8.9425  -19.2643   16.0642 O   0  0  0  0  0  0  0  0  0  0  0  0
    8.5262  -17.1560   16.9649 C   0  0  0  0  0  0  0  0  0  0  0  0
    8.7732  -17.5701   18.3860 C   0  0  2  0  0  0  0  0  0  0  0  0
    7.6468  -18.2420   18.9443 N   0  0  0  0  0  0  0  0  0  0  0  0
    9.1235  -16.4067   19.2546 C   0  0  0  0  0  0  0  0  0  0  0  0
   10.0192  -15.5881   18.9631 O   0  0  0  0  0  0  0  0  0  0  0  0
    7.1448  -13.5784   20.4822 C   0  0  0  0  0  0  0  0  0  0  0  0
    7.6377  -14.2895   21.7044 C   0  0  1  0  0  0  0  0  0  0  0  0
    6.5702  -15.0955   22.1626 O   0  0  0  0  0  0  0  0  0  0  0  0
    8.8465  -15.1738   21.4175 C   0  0  2  0  0  0  0  0  0  0  0  0
    8.4159  -16.2242   20.4583 N   0  0  0  0  0  0  0  0  0  0  0  0
    9.4484  -15.7797   22.5914 C   0  0  0  0  0  0  0  0  0  0  0  0
    8.6959  -16.3286   23.4499 O   0  0  0  0  0  0  0  0  0  0  0  0
   10.8338  -15.8260   22.8864 N   0  0  0  0  0  0  0  0  0  0  0  0
   11.3716  -16.7544   23.8734 C   0  0  1  0  0  0  0  0  0  0  0  0
   11.1109  -18.2096   23.4663 C   0  0  0  0  0  0  0  0  0  0  0  0
   11.6652  -19.0967   24.5059 C   0  0  0  0  0  0  0  0  0  0  0  0
   11.6248  -18.8800   25.7008 O   0  0  0  0  0  0  0  0  0  0  0  0
   12.8212  -16.5960   23.9703 C   0  0  0  0  0  0  0  0  0  0  0  0
   13.4472  -15.6875   23.0909 O   0  0  0  0  0  0  0  0  0  0  0  0
   12.2949  -20.3084   24.0755 O   0  0  0  0  0  0  0  0  0  0  0  0
   13.5610  -17.2019   24.7696 O   0  0  0  0  0  0  0  0  0  0  0  0
  2  3  2  0
  2  1  1  0
  4  5  1  0
  4  2  1  0
  5  7  1  0
  5  6  1  1
  7  8  2  0
 10  9  1  6
 10 12  1  0
 11 10  1  0
 12 14  1  0
 12 13  1  6
 13  7  1  0
 14 15  2  0
 16 14  1  0
 16 17  1  0
 17 21  1  0
 17 18  1  6
 19 20  2  0
 19 18  1  0
 21 24  2  0
 21 22  1  0
 23 19  1  0
M  END
$$$$
