NTD.pdb
     RDKit          3D

 24 23  0  0  1  0  0  0  0  0999 V2000
    7.7798  -16.7530   13.8006 N   0  0  0  0  0  0  0  0  0  0  0  0
    8.2687  -15.4547   13.9767 C   0  0  0  0  0  0  0  0  0  0  0  0
    8.2866  -14.6802   12.9625 O   0  0  0  0  0  0  0  0  0  0  0  0
    8.7804  -14.8617   15.2324 C   0  0  0  0  0  0  0  0  0  0  0  0
    8.7982  -15.8262   16.3820 C   0  0  2  0  0  0  0  0  0  0  0  0
    7.5176  -16.4132   16.5994 N   0  0  0  0  0  0  0  0  0  0  0  0
    9.2562  -15.1790   17.6477 C   0  0  0  0  0  0  0  0  0  0  0  0
   10.3474  -14.5819   17.7479 O   0  0  0  0  0  0  0  0  0  0  0  0
    7.2874  -12.8286   19.7197 C   0  0  0  0  0  0  0  0  0  0  0  0
    7.7855  -13.8672   20.6766 C   0  0  1  0  0  0  0  0  0  0  0  0
    6.6830  -14.6975   20.9836 O   0  0  0  0  0  0  0  0  0  0  0  0
    8.9042  -14.7176   20.0846 C   0  0  2  0  0  0  0  0  0  0  0  0
    8.4237  -15.2465   18.7815 N   0  0  0  0  0  0  0  0  0  0  0  0
    9.3554  -15.8049   20.9340 C   0  0  0  0  0  0  0  0  0  0  0  0
    9.4155  -16.9741   20.4502 O   0  0  0  0  0  0  0  0  0  0  0  0
    9.7511  -15.6926   22.2903 N   0  0  0  0  0  0  0  0  0  0  0  0
   10.8317  -16.5034   22.8379 C   0  0  1  0  0  0  0  0  0  0  0  0
   12.1589  -16.2123   22.1273 C   0  0  0  0  0  0  0  0  0  0  0  0
   13.2179  -17.0244   22.7550 C   0  0  0  0  0  0  0  0  0  0  0  0
   13.3161  -18.2320   22.6641 O   0  0  0  0  0  0  0  0  0  0  0  0
   11.0296  -16.1838   24.2503 C   0  0  0  0  0  0  0  0  0  0  0  0
   11.8859  -17.0151   25.0026 O   0  0  0  0  0  0  0  0  0  0  0  0
   14.2094  -16.3375   23.5265 O   0  0  0  0  0  0  0  0  0  0  0  0
   10.5000  -15.2313   24.8551 O   0  0  0  0  0  0  0  0  0  0  0  0
  2  3  2  0
  2  1  1  0
  4  5  1  0
  4  2  1  0
  5  7  1  0
  5  6  1  1
  7  8  2  0
 10  9  1  6
 10 12  1  0
 11 10  1  0
 12 14  1  0
 12 13  1  6
 13  7  1  0
 14 15  2  0
 16 14  1  0
 16 17  1  0
 17 21  1  0
 17 18  1  6
 19 20  2  0
 19 18  1  0
 21 24  2  0
 21 22  1  0
 23 19  1  0
M  END
$$$$
