NTD.pdb
     RDKit          3D

 24 23  0  0  1  0  0  0  0  0999 V2000
   15.0515  -15.6720   16.1372 N   0  0  0  0  0  0  0  0  0  0  0  0
   15.2377  -14.6061   17.0230 C   0  0  0  0  0  0  0  0  0  0  0  0
   16.2999  -13.9086   16.9040 O   0  0  0  0  0  0  0  0  0  0  0  0
   14.3243  -14.1841   18.1084 C   0  0  0  0  0  0  0  0  0  0  0  0
   13.1749  -15.1258   18.3187 C   0  0  2  0  0  0  0  0  0  0  0  0
   12.3755  -15.2546   17.1455 N   0  0  0  0  0  0  0  0  0  0  0  0
   12.3038  -14.6998   19.4546 C   0  0  0  0  0  0  0  0  0  0  0  0
   12.7561  -14.3744   20.5712 O   0  0  0  0  0  0  0  0  0  0  0  0
    8.9034  -12.6849   18.9766 C   0  0  0  0  0  0  0  0  0  0  0  0
    8.6970  -13.8682   19.8708 C   0  0  1  0  0  0  0  0  0  0  0  0
    8.0632  -14.8614   19.0890 O   0  0  0  0  0  0  0  0  0  0  0  0
   10.0082  -14.4218   20.4181 C   0  0  2  0  0  0  0  0  0  0  0  0
   10.9093  -14.6659   19.2616 N   0  0  0  0  0  0  0  0  0  0  0  0
    9.8731  -15.6278   21.2148 C   0  0  0  0  0  0  0  0  0  0  0  0
   10.2333  -16.7344   20.7145 O   0  0  0  0  0  0  0  0  0  0  0  0
    9.3672  -15.6998   22.5368 N   0  0  0  0  0  0  0  0  0  0  0  0
    9.8119  -16.7303   23.4671 C   0  0  1  0  0  0  0  0  0  0  0  0
   11.3154  -16.6155   23.7452 C   0  0  0  0  0  0  0  0  0  0  0  0
   11.7083  -17.6973   24.6674 C   0  0  0  0  0  0  0  0  0  0  0  0
   11.8606  -17.5702   25.8661 O   0  0  0  0  0  0  0  0  0  0  0  0
    9.1313  -16.5715   24.7507 C   0  0  0  0  0  0  0  0  0  0  0  0
    8.8706  -15.2608   25.2032 O   0  0  0  0  0  0  0  0  0  0  0  0
   11.9220  -18.9983   24.1090 O   0  0  0  0  0  0  0  0  0  0  0  0
    8.7591  -17.5036   25.4897 O   0  0  0  0  0  0  0  0  0  0  0  0
  2  3  2  0
  2  1  1  0
  4  5  1  0
  4  2  1  0
  5  7  1  0
  5  6  1  6
  7  8  2  0
 10  9  1  6
 10 12  1  0
 11 10  1  0
 12 14  1  0
 12 13  1  6
 13  7  1  0
 14 15  2  0
 16 14  1  0
 16 17  1  0
 17 21  1  0
 17 18  1  1
 19 20  2  0
 19 18  1  0
 21 24  2  0
 21 22  1  0
 23 19  1  0
M  END
$$$$
