NTD.pdb
     RDKit          3D

 24 23  0  0  1  0  0  0  0  0999 V2000
   14.4202  -14.3597   14.9529 N   0  0  0  0  0  0  0  0  0  0  0  0
   14.7741  -14.8466   16.2151 C   0  0  0  0  0  0  0  0  0  0  0  0
   15.6758  -15.7477   16.2768 O   0  0  0  0  0  0  0  0  0  0  0  0
   14.2101  -14.4283   17.5179 C   0  0  0  0  0  0  0  0  0  0  0  0
   13.0342  -15.2546   17.9501 C   0  0  2  0  0  0  0  0  0  0  0  0
   12.0892  -15.4214   16.8961 N   0  0  0  0  0  0  0  0  0  0  0  0
   12.3410  -14.6643   19.1340 C   0  0  0  0  0  0  0  0  0  0  0  0
   12.9541  -14.1760   20.1052 O   0  0  0  0  0  0  0  0  0  0  0  0
    8.9308  -12.6265   19.0245 C   0  0  0  0  0  0  0  0  0  0  0  0
    8.8455  -13.7520   20.0086 C   0  0  1  0  0  0  0  0  0  0  0  0
    8.1116  -14.7846   19.3808 O   0  0  0  0  0  0  0  0  0  0  0  0
   10.2179  -14.2834   20.4078 C   0  0  2  0  0  0  0  0  0  0  0  0
   10.9331  -14.6598   19.1605 N   0  0  0  0  0  0  0  0  0  0  0  0
   10.1908  -15.4038   21.3305 C   0  0  0  0  0  0  0  0  0  0  0  0
   10.4567  -16.5625   20.8931 O   0  0  0  0  0  0  0  0  0  0  0  0
    9.8914  -15.3356   22.7141 N   0  0  0  0  0  0  0  0  0  0  0  0
   10.1347  -16.4655   23.6025 C   0  0  1  0  0  0  0  0  0  0  0  0
   11.6324  -16.7776   23.7060 C   0  0  0  0  0  0  0  0  0  0  0  0
   11.8151  -17.9099   24.6332 C   0  0  0  0  0  0  0  0  0  0  0  0
   11.2490  -18.9813   24.5447 O   0  0  0  0  0  0  0  0  0  0  0  0
    9.6750  -16.1472   24.9528 C   0  0  0  0  0  0  0  0  0  0  0  0
    9.6655  -17.1840   25.9096 O   0  0  0  0  0  0  0  0  0  0  0  0
   12.7334  -17.7360   25.7179 O   0  0  0  0  0  0  0  0  0  0  0  0
    9.2843  -15.0276   25.3363 O   0  0  0  0  0  0  0  0  0  0  0  0
  2  3  2  0
  2  1  1  0
  4  5  1  0
  4  2  1  0
  5  7  1  0
  5  6  1  6
  7  8  2  0
 10  9  1  6
 10 12  1  0
 11 10  1  0
 12 14  1  0
 12 13  1  6
 13  7  1  0
 14 15  2  0
 16 14  1  0
 16 17  1  0
 17 21  1  0
 17 18  1  1
 19 20  2  0
 19 18  1  0
 21 24  2  0
 21 22  1  0
 23 19  1  0
M  END
$$$$
