NTD.pdb
     RDKit          3D

 24 23  0  0  1  0  0  0  0  0999 V2000
    8.3791  -18.7845   15.8306 N   0  0  0  0  0  0  0  0  0  0  0  0
    9.0787  -17.5740   15.8045 C   0  0  0  0  0  0  0  0  0  0  0  0
    9.4578  -17.1271   14.6707 O   0  0  0  0  0  0  0  0  0  0  0  0
    9.4395  -16.7321   16.9671 C   0  0  0  0  0  0  0  0  0  0  0  0
    9.0948  -17.3596   18.2860 C   0  0  2  0  0  0  0  0  0  0  0  0
    7.6971  -17.6151   18.4007 N   0  0  0  0  0  0  0  0  0  0  0  0
    9.5294  -16.5142   19.4380 C   0  0  0  0  0  0  0  0  0  0  0  0
   10.6244  -15.9161   19.4653 O   0  0  0  0  0  0  0  0  0  0  0  0
    7.2513  -13.9588   21.3069 C   0  0  0  0  0  0  0  0  0  0  0  0
    7.8722  -14.8993   22.2930 C   0  0  1  0  0  0  0  0  0  0  0  0
    6.8875  -15.8636   22.6088 O   0  0  0  0  0  0  0  0  0  0  0  0
    9.1027  -15.6040   21.7325 C   0  0  2  0  0  0  0  0  0  0  0  0
    8.6693  -16.3868   20.5457 N   0  0  0  0  0  0  0  0  0  0  0  0
    9.7943  -16.4626   22.6769 C   0  0  0  0  0  0  0  0  0  0  0  0
    9.6618  -17.7180   22.5723 O   0  0  0  0  0  0  0  0  0  0  0  0
   10.6312  -16.0307   23.7361 N   0  0  0  0  0  0  0  0  0  0  0  0
   11.2760  -16.9817   24.6333 C   0  0  1  0  0  0  0  0  0  0  0  0
   12.6170  -16.4413   25.1440 C   0  0  0  0  0  0  0  0  0  0  0  0
   13.2686  -17.4868   25.9549 C   0  0  0  0  0  0  0  0  0  0  0  0
   13.1167  -17.6367   27.1511 O   0  0  0  0  0  0  0  0  0  0  0  0
   10.4366  -17.2081   25.8080 C   0  0  0  0  0  0  0  0  0  0  0  0
    9.3292  -16.3560   26.0035 O   0  0  0  0  0  0  0  0  0  0  0  0
   14.1433  -18.3983   25.2811 O   0  0  0  0  0  0  0  0  0  0  0  0
   10.6171  -18.0969   26.6629 O   0  0  0  0  0  0  0  0  0  0  0  0
  2  3  2  0
  2  1  1  0
  4  5  1  0
  4  2  1  0
  5  7  1  0
  5  6  1  6
  7  8  2  0
 10  9  1  6
 10 12  1  0
 11 10  1  0
 12 14  1  0
 12 13  1  6
 13  7  1  0
 14 15  2  0
 16 14  1  0
 16 17  1  0
 17 21  1  0
 17 18  1  1
 19 20  2  0
 19 18  1  0
 21 24  2  0
 21 22  1  0
 23 19  1  0
M  END
$$$$
