NTD.pdb
     RDKit          3D

 24 23  0  0  1  0  0  0  0  0999 V2000
    7.8010  -17.3623   13.2435 N   0  0  0  0  0  0  0  0  0  0  0  0
    8.4338  -17.8936   14.3717 C   0  0  0  0  0  0  0  0  0  0  0  0
    8.6338  -19.1536   14.4071 O   0  0  0  0  0  0  0  0  0  0  0  0
    8.9085  -17.1460   15.5576 C   0  0  0  0  0  0  0  0  0  0  0  0
    8.5716  -15.6843   15.5137 C   0  0  2  0  0  0  0  0  0  0  0  0
    8.8173  -15.1236   14.2264 N   0  0  0  0  0  0  0  0  0  0  0  0
    9.3320  -14.9043   16.5355 C   0  0  0  0  0  0  0  0  0  0  0  0
   10.4444  -14.3879   16.3049 O   0  0  0  0  0  0  0  0  0  0  0  0
    7.5475  -12.4280   19.1413 C   0  0  0  0  0  0  0  0  0  0  0  0
    8.4748  -13.3924   19.8138 C   0  0  1  0  0  0  0  0  0  0  0  0
    7.6718  -14.4390   20.3228 O   0  0  0  0  0  0  0  0  0  0  0  0
    9.5079  -13.9739   18.8547 C   0  0  2  0  0  0  0  0  0  0  0  0
    8.7733  -14.7454   17.8184 N   0  0  0  0  0  0  0  0  0  0  0  0
   10.5176  -14.8075   19.4817 C   0  0  0  0  0  0  0  0  0  0  0  0
   10.4531  -16.0635   19.3312 O   0  0  0  0  0  0  0  0  0  0  0  0
   11.6046  -14.3494   20.2674 N   0  0  0  0  0  0  0  0  0  0  0  0
   12.5612  -15.2771   20.8585 C   0  0  1  0  0  0  0  0  0  0  0  0
   13.8405  -14.5526   21.2940 C   0  0  0  0  0  0  0  0  0  0  0  0
   14.7811  -15.5464   21.8443 C   0  0  0  0  0  0  0  0  0  0  0  0
   15.1405  -16.5567   21.2731 O   0  0  0  0  0  0  0  0  0  0  0  0
   11.9906  -15.8854   22.0587 C   0  0  0  0  0  0  0  0  0  0  0  0
   10.9195  -15.2202   22.6917 O   0  0  0  0  0  0  0  0  0  0  0  0
   15.3161  -15.2999   23.1494 O   0  0  0  0  0  0  0  0  0  0  0  0
   12.3736  -16.9514   22.5787 O   0  0  0  0  0  0  0  0  0  0  0  0
  2  3  2  0
  2  1  1  0
  4  5  1  0
  4  2  1  0
  5  7  1  0
  5  6  1  6
  7  8  2  0
 10  9  1  6
 10 12  1  0
 11 10  1  0
 12 14  1  0
 12 13  1  6
 13  7  1  0
 14 15  2  0
 16 14  1  0
 16 17  1  0
 17 21  1  0
 17 18  1  1
 19 20  2  0
 19 18  1  0
 21 24  2  0
 21 22  1  0
 23 19  1  0
M  END
$$$$
