KKT.pdb
     RDKit          3D

 26 25  0  0  1  0  0  0  0  0999 V2000
   21.1475  -18.1772  -17.6970 N   0  0  0  0  0  0  0  0  0  0  0  0
   19.9245  -17.7303  -17.0618 C   0  0  1  0  0  0  0  0  0  0  0  0
   20.0207  -17.9983  -15.5948 C   0  0  0  0  0  0  0  0  0  0  0  0
   20.1246  -19.4957  -15.2984 C   0  0  0  0  0  0  0  0  0  0  0  0
   20.3362  -19.7412  -13.8375 C   0  0  0  0  0  0  0  0  0  0  0  0
   20.3282  -21.2122  -13.4868 C   0  0  0  0  0  0  0  0  0  0  0  0
   21.7017  -21.6741  -13.4060 N   0  0  0  0  0  0  0  0  0  0  0  0
   19.6501  -16.2950  -17.3642 C   0  0  0  0  0  0  0  0  0  0  0  0
   20.6309  -15.5184  -17.3264 O   0  0  0  0  0  0  0  0  0  0  0  0
   18.3546  -15.8215  -17.6788 N   0  0  0  0  0  0  0  0  0  0  0  0
   17.9829  -14.4736  -18.0037 C   0  0  1  0  0  0  0  0  0  0  0  0
   16.6950  -14.3531  -18.7358 C   0  0  0  0  0  0  0  0  0  0  0  0
   16.8777  -14.8051  -20.1783 C   0  0  0  0  0  0  0  0  0  0  0  0
   15.8258  -15.8477  -20.5431 C   0  0  0  0  0  0  0  0  0  0  0  0
   15.9916  -16.3048  -21.9675 C   0  0  0  0  0  0  0  0  0  0  0  0
   15.1150  -17.4115  -22.2872 N   0  0  0  0  0  0  0  0  0  0  0  0
   18.1441  -13.5031  -16.8807 C   0  0  0  0  0  0  0  0  0  0  0  0
   17.7937  -13.7629  -15.7093 O   0  0  0  0  0  0  0  0  0  0  0  0
   21.4950  -11.6527  -15.9881 C   0  0  0  0  0  0  0  0  0  0  0  0
   20.3632  -10.6827  -16.0753 C   0  0  1  0  0  0  0  0  0  0  0  0
   20.3914   -9.9761  -17.2896 O   0  0  0  0  0  0  0  0  0  0  0  0
   18.9994  -11.3161  -15.9802 C   0  0  2  0  0  0  0  0  0  0  0  0
   18.7126  -12.2118  -17.0802 N   0  0  0  0  0  0  0  0  0  0  0  0
   17.9277  -10.3106  -15.7941 C   0  0  0  0  0  0  0  0  0  0  0  0
   17.8400   -9.5104  -14.6846 O   0  0  0  0  0  0  0  0  0  0  0  0
   17.0678  -10.1959  -16.6997 O   0  0  0  0  0  0  0  0  0  0  0  0
  2  1  1  6
  3  4  1  0
  3  2  1  0
  5  4  1  0
  5  6  1  0
  7  6  1  0
  8  2  1  0
  8  9  2  0
 10  8  1  0
 11 10  1  0
 11 12  1  1
 13 12  1  0
 13 14  1  0
 15 14  1  0
 16 15  1  0
 17 11  1  0
 18 17  2  0
 20 19  1  6
 20 22  1  0
 21 20  1  0
 22 24  1  0
 22 23  1  6
 23 17  1  0
 24 25  1  0
 26 24  2  0
M  END
$$$$
