KKT.pdb
     RDKit          3D

 26 25  0  0  1  0  0  0  0  0999 V2000
   19.0342  -22.2237  -10.0694 N   0  0  0  0  0  0  0  0  0  0  0  0
   19.2910  -22.5424  -11.4592 C   0  0  1  0  0  0  0  0  0  0  0  0
   18.1659  -23.3800  -11.9748 C   0  0  0  0  0  0  0  0  0  0  0  0
   17.6328  -24.3335  -10.9034 C   0  0  0  0  0  0  0  0  0  0  0  0
   18.4284  -25.6003  -10.8671 C   0  0  0  0  0  0  0  0  0  0  0  0
   17.9901  -26.5319   -9.7595 C   0  0  0  0  0  0  0  0  0  0  0  0
   18.8159  -27.7245   -9.8067 N   0  0  0  0  0  0  0  0  0  0  0  0
   19.5013  -21.3064  -12.2686 C   0  0  0  0  0  0  0  0  0  0  0  0
   18.8028  -20.3134  -11.9642 O   0  0  0  0  0  0  0  0  0  0  0  0
   20.4374  -21.2446  -13.3275 N   0  0  0  0  0  0  0  0  0  0  0  0
   20.7016  -20.1221  -14.1824 C   0  0  1  0  0  0  0  0  0  0  0  0
   22.0510  -20.1313  -14.8054 C   0  0  0  0  0  0  0  0  0  0  0  0
   22.2466  -18.8665  -15.6303 C   0  0  0  0  0  0  0  0  0  0  0  0
   23.5805  -18.9176  -16.3684 C   0  0  0  0  0  0  0  0  0  0  0  0
   23.8359  -17.6323  -17.1090 C   0  0  0  0  0  0  0  0  0  0  0  0
   25.1029  -17.6525  -17.8088 N   0  0  0  0  0  0  0  0  0  0  0  0
   19.5920  -19.7921  -15.1252 C   0  0  0  0  0  0  0  0  0  0  0  0
   19.0561  -20.6478  -15.8621 O   0  0  0  0  0  0  0  0  0  0  0  0
   16.7845  -16.1076  -17.0116 C   0  0  0  0  0  0  0  0  0  0  0  0
   17.3315  -16.8270  -15.8230 C   0  0  1  0  0  0  0  0  0  0  0  0
   16.3192  -17.1122  -14.8911 O   0  0  0  0  0  0  0  0  0  0  0  0
   17.9958  -18.1397  -16.1485 C   0  0  2  0  0  0  0  0  0  0  0  0
   19.0738  -18.4698  -15.2410 N   0  0  0  0  0  0  0  0  0  0  0  0
   18.4250  -18.2132  -17.5644 C   0  0  0  0  0  0  0  0  0  0  0  0
   19.7304  -18.0687  -17.9567 O   0  0  0  0  0  0  0  0  0  0  0  0
   17.5446  -18.4172  -18.4339 O   0  0  0  0  0  0  0  0  0  0  0  0
  2  1  1  1
  3  4  1  0
  3  2  1  0
  5  4  1  0
  5  6  1  0
  7  6  1  0
  8  2  1  0
  8  9  2  0
 10  8  1  0
 11 10  1  0
 11 12  1  6
 13 12  1  0
 13 14  1  0
 15 14  1  0
 16 15  1  0
 17 11  1  0
 18 17  2  0
 20 19  1  6
 20 22  1  0
 21 20  1  0
 22 24  1  0
 22 23  1  1
 23 17  1  0
 24 25  1  0
 26 24  2  0
M  END
$$$$
