KKT.pdb
     RDKit          3D

 26 25  0  0  1  0  0  0  0  0999 V2000
   25.3783  -22.0887  -14.6158 N   0  0  0  0  0  0  0  0  0  0  0  0
   25.1429  -21.2941  -15.8041 C   0  0  1  0  0  0  0  0  0  0  0  0
   25.3643  -22.1531  -17.0067 C   0  0  0  0  0  0  0  0  0  0  0  0
   26.4481  -23.2045  -16.7598 C   0  0  0  0  0  0  0  0  0  0  0  0
   27.5315  -23.1115  -17.7878 C   0  0  0  0  0  0  0  0  0  0  0  0
   28.6201  -24.1407  -17.5816 C   0  0  0  0  0  0  0  0  0  0  0  0
   29.6549  -23.9226  -18.5755 N   0  0  0  0  0  0  0  0  0  0  0  0
   23.7838  -20.6782  -15.7836 C   0  0  0  0  0  0  0  0  0  0  0  0
   23.4491  -20.0286  -16.7998 O   0  0  0  0  0  0  0  0  0  0  0  0
   22.9080  -20.8125  -14.6807 N   0  0  0  0  0  0  0  0  0  0  0  0
   21.5672  -20.3106  -14.5764 C   0  0  1  0  0  0  0  0  0  0  0  0
   20.7243  -21.0190  -13.5780 C   0  0  0  0  0  0  0  0  0  0  0  0
   20.3517  -22.3985  -14.1037 C   0  0  0  0  0  0  0  0  0  0  0  0
   19.6176  -23.1937  -13.0288 C   0  0  0  0  0  0  0  0  0  0  0  0
   19.1773  -24.5330  -13.5558 C   0  0  0  0  0  0  0  0  0  0  0  0
   18.5460  -25.3377  -12.5314 N   0  0  0  0  0  0  0  0  0  0  0  0
   21.4702  -18.8220  -14.5164 C   0  0  0  0  0  0  0  0  0  0  0  0
   21.6777  -18.1744  -13.4676 O   0  0  0  0  0  0  0  0  0  0  0  0
   23.4031  -16.0014  -15.9804 C   0  0  0  0  0  0  0  0  0  0  0  0
   21.9935  -15.8769  -16.4566 C   0  0  1  0  0  0  0  0  0  0  0  0
   21.8511  -16.3805  -17.7608 O   0  0  0  0  0  0  0  0  0  0  0  0
   20.9878  -16.6062  -15.6040 C   0  0  2  0  0  0  0  0  0  0  0  0
   21.1327  -18.0450  -15.6622 N   0  0  0  0  0  0  0  0  0  0  0  0
   19.5983  -16.1799  -15.8902 C   0  0  0  0  0  0  0  0  0  0  0  0
   19.1747  -14.8825  -15.7624 O   0  0  0  0  0  0  0  0  0  0  0  0
   18.7823  -17.0550  -16.2657 O   0  0  0  0  0  0  0  0  0  0  0  0
  2  1  1  1
  3  4  1  0
  3  2  1  0
  5  4  1  0
  5  6  1  0
  7  6  1  0
  8  2  1  0
  8  9  2  0
 10  8  1  0
 11 10  1  0
 11 12  1  1
 13 12  1  0
 13 14  1  0
 15 14  1  0
 16 15  1  0
 17 11  1  0
 18 17  2  0
 20 19  1  1
 20 22  1  0
 21 20  1  0
 22 24  1  0
 22 23  1  6
 23 17  1  0
 24 25  1  0
 26 24  2  0
M  END
$$$$
