KKT.pdb
     RDKit          3D

 26 25  0  0  1  0  0  0  0  0999 V2000
   20.0936  -12.2365  -17.6868 N   0  0  0  0  0  0  0  0  0  0  0  0
   20.7192  -11.4857  -16.6173 C   0  0  1  0  0  0  0  0  0  0  0  0
   22.2023  -11.5552  -16.7867 C   0  0  0  0  0  0  0  0  0  0  0  0
   22.7410  -12.9564  -16.4907 C   0  0  0  0  0  0  0  0  0  0  0  0
   24.2352  -12.9517  -16.4085 C   0  0  0  0  0  0  0  0  0  0  0  0
   24.8051  -14.3148  -16.0861 C   0  0  0  0  0  0  0  0  0  0  0  0
   26.2408  -14.1859  -15.9172 N   0  0  0  0  0  0  0  0  0  0  0  0
   20.2138  -10.0823  -16.5729 C   0  0  0  0  0  0  0  0  0  0  0  0
   20.3840   -9.3941  -17.6043 O   0  0  0  0  0  0  0  0  0  0  0  0
   19.5737   -9.5436  -15.4320 N   0  0  0  0  0  0  0  0  0  0  0  0
   19.0684   -8.2092  -15.2746 C   0  0  1  0  0  0  0  0  0  0  0  0
   17.6321   -8.1388  -14.8990 C   0  0  0  0  0  0  0  0  0  0  0  0
   17.1880   -6.6840  -14.8297 C   0  0  0  0  0  0  0  0  0  0  0  0
   15.6855   -6.6010  -14.5802 C   0  0  0  0  0  0  0  0  0  0  0  0
   15.2181   -5.1703  -14.5774 C   0  0  0  0  0  0  0  0  0  0  0  0
   13.7753   -5.0715  -14.5138 N   0  0  0  0  0  0  0  0  0  0  0  0
   19.9551   -7.3048  -14.4841 C   0  0  0  0  0  0  0  0  0  0  0  0
   20.2259   -7.5086  -13.2810 O   0  0  0  0  0  0  0  0  0  0  0  0
   22.6092   -4.4879  -16.4813 C   0  0  0  0  0  0  0  0  0  0  0  0
   22.8173   -5.1865  -15.1782 C   0  0  1  0  0  0  0  0  0  0  0  0
   23.7170   -4.4812  -14.3611 O   0  0  0  0  0  0  0  0  0  0  0  0
   21.5593   -5.3712  -14.3698 C   0  0  2  0  0  0  0  0  0  0  0  0
   20.5503   -6.1455  -15.0604 N   0  0  0  0  0  0  0  0  0  0  0  0
   21.0214   -4.0844  -13.8709 C   0  0  0  0  0  0  0  0  0  0  0  0
   19.7521   -3.6482  -14.1497 O   0  0  0  0  0  0  0  0  0  0  0  0
   21.7709   -3.3708  -13.1626 O   0  0  0  0  0  0  0  0  0  0  0  0
  2  1  1  6
  3  4  1  0
  3  2  1  0
  5  4  1  0
  5  6  1  0
  7  6  1  0
  8  2  1  0
  8  9  2  0
 10  8  1  0
 11 10  1  0
 11 12  1  1
 13 12  1  0
 13 14  1  0
 15 14  1  0
 16 15  1  0
 17 11  1  0
 18 17  2  0
 20 19  1  6
 20 22  1  0
 21 20  1  0
 22 24  1  0
 22 23  1  6
 23 17  1  0
 24 25  1  0
 26 24  2  0
M  END
$$$$
