KKT.pdb
     RDKit          3D

 26 25  0  0  1  0  0  0  0  0999 V2000
   25.9079  -23.9105  -14.5420 N   0  0  0  0  0  0  0  0  0  0  0  0
   25.3157  -23.8261  -15.8615 C   0  0  1  0  0  0  0  0  0  0  0  0
   25.2235  -25.2032  -16.4345 C   0  0  0  0  0  0  0  0  0  0  0  0
   26.0732  -25.3486  -17.6986 C   0  0  0  0  0  0  0  0  0  0  0  0
   27.4385  -25.8669  -17.3721 C   0  0  0  0  0  0  0  0  0  0  0  0
   27.4655  -27.3691  -17.2004 C   0  0  0  0  0  0  0  0  0  0  0  0
   28.8377  -27.7819  -16.9696 N   0  0  0  0  0  0  0  0  0  0  0  0
   23.9940  -23.1347  -15.8190 C   0  0  0  0  0  0  0  0  0  0  0  0
   23.0226  -23.8103  -15.4110 O   0  0  0  0  0  0  0  0  0  0  0  0
   23.8314  -21.7865  -16.2159 N   0  0  0  0  0  0  0  0  0  0  0  0
   22.6138  -21.0262  -16.2130 C   0  0  1  0  0  0  0  0  0  0  0  0
   22.7868  -19.5947  -15.8523 C   0  0  0  0  0  0  0  0  0  0  0  0
   21.4291  -18.9069  -15.8063 C   0  0  0  0  0  0  0  0  0  0  0  0
   21.5856  -17.4572  -15.3585 C   0  0  0  0  0  0  0  0  0  0  0  0
   20.2618  -16.7412  -15.3792 C   0  0  0  0  0  0  0  0  0  0  0  0
   20.3614  -15.4019  -14.8389 N   0  0  0  0  0  0  0  0  0  0  0  0
   21.7402  -21.2589  -17.4012 C   0  0  0  0  0  0  0  0  0  0  0  0
   22.1312  -21.0695  -18.5732 O   0  0  0  0  0  0  0  0  0  0  0  0
   19.7219  -24.4978  -18.4195 C   0  0  0  0  0  0  0  0  0  0  0  0
   18.8319  -23.3033  -18.3169 C   0  0  1  0  0  0  0  0  0  0  0  0
   18.1383  -23.2894  -17.0949 O   0  0  0  0  0  0  0  0  0  0  0  0
   19.5554  -21.9851  -18.4134 C   0  0  2  0  0  0  0  0  0  0  0  0
   20.3970  -21.7152  -17.2673 N   0  0  0  0  0  0  0  0  0  0  0  0
   18.6337  -20.8609  -18.6977 C   0  0  0  0  0  0  0  0  0  0  0  0
   17.8486  -20.8053  -19.8200 O   0  0  0  0  0  0  0  0  0  0  0  0
   18.5782  -19.9238  -17.8661 O   0  0  0  0  0  0  0  0  0  0  0  0
  2  1  1  1
  3  4  1  0
  3  2  1  0
  5  4  1  0
  5  6  1  0
  7  6  1  0
  8  2  1  0
  8  9  2  0
 10  8  1  0
 11 10  1  0
 11 12  1  6
 13 12  1  0
 13 14  1  0
 15 14  1  0
 16 15  1  0
 17 11  1  0
 18 17  2  0
 20 19  1  1
 20 22  1  0
 21 20  1  0
 22 24  1  0
 22 23  1  1
 23 17  1  0
 24 25  1  0
 26 24  2  0
M  END
$$$$
