KKT.pdb
     RDKit          3D

 26 25  0  0  1  0  0  0  0  0999 V2000
   24.5360  -18.5375  -17.6187 N   0  0  0  0  0  0  0  0  0  0  0  0
   24.4738  -17.7340  -18.8227 C   0  0  1  0  0  0  0  0  0  0  0  0
   24.7120  -18.6194  -20.0027 C   0  0  0  0  0  0  0  0  0  0  0  0
   25.9785  -18.2207  -20.7632 C   0  0  0  0  0  0  0  0  0  0  0  0
   27.1651  -18.9882  -20.2711 C   0  0  0  0  0  0  0  0  0  0  0  0
   28.4355  -18.6339  -21.0108 C   0  0  0  0  0  0  0  0  0  0  0  0
   29.5440  -19.3285  -20.3820 N   0  0  0  0  0  0  0  0  0  0  0  0
   23.1808  -16.9946  -18.9143 C   0  0  0  0  0  0  0  0  0  0  0  0
   22.8581  -16.5712  -20.0470 O   0  0  0  0  0  0  0  0  0  0  0  0
   22.3521  -16.7757  -17.7887 N   0  0  0  0  0  0  0  0  0  0  0  0
   21.0777  -16.1152  -17.7698 C   0  0  1  0  0  0  0  0  0  0  0  0
   20.1115  -16.6770  -16.7901 C   0  0  0  0  0  0  0  0  0  0  0  0
   18.7288  -16.0878  -17.0337 C   0  0  0  0  0  0  0  0  0  0  0  0
   17.7151  -16.7032  -16.0744 C   0  0  0  0  0  0  0  0  0  0  0  0
   16.3461  -16.1149  -16.2869 C   0  0  0  0  0  0  0  0  0  0  0  0
   15.3736  -16.6568  -15.3617 N   0  0  0  0  0  0  0  0  0  0  0  0
   21.1573  -14.6244  -17.7682 C   0  0  0  0  0  0  0  0  0  0  0  0
   21.7125  -13.9796  -16.8526 O   0  0  0  0  0  0  0  0  0  0  0  0
   20.6676  -10.3311  -20.2793 C   0  0  0  0  0  0  0  0  0  0  0  0
   20.4910  -11.8124  -20.2143 C   0  0  1  0  0  0  0  0  0  0  0  0
   21.3966  -12.4701  -21.0640 O   0  0  0  0  0  0  0  0  0  0  0  0
   20.6910  -12.3975  -18.8403 C   0  0  2  0  0  0  0  0  0  0  0  0
   20.6000  -13.8418  -18.8206 N   0  0  0  0  0  0  0  0  0  0  0  0
   19.8013  -11.7752  -17.8326 C   0  0  0  0  0  0  0  0  0  0  0  0
   20.1646  -10.6814  -17.0906 O   0  0  0  0  0  0  0  0  0  0  0  0
   18.6669  -12.2812  -17.6600 O   0  0  0  0  0  0  0  0  0  0  0  0
  2  1  1  1
  3  4  1  0
  3  2  1  0
  5  4  1  0
  5  6  1  0
  7  6  1  0
  8  2  1  0
  8  9  2  0
 10  8  1  0
 11 10  1  0
 11 12  1  1
 13 12  1  0
 13 14  1  0
 15 14  1  0
 16 15  1  0
 17 11  1  0
 18 17  2  0
 20 19  1  1
 20 22  1  0
 21 20  1  0
 22 24  1  0
 22 23  1  6
 23 17  1  0
 24 25  1  0
 26 24  2  0
M  END
$$$$
