KKT.pdb
     RDKit          3D

 26 25  0  0  1  0  0  0  0  0999 V2000
   20.2371  -12.6306  -16.8998 N   0  0  0  0  0  0  0  0  0  0  0  0
   20.7286  -11.6774  -17.8739 C   0  0  1  0  0  0  0  0  0  0  0  0
   20.1576  -12.0213  -19.2114 C   0  0  0  0  0  0  0  0  0  0  0  0
   20.6577  -13.3793  -19.7083 C   0  0  0  0  0  0  0  0  0  0  0  0
   19.9168  -14.4994  -19.0482 C   0  0  0  0  0  0  0  0  0  0  0  0
   20.3294  -15.8577  -19.5695 C   0  0  0  0  0  0  0  0  0  0  0  0
   19.5548  -16.8716  -18.8778 N   0  0  0  0  0  0  0  0  0  0  0  0
   20.4206  -10.2760  -17.4637 C   0  0  0  0  0  0  0  0  0  0  0  0
   20.7107   -9.3769  -18.2846 O   0  0  0  0  0  0  0  0  0  0  0  0
   19.8317   -9.9642  -16.2158 N   0  0  0  0  0  0  0  0  0  0  0  0
   19.4572   -8.6633  -15.7384 C   0  0  1  0  0  0  0  0  0  0  0  0
   18.1056   -8.6026  -15.1230 C   0  0  0  0  0  0  0  0  0  0  0  0
   17.0551   -9.0176  -16.1441 C   0  0  0  0  0  0  0  0  0  0  0  0
   15.9073   -9.7484  -15.4549 C   0  0  0  0  0  0  0  0  0  0  0  0
   14.8458  -10.1412  -16.4470 C   0  0  0  0  0  0  0  0  0  0  0  0
   13.8760  -11.0492  -15.8722 N   0  0  0  0  0  0  0  0  0  0  0  0
   20.5202   -7.9654  -14.9560 C   0  0  0  0  0  0  0  0  0  0  0  0
   21.0037   -8.4378  -13.9046 O   0  0  0  0  0  0  0  0  0  0  0  0
   23.9300   -6.9271  -16.3309 C   0  0  0  0  0  0  0  0  0  0  0  0
   23.3008   -5.7482  -15.6648 C   0  0  1  0  0  0  0  0  0  0  0  0
   22.7523   -4.8636  -16.6088 O   0  0  0  0  0  0  0  0  0  0  0  0
   22.1888   -6.0997  -14.7108 C   0  0  2  0  0  0  0  0  0  0  0  0
   21.0509   -6.7082  -15.3662 N   0  0  0  0  0  0  0  0  0  0  0  0
   21.7894   -4.9481  -13.8690 C   0  0  0  0  0  0  0  0  0  0  0  0
   22.6381   -4.3468  -12.9761 O   0  0  0  0  0  0  0  0  0  0  0  0
   20.6193   -4.5129  -13.9880 O   0  0  0  0  0  0  0  0  0  0  0  0
  2  1  1  1
  3  4  1  0
  3  2  1  0
  5  4  1  0
  5  6  1  0
  7  6  1  0
  8  2  1  0
  8  9  2  0
 10  8  1  0
 11 10  1  0
 11 12  1  1
 13 12  1  0
 13 14  1  0
 15 14  1  0
 16 15  1  0
 17 11  1  0
 18 17  2  0
 20 19  1  6
 20 22  1  0
 21 20  1  0
 22 24  1  0
 22 23  1  6
 23 17  1  0
 24 25  1  0
 26 24  2  0
M  END
$$$$
