KKT.pdb
     RDKit          3D

 26 25  0  0  1  0  0  0  0  0999 V2000
   28.4475  -22.9751  -15.8991 N   0  0  0  0  0  0  0  0  0  0  0  0
   27.7399  -21.7196  -16.0469 C   0  0  1  0  0  0  0  0  0  0  0  0
   27.5435  -21.4486  -17.5033 C   0  0  0  0  0  0  0  0  0  0  0  0
   28.0663  -20.0657  -17.8974 C   0  0  0  0  0  0  0  0  0  0  0  0
   26.9970  -19.2554  -18.5601 C   0  0  0  0  0  0  0  0  0  0  0  0
   27.5007  -17.9170  -19.0518 C   0  0  0  0  0  0  0  0  0  0  0  0
   26.3696  -17.1503  -19.5409 N   0  0  0  0  0  0  0  0  0  0  0  0
   26.4546  -21.7296  -15.2886 C   0  0  0  0  0  0  0  0  0  0  0  0
   25.4848  -22.2969  -15.8401 O   0  0  0  0  0  0  0  0  0  0  0  0
   26.3234  -21.1334  -14.0124 N   0  0  0  0  0  0  0  0  0  0  0  0
   25.1563  -21.1295  -13.1767 C   0  0  1  0  0  0  0  0  0  0  0  0
   25.4453  -21.0309  -11.7221 C   0  0  0  0  0  0  0  0  0  0  0  0
   24.1505  -21.1513  -10.9299 C   0  0  0  0  0  0  0  0  0  0  0  0
   24.4207  -20.9539   -9.4418 C   0  0  0  0  0  0  0  0  0  0  0  0
   23.1589  -21.1211   -8.6383 C   0  0  0  0  0  0  0  0  0  0  0  0
   23.3683  -20.8361   -7.2346 N   0  0  0  0  0  0  0  0  0  0  0  0
   24.0646  -20.2271  -13.6485 C   0  0  0  0  0  0  0  0  0  0  0  0
   24.1823  -18.9830  -13.6754 O   0  0  0  0  0  0  0  0  0  0  0  0
   22.5422  -19.6599  -16.9270 C   0  0  0  0  0  0  0  0  0  0  0  0
   21.4237  -20.0344  -16.0114 C   0  0  1  0  0  0  0  0  0  0  0  0
   21.0486  -21.3769  -16.1895 O   0  0  0  0  0  0  0  0  0  0  0  0
   21.7433  -19.8698  -14.5481 C   0  0  2  0  0  0  0  0  0  0  0  0
   22.8128  -20.7361  -14.1006 N   0  0  0  0  0  0  0  0  0  0  0  0
   20.5386  -19.9952  -13.6953 C   0  0  0  0  0  0  0  0  0  0  0  0
   19.4364  -19.1929  -13.8384 O   0  0  0  0  0  0  0  0  0  0  0  0
   20.5396  -20.8791  -12.8057 O   0  0  0  0  0  0  0  0  0  0  0  0
  2  1  1  6
  3  4  1  0
  3  2  1  0
  5  4  1  0
  5  6  1  0
  7  6  1  0
  8  2  1  0
  8  9  2  0
 10  8  1  0
 11 10  1  0
 11 12  1  1
 13 12  1  0
 13 14  1  0
 15 14  1  0
 16 15  1  0
 17 11  1  0
 18 17  2  0
 20 19  1  6
 20 22  1  0
 21 20  1  0
 22 24  1  0
 22 23  1  1
 23 17  1  0
 24 25  1  0
 26 24  2  0
M  END
$$$$
