KKT.pdb
     RDKit          3D

 26 25  0  0  1  0  0  0  0  0999 V2000
   28.6219  -22.1625  -16.1791 N   0  0  0  0  0  0  0  0  0  0  0  0
   27.3520  -22.2289  -16.8734 C   0  0  1  0  0  0  0  0  0  0  0  0
   26.9458  -23.6620  -16.9934 C   0  0  0  0  0  0  0  0  0  0  0  0
   28.0034  -24.4910  -17.7251 C   0  0  0  0  0  0  0  0  0  0  0  0
   28.4629  -25.6398  -16.8835 C   0  0  0  0  0  0  0  0  0  0  0  0
   27.5881  -26.8633  -17.0403 C   0  0  0  0  0  0  0  0  0  0  0  0
   28.0862  -27.9022  -16.1578 N   0  0  0  0  0  0  0  0  0  0  0  0
   26.3178  -21.3964  -16.1920 C   0  0  0  0  0  0  0  0  0  0  0  0
   26.3609  -21.3645  -14.9415 O   0  0  0  0  0  0  0  0  0  0  0  0
   25.3337  -20.6753  -16.9081 N   0  0  0  0  0  0  0  0  0  0  0  0
   24.3359  -19.7998  -16.3616 C   0  0  1  0  0  0  0  0  0  0  0  0
   24.2696  -18.4652  -17.0124 C   0  0  0  0  0  0  0  0  0  0  0  0
   25.5579  -17.6980  -16.7478 C   0  0  0  0  0  0  0  0  0  0  0  0
   25.4947  -16.3188  -17.3962 C   0  0  0  0  0  0  0  0  0  0  0  0
   26.8239  -15.6187  -17.3036 C   0  0  0  0  0  0  0  0  0  0  0  0
   26.7824  -14.2967  -17.8921 N   0  0  0  0  0  0  0  0  0  0  0  0
   23.0065  -20.4429  -16.1422 C   0  0  0  0  0  0  0  0  0  0  0  0
   22.2962  -20.8608  -17.0821 O   0  0  0  0  0  0  0  0  0  0  0  0
   22.0570  -23.2398  -13.4000 C   0  0  0  0  0  0  0  0  0  0  0  0
   21.1184  -22.0788  -13.3761 C   0  0  1  0  0  0  0  0  0  0  0  0
   21.3888  -21.2288  -12.2902 O   0  0  0  0  0  0  0  0  0  0  0  0
   21.1670  -21.2209  -14.6137 C   0  0  2  0  0  0  0  0  0  0  0  0
   22.4647  -20.6200  -14.8363 N   0  0  0  0  0  0  0  0  0  0  0  0
   20.0812  -20.2135  -14.6386 C   0  0  0  0  0  0  0  0  0  0  0  0
   18.7526  -20.5473  -14.5902 O   0  0  0  0  0  0  0  0  0  0  0  0
   20.4053  -19.0040  -14.7073 O   0  0  0  0  0  0  0  0  0  0  0  0
  2  1  1  1
  3  4  1  0
  3  2  1  0
  5  4  1  0
  5  6  1  0
  7  6  1  0
  8  2  1  0
  8  9  2  0
 10  8  1  0
 11 10  1  0
 11 12  1  6
 13 12  1  0
 13 14  1  0
 15 14  1  0
 16 15  1  0
 17 11  1  0
 18 17  2  0
 20 19  1  6
 20 22  1  0
 21 20  1  0
 22 24  1  0
 22 23  1  1
 23 17  1  0
 24 25  1  0
 26 24  2  0
M  END
$$$$
