KKT.pdb
     RDKit          3D

 26 25  0  0  1  0  0  0  0  0999 V2000
   29.1957  -23.8579  -17.5803 N   0  0  0  0  0  0  0  0  0  0  0  0
   27.8009  -24.2058  -17.4007 C   0  0  1  0  0  0  0  0  0  0  0  0
   27.7216  -25.5074  -16.6709 C   0  0  0  0  0  0  0  0  0  0  0  0
   28.0799  -26.6873  -17.5768 C   0  0  0  0  0  0  0  0  0  0  0  0
   27.9674  -27.9847  -16.8397 C   0  0  0  0  0  0  0  0  0  0  0  0
   28.2389  -29.1818  -17.7228 C   0  0  0  0  0  0  0  0  0  0  0  0
   28.2222  -30.3761  -16.8982 N   0  0  0  0  0  0  0  0  0  0  0  0
   27.0553  -23.1149  -16.7071 C   0  0  0  0  0  0  0  0  0  0  0  0
   27.6650  -22.5144  -15.7938 O   0  0  0  0  0  0  0  0  0  0  0  0
   25.7285  -22.7660  -17.0526 N   0  0  0  0  0  0  0  0  0  0  0  0
   24.9499  -21.6886  -16.5108 C   0  0  1  0  0  0  0  0  0  0  0  0
   24.1094  -20.9780  -17.5097 C   0  0  0  0  0  0  0  0  0  0  0  0
   23.2980  -19.8897  -16.8200 C   0  0  0  0  0  0  0  0  0  0  0  0
   23.6291  -18.5252  -17.4159 C   0  0  0  0  0  0  0  0  0  0  0  0
   22.8329  -17.4374  -16.7464 C   0  0  0  0  0  0  0  0  0  0  0  0
   23.0433  -16.1488  -17.3713 N   0  0  0  0  0  0  0  0  0  0  0  0
   24.2434  -22.0194  -15.2379 C   0  0  0  0  0  0  0  0  0  0  0  0
   23.3815  -22.9213  -15.1596 O   0  0  0  0  0  0  0  0  0  0  0  0
   26.0281  -21.8523  -11.5403 C   0  0  0  0  0  0  0  0  0  0  0  0
   24.6537  -21.2694  -11.5663 C   0  0  1  0  0  0  0  0  0  0  0  0
   24.6963  -19.8652  -11.5332 O   0  0  0  0  0  0  0  0  0  0  0  0
   23.8475  -21.6446  -12.7826 C   0  0  2  0  0  0  0  0  0  0  0  0
   24.5131  -21.3199  -14.0260 N   0  0  0  0  0  0  0  0  0  0  0  0
   22.4727  -21.0955  -12.7333 C   0  0  0  0  0  0  0  0  0  0  0  0
   21.9974  -20.1908  -13.6470 O   0  0  0  0  0  0  0  0  0  0  0  0
   21.7192  -21.4836  -11.8090 O   0  0  0  0  0  0  0  0  0  0  0  0
  2  1  1  1
  3  4  1  0
  3  2  1  0
  5  4  1  0
  5  6  1  0
  7  6  1  0
  8  2  1  0
  8  9  2  0
 10  8  1  0
 11 10  1  0
 11 12  1  6
 13 12  1  0
 13 14  1  0
 15 14  1  0
 16 15  1  0
 17 11  1  0
 18 17  2  0
 20 19  1  6
 20 22  1  0
 21 20  1  0
 22 24  1  0
 22 23  1  6
 23 17  1  0
 24 25  1  0
 26 24  2  0
M  END
$$$$
