KKT.pdb
     RDKit          3D

 26 25  0  0  1  0  0  0  0  0999 V2000
   27.8878  -22.2986  -15.7287 N   0  0  0  0  0  0  0  0  0  0  0  0
   27.5195  -21.3115  -16.7232 C   0  0  1  0  0  0  0  0  0  0  0  0
   27.8891  -21.8315  -18.0745 C   0  0  0  0  0  0  0  0  0  0  0  0
   29.3534  -22.2719  -18.1307 C   0  0  0  0  0  0  0  0  0  0  0  0
   30.1432  -21.3962  -19.0519 C   0  0  0  0  0  0  0  0  0  0  0  0
   31.5899  -21.8222  -19.1627 C   0  0  0  0  0  0  0  0  0  0  0  0
   31.6322  -23.1855  -19.6589 N   0  0  0  0  0  0  0  0  0  0  0  0
   26.0738  -20.9551  -16.6233 C   0  0  0  0  0  0  0  0  0  0  0  0
   25.5148  -20.5863  -17.6806 O   0  0  0  0  0  0  0  0  0  0  0  0
   25.3589  -21.0254  -15.4045 N   0  0  0  0  0  0  0  0  0  0  0  0
   23.9621  -20.7608  -15.2060 C   0  0  1  0  0  0  0  0  0  0  0  0
   23.3959  -21.3570  -13.9677 C   0  0  0  0  0  0  0  0  0  0  0  0
   21.8798  -21.2171  -13.9748 C   0  0  0  0  0  0  0  0  0  0  0  0
   21.2838  -21.8574  -12.7252 C   0  0  0  0  0  0  0  0  0  0  0  0
   19.7876  -21.6959  -12.6985 C   0  0  0  0  0  0  0  0  0  0  0  0
   19.1903  -22.3653  -11.5624 N   0  0  0  0  0  0  0  0  0  0  0  0
   23.5653  -19.3408  -15.4410 C   0  0  0  0  0  0  0  0  0  0  0  0
   23.8340  -18.4234  -14.6356 O   0  0  0  0  0  0  0  0  0  0  0  0
   24.6619  -16.9768  -18.0870 C   0  0  0  0  0  0  0  0  0  0  0  0
   23.1714  -17.0445  -18.1446 C   0  0  1  0  0  0  0  0  0  0  0  0
   22.7405  -17.8847  -19.1853 O   0  0  0  0  0  0  0  0  0  0  0  0
   22.5283  -17.5607  -16.8836 C   0  0  2  0  0  0  0  0  0  0  0  0
   22.8508  -18.9445  -16.6083 N   0  0  0  0  0  0  0  0  0  0  0  0
   21.0668  -17.3204  -16.8625 C   0  0  0  0  0  0  0  0  0  0  0  0
   20.5153  -16.0684  -16.9487 O   0  0  0  0  0  0  0  0  0  0  0  0
   20.3105  -18.3156  -16.7609 O   0  0  0  0  0  0  0  0  0  0  0  0
  2  1  1  1
  3  4  1  0
  3  2  1  0
  5  4  1  0
  5  6  1  0
  7  6  1  0
  8  2  1  0
  8  9  2  0
 10  8  1  0
 11 10  1  0
 11 12  1  1
 13 12  1  0
 13 14  1  0
 15 14  1  0
 16 15  1  0
 17 11  1  0
 18 17  2  0
 20 19  1  1
 20 22  1  0
 21 20  1  0
 22 24  1  0
 22 23  1  6
 23 17  1  0
 24 25  1  0
 26 24  2  0
M  END
$$$$
