VLN.pdb
     RDKit          3D

 24 23  0  0  1  0  0  0  0  0999 V2000
    7.6936  -18.8411   22.5963 C   0  0  0  0  0  0  0  0  0  0  0  0
    6.3374  -18.2152   22.5345 C   0  0  2  0  0  0  0  0  0  0  0  0
    5.3738  -19.0781   21.7471 C   0  0  0  0  0  0  0  0  0  0  0  0
    6.3614  -16.8445   21.8984 C   0  0  2  0  0  0  0  0  0  0  0  0
    6.7753  -16.9142   20.5229 N   0  0  0  0  0  0  0  0  0  0  0  0
    7.1804  -15.8819   22.6722 C   0  0  0  0  0  0  0  0  0  0  0  0
    8.2261  -15.4493   22.1661 O   0  0  0  0  0  0  0  0  0  0  0  0
    7.4260  -11.5581   25.2086 C   0  0  0  0  0  0  0  0  0  0  0  0
    7.2134  -12.5646   26.3285 C   0  0  1  0  0  0  0  0  0  0  0  0
    6.4609  -11.8860   27.4273 C   0  0  0  0  0  0  0  0  0  0  0  0
    6.6225  -13.8447   25.8291 C   0  0  0  0  0  0  0  0  0  0  0  0
    7.4406  -14.5644   24.7925 C   0  0  2  0  0  0  0  0  0  0  0  0
    6.7480  -15.4848   23.9619 N   0  0  0  0  0  0  0  0  0  0  0  0
    8.6767  -15.1443   25.3262 C   0  0  0  0  0  0  0  0  0  0  0  0
    9.4719  -14.4114   25.9788 O   0  0  0  0  0  0  0  0  0  0  0  0
   12.3469  -18.0819   24.0205 N   0  0  0  0  0  0  0  0  0  0  0  0
   12.4641  -16.6930   24.2757 C   0  0  0  0  0  0  0  0  0  0  0  0
   13.4486  -16.1003   23.7699 O   0  0  0  0  0  0  0  0  0  0  0  0
   11.4329  -16.0540   25.1069 C   0  0  0  0  0  0  0  0  0  0  0  0
   10.3661  -16.9915   25.5806 C   0  0  2  0  0  0  0  0  0  0  0  0
    9.0550  -16.5030   25.1590 N   0  0  0  0  0  0  0  0  0  0  0  0
   10.4030  -17.2083   27.0479 C   0  0  0  0  0  0  0  0  0  0  0  0
   10.1773  -16.1550   27.9198 O   0  0  0  0  0  0  0  0  0  0  0  0
   10.6360  -18.3342   27.5484 O   0  0  0  0  0  0  0  0  0  0  0  0
  2  1  1  6
  2  3  1  0
  4  2  1  0
  4  5  1  6
  6  4  1  0
  6  7  2  0
  9 10  1  1
  9  8  1  0
 11  9  1  0
 12 11  1  1
 12 13  1  0
 13  6  1  0
 14 12  1  0
 15 14  2  0
 17 18  2  0
 17 16  1  0
 19 17  1  0
 20 19  1  1
 20 21  1  0
 20 22  1  0
 21 14  1  0
 22 23  1  0
 24 22  2  0
M  END
$$$$
