VLN.pdb
     RDKit          3D

 24 23  0  0  1  0  0  0  0  0999 V2000
    8.8858  -18.0497   21.2914 C   0  0  0  0  0  0  0  0  0  0  0  0
    7.6408  -17.2784   20.9915 C   0  0  2  0  0  0  0  0  0  0  0  0
    6.9719  -17.7902   19.7331 C   0  0  0  0  0  0  0  0  0  0  0  0
    7.9049  -15.8013   20.8106 C   0  0  2  0  0  0  0  0  0  0  0  0
    8.8419  -15.5649   19.7456 N   0  0  0  0  0  0  0  0  0  0  0  0
    8.3285  -15.1492   22.0721 C   0  0  0  0  0  0  0  0  0  0  0  0
    9.5274  -14.8741   22.2260 O   0  0  0  0  0  0  0  0  0  0  0  0
    7.5301  -11.4139   25.8174 C   0  0  0  0  0  0  0  0  0  0  0  0
    6.7467  -12.6777   26.1366 C   0  0  1  0  0  0  0  0  0  0  0  0
    5.5748  -12.2973   26.9828 C   0  0  0  0  0  0  0  0  0  0  0  0
    6.4322  -13.4696   24.9073 C   0  0  0  0  0  0  0  0  0  0  0  0
    7.6152  -14.1253   24.2497 C   0  0  2  0  0  0  0  0  0  0  0  0
    7.3568  -14.8597   23.0621 N   0  0  0  0  0  0  0  0  0  0  0  0
    8.4522  -14.8858   25.1826 C   0  0  0  0  0  0  0  0  0  0  0  0
    7.9936  -15.1869   26.3203 O   0  0  0  0  0  0  0  0  0  0  0  0
    9.7032  -19.1352   27.5158 N   0  0  0  0  0  0  0  0  0  0  0  0
   10.1093  -18.8245   26.1943 C   0  0  0  0  0  0  0  0  0  0  0  0
   10.9442  -19.5933   25.6575 O   0  0  0  0  0  0  0  0  0  0  0  0
    9.5277  -17.6348   25.5547 C   0  0  0  0  0  0  0  0  0  0  0  0
   10.3975  -16.4185   25.6271 C   0  0  2  0  0  0  0  0  0  0  0  0
    9.7735  -15.3194   24.8936 N   0  0  0  0  0  0  0  0  0  0  0  0
   11.7749  -16.6680   25.1353 C   0  0  0  0  0  0  0  0  0  0  0  0
   12.1426  -16.2904   23.8536 O   0  0  0  0  0  0  0  0  0  0  0  0
   12.6458  -17.2211   25.8480 O   0  0  0  0  0  0  0  0  0  0  0  0
  2  1  1  6
  2  3  1  0
  4  2  1  0
  4  5  1  6
  6  4  1  0
  6  7  2  0
  9 10  1  6
  9  8  1  0
 11  9  1  0
 12 11  1  1
 12 13  1  0
 13  6  1  0
 14 12  1  0
 15 14  2  0
 17 18  2  0
 17 16  1  0
 19 17  1  0
 20 19  1  6
 20 21  1  0
 20 22  1  0
 21 14  1  0
 22 23  1  0
 24 22  2  0
M  END
$$$$
