VLN.pdb
     RDKit          3D

 24 23  0  0  1  0  0  0  0  0999 V2000
    8.6202  -18.1040   21.4698 C   0  0  0  0  0  0  0  0  0  0  0  0
    7.5380  -17.1012   21.2292 C   0  0  2  0  0  0  0  0  0  0  0  0
    6.8867  -17.3148   19.8790 C   0  0  0  0  0  0  0  0  0  0  0  0
    8.0456  -15.6786   21.2814 C   0  0  2  0  0  0  0  0  0  0  0  0
    9.0250  -15.4356   20.2567 N   0  0  0  0  0  0  0  0  0  0  0  0
    8.5519  -15.3132   22.6253 C   0  0  0  0  0  0  0  0  0  0  0  0
    9.7761  -15.3161   22.8206 O   0  0  0  0  0  0  0  0  0  0  0  0
    5.5975  -12.1684   26.5477 C   0  0  0  0  0  0  0  0  0  0  0  0
    6.7457  -12.7136   25.7129 C   0  0  1  0  0  0  0  0  0  0  0  0
    7.9529  -11.8726   25.9767 C   0  0  0  0  0  0  0  0  0  0  0  0
    6.9256  -14.1868   25.8985 C   0  0  0  0  0  0  0  0  0  0  0  0
    7.9654  -14.8197   25.0152 C   0  0  2  0  0  0  0  0  0  0  0  0
    7.6280  -14.9725   23.6443 N   0  0  0  0  0  0  0  0  0  0  0  0
    8.5300  -16.0526   25.5722 C   0  0  0  0  0  0  0  0  0  0  0  0
    7.8211  -17.0976   25.6052 O   0  0  0  0  0  0  0  0  0  0  0  0
   12.2676  -20.0451   25.2031 N   0  0  0  0  0  0  0  0  0  0  0  0
   12.3872  -18.9252   26.0628 C   0  0  0  0  0  0  0  0  0  0  0  0
   13.0934  -19.0672   27.0911 O   0  0  0  0  0  0  0  0  0  0  0  0
   11.6815  -17.6899   25.6902 C   0  0  0  0  0  0  0  0  0  0  0  0
   10.4217  -17.4521   26.4633 C   0  0  2  0  0  0  0  0  0  0  0  0
    9.8481  -16.1609   26.0901 N   0  0  0  0  0  0  0  0  0  0  0  0
   10.6244  -17.5365   27.9307 C   0  0  0  0  0  0  0  0  0  0  0  0
   10.3369  -16.4514   28.7434 O   0  0  0  0  0  0  0  0  0  0  0  0
   11.0565  -18.5756   28.4839 O   0  0  0  0  0  0  0  0  0  0  0  0
  2  1  1  6
  2  3  1  0
  4  2  1  0
  4  5  1  6
  6  4  1  0
  6  7  2  0
  9 10  1  1
  9  8  1  0
 11  9  1  0
 12 11  1  1
 12 13  1  0
 13  6  1  0
 14 12  1  0
 15 14  2  0
 17 18  2  0
 17 16  1  0
 19 17  1  0
 20 19  1  6
 20 21  1  0
 20 22  1  0
 21 14  1  0
 22 23  1  0
 24 22  2  0
M  END
$$$$
