VLN.pdb
     RDKit          3D

 24 23  0  0  1  0  0  0  0  0999 V2000
    8.0128  -16.5286   20.7077 C   0  0  0  0  0  0  0  0  0  0  0  0
    6.9305  -15.4999   20.7798 C   0  0  2  0  0  0  0  0  0  0  0  0
    6.2198  -15.3617   19.4498 C   0  0  0  0  0  0  0  0  0  0  0  0
    7.4528  -14.1372   21.1724 C   0  0  2  0  0  0  0  0  0  0  0  0
    8.3211  -13.5991   20.1602 N   0  0  0  0  0  0  0  0  0  0  0  0
    8.1007  -14.1480   22.5052 C   0  0  0  0  0  0  0  0  0  0  0  0
    9.3388  -14.1597   22.5645 O   0  0  0  0  0  0  0  0  0  0  0  0
    5.4459  -12.1163   27.1517 C   0  0  0  0  0  0  0  0  0  0  0  0
    6.5606  -12.4271   26.1651 C   0  0  1  0  0  0  0  0  0  0  0  0
    7.7167  -11.5306   26.4718 C   0  0  0  0  0  0  0  0  0  0  0  0
    6.8686  -13.8896   26.1074 C   0  0  0  0  0  0  0  0  0  0  0  0
    7.7853  -14.3058   24.9901 C   0  0  2  0  0  0  0  0  0  0  0  0
    7.2915  -14.1447   23.6685 N   0  0  0  0  0  0  0  0  0  0  0  0
    8.3774  -15.6325   25.1865 C   0  0  0  0  0  0  0  0  0  0  0  0
    7.6736  -16.6605   24.9784 O   0  0  0  0  0  0  0  0  0  0  0  0
   12.7828  -18.5345   23.5041 N   0  0  0  0  0  0  0  0  0  0  0  0
   11.6341  -17.8266   23.9368 C   0  0  0  0  0  0  0  0  0  0  0  0
   10.7160  -17.6595   23.0968 O   0  0  0  0  0  0  0  0  0  0  0  0
   11.6024  -17.3442   25.3256 C   0  0  0  0  0  0  0  0  0  0  0  0
   10.2224  -17.1937   25.8862 C   0  0  2  0  0  0  0  0  0  0  0  0
    9.7171  -15.8518   25.6038 N   0  0  0  0  0  0  0  0  0  0  0  0
   10.1579  -17.4883   27.3389 C   0  0  0  0  0  0  0  0  0  0  0  0
   10.4078  -18.7681   27.8081 O   0  0  0  0  0  0  0  0  0  0  0  0
    9.8793  -16.6057   28.1850 O   0  0  0  0  0  0  0  0  0  0  0  0
  2  1  1  6
  2  3  1  0
  4  2  1  0
  4  5  1  6
  6  4  1  0
  6  7  2  0
  9 10  1  1
  9  8  1  0
 11  9  1  0
 12 11  1  1
 12 13  1  0
 13  6  1  0
 14 12  1  0
 15 14  2  0
 17 18  2  0
 17 16  1  0
 19 17  1  0
 20 19  1  1
 20 21  1  0
 20 22  1  0
 21 14  1  0
 22 23  1  0
 24 22  2  0
M  END
$$$$
