VLN.pdb
     RDKit          3D

 24 23  0  0  1  0  0  0  0  0999 V2000
    7.5536  -17.3461   19.2181 C   0  0  0  0  0  0  0  0  0  0  0  0
    7.8567  -16.9461   20.6263 C   0  0  2  0  0  0  0  0  0  0  0  0
    6.6316  -17.0777   21.5064 C   0  0  0  0  0  0  0  0  0  0  0  0
    8.3531  -15.5223   20.7291 C   0  0  2  0  0  0  0  0  0  0  0  0
    9.4299  -15.2768   19.8082 N   0  0  0  0  0  0  0  0  0  0  0  0
    8.7208  -15.1560   22.1172 C   0  0  0  0  0  0  0  0  0  0  0  0
    9.9218  -15.0982   22.4186 O   0  0  0  0  0  0  0  0  0  0  0  0
    8.2940  -11.8116   26.2815 C   0  0  0  0  0  0  0  0  0  0  0  0
    7.1662  -12.8306   26.2329 C   0  0  1  0  0  0  0  0  0  0  0  0
    5.9795  -12.2446   26.9276 C   0  0  0  0  0  0  0  0  0  0  0  0
    6.9246  -13.3359   24.8460 C   0  0  0  0  0  0  0  0  0  0  0  0
    7.9164  -14.3545   24.3554 C   0  0  2  0  0  0  0  0  0  0  0  0
    7.6952  -14.8834   23.0562 N   0  0  0  0  0  0  0  0  0  0  0  0
    8.1921  -15.4148   25.3295 C   0  0  0  0  0  0  0  0  0  0  0  0
    8.3495  -15.1115   26.5455 O   0  0  0  0  0  0  0  0  0  0  0  0
   11.9722  -18.9919   24.6496 N   0  0  0  0  0  0  0  0  0  0  0  0
   11.8574  -17.6574   24.1873 C   0  0  0  0  0  0  0  0  0  0  0  0
   12.9241  -17.0524   23.9179 O   0  0  0  0  0  0  0  0  0  0  0  0
   10.5091  -17.0846   24.0585 C   0  0  0  0  0  0  0  0  0  0  0  0
    9.5588  -17.5180   25.1310 C   0  0  2  0  0  0  0  0  0  0  0  0
    8.2977  -16.7918   24.9980 N   0  0  0  0  0  0  0  0  0  0  0  0
   10.1206  -17.3570   26.4947 C   0  0  0  0  0  0  0  0  0  0  0  0
   10.0576  -18.3973   27.4080 O   0  0  0  0  0  0  0  0  0  0  0  0
   10.6653  -16.2910   26.8683 O   0  0  0  0  0  0  0  0  0  0  0  0
  2  1  1  6
  2  3  1  0
  4  2  1  0
  4  5  1  6
  6  4  1  0
  6  7  2  0
  9 10  1  6
  9  8  1  0
 11  9  1  0
 12 11  1  1
 12 13  1  0
 13  6  1  0
 14 12  1  0
 15 14  2  0
 17 18  2  0
 17 16  1  0
 19 17  1  0
 20 19  1  6
 20 21  1  0
 20 22  1  0
 21 14  1  0
 22 23  1  0
 24 22  2  0
M  END
$$$$
