VLN.pdb
     RDKit          3D

 24 23  0  0  1  0  0  0  0  0999 V2000
    7.5370  -15.1582   18.7556 C   0  0  0  0  0  0  0  0  0  0  0  0
    8.0030  -15.0719   20.1734 C   0  0  2  0  0  0  0  0  0  0  0  0
    7.3015  -16.0954   21.0414 C   0  0  0  0  0  0  0  0  0  0  0  0
    7.7656  -13.7074   20.7782 C   0  0  2  0  0  0  0  0  0  0  0  0
    8.2712  -12.6639   19.9276 N   0  0  0  0  0  0  0  0  0  0  0  0
    8.3024  -13.6040   22.1557 C   0  0  0  0  0  0  0  0  0  0  0  0
    9.5133  -13.3864   22.3073 O   0  0  0  0  0  0  0  0  0  0  0  0
    7.4104  -11.1610   25.5267 C   0  0  0  0  0  0  0  0  0  0  0  0
    6.9242  -12.2979   26.4118 C   0  0  1  0  0  0  0  0  0  0  0  0
    5.7047  -11.8320   27.1397 C   0  0  0  0  0  0  0  0  0  0  0  0
    6.7795  -13.5787   25.6529 C   0  0  0  0  0  0  0  0  0  0  0  0
    7.8360  -13.8272   24.6117 C   0  0  2  0  0  0  0  0  0  0  0  0
    7.4215  -13.7559   23.2553 N   0  0  0  0  0  0  0  0  0  0  0  0
    8.6355  -15.0287   24.8688 C   0  0  0  0  0  0  0  0  0  0  0  0
    9.1318  -15.2072   26.0165 O   0  0  0  0  0  0  0  0  0  0  0  0
   10.3770  -20.3760   22.4871 N   0  0  0  0  0  0  0  0  0  0  0  0
    9.9924  -19.6124   23.6170 C   0  0  0  0  0  0  0  0  0  0  0  0
   10.3297  -20.0505   24.7442 O   0  0  0  0  0  0  0  0  0  0  0  0
    9.2334  -18.3738   23.3879 C   0  0  0  0  0  0  0  0  0  0  0  0
    9.6958  -17.2149   24.2151 C   0  0  2  0  0  0  0  0  0  0  0  0
    8.8994  -16.0314   23.8981 N   0  0  0  0  0  0  0  0  0  0  0  0
   11.1442  -16.9365   24.0537 C   0  0  0  0  0  0  0  0  0  0  0  0
   12.0350  -17.2352   25.0723 O   0  0  0  0  0  0  0  0  0  0  0  0
   11.6114  -16.4284   23.0067 O   0  0  0  0  0  0  0  0  0  0  0  0
  2  1  1  6
  2  3  1  0
  4  2  1  0
  4  5  1  6
  6  4  1  0
  6  7  2  0
  9 10  1  6
  9  8  1  0
 11  9  1  0
 12 11  1  1
 12 13  1  0
 13  6  1  0
 14 12  1  0
 15 14  2  0
 17 18  2  0
 17 16  1  0
 19 17  1  0
 20 19  1  6
 20 21  1  0
 20 22  1  0
 21 14  1  0
 22 23  1  0
 24 22  2  0
M  END
$$$$
