VLN.pdb
     RDKit          3D

 24 23  0  0  1  0  0  0  0  0999 V2000
   11.3534  -20.8804   18.2247 C   0  0  0  0  0  0  0  0  0  0  0  0
   11.2777  -19.5631   18.9275 C   0  0  2  0  0  0  0  0  0  0  0  0
   10.2904  -19.6128   20.0746 C   0  0  0  0  0  0  0  0  0  0  0  0
   10.8645  -18.4388   18.0060 C   0  0  2  0  0  0  0  0  0  0  0  0
   11.6896  -18.3982   16.8289 N   0  0  0  0  0  0  0  0  0  0  0  0
   10.8296  -17.1297   18.6999 C   0  0  0  0  0  0  0  0  0  0  0  0
   11.8967  -16.5276   18.8877 O   0  0  0  0  0  0  0  0  0  0  0  0
    8.6460  -12.3673   20.1229 C   0  0  0  0  0  0  0  0  0  0  0  0
    7.9240  -13.5614   20.7272 C   0  0  1  0  0  0  0  0  0  0  0  0
    6.5243  -13.1457   21.0469 C   0  0  0  0  0  0  0  0  0  0  0  0
    8.0617  -14.7881   19.8825 C   0  0  0  0  0  0  0  0  0  0  0  0
    9.4318  -15.4083   19.8754 C   0  0  2  0  0  0  0  0  0  0  0  0
    9.5843  -16.6055   19.1270 N   0  0  0  0  0  0  0  0  0  0  0  0
   10.0232  -15.5285   21.2113 C   0  0  0  0  0  0  0  0  0  0  0  0
   10.1606  -14.4934   21.9221 O   0  0  0  0  0  0  0  0  0  0  0  0
   11.8358  -17.2386   25.7217 N   0  0  0  0  0  0  0  0  0  0  0  0
   11.0119  -18.2543   25.1765 C   0  0  0  0  0  0  0  0  0  0  0  0
   10.7745  -19.2493   25.9044 O   0  0  0  0  0  0  0  0  0  0  0  0
   10.5003  -18.0695   23.8102 C   0  0  0  0  0  0  0  0  0  0  0  0
   10.9890  -16.8227   23.1409 C   0  0  2  0  0  0  0  0  0  0  0  0
   10.4639  -16.7536   21.7789 N   0  0  0  0  0  0  0  0  0  0  0  0
   12.4686  -16.7123   23.1435 C   0  0  0  0  0  0  0  0  0  0  0  0
   13.1686  -16.6207   21.9510 O   0  0  0  0  0  0  0  0  0  0  0  0
   13.1328  -16.6977   24.2071 O   0  0  0  0  0  0  0  0  0  0  0  0
  2  1  1  6
  2  3  1  0
  4  2  1  0
  4  5  1  6
  6  4  1  0
  6  7  2  0
  9 10  1  6
  9  8  1  0
 11  9  1  0
 12 11  1  1
 12 13  1  0
 13  6  1  0
 14 12  1  0
 15 14  2  0
 17 18  2  0
 17 16  1  0
 19 17  1  0
 20 19  1  6
 20 21  1  0
 20 22  1  0
 21 14  1  0
 22 23  1  0
 24 22  2  0
M  END
$$$$
