VLN.pdb
     RDKit          3D

 24 23  0  0  1  0  0  0  0  0999 V2000
    7.0087  -18.2902   19.6896 C   0  0  0  0  0  0  0  0  0  0  0  0
    7.6165  -17.6089   20.8733 C   0  0  2  0  0  0  0  0  0  0  0  0
    6.8443  -17.9204   22.1380 C   0  0  0  0  0  0  0  0  0  0  0  0
    7.6639  -16.1066   20.7148 C   0  0  2  0  0  0  0  0  0  0  0  0
    8.2993  -15.7314   19.4804 N   0  0  0  0  0  0  0  0  0  0  0  0
    8.2889  -15.4395   21.8812 C   0  0  0  0  0  0  0  0  0  0  0  0
    9.4968  -15.1651   21.8325 O   0  0  0  0  0  0  0  0  0  0  0  0
    6.4749  -11.4048   26.1077 C   0  0  0  0  0  0  0  0  0  0  0  0
    7.3293  -12.6464   25.9055 C   0  0  1  0  0  0  0  0  0  0  0  0
    7.4324  -13.3585   27.2155 C   0  0  0  0  0  0  0  0  0  0  0  0
    6.8566  -13.4721   24.7513 C   0  0  0  0  0  0  0  0  0  0  0  0
    7.9141  -14.3153   24.0936 C   0  0  2  0  0  0  0  0  0  0  0  0
    7.4931  -15.1356   23.0136 N   0  0  0  0  0  0  0  0  0  0  0  0
    8.7400  -15.0617   25.0475 C   0  0  0  0  0  0  0  0  0  0  0  0
    9.2771  -14.4486   26.0124 O   0  0  0  0  0  0  0  0  0  0  0  0
   12.4024  -17.0801   22.8895 N   0  0  0  0  0  0  0  0  0  0  0  0
   12.0572  -17.5337   24.1867 C   0  0  0  0  0  0  0  0  0  0  0  0
   12.3390  -18.7240   24.4695 O   0  0  0  0  0  0  0  0  0  0  0  0
   11.4000  -16.5849   25.0981 C   0  0  0  0  0  0  0  0  0  0  0  0
   10.1066  -17.0821   25.6649 C   0  0  2  0  0  0  0  0  0  0  0  0
    8.9865  -16.4580   24.9641 N   0  0  0  0  0  0  0  0  0  0  0  0
   10.0010  -16.8660   27.1290 C   0  0  0  0  0  0  0  0  0  0  0  0
    8.9174  -16.1867   27.6627 O   0  0  0  0  0  0  0  0  0  0  0  0
   10.8735  -17.2824   27.9276 O   0  0  0  0  0  0  0  0  0  0  0  0
  2  1  1  6
  2  3  1  0
  4  2  1  0
  4  5  1  6
  6  4  1  0
  6  7  2  0
  9 10  1  1
  9  8  1  0
 11  9  1  0
 12 11  1  1
 12 13  1  0
 13  6  1  0
 14 12  1  0
 15 14  2  0
 17 18  2  0
 17 16  1  0
 19 17  1  0
 20 19  1  6
 20 21  1  0
 20 22  1  0
 21 14  1  0
 22 23  1  0
 24 22  2  0
M  END
$$$$
