VLN.pdb
     RDKit          3D

 24 23  0  0  1  0  0  0  0  0999 V2000
    7.7282  -20.2284   24.4649 C   0  0  0  0  0  0  0  0  0  0  0  0
    6.3256  -19.8098   24.7684 C   0  0  2  0  0  0  0  0  0  0  0  0
    5.3733  -20.9832   24.6728 C   0  0  0  0  0  0  0  0  0  0  0  0
    5.8292  -18.7301   23.8346 C   0  0  2  0  0  0  0  0  0  0  0  0
    5.7351  -19.2115   22.4827 N   0  0  0  0  0  0  0  0  0  0  0  0
    6.6424  -17.4944   23.9241 C   0  0  0  0  0  0  0  0  0  0  0  0
    7.5599  -17.3259   23.1077 O   0  0  0  0  0  0  0  0  0  0  0  0
    7.4058  -12.3264   24.7080 C   0  0  0  0  0  0  0  0  0  0  0  0
    7.1509  -12.9835   26.0555 C   0  0  1  0  0  0  0  0  0  0  0  0
    6.5546  -11.9598   26.9669 C   0  0  0  0  0  0  0  0  0  0  0  0
    6.3846  -14.2611   25.9219 C   0  0  0  0  0  0  0  0  0  0  0  0
    7.0785  -15.3436   25.1417 C   0  0  2  0  0  0  0  0  0  0  0  0
    6.3503  -16.5450   24.9347 N   0  0  0  0  0  0  0  0  0  0  0  0
    8.4424  -15.6131   25.6067 C   0  0  0  0  0  0  0  0  0  0  0  0
    8.6386  -15.8809   26.8254 O   0  0  0  0  0  0  0  0  0  0  0  0
    9.2998  -18.3689   27.5130 N   0  0  0  0  0  0  0  0  0  0  0  0
   10.5275  -17.9161   26.9696 C   0  0  0  0  0  0  0  0  0  0  0  0
   11.4833  -17.7608   27.7687 O   0  0  0  0  0  0  0  0  0  0  0  0
   10.5909  -17.6636   25.5222 C   0  0  0  0  0  0  0  0  0  0  0  0
   10.8410  -16.2316   25.1646 C   0  0  2  0  0  0  0  0  0  0  0  0
    9.5875  -15.5946   24.7665 N   0  0  0  0  0  0  0  0  0  0  0  0
   11.8722  -16.0752   24.1093 C   0  0  0  0  0  0  0  0  0  0  0  0
   11.5592  -15.4629   22.9062 O   0  0  0  0  0  0  0  0  0  0  0  0
   13.0477  -16.4842   24.2621 O   0  0  0  0  0  0  0  0  0  0  0  0
  2  1  1  6
  2  3  1  0
  4  2  1  0
  4  5  1  6
  6  4  1  0
  6  7  2  0
  9 10  1  1
  9  8  1  0
 11  9  1  0
 12 11  1  1
 12 13  1  0
 13  6  1  0
 14 12  1  0
 15 14  2  0
 17 18  2  0
 17 16  1  0
 19 17  1  0
 20 19  1  6
 20 21  1  0
 20 22  1  0
 21 14  1  0
 22 23  1  0
 24 22  2  0
M  END
$$$$
