VLN.pdb
     RDKit          3D

 24 23  0  0  1  0  0  0  0  0999 V2000
    7.5921  -18.9392   20.2599 C   0  0  0  0  0  0  0  0  0  0  0  0
    8.1069  -18.0226   21.3227 C   0  0  2  0  0  0  0  0  0  0  0  0
    7.6206  -18.4478   22.6922 C   0  0  0  0  0  0  0  0  0  0  0  0
    7.6850  -16.5880   21.1035 C   0  0  2  0  0  0  0  0  0  0  0  0
    8.0138  -16.1439   19.7759 N   0  0  0  0  0  0  0  0  0  0  0  0
    8.2301  -15.6791   22.1394 C   0  0  0  0  0  0  0  0  0  0  0  0
    9.3895  -15.2594   22.0118 O   0  0  0  0  0  0  0  0  0  0  0  0
    7.8644  -11.6665   25.7361 C   0  0  0  0  0  0  0  0  0  0  0  0
    7.1892  -12.9398   26.2210 C   0  0  1  0  0  0  0  0  0  0  0  0
    6.1435  -12.5607   27.2194 C   0  0  0  0  0  0  0  0  0  0  0  0
    6.7255  -13.7972   25.0865 C   0  0  0  0  0  0  0  0  0  0  0  0
    7.8213  -14.4474   24.2876 C   0  0  2  0  0  0  0  0  0  0  0  0
    7.4155  -15.3170   23.2409 N   0  0  0  0  0  0  0  0  0  0  0  0
    8.8658  -15.0542   25.1183 C   0  0  0  0  0  0  0  0  0  0  0  0
    9.6324  -14.3085   25.7904 O   0  0  0  0  0  0  0  0  0  0  0  0
   10.7510  -18.0318   28.6187 N   0  0  0  0  0  0  0  0  0  0  0  0
    9.8079  -18.6000   27.7269 C   0  0  0  0  0  0  0  0  0  0  0  0
    8.8453  -19.2253   28.2355 O   0  0  0  0  0  0  0  0  0  0  0  0
   10.0244  -18.4168   26.2839 C   0  0  0  0  0  0  0  0  0  0  0  0
   10.2719  -16.9963   25.8812 C   0  0  2  0  0  0  0  0  0  0  0  0
    9.0841  -16.4535   25.2254 N   0  0  0  0  0  0  0  0  0  0  0  0
   11.4687  -16.8450   25.0174 C   0  0  0  0  0  0  0  0  0  0  0  0
   12.6258  -16.2669   25.5148 O   0  0  0  0  0  0  0  0  0  0  0  0
   11.4799  -17.2278   23.8233 O   0  0  0  0  0  0  0  0  0  0  0  0
  2  1  1  6
  2  3  1  0
  4  2  1  0
  4  5  1  6
  6  4  1  0
  6  7  2  0
  9 10  1  1
  9  8  1  0
 11  9  1  0
 12 11  1  1
 12 13  1  0
 13  6  1  0
 14 12  1  0
 15 14  2  0
 17 18  2  0
 17 16  1  0
 19 17  1  0
 20 19  1  6
 20 21  1  0
 20 22  1  0
 21 14  1  0
 22 23  1  0
 24 22  2  0
M  END
$$$$
