VLN.pdb
     RDKit          3D

 24 23  0  0  1  0  0  0  0  0999 V2000
    6.9431  -15.2202   18.6038 C   0  0  0  0  0  0  0  0  0  0  0  0
    7.5410  -15.3796   19.9646 C   0  0  2  0  0  0  0  0  0  0  0  0
    6.8067  -16.4364   20.7627 C   0  0  0  0  0  0  0  0  0  0  0  0
    7.5178  -14.0952   20.7607 C   0  0  2  0  0  0  0  0  0  0  0  0
    8.0540  -12.9992   19.9997 N   0  0  0  0  0  0  0  0  0  0  0  0
    8.1920  -14.2369   22.0728 C   0  0  0  0  0  0  0  0  0  0  0  0
    9.4252  -14.3603   22.0974 O   0  0  0  0  0  0  0  0  0  0  0  0
    5.7724  -11.9938   26.7520 C   0  0  0  0  0  0  0  0  0  0  0  0
    6.8414  -12.3766   25.7405 C   0  0  1  0  0  0  0  0  0  0  0  0
    8.0533  -11.5431   26.0065 C   0  0  0  0  0  0  0  0  0  0  0  0
    7.0659  -13.8546   25.6921 C   0  0  0  0  0  0  0  0  0  0  0  0
    7.9453  -14.3307   24.5687 C   0  0  2  0  0  0  0  0  0  0  0  0
    7.4127  -14.2275   23.2564 N   0  0  0  0  0  0  0  0  0  0  0  0
    8.5332  -15.6518   24.8096 C   0  0  0  0  0  0  0  0  0  0  0  0
    7.8201  -16.6831   24.6571 O   0  0  0  0  0  0  0  0  0  0  0  0
   11.7247  -19.6226   25.6023 N   0  0  0  0  0  0  0  0  0  0  0  0
   12.4456  -18.5885   24.9552 C   0  0  0  0  0  0  0  0  0  0  0  0
   13.6266  -18.8429   24.6133 O   0  0  0  0  0  0  0  0  0  0  0  0
   11.7630  -17.3049   24.7337 C   0  0  0  0  0  0  0  0  0  0  0  0
   10.4235  -17.2060   25.3950 C   0  0  2  0  0  0  0  0  0  0  0  0
    9.8791  -15.8622   25.2118 N   0  0  0  0  0  0  0  0  0  0  0  0
   10.4654  -17.5681   26.8332 C   0  0  0  0  0  0  0  0  0  0  0  0
   10.7600  -18.8649   27.2230 O   0  0  0  0  0  0  0  0  0  0  0  0
   10.2398  -16.7290   27.7373 O   0  0  0  0  0  0  0  0  0  0  0  0
  2  1  1  6
  2  3  1  0
  4  2  1  0
  4  5  1  6
  6  4  1  0
  6  7  2  0
  9 10  1  1
  9  8  1  0
 11  9  1  0
 12 11  1  1
 12 13  1  0
 13  6  1  0
 14 12  1  0
 15 14  2  0
 17 18  2  0
 17 16  1  0
 19 17  1  0
 20 19  1  1
 20 21  1  0
 20 22  1  0
 21 14  1  0
 22 23  1  0
 24 22  2  0
M  END
$$$$
