FCL.pdb
     RDKit          3D

 26 26  0  0  1  0  0  0  0  0999 V2000
   22.0151  -26.9817  -13.6799 N   0  0  0  0  0  0  0  0  0  0  0  0
   20.8027  -27.3415  -12.9796 C   0  0  1  0  0  0  0  0  0  0  0  0
   20.9761  -28.7440  -12.4227 C   0  0  0  0  0  0  0  0  0  0  0  0
   21.1242  -29.7208  -13.5238 C   0  0  0  0  0  0  0  0  0  0  0  0
   22.3818  -30.1926  -13.9026 C   0  0  0  0  0  0  0  0  0  0  0  0
   22.4796  -31.0916  -14.9218 C   0  0  0  0  0  0  0  0  0  0  0  0
   21.3555  -31.5449  -15.5877 C   0  0  0  0  0  0  0  0  0  0  0  0
   20.1113  -31.0847  -15.2205 C   0  0  0  0  0  0  0  0  0  0  0  0
   20.0202  -30.1819  -14.1961 C   0  0  0  0  0  0  0  0  0  0  0  0
   20.5222  -26.3385  -11.9539 C   0  0  0  0  0  0  0  0  0  0  0  0
   21.2152  -25.2655  -11.8610 O   0  0  0  0  0  0  0  0  0  0  0  0
   19.4577  -26.5514  -11.0344 N   0  0  0  0  0  0  0  0  0  0  0  0
   18.8371  -25.4447  -10.3341 C   0  0  1  0  0  0  0  0  0  0  0  0
   18.1412  -24.5008  -11.3089 C   0  0  0  0  0  0  0  0  0  0  0  0
   17.4974  -23.0953  -10.3619 S   0  0  0  0  0  0  0  0  0  0  0  0
   17.7963  -25.9113   -9.3847 C   0  0  0  0  0  0  0  0  0  0  0  0
   16.7465  -26.4459   -9.8270 O   0  0  0  0  0  0  0  0  0  0  0  0
   18.1148  -28.5507   -5.6763 C   0  0  0  0  0  0  0  0  0  0  0  0
   18.4775  -27.0978   -5.3459 C   0  0  2  0  0  0  0  0  0  0  0  0
   18.9373  -27.0370   -3.9297 C   0  0  0  0  0  0  0  0  0  0  0  0
   17.3071  -26.2404   -5.6562 C   0  0  0  0  0  0  0  0  0  0  0  0
   16.8372  -26.2449   -7.0661 C   0  0  2  0  0  0  0  0  0  0  0  0
   17.9055  -25.7936   -7.9791 N   0  0  0  0  0  0  0  0  0  0  0  0
   15.7130  -25.3248   -7.2511 C   0  0  0  0  0  0  0  0  0  0  0  0
   14.5395  -25.7366   -7.1848 O   0  0  0  0  0  0  0  0  0  0  0  0
   15.9315  -23.9870   -7.5018 O   0  0  0  0  0  0  0  0  0  0  0  0
  2  1  1  1
  2 10  1  0
  3  2  1  0
  3  4  1  0
  4  9  2  0
  5  4  1  0
  5  6  2  0
  6  7  1  0
  7  8  2  0
  9  8  1  0
 10 11  2  0
 12 13  1  0
 12 10  1  0
 13 16  1  0
 13 14  1  6
 15 14  1  0
 16 23  1  0
 16 17  2  0
 19 18  1  1
 19 20  1  0
 21 19  1  0
 22 21  1  1
 22 24  1  0
 23 22  1  0
 24 25  2  0
 24 26  1  0
M  END
$$$$
