FCL.pdb
     RDKit          3D

 26 26  0  0  1  0  0  0  0  0999 V2000
   25.0481  -18.0086  -15.7816 N   0  0  0  0  0  0  0  0  0  0  0  0
   26.0080  -18.3405  -14.7528 C   0  0  1  0  0  0  0  0  0  0  0  0
   26.7999  -17.0872  -14.4221 C   0  0  0  0  0  0  0  0  0  0  0  0
   27.6963  -16.7332  -15.5445 C   0  0  0  0  0  0  0  0  0  0  0  0
   27.4392  -15.6211  -16.3473 C   0  0  0  0  0  0  0  0  0  0  0  0
   28.2869  -15.3261  -17.3725 C   0  0  0  0  0  0  0  0  0  0  0  0
   29.3971  -16.1087  -17.6320 C   0  0  0  0  0  0  0  0  0  0  0  0
   29.6581  -17.2075  -16.8451 C   0  0  0  0  0  0  0  0  0  0  0  0
   28.8028  -17.4981  -15.8171 C   0  0  0  0  0  0  0  0  0  0  0  0
   25.3059  -18.9058  -13.6021 C   0  0  0  0  0  0  0  0  0  0  0  0
   24.2464  -18.3611  -13.1318 O   0  0  0  0  0  0  0  0  0  0  0  0
   25.8038  -20.0870  -12.9850 N   0  0  0  0  0  0  0  0  0  0  0  0
   25.1693  -20.6441  -11.8071 C   0  0  1  0  0  0  0  0  0  0  0  0
   24.7707  -22.0982  -12.0357 C   0  0  0  0  0  0  0  0  0  0  0  0
   26.1278  -22.9176  -12.9152 S   0  0  0  0  0  0  0  0  0  0  0  0
   26.0826  -20.6371  -10.6374 C   0  0  0  0  0  0  0  0  0  0  0  0
   27.2504  -21.0901  -10.7582 O   0  0  0  0  0  0  0  0  0  0  0  0
   28.3279  -18.4433   -5.6894 C   0  0  0  0  0  0  0  0  0  0  0  0
   27.9654  -19.7968   -6.3126 C   0  0  2  0  0  0  0  0  0  0  0  0
   29.1912  -20.6435   -6.3469 C   0  0  0  0  0  0  0  0  0  0  0  0
   27.3427  -19.5515   -7.6366 C   0  0  0  0  0  0  0  0  0  0  0  0
   26.3958  -20.5872   -8.1261 C   0  0  2  0  0  0  0  0  0  0  0  0
   25.7217  -20.1431   -9.3618 N   0  0  0  0  0  0  0  0  0  0  0  0
   25.3405  -20.8445   -7.1439 C   0  0  0  0  0  0  0  0  0  0  0  0
   24.1666  -20.4943   -7.3687 O   0  0  0  0  0  0  0  0  0  0  0  0
   25.6254  -21.4784   -5.9534 O   0  0  0  0  0  0  0  0  0  0  0  0
  2  1  1  6
  2 10  1  0
  3  2  1  0
  3  4  1  0
  4  9  2  0
  5  4  1  0
  5  6  2  0
  6  7  1  0
  7  8  2  0
  9  8  1  0
 10 11  2  0
 12 13  1  0
 12 10  1  0
 13 16  1  0
 13 14  1  6
 15 14  1  0
 16 23  1  0
 16 17  2  0
 19 18  1  6
 19 20  1  0
 21 19  1  0
 22 21  1  1
 22 24  1  0
 23 22  1  0
 24 25  2  0
 24 26  1  0
M  END
$$$$
