FCL.pdb
     RDKit          3D

 26 26  0  0  1  0  0  0  0  0999 V2000
   15.5908  -17.2065    4.0746 N   0  0  0  0  0  0  0  0  0  0  0  0
   16.7649  -18.0206    4.2951 C   0  0  1  0  0  0  0  0  0  0  0  0
   17.9621  -17.0964    4.4356 C   0  0  0  0  0  0  0  0  0  0  0  0
   18.2213  -16.3918    3.1608 C   0  0  0  0  0  0  0  0  0  0  0  0
   18.7728  -17.0617    2.0679 C   0  0  0  0  0  0  0  0  0  0  0  0
   18.9980  -16.3799    0.9099 C   0  0  0  0  0  0  0  0  0  0  0  0
   18.6901  -15.0364    0.7979 C   0  0  0  0  0  0  0  0  0  0  0  0
   18.1458  -14.3680    1.8711 C   0  0  0  0  0  0  0  0  0  0  0  0
   17.9222  -15.0587    3.0311 C   0  0  0  0  0  0  0  0  0  0  0  0
   16.5482  -18.8738    5.4620 C   0  0  0  0  0  0  0  0  0  0  0  0
   15.3788  -19.0488    5.9543 O   0  0  0  0  0  0  0  0  0  0  0  0
   17.6554  -19.5281    6.0704 N   0  0  0  0  0  0  0  0  0  0  0  0
   17.4924  -20.3186    7.2740 C   0  0  1  0  0  0  0  0  0  0  0  0
   16.5975  -21.5267    7.0188 C   0  0  0  0  0  0  0  0  0  0  0  0
   17.0846  -22.2574    5.4328 S   0  0  0  0  0  0  0  0  0  0  0  0
   18.7896  -20.8510    7.7600 C   0  0  0  0  0  0  0  0  0  0  0  0
   19.6072  -21.3407    6.9383 O   0  0  0  0  0  0  0  0  0  0  0  0
   22.1987  -17.7649   10.8216 C   0  0  0  0  0  0  0  0  0  0  0  0
   22.3475  -18.8267    9.7252 C   0  0  2  0  0  0  0  0  0  0  0  0
   23.2358  -18.2827    8.6595 C   0  0  0  0  0  0  0  0  0  0  0  0
   20.9925  -19.2178    9.2645 C   0  0  0  0  0  0  0  0  0  0  0  0
   20.5791  -20.6194    9.5351 C   0  0  2  0  0  0  0  0  0  0  0  0
   19.1811  -20.8461    9.1194 N   0  0  0  0  0  0  0  0  0  0  0  0
   20.6437  -20.9222   10.9664 C   0  0  0  0  0  0  0  0  0  0  0  0
   21.6364  -21.5002   11.4477 O   0  0  0  0  0  0  0  0  0  0  0  0
   19.6087  -20.5738   11.8077 O   0  0  0  0  0  0  0  0  0  0  0  0
  2  1  1  1
  2 10  1  0
  3  2  1  0
  3  4  1  0
  4  9  2  0
  5  4  1  0
  5  6  2  0
  6  7  1  0
  7  8  2  0
  9  8  1  0
 10 11  2  0
 12 13  1  0
 12 10  1  0
 13 16  1  0
 13 14  1  6
 15 14  1  0
 16 23  1  0
 16 17  2  0
 19 18  1  1
 19 20  1  0
 21 19  1  0
 22 21  1  1
 22 24  1  0
 23 22  1  0
 24 25  2  0
 24 26  1  0
M  END
$$$$
