FCL.pdb
     RDKit          3D

 26 26  0  0  1  0  0  0  0  0999 V2000
   25.5463  -22.3071  -17.6994 N   0  0  0  0  0  0  0  0  0  0  0  0
   25.2410  -22.9149  -16.4238 C   0  0  1  0  0  0  0  0  0  0  0  0
   26.3099  -23.9521  -16.1257 C   0  0  0  0  0  0  0  0  0  0  0  0
   26.0375  -25.2011  -16.8703 C   0  0  0  0  0  0  0  0  0  0  0  0
   25.0651  -26.1016  -16.4332 C   0  0  0  0  0  0  0  0  0  0  0  0
   24.8420  -27.2422  -17.1444 C   0  0  0  0  0  0  0  0  0  0  0  0
   25.5615  -27.5237  -18.2913 C   0  0  0  0  0  0  0  0  0  0  0  0
   26.5225  -26.6410  -18.7295 C   0  0  0  0  0  0  0  0  0  0  0  0
   26.7415  -25.4973  -18.0105 C   0  0  0  0  0  0  0  0  0  0  0  0
   25.1414  -21.8723  -15.4041 C   0  0  0  0  0  0  0  0  0  0  0  0
   25.7734  -20.7641  -15.5172 O   0  0  0  0  0  0  0  0  0  0  0  0
   24.3265  -22.0853  -14.2576 N   0  0  0  0  0  0  0  0  0  0  0  0
   24.1993  -21.0736  -13.2277 C   0  0  1  0  0  0  0  0  0  0  0  0
   22.7385  -20.8643  -12.8431 C   0  0  0  0  0  0  0  0  0  0  0  0
   21.8743  -20.1815  -14.2830 S   0  0  0  0  0  0  0  0  0  0  0  0
   24.9098  -21.4644  -11.9848 C   0  0  0  0  0  0  0  0  0  0  0  0
   24.6722  -22.5825  -11.4586 O   0  0  0  0  0  0  0  0  0  0  0  0
   29.0596  -22.4823  -10.6189 C   0  0  0  0  0  0  0  0  0  0  0  0
   28.8566  -20.9867  -10.8904 C   0  0  2  0  0  0  0  0  0  0  0  0
   30.1837  -20.3118  -10.8277 C   0  0  0  0  0  0  0  0  0  0  0  0
   27.8504  -20.4686   -9.9310 C   0  0  0  0  0  0  0  0  0  0  0  0
   26.4769  -21.0243  -10.0463 C   0  0  2  0  0  0  0  0  0  0  0  0
   25.8612  -20.6450  -11.3330 N   0  0  0  0  0  0  0  0  0  0  0  0
   25.6043  -20.4982   -8.9944 C   0  0  0  0  0  0  0  0  0  0  0  0
   24.8769  -19.5104   -9.2098 O   0  0  0  0  0  0  0  0  0  0  0  0
   25.5711  -21.0850   -7.7475 O   0  0  0  0  0  0  0  0  0  0  0  0
  2  1  1  6
  2 10  1  0
  3  2  1  0
  3  4  1  0
  4  9  2  0
  5  4  1  0
  5  6  2  0
  6  7  1  0
  7  8  2  0
  9  8  1  0
 10 11  2  0
 12 13  1  0
 12 10  1  0
 13 16  1  0
 13 14  1  1
 15 14  1  0
 16 23  1  0
 16 17  2  0
 19 18  1  1
 19 20  1  0
 21 19  1  0
 22 21  1  1
 22 24  1  0
 23 22  1  0
 24 25  2  0
 24 26  1  0
M  END
$$$$
