FCL.pdb
     RDKit          3D

 26 26  0  0  1  0  0  0  0  0999 V2000
   26.9446  -32.5345  -16.8134 N   0  0  0  0  0  0  0  0  0  0  0  0
   27.4555  -32.8088  -15.4891 C   0  0  1  0  0  0  0  0  0  0  0  0
   28.4723  -31.7351  -15.1422 C   0  0  0  0  0  0  0  0  0  0  0  0
   29.7055  -31.9170  -15.9389 C   0  0  0  0  0  0  0  0  0  0  0  0
   30.0157  -31.0545  -16.9913 C   0  0  0  0  0  0  0  0  0  0  0  0
   31.1603  -31.2532  -17.7035 C   0  0  0  0  0  0  0  0  0  0  0  0
   32.0199  -32.2938  -17.4024 C   0  0  0  0  0  0  0  0  0  0  0  0
   31.7216  -33.1491  -16.3661 C   0  0  0  0  0  0  0  0  0  0  0  0
   30.5705  -32.9439  -15.6549 C   0  0  0  0  0  0  0  0  0  0  0  0
   26.3402  -32.8803  -14.5469 C   0  0  0  0  0  0  0  0  0  0  0  0
   25.1807  -32.4272  -14.8480 O   0  0  0  0  0  0  0  0  0  0  0  0
   26.5386  -33.4645  -13.2650 N   0  0  0  0  0  0  0  0  0  0  0  0
   25.4551  -33.5610  -12.3074 C   0  0  1  0  0  0  0  0  0  0  0  0
   24.3276  -34.4374  -12.8425 C   0  0  0  0  0  0  0  0  0  0  0  0
   23.0466  -34.5417  -11.5640 S   0  0  0  0  0  0  0  0  0  0  0  0
   25.9017  -34.1804  -11.0349 C   0  0  0  0  0  0  0  0  0  0  0  0
   26.5249  -35.2734  -11.0610 O   0  0  0  0  0  0  0  0  0  0  0  0
   26.1288  -32.7098   -5.0842 C   0  0  0  0  0  0  0  0  0  0  0  0
   26.9240  -33.4381   -6.1746 C   0  0  2  0  0  0  0  0  0  0  0  0
   28.3711  -33.1386   -5.9825 C   0  0  0  0  0  0  0  0  0  0  0  0
   26.3780  -33.0425   -7.4961 C   0  0  0  0  0  0  0  0  0  0  0  0
   26.3571  -34.0937   -8.5465 C   0  0  2  0  0  0  0  0  0  0  0  0
   25.6693  -33.6120   -9.7605 N   0  0  0  0  0  0  0  0  0  0  0  0
   25.6248  -35.2783   -8.0936 C   0  0  0  0  0  0  0  0  0  0  0  0
   24.3795  -35.2831   -8.0707 O   0  0  0  0  0  0  0  0  0  0  0  0
   26.2984  -36.4094   -7.6847 O   0  0  0  0  0  0  0  0  0  0  0  0
  2  1  1  6
  2 10  1  0
  3  2  1  0
  3  4  1  0
  4  9  2  0
  5  4  1  0
  5  6  2  0
  6  7  1  0
  7  8  2  0
  9  8  1  0
 10 11  2  0
 12 13  1  0
 12 10  1  0
 13 16  1  0
 13 14  1  6
 15 14  1  0
 16 23  1  0
 16 17  2  0
 19 18  1  1
 19 20  1  0
 21 19  1  0
 22 21  1  1
 22 24  1  0
 23 22  1  0
 24 25  2  0
 24 26  1  0
M  END
$$$$
