FCL.pdb
     RDKit          3D

 26 26  0  0  1  0  0  0  0  0999 V2000
   18.3219  -13.4994  -19.6864 N   0  0  0  0  0  0  0  0  0  0  0  0
   17.6631  -12.6528  -18.7173 C   0  0  1  0  0  0  0  0  0  0  0  0
   17.4185  -13.4720  -17.4618 C   0  0  0  0  0  0  0  0  0  0  0  0
   16.4870  -14.5855  -17.7468 C   0  0  0  0  0  0  0  0  0  0  0  0
   16.9602  -15.8778  -17.9779 C   0  0  0  0  0  0  0  0  0  0  0  0
   16.0725  -16.8784  -18.2378 C   0  0  0  0  0  0  0  0  0  0  0  0
   14.7115  -16.6366  -18.2766 C   0  0  0  0  0  0  0  0  0  0  0  0
   14.2363  -15.3648  -18.0498 C   0  0  0  0  0  0  0  0  0  0  0  0
   15.1332  -14.3645  -17.7894 C   0  0  0  0  0  0  0  0  0  0  0  0
   18.4772  -11.4611  -18.4851 C   0  0  0  0  0  0  0  0  0  0  0  0
   19.7555  -11.5009  -18.5545 O   0  0  0  0  0  0  0  0  0  0  0  0
   17.8436  -10.2258  -18.1746 N   0  0  0  0  0  0  0  0  0  0  0  0
   18.6116   -9.0080  -18.0096 C   0  0  1  0  0  0  0  0  0  0  0  0
   17.8345   -7.7975  -18.5158 C   0  0  0  0  0  0  0  0  0  0  0  0
   17.6002   -7.9917  -20.3030 S   0  0  0  0  0  0  0  0  0  0  0  0
   18.9197   -8.7434  -16.5822 C   0  0  0  0  0  0  0  0  0  0  0  0
   17.9950   -8.7818  -15.7296 O   0  0  0  0  0  0  0  0  0  0  0  0
   23.5938   -9.3092  -12.6997 C   0  0  0  0  0  0  0  0  0  0  0  0
   22.2237   -8.6435  -12.8773 C   0  0  2  0  0  0  0  0  0  0  0  0
   21.3110   -9.1525  -11.8149 C   0  0  0  0  0  0  0  0  0  0  0  0
   21.7596   -8.8891  -14.2649 C   0  0  0  0  0  0  0  0  0  0  0  0
   20.4919   -8.2259  -14.6671 C   0  0  2  0  0  0  0  0  0  0  0  0
   20.2155   -8.4429  -16.1008 N   0  0  0  0  0  0  0  0  0  0  0  0
   20.5687   -6.7767  -14.4711 C   0  0  0  0  0  0  0  0  0  0  0  0
   21.0175   -6.0388  -15.3685 O   0  0  0  0  0  0  0  0  0  0  0  0
   20.1462   -6.2019  -13.2915 O   0  0  0  0  0  0  0  0  0  0  0  0
  2  1  1  6
  2 10  1  0
  3  2  1  0
  3  4  1  0
  4  9  2  0
  5  4  1  0
  5  6  2  0
  6  7  1  0
  7  8  2  0
  9  8  1  0
 10 11  2  0
 12 13  1  0
 12 10  1  0
 13 16  1  0
 13 14  1  1
 15 14  1  0
 16 23  1  0
 16 17  2  0
 19 18  1  6
 19 20  1  0
 21 19  1  0
 22 21  1  6
 22 24  1  0
 23 22  1  0
 24 25  2  0
 24 26  1  0
M  END
$$$$
