FCL.pdb
     RDKit          3D

 26 26  0  0  1  0  0  0  0  0999 V2000
   27.2280  -20.3322  -11.1644 N   0  0  0  0  0  0  0  0  0  0  0  0
   25.9947  -20.9376  -10.7147 C   0  0  1  0  0  0  0  0  0  0  0  0
   25.7453  -20.4963   -9.2828 C   0  0  0  0  0  0  0  0  0  0  0  0
   27.0153  -20.4659   -8.5247 C   0  0  0  0  0  0  0  0  0  0  0  0
   28.0379  -21.3755   -8.7975 C   0  0  0  0  0  0  0  0  0  0  0  0
   29.1937  -21.3177   -8.0782 C   0  0  0  0  0  0  0  0  0  0  0  0
   29.3718  -20.3744   -7.0829 C   0  0  0  0  0  0  0  0  0  0  0  0
   28.3683  -19.4735   -6.8072 C   0  0  0  0  0  0  0  0  0  0  0  0
   27.2100  -19.5370   -7.5334 C   0  0  0  0  0  0  0  0  0  0  0  0
   24.9162  -20.5740  -11.6320 C   0  0  0  0  0  0  0  0  0  0  0  0
   24.9191  -19.4564  -12.2576 O   0  0  0  0  0  0  0  0  0  0  0  0
   23.8357  -21.4757  -11.8400 N   0  0  0  0  0  0  0  0  0  0  0  0
   22.8888  -21.2775  -12.9191 C   0  0  1  0  0  0  0  0  0  0  0  0
   23.5698  -21.4116  -14.2769 C   0  0  0  0  0  0  0  0  0  0  0  0
   22.3579  -20.9804  -15.5544 S   0  0  0  0  0  0  0  0  0  0  0  0
   21.8048  -22.2908  -12.8902 C   0  0  0  0  0  0  0  0  0  0  0  0
   22.0670  -23.4892  -13.1705 O   0  0  0  0  0  0  0  0  0  0  0  0
   18.5836  -24.1475  -10.0554 C   0  0  0  0  0  0  0  0  0  0  0  0
   18.2645  -22.6898  -10.4091 C   0  0  2  0  0  0  0  0  0  0  0  0
   17.0241  -22.2900   -9.6865 C   0  0  0  0  0  0  0  0  0  0  0  0
   18.1884  -22.5718  -11.8860 C   0  0  0  0  0  0  0  0  0  0  0  0
   19.3884  -23.0047  -12.6484 C   0  0  2  0  0  0  0  0  0  0  0  0
   20.4613  -21.9948  -12.5604 N   0  0  0  0  0  0  0  0  0  0  0  0
   19.0809  -23.1646  -14.0712 C   0  0  0  0  0  0  0  0  0  0  0  0
   18.7526  -24.2761  -14.5275 O   0  0  0  0  0  0  0  0  0  0  0  0
   19.1486  -22.0899  -14.9319 O   0  0  0  0  0  0  0  0  0  0  0  0
  2  1  1  6
  2 10  1  0
  3  2  1  0
  3  4  1  0
  4  9  2  0
  5  4  1  0
  5  6  2  0
  6  7  1  0
  7  8  2  0
  9  8  1  0
 10 11  2  0
 12 13  1  0
 12 10  1  0
 13 16  1  0
 13 14  1  6
 15 14  1  0
 16 23  1  0
 16 17  2  0
 19 18  1  6
 19 20  1  0
 21 19  1  0
 22 21  1  1
 22 24  1  0
 23 22  1  0
 24 25  2  0
 24 26  1  0
M  END
$$$$
