FCL.pdb
     RDKit          3D

 26 26  0  0  1  0  0  0  0  0999 V2000
   23.2897  -21.4389  -14.0116 N   0  0  0  0  0  0  0  0  0  0  0  0
   23.3429  -20.8410  -12.6965 C   0  0  1  0  0  0  0  0  0  0  0  0
   21.9661  -20.9605  -12.0661 C   0  0  0  0  0  0  0  0  0  0  0  0
   21.0471  -19.9538  -12.6412 C   0  0  0  0  0  0  0  0  0  0  0  0
   20.1572  -20.2920  -13.6616 C   0  0  0  0  0  0  0  0  0  0  0  0
   19.3260  -19.3381  -14.1673 C   0  0  0  0  0  0  0  0  0  0  0  0
   19.3482  -18.0411  -13.6878 C   0  0  0  0  0  0  0  0  0  0  0  0
   20.2229  -17.6990  -12.6816 C   0  0  0  0  0  0  0  0  0  0  0  0
   21.0549  -18.6619  -12.1782 C   0  0  0  0  0  0  0  0  0  0  0  0
   24.3981  -21.4847  -11.9161 C   0  0  0  0  0  0  0  0  0  0  0  0
   24.3907  -22.7461  -11.6945 O   0  0  0  0  0  0  0  0  0  0  0  0
   25.4604  -20.6999  -11.3876 N   0  0  0  0  0  0  0  0  0  0  0  0
   26.4835  -21.2889  -10.5470 C   0  0  1  0  0  0  0  0  0  0  0  0
   27.8477  -21.2369  -11.2267 C   0  0  0  0  0  0  0  0  0  0  0  0
   28.0551  -19.5819  -11.9368 S   0  0  0  0  0  0  0  0  0  0  0  0
   26.6252  -20.5587   -9.2628 C   0  0  0  0  0  0  0  0  0  0  0  0
   26.3512  -19.3315   -9.2123 O   0  0  0  0  0  0  0  0  0  0  0  0
   29.0947  -19.7166   -4.6073 C   0  0  0  0  0  0  0  0  0  0  0  0
   27.8872  -20.6354   -4.3846 C   0  0  2  0  0  0  0  0  0  0  0  0
   28.2078  -21.5741   -3.2725 C   0  0  0  0  0  0  0  0  0  0  0  0
   27.5525  -21.2902   -5.6731 C   0  0  0  0  0  0  0  0  0  0  0  0
   27.2609  -20.3893   -6.8185 C   0  0  2  0  0  0  0  0  0  0  0  0
   27.0586  -21.1628   -8.0592 N   0  0  0  0  0  0  0  0  0  0  0  0
   28.3790  -19.4782   -7.0719 C   0  0  0  0  0  0  0  0  0  0  0  0
   29.3692  -19.8567   -7.7257 O   0  0  0  0  0  0  0  0  0  0  0  0
   28.3575  -18.1859   -6.5924 O   0  0  0  0  0  0  0  0  0  0  0  0
  2  1  1  6
  2 10  1  0
  3  2  1  0
  3  4  1  0
  4  9  2  0
  5  4  1  0
  5  6  2  0
  6  7  1  0
  7  8  2  0
  9  8  1  0
 10 11  2  0
 12 13  1  0
 12 10  1  0
 13 16  1  0
 13 14  1  6
 15 14  1  0
 16 23  1  0
 16 17  2  0
 19 18  1  6
 19 20  1  0
 21 19  1  0
 22 21  1  1
 22 24  1  0
 23 22  1  0
 24 25  2  0
 24 26  1  0
M  END
$$$$
