FCL.pdb
     RDKit          3D

 26 26  0  0  1  0  0  0  0  0999 V2000
   33.9375  -37.3749   -7.3496 N   0  0  0  0  0  0  0  0  0  0  0  0
   33.3991  -37.1677   -6.0241 C   0  0  1  0  0  0  0  0  0  0  0  0
   34.1285  -35.9931   -5.3952 C   0  0  0  0  0  0  0  0  0  0  0  0
   35.5304  -36.3582   -5.0954 C   0  0  0  0  0  0  0  0  0  0  0  0
   36.5313  -36.2198   -6.0580 C   0  0  0  0  0  0  0  0  0  0  0  0
   37.8116  -36.5668   -5.7461 C   0  0  0  0  0  0  0  0  0  0  0  0
   38.1370  -37.0534   -4.4932 C   0  0  0  0  0  0  0  0  0  0  0  0
   37.1560  -37.1930   -3.5379 C   0  0  0  0  0  0  0  0  0  0  0  0
   35.8722  -36.8428   -3.8577 C   0  0  0  0  0  0  0  0  0  0  0  0
   31.9531  -36.9733   -6.1155 C   0  0  0  0  0  0  0  0  0  0  0  0
   31.3268  -37.1262   -7.2222 O   0  0  0  0  0  0  0  0  0  0  0  0
   31.2178  -36.6062   -4.9543 N   0  0  0  0  0  0  0  0  0  0  0  0
   29.8587  -37.0654   -4.7492 C   0  0  1  0  0  0  0  0  0  0  0  0
   29.8133  -38.5789   -4.5688 C   0  0  0  0  0  0  0  0  0  0  0  0
   28.1929  -39.0108   -3.8800 S   0  0  0  0  0  0  0  0  0  0  0  0
   29.2604  -36.4775   -3.5249 C   0  0  0  0  0  0  0  0  0  0  0  0
   29.8993  -36.5153   -2.4414 O   0  0  0  0  0  0  0  0  0  0  0  0
   27.6670  -32.3900   -4.3552 C   0  0  0  0  0  0  0  0  0  0  0  0
   26.4918  -33.3751   -4.3400 C   0  0  2  0  0  0  0  0  0  0  0  0
   25.2525  -32.6364   -4.7133 C   0  0  0  0  0  0  0  0  0  0  0  0
   26.4471  -34.0309   -3.0099 C   0  0  0  0  0  0  0  0  0  0  0  0
   27.6793  -34.7415   -2.5795 C   0  0  2  0  0  0  0  0  0  0  0  0
   27.9875  -35.8612   -3.4906 N   0  0  0  0  0  0  0  0  0  0  0  0
   27.5155  -35.3218   -1.2449 C   0  0  0  0  0  0  0  0  0  0  0  0
   27.5006  -36.5573   -1.0887 O   0  0  0  0  0  0  0  0  0  0  0  0
   27.3749  -34.5131   -0.1374 O   0  0  0  0  0  0  0  0  0  0  0  0
  2  1  1  6
  2 10  1  0
  3  2  1  0
  3  4  1  0
  4  9  2  0
  5  4  1  0
  5  6  2  0
  6  7  1  0
  7  8  2  0
  9  8  1  0
 10 11  2  0
 12 13  1  0
 12 10  1  0
 13 16  1  0
 13 14  1  1
 15 14  1  0
 16 23  1  0
 16 17  2  0
 19 18  1  1
 19 20  1  0
 21 19  1  0
 22 21  1  6
 22 24  1  0
 23 22  1  0
 24 25  2  0
 24 26  1  0
M  END
$$$$
