FCL.pdb
     RDKit          3D

 26 26  0  0  1  0  0  0  0  0999 V2000
   25.8245  -10.8993  -19.1262 N   0  0  0  0  0  0  0  0  0  0  0  0
   24.5178  -10.3240  -19.3525 C   0  0  1  0  0  0  0  0  0  0  0  0
   23.7569  -11.2355  -20.2998 C   0  0  0  0  0  0  0  0  0  0  0  0
   24.3728  -11.2102  -21.6446 C   0  0  0  0  0  0  0  0  0  0  0  0
   25.3731  -12.1181  -21.9948 C   0  0  0  0  0  0  0  0  0  0  0  0
   25.9177  -12.0646  -23.2427 C   0  0  0  0  0  0  0  0  0  0  0  0
   25.4974  -11.1271  -24.1683 C   0  0  0  0  0  0  0  0  0  0  0  0
   24.5113  -10.2278  -23.8312 C   0  0  0  0  0  0  0  0  0  0  0  0
   23.9685  -10.2871  -22.5763 C   0  0  0  0  0  0  0  0  0  0  0  0
   23.8473  -10.1293  -18.0682 C   0  0  0  0  0  0  0  0  0  0  0  0
   24.2292  -10.7486  -17.0141 O   0  0  0  0  0  0  0  0  0  0  0  0
   22.7455   -9.2338  -17.9785 N   0  0  0  0  0  0  0  0  0  0  0  0
   22.0459   -9.0264  -16.7264 C   0  0  1  0  0  0  0  0  0  0  0  0
   22.9610   -8.3882  -15.6868 C   0  0  0  0  0  0  0  0  0  0  0  0
   23.7248   -6.9256  -16.4380 S   0  0  0  0  0  0  0  0  0  0  0  0
   20.8905   -8.1094  -16.8895 C   0  0  0  0  0  0  0  0  0  0  0  0
   21.0216   -7.0599  -17.5714 O   0  0  0  0  0  0  0  0  0  0  0  0
   14.7470   -8.1898  -16.2590 C   0  0  0  0  0  0  0  0  0  0  0  0
   15.9606   -7.3645  -16.7037 C   0  0  2  0  0  0  0  0  0  0  0  0
   15.7685   -6.9738  -18.1288 C   0  0  0  0  0  0  0  0  0  0  0  0
   17.1878   -8.1541  -16.4361 C   0  0  0  0  0  0  0  0  0  0  0  0
   18.4794   -7.4255  -16.5339 C   0  0  2  0  0  0  0  0  0  0  0  0
   19.6178   -8.3395  -16.3161 N   0  0  0  0  0  0  0  0  0  0  0  0
   18.5775   -6.3843  -15.5088 C   0  0  0  0  0  0  0  0  0  0  0  0
   18.9911   -6.6571  -14.3661 O   0  0  0  0  0  0  0  0  0  0  0  0
   18.2147   -5.0841  -15.7882 O   0  0  0  0  0  0  0  0  0  0  0  0
  2  1  1  1
  2 10  1  0
  3  2  1  0
  3  4  1  0
  4  9  2  0
  5  4  1  0
  5  6  2  0
  6  7  1  0
  7  8  2  0
  9  8  1  0
 10 11  2  0
 12 13  1  0
 12 10  1  0
 13 16  1  0
 13 14  1  1
 15 14  1  0
 16 23  1  0
 16 17  2  0
 19 18  1  6
 19 20  1  0
 21 19  1  0
 22 21  1  1
 22 24  1  0
 23 22  1  0
 24 25  2  0
 24 26  1  0
M  END
$$$$
