TSF.pdb
     RDKit          3D

 25 25  0  0  1  0  0  0  0  0999 V2000
   19.0473   -9.3716  -18.3698 C   0  0  0  0  0  0  0  0  0  0  0  0
   18.1844  -10.3654  -17.6553 C   0  0  1  0  0  0  0  0  0  0  0  0
   17.4250  -11.1072  -18.5430 O   0  0  0  0  0  0  0  0  0  0  0  0
   19.0190  -11.3376  -16.8169 C   0  0  2  0  0  0  0  0  0  0  0  0
   18.1316  -12.3128  -16.2105 N   0  0  0  0  0  0  0  0  0  0  0  0
   19.6988  -10.5538  -15.7517 C   0  0  0  0  0  0  0  0  0  0  0  0
   19.0263  -10.0829  -14.7985 O   0  0  0  0  0  0  0  0  0  0  0  0
   23.6684  -10.1663  -15.8512 O   0  0  0  0  0  0  0  0  0  0  0  0
   23.1519   -9.8774  -14.5776 C   0  0  0  0  0  0  0  0  0  0  0  0
   21.6915   -9.4714  -14.7849 C   0  0  2  0  0  0  0  0  0  0  0  0
   21.0912  -10.3247  -15.7864 N   0  0  0  0  0  0  0  0  0  0  0  0
   21.6822   -8.0473  -15.1833 C   0  0  0  0  0  0  0  0  0  0  0  0
   21.7290   -7.8200  -16.4263 O   0  0  0  0  0  0  0  0  0  0  0  0
   21.6242   -6.9988  -14.2290 N   0  0  0  0  0  0  0  0  0  0  0  0
   21.6643   -5.6345  -14.7529 C   0  0  1  0  0  0  0  0  0  0  0  0
   20.2421   -5.1159  -14.6080 C   0  0  0  0  0  0  0  0  0  0  0  0
   20.1120   -3.7031  -15.0351 C   0  0  0  0  0  0  0  0  0  0  0  0
   20.1844   -3.3409  -16.3827 C   0  0  0  0  0  0  0  0  0  0  0  0
   20.0438   -2.0192  -16.7074 C   0  0  0  0  0  0  0  0  0  0  0  0
   19.8377   -1.0847  -15.7253 C   0  0  0  0  0  0  0  0  0  0  0  0
   19.7632   -1.4175  -14.3983 C   0  0  0  0  0  0  0  0  0  0  0  0
   19.9040   -2.7513  -14.0600 C   0  0  0  0  0  0  0  0  0  0  0  0
   22.5722   -4.8714  -13.8660 C   0  0  0  0  0  0  0  0  0  0  0  0
   22.6483   -5.1112  -12.6357 O   0  0  0  0  0  0  0  0  0  0  0  0
   23.4016   -3.8391  -14.3318 O   0  0  0  0  0  0  0  0  0  0  0  0
  2  1  1  6
  3  2  1  0
  4  6  1  0
  4  2  1  0
  4  5  1  1
  6  7  2  0
  9  8  1  0
 10  9  1  6
 10 12  1  0
 11 10  1  0
 11  6  1  0
 12 13  2  0
 12 14  1  0
 14 15  1  0
 15 16  1  1
 16 17  1  0
 17 18  2  0
 18 19  1  0
 20 19  2  0
 21 20  1  0
 22 17  1  0
 22 21  2  0
 23 25  1  0
 23 15  1  0
 24 23  2  0
M  END
$$$$
