TSF.pdb
     RDKit          3D

 25 25  0  0  1  0  0  0  0  0999 V2000
   22.9213  -11.7247  -14.8597 C   0  0  0  0  0  0  0  0  0  0  0  0
   22.9924  -12.1375  -16.2975 C   0  0  1  0  0  0  0  0  0  0  0  0
   23.4773  -13.4268  -16.4306 O   0  0  0  0  0  0  0  0  0  0  0  0
   21.6187  -12.0752  -16.9711 C   0  0  2  0  0  0  0  0  0  0  0  0
   21.7440  -12.5581  -18.3339 N   0  0  0  0  0  0  0  0  0  0  0  0
   21.1818  -10.6539  -16.9853 C   0  0  0  0  0  0  0  0  0  0  0  0
   21.7955   -9.8200  -17.6998 O   0  0  0  0  0  0  0  0  0  0  0  0
   17.8047   -9.5026  -15.0535 O   0  0  0  0  0  0  0  0  0  0  0  0
   18.2022   -8.6837  -16.1228 C   0  0  0  0  0  0  0  0  0  0  0  0
   19.7227   -8.8170  -16.2278 C   0  0  2  0  0  0  0  0  0  0  0  0
   20.0866  -10.2166  -16.2097 N   0  0  0  0  0  0  0  0  0  0  0  0
   20.3100   -8.0704  -15.0944 C   0  0  0  0  0  0  0  0  0  0  0  0
   20.3568   -8.6862  -13.9910 O   0  0  0  0  0  0  0  0  0  0  0  0
   20.7920   -6.7434  -15.2357 N   0  0  0  0  0  0  0  0  0  0  0  0
   21.3576   -6.1219  -14.0394 C   0  0  1  0  0  0  0  0  0  0  0  0
   22.7777   -6.6587  -13.9518 C   0  0  0  0  0  0  0  0  0  0  0  0
   23.5490   -6.4148  -15.1931 C   0  0  0  0  0  0  0  0  0  0  0  0
   23.6269   -7.3781  -16.2023 C   0  0  0  0  0  0  0  0  0  0  0  0
   24.3466   -7.0817  -17.3275 C   0  0  0  0  0  0  0  0  0  0  0  0
   24.9703   -5.8665  -17.4485 C   0  0  0  0  0  0  0  0  0  0  0  0
   24.9071   -4.9076  -16.4720 C   0  0  0  0  0  0  0  0  0  0  0  0
   24.1817   -5.1978  -15.3306 C   0  0  0  0  0  0  0  0  0  0  0  0
   21.3845   -4.6638  -14.2972 C   0  0  0  0  0  0  0  0  0  0  0  0
   21.8217   -3.8511  -13.4456 O   0  0  0  0  0  0  0  0  0  0  0  0
   20.9290   -4.0942  -15.4966 O   0  0  0  0  0  0  0  0  0  0  0  0
  2  1  1  1
  3  2  1  0
  4  6  1  0
  4  2  1  0
  4  5  1  6
  6  7  2  0
  9  8  1  0
 10  9  1  1
 10 12  1  0
 11 10  1  0
 11  6  1  0
 12 13  2  0
 12 14  1  0
 14 15  1  0
 15 16  1  6
 16 17  1  0
 17 18  2  0
 18 19  1  0
 20 19  2  0
 21 20  1  0
 22 17  1  0
 22 21  2  0
 23 25  1  0
 23 15  1  0
 24 23  2  0
M  END
$$$$
