TSF.pdb
     RDKit          3D

 25 25  0  0  1  0  0  0  0  0999 V2000
   29.0778  -18.0074  -16.0903 C   0  0  0  0  0  0  0  0  0  0  0  0
   28.2064  -18.1215  -14.8778 C   0  0  1  0  0  0  0  0  0  0  0  0
   27.9764  -16.8845  -14.3015 O   0  0  0  0  0  0  0  0  0  0  0  0
   26.8503  -18.7478  -15.2143 C   0  0  2  0  0  0  0  0  0  0  0  0
   26.1138  -17.8361  -16.0701 N   0  0  0  0  0  0  0  0  0  0  0  0
   26.1090  -18.9422  -13.9400 C   0  0  0  0  0  0  0  0  0  0  0  0
   25.2726  -18.0796  -13.5674 O   0  0  0  0  0  0  0  0  0  0  0  0
   25.5107  -22.4989  -12.5495 O   0  0  0  0  0  0  0  0  0  0  0  0
   24.6943  -21.4913  -12.0107 C   0  0  0  0  0  0  0  0  0  0  0  0
   25.5634  -20.2359  -11.9138 C   0  0  2  0  0  0  0  0  0  0  0  0
   26.3242  -20.0807  -13.1339 N   0  0  0  0  0  0  0  0  0  0  0  0
   26.4322  -20.3917  -10.7274 C   0  0  0  0  0  0  0  0  0  0  0  0
   27.5180  -21.0122  -10.9142 O   0  0  0  0  0  0  0  0  0  0  0  0
   26.0700  -19.8765   -9.4558 N   0  0  0  0  0  0  0  0  0  0  0  0
   26.8728  -20.3200   -8.3174 C   0  0  1  0  0  0  0  0  0  0  0  0
   27.0735  -19.0742   -7.4688 C   0  0  0  0  0  0  0  0  0  0  0  0
   27.7787  -19.3659   -6.1988 C   0  0  0  0  0  0  0  0  0  0  0  0
   29.1507  -19.6287   -6.1722 C   0  0  0  0  0  0  0  0  0  0  0  0
   29.7399  -19.8783   -4.9628 C   0  0  0  0  0  0  0  0  0  0  0  0
   28.9910  -19.8676   -3.8142 C   0  0  0  0  0  0  0  0  0  0  0  0
   27.6449  -19.6122   -3.8171 C   0  0  0  0  0  0  0  0  0  0  0  0
   27.0401  -19.3585   -5.0349 C   0  0  0  0  0  0  0  0  0  0  0  0
   26.0474  -21.3045   -7.5806 C   0  0  0  0  0  0  0  0  0  0  0  0
   24.7952  -21.3168   -7.6735 O   0  0  0  0  0  0  0  0  0  0  0  0
   26.5994  -22.2813   -6.7370 O   0  0  0  0  0  0  0  0  0  0  0  0
  2  1  1  6
  3  2  1  0
  4  6  1  0
  4  2  1  0
  4  5  1  6
  6  7  2  0
  9  8  1  0
 10  9  1  6
 10 12  1  0
 11 10  1  0
 11  6  1  0
 12 13  2  0
 12 14  1  0
 14 15  1  0
 15 16  1  1
 16 17  1  0
 17 18  2  0
 18 19  1  0
 20 19  2  0
 21 20  1  0
 22 17  1  0
 22 21  2  0
 23 25  1  0
 23 15  1  0
 24 23  2  0
M  END
$$$$
