TSF.pdb
     RDKit          3D

 25 25  0  0  1  0  0  0  0  0999 V2000
   12.7495   -8.5339   -8.6557 C   0  0  0  0  0  0  0  0  0  0  0  0
   12.6940   -9.9856   -9.0191 C   0  0  1  0  0  0  0  0  0  0  0  0
   11.5299  -10.5778   -8.5616 O   0  0  0  0  0  0  0  0  0  0  0  0
   12.7672  -10.1912  -10.5347 C   0  0  2  0  0  0  0  0  0  0  0  0
   12.7886  -11.6154  -10.8127 N   0  0  0  0  0  0  0  0  0  0  0  0
   14.0291   -9.5710  -11.0185 C   0  0  0  0  0  0  0  0  0  0  0  0
   15.1083  -10.2130  -10.9434 O   0  0  0  0  0  0  0  0  0  0  0  0
   13.8360   -6.3446  -13.3180 O   0  0  0  0  0  0  0  0  0  0  0  0
   15.0162   -7.0931  -13.4555 C   0  0  0  0  0  0  0  0  0  0  0  0
   15.2800   -7.7391  -12.0940 C   0  0  2  0  0  0  0  0  0  0  0  0
   14.0432   -8.2692  -11.5639 N   0  0  0  0  0  0  0  0  0  0  0  0
   15.8652   -6.7004  -11.2192 C   0  0  0  0  0  0  0  0  0  0  0  0
   15.0503   -6.0734  -10.4831 O   0  0  0  0  0  0  0  0  0  0  0  0
   17.2568   -6.4234  -11.2060 N   0  0  0  0  0  0  0  0  0  0  0  0
   17.7036   -5.3597  -10.3081 C   0  0  1  0  0  0  0  0  0  0  0  0
   19.1013   -5.7729   -9.8743 C   0  0  0  0  0  0  0  0  0  0  0  0
   19.9890   -6.0518  -11.0274 C   0  0  0  0  0  0  0  0  0  0  0  0
   20.5473   -5.0174  -11.7827 C   0  0  0  0  0  0  0  0  0  0  0  0
   21.3680   -5.3467  -12.8267 C   0  0  0  0  0  0  0  0  0  0  0  0
   21.6273   -6.6623  -13.1133 C   0  0  0  0  0  0  0  0  0  0  0  0
   21.0909   -7.6922  -12.3861 C   0  0  0  0  0  0  0  0  0  0  0  0
   20.2601   -7.3695  -11.3284 C   0  0  0  0  0  0  0  0  0  0  0  0
   17.7727   -4.1249  -11.1228 C   0  0  0  0  0  0  0  0  0  0  0  0
   17.6426   -4.1500  -12.3715 O   0  0  0  0  0  0  0  0  0  0  0  0
   17.9858   -2.8550  -10.5639 O   0  0  0  0  0  0  0  0  0  0  0  0
  2  1  1  6
  3  2  1  0
  4  6  1  0
  4  2  1  0
  4  5  1  1
  6  7  2  0
  9  8  1  0
 10  9  1  6
 10 12  1  0
 11 10  1  0
 11  6  1  0
 12 13  2  0
 12 14  1  0
 14 15  1  0
 15 16  1  6
 16 17  1  0
 17 18  2  0
 18 19  1  0
 20 19  2  0
 21 20  1  0
 22 17  1  0
 22 21  2  0
 23 25  1  0
 23 15  1  0
 24 23  2  0
M  END
$$$$
