TSF.pdb
     RDKit          3D

 25 25  0  0  1  0  0  0  0  0999 V2000
   18.2680  -14.0191  -15.1200 C   0  0  0  0  0  0  0  0  0  0  0  0
   17.8840  -14.3059  -16.5387 C   0  0  1  0  0  0  0  0  0  0  0  0
   17.3441  -15.5732  -16.6709 O   0  0  0  0  0  0  0  0  0  0  0  0
   16.8580  -13.2961  -17.0608 C   0  0  2  0  0  0  0  0  0  0  0  0
   16.4872  -13.6641  -18.4148 N   0  0  0  0  0  0  0  0  0  0  0  0
   17.5008  -11.9553  -17.0681 C   0  0  0  0  0  0  0  0  0  0  0  0
   18.3942  -11.6966  -17.9150 O   0  0  0  0  0  0  0  0  0  0  0  0
   16.7464   -9.2953  -14.0880 O   0  0  0  0  0  0  0  0  0  0  0  0
   17.0577   -8.6761  -15.3094 C   0  0  0  0  0  0  0  0  0  0  0  0
   17.8439   -9.7028  -16.1269 C   0  0  2  0  0  0  0  0  0  0  0  0
   17.1282  -10.9595  -16.1397 N   0  0  0  0  0  0  0  0  0  0  0  0
   19.1822   -9.8262  -15.5099 C   0  0  0  0  0  0  0  0  0  0  0  0
   19.3072  -10.7311  -14.6356 O   0  0  0  0  0  0  0  0  0  0  0  0
   20.2612   -8.9807  -15.8762 N   0  0  0  0  0  0  0  0  0  0  0  0
   21.5465   -9.2435  -15.2310 C   0  0  1  0  0  0  0  0  0  0  0  0
   22.4059   -9.8802  -16.3119 C   0  0  0  0  0  0  0  0  0  0  0  0
   23.8087  -10.0722  -15.8752 C   0  0  0  0  0  0  0  0  0  0  0  0
   24.1801  -11.1571  -15.0769 C   0  0  0  0  0  0  0  0  0  0  0  0
   25.4953  -11.2797  -14.7204 C   0  0  0  0  0  0  0  0  0  0  0  0
   26.4148  -10.3542  -15.1427 C   0  0  0  0  0  0  0  0  0  0  0  0
   26.0728   -9.2832  -15.9257 C   0  0  0  0  0  0  0  0  0  0  0  0
   24.7455   -9.1506  -16.2916 C   0  0  0  0  0  0  0  0  0  0  0  0
   22.1043   -7.9241  -14.8550 C   0  0  0  0  0  0  0  0  0  0  0  0
   21.8699   -6.8918  -15.5304 O   0  0  0  0  0  0  0  0  0  0  0  0
   22.9243   -7.7364  -13.7312 O   0  0  0  0  0  0  0  0  0  0  0  0
  2  1  1  1
  3  2  1  0
  4  6  1  0
  4  2  1  0
  4  5  1  6
  6  7  2  0
  9  8  1  0
 10  9  1  1
 10 12  1  0
 11 10  1  0
 11  6  1  0
 12 13  2  0
 12 14  1  0
 14 15  1  0
 15 16  1  6
 16 17  1  0
 17 18  2  0
 18 19  1  0
 20 19  2  0
 21 20  1  0
 22 17  1  0
 22 21  2  0
 23 25  1  0
 23 15  1  0
 24 23  2  0
M  END
$$$$
