TSF.pdb
     RDKit          3D

 25 25  0  0  1  0  0  0  0  0999 V2000
   28.6104  -27.7838  -20.4131 C   0  0  0  0  0  0  0  0  0  0  0  0
   29.8400  -28.1349  -19.6337 C   0  0  1  0  0  0  0  0  0  0  0  0
   30.9737  -28.0821  -20.4257 O   0  0  0  0  0  0  0  0  0  0  0  0
   30.0455  -27.1890  -18.4473 C   0  0  2  0  0  0  0  0  0  0  0  0
   31.2403  -27.5925  -17.7291 N   0  0  0  0  0  0  0  0  0  0  0  0
   28.8628  -27.3135  -17.5547 C   0  0  0  0  0  0  0  0  0  0  0  0
   28.7091  -28.3542  -16.8647 O   0  0  0  0  0  0  0  0  0  0  0  0
   26.7973  -24.2692  -15.7194 O   0  0  0  0  0  0  0  0  0  0  0  0
   25.9976  -25.1345  -16.4835 C   0  0  0  0  0  0  0  0  0  0  0  0
   26.7647  -26.4541  -16.5870 C   0  0  2  0  0  0  0  0  0  0  0  0
   27.9023  -26.2833  -17.4635 N   0  0  0  0  0  0  0  0  0  0  0  0
   25.8195  -27.4752  -17.0878 C   0  0  0  0  0  0  0  0  0  0  0  0
   25.6232  -27.4823  -18.3370 O   0  0  0  0  0  0  0  0  0  0  0  0
   25.1717  -28.3919  -16.2199 N   0  0  0  0  0  0  0  0  0  0  0  0
   24.3163  -29.3964  -16.8497 C   0  0  1  0  0  0  0  0  0  0  0  0
   24.6238  -30.6914  -16.1142 C   0  0  0  0  0  0  0  0  0  0  0  0
   25.8535  -31.3465  -16.6183 C   0  0  0  0  0  0  0  0  0  0  0  0
   25.7942  -32.3891  -17.5465 C   0  0  0  0  0  0  0  0  0  0  0  0
   26.9696  -32.9405  -17.9785 C   0  0  0  0  0  0  0  0  0  0  0  0
   28.1678  -32.4719  -17.5042 C   0  0  0  0  0  0  0  0  0  0  0  0
   28.2493  -31.4508  -16.5944 C   0  0  0  0  0  0  0  0  0  0  0  0
   27.0665  -30.8868  -16.1517 C   0  0  0  0  0  0  0  0  0  0  0  0
   22.9191  -28.9842  -16.5826 C   0  0  0  0  0  0  0  0  0  0  0  0
   22.6509  -27.9611  -15.9057 O   0  0  0  0  0  0  0  0  0  0  0  0
   21.8098  -29.6989  -17.0610 O   0  0  0  0  0  0  0  0  0  0  0  0
  2  1  1  6
  3  2  1  0
  4  6  1  0
  4  2  1  0
  4  5  1  1
  6  7  2  0
  9  8  1  0
 10  9  1  6
 10 12  1  0
 11 10  1  0
 11  6  1  0
 12 13  2  0
 12 14  1  0
 14 15  1  0
 15 16  1  1
 16 17  1  0
 17 18  2  0
 18 19  1  0
 20 19  2  0
 21 20  1  0
 22 17  1  0
 22 21  2  0
 23 25  1  0
 23 15  1  0
 24 23  2  0
M  END
$$$$
