TSF.pdb
     RDKit          3D

 25 25  0  0  1  0  0  0  0  0999 V2000
   17.2047  -11.8401  -17.6576 C   0  0  0  0  0  0  0  0  0  0  0  0
   18.1531  -12.9902  -17.8010 C   0  0  1  0  0  0  0  0  0  0  0  0
   17.4827  -14.2008  -17.8123 O   0  0  0  0  0  0  0  0  0  0  0  0
   18.9718  -12.8890  -19.0910 C   0  0  2  0  0  0  0  0  0  0  0  0
   19.7920  -14.0795  -19.2187 N   0  0  0  0  0  0  0  0  0  0  0  0
   19.8468  -11.6916  -18.9831 C   0  0  0  0  0  0  0  0  0  0  0  0
   20.9607  -11.7831  -18.4057 O   0  0  0  0  0  0  0  0  0  0  0  0
   18.4575   -8.1050  -20.1231 O   0  0  0  0  0  0  0  0  0  0  0  0
   19.8501   -8.1760  -20.2903 C   0  0  0  0  0  0  0  0  0  0  0  0
   20.3372   -9.3095  -19.3856 C   0  0  2  0  0  0  0  0  0  0  0  0
   19.4527  -10.4460  -19.5176 N   0  0  0  0  0  0  0  0  0  0  0  0
   20.3739   -8.7853  -18.0033 C   0  0  0  0  0  0  0  0  0  0  0  0
   19.3758   -9.0644  -17.2789 O   0  0  0  0  0  0  0  0  0  0  0  0
   21.4629   -8.0157  -17.5184 N   0  0  0  0  0  0  0  0  0  0  0  0
   21.3423   -7.4965  -16.1571 C   0  0  1  0  0  0  0  0  0  0  0  0
   22.7425   -7.5973  -15.5725 C   0  0  0  0  0  0  0  0  0  0  0  0
   22.7277   -7.7397  -14.0977 C   0  0  0  0  0  0  0  0  0  0  0  0
   22.9283   -8.9790  -13.4845 C   0  0  0  0  0  0  0  0  0  0  0  0
   22.9140   -9.0361  -12.1176 C   0  0  0  0  0  0  0  0  0  0  0  0
   22.7069   -7.8983  -11.3808 C   0  0  0  0  0  0  0  0  0  0  0  0
   22.5083   -6.6731  -11.9611 C   0  0  0  0  0  0  0  0  0  0  0  0
   22.5212   -6.6052  -13.3425 C   0  0  0  0  0  0  0  0  0  0  0  0
   20.9500   -6.0740  -16.2842 C   0  0  0  0  0  0  0  0  0  0  0  0
   21.1031   -5.4407  -17.3576 O   0  0  0  0  0  0  0  0  0  0  0  0
   20.3863   -5.3424  -15.2272 O   0  0  0  0  0  0  0  0  0  0  0  0
  2  1  1  6
  3  2  1  0
  4  6  1  0
  4  2  1  0
  4  5  1  1
  6  7  2  0
  9  8  1  0
 10  9  1  6
 10 12  1  0
 11 10  1  0
 11  6  1  0
 12 13  2  0
 12 14  1  0
 14 15  1  0
 15 16  1  6
 16 17  1  0
 17 18  2  0
 18 19  1  0
 20 19  2  0
 21 20  1  0
 22 17  1  0
 22 21  2  0
 23 25  1  0
 23 15  1  0
 24 23  2  0
M  END
$$$$
