TSF.pdb
     RDKit          3D

 25 25  0  0  1  0  0  0  0  0999 V2000
   16.9982  -13.6831  -17.3124 C   0  0  0  0  0  0  0  0  0  0  0  0
   17.8781  -12.5105  -17.0068 C   0  0  1  0  0  0  0  0  0  0  0  0
   18.6800  -12.7528  -15.9052 O   0  0  0  0  0  0  0  0  0  0  0  0
   18.7876  -12.1641  -18.1890 C   0  0  2  0  0  0  0  0  0  0  0  0
   19.7527  -13.2335  -18.3653 N   0  0  0  0  0  0  0  0  0  0  0  0
   19.4997  -10.9005  -17.8615 C   0  0  0  0  0  0  0  0  0  0  0  0
   20.5896  -10.9433  -17.2347 O   0  0  0  0  0  0  0  0  0  0  0  0
   17.8370   -7.2548  -18.6343 O   0  0  0  0  0  0  0  0  0  0  0  0
   19.2218   -7.3083  -18.8615 C   0  0  0  0  0  0  0  0  0  0  0  0
   19.7578   -8.4527  -17.9992 C   0  0  2  0  0  0  0  0  0  0  0  0
   18.9766   -9.6456  -18.2409 N   0  0  0  0  0  0  0  0  0  0  0  0
   19.6871   -8.0127  -16.5891 C   0  0  0  0  0  0  0  0  0  0  0  0
   18.7080   -8.4523  -15.9206 O   0  0  0  0  0  0  0  0  0  0  0  0
   20.6588   -7.1493  -16.0201 N   0  0  0  0  0  0  0  0  0  0  0  0
   20.4498   -6.7568  -14.6274 C   0  0  1  0  0  0  0  0  0  0  0  0
   21.7925   -6.9818  -13.9499 C   0  0  0  0  0  0  0  0  0  0  0  0
   22.9300   -6.5631  -14.8021 C   0  0  0  0  0  0  0  0  0  0  0  0
   23.3043   -5.2211  -14.9080 C   0  0  0  0  0  0  0  0  0  0  0  0
   24.3722   -4.9066  -15.7035 C   0  0  0  0  0  0  0  0  0  0  0  0
   25.0486   -5.8933  -16.3737 C   0  0  0  0  0  0  0  0  0  0  0  0
   24.6990   -7.2150  -16.2842 C   0  0  0  0  0  0  0  0  0  0  0  0
   23.6208   -7.5430  -15.4823 C   0  0  0  0  0  0  0  0  0  0  0  0
   20.1287   -5.3111  -14.6431 C   0  0  0  0  0  0  0  0  0  0  0  0
   19.8564   -4.6842  -13.5897 O   0  0  0  0  0  0  0  0  0  0  0  0
   20.1064   -4.5488  -15.8216 O   0  0  0  0  0  0  0  0  0  0  0  0
  2  1  1  6
  3  2  1  0
  4  6  1  0
  4  2  1  0
  4  5  1  1
  6  7  2  0
  9  8  1  0
 10  9  1  6
 10 12  1  0
 11 10  1  0
 11  6  1  0
 12 13  2  0
 12 14  1  0
 14 15  1  0
 15 16  1  1
 16 17  1  0
 17 18  2  0
 18 19  1  0
 20 19  2  0
 21 20  1  0
 22 17  1  0
 22 21  2  0
 23 25  1  0
 23 15  1  0
 24 23  2  0
M  END
$$$$
