TSF.pdb
     RDKit          3D

 25 25  0  0  1  0  0  0  0  0999 V2000
   27.6114  -17.6676  -14.8242 C   0  0  0  0  0  0  0  0  0  0  0  0
   26.3556  -17.0619  -15.3708 C   0  0  1  0  0  0  0  0  0  0  0  0
   26.5705  -16.4819  -16.6087 O   0  0  0  0  0  0  0  0  0  0  0  0
   25.2452  -18.1053  -15.5218 C   0  0  2  0  0  0  0  0  0  0  0  0
   24.0572  -17.4520  -16.0396 N   0  0  0  0  0  0  0  0  0  0  0  0
   24.9581  -18.6642  -14.1741 C   0  0  0  0  0  0  0  0  0  0  0  0
   24.2242  -18.0246  -13.3772 O   0  0  0  0  0  0  0  0  0  0  0  0
   26.3146  -22.3544  -13.1587 O   0  0  0  0  0  0  0  0  0  0  0  0
   25.1026  -21.9771  -12.5581 C   0  0  0  0  0  0  0  0  0  0  0  0
   25.1151  -20.4491  -12.4811 C   0  0  2  0  0  0  0  0  0  0  0  0
   25.4941  -19.9046  -13.7662 N   0  0  0  0  0  0  0  0  0  0  0  0
   26.0616  -20.0694  -11.4103 C   0  0  0  0  0  0  0  0  0  0  0  0
   27.2179  -19.7261  -11.7898 O   0  0  0  0  0  0  0  0  0  0  0  0
   25.6952  -20.0889  -10.0396 N   0  0  0  0  0  0  0  0  0  0  0  0
   26.7643  -19.8435   -9.0731 C   0  0  1  0  0  0  0  0  0  0  0  0
   26.0512  -19.5911   -7.7539 C   0  0  0  0  0  0  0  0  0  0  0  0
   26.9950  -19.4711   -6.6180 C   0  0  0  0  0  0  0  0  0  0  0  0
   27.7124  -18.2941   -6.3895 C   0  0  0  0  0  0  0  0  0  0  0  0
   28.5578  -18.2482   -5.3146 C   0  0  0  0  0  0  0  0  0  0  0  0
   28.6879  -19.3369   -4.4911 C   0  0  0  0  0  0  0  0  0  0  0  0
   27.9943  -20.5005   -4.6963 C   0  0  0  0  0  0  0  0  0  0  0  0
   27.1370  -20.5566   -5.7803 C   0  0  0  0  0  0  0  0  0  0  0  0
   27.5501  -21.0961   -8.9901 C   0  0  0  0  0  0  0  0  0  0  0  0
   27.0022  -22.2242   -9.0538 O   0  0  0  0  0  0  0  0  0  0  0  0
   28.9453  -21.1109   -8.8362 O   0  0  0  0  0  0  0  0  0  0  0  0
  2  1  1  6
  3  2  1  0
  4  6  1  0
  4  2  1  0
  4  5  1  1
  6  7  2  0
  9  8  1  0
 10  9  1  6
 10 12  1  0
 11 10  1  0
 11  6  1  0
 12 13  2  0
 12 14  1  0
 14 15  1  0
 15 16  1  1
 16 17  1  0
 17 18  2  0
 18 19  1  0
 20 19  2  0
 21 20  1  0
 22 17  1  0
 22 21  2  0
 23 25  1  0
 23 15  1  0
 24 23  2  0
M  END
$$$$
