TSF.pdb
     RDKit          3D

 25 25  0  0  1  0  0  0  0  0999 V2000
   18.7833   -9.2361  -19.1068 C   0  0  0  0  0  0  0  0  0  0  0  0
   18.0001  -10.3403  -18.4666 C   0  0  1  0  0  0  0  0  0  0  0  0
   17.2288  -11.0179  -19.3945 O   0  0  0  0  0  0  0  0  0  0  0  0
   18.9161  -11.3562  -17.7783 C   0  0  2  0  0  0  0  0  0  0  0  0
   18.1033  -12.4376  -17.2528 N   0  0  0  0  0  0  0  0  0  0  0  0
   19.6058  -10.6628  -16.6582 C   0  0  0  0  0  0  0  0  0  0  0  0
   18.9370  -10.2408  -15.6799 O   0  0  0  0  0  0  0  0  0  0  0  0
   23.5995   -9.4470  -14.3503 O   0  0  0  0  0  0  0  0  0  0  0  0
   23.0595  -10.2119  -15.3970 C   0  0  0  0  0  0  0  0  0  0  0  0
   21.6205   -9.7287  -15.5881 C   0  0  2  0  0  0  0  0  0  0  0  0
   21.0035  -10.4662  -16.6683 N   0  0  0  0  0  0  0  0  0  0  0  0
   21.6758   -8.2763  -15.8607 C   0  0  0  0  0  0  0  0  0  0  0  0
   22.0037   -7.9461  -17.0365 O   0  0  0  0  0  0  0  0  0  0  0  0
   21.3790   -7.3111  -14.8639 N   0  0  0  0  0  0  0  0  0  0  0  0
   21.5253   -5.9080  -15.2477 C   0  0  1  0  0  0  0  0  0  0  0  0
   20.1112   -5.3489  -15.2398 C   0  0  0  0  0  0  0  0  0  0  0  0
   20.0731   -3.9097  -15.5901 C   0  0  0  0  0  0  0  0  0  0  0  0
   20.3240   -3.4712  -16.8928 C   0  0  0  0  0  0  0  0  0  0  0  0
   20.2603   -2.1286  -17.1486 C   0  0  0  0  0  0  0  0  0  0  0  0
   19.9568   -1.2473  -16.1429 C   0  0  0  0  0  0  0  0  0  0  0  0
   19.7072   -1.6552  -14.8590 C   0  0  0  0  0  0  0  0  0  0  0  0
   19.7691   -3.0106  -14.5903 C   0  0  0  0  0  0  0  0  0  0  0  0
   22.3285   -5.2638  -14.1832 C   0  0  0  0  0  0  0  0  0  0  0  0
   22.2551   -5.6343  -12.9856 O   0  0  0  0  0  0  0  0  0  0  0  0
   23.2173   -4.2067  -14.4342 O   0  0  0  0  0  0  0  0  0  0  0  0
  2  1  1  6
  3  2  1  0
  4  6  1  0
  4  2  1  0
  4  5  1  1
  6  7  2  0
  9  8  1  0
 10  9  1  6
 10 12  1  0
 11 10  1  0
 11  6  1  0
 12 13  2  0
 12 14  1  0
 14 15  1  0
 15 16  1  1
 16 17  1  0
 17 18  2  0
 18 19  1  0
 20 19  2  0
 21 20  1  0
 22 17  1  0
 22 21  2  0
 23 25  1  0
 23 15  1  0
 24 23  2  0
M  END
$$$$
