EIV.pdb
     RDKit          3D

 25 24  0  0  1  0  0  0  0  0999 V2000
   12.4360  -16.7572   19.6793 N   0  0  0  0  0  0  0  0  0  0  0  0
   11.8958  -17.3423   20.8561 C   0  0  1  0  0  0  0  0  0  0  0  0
   12.8210  -18.2505   21.6207 C   0  0  0  0  0  0  0  0  0  0  0  0
   13.6199  -19.2158   20.8411 C   0  0  0  0  0  0  0  0  0  0  0  0
   14.0268  -20.4553   21.4733 C   0  0  0  0  0  0  0  0  0  0  0  0
   13.7747  -20.7586   22.6441 O   0  0  0  0  0  0  0  0  0  0  0  0
   11.3643  -16.3841   21.8558 C   0  0  0  0  0  0  0  0  0  0  0  0
   11.9683  -15.2848   21.9557 O   0  0  0  0  0  0  0  0  0  0  0  0
   14.7525  -21.3811   20.7269 O   0  0  0  0  0  0  0  0  0  0  0  0
    6.4588  -15.1935   21.4262 C   0  0  0  0  0  0  0  0  0  0  0  0
    7.9777  -15.1712   21.6890 C   0  0  0  0  0  0  0  0  0  0  0  0
    8.2106  -15.5053   23.1138 C   0  0  2  0  0  0  0  0  0  0  0  0
    7.4103  -14.6378   24.0656 C   0  0  0  0  0  0  0  0  0  0  0  0
    9.6632  -15.5787   23.5266 C   0  0  2  0  0  0  0  0  0  0  0  0
   10.2559  -16.6357   22.6680 N   0  0  0  0  0  0  0  0  0  0  0  0
    9.8833  -15.9489   24.9232 C   0  0  0  0  0  0  0  0  0  0  0  0
   10.0610  -17.1881   25.2061 O   0  0  0  0  0  0  0  0  0  0  0  0
    8.9142  -13.8042   28.5597 C   0  0  0  0  0  0  0  0  0  0  0  0
   10.2813  -14.3676   28.3498 C   0  0  2  0  0  0  0  0  0  0  0  0
   11.2048  -13.2727   27.8765 C   0  0  0  0  0  0  0  0  0  0  0  0
   10.2385  -15.5303   27.3925 C   0  0  2  0  0  0  0  0  0  0  0  0
    9.9294  -15.0856   26.0343 N   0  0  0  0  0  0  0  0  0  0  0  0
    9.2652  -16.5611   27.8397 C   0  0  0  0  0  0  0  0  0  0  0  0
    8.0239  -16.7369   27.2421 O   0  0  0  0  0  0  0  0  0  0  0  0
    9.5592  -17.3165   28.7989 O   0  0  0  0  0  0  0  0  0  0  0  0
  2  1  1  6
  2  3  1  0
  3  4  1  0
  4  5  1  0
  5  6  2  0
  7  2  1  0
  7  8  2  0
  9  5  1  0
 10 11  1  0
 11 12  1  0
 12 14  1  0
 12 13  1  1
 14 15  1  6
 15  7  1  0
 16 14  1  0
 17 16  2  0
 19 21  1  0
 19 18  1  6
 20 19  1  0
 21 22  1  6
 22 16  1  0
 23 21  1  0
 24 23  1  0
 25 23  2  0
M  END
$$$$
