EIV.pdb
     RDKit          3D

 25 24  0  0  1  0  0  0  0  0999 V2000
   10.1333  -16.0910   20.0019 N   0  0  0  0  0  0  0  0  0  0  0  0
    9.6968  -16.6581   21.2294 C   0  0  1  0  0  0  0  0  0  0  0  0
   10.4308  -17.8929   21.6787 C   0  0  0  0  0  0  0  0  0  0  0  0
   10.6380  -18.9591   20.6797 C   0  0  0  0  0  0  0  0  0  0  0  0
   11.2022  -20.2217   21.1145 C   0  0  0  0  0  0  0  0  0  0  0  0
   11.4506  -21.1716   20.3646 O   0  0  0  0  0  0  0  0  0  0  0  0
    9.7133  -15.7404   22.3947 C   0  0  0  0  0  0  0  0  0  0  0  0
   10.5850  -14.8332   22.3821 O   0  0  0  0  0  0  0  0  0  0  0  0
   11.4913  -20.3962   22.4660 O   0  0  0  0  0  0  0  0  0  0  0  0
    5.7705  -13.0523   25.9213 C   0  0  0  0  0  0  0  0  0  0  0  0
    7.2812  -13.3152   25.7621 C   0  0  0  0  0  0  0  0  0  0  0  0
    7.4603  -14.5013   24.8922 C   0  0  2  0  0  0  0  0  0  0  0  0
    6.6490  -15.6989   25.3465 C   0  0  0  0  0  0  0  0  0  0  0  0
    8.8967  -14.8834   24.6157 C   0  0  2  0  0  0  0  0  0  0  0  0
    8.8314  -15.8315   23.4743 N   0  0  0  0  0  0  0  0  0  0  0  0
    9.5755  -15.5507   25.7246 C   0  0  0  0  0  0  0  0  0  0  0  0
    9.8892  -16.7883   25.5931 O   0  0  0  0  0  0  0  0  0  0  0  0
    9.6641  -14.7367   29.9470 C   0  0  0  0  0  0  0  0  0  0  0  0
   10.9476  -14.8330   29.1894 C   0  0  2  0  0  0  0  0  0  0  0  0
   11.4466  -13.4447   28.8748 C   0  0  0  0  0  0  0  0  0  0  0  0
   10.7739  -15.6707   27.9491 C   0  0  2  0  0  0  0  0  0  0  0  0
    9.9437  -14.9848   26.9601 N   0  0  0  0  0  0  0  0  0  0  0  0
   10.2049  -17.0048   28.2751 C   0  0  0  0  0  0  0  0  0  0  0  0
   10.9389  -18.0072   28.8958 O   0  0  0  0  0  0  0  0  0  0  0  0
    9.0094  -17.2566   27.9844 O   0  0  0  0  0  0  0  0  0  0  0  0
  2  1  1  6
  2  3  1  0
  3  4  1  0
  4  5  1  0
  5  6  2  0
  7  2  1  0
  7  8  2  0
  9  5  1  0
 10 11  1  0
 11 12  1  0
 12 14  1  0
 12 13  1  1
 14 15  1  6
 15  7  1  0
 16 14  1  0
 17 16  2  0
 19 21  1  0
 19 18  1  6
 20 19  1  0
 21 22  1  6
 22 16  1  0
 23 21  1  0
 24 23  1  0
 25 23  2  0
M  END
$$$$
