EIV.pdb
     RDKit          3D

 25 24  0  0  1  0  0  0  0  0999 V2000
    7.7956  -14.3056   20.0310 N   0  0  0  0  0  0  0  0  0  0  0  0
    7.3243  -14.9805   21.1891 C   0  0  1  0  0  0  0  0  0  0  0  0
    7.3111  -16.4835   21.1119 C   0  0  0  0  0  0  0  0  0  0  0  0
    6.6362  -17.0965   19.9515 C   0  0  0  0  0  0  0  0  0  0  0  0
    6.5676  -18.5422   19.8684 C   0  0  0  0  0  0  0  0  0  0  0  0
    7.0517  -19.3141   20.7026 O   0  0  0  0  0  0  0  0  0  0  0  0
    8.0363  -14.6539   22.4487 C   0  0  0  0  0  0  0  0  0  0  0  0
    9.2744  -14.4492   22.3565 O   0  0  0  0  0  0  0  0  0  0  0  0
    5.9155  -19.1204   18.7816 O   0  0  0  0  0  0  0  0  0  0  0  0
    5.7352  -11.5430   26.1257 C   0  0  0  0  0  0  0  0  0  0  0  0
    6.7436  -12.1992   25.1620 C   0  0  0  0  0  0  0  0  0  0  0  0
    7.2479  -13.4435   25.7890 C   0  0  2  0  0  0  0  0  0  0  0  0
    7.8227  -13.2198   27.1741 C   0  0  0  0  0  0  0  0  0  0  0  0
    8.1861  -14.2605   24.9300 C   0  0  2  0  0  0  0  0  0  0  0  0
    7.4157  -14.5639   23.6971 N   0  0  0  0  0  0  0  0  0  0  0  0
    8.6127  -15.5258   25.5242 C   0  0  0  0  0  0  0  0  0  0  0  0
    7.7120  -16.3682   25.8796 O   0  0  0  0  0  0  0  0  0  0  0  0
   11.4485  -17.8815   24.1752 C   0  0  0  0  0  0  0  0  0  0  0  0
   11.5669  -17.7744   25.6602 C   0  0  2  0  0  0  0  0  0  0  0  0
   11.9867  -19.1087   26.2247 C   0  0  0  0  0  0  0  0  0  0  0  0
   10.2781  -17.2801   26.2642 C   0  0  2  0  0  0  0  0  0  0  0  0
    9.9337  -15.9513   25.7605 N   0  0  0  0  0  0  0  0  0  0  0  0
   10.3458  -17.2753   27.7492 C   0  0  0  0  0  0  0  0  0  0  0  0
   10.2101  -18.4261   28.5146 O   0  0  0  0  0  0  0  0  0  0  0  0
   10.5334  -16.1928   28.3577 O   0  0  0  0  0  0  0  0  0  0  0  0
  2  1  1  6
  2  3  1  0
  3  4  1  0
  4  5  1  0
  5  6  2  0
  7  2  1  0
  7  8  2  0
  9  5  1  0
 10 11  1  0
 11 12  1  0
 12 14  1  0
 12 13  1  1
 14 15  1  6
 15  7  1  0
 16 14  1  0
 17 16  2  0
 19 21  1  0
 19 18  1  6
 20 19  1  0
 21 22  1  6
 22 16  1  0
 23 21  1  0
 24 23  1  0
 25 23  2  0
M  END
$$$$
