EIV.pdb
     RDKit          3D

 25 24  0  0  1  0  0  0  0  0999 V2000
    8.8463  -15.7313   20.1111 N   0  0  0  0  0  0  0  0  0  0  0  0
    8.5852  -16.3059   21.3841 C   0  0  1  0  0  0  0  0  0  0  0  0
    9.2295  -17.6409   21.6452 C   0  0  0  0  0  0  0  0  0  0  0  0
    8.9826  -18.7158   20.6648 C   0  0  0  0  0  0  0  0  0  0  0  0
    9.4183  -20.0617   20.9814 C   0  0  0  0  0  0  0  0  0  0  0  0
    8.8944  -20.7832   21.8366 O   0  0  0  0  0  0  0  0  0  0  0  0
    8.9408  -15.4588   22.5487 C   0  0  0  0  0  0  0  0  0  0  0  0
    9.9290  -14.6934   22.4047 O   0  0  0  0  0  0  0  0  0  0  0  0
   10.4998  -20.5968   20.2852 O   0  0  0  0  0  0  0  0  0  0  0  0
    5.3024  -12.7088   25.1294 C   0  0  0  0  0  0  0  0  0  0  0  0
    6.6190  -13.1564   24.4641 C   0  0  0  0  0  0  0  0  0  0  0  0
    7.3582  -14.0137   25.4203 C   0  0  2  0  0  0  0  0  0  0  0  0
    7.5580  -13.3590   26.7732 C   0  0  0  0  0  0  0  0  0  0  0  0
    8.6512  -14.5946   24.8946 C   0  0  2  0  0  0  0  0  0  0  0  0
    8.2501  -15.4688   23.7629 N   0  0  0  0  0  0  0  0  0  0  0  0
    9.3922  -15.4066   25.8576 C   0  0  0  0  0  0  0  0  0  0  0  0
    9.2716  -16.6831   25.8014 O   0  0  0  0  0  0  0  0  0  0  0  0
   12.0142  -15.9647   30.0326 C   0  0  0  0  0  0  0  0  0  0  0  0
   11.5511  -15.0493   28.9473 C   0  0  2  0  0  0  0  0  0  0  0  0
   10.5953  -14.0349   29.5242 C   0  0  0  0  0  0  0  0  0  0  0  0
   10.9372  -15.8311   27.8151 C   0  0  2  0  0  0  0  0  0  0  0  0
   10.2538  -14.9472   26.8719 N   0  0  0  0  0  0  0  0  0  0  0  0
   10.0075  -16.8743   28.3222 C   0  0  0  0  0  0  0  0  0  0  0  0
   10.4171  -18.1652   28.6300 O   0  0  0  0  0  0  0  0  0  0  0  0
    8.7939  -16.5962   28.4866 O   0  0  0  0  0  0  0  0  0  0  0  0
  2  1  1  6
  2  3  1  0
  3  4  1  0
  4  5  1  0
  5  6  2  0
  7  2  1  0
  7  8  2  0
  9  5  1  0
 10 11  1  0
 11 12  1  0
 12 14  1  0
 12 13  1  1
 14 15  1  6
 15  7  1  0
 16 14  1  0
 17 16  2  0
 19 21  1  0
 19 18  1  1
 20 19  1  0
 21 22  1  6
 22 16  1  0
 23 21  1  0
 24 23  1  0
 25 23  2  0
M  END
$$$$
