EIV.pdb
     RDKit          3D

 25 24  0  0  1  0  0  0  0  0999 V2000
    7.7428  -14.4919   20.4739 N   0  0  0  0  0  0  0  0  0  0  0  0
    7.5910  -15.4029   21.5537 C   0  0  1  0  0  0  0  0  0  0  0  0
    7.9603  -16.8325   21.2619 C   0  0  0  0  0  0  0  0  0  0  0  0
    6.8603  -17.8124   21.1752 C   0  0  0  0  0  0  0  0  0  0  0  0
    6.8390  -18.7400   20.0613 C   0  0  0  0  0  0  0  0  0  0  0  0
    7.8347  -19.3189   19.6145 O   0  0  0  0  0  0  0  0  0  0  0  0
    8.3256  -15.0480   22.7925 C   0  0  0  0  0  0  0  0  0  0  0  0
    9.5494  -14.7857   22.6635 O   0  0  0  0  0  0  0  0  0  0  0  0
    5.6228  -19.0107   19.4384 O   0  0  0  0  0  0  0  0  0  0  0  0
    5.9516  -11.8499   26.1895 C   0  0  0  0  0  0  0  0  0  0  0  0
    7.0351  -12.5157   25.3182 C   0  0  0  0  0  0  0  0  0  0  0  0
    7.5613  -13.6944   26.0461 C   0  0  2  0  0  0  0  0  0  0  0  0
    8.1353  -13.3454   27.4053 C   0  0  0  0  0  0  0  0  0  0  0  0
    8.5111  -14.5654   25.2556 C   0  0  2  0  0  0  0  0  0  0  0  0
    7.7402  -14.9913   24.0597 N   0  0  0  0  0  0  0  0  0  0  0  0
    8.9662  -15.7648   25.9558 C   0  0  0  0  0  0  0  0  0  0  0  0
    8.0859  -16.6037   26.3662 O   0  0  0  0  0  0  0  0  0  0  0  0
   12.3794  -19.2197   26.7844 C   0  0  0  0  0  0  0  0  0  0  0  0
   11.9736  -17.9122   26.1875 C   0  0  2  0  0  0  0  0  0  0  0  0
   13.0912  -16.9147   26.3643 C   0  0  0  0  0  0  0  0  0  0  0  0
   10.6788  -17.4298   26.7884 C   0  0  2  0  0  0  0  0  0  0  0  0
   10.2956  -16.1285   26.2431 N   0  0  0  0  0  0  0  0  0  0  0  0
   10.7615  -17.3719   28.2715 C   0  0  0  0  0  0  0  0  0  0  0  0
   10.7693  -18.5069   29.0719 O   0  0  0  0  0  0  0  0  0  0  0  0
   10.8280  -16.2569   28.8456 O   0  0  0  0  0  0  0  0  0  0  0  0
  2  1  1  6
  2  3  1  0
  3  4  1  0
  4  5  1  0
  5  6  2  0
  7  2  1  0
  7  8  2  0
  9  5  1  0
 10 11  1  0
 11 12  1  0
 12 14  1  0
 12 13  1  1
 14 15  1  6
 15  7  1  0
 16 14  1  0
 17 16  2  0
 19 21  1  0
 19 18  1  1
 20 19  1  0
 21 22  1  6
 22 16  1  0
 23 21  1  0
 24 23  1  0
 25 23  2  0
M  END
$$$$
