YML.pdb
     RDKit          3D

 29 29  0  0  1  0  0  0  0  0999 V2000
    7.1760  -23.5233   29.4453 O   0  0  0  0  0  0  0  0  0  0  0  0
    7.3408  -22.3648   28.6605 C   0  0  0  0  0  0  0  0  0  0  0  0
    6.2411  -21.7253   28.1212 C   0  0  0  0  0  0  0  0  0  0  0  0
    6.3885  -20.5781   27.3426 C   0  0  0  0  0  0  0  0  0  0  0  0
    7.6340  -20.0509   27.0896 C   0  0  0  0  0  0  0  0  0  0  0  0
    7.7410  -18.8325   26.2561 C   0  0  0  0  0  0  0  0  0  0  0  0
    7.1966  -19.0523   24.8642 C   0  0  2  0  0  0  0  0  0  0  0  0
    7.8970  -20.1913   24.3117 N   0  0  0  0  0  0  0  0  0  0  0  0
    7.3795  -17.9013   23.9837 C   0  0  0  0  0  0  0  0  0  0  0  0
    8.1710  -18.0237   22.9910 O   0  0  0  0  0  0  0  0  0  0  0  0
    8.7164  -20.7038   27.6367 C   0  0  0  0  0  0  0  0  0  0  0  0
    8.5829  -21.8398   28.4089 C   0  0  0  0  0  0  0  0  0  0  0  0
    5.4379  -12.2132   26.4609 C   0  0  0  0  0  0  0  0  0  0  0  0
    6.8656  -11.8837   25.3740 S   0  0  0  0  0  0  0  0  0  0  0  0
    6.7398  -12.9407   23.8671 C   0  0  0  0  0  0  0  0  0  0  0  0
    6.3723  -14.3306   24.2375 C   0  0  0  0  0  0  0  0  0  0  0  0
    7.3233  -15.4067   23.8418 C   0  0  2  0  0  0  0  0  0  0  0  0
    6.6947  -16.6732   24.2235 N   0  0  0  0  0  0  0  0  0  0  0  0
    8.6537  -15.3534   24.4446 C   0  0  0  0  0  0  0  0  0  0  0  0
    9.4794  -14.4927   23.9770 O   0  0  0  0  0  0  0  0  0  0  0  0
   10.9337  -13.4816   28.5300 C   0  0  0  0  0  0  0  0  0  0  0  0
   10.8047  -15.0014   28.6762 C   0  0  1  0  0  0  0  0  0  0  0  0
   10.3538  -15.2512   30.1394 C   0  0  0  0  0  0  0  0  0  0  0  0
    9.6979  -15.4472   27.7683 C   0  0  0  0  0  0  0  0  0  0  0  0
   10.1852  -15.6421   26.3804 C   0  0  2  0  0  0  0  0  0  0  0  0
    9.1463  -16.1425   25.4962 N   0  0  0  0  0  0  0  0  0  0  0  0
   11.3292  -16.5585   26.3379 C   0  0  0  0  0  0  0  0  0  0  0  0
   11.2322  -17.7150   25.5313 O   0  0  0  0  0  0  0  0  0  0  0  0
   12.3939  -16.3975   26.9642 O   0  0  0  0  0  0  0  0  0  0  0  0
  2  1  1  0
  3  2  2  0
  4  3  1  0
  5  4  2  0
  5 11  1  0
  6  5  1  0
  7  9  1  0
  7  6  1  0
  7  8  1  6
  9 10  2  0
 11 12  2  0
 12  2  1  0
 14 15  1  0
 14 13  1  0
 17 16  1  1
 16 15  1  0
 18 17  1  0
 18  9  1  0
 19 20  2  0
 19 17  1  0
 22 21  1  1
 22 24  1  0
 23 22  1  0
 25 24  1  1
 25 27  1  0
 25 26  1  0
 26 19  1  0
 27 28  1  0
 29 27  2  0
M  END
$$$$
