YML.pdb
     RDKit          3D

 29 29  0  0  1  0  0  0  0  0999 V2000
    7.9246  -21.5920   30.1539 O   0  0  0  0  0  0  0  0  0  0  0  0
    7.7382  -20.7861   29.0133 C   0  0  0  0  0  0  0  0  0  0  0  0
    6.5974  -20.9178   28.2450 C   0  0  0  0  0  0  0  0  0  0  0  0
    6.3990  -20.1272   27.1137 C   0  0  0  0  0  0  0  0  0  0  0  0
    7.3346  -19.1937   26.7309 C   0  0  0  0  0  0  0  0  0  0  0  0
    7.0812  -18.3789   25.5215 C   0  0  0  0  0  0  0  0  0  0  0  0
    7.1067  -19.2145   24.2634 C   0  0  2  0  0  0  0  0  0  0  0  0
    7.9008  -20.3889   24.5524 N   0  0  0  0  0  0  0  0  0  0  0  0
    7.6810  -18.5154   23.1167 C   0  0  0  0  0  0  0  0  0  0  0  0
    8.8577  -18.8369   22.7443 O   0  0  0  0  0  0  0  0  0  0  0  0
    8.4642  -19.0788   27.5107 C   0  0  0  0  0  0  0  0  0  0  0  0
    8.6714  -19.8556   28.6325 C   0  0  0  0  0  0  0  0  0  0  0  0
    7.3320  -11.6569   19.6341 C   0  0  0  0  0  0  0  0  0  0  0  0
    6.6086  -12.9707   20.6728 S   0  0  0  0  0  0  0  0  0  0  0  0
    7.1584  -14.6156   20.0437 C   0  0  0  0  0  0  0  0  0  0  0  0
    6.6579  -15.7014   20.9238 C   0  0  0  0  0  0  0  0  0  0  0  0
    7.6723  -16.4357   21.7306 C   0  0  2  0  0  0  0  0  0  0  0  0
    6.9503  -17.5008   22.4300 N   0  0  0  0  0  0  0  0  0  0  0  0
    8.4079  -15.6517   22.7207 C   0  0  0  0  0  0  0  0  0  0  0  0
    9.3468  -14.8922   22.2927 O   0  0  0  0  0  0  0  0  0  0  0  0
    8.2546  -11.4671   25.2688 C   0  0  0  0  0  0  0  0  0  0  0  0
    7.7005  -12.5424   26.2094 C   0  0  1  0  0  0  0  0  0  0  0  0
    6.3952  -11.9536   26.8063 C   0  0  0  0  0  0  0  0  0  0  0  0
    7.3314  -13.7274   25.3682 C   0  0  0  0  0  0  0  0  0  0  0  0
    8.5387  -14.4450   24.8893 C   0  0  2  0  0  0  0  0  0  0  0  0
    8.2058  -15.6252   24.1098 N   0  0  0  0  0  0  0  0  0  0  0  0
    9.4052  -14.8394   26.0045 C   0  0  0  0  0  0  0  0  0  0  0  0
    9.8038  -16.1922   26.0980 O   0  0  0  0  0  0  0  0  0  0  0  0
    9.8238  -14.0676   26.8883 O   0  0  0  0  0  0  0  0  0  0  0  0
  2  1  1  0
  3  2  2  0
  4  3  1  0
  5  4  2  0
  5 11  1  0
  6  5  1  0
  7  9  1  0
  7  6  1  0
  7  8  1  1
  9 10  2  0
 11 12  2  0
 12  2  1  0
 14 15  1  0
 14 13  1  0
 17 16  1  1
 16 15  1  0
 18 17  1  0
 18  9  1  0
 19 20  2  0
 19 17  1  0
 22 21  1  6
 22 24  1  0
 23 22  1  0
 25 24  1  1
 25 27  1  0
 25 26  1  0
 26 19  1  0
 27 28  1  0
 29 27  2  0
M  END
$$$$
