YML.pdb
     RDKit          3D

 29 29  0  0  1  0  0  0  0  0999 V2000
   13.6227  -17.3104   31.5567 O   0  0  0  0  0  0  0  0  0  0  0  0
   12.8255  -17.2024   30.3999 C   0  0  0  0  0  0  0  0  0  0  0  0
   13.0843  -17.9947   29.2980 C   0  0  0  0  0  0  0  0  0  0  0  0
   12.3041  -17.8991   28.1463 C   0  0  0  0  0  0  0  0  0  0  0  0
   11.2543  -17.0124   28.0755 C   0  0  0  0  0  0  0  0  0  0  0  0
   10.4554  -16.9451   26.8313 C   0  0  0  0  0  0  0  0  0  0  0  0
    9.0756  -17.5319   27.0151 C   0  0  2  0  0  0  0  0  0  0  0  0
    9.2244  -18.9710   27.0095 N   0  0  0  0  0  0  0  0  0  0  0  0
    8.1370  -17.1409   25.9665 C   0  0  0  0  0  0  0  0  0  0  0  0
    7.7383  -18.0376   25.1517 O   0  0  0  0  0  0  0  0  0  0  0  0
   11.0138  -16.2323   29.1849 C   0  0  0  0  0  0  0  0  0  0  0  0
   11.7791  -16.3182   30.3302 C   0  0  0  0  0  0  0  0  0  0  0  0
    6.5980  -10.4937   25.7805 C   0  0  0  0  0  0  0  0  0  0  0  0
    5.8645  -11.8404   26.7687 S   0  0  0  0  0  0  0  0  0  0  0  0
    6.7411  -13.4193   26.3909 C   0  0  0  0  0  0  0  0  0  0  0  0
    5.9575  -14.2294   25.4247 C   0  0  0  0  0  0  0  0  0  0  0  0
    6.5960  -15.4762   24.9176 C   0  0  2  0  0  0  0  0  0  0  0  0
    7.6768  -15.7955   25.8527 N   0  0  0  0  0  0  0  0  0  0  0  0
    7.1565  -15.4181   23.5691 C   0  0  0  0  0  0  0  0  0  0  0  0
    6.3389  -15.4992   22.5862 O   0  0  0  0  0  0  0  0  0  0  0  0
    6.5413  -13.9948   20.6524 C   0  0  0  0  0  0  0  0  0  0  0  0
    7.9489  -13.6669   20.1432 C   0  0  1  0  0  0  0  0  0  0  0  0
    7.9153  -12.1707   19.7343 C   0  0  0  0  0  0  0  0  0  0  0  0
    8.8896  -13.8090   21.3021 C   0  0  0  0  0  0  0  0  0  0  0  0
    8.9046  -15.2009   21.8161 C   0  0  2  0  0  0  0  0  0  0  0  0
    8.5069  -15.2779   23.2116 N   0  0  0  0  0  0  0  0  0  0  0  0
   10.2277  -15.8143   21.6632 C   0  0  0  0  0  0  0  0  0  0  0  0
   11.2071  -15.5498   22.6472 O   0  0  0  0  0  0  0  0  0  0  0  0
   10.5624  -16.5597   20.7228 O   0  0  0  0  0  0  0  0  0  0  0  0
  2  1  1  0
  3  2  2  0
  4  3  1  0
  5  4  2  0
  5 11  1  0
  6  5  1  0
  7  9  1  0
  7  6  1  0
  7  8  1  6
  9 10  2  0
 11 12  2  0
 12  2  1  0
 14 15  1  0
 14 13  1  0
 17 16  1  1
 16 15  1  0
 18 17  1  0
 18  9  1  0
 19 20  2  0
 19 17  1  0
 22 21  1  1
 22 24  1  0
 23 22  1  0
 25 24  1  1
 25 27  1  0
 25 26  1  0
 26 19  1  0
 27 28  1  0
 29 27  2  0
M  END
$$$$
