YML.pdb
     RDKit          3D

 29 29  0  0  1  0  0  0  0  0999 V2000
    8.5013  -23.1386   30.1536 O   0  0  0  0  0  0  0  0  0  0  0  0
    8.2795  -22.0270   29.3168 C   0  0  0  0  0  0  0  0  0  0  0  0
    7.0038  -21.7268   28.8792 C   0  0  0  0  0  0  0  0  0  0  0  0
    6.7688  -20.6301   28.0509 C   0  0  0  0  0  0  0  0  0  0  0  0
    7.8017  -19.8161   27.6461 C   0  0  0  0  0  0  0  0  0  0  0  0
    7.5040  -18.6645   26.7651 C   0  0  0  0  0  0  0  0  0  0  0  0
    7.0397  -19.1066   25.3973 C   0  0  2  0  0  0  0  0  0  0  0  0
    7.8969  -20.1998   24.9931 N   0  0  0  0  0  0  0  0  0  0  0  0
    7.1056  -18.0470   24.3941 C   0  0  0  0  0  0  0  0  0  0  0  0
    7.9466  -18.1709   23.4433 O   0  0  0  0  0  0  0  0  0  0  0  0
    9.0651  -20.1332   28.0937 C   0  0  0  0  0  0  0  0  0  0  0  0
    9.3098  -21.2160   28.9138 C   0  0  0  0  0  0  0  0  0  0  0  0
    7.2570  -11.4646   26.8650 C   0  0  0  0  0  0  0  0  0  0  0  0
    5.7523  -12.2098   26.1519 S   0  0  0  0  0  0  0  0  0  0  0  0
    6.2030  -13.1568   24.6340 C   0  0  0  0  0  0  0  0  0  0  0  0
    5.8714  -14.5941   24.8017 C   0  0  0  0  0  0  0  0  0  0  0  0
    6.7976  -15.5767   24.1726 C   0  0  2  0  0  0  0  0  0  0  0  0
    6.2558  -16.9039   24.4719 N   0  0  0  0  0  0  0  0  0  0  0  0
    8.1890  -15.5367   24.6179 C   0  0  0  0  0  0  0  0  0  0  0  0
    9.0123  -14.8464   23.9200 O   0  0  0  0  0  0  0  0  0  0  0  0
   10.7078  -13.2876   28.7721 C   0  0  0  0  0  0  0  0  0  0  0  0
   10.8900  -14.7853   28.5043 C   0  0  1  0  0  0  0  0  0  0  0  0
   10.9654  -15.4606   29.8989 C   0  0  0  0  0  0  0  0  0  0  0  0
    9.6479  -15.2730   27.8205 C   0  0  0  0  0  0  0  0  0  0  0  0
    9.9154  -15.6230   26.4034 C   0  0  2  0  0  0  0  0  0  0  0  0
    8.7444  -16.1713   25.7404 N   0  0  0  0  0  0  0  0  0  0  0  0
   11.0205  -16.5797   26.2872 C   0  0  0  0  0  0  0  0  0  0  0  0
   12.2907  -16.0934   25.9030 O   0  0  0  0  0  0  0  0  0  0  0  0
   10.9285  -17.8033   26.5025 O   0  0  0  0  0  0  0  0  0  0  0  0
  2  1  1  0
  3  2  2  0
  4  3  1  0
  5  4  2  0
  5 11  1  0
  6  5  1  0
  7  9  1  0
  7  6  1  0
  7  8  1  6
  9 10  2  0
 11 12  2  0
 12  2  1  0
 14 15  1  0
 14 13  1  0
 17 16  1  1
 16 15  1  0
 18 17  1  0
 18  9  1  0
 19 20  2  0
 19 17  1  0
 22 21  1  1
 22 24  1  0
 23 22  1  0
 25 24  1  1
 25 27  1  0
 25 26  1  0
 26 19  1  0
 27 28  1  0
 29 27  2  0
M  END
$$$$
