YML.pdb
     RDKit          3D

 29 29  0  0  1  0  0  0  0  0999 V2000
    5.7354  -23.2753   28.7380 O   0  0  0  0  0  0  0  0  0  0  0  0
    6.2228  -22.2620   27.8890 C   0  0  0  0  0  0  0  0  0  0  0  0
    7.5759  -21.9879   27.8354 C   0  0  0  0  0  0  0  0  0  0  0  0
    8.0729  -20.9882   27.0001 C   0  0  0  0  0  0  0  0  0  0  0  0
    7.2289  -20.2465   26.2058 C   0  0  0  0  0  0  0  0  0  0  0  0
    7.8023  -19.1946   25.3367 C   0  0  0  0  0  0  0  0  0  0  0  0
    7.3835  -19.3642   23.8952 C   0  0  2  0  0  0  0  0  0  0  0  0
    7.9032  -20.6394   23.4516 N   0  0  0  0  0  0  0  0  0  0  0  0
    7.8858  -18.3087   23.0194 C   0  0  0  0  0  0  0  0  0  0  0  0
    8.9723  -18.5198   22.3856 O   0  0  0  0  0  0  0  0  0  0  0  0
    5.8840  -20.5361   26.2747 C   0  0  0  0  0  0  0  0  0  0  0  0
    5.3806  -21.5232   27.0975 C   0  0  0  0  0  0  0  0  0  0  0  0
    7.7319  -12.1292   20.7535 C   0  0  0  0  0  0  0  0  0  0  0  0
    6.9037  -13.2501   19.5762 S   0  0  0  0  0  0  0  0  0  0  0  0
    7.1324  -14.9941   20.1330 C   0  0  0  0  0  0  0  0  0  0  0  0
    6.8984  -15.1070   21.5946 C   0  0  0  0  0  0  0  0  0  0  0  0
    7.8927  -15.8934   22.3770 C   0  0  2  0  0  0  0  0  0  0  0  0
    7.1846  -17.0749   22.8742 N   0  0  0  0  0  0  0  0  0  0  0  0
    8.5097  -15.2142   23.5146 C   0  0  0  0  0  0  0  0  0  0  0  0
    9.3196  -14.2547   23.2605 O   0  0  0  0  0  0  0  0  0  0  0  0
    5.7320  -13.0203   27.1307 C   0  0  0  0  0  0  0  0  0  0  0  0
    6.8205  -13.3654   26.1090 C   0  0  1  0  0  0  0  0  0  0  0  0
    7.3974  -12.0082   25.6274 C   0  0  0  0  0  0  0  0  0  0  0  0
    7.9064  -14.0966   26.8399 C   0  0  0  0  0  0  0  0  0  0  0  0
    8.9152  -14.6434   25.8991 C   0  0  2  0  0  0  0  0  0  0  0  0
    8.3171  -15.4870   24.8783 N   0  0  0  0  0  0  0  0  0  0  0  0
    9.9472  -15.4090   26.6054 C   0  0  0  0  0  0  0  0  0  0  0  0
   10.7449  -14.7376   27.5597 O   0  0  0  0  0  0  0  0  0  0  0  0
   10.1807  -16.6200   26.4295 O   0  0  0  0  0  0  0  0  0  0  0  0
  2  1  1  0
  3  2  2  0
  4  3  1  0
  5  4  2  0
  5 11  1  0
  6  5  1  0
  7  9  1  0
  7  6  1  0
  7  8  1  6
  9 10  2  0
 11 12  2  0
 12  2  1  0
 14 15  1  0
 14 13  1  0
 17 16  1  1
 16 15  1  0
 18 17  1  0
 18  9  1  0
 19 20  2  0
 19 17  1  0
 22 21  1  1
 22 24  1  0
 23 22  1  0
 25 24  1  1
 25 27  1  0
 25 26  1  0
 26 19  1  0
 27 28  1  0
 29 27  2  0
M  END
$$$$
