GRI.pdb
     RDKit          3D

 24 23  0  0  1  0  0  0  0  0999 V2000
   28.0977  -22.9504  -16.6571 N   0  0  0  0  0  0  0  0  0  0  0  0
   28.0830  -21.9259  -15.6330 C   0  0  0  0  0  0  0  0  0  0  0  0
   26.8633  -21.9795  -14.8112 C   0  0  0  0  0  0  0  0  0  0  0  0
   25.8771  -22.6489  -15.1378 O   0  0  0  0  0  0  0  0  0  0  0  0
   24.8365  -22.1884   -7.3043 N   0  0  0  0  0  0  0  0  0  0  0  0
   23.9092  -21.1413   -7.4917 C   0  0  0  0  0  0  0  0  0  0  0  0
   22.6883  -21.2913   -7.1015 N   0  0  0  0  0  0  0  0  0  0  0  0
   24.3030  -19.9242   -8.1057 N   0  0  0  0  0  0  0  0  0  0  0  0
   25.4434  -19.9309   -9.0381 C   0  0  0  0  0  0  0  0  0  0  0  0
   25.0344  -20.5826  -10.3347 C   0  0  0  0  0  0  0  0  0  0  0  0
   26.0671  -20.6436  -11.3888 C   0  0  0  0  0  0  0  0  0  0  0  0
   25.7013  -21.2712  -12.6919 C   0  0  2  0  0  0  0  0  0  0  0  0
   26.8210  -21.2324  -13.5975 N   0  0  0  0  0  0  0  0  0  0  0  0
   24.6635  -20.3427  -13.3051 C   0  0  0  0  0  0  0  0  0  0  0  0
   24.9851  -19.1586  -13.4925 O   0  0  0  0  0  0  0  0  0  0  0  0
   21.9394  -20.5906   -7.2487 C   0  0  0  0  0  0  0  0  0  0  0  0
   21.4482  -19.9010  -18.0613 C   0  0  0  0  0  0  0  0  0  0  0  0
   21.3598  -19.5299  -16.5989 C   0  0  2  0  0  0  0  0  0  0  0  0
   22.3884  -20.3433  -15.8449 C   0  0  0  0  0  0  0  0  0  0  0  0
   22.0136  -21.8038  -15.9500 C   0  0  2  0  0  0  0  0  0  0  0  0
   22.4093  -19.9856  -14.3726 N   0  0  0  0  0  0  0  0  0  0  0  0
   23.3781  -20.7986  -13.6530 C   0  0  0  0  0  0  0  0  0  0  0  0
   21.0583  -20.2263  -13.8348 O   0  0  0  0  0  0  0  0  0  0  0  0
   20.8557  -21.2341  -12.9174 O   0  0  0  0  0  0  0  0  0  0  0  0
  2  1  1  0
  2  3  1  0
  3  4  2  0
  3 13  1  0
  6  7  2  0
  6  5  1  0
  8  6  1  0
  9  8  1  0
 10  9  1  0
 11 10  1  0
 12 14  1  0
 12 11  1  1
 13 12  1  0
 14 15  2  0
 16 17  1  0
 17 18  1  0
 18 19  1  6
 20 22  1  0
 20 18  1  0
 20 21  1  1
 21 14  1  0
 22 23  1  0
 24 22  2  0
M  END
$$$$
