GRI.pdb
     RDKit          3D

 24 23  0  0  1  0  0  0  0  0999 V2000
   20.9266  -28.6184  -10.7708 N   0  0  0  0  0  0  0  0  0  0  0  0
   19.5188  -28.5111  -10.4464 C   0  0  0  0  0  0  0  0  0  0  0  0
   19.2377  -27.3672   -9.5642 C   0  0  0  0  0  0  0  0  0  0  0  0
   20.1228  -26.8075   -8.9079 O   0  0  0  0  0  0  0  0  0  0  0  0
   16.9004  -21.1445  -11.2628 N   0  0  0  0  0  0  0  0  0  0  0  0
   16.6311  -21.8403  -12.4607 C   0  0  0  0  0  0  0  0  0  0  0  0
   17.0821  -21.3836  -13.5803 N   0  0  0  0  0  0  0  0  0  0  0  0
   15.8689  -23.0371  -12.4493 N   0  0  0  0  0  0  0  0  0  0  0  0
   15.4684  -23.6165  -11.1556 C   0  0  0  0  0  0  0  0  0  0  0  0
   16.6600  -24.2681  -10.5012 C   0  0  0  0  0  0  0  0  0  0  0  0
   16.3915  -25.0243   -9.2613 C   0  0  0  0  0  0  0  0  0  0  0  0
   17.5222  -25.7723   -8.6385 C   0  0  2  0  0  0  0  0  0  0  0  0
   17.8974  -26.8909   -9.4652 N   0  0  0  0  0  0  0  0  0  0  0  0
   16.9440  -26.3905   -7.3742 C   0  0  0  0  0  0  0  0  0  0  0  0
   16.1846  -27.3640   -7.5010 O   0  0  0  0  0  0  0  0  0  0  0  0
   16.9544  -21.8535  -14.4948 C   0  0  0  0  0  0  0  0  0  0  0  0
   19.7633  -27.5211   -2.9526 C   0  0  0  0  0  0  0  0  0  0  0  0
   18.6896  -27.6012   -4.0132 C   0  0  2  0  0  0  0  0  0  0  0  0
   17.7014  -26.4828   -3.7665 C   0  0  0  0  0  0  0  0  0  0  0  0
   16.9667  -26.7697   -2.4772 C   0  0  2  0  0  0  0  0  0  0  0  0
   16.6660  -26.4027   -4.8699 N   0  0  0  0  0  0  0  0  0  0  0  0
   17.2521  -25.8850   -6.0971 C   0  0  0  0  0  0  0  0  0  0  0  0
   15.5927  -25.5027   -4.4113 O   0  0  0  0  0  0  0  0  0  0  0  0
   15.6225  -24.1692   -4.7564 O   0  0  0  0  0  0  0  0  0  0  0  0
  2  1  1  0
  2  3  1  0
  3  4  2  0
  3 13  1  0
  6  7  2  0
  6  5  1  0
  8  6  1  0
  9  8  1  0
 10  9  1  0
 11 10  1  0
 12 14  1  0
 12 11  1  6
 13 12  1  0
 14 15  2  0
 16 17  1  0
 17 18  1  0
 18 19  1  6
 20 22  1  0
 20 18  1  0
 20 21  1  6
 21 14  1  0
 22 23  1  0
 24 22  2  0
M  END
$$$$
