GRI.pdb
     RDKit          3D

 24 23  0  0  1  0  0  0  0  0999 V2000
   26.5379  -15.9445  -15.0226 N   0  0  0  0  0  0  0  0  0  0  0  0
   27.3046  -17.0642  -14.5154 C   0  0  0  0  0  0  0  0  0  0  0  0
   26.4449  -18.1879  -14.1101 C   0  0  0  0  0  0  0  0  0  0  0  0
   25.2125  -18.0993  -14.0842 O   0  0  0  0  0  0  0  0  0  0  0  0
   24.3881  -23.8514  -16.7676 N   0  0  0  0  0  0  0  0  0  0  0  0
   25.2374  -24.5976  -15.9230 C   0  0  0  0  0  0  0  0  0  0  0  0
   24.7843  -25.6498  -15.3290 N   0  0  0  0  0  0  0  0  0  0  0  0
   26.5852  -24.2041  -15.7178 N   0  0  0  0  0  0  0  0  0  0  0  0
   27.0905  -23.0022  -16.4035 C   0  0  0  0  0  0  0  0  0  0  0  0
   26.6311  -21.7684  -15.6689 C   0  0  0  0  0  0  0  0  0  0  0  0
   26.8285  -21.7688  -14.2052 C   0  0  0  0  0  0  0  0  0  0  0  0
   26.3044  -20.6082  -13.4278 C   0  0  2  0  0  0  0  0  0  0  0  0
   27.0579  -19.4194  -13.7349 N   0  0  0  0  0  0  0  0  0  0  0  0
   26.6315  -20.9202  -11.9749 C   0  0  0  0  0  0  0  0  0  0  0  0
   27.8121  -21.1759  -11.6896 O   0  0  0  0  0  0  0  0  0  0  0  0
   25.3464  -26.2512  -14.6998 C   0  0  0  0  0  0  0  0  0  0  0  0
   27.6752  -19.1616   -6.8900 C   0  0  0  0  0  0  0  0  0  0  0  0
   26.9527  -20.3560   -7.4690 C   0  0  2  0  0  0  0  0  0  0  0  0
   26.6276  -20.0527   -8.9149 C   0  0  0  0  0  0  0  0  0  0  0  0
   25.6973  -18.8623   -8.9563 C   0  0  2  0  0  0  0  0  0  0  0  0
   25.9108  -21.2113   -9.5782 N   0  0  0  0  0  0  0  0  0  0  0  0
   25.6379  -20.9221  -10.9779 C   0  0  0  0  0  0  0  0  0  0  0  0
   24.6434  -21.4250   -8.8566 O   0  0  0  0  0  0  0  0  0  0  0  0
   24.6584  -21.9767   -7.5942 O   0  0  0  0  0  0  0  0  0  0  0  0
  2  1  1  0
  2  3  1  0
  3  4  2  0
  3 13  1  0
  6  7  2  0
  6  5  1  0
  8  6  1  0
  9  8  1  0
 10  9  1  0
 11 10  1  0
 12 14  1  0
 12 11  1  6
 13 12  1  0
 14 15  2  0
 16 17  1  0
 17 18  1  0
 18 19  1  6
 20 22  1  0
 20 18  1  0
 20 21  1  1
 21 14  1  0
 22 23  1  0
 24 22  2  0
M  END
$$$$
