GRI.pdb
     RDKit          3D

 24 23  0  0  1  0  0  0  0  0999 V2000
   30.0903  -23.6666  -16.1382 N   0  0  0  0  0  0  0  0  0  0  0  0
   28.9415  -22.8504  -16.4740 C   0  0  0  0  0  0  0  0  0  0  0  0
   28.6499  -21.8481  -15.4366 C   0  0  0  0  0  0  0  0  0  0  0  0
   29.1164  -21.9261  -14.2948 O   0  0  0  0  0  0  0  0  0  0  0  0
   26.0781  -14.4876  -18.3970 N   0  0  0  0  0  0  0  0  0  0  0  0
   26.1054  -15.8606  -18.7220 C   0  0  0  0  0  0  0  0  0  0  0  0
   25.6639  -16.2549  -19.8687 N   0  0  0  0  0  0  0  0  0  0  0  0
   26.6122  -16.8144  -17.8016 N   0  0  0  0  0  0  0  0  0  0  0  0
   27.1179  -16.3505  -16.4982 C   0  0  0  0  0  0  0  0  0  0  0  0
   27.6786  -17.5183  -15.7271 C   0  0  0  0  0  0  0  0  0  0  0  0
   26.7373  -18.6170  -15.4303 C   0  0  0  0  0  0  0  0  0  0  0  0
   27.2770  -19.8433  -14.7740 C   0  0  2  0  0  0  0  0  0  0  0  0
   27.7997  -20.7510  -15.7630 N   0  0  0  0  0  0  0  0  0  0  0  0
   26.0633  -20.5506  -14.1894 C   0  0  0  0  0  0  0  0  0  0  0  0
   25.6485  -21.5652  -14.7717 O   0  0  0  0  0  0  0  0  0  0  0  0
   25.6868  -17.2380  -20.1950 C   0  0  0  0  0  0  0  0  0  0  0  0
   25.9733  -21.8949   -8.5141 C   0  0  0  0  0  0  0  0  0  0  0  0
   25.0485  -21.8721   -9.7092 C   0  0  2  0  0  0  0  0  0  0  0  0
   25.6797  -21.0041  -10.7752 C   0  0  0  0  0  0  0  0  0  0  0  0
   25.7783  -19.5920  -10.2454 C   0  0  2  0  0  0  0  0  0  0  0  0
   24.8312  -20.9593  -12.0298 N   0  0  0  0  0  0  0  0  0  0  0  0
   25.4230  -20.0805  -13.0274 C   0  0  0  0  0  0  0  0  0  0  0  0
   23.4984  -20.4573  -11.6504 O   0  0  0  0  0  0  0  0  0  0  0  0
   23.0804  -19.2212  -12.0926 O   0  0  0  0  0  0  0  0  0  0  0  0
  2  1  1  0
  2  3  1  0
  3  4  2  0
  3 13  1  0
  6  7  2  0
  6  5  1  0
  8  6  1  0
  9  8  1  0
 10  9  1  0
 11 10  1  0
 12 14  1  0
 12 11  1  6
 13 12  1  0
 14 15  2  0
 16 17  1  0
 17 18  1  0
 18 19  1  6
 20 22  1  0
 20 18  1  0
 20 21  1  1
 21 14  1  0
 22 23  1  0
 24 22  2  0
M  END
$$$$
