GRI.pdb
     RDKit          3D

 24 23  0  0  1  0  0  0  0  0999 V2000
   28.7624  -21.6738  -14.4581 N   0  0  0  0  0  0  0  0  0  0  0  0
   27.6216  -22.0811  -13.6635 C   0  0  0  0  0  0  0  0  0  0  0  0
   27.3129  -21.1137  -12.5982 C   0  0  0  0  0  0  0  0  0  0  0  0
   28.0459  -20.1501  -12.3499 O   0  0  0  0  0  0  0  0  0  0  0  0
   21.4332  -21.1547  -14.1454 N   0  0  0  0  0  0  0  0  0  0  0  0
   21.0945  -21.6661  -12.8744 C   0  0  0  0  0  0  0  0  0  0  0  0
   20.5150  -22.8154  -12.7816 N   0  0  0  0  0  0  0  0  0  0  0  0
   21.3829  -20.9306  -11.6957 N   0  0  0  0  0  0  0  0  0  0  0  0
   21.9877  -19.5930  -11.8185 C   0  0  0  0  0  0  0  0  0  0  0  0
   23.4839  -19.7231  -11.9501 C   0  0  0  0  0  0  0  0  0  0  0  0
   24.1925  -20.3073  -10.7934 C   0  0  0  0  0  0  0  0  0  0  0  0
   25.6832  -20.3523  -10.8354 C   0  0  2  0  0  0  0  0  0  0  0  0
   26.1272  -21.2974  -11.8279 N   0  0  0  0  0  0  0  0  0  0  0  0
   26.1024  -20.9524   -9.5015 C   0  0  0  0  0  0  0  0  0  0  0  0
   25.9016  -22.1643   -9.3234 O   0  0  0  0  0  0  0  0  0  0  0  0
   20.2890  -23.2831  -11.8852 C   0  0  0  0  0  0  0  0  0  0  0  0
   29.6663  -19.4744   -4.6641 C   0  0  0  0  0  0  0  0  0  0  0  0
   28.6158  -20.3996   -5.2336 C   0  0  2  0  0  0  0  0  0  0  0  0
   28.1569  -19.8307   -6.5579 C   0  0  0  0  0  0  0  0  0  0  0  0
   27.5367  -18.4754   -6.3070 C   0  0  2  0  0  0  0  0  0  0  0  0
   27.0967  -20.7025   -7.1998 N   0  0  0  0  0  0  0  0  0  0  0  0
   26.6992  -20.1706   -8.4946 C   0  0  0  0  0  0  0  0  0  0  0  0
   25.9341  -20.7323   -6.2944 O   0  0  0  0  0  0  0  0  0  0  0  0
   26.0219  -21.3925   -5.0882 O   0  0  0  0  0  0  0  0  0  0  0  0
  2  1  1  0
  2  3  1  0
  3  4  2  0
  3 13  1  0
  6  7  2  0
  6  5  1  0
  8  6  1  0
  9  8  1  0
 10  9  1  0
 11 10  1  0
 12 14  1  0
 12 11  1  1
 13 12  1  0
 14 15  2  0
 16 17  1  0
 17 18  1  0
 18 19  1  6
 20 22  1  0
 20 18  1  0
 20 21  1  1
 21 14  1  0
 22 23  1  0
 24 22  2  0
M  END
$$$$
