GRI.pdb
     RDKit          3D

 24 23  0  0  1  0  0  0  0  0999 V2000
   29.0097  -17.7602  -16.2934 N   0  0  0  0  0  0  0  0  0  0  0  0
   28.3693  -19.0227  -15.9858 C   0  0  0  0  0  0  0  0  0  0  0  0
   27.3025  -18.8746  -14.9828 C   0  0  0  0  0  0  0  0  0  0  0  0
   26.7849  -17.7818  -14.7272 O   0  0  0  0  0  0  0  0  0  0  0  0
   21.0996  -22.8637  -11.9374 N   0  0  0  0  0  0  0  0  0  0  0  0
   20.3940  -21.8044  -12.5469 C   0  0  0  0  0  0  0  0  0  0  0  0
   19.3207  -21.3494  -11.9934 N   0  0  0  0  0  0  0  0  0  0  0  0
   20.8504  -21.2331  -13.7630 N   0  0  0  0  0  0  0  0  0  0  0  0
   22.1886  -21.5923  -14.2628 C   0  0  0  0  0  0  0  0  0  0  0  0
   23.2270  -20.7206  -13.6034 C   0  0  0  0  0  0  0  0  0  0  0  0
   24.6185  -20.9002  -14.0647 C   0  0  0  0  0  0  0  0  0  0  0  0
   25.6747  -20.0407  -13.4552 C   0  0  2  0  0  0  0  0  0  0  0  0
   26.8532  -20.0333  -14.2838 N   0  0  0  0  0  0  0  0  0  0  0  0
   26.0906  -20.7616  -12.1815 C   0  0  0  0  0  0  0  0  0  0  0  0
   26.6228  -21.8772  -12.2953 O   0  0  0  0  0  0  0  0  0  0  0  0
   18.7167  -20.6169  -12.4084 C   0  0  0  0  0  0  0  0  0  0  0  0
   28.2756  -19.5994   -6.6808 C   0  0  0  0  0  0  0  0  0  0  0  0
   27.4901  -20.5964   -7.5010 C   0  0  2  0  0  0  0  0  0  0  0  0
   27.1051  -19.9326   -8.8046 C   0  0  0  0  0  0  0  0  0  0  0  0
   26.2659  -18.7152   -8.4917 C   0  0  2  0  0  0  0  0  0  0  0  0
   26.2660  -20.8514   -9.6695 N   0  0  0  0  0  0  0  0  0  0  0  0
   25.8845  -20.1936  -10.9102 C   0  0  0  0  0  0  0  0  0  0  0  0
   25.0592  -21.2085   -8.9025 O   0  0  0  0  0  0  0  0  0  0  0  0
   23.8404  -20.6698   -9.2528 O   0  0  0  0  0  0  0  0  0  0  0  0
  2  1  1  0
  2  3  1  0
  3  4  2  0
  3 13  1  0
  6  7  2  0
  6  5  1  0
  8  6  1  0
  9  8  1  0
 10  9  1  0
 11 10  1  0
 12 14  1  0
 12 11  1  6
 13 12  1  0
 14 15  2  0
 16 17  1  0
 17 18  1  0
 18 19  1  6
 20 22  1  0
 20 18  1  0
 20 21  1  1
 21 14  1  0
 22 23  1  0
 24 22  2  0
M  END
$$$$
