GRI.pdb
     RDKit          3D

 24 23  0  0  1  0  0  0  0  0999 V2000
   26.7032  -16.5128  -15.6937 N   0  0  0  0  0  0  0  0  0  0  0  0
   27.3719  -17.5110  -14.8843 C   0  0  0  0  0  0  0  0  0  0  0  0
   26.4304  -18.4939  -14.3245 C   0  0  0  0  0  0  0  0  0  0  0  0
   25.2826  -18.1875  -13.9836 O   0  0  0  0  0  0  0  0  0  0  0  0
   22.5465  -23.3649  -16.0092 N   0  0  0  0  0  0  0  0  0  0  0  0
   22.4580  -24.2167  -14.8876 C   0  0  0  0  0  0  0  0  0  0  0  0
   21.3009  -24.6119  -14.4749 N   0  0  0  0  0  0  0  0  0  0  0  0
   23.6272  -24.6439  -14.2065 N   0  0  0  0  0  0  0  0  0  0  0  0
   24.9426  -24.1978  -14.6969 C   0  0  0  0  0  0  0  0  0  0  0  0
   25.6264  -23.3732  -13.6361 C   0  0  0  0  0  0  0  0  0  0  0  0
   26.3959  -22.2057  -14.1119 C   0  0  0  0  0  0  0  0  0  0  0  0
   26.0416  -20.8635  -13.5651 C   0  0  2  0  0  0  0  0  0  0  0  0
   26.8602  -19.8447  -14.1712 N   0  0  0  0  0  0  0  0  0  0  0  0
   26.4709  -20.9006  -12.1059 C   0  0  0  0  0  0  0  0  0  0  0  0
   27.5972  -21.3525  -11.8453 O   0  0  0  0  0  0  0  0  0  0  0  0
   21.1576  -25.2951  -13.7092 C   0  0  0  0  0  0  0  0  0  0  0  0
   27.2194  -17.8873   -8.1017 C   0  0  0  0  0  0  0  0  0  0  0  0
   27.1841  -19.1117   -8.9870 C   0  0  2  0  0  0  0  0  0  0  0  0
   25.8924  -19.8506   -8.7154 C   0  0  0  0  0  0  0  0  0  0  0  0
   25.9841  -20.4868   -7.3474 C   0  0  2  0  0  0  0  0  0  0  0  0
   25.6673  -20.9635   -9.7187 N   0  0  0  0  0  0  0  0  0  0  0  0
   25.6287  -20.4408  -11.0761 C   0  0  0  0  0  0  0  0  0  0  0  0
   24.3803  -21.6045   -9.3940 O   0  0  0  0  0  0  0  0  0  0  0  0
   23.2892  -21.4028  -10.2107 O   0  0  0  0  0  0  0  0  0  0  0  0
  2  1  1  0
  2  3  1  0
  3  4  2  0
  3 13  1  0
  6  7  2  0
  6  5  1  0
  8  6  1  0
  9  8  1  0
 10  9  1  0
 11 10  1  0
 12 14  1  0
 12 11  1  6
 13 12  1  0
 14 15  2  0
 16 17  1  0
 17 18  1  0
 18 19  1  6
 20 22  1  0
 20 18  1  0
 20 21  1  6
 21 14  1  0
 22 23  1  0
 24 22  2  0
M  END
$$$$
