GRI.pdb
     RDKit          3D

 24 23  0  0  1  0  0  0  0  0999 V2000
   29.7375  -23.8360  -16.4522 N   0  0  0  0  0  0  0  0  0  0  0  0
   28.5362  -23.0354  -16.5732 C   0  0  0  0  0  0  0  0  0  0  0  0
   28.4400  -22.0150  -15.5170 C   0  0  0  0  0  0  0  0  0  0  0  0
   29.2539  -21.9475  -14.5894 O   0  0  0  0  0  0  0  0  0  0  0  0
   26.0991  -16.2034  -18.2851 N   0  0  0  0  0  0  0  0  0  0  0  0
   25.1388  -15.9241  -17.2895 C   0  0  0  0  0  0  0  0  0  0  0  0
   23.9639  -15.5143  -17.6318 N   0  0  0  0  0  0  0  0  0  0  0  0
   25.4499  -16.0875  -15.9147 N   0  0  0  0  0  0  0  0  0  0  0  0
   26.8199  -16.4715  -15.5332 C   0  0  0  0  0  0  0  0  0  0  0  0
   27.0711  -17.9064  -15.9216 C   0  0  0  0  0  0  0  0  0  0  0  0
   26.3677  -18.9313  -15.1240 C   0  0  0  0  0  0  0  0  0  0  0  0
   27.1713  -20.0580  -14.5666 C   0  0  2  0  0  0  0  0  0  0  0  0
   27.3701  -21.0739  -15.5684 N   0  0  0  0  0  0  0  0  0  0  0  0
   26.2784  -20.7050  -13.5181 C   0  0  0  0  0  0  0  0  0  0  0  0
   25.3540  -21.4324  -13.9143 O   0  0  0  0  0  0  0  0  0  0  0  0
   23.2086  -15.2848  -16.9607 C   0  0  0  0  0  0  0  0  0  0  0  0
   25.9860  -21.1057   -7.3108 C   0  0  0  0  0  0  0  0  0  0  0  0
   25.3609  -21.4360   -8.6465 C   0  0  2  0  0  0  0  0  0  0  0  0
   26.2328  -20.8449   -9.7321 C   0  0  0  0  0  0  0  0  0  0  0  0
   26.2989  -19.3484   -9.5304 C   0  0  2  0  0  0  0  0  0  0  0  0
   25.6499  -21.0914  -11.1089 N   0  0  0  0  0  0  0  0  0  0  0  0
   26.4831  -20.4941  -12.1416 C   0  0  0  0  0  0  0  0  0  0  0  0
   24.3061  -20.4866  -11.1402 O   0  0  0  0  0  0  0  0  0  0  0  0
   23.2221  -21.2017  -10.6801 O   0  0  0  0  0  0  0  0  0  0  0  0
  2  1  1  0
  2  3  1  0
  3  4  2  0
  3 13  1  0
  6  7  2  0
  6  5  1  0
  8  6  1  0
  9  8  1  0
 10  9  1  0
 11 10  1  0
 12 14  1  0
 12 11  1  6
 13 12  1  0
 14 15  2  0
 16 17  1  0
 17 18  1  0
 18 19  1  6
 20 22  1  0
 20 18  1  0
 20 21  1  6
 21 14  1  0
 22 23  1  0
 24 22  2  0
M  END
$$$$
