GRI.pdb
     RDKit          3D

 24 23  0  0  1  0  0  0  0  0999 V2000
   25.0115  -20.7645  -20.1429 N   0  0  0  0  0  0  0  0  0  0  0  0
   24.5444  -19.9206  -19.0620 C   0  0  0  0  0  0  0  0  0  0  0  0
   24.0193  -20.7044  -17.9325 C   0  0  0  0  0  0  0  0  0  0  0  0
   23.4034  -21.7636  -18.0946 O   0  0  0  0  0  0  0  0  0  0  0  0
   26.4603  -21.1729   -9.8885 N   0  0  0  0  0  0  0  0  0  0  0  0
   25.0978  -21.0413  -10.2321 C   0  0  0  0  0  0  0  0  0  0  0  0
   24.2348  -20.7423   -9.3204 N   0  0  0  0  0  0  0  0  0  0  0  0
   24.6645  -21.2351  -11.5693 N   0  0  0  0  0  0  0  0  0  0  0  0
   25.6185  -21.7630  -12.5598 C   0  0  0  0  0  0  0  0  0  0  0  0
   25.6372  -20.8680  -13.7729 C   0  0  0  0  0  0  0  0  0  0  0  0
   24.3328  -20.3262  -14.2045 C   0  0  0  0  0  0  0  0  0  0  0  0
   23.7142  -20.8905  -15.4394 C   0  0  2  0  0  0  0  0  0  0  0  0
   24.2298  -20.2226  -16.6071 N   0  0  0  0  0  0  0  0  0  0  0  0
   22.2477  -20.4913  -15.3698 C   0  0  0  0  0  0  0  0  0  0  0  0
   21.9740  -19.2818  -15.4227 O   0  0  0  0  0  0  0  0  0  0  0  0
   23.2168  -20.6501   -9.4898 C   0  0  0  0  0  0  0  0  0  0  0  0
   16.8247  -22.4630  -17.1397 C   0  0  0  0  0  0  0  0  0  0  0  0
   17.5319  -21.6684  -16.0662 C   0  0  2  0  0  0  0  0  0  0  0  0
   19.0136  -21.9555  -16.1685 C   0  0  0  0  0  0  0  0  0  0  0  0
   19.2460  -23.4044  -15.8062 C   0  0  2  0  0  0  0  0  0  0  0  0
   19.8117  -21.1114  -15.1956 N   0  0  0  0  0  0  0  0  0  0  0  0
   21.2255  -21.4515  -15.2496 C   0  0  0  0  0  0  0  0  0  0  0  0
   19.2871  -21.3718  -13.8431 O   0  0  0  0  0  0  0  0  0  0  0  0
   18.0447  -20.8949  -13.4865 O   0  0  0  0  0  0  0  0  0  0  0  0
  2  1  1  0
  2  3  1  0
  3  4  2  0
  3 13  1  0
  6  7  2  0
  6  5  1  0
  8  6  1  0
  9  8  1  0
 10  9  1  0
 11 10  1  0
 12 14  1  0
 12 11  1  1
 13 12  1  0
 14 15  2  0
 16 17  1  0
 17 18  1  0
 18 19  1  6
 20 22  1  0
 20 18  1  0
 20 21  1  1
 21 14  1  0
 22 23  1  0
 24 22  2  0
M  END
$$$$
