GRI.pdb
     RDKit          3D

 24 23  0  0  1  0  0  0  0  0999 V2000
   21.2791  -14.7834  -16.3118 N   0  0  0  0  0  0  0  0  0  0  0  0
   22.3393  -15.7527  -16.4997 C   0  0  0  0  0  0  0  0  0  0  0  0
   22.3028  -16.8191  -15.4861 C   0  0  0  0  0  0  0  0  0  0  0  0
   22.1605  -16.5798  -14.2820 O   0  0  0  0  0  0  0  0  0  0  0  0
   18.4701  -22.5396  -13.9370 N   0  0  0  0  0  0  0  0  0  0  0  0
   19.2585  -23.7073  -13.8573 C   0  0  0  0  0  0  0  0  0  0  0  0
   18.9314  -24.6442  -13.0323 N   0  0  0  0  0  0  0  0  0  0  0  0
   20.4086  -23.8638  -14.6736 N   0  0  0  0  0  0  0  0  0  0  0  0
   20.7584  -22.7965  -15.6267 C   0  0  0  0  0  0  0  0  0  0  0  0
   21.3136  -21.6109  -14.8791 C   0  0  0  0  0  0  0  0  0  0  0  0
   21.7889  -20.4826  -15.7052 C   0  0  0  0  0  0  0  0  0  0  0  0
   22.3516  -19.2910  -15.0057 C   0  0  2  0  0  0  0  0  0  0  0  0
   22.4368  -18.1736  -15.9110 N   0  0  0  0  0  0  0  0  0  0  0  0
   23.7946  -19.6570  -14.6913 C   0  0  0  0  0  0  0  0  0  0  0  0
   24.6547  -19.4111  -15.5518 O   0  0  0  0  0  0  0  0  0  0  0  0
   19.4979  -25.4951  -12.8628 C   0  0  0  0  0  0  0  0  0  0  0  0
   25.2669  -20.1188   -9.3206 C   0  0  0  0  0  0  0  0  0  0  0  0
   25.2456  -19.6823  -10.7673 C   0  0  2  0  0  0  0  0  0  0  0  0
   25.6395  -20.8671  -11.6213 C   0  0  0  0  0  0  0  0  0  0  0  0
   27.0851  -21.2031  -11.3353 C   0  0  2  0  0  0  0  0  0  0  0  0
   25.5321  -20.5476  -13.0986 N   0  0  0  0  0  0  0  0  0  0  0  0
   24.1558  -20.2545  -13.4691 C   0  0  0  0  0  0  0  0  0  0  0  0
   26.0105  -21.7242  -13.8464 O   0  0  0  0  0  0  0  0  0  0  0  0
   27.3053  -21.7575  -14.3161 O   0  0  0  0  0  0  0  0  0  0  0  0
  2  1  1  0
  2  3  1  0
  3  4  2  0
  3 13  1  0
  6  7  2  0
  6  5  1  0
  8  6  1  0
  9  8  1  0
 10  9  1  0
 11 10  1  0
 12 14  1  0
 12 11  1  6
 13 12  1  0
 14 15  2  0
 16 17  1  0
 17 18  1  0
 18 19  1  6
 20 22  1  0
 20 18  1  0
 20 21  1  6
 21 14  1  0
 22 23  1  0
 24 22  2  0
M  END
$$$$
