WQK.pdb
     RDKit          3D

 33 34  0  0  1  0  0  0  0  0999 V2000
    6.3128  -17.6608   24.4348 N   0  0  0  0  0  0  0  0  0  0  0  0
    7.1217  -16.5821   23.9206 C   0  0  1  0  0  0  0  0  0  0  0  0
    8.0518  -16.0374   24.9747 C   0  0  0  0  0  0  0  0  0  0  0  0
    7.3053  -15.1777   25.9254 C   0  0  0  0  0  0  0  0  0  0  0  0
    6.5704  -15.5406   27.0333 C   0  0  0  0  0  0  0  0  0  0  0  0
    6.0745  -14.4332   27.5913 N   0  0  0  0  0  0  0  0  0  0  0  0
    6.4477  -13.3413   26.9011 C   0  0  0  0  0  0  0  0  0  0  0  0
    6.1987  -11.9825   27.0699 C   0  0  0  0  0  0  0  0  0  0  0  0
    6.7240  -11.0586   26.1857 C   0  0  0  0  0  0  0  0  0  0  0  0
    7.4979  -11.5025   25.1349 C   0  0  0  0  0  0  0  0  0  0  0  0
    7.7401  -12.8499   24.9741 C   0  0  0  0  0  0  0  0  0  0  0  0
    7.2253  -13.8015   25.8469 C   0  0  0  0  0  0  0  0  0  0  0  0
    7.8764  -17.0887   22.7323 C   0  0  0  0  0  0  0  0  0  0  0  0
    8.2622  -18.2751   22.7796 O   0  0  0  0  0  0  0  0  0  0  0  0
    7.1985  -12.7173   18.1653 N   0  0  0  0  0  0  0  0  0  0  0  0
    8.3968  -13.4790   18.2698 C   0  0  0  0  0  0  0  0  0  0  0  0
    9.1461  -13.5354   17.2677 O   0  0  0  0  0  0  0  0  0  0  0  0
    8.7477  -14.1893   19.5384 C   0  0  0  0  0  0  0  0  0  0  0  0
    8.5480  -15.6474   19.3095 C   0  0  0  0  0  0  0  0  0  0  0  0
    8.9982  -16.5106   20.5027 C   0  0  2  0  0  0  0  0  0  0  0  0
    8.1533  -16.3053   21.6126 N   0  0  0  0  0  0  0  0  0  0  0  0
   10.4398  -16.4093   20.7350 C   0  0  0  0  0  0  0  0  0  0  0  0
   10.9844  -15.4258   21.3215 O   0  0  0  0  0  0  0  0  0  0  0  0
   11.2952  -17.4462   20.2949 N   0  0  0  0  0  0  0  0  0  0  0  0
   12.7397  -17.1574   20.1082 C   0  0  1  0  0  0  0  0  0  0  0  0
   12.9217  -16.0933   19.0982 C   0  0  0  0  0  0  0  0  0  0  0  0
   14.2693  -15.5590   18.8553 C   0  0  0  0  0  0  0  0  0  0  0  0
   14.4544  -14.4953   17.8487 C   0  0  0  0  0  0  0  0  0  0  0  0
   15.8224  -13.9111   17.7335 C   0  0  0  0  0  0  0  0  0  0  0  0
   16.0469  -12.8957   16.7846 N   0  0  0  0  0  0  0  0  0  0  0  0
   13.3056  -16.9247   21.4130 C   0  0  0  0  0  0  0  0  0  0  0  0
   12.7773  -17.4349   22.4448 O   0  0  0  0  0  0  0  0  0  0  0  0
   14.4294  -16.1603   21.6239 O   0  0  0  0  0  0  0  0  0  0  0  0
  2  1  1  1
  3  2  1  0
  4  3  1  0
  4  5  2  0
  6  5  1  0
  7  6  1  0
  8  7  2  0
  9  8  1  0
 10  9  2  0
 10 11  1  0
 11 12  2  0
 12  7  1  0
 12  4  1  0
 13  2  1  0
 13 14  2  0
 15 16  1  0
 16 17  2  0
 18 19  1  0
 18 16  1  0
 20 19  1  6
 20 21  1  0
 21 13  1  0
 22 23  2  0
 22 20  1  0
 24 22  1  0
 25 26  1  6
 25 24  1  0
 26 27  1  0
 27 28  1  0
 28 29  1  0
 29 30  1  0
 31 33  1  0
 31 25  1  0
 32 31  2  0
M  END
$$$$
