WQK.pdb
     RDKit          3D

 33 34  0  0  1  0  0  0  0  0999 V2000
    6.2400  -17.2618   23.8302 N   0  0  0  0  0  0  0  0  0  0  0  0
    7.1597  -16.2335   23.4069 C   0  0  1  0  0  0  0  0  0  0  0  0
    7.9910  -15.7272   24.5583 C   0  0  0  0  0  0  0  0  0  0  0  0
    7.1505  -14.9396   25.4929 C   0  0  0  0  0  0  0  0  0  0  0  0
    6.2888  -15.3838   26.4724 C   0  0  0  0  0  0  0  0  0  0  0  0
    5.7454  -14.3200   27.0695 N   0  0  0  0  0  0  0  0  0  0  0  0
    6.2086  -13.1792   26.5291 C   0  0  0  0  0  0  0  0  0  0  0  0
    5.9582  -11.8358   26.7922 C   0  0  0  0  0  0  0  0  0  0  0  0
    6.5928  -10.8484   26.0617 C   0  0  0  0  0  0  0  0  0  0  0  0
    7.4769  -11.2136   25.0692 C   0  0  0  0  0  0  0  0  0  0  0  0
    7.7199  -12.5463   24.8142 C   0  0  0  0  0  0  0  0  0  0  0  0
    7.0967  -13.5605   25.5322 C   0  0  0  0  0  0  0  0  0  0  0  0
    8.0170  -16.7928   22.3159 C   0  0  0  0  0  0  0  0  0  0  0  0
    8.4002  -17.9728   22.4557 O   0  0  0  0  0  0  0  0  0  0  0  0
    8.4742  -12.5875   18.1848 N   0  0  0  0  0  0  0  0  0  0  0  0
    8.0430  -13.9111   17.8862 C   0  0  0  0  0  0  0  0  0  0  0  0
    6.9046  -14.0589   17.3850 O   0  0  0  0  0  0  0  0  0  0  0  0
    8.9241  -15.0873   18.1637 C   0  0  0  0  0  0  0  0  0  0  0  0
    9.5991  -14.8477   19.4696 C   0  0  0  0  0  0  0  0  0  0  0  0
    9.5594  -16.0734   20.4010 C   0  0  2  0  0  0  0  0  0  0  0  0
    8.3892  -16.0636   21.1872 N   0  0  0  0  0  0  0  0  0  0  0  0
   10.8305  -16.2673   21.1005 C   0  0  0  0  0  0  0  0  0  0  0  0
   11.1281  -15.6775   22.1828 O   0  0  0  0  0  0  0  0  0  0  0  0
   11.7963  -17.1521   20.5668 N   0  0  0  0  0  0  0  0  0  0  0  0
   13.0154  -17.4509   21.3603 C   0  0  1  0  0  0  0  0  0  0  0  0
   13.0784  -18.8936   21.6766 C   0  0  0  0  0  0  0  0  0  0  0  0
   14.3179  -19.4509   22.2364 C   0  0  0  0  0  0  0  0  0  0  0  0
   14.3714  -20.8830   22.5898 C   0  0  0  0  0  0  0  0  0  0  0  0
   15.6541  -21.3854   23.1630 C   0  0  0  0  0  0  0  0  0  0  0  0
   15.7188  -22.7181   23.6115 N   0  0  0  0  0  0  0  0  0  0  0  0
   14.1384  -16.8858   20.6556 C   0  0  0  0  0  0  0  0  0  0  0  0
   15.1106  -16.3815   21.2916 O   0  0  0  0  0  0  0  0  0  0  0  0
   14.2345  -16.8605   19.2838 O   0  0  0  0  0  0  0  0  0  0  0  0
  2  1  1  1
  3  2  1  0
  4  3  1  0
  4  5  2  0
  6  5  1  0
  7  6  1  0
  8  7  2  0
  9  8  1  0
 10  9  2  0
 10 11  1  0
 11 12  2  0
 12  7  1  0
 12  4  1  0
 13  2  1  0
 13 14  2  0
 15 16  1  0
 16 17  2  0
 18 19  1  0
 18 16  1  0
 20 19  1  1
 20 21  1  0
 21 13  1  0
 22 23  2  0
 22 20  1  0
 24 22  1  0
 25 26  1  6
 25 24  1  0
 26 27  1  0
 27 28  1  0
 28 29  1  0
 29 30  1  0
 31 33  1  0
 31 25  1  0
 32 31  2  0
M  END
$$$$
