WQK.pdb
     RDKit          3D

 33 34  0  0  1  0  0  0  0  0999 V2000
    6.0085  -17.0404   24.1198 N   0  0  0  0  0  0  0  0  0  0  0  0
    6.7864  -15.9533   23.5764 C   0  0  1  0  0  0  0  0  0  0  0  0
    7.7030  -15.3566   24.6141 C   0  0  0  0  0  0  0  0  0  0  0  0
    6.9218  -14.5693   25.5992 C   0  0  0  0  0  0  0  0  0  0  0  0
    6.0978  -15.0138   26.6104 C   0  0  0  0  0  0  0  0  0  0  0  0
    5.6032  -13.9503   27.2490 N   0  0  0  0  0  0  0  0  0  0  0  0
    6.0630  -12.8094   26.7059 C   0  0  0  0  0  0  0  0  0  0  0  0
    5.8511  -11.4661   27.0018 C   0  0  0  0  0  0  0  0  0  0  0  0
    6.4704  -10.4786   26.2585 C   0  0  0  0  0  0  0  0  0  0  0  0
    7.3005  -10.8434   25.2204 C   0  0  0  0  0  0  0  0  0  0  0  0
    7.5056  -12.1759   24.9331 C   0  0  0  0  0  0  0  0  0  0  0  0
    6.8966  -13.1903   25.6630 C   0  0  0  0  0  0  0  0  0  0  0  0
    7.5528  -16.4689   22.3995 C   0  0  0  0  0  0  0  0  0  0  0  0
    7.9102  -17.6643   22.4456 O   0  0  0  0  0  0  0  0  0  0  0  0
    9.2355  -14.2648   17.1157 N   0  0  0  0  0  0  0  0  0  0  0  0
    7.9397  -14.0404   17.6610 C   0  0  0  0  0  0  0  0  0  0  0  0
    6.9749  -13.9553   16.8667 O   0  0  0  0  0  0  0  0  0  0  0  0
    7.7392  -13.9104   19.1374 C   0  0  0  0  0  0  0  0  0  0  0  0
    9.0480  -14.1780   19.7960 C   0  0  0  0  0  0  0  0  0  0  0  0
    9.0698  -15.5079   20.5724 C   0  0  2  0  0  0  0  0  0  0  0  0
    7.8700  -15.6843   21.2914 N   0  0  0  0  0  0  0  0  0  0  0  0
   10.3212  -15.6873   21.3101 C   0  0  0  0  0  0  0  0  0  0  0  0
   10.6637  -14.9594   22.2902 O   0  0  0  0  0  0  0  0  0  0  0  0
   11.2146  -16.7175   20.9346 N   0  0  0  0  0  0  0  0  0  0  0  0
   12.4890  -16.8728   21.6807 C   0  0  1  0  0  0  0  0  0  0  0  0
   12.7104  -18.2935   22.0240 C   0  0  0  0  0  0  0  0  0  0  0  0
   11.7761  -18.9634   22.9398 C   0  0  0  0  0  0  0  0  0  0  0  0
   11.9839  -20.3868   23.2706 C   0  0  0  0  0  0  0  0  0  0  0  0
   10.9795  -21.0193   24.1747 C   0  0  0  0  0  0  0  0  0  0  0  0
   11.0562  -22.4056   24.4068 N   0  0  0  0  0  0  0  0  0  0  0  0
   13.5194  -16.2160   20.9166 C   0  0  0  0  0  0  0  0  0  0  0  0
   13.3322  -15.9263   19.6979 O   0  0  0  0  0  0  0  0  0  0  0  0
   14.7402  -15.8620   21.4420 O   0  0  0  0  0  0  0  0  0  0  0  0
  2  1  1  1
  3  2  1  0
  4  3  1  0
  4  5  2  0
  6  5  1  0
  7  6  1  0
  8  7  2  0
  9  8  1  0
 10  9  2  0
 10 11  1  0
 11 12  2  0
 12  7  1  0
 12  4  1  0
 13  2  1  0
 13 14  2  0
 15 16  1  0
 16 17  2  0
 18 19  1  0
 18 16  1  0
 20 19  1  1
 20 21  1  0
 21 13  1  0
 22 23  2  0
 22 20  1  0
 24 22  1  0
 25 26  1  6
 25 24  1  0
 26 27  1  0
 27 28  1  0
 28 29  1  0
 29 30  1  0
 31 33  1  0
 31 25  1  0
 32 31  2  0
M  END
$$$$
