WQK.pdb
     RDKit          3D

 33 34  0  0  1  0  0  0  0  0999 V2000
    5.9873  -17.0896   23.8339 N   0  0  0  0  0  0  0  0  0  0  0  0
    7.0402  -16.1033   23.8080 C   0  0  1  0  0  0  0  0  0  0  0  0
    7.6028  -15.8588   25.1852 C   0  0  0  0  0  0  0  0  0  0  0  0
    6.7691  -14.8720   25.9142 C   0  0  0  0  0  0  0  0  0  0  0  0
    5.8563  -15.0827   26.9249 C   0  0  0  0  0  0  0  0  0  0  0  0
    5.3429  -13.9026   27.2817 N   0  0  0  0  0  0  0  0  0  0  0  0
    5.8753  -12.9081   26.5500 C   0  0  0  0  0  0  0  0  0  0  0  0
    5.6783  -11.5305   26.5373 C   0  0  0  0  0  0  0  0  0  0  0  0
    6.3811  -10.7301   25.6561 C   0  0  0  0  0  0  0  0  0  0  0  0
    7.2797  -11.3160   24.7904 C   0  0  0  0  0  0  0  0  0  0  0  0
    7.4695  -12.6811   24.8086 C   0  0  0  0  0  0  0  0  0  0  0  0
    6.7772  -13.5107   25.6833 C   0  0  0  0  0  0  0  0  0  0  0  0
    8.0976  -16.5724   22.8592 C   0  0  0  0  0  0  0  0  0  0  0  0
    8.6561  -17.6542   23.1355 O   0  0  0  0  0  0  0  0  0  0  0  0
    8.9773  -12.6772   18.3486 N   0  0  0  0  0  0  0  0  0  0  0  0
    8.1311  -13.7984   18.1171 C   0  0  0  0  0  0  0  0  0  0  0  0
    7.1869  -13.6639   17.3051 O   0  0  0  0  0  0  0  0  0  0  0  0
    8.3645  -15.0961   18.8231 C   0  0  0  0  0  0  0  0  0  0  0  0
    9.5162  -14.9061   19.7482 C   0  0  0  0  0  0  0  0  0  0  0  0
    9.5793  -15.9728   20.8571 C   0  0  2  0  0  0  0  0  0  0  0  0
    8.4666  -15.8644   21.7161 N   0  0  0  0  0  0  0  0  0  0  0  0
   10.9012  -16.0300   21.4831 C   0  0  0  0  0  0  0  0  0  0  0  0
   11.2488  -15.2848   22.4483 O   0  0  0  0  0  0  0  0  0  0  0  0
   11.8614  -16.9543   21.0096 N   0  0  0  0  0  0  0  0  0  0  0  0
   13.0527  -17.2470   21.8463 C   0  0  1  0  0  0  0  0  0  0  0  0
   12.9299  -18.5867   22.4592 C   0  0  0  0  0  0  0  0  0  0  0  0
   14.0744  -19.1471   23.1918 C   0  0  0  0  0  0  0  0  0  0  0  0
   13.9563  -20.4856   23.8025 C   0  0  0  0  0  0  0  0  0  0  0  0
   15.1134  -20.9552   24.6191 C   0  0  0  0  0  0  0  0  0  0  0  0
   14.9984  -22.1711   25.3191 N   0  0  0  0  0  0  0  0  0  0  0  0
   14.2196  -17.0023   21.0367 C   0  0  0  0  0  0  0  0  0  0  0  0
   15.3708  -16.9570   21.5627 O   0  0  0  0  0  0  0  0  0  0  0  0
   14.1685  -16.8127   19.6754 O   0  0  0  0  0  0  0  0  0  0  0  0
  2  1  1  1
  3  2  1  0
  4  3  1  0
  4  5  2  0
  6  5  1  0
  7  6  1  0
  8  7  2  0
  9  8  1  0
 10  9  2  0
 10 11  1  0
 11 12  2  0
 12  7  1  0
 12  4  1  0
 13  2  1  0
 13 14  2  0
 15 16  1  0
 16 17  2  0
 18 19  1  0
 18 16  1  0
 20 19  1  6
 20 21  1  0
 21 13  1  0
 22 23  2  0
 22 20  1  0
 24 22  1  0
 25 26  1  6
 25 24  1  0
 26 27  1  0
 27 28  1  0
 28 29  1  0
 29 30  1  0
 31 33  1  0
 31 25  1  0
 32 31  2  0
M  END
$$$$
