WQK.pdb
     RDKit          3D

 33 34  0  0  1  0  0  0  0  0999 V2000
    6.4957  -17.5876   24.1711 N   0  0  0  0  0  0  0  0  0  0  0  0
    7.2406  -16.4396   23.7136 C   0  0  1  0  0  0  0  0  0  0  0  0
    8.0256  -15.8072   24.8347 C   0  0  0  0  0  0  0  0  0  0  0  0
    7.1364  -14.9717   25.6783 C   0  0  0  0  0  0  0  0  0  0  0  0
    6.1164  -15.3619   26.5188 C   0  0  0  0  0  0  0  0  0  0  0  0
    5.5893  -14.2693   27.0772 N   0  0  0  0  0  0  0  0  0  0  0  0
    6.2155  -13.1610   26.6442 C   0  0  0  0  0  0  0  0  0  0  0  0
    6.0463  -11.8076   26.9206 C   0  0  0  0  0  0  0  0  0  0  0  0
    6.8544  -10.8625   26.3165 C   0  0  0  0  0  0  0  0  0  0  0  0
    7.8301  -11.2799   25.4368 C   0  0  0  0  0  0  0  0  0  0  0  0
    7.9918  -12.6221   25.1679 C   0  0  0  0  0  0  0  0  0  0  0  0
    7.1943  -13.5946   25.7601 C   0  0  0  0  0  0  0  0  0  0  0  0
    8.1350  -16.8769   22.5968 C   0  0  0  0  0  0  0  0  0  0  0  0
    8.2944  -18.1074   22.4578 O   0  0  0  0  0  0  0  0  0  0  0  0
    8.4976  -12.4163   17.8524 N   0  0  0  0  0  0  0  0  0  0  0  0
    8.1580  -13.7477   18.2252 C   0  0  0  0  0  0  0  0  0  0  0  0
    7.5615  -14.4590   17.3843 O   0  0  0  0  0  0  0  0  0  0  0  0
    8.5040  -14.2783   19.5801 C   0  0  0  0  0  0  0  0  0  0  0  0
    9.2297  -15.5649   19.3893 C   0  0  0  0  0  0  0  0  0  0  0  0
    9.7239  -16.1785   20.7125 C   0  0  2  0  0  0  0  0  0  0  0  0
    8.7742  -15.9852   21.7364 N   0  0  0  0  0  0  0  0  0  0  0  0
   11.1067  -15.7985   21.0059 C   0  0  0  0  0  0  0  0  0  0  0  0
   12.0414  -15.8523   20.1507 O   0  0  0  0  0  0  0  0  0  0  0  0
   11.4488  -15.3434   22.3006 N   0  0  0  0  0  0  0  0  0  0  0  0
   12.4358  -16.1152   23.0976 C   0  0  1  0  0  0  0  0  0  0  0  0
   11.7418  -17.0921   23.9632 C   0  0  0  0  0  0  0  0  0  0  0  0
   12.5379  -18.0460   24.7486 C   0  0  0  0  0  0  0  0  0  0  0  0
   11.8474  -19.0608   25.5685 C   0  0  0  0  0  0  0  0  0  0  0  0
   12.7045  -19.9142   26.4422 C   0  0  0  0  0  0  0  0  0  0  0  0
   12.0849  -20.8531   27.2884 N   0  0  0  0  0  0  0  0  0  0  0  0
   13.4187  -16.6354   22.1810 C   0  0  0  0  0  0  0  0  0  0  0  0
   14.6549  -16.5402   22.4395 O   0  0  0  0  0  0  0  0  0  0  0  0
   13.0940  -17.2592   20.9990 O   0  0  0  0  0  0  0  0  0  0  0  0
  2  1  1  1
  3  2  1  0
  4  3  1  0
  4  5  2  0
  6  5  1  0
  7  6  1  0
  8  7  2  0
  9  8  1  0
 10  9  2  0
 10 11  1  0
 11 12  2  0
 12  7  1  0
 12  4  1  0
 13  2  1  0
 13 14  2  0
 15 16  1  0
 16 17  2  0
 18 19  1  0
 18 16  1  0
 20 19  1  6
 20 21  1  0
 21 13  1  0
 22 23  2  0
 22 20  1  0
 24 22  1  0
 25 26  1  6
 25 24  1  0
 26 27  1  0
 27 28  1  0
 28 29  1  0
 29 30  1  0
 31 33  1  0
 31 25  1  0
 32 31  2  0
M  END
$$$$
