WQK.pdb
     RDKit          3D

 33 34  0  0  1  0  0  0  0  0999 V2000
    6.0710  -17.0202   24.3952 N   0  0  0  0  0  0  0  0  0  0  0  0
    6.8869  -15.8908   24.0198 C   0  0  1  0  0  0  0  0  0  0  0  0
    7.8785  -15.5415   25.1004 C   0  0  0  0  0  0  0  0  0  0  0  0
    7.2184  -14.7533   26.1697 C   0  0  0  0  0  0  0  0  0  0  0  0
    6.4850  -15.1956   27.2494 C   0  0  0  0  0  0  0  0  0  0  0  0
    6.0836  -14.1321   27.9502 N   0  0  0  0  0  0  0  0  0  0  0  0
    6.5188  -12.9932   27.3831 C   0  0  0  0  0  0  0  0  0  0  0  0
    6.3729  -11.6508   27.7198 C   0  0  0  0  0  0  0  0  0  0  0  0
    6.9431  -10.6655   26.9354 C   0  0  0  0  0  0  0  0  0  0  0  0
    7.6582  -11.0318   25.8153 C   0  0  0  0  0  0  0  0  0  0  0  0
    7.7985  -12.3634   25.4881 C   0  0  0  0  0  0  0  0  0  0  0  0
    7.2365  -13.3755   26.2577 C   0  0  0  0  0  0  0  0  0  0  0  0
    7.5728  -16.2170   22.7309 C   0  0  0  0  0  0  0  0  0  0  0  0
    7.7297  -17.4283   22.4724 O   0  0  0  0  0  0  0  0  0  0  0  0
    6.2440  -15.5445   18.4380 N   0  0  0  0  0  0  0  0  0  0  0  0
    7.3259  -14.6259   18.3252 C   0  0  0  0  0  0  0  0  0  0  0  0
    8.0285  -14.6704   17.2891 O   0  0  0  0  0  0  0  0  0  0  0  0
    7.6127  -13.6392   19.4119 C   0  0  0  0  0  0  0  0  0  0  0  0
    8.9452  -13.9750   19.9865 C   0  0  0  0  0  0  0  0  0  0  0  0
    8.9451  -15.2998   20.7716 C   0  0  2  0  0  0  0  0  0  0  0  0
    8.0271  -15.2452   21.8402 N   0  0  0  0  0  0  0  0  0  0  0  0
   10.3031  -15.7489   21.0821 C   0  0  0  0  0  0  0  0  0  0  0  0
   11.0375  -15.1972   21.9562 O   0  0  0  0  0  0  0  0  0  0  0  0
   10.8519  -16.8530   20.3889 N   0  0  0  0  0  0  0  0  0  0  0  0
   12.1661  -17.3930   20.8204 C   0  0  1  0  0  0  0  0  0  0  0  0
   12.0637  -18.8462   21.0720 C   0  0  0  0  0  0  0  0  0  0  0  0
   11.4227  -19.3159   22.3085 C   0  0  0  0  0  0  0  0  0  0  0  0
   11.0822  -20.7453   22.4481 C   0  0  0  0  0  0  0  0  0  0  0  0
   10.4732  -21.1667   23.7434 C   0  0  0  0  0  0  0  0  0  0  0  0
   11.1947  -20.9499   24.9325 N   0  0  0  0  0  0  0  0  0  0  0  0
   13.1471  -16.9635   19.8561 C   0  0  0  0  0  0  0  0  0  0  0  0
   12.9417  -17.1170   18.6158 O   0  0  0  0  0  0  0  0  0  0  0  0
   14.3375  -16.3683   20.2030 O   0  0  0  0  0  0  0  0  0  0  0  0
  2  1  1  1
  3  2  1  0
  4  3  1  0
  4  5  2  0
  6  5  1  0
  7  6  1  0
  8  7  2  0
  9  8  1  0
 10  9  2  0
 10 11  1  0
 11 12  2  0
 12  7  1  0
 12  4  1  0
 13  2  1  0
 13 14  2  0
 15 16  1  0
 16 17  2  0
 18 19  1  0
 18 16  1  0
 20 19  1  1
 20 21  1  0
 21 13  1  0
 22 23  2  0
 22 20  1  0
 24 22  1  0
 25 26  1  6
 25 24  1  0
 26 27  1  0
 27 28  1  0
 28 29  1  0
 29 30  1  0
 31 33  1  0
 31 25  1  0
 32 31  2  0
M  END
$$$$
