WQK.pdb
     RDKit          3D

 33 34  0  0  1  0  0  0  0  0999 V2000
    5.8189  -17.1160   24.5681 N   0  0  0  0  0  0  0  0  0  0  0  0
    6.7955  -16.2228   23.9928 C   0  0  1  0  0  0  0  0  0  0  0  0
    7.7193  -15.6624   25.0442 C   0  0  0  0  0  0  0  0  0  0  0  0
    6.9709  -14.7734   25.9662 C   0  0  0  0  0  0  0  0  0  0  0  0
    6.1499  -15.1078   27.0213 C   0  0  0  0  0  0  0  0  0  0  0  0
    5.6899  -13.9809   27.5709 N   0  0  0  0  0  0  0  0  0  0  0  0
    6.1700  -12.9032   26.9257 C   0  0  0  0  0  0  0  0  0  0  0  0
    5.9948  -11.5345   27.1065 C   0  0  0  0  0  0  0  0  0  0  0  0
    6.6278  -10.6309   26.2734 C   0  0  0  0  0  0  0  0  0  0  0  0
    7.4349  -11.1050   25.2615 C   0  0  0  0  0  0  0  0  0  0  0  0
    7.6036  -12.4621   25.0885 C   0  0  0  0  0  0  0  0  0  0  0  0
    6.9800  -13.3938   25.9104 C   0  0  0  0  0  0  0  0  0  0  0  0
    7.5518  -16.9713   22.9411 C   0  0  0  0  0  0  0  0  0  0  0  0
    7.9687  -18.1059   23.2535 O   0  0  0  0  0  0  0  0  0  0  0  0
    8.5536  -14.3111   17.2541 N   0  0  0  0  0  0  0  0  0  0  0  0
    8.6426  -13.5692   18.4660 C   0  0  0  0  0  0  0  0  0  0  0  0
    8.6125  -12.3191   18.3930 O   0  0  0  0  0  0  0  0  0  0  0  0
    8.7683  -14.2637   19.7847 C   0  0  0  0  0  0  0  0  0  0  0  0
    8.6918  -15.7295   19.5321 C   0  0  0  0  0  0  0  0  0  0  0  0
    8.9065  -16.5710   20.8039 C   0  0  2  0  0  0  0  0  0  0  0  0
    7.7977  -16.4598   21.6675 N   0  0  0  0  0  0  0  0  0  0  0  0
   10.2304  -16.3481   21.3871 C   0  0  0  0  0  0  0  0  0  0  0  0
   10.5042  -15.3659   22.1408 O   0  0  0  0  0  0  0  0  0  0  0  0
   11.2783  -17.2583   21.1152 N   0  0  0  0  0  0  0  0  0  0  0  0
   12.6013  -17.0449   21.7548 C   0  0  1  0  0  0  0  0  0  0  0  0
   12.9752  -18.2259   22.5616 C   0  0  0  0  0  0  0  0  0  0  0  0
   12.1501  -18.5915   23.7218 C   0  0  0  0  0  0  0  0  0  0  0  0
   12.4641  -19.8229   24.4726 C   0  0  0  0  0  0  0  0  0  0  0  0
   11.5868  -20.1412   25.6368 C   0  0  0  0  0  0  0  0  0  0  0  0
   11.8510  -21.3038   26.3853 N   0  0  0  0  0  0  0  0  0  0  0  0
   13.5206  -16.6411   20.7210 C   0  0  0  0  0  0  0  0  0  0  0  0
   13.1948  -16.7257   19.5001 O   0  0  0  0  0  0  0  0  0  0  0  0
   14.7768  -16.1440   20.9790 O   0  0  0  0  0  0  0  0  0  0  0  0
  2  1  1  1
  3  2  1  0
  4  3  1  0
  4  5  2  0
  6  5  1  0
  7  6  1  0
  8  7  2  0
  9  8  1  0
 10  9  2  0
 10 11  1  0
 11 12  2  0
 12  7  1  0
 12  4  1  0
 13  2  1  0
 13 14  2  0
 15 16  1  0
 16 17  2  0
 18 19  1  0
 18 16  1  0
 20 19  1  6
 20 21  1  0
 21 13  1  0
 22 23  2  0
 22 20  1  0
 24 22  1  0
 25 26  1  6
 25 24  1  0
 26 27  1  0
 27 28  1  0
 28 29  1  0
 29 30  1  0
 31 33  1  0
 31 25  1  0
 32 31  2  0
M  END
$$$$
