WQK.pdb
     RDKit          3D

 33 34  0  0  1  0  0  0  0  0999 V2000
    7.7329  -17.6041   24.5026 N   0  0  0  0  0  0  0  0  0  0  0  0
    7.5472  -16.7578   23.3487 C   0  0  1  0  0  0  0  0  0  0  0  0
    6.6820  -15.5659   23.6706 C   0  0  0  0  0  0  0  0  0  0  0  0
    6.8917  -15.1422   25.0766 C   0  0  0  0  0  0  0  0  0  0  0  0
    6.9237  -15.9100   26.2206 C   0  0  0  0  0  0  0  0  0  0  0  0
    7.1420  -15.1041   27.2629 N   0  0  0  0  0  0  0  0  0  0  0  0
    7.2578  -13.8254   26.8632 C   0  0  0  0  0  0  0  0  0  0  0  0
    7.4851  -12.6353   27.5479 C   0  0  0  0  0  0  0  0  0  0  0  0
    7.5596  -11.4364   26.8636 C   0  0  0  0  0  0  0  0  0  0  0  0
    7.4058  -11.4367   25.4938 C   0  0  0  0  0  0  0  0  0  0  0  0
    7.1809  -12.6194   24.8225 C   0  0  0  0  0  0  0  0  0  0  0  0
    7.1010  -13.8395   25.4838 C   0  0  0  0  0  0  0  0  0  0  0  0
    8.8954  -16.3390   22.8538 C   0  0  0  0  0  0  0  0  0  0  0  0
    8.9153  -15.5523   21.8846 O   0  0  0  0  0  0  0  0  0  0  0  0
   13.6031  -18.7582   26.2713 N   0  0  0  0  0  0  0  0  0  0  0  0
   12.7029  -19.3320   25.3291 C   0  0  0  0  0  0  0  0  0  0  0  0
   12.8014  -20.5584   25.0944 O   0  0  0  0  0  0  0  0  0  0  0  0
   11.6723  -18.4938   24.6420 C   0  0  0  0  0  0  0  0  0  0  0  0
   12.3802  -17.3683   23.9707 C   0  0  0  0  0  0  0  0  0  0  0  0
   11.4366  -16.4666   23.1532 C   0  0  2  0  0  0  0  0  0  0  0  0
   10.0892  -16.7839   23.4206 N   0  0  0  0  0  0  0  0  0  0  0  0
   11.8372  -16.3919   21.7473 C   0  0  0  0  0  0  0  0  0  0  0  0
   11.7741  -17.3764   20.9508 O   0  0  0  0  0  0  0  0  0  0  0  0
   12.3230  -15.1724   21.2209 N   0  0  0  0  0  0  0  0  0  0  0  0
   12.5510  -15.0597   19.7579 C   0  0  1  0  0  0  0  0  0  0  0  0
   11.6744  -14.0173   19.1829 C   0  0  0  0  0  0  0  0  0  0  0  0
   10.2653  -14.3356   18.9120 C   0  0  0  0  0  0  0  0  0  0  0  0
    9.3741  -13.2818   18.3884 C   0  0  0  0  0  0  0  0  0  0  0  0
    7.9582  -13.6707   18.1237 C   0  0  0  0  0  0  0  0  0  0  0  0
    7.0824  -12.7102   17.5834 N   0  0  0  0  0  0  0  0  0  0  0  0
   13.9693  -14.9084   19.5523 C   0  0  0  0  0  0  0  0  0  0  0  0
   14.4465  -14.8354   18.3814 O   0  0  0  0  0  0  0  0  0  0  0  0
   14.8777  -14.8284   20.5819 O   0  0  0  0  0  0  0  0  0  0  0  0
  2  1  1  1
  3  2  1  0
  4  3  1  0
  4  5  2  0
  6  5  1  0
  7  6  1  0
  8  7  2  0
  9  8  1  0
 10  9  2  0
 10 11  1  0
 11 12  2  0
 12  7  1  0
 12  4  1  0
 13  2  1  0
 13 14  2  0
 15 16  1  0
 16 17  2  0
 18 19  1  0
 18 16  1  0
 20 19  1  1
 20 21  1  0
 21 13  1  0
 22 23  2  0
 22 20  1  0
 24 22  1  0
 25 26  1  1
 25 24  1  0
 26 27  1  0
 27 28  1  0
 28 29  1  0
 29 30  1  0
 31 33  1  0
 31 25  1  0
 32 31  2  0
M  END
$$$$
