WQK.pdb
     RDKit          3D

 33 34  0  0  1  0  0  0  0  0999 V2000
    6.3111  -17.4251   24.2382 N   0  0  0  0  0  0  0  0  0  0  0  0
    7.0237  -16.3258   23.6333 C   0  0  1  0  0  0  0  0  0  0  0  0
    7.8850  -15.6049   24.6389 C   0  0  0  0  0  0  0  0  0  0  0  0
    7.0417  -14.7996   25.5558 C   0  0  0  0  0  0  0  0  0  0  0  0
    6.1021  -15.2233   26.4705 C   0  0  0  0  0  0  0  0  0  0  0  0
    5.5899  -14.1491   27.0767 N   0  0  0  0  0  0  0  0  0  0  0  0
    6.1490  -13.0211   26.6045 C   0  0  0  0  0  0  0  0  0  0  0  0
    5.9641  -11.6745   26.9035 C   0  0  0  0  0  0  0  0  0  0  0  0
    6.6955  -10.7036   26.2452 C   0  0  0  0  0  0  0  0  0  0  0  0
    7.6105  -11.0882   25.2887 C   0  0  0  0  0  0  0  0  0  0  0  0
    7.7882  -12.4238   24.9978 C   0  0  0  0  0  0  0  0  0  0  0  0
    7.0672  -13.4218   25.6433 C   0  0  0  0  0  0  0  0  0  0  0  0
    7.8381  -16.8635   22.4994 C   0  0  0  0  0  0  0  0  0  0  0  0
    8.2691  -18.0286   22.6242 O   0  0  0  0  0  0  0  0  0  0  0  0
    8.9324  -12.7784   17.8711 N   0  0  0  0  0  0  0  0  0  0  0  0
    7.9346  -13.7899   17.7798 C   0  0  0  0  0  0  0  0  0  0  0  0
    7.0341  -13.6507   16.9203 O   0  0  0  0  0  0  0  0  0  0  0  0
    7.9630  -14.9812   18.6837 C   0  0  0  0  0  0  0  0  0  0  0  0
    9.1581  -14.8523   19.5631 C   0  0  0  0  0  0  0  0  0  0  0  0
    9.2915  -16.0098   20.5701 C   0  0  2  0  0  0  0  0  0  0  0  0
    8.1216  -16.1305   21.3476 N   0  0  0  0  0  0  0  0  0  0  0  0
   10.5665  -15.9633   21.2874 C   0  0  0  0  0  0  0  0  0  0  0  0
   10.7438  -15.2985   22.3525 O   0  0  0  0  0  0  0  0  0  0  0  0
   11.6761  -16.6873   20.7922 N   0  0  0  0  0  0  0  0  0  0  0  0
   12.6572  -17.2487   21.7551 C   0  0  1  0  0  0  0  0  0  0  0  0
   12.1262  -18.4879   22.3618 C   0  0  0  0  0  0  0  0  0  0  0  0
   12.9885  -19.2751   23.2546 C   0  0  0  0  0  0  0  0  0  0  0  0
   12.4775  -20.5367   23.8255 C   0  0  0  0  0  0  0  0  0  0  0  0
   13.4035  -21.2931   24.7179 C   0  0  0  0  0  0  0  0  0  0  0  0
   12.9232  -22.4426   25.3735 N   0  0  0  0  0  0  0  0  0  0  0  0
   13.9239  -17.3442   21.0745 C   0  0  0  0  0  0  0  0  0  0  0  0
   13.9731  -17.6320   19.8421 O   0  0  0  0  0  0  0  0  0  0  0  0
   15.1328  -17.1298   21.6945 O   0  0  0  0  0  0  0  0  0  0  0  0
  2  1  1  1
  3  2  1  0
  4  3  1  0
  4  5  2  0
  6  5  1  0
  7  6  1  0
  8  7  2  0
  9  8  1  0
 10  9  2  0
 10 11  1  0
 11 12  2  0
 12  7  1  0
 12  4  1  0
 13  2  1  0
 13 14  2  0
 15 16  1  0
 16 17  2  0
 18 19  1  0
 18 16  1  0
 20 19  1  1
 20 21  1  0
 21 13  1  0
 22 23  2  0
 22 20  1  0
 24 22  1  0
 25 26  1  6
 25 24  1  0
 26 27  1  0
 27 28  1  0
 28 29  1  0
 29 30  1  0
 31 33  1  0
 31 25  1  0
 32 31  2  0
M  END
$$$$
