WQK.pdb
     RDKit          3D

 33 34  0  0  1  0  0  0  0  0999 V2000
    7.0023  -16.8017   23.3677 N   0  0  0  0  0  0  0  0  0  0  0  0
    8.1426  -15.9785   23.6909 C   0  0  1  0  0  0  0  0  0  0  0  0
    8.3041  -15.8181   25.1812 C   0  0  0  0  0  0  0  0  0  0  0  0
    7.1711  -15.0414   25.7412 C   0  0  0  0  0  0  0  0  0  0  0  0
    5.9509  -15.4901   26.1984 C   0  0  0  0  0  0  0  0  0  0  0  0
    5.2435  -14.4365   26.6142 N   0  0  0  0  0  0  0  0  0  0  0  0
    5.9411  -13.2982   26.4540 C   0  0  0  0  0  0  0  0  0  0  0  0
    5.6541  -11.9642   26.7276 C   0  0  0  0  0  0  0  0  0  0  0  0
    6.5828  -10.9772   26.4545 C   0  0  0  0  0  0  0  0  0  0  0  0
    7.7969  -11.3333   25.9074 C   0  0  0  0  0  0  0  0  0  0  0  0
    8.0741  -12.6566   25.6391 C   0  0  0  0  0  0  0  0  0  0  0  0
    7.1600  -13.6702   25.9030 C   0  0  0  0  0  0  0  0  0  0  0  0
    9.3561  -16.5961   23.0713 C   0  0  0  0  0  0  0  0  0  0  0  0
    9.2289  -17.7572   22.6304 O   0  0  0  0  0  0  0  0  0  0  0  0
   12.7119  -15.1700   19.1452 N   0  0  0  0  0  0  0  0  0  0  0  0
   13.9046  -15.0565   19.9143 C   0  0  0  0  0  0  0  0  0  0  0  0
   14.9250  -14.5974   19.3514 O   0  0  0  0  0  0  0  0  0  0  0  0
   13.9356  -15.4735   21.3503 C   0  0  0  0  0  0  0  0  0  0  0  0
   12.6233  -15.1106   21.9542 C   0  0  0  0  0  0  0  0  0  0  0  0
   11.8249  -16.3352   22.4383 C   0  0  2  0  0  0  0  0  0  0  0  0
   10.5823  -15.9394   22.9740 N   0  0  0  0  0  0  0  0  0  0  0  0
   12.6456  -17.2334   23.2522 C   0  0  0  0  0  0  0  0  0  0  0  0
   13.7311  -17.7471   22.8451 O   0  0  0  0  0  0  0  0  0  0  0  0
   12.2334  -17.5633   24.5643 N   0  0  0  0  0  0  0  0  0  0  0  0
   13.0157  -18.5630   25.3348 C   0  0  1  0  0  0  0  0  0  0  0  0
   12.9118  -19.8935   24.6989 C   0  0  0  0  0  0  0  0  0  0  0  0
   11.6268  -20.6062   24.7346 C   0  0  0  0  0  0  0  0  0  0  0  0
   11.5026  -21.9070   24.0482 C   0  0  0  0  0  0  0  0  0  0  0  0
   10.2223  -22.6484   24.2418 C   0  0  0  0  0  0  0  0  0  0  0  0
    9.9892  -23.8072   23.4773 N   0  0  0  0  0  0  0  0  0  0  0  0
   14.3409  -18.0267   25.5172 C   0  0  0  0  0  0  0  0  0  0  0  0
   15.1423  -17.9431   24.5400 O   0  0  0  0  0  0  0  0  0  0  0  0
   14.8134  -17.5752   26.7274 O   0  0  0  0  0  0  0  0  0  0  0  0
  2  1  1  1
  3  2  1  0
  4  3  1  0
  4  5  2  0
  6  5  1  0
  7  6  1  0
  8  7  2  0
  9  8  1  0
 10  9  2  0
 10 11  1  0
 11 12  2  0
 12  7  1  0
 12  4  1  0
 13  2  1  0
 13 14  2  0
 15 16  1  0
 16 17  2  0
 18 19  1  0
 18 16  1  0
 20 19  1  1
 20 21  1  0
 21 13  1  0
 22 23  2  0
 22 20  1  0
 24 22  1  0
 25 26  1  6
 25 24  1  0
 26 27  1  0
 27 28  1  0
 28 29  1  0
 29 30  1  0
 31 33  1  0
 31 25  1  0
 32 31  2  0
M  END
$$$$
