RGK.pdb
     RDKit          3D

 25 24  0  0  1  0  0  0  0  0999 V2000
   29.3465  -21.5985  -17.5488 N   0  0  0  0  0  0  0  0  0  0  0  0
   28.3524  -22.4486  -17.0194 C   0  0  0  0  0  0  0  0  0  0  0  0
   28.4665  -23.7306  -16.9671 N   0  0  0  0  0  0  0  0  0  0  0  0
   27.1382  -21.9158  -16.5025 N   0  0  0  0  0  0  0  0  0  0  0  0
   26.9793  -20.5358  -16.2345 C   0  0  0  0  0  0  0  0  0  0  0  0
   27.9908  -19.9436  -15.3118 C   0  0  0  0  0  0  0  0  0  0  0  0
   27.8674  -18.4776  -15.1674 C   0  0  0  0  0  0  0  0  0  0  0  0
   26.6425  -17.9440  -14.5274 C   0  0  2  0  0  0  0  0  0  0  0  0
   25.7412  -18.9220  -13.9906 N   0  0  0  0  0  0  0  0  0  0  0  0
   25.9075  -16.9634  -15.3511 C   0  0  0  0  0  0  0  0  0  0  0  0
   26.5497  -16.0732  -15.9729 O   0  0  0  0  0  0  0  0  0  0  0  0
   27.6486  -24.2861  -16.6329 N   0  0  0  0  0  0  0  0  0  0  0  0
   24.5006  -16.9526  -15.4949 C   0  0  0  0  0  0  0  0  0  0  0  0
   23.8599  -16.6544  -16.7684 C   0  0  0  0  0  0  0  0  0  0  0  0
   22.7502  -17.6360  -16.9297 O   0  0  0  0  0  0  0  0  0  0  0  0
   21.8092  -17.5069  -17.7285 N   0  0  0  0  0  0  0  0  0  0  0  0
   22.7914  -18.8052  -16.0935 C   0  0  1  0  0  0  0  0  0  0  0  0
   21.7483  -19.7695  -16.1732 C   0  0  0  0  0  0  0  0  0  0  0  0
   22.1326  -21.1324  -15.7277 C   0  0  0  0  0  0  0  0  0  0  0  0
   23.2454  -21.8113  -16.3860 C   0  0  0  0  0  0  0  0  0  0  0  0
   23.7196  -23.1317  -15.8956 C   0  0  0  0  0  0  0  0  0  0  0  0
   24.7665  -23.5993  -16.9472 N   0  0  0  0  0  0  0  0  0  0  0  0
   25.3259  -24.8577  -16.5612 C   0  0  0  0  0  0  0  0  0  0  0  0
   20.5241  -19.2654  -15.4945 O   0  0  0  0  0  0  0  0  0  0  0  0
   19.2586  -19.6451  -15.8998 O   0  0  0  0  0  0  0  0  0  0  0  0
  1  2  1  0
  2  3  2  0
  4  5  1  0
  4  2  1  0
  6  7  1  0
  6  5  1  0
  7  8  1  0
  8 10  1  0
  8  9  1  6
 10 12  1  0
 11 10  2  0
 12 13  1  0
 14 15  2  0
 14 13  1  0
 16 14  1  0
 17 23  1  0
 17 16  1  0
 17 18  1  1
 19 18  1  0
 20 19  1  0
 21 20  1  0
 21 22  1  0
 23 24  1  0
 25 23  2  0
M  END
$$$$
