RGK.pdb
     RDKit          3D

 25 24  0  0  1  0  0  0  0  0999 V2000
   22.7717  -21.9666  -16.2301 N   0  0  0  0  0  0  0  0  0  0  0  0
   22.6729  -20.6493  -16.7261 C   0  0  0  0  0  0  0  0  0  0  0  0
   22.8615  -20.3382  -17.9619 N   0  0  0  0  0  0  0  0  0  0  0  0
   22.3510  -19.5671  -15.8598 N   0  0  0  0  0  0  0  0  0  0  0  0
   21.7749  -19.7737  -14.5843 C   0  0  0  0  0  0  0  0  0  0  0  0
   20.3158  -20.0838  -14.5851 C   0  0  0  0  0  0  0  0  0  0  0  0
   19.7523  -20.2627  -13.2302 C   0  0  0  0  0  0  0  0  0  0  0  0
   20.2006  -21.4337  -12.4413 C   0  0  2  0  0  0  0  0  0  0  0  0
   19.9672  -22.7164  -13.0391 N   0  0  0  0  0  0  0  0  0  0  0  0
   19.7424  -21.4288  -11.0375 C   0  0  0  0  0  0  0  0  0  0  0  0
   19.7207  -20.3416  -10.3980 O   0  0  0  0  0  0  0  0  0  0  0  0
   22.8528  -19.3280  -18.2237 N   0  0  0  0  0  0  0  0  0  0  0  0
   19.3162  -22.5853  -10.3439 C   0  0  0  0  0  0  0  0  0  0  0  0
   18.7525  -22.5138   -9.0029 C   0  0  0  0  0  0  0  0  0  0  0  0
   18.4494  -23.9135   -8.5906 O   0  0  0  0  0  0  0  0  0  0  0  0
   18.0342  -24.7969   -9.3569 N   0  0  0  0  0  0  0  0  0  0  0  0
   18.6591  -24.2420   -7.2063 C   0  0  1  0  0  0  0  0  0  0  0  0
   18.0710  -25.4170   -6.6608 C   0  0  0  0  0  0  0  0  0  0  0  0
   18.5812  -25.7967   -5.3195 C   0  0  0  0  0  0  0  0  0  0  0  0
   18.2337  -27.1031   -4.7671 C   0  0  0  0  0  0  0  0  0  0  0  0
   18.7098  -27.5019   -3.4168 C   0  0  0  0  0  0  0  0  0  0  0  0
   18.1033  -28.9144   -3.1772 N   0  0  0  0  0  0  0  0  0  0  0  0
   18.4690  -29.3952   -1.8807 C   0  0  0  0  0  0  0  0  0  0  0  0
   16.5869  -25.3229   -6.7071 O   0  0  0  0  0  0  0  0  0  0  0  0
   15.7896  -26.4462   -6.8176 O   0  0  0  0  0  0  0  0  0  0  0  0
  1  2  1  0
  2  3  2  0
  4  5  1  0
  4  2  1  0
  6  7  1  0
  6  5  1  0
  7  8  1  0
  8 10  1  0
  8  9  1  6
 10 12  1  0
 11 10  2  0
 12 13  1  0
 14 15  2  0
 14 13  1  0
 16 14  1  0
 17 23  1  0
 17 16  1  0
 17 18  1  1
 19 18  1  0
 20 19  1  0
 21 20  1  0
 21 22  1  0
 23 24  1  0
 25 23  2  0
M  END
$$$$
