RGK.pdb
     RDKit          3D

 25 24  0  0  1  0  0  0  0  0999 V2000
   26.3077  -26.8593  -16.3449 N   0  0  0  0  0  0  0  0  0  0  0  0
   27.5614  -26.5367  -16.9065 C   0  0  0  0  0  0  0  0  0  0  0  0
   28.5368  -27.3732  -16.9974 N   0  0  0  0  0  0  0  0  0  0  0  0
   27.8179  -25.2323  -17.4146 N   0  0  0  0  0  0  0  0  0  0  0  0
   26.8101  -24.2417  -17.4799 C   0  0  0  0  0  0  0  0  0  0  0  0
   26.3539  -23.7069  -16.1641 C   0  0  0  0  0  0  0  0  0  0  0  0
   24.9674  -24.0897  -15.8230 C   0  0  0  0  0  0  0  0  0  0  0  0
   24.4111  -23.6088  -14.5369 C   0  0  2  0  0  0  0  0  0  0  0  0
   25.3669  -23.1159  -13.5880 N   0  0  0  0  0  0  0  0  0  0  0  0
   23.4822  -24.5555  -13.8878 C   0  0  0  0  0  0  0  0  0  0  0  0
   23.8253  -25.7615  -13.7490 O   0  0  0  0  0  0  0  0  0  0  0  0
   29.4137  -27.0599  -17.4687 N   0  0  0  0  0  0  0  0  0  0  0  0
   22.2046  -24.1956  -13.3994 C   0  0  0  0  0  0  0  0  0  0  0  0
   21.2870  -25.1819  -12.8459 C   0  0  0  0  0  0  0  0  0  0  0  0
   20.1529  -24.4230  -12.2468 O   0  0  0  0  0  0  0  0  0  0  0  0
   20.0155  -23.1918  -12.3200 N   0  0  0  0  0  0  0  0  0  0  0  0
   19.1615  -25.1883  -11.5401 C   0  0  2  0  0  0  0  0  0  0  0  0
   18.1729  -24.5212  -10.7643 C   0  0  0  0  0  0  0  0  0  0  0  0
   18.7060  -23.7655   -9.6031 C   0  0  0  0  0  0  0  0  0  0  0  0
   18.4033  -24.2273   -8.2512 C   0  0  0  0  0  0  0  0  0  0  0  0
   18.7788  -25.5996   -7.8213 C   0  0  0  0  0  0  0  0  0  0  0  0
   18.3088  -25.7005   -6.3416 N   0  0  0  0  0  0  0  0  0  0  0  0
   18.4452  -27.0441   -5.8708 C   0  0  0  0  0  0  0  0  0  0  0  0
   17.3001  -23.6927  -11.6392 O   0  0  0  0  0  0  0  0  0  0  0  0
   17.8072  -22.6600  -12.4048 O   0  0  0  0  0  0  0  0  0  0  0  0
  1  2  1  0
  2  3  2  0
  4  5  1  0
  4  2  1  0
  6  7  1  0
  6  5  1  0
  7  8  1  0
  8 10  1  0
  8  9  1  1
 10 12  1  0
 11 10  2  0
 12 13  1  0
 14 15  2  0
 14 13  1  0
 16 14  1  0
 17 23  1  0
 17 16  1  0
 17 18  1  6
 19 18  1  0
 20 19  1  0
 21 20  1  0
 21 22  1  0
 23 24  1  0
 25 23  2  0
M  END
$$$$
