RGK.pdb
     RDKit          3D

 25 24  0  0  1  0  0  0  0  0999 V2000
   29.8260  -26.2176  -15.8876 N   0  0  0  0  0  0  0  0  0  0  0  0
   30.5965  -25.3191  -16.6559 C   0  0  0  0  0  0  0  0  0  0  0  0
   31.8487  -25.0984  -16.4490 N   0  0  0  0  0  0  0  0  0  0  0  0
   30.0107  -24.5901  -17.7286 N   0  0  0  0  0  0  0  0  0  0  0  0
   28.8591  -23.7882  -17.5492 C   0  0  0  0  0  0  0  0  0  0  0  0
   29.1188  -22.3324  -17.3532 C   0  0  0  0  0  0  0  0  0  0  0  0
   28.3576  -21.7458  -16.2298 C   0  0  0  0  0  0  0  0  0  0  0  0
   26.8839  -21.8964  -16.2364 C   0  0  2  0  0  0  0  0  0  0  0  0
   26.1550  -20.8791  -16.9371 N   0  0  0  0  0  0  0  0  0  0  0  0
   26.2933  -22.1271  -14.9029 C   0  0  0  0  0  0  0  0  0  0  0  0
   26.7744  -23.0268  -14.1608 O   0  0  0  0  0  0  0  0  0  0  0  0
   32.3540  -24.4655  -17.1073 N   0  0  0  0  0  0  0  0  0  0  0  0
   25.2002  -21.3925  -14.3876 C   0  0  0  0  0  0  0  0  0  0  0  0
   24.6851  -21.6204  -13.0445 C   0  0  0  0  0  0  0  0  0  0  0  0
   23.5802  -20.6419  -12.8378 O   0  0  0  0  0  0  0  0  0  0  0  0
   23.7271  -19.5090  -12.3531 N   0  0  0  0  0  0  0  0  0  0  0  0
   22.2620  -21.0586  -13.2335 C   0  0  1  0  0  0  0  0  0  0  0  0
   21.4928  -20.2393  -14.1061 C   0  0  0  0  0  0  0  0  0  0  0  0
   22.1749  -19.8777  -15.3740 C   0  0  0  0  0  0  0  0  0  0  0  0
   21.4625  -19.0746  -16.3639 C   0  0  0  0  0  0  0  0  0  0  0  0
   22.2088  -18.1866  -17.2931 C   0  0  0  0  0  0  0  0  0  0  0  0
   22.5972  -19.0961  -18.4941 N   0  0  0  0  0  0  0  0  0  0  0  0
   23.3525  -18.3512  -19.4535 C   0  0  0  0  0  0  0  0  0  0  0  0
   20.1478  -20.8363  -14.3256 O   0  0  0  0  0  0  0  0  0  0  0  0
   19.8751  -22.1530  -14.0066 O   0  0  0  0  0  0  0  0  0  0  0  0
  1  2  1  0
  2  3  2  0
  4  5  1  0
  4  2  1  0
  6  7  1  0
  6  5  1  0
  7  8  1  0
  8 10  1  0
  8  9  1  1
 10 12  1  0
 11 10  2  0
 12 13  1  0
 14 15  2  0
 14 13  1  0
 16 14  1  0
 17 23  1  0
 17 16  1  0
 17 18  1  1
 19 18  1  0
 20 19  1  0
 21 20  1  0
 21 22  1  0
 23 24  1  0
 25 23  2  0
M  END
$$$$
