RGK.pdb
     RDKit          3D

 25 24  0  0  1  0  0  0  0  0999 V2000
   25.4033  -24.2316  -14.5145 N   0  0  0  0  0  0  0  0  0  0  0  0
   25.6125  -24.4962  -15.8846 C   0  0  0  0  0  0  0  0  0  0  0  0
   25.7740  -25.6809  -16.3640 N   0  0  0  0  0  0  0  0  0  0  0  0
   25.6574  -23.4358  -16.8327 N   0  0  0  0  0  0  0  0  0  0  0  0
   25.0635  -22.1772  -16.5782 C   0  0  0  0  0  0  0  0  0  0  0  0
   24.8080  -21.8703  -15.1409 C   0  0  0  0  0  0  0  0  0  0  0  0
   23.9788  -20.6637  -14.9361 C   0  0  0  0  0  0  0  0  0  0  0  0
   22.5498  -20.7302  -15.3210 C   0  0  2  0  0  0  0  0  0  0  0  0
   22.1739  -19.9511  -16.4650 N   0  0  0  0  0  0  0  0  0  0  0  0
   21.6112  -20.4937  -14.2059 C   0  0  0  0  0  0  0  0  0  0  0  0
   21.3365  -19.3093  -13.8695 O   0  0  0  0  0  0  0  0  0  0  0  0
   25.9536  -25.7794  -17.3874 N   0  0  0  0  0  0  0  0  0  0  0  0
   20.9841  -21.5270  -13.4716 C   0  0  0  0  0  0  0  0  0  0  0  0
   20.0657  -21.2445  -12.3770 C   0  0  0  0  0  0  0  0  0  0  0  0
   19.5111  -22.5549  -11.9342 O   0  0  0  0  0  0  0  0  0  0  0  0
   19.6153  -23.6135  -12.5734 N   0  0  0  0  0  0  0  0  0  0  0  0
   18.8111  -22.5721  -10.6781 C   0  0  1  0  0  0  0  0  0  0  0  0
   18.1775  -23.7672  -10.2373 C   0  0  0  0  0  0  0  0  0  0  0  0
   17.7086  -23.7338   -8.8292 C   0  0  0  0  0  0  0  0  0  0  0  0
   17.0275  -24.9009   -8.2757 C   0  0  0  0  0  0  0  0  0  0  0  0
   17.8086  -26.0459   -7.7392 C   0  0  0  0  0  0  0  0  0  0  0  0
   16.7465  -27.1246   -7.3802 N   0  0  0  0  0  0  0  0  0  0  0  0
   17.3882  -28.3064   -6.8932 C   0  0  0  0  0  0  0  0  0  0  0  0
   17.1086  -24.1689  -11.1909 O   0  0  0  0  0  0  0  0  0  0  0  0
   16.9077  -25.4896  -11.5449 O   0  0  0  0  0  0  0  0  0  0  0  0
  1  2  1  0
  2  3  2  0
  4  5  1  0
  4  2  1  0
  6  7  1  0
  6  5  1  0
  7  8  1  0
  8 10  1  0
  8  9  1  6
 10 12  1  0
 11 10  2  0
 12 13  1  0
 14 15  2  0
 14 13  1  0
 16 14  1  0
 17 23  1  0
 17 16  1  0
 17 18  1  6
 19 18  1  0
 20 19  1  0
 21 20  1  0
 21 22  1  0
 23 24  1  0
 25 23  2  0
M  END
$$$$
