RGK.pdb
     RDKit          3D

 25 24  0  0  1  0  0  0  0  0999 V2000
   22.4013  -20.3339   -8.9301 N   0  0  0  0  0  0  0  0  0  0  0  0
   23.5214  -21.0587   -8.4705 C   0  0  0  0  0  0  0  0  0  0  0  0
   23.8323  -21.1745   -7.2258 N   0  0  0  0  0  0  0  0  0  0  0  0
   24.3893  -21.7165   -9.3868 N   0  0  0  0  0  0  0  0  0  0  0  0
   24.6153  -21.2212  -10.6925 C   0  0  0  0  0  0  0  0  0  0  0  0
   25.8144  -20.3471  -10.8455 C   0  0  0  0  0  0  0  0  0  0  0  0
   26.0177  -19.8651  -12.2281 C   0  0  0  0  0  0  0  0  0  0  0  0
   25.7209  -20.7988  -13.3393 C   0  0  2  0  0  0  0  0  0  0  0  0
   26.6450  -21.8824  -13.5087 N   0  0  0  0  0  0  0  0  0  0  0  0
   25.4612  -20.1364  -14.6332 C   0  0  0  0  0  0  0  0  0  0  0  0
   25.6978  -18.9032  -14.7549 O   0  0  0  0  0  0  0  0  0  0  0  0
   24.6905  -21.7147   -6.9792 N   0  0  0  0  0  0  0  0  0  0  0  0
   24.9539  -20.8039  -15.7721 C   0  0  0  0  0  0  0  0  0  0  0  0
   24.9050  -20.1648  -17.0799 C   0  0  0  0  0  0  0  0  0  0  0  0
   24.2381  -21.1270  -18.0021 O   0  0  0  0  0  0  0  0  0  0  0  0
   24.7552  -22.1765  -18.4157 N   0  0  0  0  0  0  0  0  0  0  0  0
   22.9051  -20.7981  -18.4298 C   0  0  1  0  0  0  0  0  0  0  0  0
   22.1854  -21.7011  -19.2609 C   0  0  0  0  0  0  0  0  0  0  0  0
   20.7312  -21.4207  -19.3626 C   0  0  0  0  0  0  0  0  0  0  0  0
   19.8823  -22.3243  -20.1342 C   0  0  0  0  0  0  0  0  0  0  0  0
   18.4478  -22.0053  -20.3568 C   0  0  0  0  0  0  0  0  0  0  0  0
   17.9148  -23.1560  -21.2580 N   0  0  0  0  0  0  0  0  0  0  0  0
   16.5440  -22.9250  -21.5946 C   0  0  0  0  0  0  0  0  0  0  0  0
   22.8436  -21.8185  -20.5900 O   0  0  0  0  0  0  0  0  0  0  0  0
   22.9096  -23.0221  -21.2657 O   0  0  0  0  0  0  0  0  0  0  0  0
  1  2  1  0
  2  3  2  0
  4  5  1  0
  4  2  1  0
  6  7  1  0
  6  5  1  0
  7  8  1  0
  8 10  1  0
  8  9  1  6
 10 12  1  0
 11 10  2  0
 12 13  1  0
 14 15  2  0
 14 13  1  0
 16 14  1  0
 17 23  1  0
 17 16  1  0
 17 18  1  6
 19 18  1  0
 20 19  1  0
 21 20  1  0
 21 22  1  0
 23 24  1  0
 25 23  2  0
M  END
$$$$
