SPK.pdb
     RDKit          3D

 23 23  0  0  1  0  0  0  0  0999 V2000
    6.4469  -19.2082   20.8189 O   0  0  0  0  0  0  0  0  0  0  0  0
    6.1603  -17.8877   20.5440 C   0  0  0  0  0  0  0  0  0  0  0  0
    6.8591  -17.3490   19.2976 C   0  0  2  0  0  0  0  0  0  0  0  0
    7.3574  -18.5542   18.6018 N   0  0  0  0  0  0  0  0  0  0  0  0
    8.0253  -16.5143   19.6556 C   0  0  0  0  0  0  0  0  0  0  0  0
    9.1693  -17.0616   19.5505 O   0  0  0  0  0  0  0  0  0  0  0  0
    7.9827  -15.1808   20.0964 N   0  0  0  0  0  0  0  0  0  0  0  0
    6.7604  -14.4165   20.2898 C   0  0  0  0  0  0  0  0  0  0  0  0
    7.1291  -13.0804   19.6909 C   0  0  0  0  0  0  0  0  0  0  0  0
    8.5999  -12.9410   19.9109 C   0  0  0  0  0  0  0  0  0  0  0  0
    9.0451  -14.2703   20.4399 C   0  0  1  0  0  0  0  0  0  0  0  0
    9.2438  -14.2070   21.9353 C   0  0  0  0  0  0  0  0  0  0  0  0
    8.9724  -13.1122   22.4909 O   0  0  0  0  0  0  0  0  0  0  0  0
    9.7024  -15.2712   22.7173 N   0  0  0  0  0  0  0  0  0  0  0  0
    9.6669  -15.2464   24.1918 C   0  0  1  0  0  0  0  0  0  0  0  0
    8.2326  -14.9250   24.5898 C   0  0  0  0  0  0  0  0  0  0  0  0
    8.1034  -13.7365   25.4773 C   0  0  0  0  0  0  0  0  0  0  0  0
    6.6721  -13.4388   25.8625 C   0  0  0  0  0  0  0  0  0  0  0  0
    6.7051  -12.1629   26.7031 C   0  0  0  0  0  0  0  0  0  0  0  0
    5.3168  -11.8455   27.0165 N   0  0  0  0  0  0  0  0  0  0  0  0
   10.1306  -16.5397   24.7383 C   0  0  0  0  0  0  0  0  0  0  0  0
   10.5985  -16.6417   26.0358 O   0  0  0  0  0  0  0  0  0  0  0  0
   10.1070  -17.5683   24.0311 O   0  0  0  0  0  0  0  0  0  0  0  0
  1  2  1  0
  2  3  1  0
  3  5  1  0
  3  4  1  6
  5  6  2  0
  7 11  1  0
  7  5  1  0
  8  7  1  0
  9  8  1  0
  9 10  1  0
 10 11  1  0
 11 12  1  1
 12 13  2  0
 12 14  1  0
 14 15  1  0
 15 21  1  0
 15 16  1  6
 17 16  1  0
 18 19  1  0
 18 17  1  0
 20 19  1  0
 21 23  2  0
 21 22  1  0
M  END
$$$$
