SPK.pdb
     RDKit          3D

 23 23  0  0  1  0  0  0  0  0999 V2000
    6.2503  -18.4214   20.7641 O   0  0  0  0  0  0  0  0  0  0  0  0
    5.8923  -17.8618   19.5557 C   0  0  0  0  0  0  0  0  0  0  0  0
    7.0335  -17.1348   18.8478 C   0  0  2  0  0  0  0  0  0  0  0  0
    7.8397  -18.2140   18.2393 N   0  0  0  0  0  0  0  0  0  0  0  0
    7.8904  -16.4144   19.8131 C   0  0  0  0  0  0  0  0  0  0  0  0
    8.9660  -16.9973   20.1631 O   0  0  0  0  0  0  0  0  0  0  0  0
    7.6252  -15.1529   20.3722 N   0  0  0  0  0  0  0  0  0  0  0  0
    6.4537  -14.3468   20.0663 C   0  0  0  0  0  0  0  0  0  0  0  0
    7.0516  -12.9677   19.9244 C   0  0  0  0  0  0  0  0  0  0  0  0
    8.2305  -12.9517   20.8416 C   0  0  0  0  0  0  0  0  0  0  0  0
    8.3785  -14.3657   21.3148 C   0  0  1  0  0  0  0  0  0  0  0  0
    7.8277  -14.5181   22.7123 C   0  0  0  0  0  0  0  0  0  0  0  0
    6.5777  -14.4560   22.8320 O   0  0  0  0  0  0  0  0  0  0  0  0
    8.6109  -14.7185   23.8528 N   0  0  0  0  0  0  0  0  0  0  0  0
    8.2604  -15.7027   24.8942 C   0  0  1  0  0  0  0  0  0  0  0  0
    7.9842  -17.0180   24.1781 C   0  0  0  0  0  0  0  0  0  0  0  0
    7.6645  -18.1486   25.0927 C   0  0  0  0  0  0  0  0  0  0  0  0
    7.4349  -19.4527   24.3631 C   0  0  0  0  0  0  0  0  0  0  0  0
    7.0146  -20.4734   25.4201 C   0  0  0  0  0  0  0  0  0  0  0  0
    6.8187  -21.7340   24.7139 N   0  0  0  0  0  0  0  0  0  0  0  0
    9.3535  -15.8146   25.8836 C   0  0  0  0  0  0  0  0  0  0  0  0
    9.0854  -15.9607   27.2326 O   0  0  0  0  0  0  0  0  0  0  0  0
   10.5453  -15.7785   25.5138 O   0  0  0  0  0  0  0  0  0  0  0  0
  1  2  1  0
  2  3  1  0
  3  5  1  0
  3  4  1  1
  5  6  2  0
  7 11  1  0
  7  5  1  0
  8  7  1  0
  9  8  1  0
  9 10  1  0
 10 11  1  0
 11 12  1  1
 12 13  2  0
 12 14  1  0
 14 15  1  0
 15 21  1  0
 15 16  1  6
 17 16  1  0
 18 19  1  0
 18 17  1  0
 20 19  1  0
 21 23  2  0
 21 22  1  0
M  END
$$$$
