SPK.pdb
     RDKit          3D

 23 23  0  0  1  0  0  0  0  0999 V2000
    6.7415  -17.7039   18.6141 O   0  0  0  0  0  0  0  0  0  0  0  0
    7.2398  -17.6565   17.3292 C   0  0  0  0  0  0  0  0  0  0  0  0
    7.7173  -16.2706   16.9011 C   0  0  2  0  0  0  0  0  0  0  0  0
    8.3999  -16.4961   15.6096 N   0  0  0  0  0  0  0  0  0  0  0  0
    8.7098  -15.7281   17.8528 C   0  0  0  0  0  0  0  0  0  0  0  0
    9.9209  -16.0727   17.6686 O   0  0  0  0  0  0  0  0  0  0  0  0
    8.4367  -14.8716   18.9327 N   0  0  0  0  0  0  0  0  0  0  0  0
    7.1087  -14.4015   19.2950 C   0  0  0  0  0  0  0  0  0  0  0  0
    7.3639  -12.9438   19.5941 C   0  0  0  0  0  0  0  0  0  0  0  0
    8.7659  -12.8848   20.1060 C   0  0  0  0  0  0  0  0  0  0  0  0
    9.3189  -14.2613   19.8944 C   0  0  1  0  0  0  0  0  0  0  0  0
    9.3273  -15.0350   21.1910 C   0  0  0  0  0  0  0  0  0  0  0  0
    8.2064  -15.3718   21.6500 O   0  0  0  0  0  0  0  0  0  0  0  0
   10.4836  -15.3880   21.8929 N   0  0  0  0  0  0  0  0  0  0  0  0
   10.5272  -16.5259   22.8307 C   0  0  1  0  0  0  0  0  0  0  0  0
   11.0965  -17.7083   22.0581 C   0  0  0  0  0  0  0  0  0  0  0  0
   11.2604  -18.9419   22.8754 C   0  0  0  0  0  0  0  0  0  0  0  0
   11.8429  -20.0968   22.0927 C   0  0  0  0  0  0  0  0  0  0  0  0
   11.9469  -21.2715   23.0648 C   0  0  0  0  0  0  0  0  0  0  0  0
   12.5636  -22.3631   22.3202 N   0  0  0  0  0  0  0  0  0  0  0  0
   11.3379  -16.1816   24.0184 C   0  0  0  0  0  0  0  0  0  0  0  0
   12.2865  -15.1762   23.9702 O   0  0  0  0  0  0  0  0  0  0  0  0
   11.1776  -16.7983   25.0919 O   0  0  0  0  0  0  0  0  0  0  0  0
  1  2  1  0
  2  3  1  0
  3  5  1  0
  3  4  1  6
  5  6  2  0
  7 11  1  0
  7  5  1  0
  8  7  1  0
  9  8  1  0
  9 10  1  0
 10 11  1  0
 11 12  1  1
 12 13  2  0
 12 14  1  0
 14 15  1  0
 15 21  1  0
 15 16  1  6
 17 16  1  0
 18 19  1  0
 18 17  1  0
 20 19  1  0
 21 23  2  0
 21 22  1  0
M  END
$$$$
