SPK.pdb
     RDKit          3D

 23 23  0  0  1  0  0  0  0  0999 V2000
    6.1155  -18.4516   20.9930 O   0  0  0  0  0  0  0  0  0  0  0  0
    5.6110  -17.6676   19.9770 C   0  0  0  0  0  0  0  0  0  0  0  0
    6.6779  -17.1104   19.0371 C   0  0  2  0  0  0  0  0  0  0  0  0
    7.2804  -18.3055   18.4100 N   0  0  0  0  0  0  0  0  0  0  0  0
    7.7384  -16.4058   19.7880 C   0  0  0  0  0  0  0  0  0  0  0  0
    8.8320  -17.0353   19.9524 O   0  0  0  0  0  0  0  0  0  0  0  0
    7.6470  -15.1127   20.3302 N   0  0  0  0  0  0  0  0  0  0  0  0
    6.4758  -14.2566   20.2242 C   0  0  0  0  0  0  0  0  0  0  0  0
    7.0954  -12.9173   19.9048 C   0  0  0  0  0  0  0  0  0  0  0  0
    8.4325  -12.9316   20.5705 C   0  0  0  0  0  0  0  0  0  0  0  0
    8.6074  -14.3336   21.0694 C   0  0  1  0  0  0  0  0  0  0  0  0
    8.3389  -14.4063   22.5534 C   0  0  0  0  0  0  0  0  0  0  0  0
    7.1767  -14.1068   22.9281 O   0  0  0  0  0  0  0  0  0  0  0  0
    9.2875  -14.7780   23.5107 N   0  0  0  0  0  0  0  0  0  0  0  0
    8.9700  -15.6774   24.6360 C   0  0  1  0  0  0  0  0  0  0  0  0
    8.4122  -16.9578   24.0289 C   0  0  0  0  0  0  0  0  0  0  0  0
    8.0921  -18.0121   25.0304 C   0  0  0  0  0  0  0  0  0  0  0  0
    7.6427  -19.3104   24.3993 C   0  0  0  0  0  0  0  0  0  0  0  0
    7.2743  -20.2473   25.5491 C   0  0  0  0  0  0  0  0  0  0  0  0
    6.7118  -21.4443   24.9350 N   0  0  0  0  0  0  0  0  0  0  0  0
   10.1759  -15.9179   25.4570 C   0  0  0  0  0  0  0  0  0  0  0  0
   11.4319  -15.9836   24.8816 O   0  0  0  0  0  0  0  0  0  0  0  0
   10.0784  -16.0669   26.6927 O   0  0  0  0  0  0  0  0  0  0  0  0
  1  2  1  0
  2  3  1  0
  3  5  1  0
  3  4  1  1
  5  6  2  0
  7 11  1  0
  7  5  1  0
  8  7  1  0
  9  8  1  0
  9 10  1  0
 10 11  1  0
 11 12  1  1
 12 13  2  0
 12 14  1  0
 14 15  1  0
 15 21  1  0
 15 16  1  6
 17 16  1  0
 18 19  1  0
 18 17  1  0
 20 19  1  0
 21 23  2  0
 21 22  1  0
M  END
$$$$
