SPK.pdb
     RDKit          3D

 23 23  0  0  1  0  0  0  0  0999 V2000
    8.3694  -18.0874   17.3217 O   0  0  0  0  0  0  0  0  0  0  0  0
    7.6188  -17.0338   16.8442 C   0  0  0  0  0  0  0  0  0  0  0  0
    8.4422  -15.7976   16.4898 C   0  0  2  0  0  0  0  0  0  0  0  0
    9.4358  -16.2826   15.5088 N   0  0  0  0  0  0  0  0  0  0  0  0
    9.1755  -15.2865   17.6671 C   0  0  0  0  0  0  0  0  0  0  0  0
   10.4278  -15.5105   17.6975 O   0  0  0  0  0  0  0  0  0  0  0  0
    8.6171  -14.5798   18.7455 N   0  0  0  0  0  0  0  0  0  0  0  0
    7.2208  -14.1820   18.8343 C   0  0  0  0  0  0  0  0  0  0  0  0
    7.3306  -12.7705   19.3588 C   0  0  0  0  0  0  0  0  0  0  0  0
    8.5691  -12.7543   20.1938 C   0  0  0  0  0  0  0  0  0  0  0  0
    9.2196  -14.0831   19.9563 C   0  0  1  0  0  0  0  0  0  0  0  0
    8.9595  -15.0160   21.1146 C   0  0  0  0  0  0  0  0  0  0  0  0
    7.8629  -15.6310   21.1037 O   0  0  0  0  0  0  0  0  0  0  0  0
    9.8477  -15.2282   22.1732 N   0  0  0  0  0  0  0  0  0  0  0  0
   10.2418  -16.5773   22.6211 C   0  0  1  0  0  0  0  0  0  0  0  0
   11.0778  -17.1833   21.5017 C   0  0  0  0  0  0  0  0  0  0  0  0
   10.4233  -18.3282   20.8105 C   0  0  0  0  0  0  0  0  0  0  0  0
   11.2322  -18.8580   19.6483 C   0  0  0  0  0  0  0  0  0  0  0  0
   10.4176  -19.9968   19.0358 C   0  0  0  0  0  0  0  0  0  0  0  0
   11.1655  -20.4511   17.8693 N   0  0  0  0  0  0  0  0  0  0  0  0
   10.9792  -16.4985   23.9003 C   0  0  0  0  0  0  0  0  0  0  0  0
   11.7645  -15.4021   24.2072 O   0  0  0  0  0  0  0  0  0  0  0  0
   10.9041  -17.4283   24.7300 O   0  0  0  0  0  0  0  0  0  0  0  0
  1  2  1  0
  2  3  1  0
  3  5  1  0
  3  4  1  6
  5  6  2  0
  7 11  1  0
  7  5  1  0
  8  7  1  0
  9  8  1  0
  9 10  1  0
 10 11  1  0
 11 12  1  1
 12 13  2  0
 12 14  1  0
 14 15  1  0
 15 21  1  0
 15 16  1  6
 17 16  1  0
 18 19  1  0
 18 17  1  0
 20 19  1  0
 21 23  2  0
 21 22  1  0
M  END
$$$$
