SPK.pdb
     RDKit          3D

 23 23  0  0  1  0  0  0  0  0999 V2000
    5.9768  -18.6514   17.9470 O   0  0  0  0  0  0  0  0  0  0  0  0
    6.9148  -18.0514   18.7605 C   0  0  0  0  0  0  0  0  0  0  0  0
    7.7511  -16.9839   18.0583 C   0  0  2  0  0  0  0  0  0  0  0  0
    8.6024  -17.7402   17.1159 N   0  0  0  0  0  0  0  0  0  0  0  0
    8.6371  -16.2840   19.0123 C   0  0  0  0  0  0  0  0  0  0  0  0
    9.8491  -16.6701   19.0502 O   0  0  0  0  0  0  0  0  0  0  0  0
    8.2630  -15.2378   19.8724 N   0  0  0  0  0  0  0  0  0  0  0  0
    6.9205  -14.6849   19.9606 C   0  0  0  0  0  0  0  0  0  0  0  0
    7.1966  -13.2018   20.0230 C   0  0  0  0  0  0  0  0  0  0  0  0
    8.5217  -13.0747   20.7008 C   0  0  0  0  0  0  0  0  0  0  0  0
    9.0382  -14.4763   20.8185 C   0  0  1  0  0  0  0  0  0  0  0  0
    8.8453  -14.9969   22.2225 C   0  0  0  0  0  0  0  0  0  0  0  0
    7.7068  -15.4525   22.5000 O   0  0  0  0  0  0  0  0  0  0  0  0
    9.8375  -14.9997   23.2075 N   0  0  0  0  0  0  0  0  0  0  0  0
   10.1783  -16.2041   23.9881 C   0  0  1  0  0  0  0  0  0  0  0  0
   10.6242  -17.2623   22.9879 C   0  0  0  0  0  0  0  0  0  0  0  0
   11.0592  -18.5410   23.6145 C   0  0  0  0  0  0  0  0  0  0  0  0
   11.4472  -19.5940   22.6014 C   0  0  0  0  0  0  0  0  0  0  0  0
   11.7834  -20.8564   23.3945 C   0  0  0  0  0  0  0  0  0  0  0  0
   12.1786  -21.8605   22.4137 N   0  0  0  0  0  0  0  0  0  0  0  0
   11.2239  -15.8905   24.9855 C   0  0  0  0  0  0  0  0  0  0  0  0
   11.1180  -16.3257   26.2940 O   0  0  0  0  0  0  0  0  0  0  0  0
   12.2267  -15.2223   24.6594 O   0  0  0  0  0  0  0  0  0  0  0  0
  1  2  1  0
  2  3  1  0
  3  5  1  0
  3  4  1  6
  5  6  2  0
  7 11  1  0
  7  5  1  0
  8  7  1  0
  9  8  1  0
  9 10  1  0
 10 11  1  0
 11 12  1  1
 12 13  2  0
 12 14  1  0
 14 15  1  0
 15 21  1  0
 15 16  1  6
 17 16  1  0
 18 19  1  0
 18 17  1  0
 20 19  1  0
 21 23  2  0
 21 22  1  0
M  END
$$$$
