PCL.pdb
     RDKit          3D

 22 22  0  0  1  0  0  0  0  0999 V2000
   27.0500  -21.8599  -14.6248 N   0  0  0  0  0  0  0  0  0  0  0  0
   27.3824  -22.1412  -16.0134 C   0  0  0  0  0  0  0  0  0  0  0  0
   26.8822  -20.8679  -16.6898 C   0  0  0  0  0  0  0  0  0  0  0  0
   27.2206  -19.7574  -15.6954 C   0  0  0  0  0  0  0  0  0  0  0  0
   27.5518  -20.5109  -14.4528 C   0  0  1  0  0  0  0  0  0  0  0  0
   27.0611  -19.9292  -13.2039 C   0  0  0  0  0  0  0  0  0  0  0  0
   27.4208  -18.7246  -12.9601 O   0  0  0  0  0  0  0  0  0  0  0  0
   26.2329  -20.6446  -12.3021 N   0  0  0  0  0  0  0  0  0  0  0  0
   25.6558  -19.9513  -11.1753 C   0  0  1  0  0  0  0  0  0  0  0  0
   24.1326  -20.0237  -11.3202 C   0  0  0  0  0  0  0  0  0  0  0  0
   23.4954  -21.5503  -10.6036 S   0  0  0  0  0  0  0  0  0  0  0  0
   26.0831  -20.5503   -9.8841 C   0  0  0  0  0  0  0  0  0  0  0  0
   26.2739  -21.7767   -9.7528 O   0  0  0  0  0  0  0  0  0  0  0  0
   29.4125  -18.5534   -5.3408 C   0  0  0  0  0  0  0  0  0  0  0  0
   28.6714  -19.6151   -6.0740 C   0  0  1  0  0  0  0  0  0  0  0  0
   28.6408  -20.8396   -5.1451 C   0  0  0  0  0  0  0  0  0  0  0  0
   27.3421  -19.3091   -6.6163 C   0  0  0  0  0  0  0  0  0  0  0  0
   26.5900  -20.2929   -7.4068 C   0  0  2  0  0  0  0  0  0  0  0  0
   26.2887  -19.7303   -8.7486 N   0  0  0  0  0  0  0  0  0  0  0  0
   25.3901  -20.9009   -6.8812 C   0  0  0  0  0  0  0  0  0  0  0  0
   25.5382  -22.0252   -6.0236 O   0  0  0  0  0  0  0  0  0  0  0  0
   24.2043  -20.5577   -7.0883 O   0  0  0  0  0  0  0  0  0  0  0  0
  1  5  1  0
  2  3  1  0
  2  1  1  0
  3  4  1  0
  5  4  1  0
  6  8  1  0
  5  6  1  1
  7  6  2  0
  9 10  1  6
  9  8  1  0
 10 11  1  0
 12  9  1  0
 12 19  1  0
 13 12  2  0
 15 16  1  1
 15 14  1  0
 17 15  1  0
 18 19  1  0
 18 17  1  1
 20 21  1  0
 20 18  1  0
 22 20  2  0
M  END
$$$$
