PCL.pdb
     RDKit          3D

 22 22  0  0  1  0  0  0  0  0999 V2000
   28.4107  -21.6885  -15.8151 N   0  0  0  0  0  0  0  0  0  0  0  0
   28.8028  -22.1527  -17.1373 C   0  0  0  0  0  0  0  0  0  0  0  0
   28.0214  -21.1857  -18.0223 C   0  0  0  0  0  0  0  0  0  0  0  0
   28.0894  -19.8544  -17.2741 C   0  0  0  0  0  0  0  0  0  0  0  0
   28.5839  -20.2536  -15.9260 C   0  0  1  0  0  0  0  0  0  0  0  0
   27.9682  -19.5665  -14.7912 C   0  0  0  0  0  0  0  0  0  0  0  0
   27.9829  -18.2865  -14.8280 O   0  0  0  0  0  0  0  0  0  0  0  0
   27.3834  -20.2628  -13.7030 N   0  0  0  0  0  0  0  0  0  0  0  0
   26.1446  -19.7790  -13.1419 C   0  0  1  0  0  0  0  0  0  0  0  0
   25.0980  -19.7860  -14.2605 C   0  0  0  0  0  0  0  0  0  0  0  0
   23.5862  -18.9630  -13.7249 S   0  0  0  0  0  0  0  0  0  0  0  0
   25.6922  -20.6194  -12.0029 C   0  0  0  0  0  0  0  0  0  0  0  0
   25.4042  -21.8257  -12.1420 O   0  0  0  0  0  0  0  0  0  0  0  0
   27.5110  -19.1610   -6.9704 C   0  0  0  0  0  0  0  0  0  0  0  0
   27.0702  -19.9516   -8.1515 C   0  0  1  0  0  0  0  0  0  0  0  0
   27.9448  -21.2157   -8.1749 C   0  0  0  0  0  0  0  0  0  0  0  0
   25.6455  -20.2716   -8.3012 C   0  0  0  0  0  0  0  0  0  0  0  0
   25.1165  -20.8603   -9.5390 C   0  0  2  0  0  0  0  0  0  0  0  0
   25.5740  -20.0632  -10.7065 N   0  0  0  0  0  0  0  0  0  0  0  0
   23.7047  -21.1257   -9.6860 C   0  0  0  0  0  0  0  0  0  0  0  0
   23.0095  -20.4540  -10.7287 O   0  0  0  0  0  0  0  0  0  0  0  0
   22.9938  -21.8909   -8.9961 O   0  0  0  0  0  0  0  0  0  0  0  0
  1  5  1  0
  2  3  1  0
  2  1  1  0
  3  4  1  0
  5  4  1  0
  6  8  1  0
  5  6  1  1
  7  6  2  0
  9 10  1  6
  9  8  1  0
 10 11  1  0
 12  9  1  0
 12 19  1  0
 13 12  2  0
 15 16  1  1
 15 14  1  0
 17 15  1  0
 18 19  1  0
 18 17  1  1
 20 21  1  0
 20 18  1  0
 22 20  2  0
M  END
$$$$
