PCL.pdb
     RDKit          3D

 22 22  0  0  1  0  0  0  0  0999 V2000
   18.1940  -13.9334  -17.5295 N   0  0  0  0  0  0  0  0  0  0  0  0
   17.9820  -15.3540  -17.7632 C   0  0  0  0  0  0  0  0  0  0  0  0
   18.5987  -15.5099  -19.1504 C   0  0  0  0  0  0  0  0  0  0  0  0
   19.8135  -14.5824  -19.1269 C   0  0  0  0  0  0  0  0  0  0  0  0
   19.5836  -13.7613  -17.9044 C   0  0  1  0  0  0  0  0  0  0  0  0
   19.9198  -12.3424  -18.0163 C   0  0  0  0  0  0  0  0  0  0  0  0
   21.1376  -12.0695  -18.3036 O   0  0  0  0  0  0  0  0  0  0  0  0
   18.9636  -11.3136  -17.8206 N   0  0  0  0  0  0  0  0  0  0  0  0
   19.3690   -9.9370  -17.9768 C   0  0  1  0  0  0  0  0  0  0  0  0
   18.3146   -9.2414  -18.8433 C   0  0  0  0  0  0  0  0  0  0  0  0
   16.6788   -9.3905  -18.1005 S   0  0  0  0  0  0  0  0  0  0  0  0
   19.4979   -9.2502  -16.6653 C   0  0  0  0  0  0  0  0  0  0  0  0
   18.7000   -9.4553  -15.7278 O   0  0  0  0  0  0  0  0  0  0  0  0
   23.2175  -10.1253  -13.3292 C   0  0  0  0  0  0  0  0  0  0  0  0
   21.9348   -9.5007  -13.7520 C   0  0  1  0  0  0  0  0  0  0  0  0
   21.0670   -9.3991  -12.4872 C   0  0  0  0  0  0  0  0  0  0  0  0
   21.9711   -8.2332  -14.4914 C   0  0  0  0  0  0  0  0  0  0  0  0
   20.7665   -7.6777  -15.1231 C   0  0  2  0  0  0  0  0  0  0  0  0
   20.5486   -8.3282  -16.4411 N   0  0  0  0  0  0  0  0  0  0  0  0
   20.6059   -6.2512  -15.2804 C   0  0  0  0  0  0  0  0  0  0  0  0
   20.5763   -5.7298  -16.6029 O   0  0  0  0  0  0  0  0  0  0  0  0
   20.4864   -5.3905  -14.3795 O   0  0  0  0  0  0  0  0  0  0  0  0
  1  5  1  0
  2  3  1  0
  2  1  1  0
  3  4  1  0
  5  4  1  0
  6  8  1  0
  5  6  1  6
  7  6  2  0
  9 10  1  6
  9  8  1  0
 10 11  1  0
 12  9  1  0
 12 19  1  0
 13 12  2  0
 15 16  1  1
 15 14  1  0
 17 15  1  0
 18 19  1  0
 18 17  1  6
 20 21  1  0
 20 18  1  0
 22 20  2  0
M  END
$$$$
