PCL.pdb
     RDKit          3D

 22 22  0  0  1  0  0  0  0  0999 V2000
   26.0658  -22.8286  -16.6997 N   0  0  0  0  0  0  0  0  0  0  0  0
   26.1655  -23.3825  -18.0417 C   0  0  0  0  0  0  0  0  0  0  0  0
   26.6692  -22.1671  -18.8150 C   0  0  0  0  0  0  0  0  0  0  0  0
   27.6349  -21.4817  -17.8485 C   0  0  0  0  0  0  0  0  0  0  0  0
   27.3373  -22.1490  -16.5494 C   0  0  1  0  0  0  0  0  0  0  0  0
   27.3262  -21.2798  -15.3733 C   0  0  0  0  0  0  0  0  0  0  0  0
   28.3777  -20.5751  -15.1795 O   0  0  0  0  0  0  0  0  0  0  0  0
   26.2216  -21.2090  -14.4868 N   0  0  0  0  0  0  0  0  0  0  0  0
   26.2336  -20.2324  -13.4240 C   0  0  1  0  0  0  0  0  0  0  0  0
   25.0775  -19.2602  -13.6782 C   0  0  0  0  0  0  0  0  0  0  0  0
   23.4933  -20.1166  -13.5942 S   0  0  0  0  0  0  0  0  0  0  0  0
   26.0906  -20.8709  -12.0896 C   0  0  0  0  0  0  0  0  0  0  0  0
   25.5079  -21.9638  -11.9363 O   0  0  0  0  0  0  0  0  0  0  0  0
   27.2303  -21.3688   -6.5938 C   0  0  0  0  0  0  0  0  0  0  0  0
   26.8056  -20.0511   -7.1391 C   0  0  1  0  0  0  0  0  0  0  0  0
   27.5439  -18.9846   -6.3141 C   0  0  0  0  0  0  0  0  0  0  0  0
   26.9277  -19.8057   -8.5811 C   0  0  0  0  0  0  0  0  0  0  0  0
   26.1926  -20.6146   -9.5629 C   0  0  2  0  0  0  0  0  0  0  0  0
   26.6215  -20.2443  -10.9365 N   0  0  0  0  0  0  0  0  0  0  0  0
   24.7505  -20.6827   -9.5323 C   0  0  0  0  0  0  0  0  0  0  0  0
   24.1529  -21.7484   -8.8051 O   0  0  0  0  0  0  0  0  0  0  0  0
   23.9358  -19.9046  -10.0778 O   0  0  0  0  0  0  0  0  0  0  0  0
  1  5  1  0
  2  3  1  0
  2  1  1  0
  3  4  1  0
  5  4  1  0
  6  8  1  0
  5  6  1  1
  7  6  2  0
  9 10  1  6
  9  8  1  0
 10 11  1  0
 12  9  1  0
 12 19  1  0
 13 12  2  0
 15 16  1  1
 15 14  1  0
 17 15  1  0
 18 19  1  0
 18 17  1  1
 20 21  1  0
 20 18  1  0
 22 20  2  0
M  END
$$$$
