PCL.pdb
     RDKit          3D

 22 22  0  0  1  0  0  0  0  0999 V2000
   27.5559  -17.9174  -15.0628 N   0  0  0  0  0  0  0  0  0  0  0  0
   27.7960  -16.9629  -16.1347 C   0  0  0  0  0  0  0  0  0  0  0  0
   26.6455  -17.2992  -17.0791 C   0  0  0  0  0  0  0  0  0  0  0  0
   25.4755  -17.6143  -16.1472 C   0  0  0  0  0  0  0  0  0  0  0  0
   26.1358  -17.7591  -14.8189 C   0  0  1  0  0  0  0  0  0  0  0  0
   25.6310  -18.8374  -13.9696 C   0  0  0  0  0  0  0  0  0  0  0  0
   24.3746  -18.8230  -13.7222 O   0  0  0  0  0  0  0  0  0  0  0  0
   26.4715  -19.8500  -13.4411 N   0  0  0  0  0  0  0  0  0  0  0  0
   25.8814  -20.9372  -12.6972 C   0  0  1  0  0  0  0  0  0  0  0  0
   26.2621  -22.2408  -13.4058 C   0  0  0  0  0  0  0  0  0  0  0  0
   27.1358  -21.8987  -14.9451 S   0  0  0  0  0  0  0  0  0  0  0  0
   26.3511  -20.9568  -11.2874 C   0  0  0  0  0  0  0  0  0  0  0  0
   27.5620  -21.0223  -10.9926 O   0  0  0  0  0  0  0  0  0  0  0  0
   28.5552  -20.5439   -6.6410 C   0  0  0  0  0  0  0  0  0  0  0  0
   27.3041  -19.8696   -7.0816 C   0  0  1  0  0  0  0  0  0  0  0  0
   27.4706  -18.3815   -6.7336 C   0  0  0  0  0  0  0  0  0  0  0  0
   26.8434  -20.0582   -8.4625 C   0  0  0  0  0  0  0  0  0  0  0  0
   25.8265  -21.0626   -8.8026 C   0  0  2  0  0  0  0  0  0  0  0  0
   25.4199  -20.9006  -10.2226 N   0  0  0  0  0  0  0  0  0  0  0  0
   24.6379  -21.2126   -7.9964 C   0  0  0  0  0  0  0  0  0  0  0  0
   24.7746  -21.8313   -6.7235 O   0  0  0  0  0  0  0  0  0  0  0  0
   23.4710  -20.8595   -8.2801 O   0  0  0  0  0  0  0  0  0  0  0  0
  1  5  1  0
  2  3  1  0
  2  1  1  0
  3  4  1  0
  5  4  1  0
  6  8  1  0
  5  6  1  6
  7  6  2  0
  9 10  1  6
  9  8  1  0
 10 11  1  0
 12  9  1  0
 12 19  1  0
 13 12  2  0
 15 16  1  6
 15 14  1  0
 17 15  1  0
 18 19  1  0
 18 17  1  1
 20 21  1  0
 20 18  1  0
 22 20  2  0
M  END
$$$$
