PCL.pdb
     RDKit          3D

 22 22  0  0  1  0  0  0  0  0999 V2000
   27.3968  -22.0707  -15.1030 N   0  0  0  0  0  0  0  0  0  0  0  0
   27.8040  -22.3186  -16.4779 C   0  0  0  0  0  0  0  0  0  0  0  0
   27.4247  -20.9927  -17.1312 C   0  0  0  0  0  0  0  0  0  0  0  0
   27.7599  -19.9433  -16.0715 C   0  0  0  0  0  0  0  0  0  0  0  0
   27.9633  -20.7621  -14.8428 C   0  0  1  0  0  0  0  0  0  0  0  0
   27.4251  -20.1995  -13.6048 C   0  0  0  0  0  0  0  0  0  0  0  0
   27.8201  -19.0203  -13.2995 O   0  0  0  0  0  0  0  0  0  0  0  0
   26.5162  -20.9063  -12.7770 N   0  0  0  0  0  0  0  0  0  0  0  0
   25.7583  -20.1819  -11.7848 C   0  0  1  0  0  0  0  0  0  0  0  0
   24.2903  -20.2006  -12.2218 C   0  0  0  0  0  0  0  0  0  0  0  0
   23.2101  -20.5263  -10.8157 S   0  0  0  0  0  0  0  0  0  0  0  0
   25.9052  -20.7836  -10.4340 C   0  0  0  0  0  0  0  0  0  0  0  0
   25.8771  -22.0179  -10.2511 O   0  0  0  0  0  0  0  0  0  0  0  0
   28.8681  -18.4461   -6.0784 C   0  0  0  0  0  0  0  0  0  0  0  0
   28.2411  -19.4818   -6.9434 C   0  0  1  0  0  0  0  0  0  0  0  0
   28.8559  -20.8261   -6.5213 C   0  0  0  0  0  0  0  0  0  0  0  0
   26.7770  -19.5523   -7.0205 C   0  0  0  0  0  0  0  0  0  0  0  0
   26.0997  -20.5003   -7.9156 C   0  0  2  0  0  0  0  0  0  0  0  0
   26.0841  -19.9572   -9.2986 N   0  0  0  0  0  0  0  0  0  0  0  0
   24.7820  -21.0004   -7.6013 C   0  0  0  0  0  0  0  0  0  0  0  0
   24.6839  -22.0665   -6.6655 O   0  0  0  0  0  0  0  0  0  0  0  0
   23.6850  -20.6071   -8.0580 O   0  0  0  0  0  0  0  0  0  0  0  0
  1  5  1  0
  2  3  1  0
  2  1  1  0
  3  4  1  0
  5  4  1  0
  6  8  1  0
  5  6  1  1
  7  6  2  0
  9 10  1  6
  9  8  1  0
 10 11  1  0
 12  9  1  0
 12 19  1  0
 13 12  2  0
 15 16  1  1
 15 14  1  0
 17 15  1  0
 18 19  1  0
 18 17  1  1
 20 21  1  0
 20 18  1  0
 22 20  2  0
M  END
$$$$
