PCL.pdb
     RDKit          3D

 22 22  0  0  1  0  0  0  0  0999 V2000
   36.7470  -25.9935    5.1134 N   0  0  0  0  0  0  0  0  0  0  0  0
   37.7557  -26.8714    4.5392 C   0  0  0  0  0  0  0  0  0  0  0  0
   38.6450  -25.8562    3.8270 C   0  0  0  0  0  0  0  0  0  0  0  0
   38.6622  -24.6495    4.7652 C   0  0  0  0  0  0  0  0  0  0  0  0
   37.5513  -24.9473    5.7131 C   0  0  1  0  0  0  0  0  0  0  0  0
   36.7189  -23.8084    6.0987 C   0  0  0  0  0  0  0  0  0  0  0  0
   37.3193  -22.8396    6.6827 O   0  0  0  0  0  0  0  0  0  0  0  0
   35.3239  -23.7627    5.8478 N   0  0  0  0  0  0  0  0  0  0  0  0
   34.5523  -22.6559    6.3609 C   0  0  1  0  0  0  0  0  0  0  0  0
   33.1854  -22.6874    5.6703 C   0  0  0  0  0  0  0  0  0  0  0  0
   32.1372  -21.3482    6.2687 S   0  0  0  0  0  0  0  0  0  0  0  0
   34.3903  -22.7362    7.8359 C   0  0  0  0  0  0  0  0  0  0  0  0
   34.1633  -23.8152    8.4205 O   0  0  0  0  0  0  0  0  0  0  0  0
   36.7094  -21.7542   12.7132 C   0  0  0  0  0  0  0  0  0  0  0  0
   35.7806  -20.7548   12.1194 C   0  0  1  0  0  0  0  0  0  0  0  0
   36.2882  -19.3747   12.5675 C   0  0  0  0  0  0  0  0  0  0  0  0
   35.5193  -20.7970   10.6756 C   0  0  0  0  0  0  0  0  0  0  0  0
   34.4329  -21.6119   10.1151 C   0  0  2  0  0  0  0  0  0  0  0  0
   34.4912  -21.5692    8.6310 N   0  0  0  0  0  0  0  0  0  0  0  0
   33.0651  -21.4050   10.5294 C   0  0  0  0  0  0  0  0  0  0  0  0
   32.1865  -20.7608    9.6158 O   0  0  0  0  0  0  0  0  0  0  0  0
   32.5379  -21.7275   11.6179 O   0  0  0  0  0  0  0  0  0  0  0  0
  1  5  1  0
  2  3  1  0
  2  1  1  0
  3  4  1  0
  5  4  1  0
  6  8  1  0
  5  6  1  6
  7  6  2  0
  9 10  1  6
  9  8  1  0
 10 11  1  0
 12  9  1  0
 12 19  1  0
 13 12  2  0
 15 16  1  6
 15 14  1  0
 17 15  1  0
 18 19  1  0
 18 17  1  1
 20 21  1  0
 20 18  1  0
 22 20  2  0
M  END
$$$$
