PCL.pdb
     RDKit          3D

 22 22  0  0  1  0  0  0  0  0999 V2000
   24.9448  -22.5103  -13.8692 N   0  0  0  0  0  0  0  0  0  0  0  0
   24.8204  -22.9503  -15.2507 C   0  0  0  0  0  0  0  0  0  0  0  0
   24.8090  -21.6084  -15.9774 C   0  0  0  0  0  0  0  0  0  0  0  0
   25.8041  -20.7505  -15.1961 C   0  0  0  0  0  0  0  0  0  0  0  0
   26.0169  -21.5379  -13.9486 C   0  0  1  0  0  0  0  0  0  0  0  0
   26.1076  -20.7622  -12.7121 C   0  0  0  0  0  0  0  0  0  0  0  0
   26.9719  -19.8173  -12.6981 O   0  0  0  0  0  0  0  0  0  0  0  0
   25.2923  -21.0279  -11.5826 N   0  0  0  0  0  0  0  0  0  0  0  0
   25.2680  -20.0807  -10.4937 C   0  0  1  0  0  0  0  0  0  0  0  0
   23.8033  -19.7175  -10.2311 C   0  0  0  0  0  0  0  0  0  0  0  0
   22.7869  -21.2027  -10.1239 S   0  0  0  0  0  0  0  0  0  0  0  0
   25.8921  -20.6391   -9.2660 C   0  0  0  0  0  0  0  0  0  0  0  0
   25.8550  -21.8575   -8.9984 O   0  0  0  0  0  0  0  0  0  0  0  0
   30.1085  -18.7225   -5.0704 C   0  0  0  0  0  0  0  0  0  0  0  0
   28.9849  -19.6332   -5.4199 C   0  0  1  0  0  0  0  0  0  0  0  0
   28.0535  -19.6580   -4.1971 C   0  0  0  0  0  0  0  0  0  0  0  0
   28.2433  -19.4018   -6.6653 C   0  0  0  0  0  0  0  0  0  0  0  0
   27.1521  -20.2911   -7.0862 C   0  0  2  0  0  0  0  0  0  0  0  0
   26.5573  -19.7876   -8.3513 N   0  0  0  0  0  0  0  0  0  0  0  0
   26.0831  -20.6302   -6.1764 C   0  0  0  0  0  0  0  0  0  0  0  0
   26.3052  -21.6954   -5.2611 O   0  0  0  0  0  0  0  0  0  0  0  0
   24.9556  -20.0941   -6.0865 O   0  0  0  0  0  0  0  0  0  0  0  0
  1  5  1  0
  2  3  1  0
  2  1  1  0
  3  4  1  0
  5  4  1  0
  6  8  1  0
  5  6  1  1
  7  6  2  0
  9 10  1  1
  9  8  1  0
 10 11  1  0
 12  9  1  0
 12 19  1  0
 13 12  2  0
 15 16  1  1
 15 14  1  0
 17 15  1  0
 18 19  1  0
 18 17  1  1
 20 21  1  0
 20 18  1  0
 22 20  2  0
M  END
$$$$
