PCL.pdb
     RDKit          3D

 22 22  0  0  1  0  0  0  0  0999 V2000
   20.0320  -12.3057  -18.0752 N   0  0  0  0  0  0  0  0  0  0  0  0
   19.9086  -13.6143  -18.6998 C   0  0  0  0  0  0  0  0  0  0  0  0
   19.4322  -14.4513  -17.5161 C   0  0  0  0  0  0  0  0  0  0  0  0
   18.4917  -13.5194  -16.7522 C   0  0  0  0  0  0  0  0  0  0  0  0
   18.7801  -12.1867  -17.3543 C   0  0  1  0  0  0  0  0  0  0  0  0
   18.8224  -11.0610  -16.4217 C   0  0  0  0  0  0  0  0  0  0  0  0
   17.7482  -10.8291  -15.7642 O   0  0  0  0  0  0  0  0  0  0  0  0
   19.9793  -10.2605  -16.2433 N   0  0  0  0  0  0  0  0  0  0  0  0
   19.9115   -9.1091  -15.3754 C   0  0  1  0  0  0  0  0  0  0  0  0
   21.2342   -9.0327  -14.6066 C   0  0  0  0  0  0  0  0  0  0  0  0
   21.2299   -7.6362  -13.4665 S   0  0  0  0  0  0  0  0  0  0  0  0
   19.6836   -7.8563  -16.1415 C   0  0  0  0  0  0  0  0  0  0  0  0
   20.3693   -7.5555  -17.1400 O   0  0  0  0  0  0  0  0  0  0  0  0
   16.1618   -4.3298  -18.5511 C   0  0  0  0  0  0  0  0  0  0  0  0
   16.5068   -4.1364  -17.1166 C   0  0  1  0  0  0  0  0  0  0  0  0
   15.2580   -3.5372  -16.4497 C   0  0  0  0  0  0  0  0  0  0  0  0
   17.0400   -5.2719  -16.3544 C   0  0  0  0  0  0  0  0  0  0  0  0
   18.4584   -5.6478  -16.4275 C   0  0  2  0  0  0  0  0  0  0  0  0
   18.6641   -6.9549  -15.7515 N   0  0  0  0  0  0  0  0  0  0  0  0
   19.4880   -4.7348  -15.9897 C   0  0  0  0  0  0  0  0  0  0  0  0
   20.1050   -3.9121  -16.9717 O   0  0  0  0  0  0  0  0  0  0  0  0
   19.9200   -4.5690  -14.8267 O   0  0  0  0  0  0  0  0  0  0  0  0
  1  5  1  0
  2  3  1  0
  2  1  1  0
  3  4  1  0
  5  4  1  0
  6  8  1  0
  5  6  1  1
  7  6  2  0
  9 10  1  6
  9  8  1  0
 10 11  1  0
 12  9  1  0
 12 19  1  0
 13 12  2  0
 15 16  1  1
 15 14  1  0
 17 15  1  0
 18 19  1  0
 18 17  1  1
 20 21  1  0
 20 18  1  0
 22 20  2  0
M  END
$$$$
