PCL.pdb
     RDKit          3D

 22 22  0  0  1  0  0  0  0  0999 V2000
   27.3334  -21.2826  -14.7822 N   0  0  0  0  0  0  0  0  0  0  0  0
   27.8922  -21.2688  -16.1258 C   0  0  0  0  0  0  0  0  0  0  0  0
   27.4808  -19.8750  -16.5914 C   0  0  0  0  0  0  0  0  0  0  0  0
   27.6298  -19.0039  -15.3441 C   0  0  0  0  0  0  0  0  0  0  0  0
   27.7716  -20.0071  -14.2509 C   0  0  1  0  0  0  0  0  0  0  0  0
   27.0728  -19.6956  -13.0045 C   0  0  0  0  0  0  0  0  0  0  0  0
   27.3328  -18.5574  -12.4782 O   0  0  0  0  0  0  0  0  0  0  0  0
   26.1558  -20.5918  -12.3988 N   0  0  0  0  0  0  0  0  0  0  0  0
   25.4294  -20.1692  -11.2253 C   0  0  1  0  0  0  0  0  0  0  0  0
   23.9761  -20.6226  -11.3945 C   0  0  0  0  0  0  0  0  0  0  0  0
   23.0349  -20.3244   -9.8861 S   0  0  0  0  0  0  0  0  0  0  0  0
   26.0105  -20.7426   -9.9835 C   0  0  0  0  0  0  0  0  0  0  0  0
   26.1751  -21.9706   -9.8338 O   0  0  0  0  0  0  0  0  0  0  0  0
   29.2786  -20.6860   -5.5233 C   0  0  0  0  0  0  0  0  0  0  0  0
   28.1622  -19.7027   -5.5522 C   0  0  1  0  0  0  0  0  0  0  0  0
   28.6879  -18.4329   -4.8633 C   0  0  0  0  0  0  0  0  0  0  0  0
   27.5154  -19.3991   -6.8344 C   0  0  0  0  0  0  0  0  0  0  0  0
   26.7669  -20.4214   -7.5783 C   0  0  2  0  0  0  0  0  0  0  0  0
   26.3995  -19.8951   -8.9184 N   0  0  0  0  0  0  0  0  0  0  0  0
   25.6068  -21.0559   -6.9978 C   0  0  0  0  0  0  0  0  0  0  0  0
   25.7725  -22.3509   -6.4344 O   0  0  0  0  0  0  0  0  0  0  0  0
   24.4426  -20.6022   -6.9242 O   0  0  0  0  0  0  0  0  0  0  0  0
  1  5  1  0
  2  3  1  0
  2  1  1  0
  3  4  1  0
  5  4  1  0
  6  8  1  0
  5  6  1  1
  7  6  2  0
  9 10  1  6
  9  8  1  0
 10 11  1  0
 12  9  1  0
 12 19  1  0
 13 12  2  0
 15 16  1  6
 15 14  1  0
 17 15  1  0
 18 19  1  0
 18 17  1  1
 20 21  1  0
 20 18  1  0
 22 20  2  0
M  END
$$$$
