HSP.pdb
     RDKit          3D

 24 25  0  0  1  0  0  0  0  0999 V2000
   15.5922  -21.6256    0.2162 N   0  0  0  0  0  0  0  0  0  0  0  0
   15.3450  -21.5798    1.6335 C   0  0  1  0  0  0  0  0  0  0  0  0
   15.2564  -22.9668    2.2072 C   0  0  0  0  0  0  0  0  0  0  0  0
   14.0801  -23.6452    1.6254 C   0  0  0  0  0  0  0  0  0  0  0  0
   14.1285  -24.7436    0.7941 C   0  0  0  0  0  0  0  0  0  0  0  0
   12.8881  -25.0945    0.4573 N   0  0  0  0  0  0  0  0  0  0  0  0
   12.0510  -24.2445    1.0552 C   0  0  0  0  0  0  0  0  0  0  0  0
   12.7681  -23.3441    1.7796 N   0  0  0  0  0  0  0  0  0  0  0  0
   16.4388  -20.8118    2.3298 C   0  0  0  0  0  0  0  0  0  0  0  0
   17.6480  -21.1123    2.1624 O   0  0  0  0  0  0  0  0  0  0  0  0
   15.4186  -17.6015    4.9384 O   0  0  0  0  0  0  0  0  0  0  0  0
   16.5229  -17.5598    4.1379 C   0  0  0  0  0  0  0  0  0  0  0  0
   17.1647  -18.8988    3.8223 C   0  0  2  0  0  0  0  0  0  0  0  0
   16.1288  -19.7397    3.1840 N   0  0  0  0  0  0  0  0  0  0  0  0
   17.6760  -19.6078    5.0064 C   0  0  0  0  0  0  0  0  0  0  0  0
   16.9832  -20.6102    5.4273 O   0  0  0  0  0  0  0  0  0  0  0  0
   18.8409  -19.3091    5.7236 N   0  0  0  0  0  0  0  0  0  0  0  0
   19.7722  -18.2391    5.3136 C   0  0  0  0  0  0  0  0  0  0  0  0
   20.9821  -18.4017    6.1837 C   0  0  0  0  0  0  0  0  0  0  0  0
   20.8984  -19.8471    6.6237 C   0  0  0  0  0  0  0  0  0  0  0  0
   19.3806  -19.9231    6.9086 C   0  0  1  0  0  0  0  0  0  0  0  0
   19.2101  -19.0204    8.1010 C   0  0  0  0  0  0  0  0  0  0  0  0
   18.8573  -17.8377    8.0170 O   0  0  0  0  0  0  0  0  0  0  0  0
   19.4669  -19.5610    9.3537 O   0  0  0  0  0  0  0  0  0  0  0  0
  2  1  1  6
  3  2  1  0
  4  3  1  0
  5  4  2  0
  6  7  1  0
  6  5  1  0
  7  8  2  0
  8  4  1  0
  9  2  1  0
  9 10  2  0
 11 12  1  0
 13 12  1  1
 13 14  1  0
 13 15  1  0
 14  9  1  0
 15 17  1  0
 16 15  2  0
 17 21  1  0
 17 18  1  0
 19 18  1  0
 20 19  1  0
 21 20  1  0
 21 22  1  1
 22 23  2  0
 22 24  1  0
M  END
$$$$
