HSP.pdb
     RDKit          3D

 24 25  0  0  1  0  0  0  0  0999 V2000
   18.7394  -12.2227  -16.3699 N   0  0  0  0  0  0  0  0  0  0  0  0
   18.1375  -10.9797  -15.9643 C   0  0  1  0  0  0  0  0  0  0  0  0
   17.6397  -11.0622  -14.5479 C   0  0  0  0  0  0  0  0  0  0  0  0
   16.5360  -12.0425  -14.4907 C   0  0  0  0  0  0  0  0  0  0  0  0
   15.2341  -11.7941  -14.8692 C   0  0  0  0  0  0  0  0  0  0  0  0
   14.5061  -12.8950  -14.6872 N   0  0  0  0  0  0  0  0  0  0  0  0
   15.3149  -13.8388  -14.2014 C   0  0  0  0  0  0  0  0  0  0  0  0
   16.5701  -13.3311  -14.0736 N   0  0  0  0  0  0  0  0  0  0  0  0
   19.1311   -9.8534  -16.0879 C   0  0  0  0  0  0  0  0  0  0  0  0
   20.1992   -9.8570  -15.4250 O   0  0  0  0  0  0  0  0  0  0  0  0
   20.1780   -5.8343  -18.7323 O   0  0  0  0  0  0  0  0  0  0  0  0
   19.4169   -6.9157  -18.3953 C   0  0  0  0  0  0  0  0  0  0  0  0
   19.8498   -7.6699  -17.1510 C   0  0  2  0  0  0  0  0  0  0  0  0
   18.8833   -8.7714  -16.9501 N   0  0  0  0  0  0  0  0  0  0  0  0
   19.8752   -6.8442  -15.9329 C   0  0  0  0  0  0  0  0  0  0  0  0
   18.7729   -6.7519  -15.2707 O   0  0  0  0  0  0  0  0  0  0  0  0
   20.9748   -6.1494  -15.4146 N   0  0  0  0  0  0  0  0  0  0  0  0
   22.3254   -6.2499  -16.0028 C   0  0  0  0  0  0  0  0  0  0  0  0
   23.2401   -5.5643  -15.0328 C   0  0  0  0  0  0  0  0  0  0  0  0
   22.4656   -5.6154  -13.7338 C   0  0  0  0  0  0  0  0  0  0  0  0
   21.0609   -5.2689  -14.2788 C   0  0  1  0  0  0  0  0  0  0  0  0
   21.2091   -3.8386  -14.7238 C   0  0  0  0  0  0  0  0  0  0  0  0
   21.3233   -3.5005  -15.9082 O   0  0  0  0  0  0  0  0  0  0  0  0
   21.2158   -2.8603  -13.7387 O   0  0  0  0  0  0  0  0  0  0  0  0
  2  1  1  1
  3  2  1  0
  4  3  1  0
  5  4  2  0
  6  7  1  0
  6  5  1  0
  7  8  2  0
  8  4  1  0
  9  2  1  0
  9 10  2  0
 11 12  1  0
 13 12  1  6
 13 14  1  0
 13 15  1  0
 14  9  1  0
 15 17  1  0
 16 15  2  0
 17 21  1  0
 17 18  1  0
 19 18  1  0
 20 19  1  0
 21 20  1  0
 21 22  1  6
 22 23  2  0
 22 24  1  0
M  END
$$$$
