HSP.pdb
     RDKit          3D

 24 25  0  0  1  0  0  0  0  0999 V2000
   25.1543  -21.2549  -12.2030 N   0  0  0  0  0  0  0  0  0  0  0  0
   24.7511  -20.6176  -10.9770 C   0  0  1  0  0  0  0  0  0  0  0  0
   23.3023  -20.8910  -10.6820 C   0  0  0  0  0  0  0  0  0  0  0  0
   22.4841  -20.3482  -11.7858 C   0  0  0  0  0  0  0  0  0  0  0  0
   21.8917  -21.0997  -12.7779 C   0  0  0  0  0  0  0  0  0  0  0  0
   21.2316  -20.2915  -13.6062 N   0  0  0  0  0  0  0  0  0  0  0  0
   21.3902  -19.0424  -13.1641 C   0  0  0  0  0  0  0  0  0  0  0  0
   22.1595  -19.0581  -12.0427 N   0  0  0  0  0  0  0  0  0  0  0  0
   25.6021  -21.1026   -9.8318 C   0  0  0  0  0  0  0  0  0  0  0  0
   25.1590  -21.9400   -9.0054 O   0  0  0  0  0  0  0  0  0  0  0  0
   29.5944  -20.2473   -9.9849 O   0  0  0  0  0  0  0  0  0  0  0  0
   29.1876  -21.2244   -9.1237 C   0  0  0  0  0  0  0  0  0  0  0  0
   27.7890  -21.0673   -8.5547 C   0  0  2  0  0  0  0  0  0  0  0  0
   26.9139  -20.6271   -9.6630 N   0  0  0  0  0  0  0  0  0  0  0  0
   27.6961  -20.0801   -7.4672 C   0  0  0  0  0  0  0  0  0  0  0  0
   27.0458  -18.9962   -7.7207 O   0  0  0  0  0  0  0  0  0  0  0  0
   28.2383  -20.1964   -6.1815 N   0  0  0  0  0  0  0  0  0  0  0  0
   29.0455  -21.3600   -5.7636 C   0  0  0  0  0  0  0  0  0  0  0  0
   29.2242  -21.2162   -4.2821 C   0  0  0  0  0  0  0  0  0  0  0  0
   28.0725  -20.3201   -3.8815 C   0  0  0  0  0  0  0  0  0  0  0  0
   28.1364  -19.3109   -5.0510 C   0  0  1  0  0  0  0  0  0  0  0  0
   29.4398  -18.5956   -4.8156 C   0  0  0  0  0  0  0  0  0  0  0  0
   30.4558  -18.7869   -5.4948 O   0  0  0  0  0  0  0  0  0  0  0  0
   29.4854  -17.6759   -3.7767 O   0  0  0  0  0  0  0  0  0  0  0  0
  2  1  1  6
  3  2  1  0
  4  3  1  0
  5  4  2  0
  6  7  1  0
  6  5  1  0
  7  8  2  0
  8  4  1  0
  9  2  1  0
  9 10  2  0
 11 12  1  0
 13 12  1  6
 13 14  1  0
 13 15  1  0
 14  9  1  0
 15 17  1  0
 16 15  2  0
 17 21  1  0
 17 18  1  0
 19 18  1  0
 20 19  1  0
 21 20  1  0
 21 22  1  1
 22 23  2  0
 22 24  1  0
M  END
$$$$
