HSP.pdb
     RDKit          3D

 24 25  0  0  1  0  0  0  0  0999 V2000
   24.9814  -21.9440  -12.2411 N   0  0  0  0  0  0  0  0  0  0  0  0
   25.0497  -20.8556  -11.3017 C   0  0  1  0  0  0  0  0  0  0  0  0
   23.6812  -20.5058  -10.7861 C   0  0  0  0  0  0  0  0  0  0  0  0
   22.8699  -19.9919  -11.9086 C   0  0  0  0  0  0  0  0  0  0  0  0
   21.9144  -20.7130  -12.5921 C   0  0  0  0  0  0  0  0  0  0  0  0
   21.3788  -19.9447  -13.5397 N   0  0  0  0  0  0  0  0  0  0  0  0
   21.9714  -18.7508  -13.4751 C   0  0  0  0  0  0  0  0  0  0  0  0
   22.8935  -18.7615  -12.4754 N   0  0  0  0  0  0  0  0  0  0  0  0
   25.9493  -21.2171  -10.1480 C   0  0  0  0  0  0  0  0  0  0  0  0
   25.7014  -22.2125   -9.4212 O   0  0  0  0  0  0  0  0  0  0  0  0
   30.4677  -20.8128   -8.4790 O   0  0  0  0  0  0  0  0  0  0  0  0
   29.4389  -20.6575   -9.3619 C   0  0  0  0  0  0  0  0  0  0  0  0
   28.0420  -20.7976   -8.7846 C   0  0  2  0  0  0  0  0  0  0  0  0
   27.0884  -20.4461   -9.8592 N   0  0  0  0  0  0  0  0  0  0  0  0
   27.7849  -19.9231   -7.6290 C   0  0  0  0  0  0  0  0  0  0  0  0
   27.1130  -18.8460   -7.8538 O   0  0  0  0  0  0  0  0  0  0  0  0
   28.1915  -20.1406   -6.3069 N   0  0  0  0  0  0  0  0  0  0  0  0
   28.9260  -21.3526   -5.8923 C   0  0  0  0  0  0  0  0  0  0  0  0
   28.9571  -21.3129   -4.3940 C   0  0  0  0  0  0  0  0  0  0  0  0
   27.7912  -20.4122   -4.0489 C   0  0  0  0  0  0  0  0  0  0  0  0
   27.9957  -19.3296   -5.1337 C   0  0  1  0  0  0  0  0  0  0  0  0
   29.2843  -18.6701   -4.7209 C   0  0  0  0  0  0  0  0  0  0  0  0
   30.3688  -18.8831   -5.2767 O   0  0  0  0  0  0  0  0  0  0  0  0
   29.2339  -17.7782   -3.6582 O   0  0  0  0  0  0  0  0  0  0  0  0
  2  1  1  6
  3  2  1  0
  4  3  1  0
  5  4  2  0
  6  7  1  0
  6  5  1  0
  7  8  2  0
  8  4  1  0
  9  2  1  0
  9 10  2  0
 11 12  1  0
 13 12  1  6
 13 14  1  0
 13 15  1  0
 14  9  1  0
 15 17  1  0
 16 15  2  0
 17 21  1  0
 17 18  1  0
 19 18  1  0
 20 19  1  0
 21 20  1  0
 21 22  1  1
 22 23  2  0
 22 24  1  0
M  END
$$$$
