HSP.pdb
     RDKit          3D

 24 25  0  0  1  0  0  0  0  0999 V2000
   17.7512  -15.7469  -16.4223 N   0  0  0  0  0  0  0  0  0  0  0  0
   17.3876  -14.4097  -16.0330 C   0  0  1  0  0  0  0  0  0  0  0  0
   16.8060  -14.3945  -14.6465 C   0  0  0  0  0  0  0  0  0  0  0  0
   15.4840  -15.0529  -14.6808 C   0  0  0  0  0  0  0  0  0  0  0  0
   15.2395  -16.3606  -14.3201 C   0  0  0  0  0  0  0  0  0  0  0  0
   13.9422  -16.6231  -14.4726 N   0  0  0  0  0  0  0  0  0  0  0  0
   13.3551  -15.5123  -14.9222 C   0  0  0  0  0  0  0  0  0  0  0  0
   14.2902  -14.5339  -15.0566 N   0  0  0  0  0  0  0  0  0  0  0  0
   18.5910  -13.5042  -16.0881 C   0  0  0  0  0  0  0  0  0  0  0  0
   19.7121  -13.8916  -15.6715 O   0  0  0  0  0  0  0  0  0  0  0  0
   18.4009   -9.6472  -18.0755 O   0  0  0  0  0  0  0  0  0  0  0  0
   19.4168  -10.5577  -18.1056 C   0  0  0  0  0  0  0  0  0  0  0  0
   19.6573  -11.3263  -16.8188 C   0  0  2  0  0  0  0  0  0  0  0  0
   18.4847  -12.2029  -16.6083 N   0  0  0  0  0  0  0  0  0  0  0  0
   19.8165  -10.4682  -15.6337 C   0  0  0  0  0  0  0  0  0  0  0  0
   18.7691  -10.2845  -14.9048 O   0  0  0  0  0  0  0  0  0  0  0  0
   20.9901   -9.8317  -15.2117 N   0  0  0  0  0  0  0  0  0  0  0  0
   22.2584   -9.9287  -15.9615 C   0  0  0  0  0  0  0  0  0  0  0  0
   23.3013   -9.3240  -15.0704 C   0  0  0  0  0  0  0  0  0  0  0  0
   22.6840   -9.4343  -13.6933 C   0  0  0  0  0  0  0  0  0  0  0  0
   21.2360   -9.0229  -14.0464 C   0  0  1  0  0  0  0  0  0  0  0  0
   21.3744   -7.5725  -14.4243 C   0  0  0  0  0  0  0  0  0  0  0  0
   21.3966   -7.1709  -15.5942 O   0  0  0  0  0  0  0  0  0  0  0  0
   21.4815   -6.6505  -13.3919 O   0  0  0  0  0  0  0  0  0  0  0  0
  2  1  1  1
  3  2  1  0
  4  3  1  0
  5  4  2  0
  6  7  1  0
  6  5  1  0
  7  8  2  0
  8  4  1  0
  9  2  1  0
  9 10  2  0
 11 12  1  0
 13 12  1  6
 13 14  1  0
 13 15  1  0
 14  9  1  0
 15 17  1  0
 16 15  2  0
 17 21  1  0
 17 18  1  0
 19 18  1  0
 20 19  1  0
 21 20  1  0
 21 22  1  6
 22 23  2  0
 22 24  1  0
M  END
$$$$
