HSP.pdb
     RDKit          3D

 24 25  0  0  1  0  0  0  0  0999 V2000
   25.6493  -20.8478  -20.2338 N   0  0  0  0  0  0  0  0  0  0  0  0
   25.0535  -20.0467  -19.1969 C   0  0  1  0  0  0  0  0  0  0  0  0
   23.5645  -20.2509  -19.1507 C   0  0  0  0  0  0  0  0  0  0  0  0
   22.9515  -19.5208  -20.2792 C   0  0  0  0  0  0  0  0  0  0  0  0
   22.6330  -20.0725  -21.5015 C   0  0  0  0  0  0  0  0  0  0  0  0
   22.0979  -19.1338  -22.2810 N   0  0  0  0  0  0  0  0  0  0  0  0
   22.0685  -17.9970  -21.5829 C   0  0  0  0  0  0  0  0  0  0  0  0
   22.5907  -18.2166  -20.3464 N   0  0  0  0  0  0  0  0  0  0  0  0
   25.6547  -20.3927  -17.8591 C   0  0  0  0  0  0  0  0  0  0  0  0
   25.9073  -21.5854  -17.5520 O   0  0  0  0  0  0  0  0  0  0  0  0
   28.3289  -18.1460  -15.6273 O   0  0  0  0  0  0  0  0  0  0  0  0
   27.1262  -18.4306  -15.0488 C   0  0  0  0  0  0  0  0  0  0  0  0
   26.4253  -19.6785  -15.5547 C   0  0  2  0  0  0  0  0  0  0  0  0
   25.9465  -19.3857  -16.9232 N   0  0  0  0  0  0  0  0  0  0  0  0
   25.2731  -20.0877  -14.7354 C   0  0  0  0  0  0  0  0  0  0  0  0
   24.1029  -19.8045  -15.1964 O   0  0  0  0  0  0  0  0  0  0  0  0
   25.3146  -20.7572  -13.5063 N   0  0  0  0  0  0  0  0  0  0  0  0
   26.5823  -21.0785  -12.8208 C   0  0  0  0  0  0  0  0  0  0  0  0
   26.2096  -21.9874  -11.6883 C   0  0  0  0  0  0  0  0  0  0  0  0
   24.8789  -22.5582  -12.1281 C   0  0  0  0  0  0  0  0  0  0  0  0
   24.2411  -21.2689  -12.6951 C   0  0  1  0  0  0  0  0  0  0  0  0
   24.0459  -20.4159  -11.4703 C   0  0  0  0  0  0  0  0  0  0  0  0
   24.8548  -19.5557  -11.1014 O   0  0  0  0  0  0  0  0  0  0  0  0
   22.8908  -20.6192  -10.7274 O   0  0  0  0  0  0  0  0  0  0  0  0
  2  1  1  6
  3  2  1  0
  4  3  1  0
  5  4  2  0
  6  7  1  0
  6  5  1  0
  7  8  2  0
  8  4  1  0
  9  2  1  0
  9 10  2  0
 11 12  1  0
 13 12  1  1
 13 14  1  0
 13 15  1  0
 14  9  1  0
 15 17  1  0
 16 15  2  0
 17 21  1  0
 17 18  1  0
 19 18  1  0
 20 19  1  0
 21 20  1  0
 21 22  1  1
 22 23  2  0
 22 24  1  0
M  END
$$$$
