HSP.pdb
     RDKit          3D

 24 25  0  0  1  0  0  0  0  0999 V2000
   19.0950  -12.0047  -17.3343 N   0  0  0  0  0  0  0  0  0  0  0  0
   20.0500  -10.9330  -17.4408 C   0  0  1  0  0  0  0  0  0  0  0  0
   20.1613  -10.4534  -18.8616 C   0  0  0  0  0  0  0  0  0  0  0  0
   20.7054  -11.5492  -19.6895 C   0  0  0  0  0  0  0  0  0  0  0  0
   22.0454  -11.8217  -19.8636 C   0  0  0  0  0  0  0  0  0  0  0  0
   22.1785  -12.8744  -20.6693 N   0  0  0  0  0  0  0  0  0  0  0  0
   20.9538  -13.2785  -21.0122 C   0  0  0  0  0  0  0  0  0  0  0  0
   20.0331  -12.4732  -20.4175 N   0  0  0  0  0  0  0  0  0  0  0  0
   19.6500   -9.7864  -16.5484 C   0  0  0  0  0  0  0  0  0  0  0  0
   18.5939   -9.1385  -16.7612 O   0  0  0  0  0  0  0  0  0  0  0  0
   21.8938   -8.9436  -13.0263 O   0  0  0  0  0  0  0  0  0  0  0  0
   20.5738   -8.6328  -13.1775 C   0  0  0  0  0  0  0  0  0  0  0  0
   20.1356   -8.2641  -14.5834 C   0  0  2  0  0  0  0  0  0  0  0  0
   20.4523   -9.4161  -15.4554 N   0  0  0  0  0  0  0  0  0  0  0  0
   20.8088   -7.0719  -15.1234 C   0  0  0  0  0  0  0  0  0  0  0  0
   21.8282   -7.2759  -15.8858 O   0  0  0  0  0  0  0  0  0  0  0  0
   20.4551   -5.7360  -14.8982 N   0  0  0  0  0  0  0  0  0  0  0  0
   19.2429   -5.3523  -14.1474 C   0  0  0  0  0  0  0  0  0  0  0  0
   19.1027   -3.8718  -14.3366 C   0  0  0  0  0  0  0  0  0  0  0  0
   19.8914   -3.6097  -15.6012 C   0  0  0  0  0  0  0  0  0  0  0  0
   21.1065   -4.5231  -15.3190 C   0  0  1  0  0  0  0  0  0  0  0  0
   21.7794   -3.8481  -14.1539 C   0  0  0  0  0  0  0  0  0  0  0  0
   21.5915   -4.1731  -12.9752 O   0  0  0  0  0  0  0  0  0  0  0  0
   22.6540   -2.8076  -14.4362 O   0  0  0  0  0  0  0  0  0  0  0  0
  2  1  1  6
  3  2  1  0
  4  3  1  0
  5  4  2  0
  6  7  1  0
  6  5  1  0
  7  8  2  0
  8  4  1  0
  9  2  1  0
  9 10  2  0
 11 12  1  0
 13 12  1  1
 13 14  1  0
 13 15  1  0
 14  9  1  0
 15 17  1  0
 16 15  2  0
 17 21  1  0
 17 18  1  0
 19 18  1  0
 20 19  1  0
 21 20  1  0
 21 22  1  1
 22 23  2  0
 22 24  1  0
M  END
$$$$
