HSP.pdb
     RDKit          3D

 24 25  0  0  1  0  0  0  0  0999 V2000
   18.4096  -12.5548  -16.7973 N   0  0  0  0  0  0  0  0  0  0  0  0
   19.2351  -11.5691  -17.4444 C   0  0  1  0  0  0  0  0  0  0  0  0
   18.4162  -10.7017  -18.3599 C   0  0  0  0  0  0  0  0  0  0  0  0
   17.9008  -11.5350  -19.4655 C   0  0  0  0  0  0  0  0  0  0  0  0
   18.5843  -11.8222  -20.6275 C   0  0  0  0  0  0  0  0  0  0  0  0
   17.8265  -12.5968  -21.4027 N   0  0  0  0  0  0  0  0  0  0  0  0
   16.6761  -12.8093  -20.7607 C   0  0  0  0  0  0  0  0  0  0  0  0
   16.7041  -12.1624  -19.5647 N   0  0  0  0  0  0  0  0  0  0  0  0
   19.9266  -10.7109  -16.4167 C   0  0  0  0  0  0  0  0  0  0  0  0
   19.2836  -10.1888  -15.4709 O   0  0  0  0  0  0  0  0  0  0  0  0
   24.0814   -9.6787  -16.8455 O   0  0  0  0  0  0  0  0  0  0  0  0
   23.5153   -9.9939  -15.6446 C   0  0  0  0  0  0  0  0  0  0  0  0
   22.0411   -9.6622  -15.4984 C   0  0  2  0  0  0  0  0  0  0  0  0
   21.3100  -10.4752  -16.4945 N   0  0  0  0  0  0  0  0  0  0  0  0
   21.7241   -8.2440  -15.7311 C   0  0  0  0  0  0  0  0  0  0  0  0
   21.3616   -7.9182  -16.9247 O   0  0  0  0  0  0  0  0  0  0  0  0
   21.7715   -7.2093  -14.7889 N   0  0  0  0  0  0  0  0  0  0  0  0
   22.1113   -7.4429  -13.3711 C   0  0  0  0  0  0  0  0  0  0  0  0
   21.8196   -6.1513  -12.6681 C   0  0  0  0  0  0  0  0  0  0  0  0
   20.8340   -5.4706  -13.5928 C   0  0  0  0  0  0  0  0  0  0  0  0
   21.5056   -5.8031  -14.9451 C   0  0  1  0  0  0  0  0  0  0  0  0
   22.7844   -5.0107  -14.8967 C   0  0  0  0  0  0  0  0  0  0  0  0
   23.8707   -5.4884  -14.5472 O   0  0  0  0  0  0  0  0  0  0  0  0
   22.7225   -3.6742  -15.2673 O   0  0  0  0  0  0  0  0  0  0  0  0
  2  1  1  1
  3  2  1  0
  4  3  1  0
  5  4  2  0
  6  7  1  0
  6  5  1  0
  7  8  2  0
  8  4  1  0
  9  2  1  0
  9 10  2  0
 11 12  1  0
 13 12  1  6
 13 14  1  0
 13 15  1  0
 14  9  1  0
 15 17  1  0
 16 15  2  0
 17 21  1  0
 17 18  1  0
 19 18  1  0
 20 19  1  0
 21 20  1  0
 21 22  1  1
 22 23  2  0
 22 24  1  0
M  END
$$$$
