KHL.pdb
     RDKit          3D

 28 28  0  0  1  0  0  0  0  0999 V2000
   20.4359  -15.1596  -18.9975 N   0  0  0  0  0  0  0  0  0  0  0  0
   19.8781  -14.4082  -17.8884 C   0  0  1  0  0  0  0  0  0  0  0  0
   20.2938  -14.9811  -16.5597 C   0  0  0  0  0  0  0  0  0  0  0  0
   19.6965  -16.3412  -16.3861 C   0  0  0  0  0  0  0  0  0  0  0  0
   20.0151  -16.9581  -15.0639 C   0  0  0  0  0  0  0  0  0  0  0  0
   19.3988  -18.3436  -14.9505 C   0  0  0  0  0  0  0  0  0  0  0  0
   19.6297  -18.8282  -13.6084 N   0  0  0  0  0  0  0  0  0  0  0  0
   20.3449  -12.9940  -18.0056 C   0  0  0  0  0  0  0  0  0  0  0  0
   21.3955  -12.6964  -18.5882 O   0  0  0  0  0  0  0  0  0  0  0  0
   19.5516  -11.9782  -17.4284 N   0  0  0  0  0  0  0  0  0  0  0  0
   19.8277  -10.5630  -17.5549 C   0  0  1  0  0  0  0  0  0  0  0  0
   18.5013   -9.8759  -17.8048 C   0  0  0  0  0  0  0  0  0  0  0  0
   18.1050   -9.9455  -19.2258 C   0  0  0  0  0  0  0  0  0  0  0  0
   18.9671  -10.3750  -20.2181 C   0  0  0  0  0  0  0  0  0  0  0  0
   18.3262  -10.3271  -21.3917 N   0  0  0  0  0  0  0  0  0  0  0  0
   17.0769   -9.8780  -21.1739 C   0  0  0  0  0  0  0  0  0  0  0  0
   16.9636   -9.6517  -19.8473 N   0  0  0  0  0  0  0  0  0  0  0  0
   20.4805  -10.0860  -16.3274 C   0  0  0  0  0  0  0  0  0  0  0  0
   19.9118  -10.2855  -15.2207 O   0  0  0  0  0  0  0  0  0  0  0  0
   25.9660  -10.1842  -15.8966 C   0  0  0  0  0  0  0  0  0  0  0  0
   24.4915  -10.2766  -15.5666 C   0  0  1  0  0  0  0  0  0  0  0  0
   24.3975  -11.1238  -14.2932 C   0  0  0  0  0  0  0  0  0  0  0  0
   23.8882   -8.9534  -15.2502 C   0  0  0  0  0  0  0  0  0  0  0  0
   22.3971   -8.9274  -15.1312 C   0  0  2  0  0  0  0  0  0  0  0  0
   21.7347   -9.4039  -16.3267 N   0  0  0  0  0  0  0  0  0  0  0  0
   21.8283   -7.6741  -14.6251 C   0  0  0  0  0  0  0  0  0  0  0  0
   21.8702   -7.3232  -13.2831 O   0  0  0  0  0  0  0  0  0  0  0  0
   21.2556   -6.8216  -15.3874 O   0  0  0  0  0  0  0  0  0  0  0  0
  2  1  1  6
  2  3  1  0
  3  4  1  0
  4  5  1  0
  5  6  1  0
  6  7  1  0
  8  2  1  0
  8  9  2  0
 10  8  1  0
 11 10  1  0
 11 12  1  1
 13 17  1  0
 13 12  1  0
 14 13  2  0
 15 14  1  0
 15 16  1  0
 16 17  2  0
 18 11  1  0
 19 18  2  0
 21 20  1  1
 21 22  1  0
 23 21  1  0
 24 23  1  6
 24 25  1  0
 25 18  1  0
 26 24  1  0
 27 26  1  0
 28 26  2  0
M  END
$$$$
