KHL.pdb
     RDKit          3D

 28 28  0  0  1  0  0  0  0  0999 V2000
   27.8563  -23.1908  -18.1762 N   0  0  0  0  0  0  0  0  0  0  0  0
   28.3410  -23.2243  -16.8088 C   0  0  1  0  0  0  0  0  0  0  0  0
   29.8057  -22.8860  -16.7265 C   0  0  0  0  0  0  0  0  0  0  0  0
   30.6108  -23.9601  -17.3861 C   0  0  0  0  0  0  0  0  0  0  0  0
   31.3724  -23.4761  -18.5760 C   0  0  0  0  0  0  0  0  0  0  0  0
   32.1892  -24.6020  -19.1905 C   0  0  0  0  0  0  0  0  0  0  0  0
   33.0079  -24.0401  -20.2409 N   0  0  0  0  0  0  0  0  0  0  0  0
   27.5432  -22.2457  -16.0104 C   0  0  0  0  0  0  0  0  0  0  0  0
   27.9010  -21.8695  -14.8870 O   0  0  0  0  0  0  0  0  0  0  0  0
   26.3469  -21.7448  -16.5691 N   0  0  0  0  0  0  0  0  0  0  0  0
   25.5159  -20.7406  -15.9397 C   0  0  1  0  0  0  0  0  0  0  0  0
   24.5146  -20.2824  -16.9796 C   0  0  0  0  0  0  0  0  0  0  0  0
   23.5699  -19.2875  -16.4326 C   0  0  0  0  0  0  0  0  0  0  0  0
   23.6216  -18.8564  -15.1197 C   0  0  0  0  0  0  0  0  0  0  0  0
   22.6452  -17.9626  -14.9242 N   0  0  0  0  0  0  0  0  0  0  0  0
   21.9715  -17.8122  -16.0790 C   0  0  0  0  0  0  0  0  0  0  0  0
   22.5518  -18.6288  -16.9847 N   0  0  0  0  0  0  0  0  0  0  0  0
   24.8652  -21.3231  -14.7574 C   0  0  0  0  0  0  0  0  0  0  0  0
   24.0018  -22.2259  -14.9228 O   0  0  0  0  0  0  0  0  0  0  0  0
   24.5456  -20.1353   -9.2799 C   0  0  0  0  0  0  0  0  0  0  0  0
   25.6684  -20.3835  -10.2643 C   0  0  1  0  0  0  0  0  0  0  0  0
   26.9212  -20.6365   -9.4188 C   0  0  0  0  0  0  0  0  0  0  0  0
   25.4515  -21.6027  -11.0897 C   0  0  0  0  0  0  0  0  0  0  0  0
   24.5144  -21.4501  -12.2460 C   0  0  2  0  0  0  0  0  0  0  0  0
   25.1648  -20.9142  -13.4228 N   0  0  0  0  0  0  0  0  0  0  0  0
   23.2444  -20.7826  -11.9425 C   0  0  0  0  0  0  0  0  0  0  0  0
   22.2055  -21.4203  -11.2795 O   0  0  0  0  0  0  0  0  0  0  0  0
   23.0103  -19.5685  -12.2694 O   0  0  0  0  0  0  0  0  0  0  0  0
  2  1  1  6
  2  3  1  0
  3  4  1  0
  4  5  1  0
  5  6  1  0
  6  7  1  0
  8  2  1  0
  8  9  2  0
 10  8  1  0
 11 10  1  0
 11 12  1  6
 13 17  1  0
 13 12  1  0
 14 13  2  0
 15 14  1  0
 15 16  1  0
 16 17  2  0
 18 11  1  0
 19 18  2  0
 21 20  1  1
 21 22  1  0
 23 21  1  0
 24 23  1  1
 24 25  1  0
 25 18  1  0
 26 24  1  0
 27 26  1  0
 28 26  2  0
M  END
$$$$
