KHL.pdb
     RDKit          3D

 28 28  0  0  1  0  0  0  0  0999 V2000
   23.7114  -19.4871  -17.0516 N   0  0  0  0  0  0  0  0  0  0  0  0
   23.1681  -19.5722  -15.7086 C   0  0  1  0  0  0  0  0  0  0  0  0
   21.7915  -20.1816  -15.7001 C   0  0  0  0  0  0  0  0  0  0  0  0
   21.0576  -19.7910  -16.9433 C   0  0  0  0  0  0  0  0  0  0  0  0
   21.8795  -19.9389  -18.1813 C   0  0  0  0  0  0  0  0  0  0  0  0
   21.0582  -19.6115  -19.4186 C   0  0  0  0  0  0  0  0  0  0  0  0
   21.9153  -19.7481  -20.5744 N   0  0  0  0  0  0  0  0  0  0  0  0
   24.0998  -20.3986  -14.8835 C   0  0  0  0  0  0  0  0  0  0  0  0
   24.0088  -21.6316  -14.8285 O   0  0  0  0  0  0  0  0  0  0  0  0
   25.1090  -19.7369  -14.1502 N   0  0  0  0  0  0  0  0  0  0  0  0
   26.0958  -20.4135  -13.3357 C   0  0  1  0  0  0  0  0  0  0  0  0
   27.4414  -19.8109  -13.6824 C   0  0  0  0  0  0  0  0  0  0  0  0
   27.9713  -20.3435  -14.9540 C   0  0  0  0  0  0  0  0  0  0  0  0
   27.3034  -21.3011  -15.6950 C   0  0  0  0  0  0  0  0  0  0  0  0
   28.0272  -21.5799  -16.7853 N   0  0  0  0  0  0  0  0  0  0  0  0
   29.1402  -20.8246  -16.7592 C   0  0  0  0  0  0  0  0  0  0  0  0
   29.0857  -20.0787  -15.6347 N   0  0  0  0  0  0  0  0  0  0  0  0
   25.7548  -20.2377  -11.9169 C   0  0  0  0  0  0  0  0  0  0  0  0
   25.3394  -19.1137  -11.5273 O   0  0  0  0  0  0  0  0  0  0  0  0
   28.3741  -19.3621   -7.9133 C   0  0  0  0  0  0  0  0  0  0  0  0
   27.6570  -20.3896   -8.7626 C   0  0  1  0  0  0  0  0  0  0  0  0
   27.9165  -21.7437   -8.0937 C   0  0  0  0  0  0  0  0  0  0  0  0
   26.1820  -20.1930   -8.7813 C   0  0  0  0  0  0  0  0  0  0  0  0
   25.4015  -21.1830   -9.5870 C   0  0  2  0  0  0  0  0  0  0  0  0
   25.8715  -21.2838  -10.9523 N   0  0  0  0  0  0  0  0  0  0  0  0
   23.9432  -21.0600   -9.4935 C   0  0  0  0  0  0  0  0  0  0  0  0
   23.1281  -20.9711  -10.6131 O   0  0  0  0  0  0  0  0  0  0  0  0
   23.3263  -21.0262   -8.3737 O   0  0  0  0  0  0  0  0  0  0  0  0
  2  1  1  6
  2  3  1  0
  3  4  1  0
  4  5  1  0
  5  6  1  0
  6  7  1  0
  8  2  1  0
  8  9  2  0
 10  8  1  0
 11 10  1  0
 11 12  1  1
 13 17  1  0
 13 12  1  0
 14 13  2  0
 15 14  1  0
 15 16  1  0
 16 17  2  0
 18 11  1  0
 19 18  2  0
 21 20  1  1
 21 22  1  0
 23 21  1  0
 24 23  1  6
 24 25  1  0
 25 18  1  0
 26 24  1  0
 27 26  1  0
 28 26  2  0
M  END
$$$$
