KHL.pdb
     RDKit          3D

 28 28  0  0  1  0  0  0  0  0999 V2000
   19.3000  -22.2307  -15.1862 N   0  0  0  0  0  0  0  0  0  0  0  0
   19.5277  -23.2706  -14.2000 C   0  0  1  0  0  0  0  0  0  0  0  0
   20.9825  -23.3792  -13.8279 C   0  0  0  0  0  0  0  0  0  0  0  0
   21.7659  -23.8927  -14.9938 C   0  0  0  0  0  0  0  0  0  0  0  0
   23.2427  -23.8387  -14.7785 C   0  0  0  0  0  0  0  0  0  0  0  0
   23.9868  -24.3619  -15.9971 C   0  0  0  0  0  0  0  0  0  0  0  0
   25.3994  -24.1353  -15.7910 N   0  0  0  0  0  0  0  0  0  0  0  0
   18.7118  -22.9489  -12.9907 C   0  0  0  0  0  0  0  0  0  0  0  0
   18.6581  -21.8051  -12.5212 O   0  0  0  0  0  0  0  0  0  0  0  0
   17.9861  -23.9933  -12.3768 N   0  0  0  0  0  0  0  0  0  0  0  0
   17.0694  -23.8041  -11.2727 C   0  0  1  0  0  0  0  0  0  0  0  0
   15.7102  -23.5117  -11.8737 C   0  0  0  0  0  0  0  0  0  0  0  0
   15.5943  -22.1066  -12.3139 C   0  0  0  0  0  0  0  0  0  0  0  0
   15.3081  -21.0745  -11.4391 C   0  0  0  0  0  0  0  0  0  0  0  0
   15.2684  -19.9283  -12.1284 N   0  0  0  0  0  0  0  0  0  0  0  0
   15.5220  -20.2025  -13.4209 C   0  0  0  0  0  0  0  0  0  0  0  0
   15.7177  -21.5357  -13.5114 N   0  0  0  0  0  0  0  0  0  0  0  0
   17.0616  -25.0138  -10.4379 C   0  0  0  0  0  0  0  0  0  0  0  0
   17.3338  -26.1220  -10.9724 O   0  0  0  0  0  0  0  0  0  0  0  0
   17.7697  -24.6380   -4.8399 C   0  0  0  0  0  0  0  0  0  0  0  0
   17.8202  -24.9509   -6.3201 C   0  0  1  0  0  0  0  0  0  0  0  0
   19.1399  -25.6959   -6.5480 C   0  0  0  0  0  0  0  0  0  0  0  0
   16.7284  -25.8648   -6.7530 C   0  0  0  0  0  0  0  0  0  0  0  0
   16.6820  -26.1802   -8.2148 C   0  0  2  0  0  0  0  0  0  0  0  0
   16.7591  -24.9954   -9.0427 N   0  0  0  0  0  0  0  0  0  0  0  0
   15.6131  -27.0955   -8.6272 C   0  0  0  0  0  0  0  0  0  0  0  0
   15.7002  -28.4700   -8.4573 O   0  0  0  0  0  0  0  0  0  0  0  0
   14.5299  -26.6873   -9.1711 O   0  0  0  0  0  0  0  0  0  0  0  0
  2  1  1  6
  2  3  1  0
  3  4  1  0
  4  5  1  0
  5  6  1  0
  6  7  1  0
  8  2  1  0
  8  9  2  0
 10  8  1  0
 11 10  1  0
 11 12  1  6
 13 17  1  0
 13 12  1  0
 14 13  2  0
 15 14  1  0
 15 16  1  0
 16 17  2  0
 18 11  1  0
 19 18  2  0
 21 20  1  1
 21 22  1  0
 23 21  1  0
 24 23  1  1
 24 25  1  0
 25 18  1  0
 26 24  1  0
 27 26  1  0
 28 26  2  0
M  END
$$$$
