KHL.pdb
     RDKit          3D

 28 28  0  0  1  0  0  0  0  0999 V2000
   20.6235  -18.3733  -16.1448 N   0  0  0  0  0  0  0  0  0  0  0  0
   20.2887  -19.7774  -15.9951 C   0  0  1  0  0  0  0  0  0  0  0  0
   19.7321  -20.3581  -17.2678 C   0  0  0  0  0  0  0  0  0  0  0  0
   18.3917  -19.7593  -17.5532 C   0  0  0  0  0  0  0  0  0  0  0  0
   18.3671  -18.2742  -17.3986 C   0  0  0  0  0  0  0  0  0  0  0  0
   17.0009  -17.7146  -17.7634 C   0  0  0  0  0  0  0  0  0  0  0  0
   17.0590  -16.2755  -17.6412 N   0  0  0  0  0  0  0  0  0  0  0  0
   21.5286  -20.5094  -15.5968 C   0  0  0  0  0  0  0  0  0  0  0  0
   21.5680  -21.7446  -15.5303 O   0  0  0  0  0  0  0  0  0  0  0  0
   22.6815  -19.7538  -15.2902 N   0  0  0  0  0  0  0  0  0  0  0  0
   23.9319  -20.3280  -14.8408 C   0  0  1  0  0  0  0  0  0  0  0  0
   25.0068  -19.8409  -15.7901 C   0  0  0  0  0  0  0  0  0  0  0  0
   26.3554  -20.2547  -15.3527 C   0  0  0  0  0  0  0  0  0  0  0  0
   26.9523  -21.4237  -15.7880 C   0  0  0  0  0  0  0  0  0  0  0  0
   28.1609  -21.5232  -15.2224 N   0  0  0  0  0  0  0  0  0  0  0  0
   28.3507  -20.4474  -14.4371 C   0  0  0  0  0  0  0  0  0  0  0  0
   27.2382  -19.6876  -14.5314 N   0  0  0  0  0  0  0  0  0  0  0  0
   24.1834  -19.9136  -13.4533 C   0  0  0  0  0  0  0  0  0  0  0  0
   24.0657  -18.6955  -13.1529 O   0  0  0  0  0  0  0  0  0  0  0  0
   21.8184  -21.5880   -9.1403 C   0  0  0  0  0  0  0  0  0  0  0  0
   22.6326  -20.7831  -10.1306 C   0  0  1  0  0  0  0  0  0  0  0  0
   22.4227  -19.3131   -9.7517 C   0  0  0  0  0  0  0  0  0  0  0  0
   24.0929  -21.0509  -10.0279 C   0  0  0  0  0  0  0  0  0  0  0  0
   24.9468  -20.4289  -11.0872 C   0  0  2  0  0  0  0  0  0  0  0  0
   24.5567  -20.8283  -12.4226 N   0  0  0  0  0  0  0  0  0  0  0  0
   26.3932  -20.5215  -10.8640 C   0  0  0  0  0  0  0  0  0  0  0  0
   27.0175  -19.9473   -9.7657 O   0  0  0  0  0  0  0  0  0  0  0  0
   27.1750  -21.1376  -11.6672 O   0  0  0  0  0  0  0  0  0  0  0  0
  2  1  1  6
  2  3  1  0
  3  4  1  0
  4  5  1  0
  5  6  1  0
  6  7  1  0
  8  2  1  0
  8  9  2  0
 10  8  1  0
 11 10  1  0
 11 12  1  6
 13 17  1  0
 13 12  1  0
 14 13  2  0
 15 14  1  0
 15 16  1  0
 16 17  2  0
 18 11  1  0
 19 18  2  0
 21 20  1  1
 21 22  1  0
 23 21  1  0
 24 23  1  1
 24 25  1  0
 25 18  1  0
 26 24  1  0
 27 26  1  0
 28 26  2  0
M  END
$$$$
