KHL.pdb
     RDKit          3D

 28 28  0  0  1  0  0  0  0  0999 V2000
   27.2501  -21.9167  -16.6824 N   0  0  0  0  0  0  0  0  0  0  0  0
   27.8865  -22.0670  -15.3869 C   0  0  1  0  0  0  0  0  0  0  0  0
   29.3685  -21.8116  -15.4590 C   0  0  0  0  0  0  0  0  0  0  0  0
   29.9794  -22.6735  -16.5177 C   0  0  0  0  0  0  0  0  0  0  0  0
   30.9183  -23.6982  -15.9712 C   0  0  0  0  0  0  0  0  0  0  0  0
   31.4897  -24.5587  -17.0873 C   0  0  0  0  0  0  0  0  0  0  0  0
   32.3638  -25.5434  -16.4910 N   0  0  0  0  0  0  0  0  0  0  0  0
   27.2458  -21.1041  -14.4414 C   0  0  0  0  0  0  0  0  0  0  0  0
   27.6746  -19.9536  -14.2864 O   0  0  0  0  0  0  0  0  0  0  0  0
   26.1176  -21.5360  -13.7101 N   0  0  0  0  0  0  0  0  0  0  0  0
   25.4125  -20.7165  -12.7475 C   0  0  1  0  0  0  0  0  0  0  0  0
   23.9476  -20.7486  -13.1307 C   0  0  0  0  0  0  0  0  0  0  0  0
   23.6517  -19.8315  -14.2500 C   0  0  0  0  0  0  0  0  0  0  0  0
   24.5996  -18.9758  -14.7807 C   0  0  0  0  0  0  0  0  0  0  0  0
   24.0371  -18.2774  -15.7738 N   0  0  0  0  0  0  0  0  0  0  0  0
   22.7542  -18.6656  -15.8906 C   0  0  0  0  0  0  0  0  0  0  0  0
   22.5407  -19.6132  -14.9525 N   0  0  0  0  0  0  0  0  0  0  0  0
   25.6475  -21.2466  -11.3969 C   0  0  0  0  0  0  0  0  0  0  0  0
   25.7764  -22.4911  -11.2472 O   0  0  0  0  0  0  0  0  0  0  0  0
   28.2062  -18.5745   -7.1643 C   0  0  0  0  0  0  0  0  0  0  0  0
   27.6909  -19.6210   -8.1291 C   0  0  1  0  0  0  0  0  0  0  0  0
   28.5134  -20.8852   -7.8576 C   0  0  0  0  0  0  0  0  0  0  0  0
   26.2653  -19.9738   -7.8885 C   0  0  0  0  0  0  0  0  0  0  0  0
   25.6473  -20.9076   -8.8806 C   0  0  2  0  0  0  0  0  0  0  0  0
   25.7376  -20.4161  -10.2391 N   0  0  0  0  0  0  0  0  0  0  0  0
   24.3065  -21.3925   -8.5376 C   0  0  0  0  0  0  0  0  0  0  0  0
   24.0733  -22.2546   -7.4755 O   0  0  0  0  0  0  0  0  0  0  0  0
   23.2633  -21.0530   -9.1951 O   0  0  0  0  0  0  0  0  0  0  0  0
  2  1  1  6
  2  3  1  0
  3  4  1  0
  4  5  1  0
  5  6  1  0
  6  7  1  0
  8  2  1  0
  8  9  2  0
 10  8  1  0
 11 10  1  0
 11 12  1  6
 13 17  1  0
 13 12  1  0
 14 13  2  0
 15 14  1  0
 15 16  1  0
 16 17  2  0
 18 11  1  0
 19 18  2  0
 21 20  1  1
 21 22  1  0
 23 21  1  0
 24 23  1  1
 24 25  1  0
 25 18  1  0
 26 24  1  0
 27 26  1  0
 28 26  2  0
M  END
$$$$
