ITR.pdb
     RDKit          3D

 27 26  0  0  1  0  0  0  0  0999 V2000
    5.3249  -12.1602   27.0245 C   0  0  0  0  0  0  0  0  0  0  0  0
    6.7147  -12.4745   27.4622 C   0  0  0  0  0  0  0  0  0  0  0  0
    7.5129  -13.3195   26.5293 C   0  0  2  0  0  0  0  0  0  0  0  0
    7.5582  -12.6080   25.1823 C   0  0  0  0  0  0  0  0  0  0  0  0
    6.8616  -14.6739   26.4029 C   0  0  2  0  0  0  0  0  0  0  0  0
    6.6532  -15.2254   27.7227 N   0  0  0  0  0  0  0  0  0  0  0  0
    7.6909  -15.6279   25.6260 C   0  0  0  0  0  0  0  0  0  0  0  0
    8.6987  -16.2107   26.1173 O   0  0  0  0  0  0  0  0  0  0  0  0
    6.1460  -18.2591   23.1719 C   0  0  0  0  0  0  0  0  0  0  0  0
    7.2790  -17.5035   22.4865 C   0  0  1  0  0  0  0  0  0  0  0  0
    6.8249  -16.6653   21.4935 O   0  0  0  0  0  0  0  0  0  0  0  0
    8.1941  -16.8531   23.4778 C   0  0  2  0  0  0  0  0  0  0  0  0
    7.3880  -15.9372   24.2733 N   0  0  0  0  0  0  0  0  0  0  0  0
    9.3350  -16.1573   22.8692 C   0  0  0  0  0  0  0  0  0  0  0  0
    9.4311  -14.9160   23.0308 O   0  0  0  0  0  0  0  0  0  0  0  0
    8.8549  -13.8963   16.4493 N   0  0  0  0  0  0  0  0  0  0  0  0
    8.5342  -13.5429   17.8226 C   0  0  0  0  0  0  0  0  0  0  0  0
    7.7926  -12.5460   18.0335 N   0  0  0  0  0  0  0  0  0  0  0  0
    9.0449  -14.2997   18.8975 N   0  0  0  0  0  0  0  0  0  0  0  0
   10.2748  -14.9731   18.9301 C   0  0  0  0  0  0  0  0  0  0  0  0
   11.4301  -14.4109   19.6683 C   0  0  0  0  0  0  0  0  0  0  0  0
   11.0953  -14.6407   21.1701 C   0  0  0  0  0  0  0  0  0  0  0  0
   11.4596  -16.0557   21.5533 C   0  0  2  0  0  0  0  0  0  0  0  0
   10.3418  -16.7916   22.1077 N   0  0  0  0  0  0  0  0  0  0  0  0
   12.6345  -16.0811   22.4564 C   0  0  0  0  0  0  0  0  0  0  0  0
   12.5128  -16.5499   23.7365 O   0  0  0  0  0  0  0  0  0  0  0  0
   13.7485  -15.6732   22.0528 O   0  0  0  0  0  0  0  0  0  0  0  0
  2  3  1  0
  2  1  1  0
  3  4  1  6
  5  6  1  1
  5  3  1  0
  7  5  1  0
  8  7  2  0
 10  9  1  1
 10 11  1  0
 10 12  1  0
 12 13  1  6
 13  7  1  0
 14 12  1  0
 14 15  2  0
 16 17  1  0
 17 19  1  0
 17 18  2  0
 19 20  1  0
 20 21  1  0
 21 22  1  0
 23 22  1  1
 23 24  1  0
 24 14  1  0
 25 23  1  0
 26 25  1  0
 27 25  2  0
M  END
$$$$
