ITR.pdb
     RDKit          3D

 27 26  0  0  1  0  0  0  0  0999 V2000
    5.9988  -10.7542   26.4064 C   0  0  0  0  0  0  0  0  0  0  0  0
    5.5748  -12.0261   25.7549 C   0  0  0  0  0  0  0  0  0  0  0  0
    6.6768  -12.9077   25.2754 C   0  0  2  0  0  0  0  0  0  0  0  0
    7.4812  -12.1259   24.2439 C   0  0  0  0  0  0  0  0  0  0  0  0
    6.0876  -14.1560   24.6677 C   0  0  2  0  0  0  0  0  0  0  0  0
    5.2230  -14.7927   25.6356 N   0  0  0  0  0  0  0  0  0  0  0  0
    7.1294  -15.1316   24.2622 C   0  0  0  0  0  0  0  0  0  0  0  0
    7.7367  -15.8639   25.0938 O   0  0  0  0  0  0  0  0  0  0  0  0
    6.9848  -16.7048   20.5496 C   0  0  0  0  0  0  0  0  0  0  0  0
    8.4072  -16.3679   20.9830 C   0  0  1  0  0  0  0  0  0  0  0  0
    8.9340  -15.3104   20.2767 O   0  0  0  0  0  0  0  0  0  0  0  0
    8.5201  -16.2387   22.4708 C   0  0  2  0  0  0  0  0  0  0  0  0
    7.4998  -15.2922   22.9006 N   0  0  0  0  0  0  0  0  0  0  0  0
    9.8506  -15.8252   22.9344 C   0  0  0  0  0  0  0  0  0  0  0  0
   10.1000  -14.5971   23.0103 O   0  0  0  0  0  0  0  0  0  0  0  0
   11.7555  -19.0347   28.3247 N   0  0  0  0  0  0  0  0  0  0  0  0
   11.5934  -17.9605   29.2908 C   0  0  0  0  0  0  0  0  0  0  0  0
   12.1171  -18.0871   30.4301 N   0  0  0  0  0  0  0  0  0  0  0  0
   10.8626  -16.8005   28.9600 N   0  0  0  0  0  0  0  0  0  0  0  0
   11.2612  -15.7920   28.0705 C   0  0  0  0  0  0  0  0  0  0  0  0
   12.0756  -16.1113   26.8745 C   0  0  0  0  0  0  0  0  0  0  0  0
   11.0416  -16.3246   25.7319 C   0  0  0  0  0  0  0  0  0  0  0  0
   11.7698  -16.4445   24.4138 C   0  0  2  0  0  0  0  0  0  0  0  0
   10.8795  -16.7197   23.3047 N   0  0  0  0  0  0  0  0  0  0  0  0
   12.8667  -17.4379   24.4956 C   0  0  0  0  0  0  0  0  0  0  0  0
   12.6488  -18.7401   24.1351 O   0  0  0  0  0  0  0  0  0  0  0  0
   14.0025  -17.0910   24.8955 O   0  0  0  0  0  0  0  0  0  0  0  0
  2  3  1  0
  2  1  1  0
  3  4  1  6
  5  6  1  1
  5  3  1  0
  7  5  1  0
  8  7  2  0
 10  9  1  1
 10 11  1  0
 10 12  1  0
 12 13  1  6
 13  7  1  0
 14 12  1  0
 14 15  2  0
 16 17  1  0
 17 19  1  0
 17 18  2  0
 19 20  1  0
 20 21  1  0
 21 22  1  0
 23 22  1  1
 23 24  1  0
 24 14  1  0
 25 23  1  0
 26 25  1  0
 27 25  2  0
M  END
$$$$
