ITR.pdb
     RDKit          3D

 27 26  0  0  1  0  0  0  0  0999 V2000
    6.7610  -10.9073   27.1922 C   0  0  0  0  0  0  0  0  0  0  0  0
    6.1496  -12.1921   26.7481 C   0  0  0  0  0  0  0  0  0  0  0  0
    6.8730  -12.9135   25.6628 C   0  0  2  0  0  0  0  0  0  0  0  0
    7.0060  -11.9607   24.4809 C   0  0  0  0  0  0  0  0  0  0  0  0
    6.0934  -14.1458   25.2779 C   0  0  2  0  0  0  0  0  0  0  0  0
    5.8714  -14.9541   26.4556 N   0  0  0  0  0  0  0  0  0  0  0  0
    6.8064  -14.9733   24.2737 C   0  0  0  0  0  0  0  0  0  0  0  0
    6.2797  -15.3180   23.1781 O   0  0  0  0  0  0  0  0  0  0  0  0
    7.4818  -15.0123   21.8108 C   0  0  0  0  0  0  0  0  0  0  0  0
    8.8879  -15.4140   22.2419 C   0  0  1  0  0  0  0  0  0  0  0  0
    9.7617  -14.3504   22.2377 O   0  0  0  0  0  0  0  0  0  0  0  0
    8.8758  -16.2025   23.5152 C   0  0  2  0  0  0  0  0  0  0  0  0
    8.1343  -15.4243   24.4980 N   0  0  0  0  0  0  0  0  0  0  0  0
   10.2124  -16.5469   24.0162 C   0  0  0  0  0  0  0  0  0  0  0  0
   10.9767  -15.6139   24.3647 O   0  0  0  0  0  0  0  0  0  0  0  0
   12.4797  -24.7314   24.3767 N   0  0  0  0  0  0  0  0  0  0  0  0
   12.0151  -24.1970   23.1069 C   0  0  0  0  0  0  0  0  0  0  0  0
   11.7166  -25.0021   22.1844 N   0  0  0  0  0  0  0  0  0  0  0  0
   11.9029  -22.8049   22.9110 N   0  0  0  0  0  0  0  0  0  0  0  0
   12.1824  -21.8069   23.8560 C   0  0  0  0  0  0  0  0  0  0  0  0
   11.8997  -20.3821   23.5635 C   0  0  0  0  0  0  0  0  0  0  0  0
   12.2644  -19.6251   24.8728 C   0  0  0  0  0  0  0  0  0  0  0  0
   12.0152  -18.1474   24.6827 C   0  0  2  0  0  0  0  0  0  0  0  0
   10.7039  -17.8661   24.1352 N   0  0  0  0  0  0  0  0  0  0  0  0
   13.0909  -17.5213   23.8781 C   0  0  0  0  0  0  0  0  0  0  0  0
   14.2540  -17.1159   24.4746 O   0  0  0  0  0  0  0  0  0  0  0  0
   12.9420  -17.3591   22.6444 O   0  0  0  0  0  0  0  0  0  0  0  0
  2  3  1  0
  2  1  1  0
  3  4  1  6
  5  6  1  1
  5  3  1  0
  7  5  1  0
  8  7  2  0
 10  9  1  1
 10 11  1  0
 10 12  1  0
 12 13  1  1
 13  7  1  0
 14 12  1  0
 14 15  2  0
 16 17  1  0
 17 19  1  0
 17 18  2  0
 19 20  1  0
 20 21  1  0
 21 22  1  0
 23 22  1  6
 23 24  1  0
 24 14  1  0
 25 23  1  0
 26 25  1  0
 27 25  2  0
M  END
$$$$
