ITR.pdb
     RDKit          3D

 27 26  0  0  1  0  0  0  0  0999 V2000
    6.3240  -11.0785   28.0826 C   0  0  0  0  0  0  0  0  0  0  0  0
    6.0140  -12.2888   27.2696 C   0  0  0  0  0  0  0  0  0  0  0  0
    7.1855  -13.1193   26.8704 C   0  0  2  0  0  0  0  0  0  0  0  0
    8.1310  -12.2330   26.0686 C   0  0  0  0  0  0  0  0  0  0  0  0
    6.7095  -14.2878   26.0440 C   0  0  2  0  0  0  0  0  0  0  0  0
    5.5108  -14.8335   26.6397 N   0  0  0  0  0  0  0  0  0  0  0  0
    7.7217  -15.3695   25.9615 C   0  0  0  0  0  0  0  0  0  0  0  0
    8.9120  -15.2196   26.3583 O   0  0  0  0  0  0  0  0  0  0  0  0
    7.3847  -18.9878   27.2380 C   0  0  0  0  0  0  0  0  0  0  0  0
    7.6866  -18.9834   25.7436 C   0  0  1  0  0  0  0  0  0  0  0  0
    6.5880  -19.3202   24.9857 O   0  0  0  0  0  0  0  0  0  0  0  0
    8.3716  -17.7215   25.3178 C   0  0  2  0  0  0  0  0  0  0  0  0
    7.3975  -16.6440   25.4253 N   0  0  0  0  0  0  0  0  0  0  0  0
    8.9445  -17.7804   23.9670 C   0  0  0  0  0  0  0  0  0  0  0  0
    8.2388  -18.2495   23.0405 O   0  0  0  0  0  0  0  0  0  0  0  0
    7.4746  -14.0723   16.8952 N   0  0  0  0  0  0  0  0  0  0  0  0
    8.5022  -13.6975   17.8528 C   0  0  0  0  0  0  0  0  0  0  0  0
    8.6830  -12.4748   18.0991 N   0  0  0  0  0  0  0  0  0  0  0  0
    9.2828  -14.6830   18.4920 N   0  0  0  0  0  0  0  0  0  0  0  0
    9.1246  -15.1459   19.8065 C   0  0  0  0  0  0  0  0  0  0  0  0
   10.0471  -14.7120   20.8817 C   0  0  0  0  0  0  0  0  0  0  0  0
    9.5838  -15.4924   22.1453 C   0  0  0  0  0  0  0  0  0  0  0  0
   10.5238  -16.6488   22.3920 C   0  0  2  0  0  0  0  0  0  0  0  0
   10.2454  -17.3425   23.6328 N   0  0  0  0  0  0  0  0  0  0  0  0
   11.9391  -16.2161   22.3117 C   0  0  0  0  0  0  0  0  0  0  0  0
   12.5224  -15.9807   21.0962 O   0  0  0  0  0  0  0  0  0  0  0  0
   12.6114  -16.0625   23.3579 O   0  0  0  0  0  0  0  0  0  0  0  0
  2  3  1  0
  2  1  1  0
  3  4  1  6
  5  6  1  1
  5  3  1  0
  7  5  1  0
  8  7  2  0
 10  9  1  1
 10 11  1  0
 10 12  1  0
 12 13  1  6
 13  7  1  0
 14 12  1  0
 14 15  2  0
 16 17  1  0
 17 19  1  0
 17 18  2  0
 19 20  1  0
 20 21  1  0
 21 22  1  0
 23 22  1  1
 23 24  1  0
 24 14  1  0
 25 23  1  0
 26 25  1  0
 27 25  2  0
M  END
$$$$
