ITR.pdb
     RDKit          3D

 27 26  0  0  1  0  0  0  0  0999 V2000
    8.2819  -11.0174   19.2503 C   0  0  0  0  0  0  0  0  0  0  0  0
    8.7224  -12.3645   18.7885 C   0  0  0  0  0  0  0  0  0  0  0  0
    8.2459  -13.5173   19.6041 C   0  0  2  0  0  0  0  0  0  0  0  0
    8.6840  -13.2795   21.0442 C   0  0  0  0  0  0  0  0  0  0  0  0
    8.8424  -14.7919   19.0616 C   0  0  2  0  0  0  0  0  0  0  0  0
    8.3775  -14.9951   17.7081 N   0  0  0  0  0  0  0  0  0  0  0  0
    8.4633  -15.9792   19.8666 C   0  0  0  0  0  0  0  0  0  0  0  0
    7.3018  -16.4762   19.8411 O   0  0  0  0  0  0  0  0  0  0  0  0
    9.3180  -19.3672   19.7795 C   0  0  0  0  0  0  0  0  0  0  0  0
    9.7516  -18.9316   21.1748 C   0  0  1  0  0  0  0  0  0  0  0  0
   11.1206  -18.8661   21.3019 O   0  0  0  0  0  0  0  0  0  0  0  0
    9.0266  -17.7005   21.6241 C   0  0  2  0  0  0  0  0  0  0  0  0
    9.4004  -16.6240   20.7169 N   0  0  0  0  0  0  0  0  0  0  0  0
    9.2911  -17.3284   23.0197 C   0  0  0  0  0  0  0  0  0  0  0  0
   10.2575  -16.5636   23.2595 O   0  0  0  0  0  0  0  0  0  0  0  0
    8.8862  -21.5904   28.7578 N   0  0  0  0  0  0  0  0  0  0  0  0
    7.6748  -21.6051   27.9541 C   0  0  0  0  0  0  0  0  0  0  0  0
    7.3816  -22.6543   27.3205 N   0  0  0  0  0  0  0  0  0  0  0  0
    6.8453  -20.4666   27.8836 N   0  0  0  0  0  0  0  0  0  0  0  0
    7.1801  -19.1672   28.2918 C   0  0  0  0  0  0  0  0  0  0  0  0
    8.3416  -18.4605   27.7026 C   0  0  0  0  0  0  0  0  0  0  0  0
    7.7683  -17.7113   26.4656 C   0  0  0  0  0  0  0  0  0  0  0  0
    8.8843  -17.4370   25.4851 C   0  0  2  0  0  0  0  0  0  0  0  0
    8.5282  -17.7741   24.1221 N   0  0  0  0  0  0  0  0  0  0  0  0
   10.1412  -18.1016   25.9035 C   0  0  0  0  0  0  0  0  0  0  0  0
   10.6893  -19.0920   25.1341 O   0  0  0  0  0  0  0  0  0  0  0  0
   10.7111  -17.7601   26.9660 O   0  0  0  0  0  0  0  0  0  0  0  0
  2  3  1  0
  2  1  1  0
  3  4  1  1
  5  6  1  6
  5  3  1  0
  7  5  1  0
  8  7  2  0
 10  9  1  6
 10 11  1  0
 10 12  1  0
 12 13  1  6
 13  7  1  0
 14 12  1  0
 14 15  2  0
 16 17  1  0
 17 19  1  0
 17 18  2  0
 19 20  1  0
 20 21  1  0
 21 22  1  0
 23 22  1  1
 23 24  1  0
 24 14  1  0
 25 23  1  0
 26 25  1  0
 27 25  2  0
M  END
$$$$
