ITR.pdb
     RDKit          3D

 27 26  0  0  1  0  0  0  0  0999 V2000
    7.3535  -11.6769   19.5122 C   0  0  0  0  0  0  0  0  0  0  0  0
    7.9027  -12.9064   18.8729 C   0  0  0  0  0  0  0  0  0  0  0  0
    8.1260  -14.0657   19.7826 C   0  0  2  0  0  0  0  0  0  0  0  0
    9.1025  -13.6242   20.8660 C   0  0  0  0  0  0  0  0  0  0  0  0
    8.6849  -15.2207   18.9898 C   0  0  2  0  0  0  0  0  0  0  0  0
    7.7213  -15.6200   17.9891 N   0  0  0  0  0  0  0  0  0  0  0  0
    8.9844  -16.3974   19.8426 C   0  0  0  0  0  0  0  0  0  0  0  0
    8.5101  -17.5452   19.6097 O   0  0  0  0  0  0  0  0  0  0  0  0
   11.4943  -19.6056   21.5595 C   0  0  0  0  0  0  0  0  0  0  0  0
   10.9521  -18.3819   20.8294 C   0  0  1  0  0  0  0  0  0  0  0  0
   10.2336  -18.7181   19.7045 O   0  0  0  0  0  0  0  0  0  0  0  0
   10.2457  -17.4456   21.7607 C   0  0  2  0  0  0  0  0  0  0  0  0
    9.8307  -16.2895   20.9780 N   0  0  0  0  0  0  0  0  0  0  0  0
   11.0504  -17.0360   22.9186 C   0  0  0  0  0  0  0  0  0  0  0  0
   11.3048  -15.8154   23.0656 O   0  0  0  0  0  0  0  0  0  0  0  0
    8.3488  -19.6996   28.9109 N   0  0  0  0  0  0  0  0  0  0  0  0
    7.3719  -19.5712   27.8419 C   0  0  0  0  0  0  0  0  0  0  0  0
    6.6634  -20.5706   27.5462 N   0  0  0  0  0  0  0  0  0  0  0  0
    7.2218  -18.3525   27.1481 N   0  0  0  0  0  0  0  0  0  0  0  0
    8.0802  -17.2453   27.2166 C   0  0  0  0  0  0  0  0  0  0  0  0
    9.5465  -17.4105   27.0813 C   0  0  0  0  0  0  0  0  0  0  0  0
    9.7775  -17.7115   25.5726 C   0  0  0  0  0  0  0  0  0  0  0  0
   11.2612  -17.7799   25.2972 C   0  0  2  0  0  0  0  0  0  0  0  0
   11.5635  -17.9263   23.8882 N   0  0  0  0  0  0  0  0  0  0  0  0
   11.9092  -18.8368   26.1095 C   0  0  0  0  0  0  0  0  0  0  0  0
   12.5334  -18.5201   27.2856 O   0  0  0  0  0  0  0  0  0  0  0  0
   11.8893  -20.0290   25.7240 O   0  0  0  0  0  0  0  0  0  0  0  0
  2  3  1  0
  2  1  1  0
  3  4  1  1
  5  6  1  6
  5  3  1  0
  7  5  1  0
  8  7  2  0
 10  9  1  1
 10 11  1  0
 10 12  1  0
 12 13  1  6
 13  7  1  0
 14 12  1  0
 14 15  2  0
 16 17  1  0
 17 19  1  0
 17 18  2  0
 19 20  1  0
 20 21  1  0
 21 22  1  0
 23 22  1  6
 23 24  1  0
 24 14  1  0
 25 23  1  0
 26 25  1  0
 27 25  2  0
M  END
$$$$
