ITR.pdb
     RDKit          3D

 27 26  0  0  1  0  0  0  0  0999 V2000
    7.4928  -11.5040   19.9856 C   0  0  0  0  0  0  0  0  0  0  0  0
    7.5322  -12.8681   19.3858 C   0  0  0  0  0  0  0  0  0  0  0  0
    8.1796  -13.9230   20.2161 C   0  0  2  0  0  0  0  0  0  0  0  0
    9.6250  -13.5035   20.4551 C   0  0  0  0  0  0  0  0  0  0  0  0
    8.1136  -15.2415   19.4867 C   0  0  2  0  0  0  0  0  0  0  0  0
    6.7300  -15.5764   19.2359 N   0  0  0  0  0  0  0  0  0  0  0  0
    8.7260  -16.3471   20.2640 C   0  0  0  0  0  0  0  0  0  0  0  0
    8.0866  -17.0027   21.1346 O   0  0  0  0  0  0  0  0  0  0  0  0
   12.5545  -19.4514   20.8076 C   0  0  0  0  0  0  0  0  0  0  0  0
   11.7184  -18.4511   20.0171 C   0  0  1  0  0  0  0  0  0  0  0  0
   11.1632  -19.0085   18.8877 O   0  0  0  0  0  0  0  0  0  0  0  0
   10.7456  -17.7235   20.8931 C   0  0  2  0  0  0  0  0  0  0  0  0
   10.0796  -16.7278   20.0645 N   0  0  0  0  0  0  0  0  0  0  0  0
   11.3563  -17.1017   22.0748 C   0  0  0  0  0  0  0  0  0  0  0  0
   11.4998  -15.8545   22.0847 O   0  0  0  0  0  0  0  0  0  0  0  0
   10.7653  -15.9546   29.9265 N   0  0  0  0  0  0  0  0  0  0  0  0
   10.0741  -14.9489   29.1363 C   0  0  0  0  0  0  0  0  0  0  0  0
   10.3496  -13.7341   29.3280 N   0  0  0  0  0  0  0  0  0  0  0  0
    9.1126  -15.3255   28.1757 N   0  0  0  0  0  0  0  0  0  0  0  0
    9.3620  -15.9882   26.9650 C   0  0  0  0  0  0  0  0  0  0  0  0
   10.6705  -15.8575   26.2821 C   0  0  0  0  0  0  0  0  0  0  0  0
   10.5021  -16.6322   24.9435 C   0  0  0  0  0  0  0  0  0  0  0  0
   11.8351  -17.2081   24.5274 C   0  0  2  0  0  0  0  0  0  0  0  0
   11.7979  -17.8140   23.2122 N   0  0  0  0  0  0  0  0  0  0  0  0
   12.3561  -18.1471   25.5489 C   0  0  0  0  0  0  0  0  0  0  0  0
   13.1437  -17.6903   26.5706 O   0  0  0  0  0  0  0  0  0  0  0  0
   12.0778  -19.3672   25.4834 O   0  0  0  0  0  0  0  0  0  0  0  0
  2  3  1  0
  2  1  1  0
  3  4  1  6
  5  6  1  1
  5  3  1  0
  7  5  1  0
  8  7  2  0
 10  9  1  1
 10 11  1  0
 10 12  1  0
 12 13  1  6
 13  7  1  0
 14 12  1  0
 14 15  2  0
 16 17  1  0
 17 19  1  0
 17 18  2  0
 19 20  1  0
 20 21  1  0
 21 22  1  0
 23 22  1  1
 23 24  1  0
 24 14  1  0
 25 23  1  0
 26 25  1  0
 27 25  2  0
M  END
$$$$
