ITR.pdb
     RDKit          3D

 27 26  0  0  1  0  0  0  0  0999 V2000
    6.4931  -13.3202   20.5412 C   0  0  0  0  0  0  0  0  0  0  0  0
    7.2181  -13.8692   19.3601 C   0  0  0  0  0  0  0  0  0  0  0  0
    8.6504  -14.2165   19.5826 C   0  0  2  0  0  0  0  0  0  0  0  0
    9.3821  -12.9388   19.9758 C   0  0  0  0  0  0  0  0  0  0  0  0
    9.2243  -14.7993   18.3154 C   0  0  2  0  0  0  0  0  0  0  0  0
    8.3291  -15.8169   17.8130 N   0  0  0  0  0  0  0  0  0  0  0  0
   10.5559  -15.4170   18.5316 C   0  0  0  0  0  0  0  0  0  0  0  0
   10.7011  -16.6396   18.8157 O   0  0  0  0  0  0  0  0  0  0  0  0
   15.4964  -14.6995   18.6213 C   0  0  0  0  0  0  0  0  0  0  0  0
   14.0913  -14.3557   18.1398 C   0  0  1  0  0  0  0  0  0  0  0  0
   13.9901  -14.3660   16.7671 O   0  0  0  0  0  0  0  0  0  0  0  0
   13.0473  -15.1651   18.8455 C   0  0  2  0  0  0  0  0  0  0  0  0
   11.7490  -14.6536   18.4280 N   0  0  0  0  0  0  0  0  0  0  0  0
   13.1718  -15.1539   20.3086 C   0  0  0  0  0  0  0  0  0  0  0  0
   12.1864  -14.7742   20.9875 O   0  0  0  0  0  0  0  0  0  0  0  0
   10.1342  -21.4063   22.9962 N   0  0  0  0  0  0  0  0  0  0  0  0
   10.5701  -20.8611   24.2715 C   0  0  0  0  0  0  0  0  0  0  0  0
    9.9856  -21.2382   25.3224 N   0  0  0  0  0  0  0  0  0  0  0  0
   11.6250  -19.9269   24.3308 N   0  0  0  0  0  0  0  0  0  0  0  0
   12.3131  -19.3791   23.2383 C   0  0  0  0  0  0  0  0  0  0  0  0
   13.3247  -18.3140   23.4333 C   0  0  0  0  0  0  0  0  0  0  0  0
   13.3073  -17.4987   22.1085 C   0  0  0  0  0  0  0  0  0  0  0  0
   14.2628  -16.3345   22.2247 C   0  0  2  0  0  0  0  0  0  0  0  0
   14.3327  -15.5437   21.0130 N   0  0  0  0  0  0  0  0  0  0  0  0
   15.6050  -16.7841   22.6639 C   0  0  0  0  0  0  0  0  0  0  0  0
   15.9624  -16.7085   23.9829 O   0  0  0  0  0  0  0  0  0  0  0  0
   16.4223  -17.2372   21.8290 O   0  0  0  0  0  0  0  0  0  0  0  0
  2  3  1  0
  2  1  1  0
  3  4  1  6
  5  6  1  1
  5  3  1  0
  7  5  1  0
  8  7  2  0
 10  9  1  6
 10 11  1  0
 10 12  1  0
 12 13  1  1
 13  7  1  0
 14 12  1  0
 14 15  2  0
 16 17  1  0
 17 19  1  0
 17 18  2  0
 19 20  1  0
 20 21  1  0
 21 22  1  0
 23 22  1  6
 23 24  1  0
 24 14  1  0
 25 23  1  0
 26 25  1  0
 27 25  2  0
M  END
$$$$
