ITR.pdb
     RDKit          3D

 27 26  0  0  1  0  0  0  0  0999 V2000
    8.0136  -19.2575   14.5280 C   0  0  0  0  0  0  0  0  0  0  0  0
    7.6282  -17.8798   14.9467 C   0  0  0  0  0  0  0  0  0  0  0  0
    8.5018  -17.2464   15.9749 C   0  0  2  0  0  0  0  0  0  0  0  0
    8.4432  -18.1098   17.2293 C   0  0  0  0  0  0  0  0  0  0  0  0
    8.0073  -15.8498   16.2570 C   0  0  2  0  0  0  0  0  0  0  0  0
    8.0186  -15.0854   15.0302 N   0  0  0  0  0  0  0  0  0  0  0  0
    8.8506  -15.1435   17.2527 C   0  0  0  0  0  0  0  0  0  0  0  0
   10.0008  -14.6987   16.9773 O   0  0  0  0  0  0  0  0  0  0  0  0
    7.9467  -12.0953   19.0231 C   0  0  0  0  0  0  0  0  0  0  0  0
    8.3163  -13.1040   20.1048 C   0  0  1  0  0  0  0  0  0  0  0  0
    7.2193  -13.5385   20.8137 O   0  0  0  0  0  0  0  0  0  0  0  0
    9.1843  -14.2011   19.5699 C   0  0  2  0  0  0  0  0  0  0  0  0
    8.3997  -14.9297   18.5823 N   0  0  0  0  0  0  0  0  0  0  0  0
    9.7041  -15.1073   20.6018 C   0  0  0  0  0  0  0  0  0  0  0  0
    8.9801  -16.0626   20.9755 O   0  0  0  0  0  0  0  0  0  0  0  0
   12.9039  -21.3428   24.1633 N   0  0  0  0  0  0  0  0  0  0  0  0
   11.8855  -21.7163   23.1953 C   0  0  0  0  0  0  0  0  0  0  0  0
   11.3908  -22.8739   23.2535 N   0  0  0  0  0  0  0  0  0  0  0  0
   11.4613  -20.8015   22.2092 N   0  0  0  0  0  0  0  0  0  0  0  0
   12.1636  -19.6711   21.7664 C   0  0  0  0  0  0  0  0  0  0  0  0
   12.0858  -18.3896   22.5062 C   0  0  0  0  0  0  0  0  0  0  0  0
   11.5446  -17.3623   21.4708 C   0  0  0  0  0  0  0  0  0  0  0  0
   11.4988  -15.9912   22.1029 C   0  0  2  0  0  0  0  0  0  0  0  0
   10.9730  -14.9794   21.2096 N   0  0  0  0  0  0  0  0  0  0  0  0
   12.8227  -15.6071   22.6473 C   0  0  0  0  0  0  0  0  0  0  0  0
   13.3730  -16.3078   23.6863 O   0  0  0  0  0  0  0  0  0  0  0  0
   13.4477  -14.6371   22.1587 O   0  0  0  0  0  0  0  0  0  0  0  0
  2  3  1  0
  2  1  1  0
  3  4  1  1
  5  6  1  6
  5  3  1  0
  7  5  1  0
  8  7  2  0
 10  9  1  6
 10 11  1  0
 10 12  1  0
 12 13  1  6
 13  7  1  0
 14 12  1  0
 14 15  2  0
 16 17  1  0
 17 19  1  0
 17 18  2  0
 19 20  1  0
 20 21  1  0
 21 22  1  0
 23 22  1  6
 23 24  1  0
 24 14  1  0
 25 23  1  0
 26 25  1  0
 27 25  2  0
M  END
$$$$
