MVH.pdb
     RDKit          3D

 26 26  0  0  1  0  0  0  0  0999 V2000
    7.0676  -10.5513   26.6056 C   0  0  0  0  0  0  0  0  0  0  0  0
    6.0221  -11.6215   27.5630 S   0  0  0  0  0  0  0  0  0  0  0  0
    5.5441  -13.1617   26.8284 C   0  0  0  0  0  0  0  0  0  0  0  0
    6.7083  -13.8850   26.2294 C   0  0  0  0  0  0  0  0  0  0  0  0
    6.2659  -15.1194   25.5319 C   0  0  2  0  0  0  0  0  0  0  0  0
    5.8856  -16.0818   26.5608 N   0  0  0  0  0  0  0  0  0  0  0  0
    7.3833  -15.6980   24.6862 C   0  0  0  0  0  0  0  0  0  0  0  0
    8.0185  -16.6426   25.2122 O   0  0  0  0  0  0  0  0  0  0  0  0
    9.6043  -16.0490   20.2853 C   0  0  0  0  0  0  0  0  0  0  0  0
    8.6274  -15.2562   21.1397 C   0  0  1  0  0  0  0  0  0  0  0  0
    7.2579  -15.1971   20.5438 C   0  0  0  0  0  0  0  0  0  0  0  0
    8.6627  -15.7440   22.5735 C   0  0  2  0  0  0  0  0  0  0  0  0
    7.6619  -15.1850   23.4009 N   0  0  0  0  0  0  0  0  0  0  0  0
   10.0348  -15.6121   23.1165 C   0  0  0  0  0  0  0  0  0  0  0  0
   10.5256  -14.4487   23.0932 O   0  0  0  0  0  0  0  0  0  0  0  0
   10.8058  -16.6523   23.6394 N   0  0  0  0  0  0  0  0  0  0  0  0
   12.1609  -16.5143   24.1213 C   0  0  1  0  0  0  0  0  0  0  0  0
   12.3573  -17.1284   25.4820 C   0  0  0  0  0  0  0  0  0  0  0  0
   11.5864  -16.3762   26.5011 C   0  0  0  0  0  0  0  0  0  0  0  0
   11.1519  -15.0582   26.4504 C   0  0  0  0  0  0  0  0  0  0  0  0
   10.4819  -14.7425   27.5732 N   0  0  0  0  0  0  0  0  0  0  0  0
   10.4837  -15.8341   28.3331 C   0  0  0  0  0  0  0  0  0  0  0  0
   11.1508  -16.8283   27.6910 N   0  0  0  0  0  0  0  0  0  0  0  0
   13.0927  -17.0239   23.0998 C   0  0  0  0  0  0  0  0  0  0  0  0
   14.4435  -16.7523   23.2495 O   0  0  0  0  0  0  0  0  0  0  0  0
   12.7736  -17.6917   22.0907 O   0  0  0  0  0  0  0  0  0  0  0  0
  2  3  1  0
  2  1  1  0
  4  3  1  0
  4  5  1  0
  5  6  1  1
  5  7  1  0
  7  8  2  0
 10 11  1  6
 10  9  1  0
 12 10  1  0
 13  7  1  0
 12 13  1  1
 14 12  1  0
 14 15  2  0
 16 14  1  0
 17 24  1  0
 17 16  1  0
 17 18  1  1
 19 18  1  0
 19 23  1  0
 20 21  1  0
 20 19  2  0
 21 22  1  0
 22 23  2  0
 24 25  1  0
 26 24  2  0
M  END
$$$$
