MVH.pdb
     RDKit          3D

 26 26  0  0  1  0  0  0  0  0999 V2000
    7.4803  -10.3620   26.3666 C   0  0  0  0  0  0  0  0  0  0  0  0
    6.0035  -11.1011   27.0207 S   0  0  0  0  0  0  0  0  0  0  0  0
    5.4213  -12.5823   26.2413 C   0  0  0  0  0  0  0  0  0  0  0  0
    6.5452  -13.4550   25.7802 C   0  0  0  0  0  0  0  0  0  0  0  0
    6.0336  -14.6234   25.0193 C   0  0  2  0  0  0  0  0  0  0  0  0
    5.4154  -15.5274   25.9837 N   0  0  0  0  0  0  0  0  0  0  0  0
    7.1594  -15.3421   24.3018 C   0  0  0  0  0  0  0  0  0  0  0  0
    7.7116  -16.2587   24.9555 O   0  0  0  0  0  0  0  0  0  0  0  0
    9.7128  -16.1584   20.1414 C   0  0  0  0  0  0  0  0  0  0  0  0
    8.6239  -15.3375   20.8145 C   0  0  1  0  0  0  0  0  0  0  0  0
    7.3067  -15.4461   20.1165 C   0  0  0  0  0  0  0  0  0  0  0  0
    8.5708  -15.6442   22.2970 C   0  0  2  0  0  0  0  0  0  0  0  0
    7.5337  -14.9788   22.9900 N   0  0  0  0  0  0  0  0  0  0  0  0
    9.9120  -15.4576   22.8981 C   0  0  0  0  0  0  0  0  0  0  0  0
   10.3481  -14.2725   22.9118 O   0  0  0  0  0  0  0  0  0  0  0  0
   10.7093  -16.4692   23.4373 N   0  0  0  0  0  0  0  0  0  0  0  0
   11.2282  -16.4816   24.7858 C   0  0  1  0  0  0  0  0  0  0  0  0
   10.1536  -16.2844   25.8219 C   0  0  0  0  0  0  0  0  0  0  0  0
   10.7513  -16.2300   27.1778 C   0  0  0  0  0  0  0  0  0  0  0  0
   12.0926  -16.3055   27.5297 C   0  0  0  0  0  0  0  0  0  0  0  0
   12.2320  -16.2183   28.8647 N   0  0  0  0  0  0  0  0  0  0  0  0
   11.0062  -16.0891   29.3644 C   0  0  0  0  0  0  0  0  0  0  0  0
   10.1034  -16.0953   28.3492 N   0  0  0  0  0  0  0  0  0  0  0  0
   12.0289  -17.7024   24.9856 C   0  0  0  0  0  0  0  0  0  0  0  0
   13.1931  -17.6090   25.7318 O   0  0  0  0  0  0  0  0  0  0  0  0
   11.7518  -18.8372   24.5369 O   0  0  0  0  0  0  0  0  0  0  0  0
  2  3  1  0
  2  1  1  0
  4  3  1  0
  4  5  1  0
  5  6  1  1
  5  7  1  0
  7  8  2  0
 10 11  1  6
 10  9  1  0
 12 10  1  0
 13  7  1  0
 12 13  1  1
 14 12  1  0
 14 15  2  0
 16 14  1  0
 17 24  1  0
 17 16  1  0
 17 18  1  1
 19 18  1  0
 19 23  1  0
 20 21  1  0
 20 19  2  0
 21 22  1  0
 22 23  2  0
 24 25  1  0
 26 24  2  0
M  END
$$$$
