MVH.pdb
     RDKit          3D

 26 26  0  0  1  0  0  0  0  0999 V2000
    7.3729  -12.4173   27.4374 C   0  0  0  0  0  0  0  0  0  0  0  0
    6.7016  -11.5763   26.0241 S   0  0  0  0  0  0  0  0  0  0  0  0
    6.6126  -12.4833   24.5044 C   0  0  0  0  0  0  0  0  0  0  0  0
    7.2524  -13.8308   24.6146 C   0  0  0  0  0  0  0  0  0  0  0  0
    7.2277  -14.5397   23.3098 C   0  0  2  0  0  0  0  0  0  0  0  0
    5.8286  -14.8033   22.9901 N   0  0  0  0  0  0  0  0  0  0  0  0
    7.9847  -15.8510   23.3874 C   0  0  0  0  0  0  0  0  0  0  0  0
    7.2927  -16.8512   23.6928 O   0  0  0  0  0  0  0  0  0  0  0  0
   12.0006  -16.0770   21.9752 C   0  0  0  0  0  0  0  0  0  0  0  0
   11.1143  -17.3062   22.1025 C   0  0  1  0  0  0  0  0  0  0  0  0
   11.8993  -18.5745   22.1998 C   0  0  0  0  0  0  0  0  0  0  0  0
   10.1003  -17.1144   23.2115 C   0  0  2  0  0  0  0  0  0  0  0  0
    9.3713  -15.9060   23.1279 N   0  0  0  0  0  0  0  0  0  0  0  0
   10.7442  -17.3384   24.5267 C   0  0  0  0  0  0  0  0  0  0  0  0
   11.4489  -16.3856   24.9631 O   0  0  0  0  0  0  0  0  0  0  0  0
   10.6323  -18.4956   25.3003 N   0  0  0  0  0  0  0  0  0  0  0  0
   11.2921  -18.7088   26.5679 C   0  0  1  0  0  0  0  0  0  0  0  0
   10.7782  -19.9252   27.2913 C   0  0  0  0  0  0  0  0  0  0  0  0
    9.3218  -19.7981   27.5392 C   0  0  0  0  0  0  0  0  0  0  0  0
    8.4963  -18.7130   27.2754 C   0  0  0  0  0  0  0  0  0  0  0  0
    7.2319  -18.9861   27.6440 N   0  0  0  0  0  0  0  0  0  0  0  0
    7.2407  -20.2219   28.1356 C   0  0  0  0  0  0  0  0  0  0  0  0
    8.5029  -20.7210   28.0758 N   0  0  0  0  0  0  0  0  0  0  0  0
   12.7509  -18.7137   26.3600 C   0  0  0  0  0  0  0  0  0  0  0  0
   13.2595  -19.4387   25.2938 O   0  0  0  0  0  0  0  0  0  0  0  0
   13.5900  -18.1137   27.0683 O   0  0  0  0  0  0  0  0  0  0  0  0
  2  3  1  0
  2  1  1  0
  4  3  1  0
  4  5  1  0
  5  6  1  1
  5  7  1  0
  7  8  2  0
 10 11  1  1
 10  9  1  0
 12 10  1  0
 13  7  1  0
 12 13  1  1
 14 12  1  0
 14 15  2  0
 16 14  1  0
 17 24  1  0
 17 16  1  0
 17 18  1  6
 19 18  1  0
 19 23  1  0
 20 21  1  0
 20 19  2  0
 21 22  1  0
 22 23  2  0
 24 25  1  0
 26 24  2  0
M  END
$$$$
