MVH.pdb
     RDKit          3D

 26 26  0  0  1  0  0  0  0  0999 V2000
    5.2467  -11.8624   27.1688 C   0  0  0  0  0  0  0  0  0  0  0  0
    6.6936  -12.8710   26.9575 S   0  0  0  0  0  0  0  0  0  0  0  0
    6.6681  -14.0657   25.6490 C   0  0  0  0  0  0  0  0  0  0  0  0
    6.0571  -15.3608   26.0809 C   0  0  0  0  0  0  0  0  0  0  0  0
    5.8588  -16.2681   24.9219 C   0  0  2  0  0  0  0  0  0  0  0  0
    5.4846  -17.5733   25.4566 N   0  0  0  0  0  0  0  0  0  0  0  0
    7.1319  -16.4005   24.1091 C   0  0  0  0  0  0  0  0  0  0  0  0
    7.9021  -17.3228   24.4675 O   0  0  0  0  0  0  0  0  0  0  0  0
    9.8002  -15.1154   20.1456 C   0  0  0  0  0  0  0  0  0  0  0  0
    8.5085  -14.9160   20.9229 C   0  0  1  0  0  0  0  0  0  0  0  0
    7.2933  -15.2243   20.1089 C   0  0  0  0  0  0  0  0  0  0  0  0
    8.5716  -15.6453   22.2492 C   0  0  2  0  0  0  0  0  0  0  0  0
    7.3995  -15.5293   23.0311 N   0  0  0  0  0  0  0  0  0  0  0  0
    9.8131  -15.2759   22.9682 C   0  0  0  0  0  0  0  0  0  0  0  0
   10.0466  -14.0382   23.0617 O   0  0  0  0  0  0  0  0  0  0  0  0
   10.7211  -16.1719   23.5362 N   0  0  0  0  0  0  0  0  0  0  0  0
   11.2519  -16.0717   24.8763 C   0  0  1  0  0  0  0  0  0  0  0  0
   10.1795  -16.1420   25.9310 C   0  0  0  0  0  0  0  0  0  0  0  0
   10.7698  -15.9484   27.2774 C   0  0  0  0  0  0  0  0  0  0  0  0
   11.4355  -14.8345   27.7721 C   0  0  0  0  0  0  0  0  0  0  0  0
   11.8230  -15.0466   29.0426 N   0  0  0  0  0  0  0  0  0  0  0  0
   11.4159  -16.2720   29.3615 C   0  0  0  0  0  0  0  0  0  0  0  0
   10.7771  -16.8253   28.2978 N   0  0  0  0  0  0  0  0  0  0  0  0
   12.3216  -17.0702   25.0496 C   0  0  0  0  0  0  0  0  0  0  0  0
   13.4285  -16.7216   25.8074 O   0  0  0  0  0  0  0  0  0  0  0  0
   12.3252  -18.2253   24.5683 O   0  0  0  0  0  0  0  0  0  0  0  0
  2  3  1  0
  2  1  1  0
  4  3  1  0
  4  5  1  0
  5  6  1  1
  5  7  1  0
  7  8  2  0
 10 11  1  6
 10  9  1  0
 12 10  1  0
 13  7  1  0
 12 13  1  1
 14 12  1  0
 14 15  2  0
 16 14  1  0
 17 24  1  0
 17 16  1  0
 17 18  1  1
 19 18  1  0
 19 23  1  0
 20 21  1  0
 20 19  2  0
 21 22  1  0
 22 23  2  0
 24 25  1  0
 26 24  2  0
M  END
$$$$
