MVH.pdb
     RDKit          3D

 26 26  0  0  1  0  0  0  0  0999 V2000
    7.5638  -10.9654   26.7516 C   0  0  0  0  0  0  0  0  0  0  0  0
    6.5300  -12.0302   27.7278 S   0  0  0  0  0  0  0  0  0  0  0  0
    5.9497  -13.5215   26.9665 C   0  0  0  0  0  0  0  0  0  0  0  0
    7.0023  -14.1706   26.1252 C   0  0  0  0  0  0  0  0  0  0  0  0
    6.4365  -15.2988   25.3422 C   0  0  2  0  0  0  0  0  0  0  0  0
    6.1117  -16.3597   26.2900 N   0  0  0  0  0  0  0  0  0  0  0  0
    7.4385  -15.8154   24.3284 C   0  0  0  0  0  0  0  0  0  0  0  0
    8.0978  -16.8186   24.6908 O   0  0  0  0  0  0  0  0  0  0  0  0
    9.1118  -15.7621   19.6670 C   0  0  0  0  0  0  0  0  0  0  0  0
    8.2975  -15.0303   20.7224 C   0  0  1  0  0  0  0  0  0  0  0  0
    6.8925  -14.7671   20.2855 C   0  0  0  0  0  0  0  0  0  0  0  0
    8.4130  -15.7323   22.0599 C   0  0  2  0  0  0  0  0  0  0  0  0
    7.5926  -15.1868   23.0738 N   0  0  0  0  0  0  0  0  0  0  0  0
    9.8390  -15.8561   22.4420 C   0  0  0  0  0  0  0  0  0  0  0  0
   10.4145  -14.7819   22.7734 O   0  0  0  0  0  0  0  0  0  0  0  0
   10.5753  -17.0425   22.4626 N   0  0  0  0  0  0  0  0  0  0  0  0
   11.9525  -17.1527   22.8854 C   0  0  1  0  0  0  0  0  0  0  0  0
   12.1996  -18.3642   23.7445 C   0  0  0  0  0  0  0  0  0  0  0  0
   11.4017  -18.2810   24.9916 C   0  0  0  0  0  0  0  0  0  0  0  0
   11.4254  -17.2886   25.9626 C   0  0  0  0  0  0  0  0  0  0  0  0
   10.5527  -17.5743   26.9455 N   0  0  0  0  0  0  0  0  0  0  0  0
    9.9775  -18.7274   26.6159 C   0  0  0  0  0  0  0  0  0  0  0  0
   10.4863  -19.1623   25.4336 N   0  0  0  0  0  0  0  0  0  0  0  0
   12.8297  -17.0734   21.7041 C   0  0  0  0  0  0  0  0  0  0  0  0
   14.1901  -16.9025   21.9070 O   0  0  0  0  0  0  0  0  0  0  0  0
   12.4556  -17.1474   20.5123 O   0  0  0  0  0  0  0  0  0  0  0  0
  2  3  1  0
  2  1  1  0
  4  3  1  0
  4  5  1  0
  5  6  1  1
  5  7  1  0
  7  8  2  0
 10 11  1  6
 10  9  1  0
 12 10  1  0
 13  7  1  0
 12 13  1  1
 14 12  1  0
 14 15  2  0
 16 14  1  0
 17 24  1  0
 17 16  1  0
 17 18  1  6
 19 18  1  0
 19 23  1  0
 20 21  1  0
 20 19  2  0
 21 22  1  0
 22 23  2  0
 24 25  1  0
 26 24  2  0
M  END
$$$$
