MVH.pdb
     RDKit          3D

 26 26  0  0  1  0  0  0  0  0999 V2000
    8.4669  -11.2665   20.7666 C   0  0  0  0  0  0  0  0  0  0  0  0
    8.2116  -11.7902   19.0886 S   0  0  0  0  0  0  0  0  0  0  0  0
    8.6603  -13.4549   18.6789 C   0  0  0  0  0  0  0  0  0  0  0  0
    8.3570  -14.4093   19.7899 C   0  0  0  0  0  0  0  0  0  0  0  0
    8.8064  -15.7831   19.4484 C   0  0  2  0  0  0  0  0  0  0  0  0
    7.9551  -16.2565   18.3619 N   0  0  0  0  0  0  0  0  0  0  0  0
    8.6713  -16.7126   20.6387 C   0  0  0  0  0  0  0  0  0  0  0  0
    7.5553  -17.2720   20.7568 O   0  0  0  0  0  0  0  0  0  0  0  0
    9.9160  -19.9313   21.4662 C   0  0  0  0  0  0  0  0  0  0  0  0
   10.4597  -19.0275   22.5618 C   0  0  1  0  0  0  0  0  0  0  0  0
   11.9318  -18.7983   22.4413 C   0  0  0  0  0  0  0  0  0  0  0  0
    9.6372  -17.7589   22.6572 C   0  0  2  0  0  0  0  0  0  0  0  0
    9.7467  -16.9108   21.5314 N   0  0  0  0  0  0  0  0  0  0  0  0
    9.9034  -17.0823   23.9480 C   0  0  0  0  0  0  0  0  0  0  0  0
   10.8227  -16.2165   23.9354 O   0  0  0  0  0  0  0  0  0  0  0  0
    9.2300  -17.3244   25.1471 N   0  0  0  0  0  0  0  0  0  0  0  0
    9.4864  -16.6369   26.3918 C   0  0  1  0  0  0  0  0  0  0  0  0
    8.2253  -16.1511   27.0558 C   0  0  0  0  0  0  0  0  0  0  0  0
    7.6112  -15.0625   26.2580 C   0  0  0  0  0  0  0  0  0  0  0  0
    8.2222  -14.2226   25.3361 C   0  0  0  0  0  0  0  0  0  0  0  0
    7.3261  -13.3615   24.8214 N   0  0  0  0  0  0  0  0  0  0  0  0
    6.1608  -13.6398   25.3989 C   0  0  0  0  0  0  0  0  0  0  0  0
    6.3248  -14.6689   26.2706 N   0  0  0  0  0  0  0  0  0  0  0  0
   10.3204  -17.4918   27.2547 C   0  0  0  0  0  0  0  0  0  0  0  0
   10.7640  -16.9730   28.4609 O   0  0  0  0  0  0  0  0  0  0  0  0
   10.6726  -18.6646   26.9967 O   0  0  0  0  0  0  0  0  0  0  0  0
  2  3  1  0
  2  1  1  0
  4  3  1  0
  4  5  1  0
  5  6  1  6
  5  7  1  0
  7  8  2  0
 10 11  1  6
 10  9  1  0
 12 10  1  0
 13  7  1  0
 12 13  1  6
 14 12  1  0
 14 15  2  0
 16 14  1  0
 17 24  1  0
 17 16  1  0
 17 18  1  1
 19 18  1  0
 19 23  1  0
 20 21  1  0
 20 19  2  0
 21 22  1  0
 22 23  2  0
 24 25  1  0
 26 24  2  0
M  END
$$$$
