MVH.pdb
     RDKit          3D

 26 26  0  0  1  0  0  0  0  0999 V2000
    7.0053  -10.5208   25.9975 C   0  0  0  0  0  0  0  0  0  0  0  0
    5.6955  -11.6834   26.2941 S   0  0  0  0  0  0  0  0  0  0  0  0
    6.0890  -13.1273   27.2429 C   0  0  0  0  0  0  0  0  0  0  0  0
    7.0357  -14.0338   26.5223 C   0  0  0  0  0  0  0  0  0  0  0  0
    6.2991  -15.0210   25.6925 C   0  0  2  0  0  0  0  0  0  0  0  0
    5.7232  -16.0043   26.6039 N   0  0  0  0  0  0  0  0  0  0  0  0
    7.2299  -15.7176   24.7193 C   0  0  0  0  0  0  0  0  0  0  0  0
    7.8604  -16.6949   25.1880 O   0  0  0  0  0  0  0  0  0  0  0  0
    8.1990  -13.8605   20.9525 C   0  0  0  0  0  0  0  0  0  0  0  0
    8.1507  -15.3765   21.0613 C   0  0  1  0  0  0  0  0  0  0  0  0
    9.0796  -16.0523   20.1050 C   0  0  0  0  0  0  0  0  0  0  0  0
    8.3184  -15.8087   22.5035 C   0  0  2  0  0  0  0  0  0  0  0  0
    7.3537  -15.2707   23.3859 N   0  0  0  0  0  0  0  0  0  0  0  0
    9.7181  -15.5879   22.9357 C   0  0  0  0  0  0  0  0  0  0  0  0
   10.1528  -14.4089   22.8098 O   0  0  0  0  0  0  0  0  0  0  0  0
   10.5708  -16.5620   23.4592 N   0  0  0  0  0  0  0  0  0  0  0  0
   11.8742  -16.3010   24.0253 C   0  0  1  0  0  0  0  0  0  0  0  0
   12.0715  -16.9713   25.3591 C   0  0  0  0  0  0  0  0  0  0  0  0
   11.1267  -16.4158   26.3578 C   0  0  0  0  0  0  0  0  0  0  0  0
   10.2574  -15.3423   26.2147 C   0  0  0  0  0  0  0  0  0  0  0  0
    9.5636  -15.1471   27.3504 N   0  0  0  0  0  0  0  0  0  0  0  0
    9.9764  -16.0752   28.2090 C   0  0  0  0  0  0  0  0  0  0  0  0
   10.9232  -16.8480   27.6156 N   0  0  0  0  0  0  0  0  0  0  0  0
   12.9098  -16.6376   23.0326 C   0  0  0  0  0  0  0  0  0  0  0  0
   12.5817  -17.5193   22.0148 O   0  0  0  0  0  0  0  0  0  0  0  0
   14.0799  -16.1940   23.0212 O   0  0  0  0  0  0  0  0  0  0  0  0
  2  3  1  0
  2  1  1  0
  4  3  1  0
  4  5  1  0
  5  6  1  1
  5  7  1  0
  7  8  2  0
 10 11  1  6
 10  9  1  0
 12 10  1  0
 13  7  1  0
 12 13  1  1
 14 12  1  0
 14 15  2  0
 16 14  1  0
 17 24  1  0
 17 16  1  0
 17 18  1  1
 19 18  1  0
 19 23  1  0
 20 21  1  0
 20 19  2  0
 21 22  1  0
 22 23  2  0
 24 25  1  0
 26 24  2  0
M  END
$$$$
