MVH.pdb
     RDKit          3D

 26 26  0  0  1  0  0  0  0  0999 V2000
    6.9419  -10.2353   25.9945 C   0  0  0  0  0  0  0  0  0  0  0  0
    6.0978  -11.2548   27.1792 S   0  0  0  0  0  0  0  0  0  0  0  0
    5.6028  -12.8730   26.6534 C   0  0  0  0  0  0  0  0  0  0  0  0
    6.7311  -13.6324   26.0309 C   0  0  0  0  0  0  0  0  0  0  0  0
    6.2433  -14.8818   25.3929 C   0  0  2  0  0  0  0  0  0  0  0  0
    5.8995  -15.8074   26.4673 N   0  0  0  0  0  0  0  0  0  0  0  0
    7.3143  -15.5002   24.5158 C   0  0  0  0  0  0  0  0  0  0  0  0
    7.8894  -16.5036   25.0004 O   0  0  0  0  0  0  0  0  0  0  0  0
    9.5125  -15.7729   20.0879 C   0  0  0  0  0  0  0  0  0  0  0  0
    8.5914  -14.9655   20.9893 C   0  0  1  0  0  0  0  0  0  0  0  0
    7.2451  -14.7381   20.3811 C   0  0  0  0  0  0  0  0  0  0  0  0
    8.5537  -15.5653   22.3799 C   0  0  2  0  0  0  0  0  0  0  0  0
    7.6173  -14.9584   23.2479 N   0  0  0  0  0  0  0  0  0  0  0  0
    9.9260  -15.6401   22.9332 C   0  0  0  0  0  0  0  0  0  0  0  0
   10.4419  -14.5390   23.2743 O   0  0  0  0  0  0  0  0  0  0  0  0
   10.6722  -16.8083   23.1017 N   0  0  0  0  0  0  0  0  0  0  0  0
   11.9787  -16.8725   23.7154 C   0  0  1  0  0  0  0  0  0  0  0  0
   12.2484  -18.2034   24.3660 C   0  0  0  0  0  0  0  0  0  0  0  0
   11.3498  -18.3980   25.5293 C   0  0  0  0  0  0  0  0  0  0  0  0
   11.2782  -17.6471   26.6953 C   0  0  0  0  0  0  0  0  0  0  0  0
   10.3326  -18.1422   27.5137 N   0  0  0  0  0  0  0  0  0  0  0  0
    9.8045  -19.1910   26.8891 C   0  0  0  0  0  0  0  0  0  0  0  0
   10.4151  -19.3529   25.6863 N   0  0  0  0  0  0  0  0  0  0  0  0
   12.9980  -16.4769   22.7277 C   0  0  0  0  0  0  0  0  0  0  0  0
   12.8279  -16.8784   21.4121 O   0  0  0  0  0  0  0  0  0  0  0  0
   14.0223  -15.7996   22.9688 O   0  0  0  0  0  0  0  0  0  0  0  0
  2  3  1  0
  2  1  1  0
  4  3  1  0
  4  5  1  0
  5  6  1  1
  5  7  1  0
  7  8  2  0
 10 11  1  6
 10  9  1  0
 12 10  1  0
 13  7  1  0
 12 13  1  1
 14 12  1  0
 14 15  2  0
 16 14  1  0
 17 24  1  0
 17 16  1  0
 17 18  1  6
 19 18  1  0
 19 23  1  0
 20 21  1  0
 20 19  2  0
 21 22  1  0
 22 23  2  0
 24 25  1  0
 26 24  2  0
M  END
$$$$
