MVH.pdb
     RDKit          3D

 26 26  0  0  1  0  0  0  0  0999 V2000
    6.2748  -19.0320   22.1686 C   0  0  0  0  0  0  0  0  0  0  0  0
    5.5735  -18.0703   20.8501 S   0  0  0  0  0  0  0  0  0  0  0  0
    5.6751  -16.3064   20.9869 C   0  0  0  0  0  0  0  0  0  0  0  0
    7.0542  -15.8477   21.3402 C   0  0  0  0  0  0  0  0  0  0  0  0
    7.0810  -14.3831   21.5858 C   0  0  2  0  0  0  0  0  0  0  0  0
    7.6925  -13.7620   20.4155 N   0  0  0  0  0  0  0  0  0  0  0  0
    7.8981  -14.0520   22.8193 C   0  0  0  0  0  0  0  0  0  0  0  0
    9.1318  -13.9349   22.6285 O   0  0  0  0  0  0  0  0  0  0  0  0
    7.4329  -11.3904   25.7967 C   0  0  0  0  0  0  0  0  0  0  0  0
    7.4065  -12.8279   26.2921 C   0  0  1  0  0  0  0  0  0  0  0  0
    6.0503  -13.2523   26.7555 C   0  0  0  0  0  0  0  0  0  0  0  0
    8.0324  -13.7518   25.2677 C   0  0  2  0  0  0  0  0  0  0  0  0
    7.2805  -13.8937   24.0789 N   0  0  0  0  0  0  0  0  0  0  0  0
    8.3969  -15.0381   25.9059 C   0  0  0  0  0  0  0  0  0  0  0  0
    7.4361  -15.7115   26.3731 O   0  0  0  0  0  0  0  0  0  0  0  0
    9.6911  -15.5484   26.0258 N   0  0  0  0  0  0  0  0  0  0  0  0
   10.0390  -16.7606   26.7310 C   0  0  1  0  0  0  0  0  0  0  0  0
   11.3029  -17.3916   26.2099 C   0  0  0  0  0  0  0  0  0  0  0  0
   11.1622  -17.7086   24.7683 C   0  0  0  0  0  0  0  0  0  0  0  0
   10.0134  -17.6749   23.9888 C   0  0  0  0  0  0  0  0  0  0  0  0
   10.2958  -18.0313   22.7229 N   0  0  0  0  0  0  0  0  0  0  0  0
   11.5999  -18.2896   22.6858 C   0  0  0  0  0  0  0  0  0  0  0  0
   12.1324  -18.0967   23.9207 N   0  0  0  0  0  0  0  0  0  0  0  0
   10.0644  -16.4884   28.1789 C   0  0  0  0  0  0  0  0  0  0  0  0
   10.2453  -17.5558   29.0444 O   0  0  0  0  0  0  0  0  0  0  0  0
    9.9358  -15.3633   28.7113 O   0  0  0  0  0  0  0  0  0  0  0  0
  2  3  1  0
  2  1  1  0
  4  3  1  0
  4  5  1  0
  5  6  1  6
  5  7  1  0
  7  8  2  0
 10 11  1  6
 10  9  1  0
 12 10  1  0
 13  7  1  0
 12 13  1  6
 14 12  1  0
 14 15  2  0
 16 14  1  0
 17 24  1  0
 17 16  1  0
 17 18  1  6
 19 18  1  0
 19 23  1  0
 20 21  1  0
 20 19  2  0
 21 22  1  0
 22 23  2  0
 24 25  1  0
 26 24  2  0
M  END
$$$$
