QLR.pdb
     RDKit          3D

 29 28  0  0  1  0  0  0  0  0999 V2000
   20.6730  -22.9985   -8.3663 N   0  0  0  0  0  0  0  0  0  0  0  0
   19.6079  -22.6248   -9.2098 C   0  0  0  0  0  0  0  0  0  0  0  0
   18.4192  -22.8241   -8.9361 O   0  0  0  0  0  0  0  0  0  0  0  0
   19.9290  -21.9476  -10.5120 C   0  0  0  0  0  0  0  0  0  0  0  0
   21.4117  -21.7919  -10.6755 C   0  0  0  0  0  0  0  0  0  0  0  0
   21.9269  -20.6597   -9.8518 C   0  0  2  0  0  0  0  0  0  0  0  0
   21.0478  -19.4867   -9.9752 N   0  0  0  0  0  0  0  0  0  0  0  0
   23.2809  -20.2747  -10.2646 C   0  0  0  0  0  0  0  0  0  0  0  0
   23.5528  -19.6505  -11.3145 O   0  0  0  0  0  0  0  0  0  0  0  0
   27.2806  -20.2802   -6.3887 C   0  0  0  0  0  0  0  0  0  0  0  0
   26.3071  -19.8700   -7.4824 C   0  0  1  0  0  0  0  0  0  0  0  0
   26.4464  -18.3804   -7.7537 C   0  0  0  0  0  0  0  0  0  0  0  0
   26.6454  -20.7028   -8.6869 C   0  0  0  0  0  0  0  0  0  0  0  0
   25.7387  -20.3392   -9.8212 C   0  0  2  0  0  0  0  0  0  0  0  0
   24.3789  -20.6280   -9.4217 N   0  0  0  0  0  0  0  0  0  0  0  0
   26.0464  -21.1709  -11.0182 C   0  0  0  0  0  0  0  0  0  0  0  0
   26.0507  -22.4075  -10.9531 O   0  0  0  0  0  0  0  0  0  0  0  0
   22.1834  -20.9834  -18.5590 N   0  0  0  0  0  0  0  0  0  0  0  0
   22.0445  -21.5684  -17.2702 C   0  0  0  0  0  0  0  0  0  0  0  0
   20.8822  -21.9625  -16.8994 N   0  0  0  0  0  0  0  0  0  0  0  0
   23.1442  -21.7281  -16.3911 N   0  0  0  0  0  0  0  0  0  0  0  0
   24.4778  -21.2731  -16.7288 C   0  0  0  0  0  0  0  0  0  0  0  0
   25.4953  -21.6215  -15.7146 C   0  0  0  0  0  0  0  0  0  0  0  0
   25.4028  -21.0183  -14.3732 C   0  0  0  0  0  0  0  0  0  0  0  0
   26.5483  -21.2741  -13.4547 C   0  0  2  0  0  0  0  0  0  0  0  0
   26.3304  -20.5029  -12.2186 N   0  0  0  0  0  0  0  0  0  0  0  0
   27.8804  -20.9038  -13.9307 C   0  0  0  0  0  0  0  0  0  0  0  0
   28.4856  -19.8301  -13.5953 O   0  0  0  0  0  0  0  0  0  0  0  0
   28.5831  -21.7251  -14.7994 O   0  0  0  0  0  0  0  0  0  0  0  0
  1  2  1  0
  2  3  2  0
  4  5  1  0
  4  2  1  0
  6  8  1  0
  6  5  1  0
  6  7  1  6
  8  9  2  0
 11 10  1  1
 11 13  1  0
 12 11  1  0
 14 13  1  1
 14 16  1  0
 15 14  1  0
 15  8  1  0
 16 17  2  0
 18 19  1  0
 19 20  2  0
 19 21  1  0
 21 22  1  0
 23 22  1  0
 23 24  1  0
 25 24  1  6
 25 27  1  0
 26 25  1  0
 26 16  1  0
 27 28  2  0
 27 29  1  0
M  END
$$$$
