QLR.pdb
     RDKit          3D

 29 28  0  0  1  0  0  0  0  0999 V2000
   18.6586  -24.8440   -5.7269 N   0  0  0  0  0  0  0  0  0  0  0  0
   18.6022  -24.3770   -7.0551 C   0  0  0  0  0  0  0  0  0  0  0  0
   17.6112  -23.8202   -7.5405 O   0  0  0  0  0  0  0  0  0  0  0  0
   19.8082  -24.5630   -7.9318 C   0  0  0  0  0  0  0  0  0  0  0  0
   20.2806  -23.2444   -8.4679 C   0  0  0  0  0  0  0  0  0  0  0  0
   21.0676  -22.4988   -7.4429 C   0  0  2  0  0  0  0  0  0  0  0  0
   20.1727  -21.8624   -6.4641 N   0  0  0  0  0  0  0  0  0  0  0  0
   21.8977  -21.4598   -8.0621 C   0  0  0  0  0  0  0  0  0  0  0  0
   21.4713  -20.3513   -8.4562 O   0  0  0  0  0  0  0  0  0  0  0  0
   25.2299  -19.2875   -7.3574 C   0  0  0  0  0  0  0  0  0  0  0  0
   26.2409  -19.9874   -8.2519 C   0  0  1  0  0  0  0  0  0  0  0  0
   27.4614  -20.3752   -7.4322 C   0  0  0  0  0  0  0  0  0  0  0  0
   25.5397  -21.1839   -8.8311 C   0  0  0  0  0  0  0  0  0  0  0  0
   24.0999  -20.8547   -9.0749 C   0  0  2  0  0  0  0  0  0  0  0  0
   23.2930  -21.7126   -8.2352 N   0  0  0  0  0  0  0  0  0  0  0  0
   23.7365  -21.1348  -10.4921 C   0  0  0  0  0  0  0  0  0  0  0  0
   23.4176  -22.2746  -10.8566 O   0  0  0  0  0  0  0  0  0  0  0  0
   20.1100  -16.5365  -16.6380 N   0  0  0  0  0  0  0  0  0  0  0  0
   19.9039  -17.9054  -16.9635 C   0  0  0  0  0  0  0  0  0  0  0  0
   19.8459  -18.2380  -18.2004 N   0  0  0  0  0  0  0  0  0  0  0  0
   19.7629  -18.9049  -15.9692 N   0  0  0  0  0  0  0  0  0  0  0  0
   20.2659  -18.7325  -14.6213 C   0  0  0  0  0  0  0  0  0  0  0  0
   21.4915  -19.5114  -14.3441 C   0  0  0  0  0  0  0  0  0  0  0  0
   22.0855  -19.4533  -12.9967 C   0  0  0  0  0  0  0  0  0  0  0  0
   23.3213  -20.2591  -12.7855 C   0  0  2  0  0  0  0  0  0  0  0  0
   23.7691  -20.0626  -11.3959 N   0  0  0  0  0  0  0  0  0  0  0  0
   24.4743  -19.9454  -13.6284 C   0  0  0  0  0  0  0  0  0  0  0  0
   25.4258  -19.1692  -13.2764 O   0  0  0  0  0  0  0  0  0  0  0  0
   24.6029  -20.4918  -14.8963 O   0  0  0  0  0  0  0  0  0  0  0  0
  1  2  1  0
  2  3  2  0
  4  5  1  0
  4  2  1  0
  6  8  1  0
  6  5  1  0
  6  7  1  1
  8  9  2  0
 11 10  1  1
 11 13  1  0
 12 11  1  0
 14 13  1  6
 14 16  1  0
 15 14  1  0
 15  8  1  0
 16 17  2  0
 18 19  1  0
 19 20  2  0
 19 21  1  0
 21 22  1  0
 23 22  1  0
 23 24  1  0
 25 24  1  6
 25 27  1  0
 26 25  1  0
 26 16  1  0
 27 28  2  0
 27 29  1  0
M  END
$$$$
