QLR.pdb
     RDKit          3D

 29 28  0  0  1  0  0  0  0  0999 V2000
   25.9994  -23.2277  -16.4704 N   0  0  0  0  0  0  0  0  0  0  0  0
   26.5630  -24.2827  -15.7257 C   0  0  0  0  0  0  0  0  0  0  0  0
   27.4203  -25.0518  -16.1742 O   0  0  0  0  0  0  0  0  0  0  0  0
   26.1009  -24.4876  -14.3108 C   0  0  0  0  0  0  0  0  0  0  0  0
   25.3012  -23.3095  -13.8398 C   0  0  0  0  0  0  0  0  0  0  0  0
   26.1645  -22.3266  -13.1224 C   0  0  2  0  0  0  0  0  0  0  0  0
   26.2296  -22.6442  -11.6875 N   0  0  0  0  0  0  0  0  0  0  0  0
   25.6549  -20.9597  -13.2760 C   0  0  0  0  0  0  0  0  0  0  0  0
   24.9087  -20.3832  -12.4534 O   0  0  0  0  0  0  0  0  0  0  0  0
   27.2703  -16.0599  -16.4973 C   0  0  0  0  0  0  0  0  0  0  0  0
   26.1652  -16.7251  -15.6920 C   0  0  1  0  0  0  0  0  0  0  0  0
   24.8699  -16.6972  -16.4877 C   0  0  0  0  0  0  0  0  0  0  0  0
   26.6300  -18.1260  -15.4085 C   0  0  0  0  0  0  0  0  0  0  0  0
   25.5887  -18.8509  -14.6141 C   0  0  2  0  0  0  0  0  0  0  0  0
   26.0261  -20.2185  -14.4396 N   0  0  0  0  0  0  0  0  0  0  0  0
   24.2968  -18.8787  -15.3554 C   0  0  0  0  0  0  0  0  0  0  0  0
   24.2284  -19.3393  -16.5029 O   0  0  0  0  0  0  0  0  0  0  0  0
   17.5818  -22.4458  -12.0543 N   0  0  0  0  0  0  0  0  0  0  0  0
   17.0635  -21.8417  -13.2328 C   0  0  0  0  0  0  0  0  0  0  0  0
   15.9498  -22.2708  -13.7012 N   0  0  0  0  0  0  0  0  0  0  0  0
   17.7358  -20.7872  -13.8989 N   0  0  0  0  0  0  0  0  0  0  0  0
   19.0508  -20.3309  -13.4961 C   0  0  0  0  0  0  0  0  0  0  0  0
   19.5115  -19.1339  -14.2313 C   0  0  0  0  0  0  0  0  0  0  0  0
   20.8829  -18.6425  -14.0087 C   0  0  0  0  0  0  0  0  0  0  0  0
   21.8177  -18.7504  -15.1644 C   0  0  2  0  0  0  0  0  0  0  0  0
   23.1640  -18.3648  -14.7071 N   0  0  0  0  0  0  0  0  0  0  0  0
   21.5346  -17.9161  -16.3314 C   0  0  0  0  0  0  0  0  0  0  0  0
   21.8519  -16.6820  -16.4207 O   0  0  0  0  0  0  0  0  0  0  0  0
   20.8863  -18.4358  -17.4416 O   0  0  0  0  0  0  0  0  0  0  0  0
  1  2  1  0
  2  3  2  0
  4  5  1  0
  4  2  1  0
  6  8  1  0
  6  5  1  0
  6  7  1  1
  8  9  2  0
 11 10  1  6
 11 13  1  0
 12 11  1  0
 14 13  1  6
 14 16  1  0
 15 14  1  0
 15  8  1  0
 16 17  2  0
 18 19  1  0
 19 20  2  0
 19 21  1  0
 21 22  1  0
 23 22  1  0
 23 24  1  0
 25 24  1  1
 25 27  1  0
 26 25  1  0
 26 16  1  0
 27 28  2  0
 27 29  1  0
M  END
$$$$
