QLR.pdb
     RDKit          3D

 29 28  0  0  1  0  0  0  0  0999 V2000
   30.5491  -20.6288   -9.5627 N   0  0  0  0  0  0  0  0  0  0  0  0
   31.0129  -21.6256  -10.4440 C   0  0  0  0  0  0  0  0  0  0  0  0
   32.0718  -22.2416  -10.2800 O   0  0  0  0  0  0  0  0  0  0  0  0
   30.1797  -21.9612  -11.6484 C   0  0  0  0  0  0  0  0  0  0  0  0
   28.9429  -21.1138  -11.6887 C   0  0  0  0  0  0  0  0  0  0  0  0
   28.1254  -21.4141  -12.9000 C   0  0  2  0  0  0  0  0  0  0  0  0
   28.9685  -21.4224  -14.1055 N   0  0  0  0  0  0  0  0  0  0  0  0
   27.0599  -20.4223  -13.0817 C   0  0  0  0  0  0  0  0  0  0  0  0
   26.2457  -20.0838  -12.1938 O   0  0  0  0  0  0  0  0  0  0  0  0
   27.7587  -16.3653  -16.6431 C   0  0  0  0  0  0  0  0  0  0  0  0
   27.3511  -17.1156  -15.3849 C   0  0  1  0  0  0  0  0  0  0  0  0
   26.9582  -16.1202  -14.3049 C   0  0  0  0  0  0  0  0  0  0  0  0
   26.2103  -18.0127  -15.7756 C   0  0  0  0  0  0  0  0  0  0  0  0
   25.8314  -18.8797  -14.6156 C   0  0  2  0  0  0  0  0  0  0  0  0
   26.9270  -19.7872  -14.3545 N   0  0  0  0  0  0  0  0  0  0  0  0
   24.6332  -19.6992  -14.9501 C   0  0  0  0  0  0  0  0  0  0  0  0
   24.7413  -20.7655  -15.5704 O   0  0  0  0  0  0  0  0  0  0  0  0
   17.5587  -21.7758  -10.9962 N   0  0  0  0  0  0  0  0  0  0  0  0
   17.6918  -22.8260  -11.9460 C   0  0  0  0  0  0  0  0  0  0  0  0
   16.6872  -23.5953  -12.1522 N   0  0  0  0  0  0  0  0  0  0  0  0
   18.8923  -23.0447  -12.6661 N   0  0  0  0  0  0  0  0  0  0  0  0
   20.0822  -22.2471  -12.4483 C   0  0  0  0  0  0  0  0  0  0  0  0
   20.5508  -21.5420  -13.6602 C   0  0  0  0  0  0  0  0  0  0  0  0
   21.7955  -20.7559  -13.5931 C   0  0  0  0  0  0  0  0  0  0  0  0
   22.1648  -19.9996  -14.8230 C   0  0  2  0  0  0  0  0  0  0  0  0
   23.3813  -19.2192  -14.5376 N   0  0  0  0  0  0  0  0  0  0  0  0
   21.1850  -19.0440  -15.3378 C   0  0  0  0  0  0  0  0  0  0  0  0
   21.1170  -17.8227  -14.9696 O   0  0  0  0  0  0  0  0  0  0  0  0
   20.2464  -19.4229  -16.2857 O   0  0  0  0  0  0  0  0  0  0  0  0
  1  2  1  0
  2  3  2  0
  4  5  1  0
  4  2  1  0
  6  8  1  0
  6  5  1  0
  6  7  1  6
  8  9  2  0
 11 10  1  6
 11 13  1  0
 12 11  1  0
 14 13  1  6
 14 16  1  0
 15 14  1  0
 15  8  1  0
 16 17  2  0
 18 19  1  0
 19 20  2  0
 19 21  1  0
 21 22  1  0
 23 22  1  0
 23 24  1  0
 25 24  1  1
 25 27  1  0
 26 25  1  0
 26 16  1  0
 27 28  2  0
 27 29  1  0
M  END
$$$$
