QLR.pdb
     RDKit          3D

 29 28  0  0  1  0  0  0  0  0999 V2000
   29.2828  -22.6166   -9.9380 N   0  0  0  0  0  0  0  0  0  0  0  0
   30.3717  -21.8040  -10.3113 C   0  0  0  0  0  0  0  0  0  0  0  0
   31.5528  -22.1318  -10.1526 O   0  0  0  0  0  0  0  0  0  0  0  0
   30.0873  -20.4674  -10.9358 C   0  0  0  0  0  0  0  0  0  0  0  0
   28.6136  -20.2850  -11.1464 C   0  0  0  0  0  0  0  0  0  0  0  0
   28.2082  -20.7233  -12.5137 C   0  0  2  0  0  0  0  0  0  0  0  0
   29.2827  -20.4585  -13.4829 N   0  0  0  0  0  0  0  0  0  0  0  0
   26.9960  -20.0267  -12.9578 C   0  0  0  0  0  0  0  0  0  0  0  0
   26.7347  -18.8281  -12.7106 O   0  0  0  0  0  0  0  0  0  0  0  0
   23.9233  -18.7284  -17.5406 C   0  0  0  0  0  0  0  0  0  0  0  0
   23.7013  -19.0621  -16.0738 C   0  0  1  0  0  0  0  0  0  0  0  0
   22.4723  -19.9464  -15.9347 C   0  0  0  0  0  0  0  0  0  0  0  0
   24.9525  -19.7463  -15.5993 C   0  0  0  0  0  0  0  0  0  0  0  0
   24.8062  -20.1195  -14.1570 C   0  0  2  0  0  0  0  0  0  0  0  0
   26.0350  -20.7507  -13.7280 N   0  0  0  0  0  0  0  0  0  0  0  0
   23.7047  -21.1077  -13.9861 C   0  0  0  0  0  0  0  0  0  0  0  0
   23.7974  -22.2537  -14.4462 O   0  0  0  0  0  0  0  0  0  0  0  0
   17.4356  -24.0754   -9.3577 N   0  0  0  0  0  0  0  0  0  0  0  0
   18.5716  -23.8463   -8.5334 C   0  0  0  0  0  0  0  0  0  0  0  0
   18.7986  -24.6562   -7.5658 N   0  0  0  0  0  0  0  0  0  0  0  0
   19.4535  -22.7584   -8.7488 N   0  0  0  0  0  0  0  0  0  0  0  0
   19.2400  -21.7853   -9.8009 C   0  0  0  0  0  0  0  0  0  0  0  0
   19.8812  -22.1501  -11.0821 C   0  0  0  0  0  0  0  0  0  0  0  0
   21.0149  -21.3441  -11.5687 C   0  0  0  0  0  0  0  0  0  0  0  0
   21.5219  -21.6739  -12.9308 C   0  0  2  0  0  0  0  0  0  0  0  0
   22.5617  -20.6929  -13.2867 N   0  0  0  0  0  0  0  0  0  0  0  0
   20.5539  -21.6501  -14.0265 C   0  0  0  0  0  0  0  0  0  0  0  0
   19.7053  -22.5784  -14.2498 O   0  0  0  0  0  0  0  0  0  0  0  0
   20.5015  -20.5836  -14.9113 O   0  0  0  0  0  0  0  0  0  0  0  0
  1  2  1  0
  2  3  2  0
  4  5  1  0
  4  2  1  0
  6  8  1  0
  6  5  1  0
  6  7  1  6
  8  9  2  0
 11 10  1  6
 11 13  1  0
 12 11  1  0
 14 13  1  6
 14 16  1  0
 15 14  1  0
 15  8  1  0
 16 17  2  0
 18 19  1  0
 19 20  2  0
 19 21  1  0
 21 22  1  0
 23 22  1  0
 23 24  1  0
 25 24  1  1
 25 27  1  0
 26 25  1  0
 26 16  1  0
 27 28  2  0
 27 29  1  0
M  END
$$$$
