VSE.pdb
     RDKit          3D

 23 22  0  0  1  0  0  0  0  0999 V2000
   18.1341  -12.5389  -15.5294 C   0  0  0  0  0  0  0  0  0  0  0  0
   17.5818  -11.6817  -16.6447 C   0  0  2  0  0  0  0  0  0  0  0  0
   17.2004  -12.5920  -17.7983 C   0  0  0  0  0  0  0  0  0  0  0  0
   18.6460  -10.7358  -17.1633 C   0  0  2  0  0  0  0  0  0  0  0  0
   19.6544  -11.5351  -17.8306 N   0  0  0  0  0  0  0  0  0  0  0  0
   19.2735   -9.9389  -16.1046 C   0  0  0  0  0  0  0  0  0  0  0  0
   18.5899   -9.1756  -15.4043 O   0  0  0  0  0  0  0  0  0  0  0  0
   23.4353   -9.7550  -15.5339 O   0  0  0  0  0  0  0  0  0  0  0  0
   22.6412   -9.6507  -14.3905 C   0  0  0  0  0  0  0  0  0  0  0  0
   21.2829   -9.1940  -14.8006 C   0  0  2  0  0  0  0  0  0  0  0  0
   20.6733   -9.9894  -15.8202 N   0  0  0  0  0  0  0  0  0  0  0  0
   21.3429   -7.7421  -15.1912 C   0  0  0  0  0  0  0  0  0  0  0  0
   21.3963   -7.4202  -16.3925 O   0  0  0  0  0  0  0  0  0  0  0  0
   21.3403   -6.7287  -14.2283 N   0  0  0  0  0  0  0  0  0  0  0  0
   21.4021   -5.3073  -14.5030 C   0  0  1  0  0  0  0  0  0  0  0  0
   20.0781   -4.6946  -14.7708 C   0  0  0  0  0  0  0  0  0  0  0  0
   20.1030   -3.1989  -14.9749 C   0  0  0  0  0  0  0  0  0  0  0  0
   18.6881   -2.6929  -15.1520 C   0  0  0  0  0  0  0  0  0  0  0  0
   18.4284   -1.4676  -15.1218 O   0  0  0  0  0  0  0  0  0  0  0  0
   22.2003   -4.6078  -13.4666 C   0  0  0  0  0  0  0  0  0  0  0  0
   22.6303   -3.2756  -13.6644 O   0  0  0  0  0  0  0  0  0  0  0  0
   17.6563   -3.5785  -15.3506 O   0  0  0  0  0  0  0  0  0  0  0  0
   22.5568   -5.0965  -12.3693 O   0  0  0  0  0  0  0  0  0  0  0  0
  2  1  1  1
  2  3  1  0
  4  2  1  0
  4  6  1  0
  4  5  1  1
  6  7  2  0
  9  8  1  0
 10  9  1  6
 11  6  1  0
 11 10  1  0
 12 10  1  0
 12 14  1  0
 13 12  2  0
 15 20  1  0
 15 14  1  0
 15 16  1  1
 17 16  1  0
 17 18  1  0
 18 19  2  0
 18 22  1  0
 20 21  1  0
 23 20  2  0
M  END
$$$$
