VSE.pdb
     RDKit          3D

 23 22  0  0  1  0  0  0  0  0999 V2000
   17.4389  -12.0549  -18.0849 C   0  0  0  0  0  0  0  0  0  0  0  0
   18.3864  -11.7803  -19.2295 C   0  0  2  0  0  0  0  0  0  0  0  0
   18.6492  -13.0892  -19.9524 C   0  0  0  0  0  0  0  0  0  0  0  0
   19.7215  -11.2901  -18.7069 C   0  0  2  0  0  0  0  0  0  0  0  0
   20.3741  -12.4088  -18.0557 N   0  0  0  0  0  0  0  0  0  0  0  0
   19.5960  -10.1772  -17.7605 C   0  0  0  0  0  0  0  0  0  0  0  0
   19.2050   -9.0647  -18.1477 O   0  0  0  0  0  0  0  0  0  0  0  0
   19.4158   -8.4855  -13.2556 O   0  0  0  0  0  0  0  0  0  0  0  0
   19.6939   -9.6193  -14.0210 C   0  0  0  0  0  0  0  0  0  0  0  0
   19.7792   -9.2120  -15.4523 C   0  0  2  0  0  0  0  0  0  0  0  0
   19.9075  -10.2999  -16.3710 N   0  0  0  0  0  0  0  0  0  0  0  0
   20.8897   -8.2106  -15.6195 C   0  0  0  0  0  0  0  0  0  0  0  0
   22.0407   -8.5949  -15.8973 O   0  0  0  0  0  0  0  0  0  0  0  0
   20.6620   -6.8396  -15.4693 N   0  0  0  0  0  0  0  0  0  0  0  0
   21.6621   -5.8005  -15.6100 C   0  0  1  0  0  0  0  0  0  0  0  0
   21.3411   -4.8035  -16.6603 C   0  0  0  0  0  0  0  0  0  0  0  0
   22.3484   -3.6879  -16.8024 C   0  0  0  0  0  0  0  0  0  0  0  0
   21.8688   -2.7094  -17.8522 C   0  0  0  0  0  0  0  0  0  0  0  0
   20.9495   -3.0105  -18.6484 O   0  0  0  0  0  0  0  0  0  0  0  0
   21.9944   -5.2112  -14.2899 C   0  0  0  0  0  0  0  0  0  0  0  0
   21.2382   -5.5408  -13.1417 O   0  0  0  0  0  0  0  0  0  0  0  0
   22.4401   -1.4634  -17.9490 O   0  0  0  0  0  0  0  0  0  0  0  0
   22.9274   -4.4052  -14.0665 O   0  0  0  0  0  0  0  0  0  0  0  0
  2  1  1  1
  2  3  1  0
  4  2  1  0
  4  6  1  0
  4  5  1  1
  6  7  2  0
  9  8  1  0
 10  9  1  1
 11  6  1  0
 11 10  1  0
 12 10  1  0
 12 14  1  0
 13 12  2  0
 15 20  1  0
 15 14  1  0
 15 16  1  6
 17 16  1  0
 17 18  1  0
 18 19  2  0
 18 22  1  0
 20 21  1  0
 23 20  2  0
M  END
$$$$
