VSE.pdb
     RDKit          3D

 23 22  0  0  1  0  0  0  0  0999 V2000
   18.4542   -9.8165  -18.2737 C   0  0  0  0  0  0  0  0  0  0  0  0
   19.1449  -11.1176  -18.6110 C   0  0  2  0  0  0  0  0  0  0  0  0
   18.1742  -11.9800  -19.3977 C   0  0  0  0  0  0  0  0  0  0  0  0
   19.4865  -11.8799  -17.3468 C   0  0  2  0  0  0  0  0  0  0  0  0
   18.2463  -12.3847  -16.7915 N   0  0  0  0  0  0  0  0  0  0  0  0
   20.1728  -11.0572  -16.3459 C   0  0  0  0  0  0  0  0  0  0  0  0
   19.5254  -10.3054  -15.6001 O   0  0  0  0  0  0  0  0  0  0  0  0
   24.3713  -10.7322  -16.1306 O   0  0  0  0  0  0  0  0  0  0  0  0
   23.6613  -10.5968  -14.9363 C   0  0  0  0  0  0  0  0  0  0  0  0
   22.2639  -10.1932  -15.2624 C   0  0  2  0  0  0  0  0  0  0  0  0
   21.5912  -11.0686  -16.1708 N   0  0  0  0  0  0  0  0  0  0  0  0
   22.2587   -8.7716  -15.7553 C   0  0  0  0  0  0  0  0  0  0  0  0
   22.1642   -8.5331  -16.9734 O   0  0  0  0  0  0  0  0  0  0  0  0
   22.3584   -7.6941  -14.8701 N   0  0  0  0  0  0  0  0  0  0  0  0
   22.3293   -6.2942  -15.2428 C   0  0  1  0  0  0  0  0  0  0  0  0
   21.1507   -5.9204  -16.0621 C   0  0  0  0  0  0  0  0  0  0  0  0
   21.0408   -4.4481  -16.3775 C   0  0  0  0  0  0  0  0  0  0  0  0
   19.7555   -4.1913  -17.1334 C   0  0  0  0  0  0  0  0  0  0  0  0
   19.0627   -5.1368  -17.5758 O   0  0  0  0  0  0  0  0  0  0  0  0
   22.5459   -5.4316  -14.0555 C   0  0  0  0  0  0  0  0  0  0  0  0
   22.4639   -5.9674  -12.7498 O   0  0  0  0  0  0  0  0  0  0  0  0
   19.3244   -2.9043  -17.3483 O   0  0  0  0  0  0  0  0  0  0  0  0
   22.8095   -4.2069  -14.0838 O   0  0  0  0  0  0  0  0  0  0  0  0
  2  1  1  1
  2  3  1  0
  4  2  1  0
  4  6  1  0
  4  5  1  1
  6  7  2  0
  9  8  1  0
 10  9  1  6
 11  6  1  0
 11 10  1  0
 12 10  1  0
 12 14  1  0
 13 12  2  0
 15 20  1  0
 15 14  1  0
 15 16  1  1
 17 16  1  0
 17 18  1  0
 18 19  2  0
 18 22  1  0
 20 21  1  0
 23 20  2  0
M  END
$$$$
