VSE.pdb
     RDKit          3D

 23 22  0  0  1  0  0  0  0  0999 V2000
   13.3888   -8.5707   -8.7156 C   0  0  0  0  0  0  0  0  0  0  0  0
   14.1862   -7.9215   -7.6082 C   0  0  2  0  0  0  0  0  0  0  0  0
   13.2954   -6.9066   -6.9143 C   0  0  0  0  0  0  0  0  0  0  0  0
   15.3628   -7.1569   -8.1799 C   0  0  2  0  0  0  0  0  0  0  0  0
   14.8431   -5.9550   -8.8018 N   0  0  0  0  0  0  0  0  0  0  0  0
   16.1265   -7.9280   -9.1658 C   0  0  0  0  0  0  0  0  0  0  0  0
   16.9068   -8.8201   -8.7974 O   0  0  0  0  0  0  0  0  0  0  0  0
   14.9753   -8.3661  -13.0011 O   0  0  0  0  0  0  0  0  0  0  0  0
   15.9869   -9.2010  -12.5230 C   0  0  0  0  0  0  0  0  0  0  0  0
   16.7954   -8.4395  -11.5288 C   0  0  2  0  0  0  0  0  0  0  0  0
   16.0235   -7.7070  -10.5741 N   0  0  0  0  0  0  0  0  0  0  0  0
   17.7685   -7.5507  -12.2548 C   0  0  0  0  0  0  0  0  0  0  0  0
   17.4604   -6.3748  -12.5229 O   0  0  0  0  0  0  0  0  0  0  0  0
   19.0286   -8.0154  -12.6428 N   0  0  0  0  0  0  0  0  0  0  0  0
   19.9925   -7.2739  -13.4308 C   0  0  1  0  0  0  0  0  0  0  0  0
   21.4029   -7.5784  -13.0870 C   0  0  0  0  0  0  0  0  0  0  0  0
   22.4284   -6.8057  -13.8810 C   0  0  0  0  0  0  0  0  0  0  0  0
   22.4990   -5.3860  -13.3625 C   0  0  0  0  0  0  0  0  0  0  0  0
   22.3352   -5.1300  -12.1470 O   0  0  0  0  0  0  0  0  0  0  0  0
   19.6798   -7.3807  -14.8769 C   0  0  0  0  0  0  0  0  0  0  0  0
   19.8187   -6.2616  -15.7296 O   0  0  0  0  0  0  0  0  0  0  0  0
   22.7464   -4.3457  -14.2255 O   0  0  0  0  0  0  0  0  0  0  0  0
   19.2823   -8.4153  -15.4613 O   0  0  0  0  0  0  0  0  0  0  0  0
  2  1  1  6
  2  3  1  0
  4  2  1  0
  4  6  1  0
  4  5  1  6
  6  7  2  0
  9  8  1  0
 10  9  1  6
 11  6  1  0
 11 10  1  0
 12 10  1  0
 12 14  1  0
 13 12  2  0
 15 20  1  0
 15 14  1  0
 15 16  1  6
 17 16  1  0
 17 18  1  0
 18 19  2  0
 18 22  1  0
 20 21  1  0
 23 20  2  0
M  END
$$$$
