VSE.pdb
     RDKit          3D

 23 22  0  0  1  0  0  0  0  0999 V2000
   13.8747  -10.3165   -8.9356 C   0  0  0  0  0  0  0  0  0  0  0  0
   12.8135   -9.7046   -9.8205 C   0  0  2  0  0  0  0  0  0  0  0  0
   11.5612  -10.5567   -9.7181 C   0  0  0  0  0  0  0  0  0  0  0  0
   13.2500   -9.7357  -11.2712 C   0  0  2  0  0  0  0  0  0  0  0  0
   13.4101  -11.1256  -11.6504 N   0  0  0  0  0  0  0  0  0  0  0  0
   14.5040   -9.0146  -11.5108 C   0  0  0  0  0  0  0  0  0  0  0  0
   14.6212   -7.8277  -11.1676 O   0  0  0  0  0  0  0  0  0  0  0  0
   17.5463  -10.5950  -13.8492 O   0  0  0  0  0  0  0  0  0  0  0  0
   17.9920   -9.7556  -12.8267 C   0  0  0  0  0  0  0  0  0  0  0  0
   16.8517   -8.9019  -12.3876 C   0  0  2  0  0  0  0  0  0  0  0  0
   15.6388   -9.6164  -12.1375 N   0  0  0  0  0  0  0  0  0  0  0  0
   16.6471   -7.7934  -13.3843 C   0  0  0  0  0  0  0  0  0  0  0  0
   15.7954   -7.9120  -14.2843 O   0  0  0  0  0  0  0  0  0  0  0  0
   17.3982   -6.6157  -13.3272 N   0  0  0  0  0  0  0  0  0  0  0  0
   17.2803   -5.4979  -14.2416 C   0  0  1  0  0  0  0  0  0  0  0  0
   16.7961   -4.2517  -13.5992 C   0  0  0  0  0  0  0  0  0  0  0  0
   16.7306   -3.0526  -14.5143 C   0  0  0  0  0  0  0  0  0  0  0  0
   16.2600   -1.8476  -13.7295 C   0  0  0  0  0  0  0  0  0  0  0  0
   16.0651   -1.9135  -12.4937 O   0  0  0  0  0  0  0  0  0  0  0  0
   18.5251   -5.3338  -15.0316 C   0  0  0  0  0  0  0  0  0  0  0  0
   18.5372   -4.5421  -16.2028 O   0  0  0  0  0  0  0  0  0  0  0  0
   16.0372   -0.6508  -14.3669 O   0  0  0  0  0  0  0  0  0  0  0  0
   19.6337   -5.8504  -14.7590 O   0  0  0  0  0  0  0  0  0  0  0  0
  2  1  1  1
  2  3  1  0
  4  2  1  0
  4  6  1  0
  4  5  1  1
  6  7  2  0
  9  8  1  0
 10  9  1  6
 11  6  1  0
 11 10  1  0
 12 10  1  0
 12 14  1  0
 13 12  2  0
 15 20  1  0
 15 14  1  0
 15 16  1  1
 17 16  1  0
 17 18  1  0
 18 19  2  0
 18 22  1  0
 20 21  1  0
 23 20  2  0
M  END
$$$$
