VSE.pdb
     RDKit          3D

 23 22  0  0  1  0  0  0  0  0999 V2000
   16.8794  -11.1178  -17.1399 C   0  0  0  0  0  0  0  0  0  0  0  0
   18.1740  -11.6089  -17.7453 C   0  0  2  0  0  0  0  0  0  0  0  0
   17.8609  -12.8005  -18.6324 C   0  0  0  0  0  0  0  0  0  0  0  0
   19.1130  -12.1005  -16.6625 C   0  0  2  0  0  0  0  0  0  0  0  0
   18.5403  -13.3083  -16.1018 N   0  0  0  0  0  0  0  0  0  0  0  0
   19.3261  -11.1179  -15.5953 C   0  0  0  0  0  0  0  0  0  0  0  0
   18.4538  -10.9282  -14.7330 O   0  0  0  0  0  0  0  0  0  0  0  0
   22.9239  -10.0694  -14.0936 O   0  0  0  0  0  0  0  0  0  0  0  0
   21.7353   -9.7584  -13.4307 C   0  0  0  0  0  0  0  0  0  0  0  0
   20.7159   -9.3730  -14.4477 C   0  0  2  0  0  0  0  0  0  0  0  0
   20.5187  -10.3381  -15.4839 N   0  0  0  0  0  0  0  0  0  0  0  0
   21.0590   -8.0194  -15.0081 C   0  0  0  0  0  0  0  0  0  0  0  0
   21.6843   -7.9276  -16.0805 O   0  0  0  0  0  0  0  0  0  0  0  0
   20.6895   -6.8437  -14.3484 N   0  0  0  0  0  0  0  0  0  0  0  0
   20.9814   -5.4983  -14.8005 C   0  0  1  0  0  0  0  0  0  0  0  0
   19.8317   -4.5683  -14.6833 C   0  0  0  0  0  0  0  0  0  0  0  0
   20.0973   -3.1684  -15.1825 C   0  0  0  0  0  0  0  0  0  0  0  0
   18.8832   -2.3039  -14.9220 C   0  0  0  0  0  0  0  0  0  0  0  0
   18.8874   -1.4336  -14.0208 O   0  0  0  0  0  0  0  0  0  0  0  0
   22.2355   -4.9994  -14.1850 C   0  0  0  0  0  0  0  0  0  0  0  0
   23.1220   -4.1780  -14.9185 O   0  0  0  0  0  0  0  0  0  0  0  0
   17.7462   -2.4620  -15.6774 O   0  0  0  0  0  0  0  0  0  0  0  0
   22.6189   -5.2400  -13.0166 O   0  0  0  0  0  0  0  0  0  0  0  0
  2  1  1  1
  2  3  1  0
  4  2  1  0
  4  6  1  0
  4  5  1  1
  6  7  2  0
  9  8  1  0
 10  9  1  1
 11  6  1  0
 11 10  1  0
 12 10  1  0
 12 14  1  0
 13 12  2  0
 15 20  1  0
 15 14  1  0
 15 16  1  1
 17 16  1  0
 17 18  1  0
 18 19  2  0
 18 22  1  0
 20 21  1  0
 23 20  2  0
M  END
$$$$
