VSE.pdb
     RDKit          3D

 23 22  0  0  1  0  0  0  0  0999 V2000
   20.1370  -15.0774  -17.1599 C   0  0  0  0  0  0  0  0  0  0  0  0
   18.7452  -14.7757  -16.6546 C   0  0  2  0  0  0  0  0  0  0  0  0
   17.7779  -15.7319  -17.3291 C   0  0  0  0  0  0  0  0  0  0  0  0
   18.3288  -13.3742  -17.0527 C   0  0  2  0  0  0  0  0  0  0  0  0
   18.2282  -13.3415  -18.4984 N   0  0  0  0  0  0  0  0  0  0  0  0
   19.2704  -12.3441  -16.6033 C   0  0  0  0  0  0  0  0  0  0  0  0
   19.4736  -12.1645  -15.3921 O   0  0  0  0  0  0  0  0  0  0  0  0
   23.0348   -9.5438  -17.1320 O   0  0  0  0  0  0  0  0  0  0  0  0
   22.2023  -10.4645  -17.7709 C   0  0  0  0  0  0  0  0  0  0  0  0
   20.8914  -10.4853  -17.0617 C   0  0  2  0  0  0  0  0  0  0  0  0
   19.9935  -11.5051  -17.5065 N   0  0  0  0  0  0  0  0  0  0  0  0
   20.2625   -9.1205  -17.1381 C   0  0  0  0  0  0  0  0  0  0  0  0
   19.7321   -8.7355  -18.1964 O   0  0  0  0  0  0  0  0  0  0  0  0
   20.2568   -8.2592  -16.0371 N   0  0  0  0  0  0  0  0  0  0  0  0
   19.7184   -6.9140  -16.0243 C   0  0  1  0  0  0  0  0  0  0  0  0
   18.4182   -6.7998  -15.3195 C   0  0  0  0  0  0  0  0  0  0  0  0
   17.7886   -5.4286  -15.3720 C   0  0  0  0  0  0  0  0  0  0  0  0
   16.4322   -5.4732  -14.7031 C   0  0  0  0  0  0  0  0  0  0  0  0
   16.0043   -6.5246  -14.1728 O   0  0  0  0  0  0  0  0  0  0  0  0
   20.7450   -5.9431  -15.5727 C   0  0  0  0  0  0  0  0  0  0  0  0
   20.5902   -4.5604  -15.8237 O   0  0  0  0  0  0  0  0  0  0  0  0
   15.6413   -4.3501  -14.6669 O   0  0  0  0  0  0  0  0  0  0  0  0
   21.7974   -6.2303  -14.9563 O   0  0  0  0  0  0  0  0  0  0  0  0
  2  1  1  6
  2  3  1  0
  4  2  1  0
  4  6  1  0
  4  5  1  6
  6  7  2  0
  9  8  1  0
 10  9  1  6
 11  6  1  0
 11 10  1  0
 12 10  1  0
 12 14  1  0
 13 12  2  0
 15 20  1  0
 15 14  1  0
 15 16  1  1
 17 16  1  0
 17 18  1  0
 18 19  2  0
 18 22  1  0
 20 21  1  0
 23 20  2  0
M  END
$$$$
