VSE.pdb
     RDKit          3D

 23 22  0  0  1  0  0  0  0  0999 V2000
   15.1079  -12.3969  -11.7281 C   0  0  0  0  0  0  0  0  0  0  0  0
   14.8541  -10.9085  -11.7916 C   0  0  2  0  0  0  0  0  0  0  0  0
   14.6513  -10.5235  -13.2461 C   0  0  0  0  0  0  0  0  0  0  0  0
   16.0647  -10.1426  -11.2979 C   0  0  2  0  0  0  0  0  0  0  0  0
   16.3170  -10.5562   -9.9317 N   0  0  0  0  0  0  0  0  0  0  0  0
   15.8844   -8.6883  -11.3444 C   0  0  0  0  0  0  0  0  0  0  0  0
   15.8615   -8.0929  -12.4332 O   0  0  0  0  0  0  0  0  0  0  0  0
   15.8183   -6.3377   -7.8957 O   0  0  0  0  0  0  0  0  0  0  0  0
   15.0612   -5.8545   -8.9644 C   0  0  0  0  0  0  0  0  0  0  0  0
   15.5777   -6.4659  -10.2219 C   0  0  2  0  0  0  0  0  0  0  0  0
   15.7281   -7.8867  -10.1715 N   0  0  0  0  0  0  0  0  0  0  0  0
   16.8609   -5.7857  -10.6155 C   0  0  0  0  0  0  0  0  0  0  0  0
   17.9533   -6.2434  -10.2325 O   0  0  0  0  0  0  0  0  0  0  0  0
   16.8610   -4.6365  -11.4115 N   0  0  0  0  0  0  0  0  0  0  0  0
   18.0320   -4.0280  -12.0098 C   0  0  1  0  0  0  0  0  0  0  0  0
   18.9461   -5.0027  -12.6539 C   0  0  0  0  0  0  0  0  0  0  0  0
   20.1127   -4.3863  -13.3875 C   0  0  0  0  0  0  0  0  0  0  0  0
   20.9122   -5.4774  -14.0656 C   0  0  0  0  0  0  0  0  0  0  0  0
   20.5633   -6.6785  -13.9927 O   0  0  0  0  0  0  0  0  0  0  0  0
   17.6448   -2.8888  -12.8774 C   0  0  0  0  0  0  0  0  0  0  0  0
   18.5121   -1.7856  -13.0492 O   0  0  0  0  0  0  0  0  0  0  0  0
   22.0443   -5.1642  -14.7787 O   0  0  0  0  0  0  0  0  0  0  0  0
   16.5694   -2.7902  -13.5129 O   0  0  0  0  0  0  0  0  0  0  0  0
  2  1  1  6
  2  3  1  0
  4  2  1  0
  4  6  1  0
  4  5  1  1
  6  7  2  0
  9  8  1  0
 10  9  1  1
 11  6  1  0
 11 10  1  0
 12 10  1  0
 12 14  1  0
 13 12  2  0
 15 20  1  0
 15 14  1  0
 15 16  1  6
 17 16  1  0
 17 18  1  0
 18 19  2  0
 18 22  1  0
 20 21  1  0
 23 20  2  0
M  END
$$$$
