HYL.pdb
     RDKit          3D

 31 32  0  0  1  0  0  0  0  0999 V2000
   14.0307  -10.4502  -11.7825 N   0  0  0  0  0  0  0  0  0  0  0  0
   15.3491   -9.9990  -11.4159 C   0  0  1  0  0  0  0  0  0  0  0  0
   16.2442  -10.2548  -12.6356 C   0  0  0  0  0  0  0  0  0  0  0  0
   16.2639  -11.7251  -12.8472 C   0  0  0  0  0  0  0  0  0  0  0  0
   15.8354  -12.3930  -14.0018 C   0  0  0  0  0  0  0  0  0  0  0  0
   16.0051  -13.7111  -13.8232 N   0  0  0  0  0  0  0  0  0  0  0  0
   16.5230  -13.9082  -12.6043 C   0  0  0  0  0  0  0  0  0  0  0  0
   16.6776  -12.6993  -12.0173 N   0  0  0  0  0  0  0  0  0  0  0  0
   15.3755   -8.5498  -11.0720 C   0  0  0  0  0  0  0  0  0  0  0  0
   14.7860   -7.7676  -11.8589 O   0  0  0  0  0  0  0  0  0  0  0  0
   10.0813   -7.6577   -7.2942 O   0  0  0  0  0  0  0  0  0  0  0  0
   11.4396   -7.4019   -7.4988 C   0  0  0  0  0  0  0  0  0  0  0  0
   11.9442   -6.1171   -7.5504 C   0  0  0  0  0  0  0  0  0  0  0  0
   13.2722   -5.8256   -7.7496 C   0  0  0  0  0  0  0  0  0  0  0  0
   14.1693   -6.8610   -7.9095 C   0  0  0  0  0  0  0  0  0  0  0  0
   15.5867   -6.5390   -8.1219 C   0  0  0  0  0  0  0  0  0  0  0  0
   16.0979   -6.7575   -9.5181 C   0  0  2  0  0  0  0  0  0  0  0  0
   16.0446   -8.1358   -9.9081 N   0  0  0  0  0  0  0  0  0  0  0  0
   17.4010   -6.1377   -9.7451 C   0  0  0  0  0  0  0  0  0  0  0  0
   18.3905   -6.4616   -9.0532 O   0  0  0  0  0  0  0  0  0  0  0  0
   13.6894   -8.1515   -7.8618 C   0  0  0  0  0  0  0  0  0  0  0  0
   12.3602   -8.4158   -7.6619 C   0  0  0  0  0  0  0  0  0  0  0  0
   21.1222   -7.6839  -13.2832 C   0  0  0  0  0  0  0  0  0  0  0  0
   20.6270   -6.3611  -12.7851 C   0  0  2  0  0  0  0  0  0  0  0  0
   21.7274   -5.8055  -11.8636 C   0  0  0  0  0  0  0  0  0  0  0  0
   19.3865   -6.3953  -11.9715 C   0  0  0  0  0  0  0  0  0  0  0  0
   18.8168   -5.0905  -11.5417 C   0  0  2  0  0  0  0  0  0  0  0  0
   17.6315   -5.1337  -10.7582 N   0  0  0  0  0  0  0  0  0  0  0  0
   18.7407   -4.1011  -12.6617 C   0  0  0  0  0  0  0  0  0  0  0  0
   19.7644   -3.4695  -13.0035 O   0  0  0  0  0  0  0  0  0  0  0  0
   17.5648   -3.8508  -13.3473 O   0  0  0  0  0  0  0  0  0  0  0  0
  2  1  1  6
  2  3  1  0
  3  4  1  0
  4  5  2  0
  5  6  1  0
  7  6  1  0
  8  4  1  0
  8  7  2  0
  9 18  1  0
  9  2  1  0
 10  9  2  0
 11 12  1  0
 12 13  2  0
 13 14  1  0
 15 16  1  0
 15 14  2  0
 17 16  1  1
 17 18  1  0
 19 17  1  0
 20 19  2  0
 21 15  1  0
 22 21  2  0
 22 12  1  0
 24 23  1  1
 24 26  1  0
 25 24  1  0
 27 26  1  6
 27 29  1  0
 27 28  1  0
 28 19  1  0
 29 31  1  0
 30 29  2  0
M  END
$$$$
