HYL.pdb
     RDKit          3D

 31 32  0  0  1  0  0  0  0  0999 V2000
   26.3393  -20.7764  -16.5150 N   0  0  0  0  0  0  0  0  0  0  0  0
   27.0519  -21.0709  -15.2977 C   0  0  1  0  0  0  0  0  0  0  0  0
   28.4685  -20.5120  -15.4844 C   0  0  0  0  0  0  0  0  0  0  0  0
   29.1376  -21.3775  -16.4896 C   0  0  0  0  0  0  0  0  0  0  0  0
   29.7139  -22.6297  -16.2394 C   0  0  0  0  0  0  0  0  0  0  0  0
   30.2190  -23.1066  -17.3863 N   0  0  0  0  0  0  0  0  0  0  0  0
   29.9879  -22.2104  -18.3537 C   0  0  0  0  0  0  0  0  0  0  0  0
   29.3314  -21.1636  -17.8031 N   0  0  0  0  0  0  0  0  0  0  0  0
   26.4191  -20.4404  -14.1055 C   0  0  0  0  0  0  0  0  0  0  0  0
   26.3569  -19.1856  -14.0914 O   0  0  0  0  0  0  0  0  0  0  0  0
   21.5418  -18.4371  -16.8097 O   0  0  0  0  0  0  0  0  0  0  0  0
   22.0745  -19.0592  -15.6776 C   0  0  0  0  0  0  0  0  0  0  0  0
   22.2267  -18.3923  -14.4777 C   0  0  0  0  0  0  0  0  0  0  0  0
   22.7460  -18.9693  -13.3437 C   0  0  0  0  0  0  0  0  0  0  0  0
   23.1441  -20.2892  -13.3851 C   0  0  0  0  0  0  0  0  0  0  0  0
   23.6979  -20.8967  -12.1678 C   0  0  0  0  0  0  0  0  0  0  0  0
   25.1793  -20.7304  -11.9778 C   0  0  2  0  0  0  0  0  0  0  0  0
   25.9323  -21.2623  -13.0753 N   0  0  0  0  0  0  0  0  0  0  0  0
   25.6373  -21.2030  -10.6737 C   0  0  0  0  0  0  0  0  0  0  0  0
   25.7936  -22.4243  -10.4569 O   0  0  0  0  0  0  0  0  0  0  0  0
   23.0020  -20.9752  -14.5714 C   0  0  0  0  0  0  0  0  0  0  0  0
   22.4812  -20.3770  -15.6883 C   0  0  0  0  0  0  0  0  0  0  0  0
   29.1269  -20.8853   -7.5635 C   0  0  0  0  0  0  0  0  0  0  0  0
   28.1736  -19.7368   -7.6859 C   0  0  2  0  0  0  0  0  0  0  0  0
   28.7011  -18.6341   -6.7507 C   0  0  0  0  0  0  0  0  0  0  0  0
   26.7765  -20.0028   -7.2625 C   0  0  0  0  0  0  0  0  0  0  0  0
   25.9037  -20.7388   -8.2155 C   0  0  2  0  0  0  0  0  0  0  0  0
   25.9338  -20.3161   -9.5724 N   0  0  0  0  0  0  0  0  0  0  0  0
   24.5142  -20.9264   -7.6931 C   0  0  0  0  0  0  0  0  0  0  0  0
   23.5499  -20.3965   -8.2876 O   0  0  0  0  0  0  0  0  0  0  0  0
   24.2458  -21.6746   -6.5601 O   0  0  0  0  0  0  0  0  0  0  0  0
  2  1  1  6
  2  3  1  0
  3  4  1  0
  4  5  2  0
  5  6  1  0
  7  6  1  0
  8  4  1  0
  8  7  2  0
  9 18  1  0
  9  2  1  0
 10  9  2  0
 11 12  1  0
 12 13  2  0
 13 14  1  0
 15 16  1  0
 15 14  2  0
 17 16  1  6
 17 18  1  0
 19 17  1  0
 20 19  2  0
 21 15  1  0
 22 21  2  0
 22 12  1  0
 24 23  1  1
 24 26  1  0
 25 24  1  0
 27 26  1  1
 27 29  1  0
 27 28  1  0
 28 19  1  0
 29 31  1  0
 30 29  2  0
M  END
$$$$
