HYL.pdb
     RDKit          3D

 31 32  0  0  1  0  0  0  0  0999 V2000
   26.3493  -19.1185  -19.3069 N   0  0  0  0  0  0  0  0  0  0  0  0
   26.3256  -18.9203  -17.8798 C   0  0  1  0  0  0  0  0  0  0  0  0
   25.7716  -17.5077  -17.6525 C   0  0  0  0  0  0  0  0  0  0  0  0
   26.7808  -16.5629  -18.1964 C   0  0  0  0  0  0  0  0  0  0  0  0
   26.6035  -15.7213  -19.3023 C   0  0  0  0  0  0  0  0  0  0  0  0
   27.7294  -15.0179  -19.4913 N   0  0  0  0  0  0  0  0  0  0  0  0
   28.6136  -15.3773  -18.5524 C   0  0  0  0  0  0  0  0  0  0  0  0
   28.0319  -16.3150  -17.7699 N   0  0  0  0  0  0  0  0  0  0  0  0
   25.4603  -19.9142  -17.1852 C   0  0  0  0  0  0  0  0  0  0  0  0
   24.2945  -20.0623  -17.6296 O   0  0  0  0  0  0  0  0  0  0  0  0
   25.0513  -25.1612  -20.7409 O   0  0  0  0  0  0  0  0  0  0  0  0
   25.1855  -24.6292  -19.4559 C   0  0  0  0  0  0  0  0  0  0  0  0
   26.3643  -24.0577  -19.0182 C   0  0  0  0  0  0  0  0  0  0  0  0
   26.5347  -23.5246  -17.7631 C   0  0  0  0  0  0  0  0  0  0  0  0
   25.4804  -23.5517  -16.8743 C   0  0  0  0  0  0  0  0  0  0  0  0
   25.6726  -22.9794  -15.5352 C   0  0  0  0  0  0  0  0  0  0  0  0
   25.1861  -21.5685  -15.3586 C   0  0  2  0  0  0  0  0  0  0  0  0
   25.9787  -20.6236  -16.0890 N   0  0  0  0  0  0  0  0  0  0  0  0
   24.9965  -21.2087  -13.9555 C   0  0  0  0  0  0  0  0  0  0  0  0
   25.7869  -20.4256  -13.3855 O   0  0  0  0  0  0  0  0  0  0  0  0
   24.2941  -24.1168  -17.2884 C   0  0  0  0  0  0  0  0  0  0  0  0
   24.1496  -24.6418  -18.5454 C   0  0  0  0  0  0  0  0  0  0  0  0
   25.0314  -22.0023   -9.5942 C   0  0  0  0  0  0  0  0  0  0  0  0
   25.4809  -20.8908  -10.4918 C   0  0  2  0  0  0  0  0  0  0  0  0
   26.1111  -19.8242   -9.5786 C   0  0  0  0  0  0  0  0  0  0  0  0
   24.4132  -20.2000  -11.2565 C   0  0  0  0  0  0  0  0  0  0  0  0
   23.4376  -21.0520  -11.9872 C   0  0  2  0  0  0  0  0  0  0  0  0
   23.9113  -21.7190  -13.1497 N   0  0  0  0  0  0  0  0  0  0  0  0
   22.1250  -20.3664  -12.2015 C   0  0  0  0  0  0  0  0  0  0  0  0
   21.4153  -20.6758  -13.1836 O   0  0  0  0  0  0  0  0  0  0  0  0
   21.6546  -19.3871  -11.3441 O   0  0  0  0  0  0  0  0  0  0  0  0
  2  1  1  6
  2  3  1  0
  3  4  1  0
  4  5  2  0
  5  6  1  0
  7  6  1  0
  8  4  1  0
  8  7  2  0
  9 18  1  0
  9  2  1  0
 10  9  2  0
 11 12  1  0
 12 13  2  0
 13 14  1  0
 15 16  1  0
 15 14  2  0
 17 16  1  1
 17 18  1  0
 19 17  1  0
 20 19  2  0
 21 15  1  0
 22 21  2  0
 22 12  1  0
 24 23  1  1
 24 26  1  0
 25 24  1  0
 27 26  1  6
 27 29  1  0
 27 28  1  0
 28 19  1  0
 29 31  1  0
 30 29  2  0
M  END
$$$$
