HYL.pdb
     RDKit          3D

 31 32  0  0  1  0  0  0  0  0999 V2000
   26.0865  -20.0430  -18.3416 N   0  0  0  0  0  0  0  0  0  0  0  0
   26.4445  -20.7690  -17.1495 C   0  0  1  0  0  0  0  0  0  0  0  0
   27.9692  -20.6560  -17.0206 C   0  0  0  0  0  0  0  0  0  0  0  0
   28.5428  -21.8400  -17.7107 C   0  0  0  0  0  0  0  0  0  0  0  0
   27.8120  -22.8502  -18.3496 C   0  0  0  0  0  0  0  0  0  0  0  0
   28.6711  -23.7473  -18.8548 N   0  0  0  0  0  0  0  0  0  0  0  0
   29.9159  -23.3495  -18.5638 C   0  0  0  0  0  0  0  0  0  0  0  0
   29.8312  -22.1916  -17.8695 N   0  0  0  0  0  0  0  0  0  0  0  0
   25.7971  -20.2088  -15.9304 C   0  0  0  0  0  0  0  0  0  0  0  0
   25.9510  -18.9800  -15.7183 O   0  0  0  0  0  0  0  0  0  0  0  0
   20.6894  -17.4044  -18.2101 O   0  0  0  0  0  0  0  0  0  0  0  0
   21.2277  -18.1854  -17.1841 C   0  0  0  0  0  0  0  0  0  0  0  0
   21.5229  -19.5233  -17.3587 C   0  0  0  0  0  0  0  0  0  0  0  0
   22.0526  -20.3233  -16.3749 C   0  0  0  0  0  0  0  0  0  0  0  0
   22.3118  -19.7783  -15.1348 C   0  0  0  0  0  0  0  0  0  0  0  0
   22.8780  -20.6416  -14.0899 C   0  0  0  0  0  0  0  0  0  0  0  0
   24.3714  -20.5763  -13.9353 C   0  0  2  0  0  0  0  0  0  0  0  0
   25.0606  -21.0638  -15.0936 N   0  0  0  0  0  0  0  0  0  0  0  0
   24.8358  -21.1744  -12.6861 C   0  0  0  0  0  0  0  0  0  0  0  0
   24.6245  -22.3818  -12.4400 O   0  0  0  0  0  0  0  0  0  0  0  0
   22.0256  -18.4453  -14.9366 C   0  0  0  0  0  0  0  0  0  0  0  0
   21.4977  -17.6688  -15.9341 C   0  0  0  0  0  0  0  0  0  0  0  0
   28.8796  -21.6902  -11.3293 C   0  0  0  0  0  0  0  0  0  0  0  0
   28.3850  -20.4080  -10.7339 C   0  0  2  0  0  0  0  0  0  0  0  0
   29.5347  -19.8591   -9.8706 C   0  0  0  0  0  0  0  0  0  0  0  0
   27.2105  -20.5191   -9.8339 C   0  0  0  0  0  0  0  0  0  0  0  0
   25.9374  -21.0034  -10.4308 C   0  0  2  0  0  0  0  0  0  0  0  0
   25.5528  -20.4326  -11.6747 N   0  0  0  0  0  0  0  0  0  0  0  0
   24.8187  -21.0479   -9.4381 C   0  0  0  0  0  0  0  0  0  0  0  0
   23.7619  -20.4186   -9.6641 O   0  0  0  0  0  0  0  0  0  0  0  0
   24.9053  -21.7686   -8.2597 O   0  0  0  0  0  0  0  0  0  0  0  0
  2  1  1  6
  2  3  1  0
  3  4  1  0
  4  5  2  0
  5  6  1  0
  7  6  1  0
  8  4  1  0
  8  7  2  0
  9 18  1  0
  9  2  1  0
 10  9  2  0
 11 12  1  0
 12 13  2  0
 13 14  1  0
 15 16  1  0
 15 14  2  0
 17 16  1  6
 17 18  1  0
 19 17  1  0
 20 19  2  0
 21 15  1  0
 22 21  2  0
 22 12  1  0
 24 23  1  1
 24 26  1  0
 25 24  1  0
 27 26  1  1
 27 29  1  0
 27 28  1  0
 28 19  1  0
 29 31  1  0
 30 29  2  0
M  END
$$$$
