HYL.pdb
     RDKit          3D

 31 32  0  0  1  0  0  0  0  0999 V2000
   16.5339   -9.3266  -16.2419 N   0  0  0  0  0  0  0  0  0  0  0  0
   16.9700   -8.2640  -15.3717 C   0  0  1  0  0  0  0  0  0  0  0  0
   16.7887   -6.9614  -16.1618 C   0  0  0  0  0  0  0  0  0  0  0  0
   18.0332   -6.7653  -16.9491 C   0  0  0  0  0  0  0  0  0  0  0  0
   18.2701   -7.2499  -18.2421 C   0  0  0  0  0  0  0  0  0  0  0  0
   19.5000   -6.8748  -18.6224 N   0  0  0  0  0  0  0  0  0  0  0  0
   20.0538   -6.1727  -17.6258 C   0  0  0  0  0  0  0  0  0  0  0  0
   19.1587   -6.1100  -16.6135 N   0  0  0  0  0  0  0  0  0  0  0  0
   16.1740   -8.2005  -14.1141 C   0  0  0  0  0  0  0  0  0  0  0  0
   14.9530   -8.4841  -14.1988 O   0  0  0  0  0  0  0  0  0  0  0  0
   15.7203  -14.2933  -12.4567 O   0  0  0  0  0  0  0  0  0  0  0  0
   15.9757  -12.9815  -12.0490 C   0  0  0  0  0  0  0  0  0  0  0  0
   15.1032  -12.2825  -11.2379 C   0  0  0  0  0  0  0  0  0  0  0  0
   15.3194  -10.9926  -10.8164 C   0  0  0  0  0  0  0  0  0  0  0  0
   16.4675  -10.3405  -11.2150 C   0  0  0  0  0  0  0  0  0  0  0  0
   16.6894   -8.9619  -10.7590 C   0  0  0  0  0  0  0  0  0  0  0  0
   16.1395   -7.8876  -11.6546 C   0  0  2  0  0  0  0  0  0  0  0  0
   16.8138   -7.8341  -12.9183 N   0  0  0  0  0  0  0  0  0  0  0  0
   16.0463   -6.5909  -10.9885 C   0  0  0  0  0  0  0  0  0  0  0  0
   17.0513   -5.8549  -10.8822 O   0  0  0  0  0  0  0  0  0  0  0  0
   17.3532  -11.0175  -12.0245 C   0  0  0  0  0  0  0  0  0  0  0  0
   17.1145  -12.3036  -12.4311 C   0  0  0  0  0  0  0  0  0  0  0  0
   11.9339   -5.4450   -8.3760 C   0  0  0  0  0  0  0  0  0  0  0  0
   13.2716   -5.8903   -7.8709 C   0  0  2  0  0  0  0  0  0  0  0  0
   13.1787   -5.8846   -6.3347 C   0  0  0  0  0  0  0  0  0  0  0  0
   14.4212   -5.0184   -8.2176 C   0  0  0  0  0  0  0  0  0  0  0  0
   14.7644   -4.8832   -9.6583 C   0  0  2  0  0  0  0  0  0  0  0  0
   14.8192   -6.0816  -10.4210 N   0  0  0  0  0  0  0  0  0  0  0  0
   15.9446   -3.9920   -9.8857 C   0  0  0  0  0  0  0  0  0  0  0  0
   16.9982   -4.4660  -10.3642 O   0  0  0  0  0  0  0  0  0  0  0  0
   15.9193   -2.6416   -9.5836 O   0  0  0  0  0  0  0  0  0  0  0  0
  2  1  1  6
  2  3  1  0
  3  4  1  0
  4  5  2  0
  5  6  1  0
  7  6  1  0
  8  4  1  0
  8  7  2  0
  9 18  1  0
  9  2  1  0
 10  9  2  0
 11 12  1  0
 12 13  2  0
 13 14  1  0
 15 16  1  0
 15 14  2  0
 17 16  1  1
 17 18  1  0
 19 17  1  0
 20 19  2  0
 21 15  1  0
 22 21  2  0
 22 12  1  0
 24 23  1  6
 24 26  1  0
 25 24  1  0
 27 26  1  1
 27 29  1  0
 27 28  1  0
 28 19  1  0
 29 31  1  0
 30 29  2  0
M  END
$$$$
