HYL.pdb
     RDKit          3D

 31 32  0  0  1  0  0  0  0  0999 V2000
   28.3679  -22.8047  -16.4083 N   0  0  0  0  0  0  0  0  0  0  0  0
   28.7018  -21.4086  -16.5334 C   0  0  1  0  0  0  0  0  0  0  0  0
   28.6455  -21.0871  -18.0326 C   0  0  0  0  0  0  0  0  0  0  0  0
   29.7842  -21.8028  -18.6637 C   0  0  0  0  0  0  0  0  0  0  0  0
   29.8945  -23.1906  -18.8206 C   0  0  0  0  0  0  0  0  0  0  0  0
   31.0569  -23.4624  -19.4313 N   0  0  0  0  0  0  0  0  0  0  0  0
   31.6890  -22.3062  -19.6686 C   0  0  0  0  0  0  0  0  0  0  0  0
   30.9116  -21.3031  -19.2005 N   0  0  0  0  0  0  0  0  0  0  0  0
   27.7486  -20.5312  -15.7981 C   0  0  0  0  0  0  0  0  0  0  0  0
   27.5473  -19.3858  -16.2735 O   0  0  0  0  0  0  0  0  0  0  0  0
   19.4696  -19.3189  -14.2533 O   0  0  0  0  0  0  0  0  0  0  0  0
   20.7778  -19.7327  -14.5171 C   0  0  0  0  0  0  0  0  0  0  0  0
   21.7292  -18.8735  -15.0312 C   0  0  0  0  0  0  0  0  0  0  0  0
   23.0245  -19.2430  -15.3036 C   0  0  0  0  0  0  0  0  0  0  0  0
   23.4173  -20.5418  -15.0565 C   0  0  0  0  0  0  0  0  0  0  0  0
   24.8039  -20.9269  -15.3510 C   0  0  0  0  0  0  0  0  0  0  0  0
   25.8015  -20.6329  -14.2661 C   0  0  2  0  0  0  0  0  0  0  0  0
   27.1331  -21.0167  -14.6323 N   0  0  0  0  0  0  0  0  0  0  0  0
   25.3851  -21.1450  -12.9630 C   0  0  0  0  0  0  0  0  0  0  0  0
   24.9944  -22.3259  -12.8370 O   0  0  0  0  0  0  0  0  0  0  0  0
   22.4855  -21.4175  -14.5435 C   0  0  0  0  0  0  0  0  0  0  0  0
   21.1999  -21.0243  -14.2806 C   0  0  0  0  0  0  0  0  0  0  0  0
   27.5812  -21.2184   -9.0047 C   0  0  0  0  0  0  0  0  0  0  0  0
   26.7723  -19.9682   -9.1652 C   0  0  2  0  0  0  0  0  0  0  0  0
   26.9905  -19.1434   -7.8843 C   0  0  0  0  0  0  0  0  0  0  0  0
   25.3054  -20.1541   -9.2908 C   0  0  0  0  0  0  0  0  0  0  0  0
   24.8019  -20.7776  -10.5435 C   0  0  2  0  0  0  0  0  0  0  0  0
   25.3951  -20.3442  -11.7605 N   0  0  0  0  0  0  0  0  0  0  0  0
   23.3073  -20.8172  -10.6041 C   0  0  0  0  0  0  0  0  0  0  0  0
   22.6904  -19.9701  -11.2865 O   0  0  0  0  0  0  0  0  0  0  0  0
   22.5656  -21.7681   -9.9250 O   0  0  0  0  0  0  0  0  0  0  0  0
  2  1  1  6
  2  3  1  0
  3  4  1  0
  4  5  2  0
  5  6  1  0
  7  6  1  0
  8  4  1  0
  8  7  2  0
  9 18  1  0
  9  2  1  0
 10  9  2  0
 11 12  1  0
 12 13  2  0
 13 14  1  0
 15 16  1  0
 15 14  2  0
 17 16  1  6
 17 18  1  0
 19 17  1  0
 20 19  2  0
 21 15  1  0
 22 21  2  0
 22 12  1  0
 24 23  1  1
 24 26  1  0
 25 24  1  0
 27 26  1  1
 27 29  1  0
 27 28  1  0
 28 19  1  0
 29 31  1  0
 30 29  2  0
M  END
$$$$
