TYI.pdb
     RDKit          3D

 28 28  0  0  1  0  0  0  0  0999 V2000
    4.6509  -19.1880   23.1557 C   0  0  0  0  0  0  0  0  0  0  0  0
    5.9017  -18.3376   23.1832 C   0  0  1  0  0  0  0  0  0  0  0  0
    6.8915  -19.0833   23.8104 O   0  0  0  0  0  0  0  0  0  0  0  0
    6.3842  -18.0089   21.7843 C   0  0  2  0  0  0  0  0  0  0  0  0
    6.6831  -19.2471   21.0525 N   0  0  0  0  0  0  0  0  0  0  0  0
    7.5840  -17.1425   21.8118 C   0  0  0  0  0  0  0  0  0  0  0  0
    8.7123  -17.6836   21.6689 O   0  0  0  0  0  0  0  0  0  0  0  0
    7.8041  -13.5614   16.0090 O   0  0  0  0  0  0  0  0  0  0  0  0
    7.8760  -13.5752   17.4048 C   0  0  0  0  0  0  0  0  0  0  0  0
    9.1199  -13.3555   17.9536 C   0  0  0  0  0  0  0  0  0  0  0  0
    9.2266  -13.3624   19.3221 C   0  0  0  0  0  0  0  0  0  0  0  0
    8.1436  -13.5791   20.1541 C   0  0  0  0  0  0  0  0  0  0  0  0
    8.4020  -13.5596   21.6137 C   0  0  0  0  0  0  0  0  0  0  0  0
    8.7441  -14.9322   22.1482 C   0  0  2  0  0  0  0  0  0  0  0  0
    7.5599  -15.7548   21.9853 N   0  0  0  0  0  0  0  0  0  0  0  0
    9.1103  -14.7642   23.5722 C   0  0  0  0  0  0  0  0  0  0  0  0
   10.2376  -14.2914   23.8397 O   0  0  0  0  0  0  0  0  0  0  0  0
    6.9270  -13.7933   19.5815 C   0  0  0  0  0  0  0  0  0  0  0  0
    6.7777  -13.7940   18.1973 C   0  0  0  0  0  0  0  0  0  0  0  0
    5.6763  -12.3864   26.5630 C   0  0  0  0  0  0  0  0  0  0  0  0
    6.7666  -13.0609   25.7557 C   0  0  0  0  0  0  0  0  0  0  0  0
    7.4465  -14.0562   26.6537 C   0  0  2  0  0  0  0  0  0  0  0  0
    8.1427  -13.2826   27.7547 C   0  0  0  0  0  0  0  0  0  0  0  0
    8.5016  -14.8677   25.9445 C   0  0  2  0  0  0  0  0  0  0  0  0
    8.1877  -15.1378   24.5779 N   0  0  0  0  0  0  0  0  0  0  0  0
    8.6101  -16.1560   26.6679 C   0  0  0  0  0  0  0  0  0  0  0  0
    7.8506  -17.1375   26.4557 O   0  0  0  0  0  0  0  0  0  0  0  0
    9.5866  -16.3135   27.6295 O   0  0  0  0  0  0  0  0  0  0  0  0
  2  1  1  6
  3  2  1  0
  4  2  1  0
  4  6  1  0
  4  5  1  1
  6 15  1  0
  7  6  2  0
  9  8  1  0
 10  9  2  0
 11 10  1  0
 12 11  2  0
 12 18  1  0
 13 12  1  0
 14 16  1  0
 14 13  1  1
 15 14  1  0
 16 25  1  0
 17 16  2  0
 18 19  2  0
 19  9  1  0
 21 20  1  0
 22 21  1  0
 22 24  1  0
 22 23  1  1
 24 26  1  0
 24 25  1  6
 26 27  2  0
 26 28  1  0
M  END
$$$$
