TYI.pdb
     RDKit          3D

 28 28  0  0  1  0  0  0  0  0999 V2000
    8.2957  -16.8601   17.7498 C   0  0  0  0  0  0  0  0  0  0  0  0
    8.0512  -16.6163   19.2226 C   0  0  1  0  0  0  0  0  0  0  0  0
    7.4289  -15.3798   19.3365 O   0  0  0  0  0  0  0  0  0  0  0  0
    7.1237  -17.6590   19.8146 C   0  0  2  0  0  0  0  0  0  0  0  0
    5.8159  -17.6042   19.1478 N   0  0  0  0  0  0  0  0  0  0  0  0
    6.9499  -17.4684   21.2722 C   0  0  0  0  0  0  0  0  0  0  0  0
    5.8942  -16.9144   21.6783 O   0  0  0  0  0  0  0  0  0  0  0  0
    8.3548  -18.6574   29.9639 O   0  0  0  0  0  0  0  0  0  0  0  0
    8.2467  -18.7202   28.5719 C   0  0  0  0  0  0  0  0  0  0  0  0
    9.4265  -18.8547   27.8740 C   0  0  0  0  0  0  0  0  0  0  0  0
    9.3570  -18.9196   26.5047 C   0  0  0  0  0  0  0  0  0  0  0  0
    8.1607  -18.8553   25.8142 C   0  0  0  0  0  0  0  0  0  0  0  0
    8.2319  -18.9376   24.3358 C   0  0  0  0  0  0  0  0  0  0  0  0
    7.6842  -17.6947   23.6708 C   0  0  2  0  0  0  0  0  0  0  0  0
    7.8776  -17.8613   22.2425 N   0  0  0  0  0  0  0  0  0  0  0  0
    8.4493  -16.5451   24.2032 C   0  0  0  0  0  0  0  0  0  0  0  0
    9.6474  -16.4253   23.8626 O   0  0  0  0  0  0  0  0  0  0  0  0
    7.0115  -18.7223   26.5321 C   0  0  0  0  0  0  0  0  0  0  0  0
    7.0402  -18.6529   27.9223 C   0  0  0  0  0  0  0  0  0  0  0  0
    5.8627  -12.0794   26.7163 C   0  0  0  0  0  0  0  0  0  0  0  0
    6.5338  -13.4320   26.5921 C   0  0  0  0  0  0  0  0  0  0  0  0
    7.7454  -13.2591   25.7194 C   0  0  2  0  0  0  0  0  0  0  0  0
    7.2642  -12.8843   24.3326 C   0  0  0  0  0  0  0  0  0  0  0  0
    8.5594  -14.5213   25.5819 C   0  0  2  0  0  0  0  0  0  0  0  0
    7.8130  -15.6262   25.0709 N   0  0  0  0  0  0  0  0  0  0  0  0
    9.0470  -14.8670   26.9375 C   0  0  0  0  0  0  0  0  0  0  0  0
    9.8898  -14.1771   27.5691 O   0  0  0  0  0  0  0  0  0  0  0  0
    8.5674  -15.9997   27.5621 O   0  0  0  0  0  0  0  0  0  0  0  0
  2  1  1  6
  3  2  1  0
  4  2  1  0
  4  6  1  0
  4  5  1  6
  6 15  1  0
  7  6  2  0
  9  8  1  0
 10  9  2  0
 11 10  1  0
 12 11  2  0
 12 18  1  0
 13 12  1  0
 14 16  1  0
 14 13  1  1
 15 14  1  0
 16 25  1  0
 17 16  2  0
 18 19  2  0
 19  9  1  0
 21 20  1  0
 22 21  1  0
 22 24  1  0
 22 23  1  6
 24 26  1  0
 24 25  1  1
 26 27  2  0
 26 28  1  0
M  END
$$$$
