TYI.pdb
     RDKit          3D

 28 28  0  0  1  0  0  0  0  0999 V2000
    8.6990  -12.5065   20.1148 C   0  0  0  0  0  0  0  0  0  0  0  0
    8.0218  -13.4140   19.1118 C   0  0  1  0  0  0  0  0  0  0  0  0
    8.3720  -12.9612   17.8463 O   0  0  0  0  0  0  0  0  0  0  0  0
    8.5014  -14.8461   19.2416 C   0  0  2  0  0  0  0  0  0  0  0  0
    7.8335  -15.6917   18.2430 N   0  0  0  0  0  0  0  0  0  0  0  0
    8.2520  -15.3830   20.5983 C   0  0  0  0  0  0  0  0  0  0  0  0
    7.0737  -15.7073   20.9027 O   0  0  0  0  0  0  0  0  0  0  0  0
    8.6730  -21.4837   19.4931 O   0  0  0  0  0  0  0  0  0  0  0  0
    8.9148  -20.4690   20.4233 C   0  0  0  0  0  0  0  0  0  0  0  0
    9.9756  -19.6333   20.1523 C   0  0  0  0  0  0  0  0  0  0  0  0
   10.2415  -18.6253   21.0453 C   0  0  0  0  0  0  0  0  0  0  0  0
    9.4915  -18.4248   22.1895 C   0  0  0  0  0  0  0  0  0  0  0  0
    9.8899  -17.2978   23.0663 C   0  0  0  0  0  0  0  0  0  0  0  0
    8.9815  -16.1003   22.8998 C   0  0  2  0  0  0  0  0  0  0  0  0
    9.2351  -15.5599   21.5773 N   0  0  0  0  0  0  0  0  0  0  0  0
    9.3324  -15.1381   23.9682 C   0  0  0  0  0  0  0  0  0  0  0  0
   10.5010  -14.6922   24.0000 O   0  0  0  0  0  0  0  0  0  0  0  0
    8.4494  -19.2675   22.4299 C   0  0  0  0  0  0  0  0  0  0  0  0
    8.1475  -20.3018   21.5482 C   0  0  0  0  0  0  0  0  0  0  0  0
    5.5221  -12.1330   27.0397 C   0  0  0  0  0  0  0  0  0  0  0  0
    6.3509  -13.3122   26.5729 C   0  0  0  0  0  0  0  0  0  0  0  0
    7.7323  -12.8040   26.2684 C   0  0  2  0  0  0  0  0  0  0  0  0
    7.6471  -11.9646   25.0100 C   0  0  0  0  0  0  0  0  0  0  0  0
    8.7227  -13.9093   25.9997 C   0  0  2  0  0  0  0  0  0  0  0  0
    8.3494  -14.7546   24.9110 N   0  0  0  0  0  0  0  0  0  0  0  0
    8.7947  -14.7294   27.2314 C   0  0  0  0  0  0  0  0  0  0  0  0
    8.3818  -15.9168   27.3000 O   0  0  0  0  0  0  0  0  0  0  0  0
    9.3385  -14.1861   28.3769 O   0  0  0  0  0  0  0  0  0  0  0  0
  2  1  1  1
  3  2  1  0
  4  2  1  0
  4  6  1  0
  4  5  1  6
  6 15  1  0
  7  6  2  0
  9  8  1  0
 10  9  2  0
 11 10  1  0
 12 11  2  0
 12 18  1  0
 13 12  1  0
 14 16  1  0
 14 13  1  1
 15 14  1  0
 16 25  1  0
 17 16  2  0
 18 19  2  0
 19  9  1  0
 21 20  1  0
 22 21  1  0
 22 24  1  0
 22 23  1  6
 24 26  1  0
 24 25  1  6
 26 27  2  0
 26 28  1  0
M  END
$$$$
