TYI.pdb
     RDKit          3D

 28 28  0  0  1  0  0  0  0  0999 V2000
    5.9476  -18.1354   18.7449 C   0  0  0  0  0  0  0  0  0  0  0  0
    6.1557  -17.7980   20.2048 C   0  0  1  0  0  0  0  0  0  0  0  0
    5.6562  -16.5176   20.4056 O   0  0  0  0  0  0  0  0  0  0  0  0
    5.3904  -18.7422   21.1106 C   0  0  2  0  0  0  0  0  0  0  0  0
    3.9566  -18.6892   20.7947 N   0  0  0  0  0  0  0  0  0  0  0  0
    5.5998  -18.4156   22.5391 C   0  0  0  0  0  0  0  0  0  0  0  0
    4.7549  -17.6771   23.1108 O   0  0  0  0  0  0  0  0  0  0  0  0
    9.2541  -18.3041   30.6307 O   0  0  0  0  0  0  0  0  0  0  0  0
    8.8212  -18.5982   29.3347 C   0  0  0  0  0  0  0  0  0  0  0  0
    9.8017  -18.7004   28.3728 C   0  0  0  0  0  0  0  0  0  0  0  0
    9.4116  -18.9883   27.0886 C   0  0  0  0  0  0  0  0  0  0  0  0
    8.0880  -19.1761   26.7350 C   0  0  0  0  0  0  0  0  0  0  0  0
    7.8088  -19.4817   25.3115 C   0  0  0  0  0  0  0  0  0  0  0  0
    6.9643  -18.4120   24.6562 C   0  0  2  0  0  0  0  0  0  0  0  0
    6.6748  -18.8699   23.3101 N   0  0  0  0  0  0  0  0  0  0  0  0
    7.7640  -17.1667   24.6577 C   0  0  0  0  0  0  0  0  0  0  0  0
    8.6936  -17.0615   23.8267 O   0  0  0  0  0  0  0  0  0  0  0  0
    7.1420  -19.0686   27.7083 C   0  0  0  0  0  0  0  0  0  0  0  0
    7.4974  -18.7778   29.0226 C   0  0  0  0  0  0  0  0  0  0  0  0
    5.4811  -12.1864   25.8845 C   0  0  0  0  0  0  0  0  0  0  0  0
    6.2996  -13.2109   25.1257 C   0  0  0  0  0  0  0  0  0  0  0  0
    7.3496  -13.7377   26.0634 C   0  0  2  0  0  0  0  0  0  0  0  0
    8.3331  -12.6166   26.3301 C   0  0  0  0  0  0  0  0  0  0  0  0
    8.1337  -14.8893   25.4856 C   0  0  2  0  0  0  0  0  0  0  0  0
    7.4590  -16.1437   25.5865 N   0  0  0  0  0  0  0  0  0  0  0  0
    9.4006  -14.9715   26.2492 C   0  0  0  0  0  0  0  0  0  0  0  0
   10.3645  -14.1788   26.0823 O   0  0  0  0  0  0  0  0  0  0  0  0
    9.5571  -15.9597   27.1988 O   0  0  0  0  0  0  0  0  0  0  0  0
  2  1  1  6
  3  2  1  0
  4  2  1  0
  4  6  1  0
  4  5  1  6
  6 15  1  0
  7  6  2  0
  9  8  1  0
 10  9  2  0
 11 10  1  0
 12 11  2  0
 12 18  1  0
 13 12  1  0
 14 16  1  0
 14 13  1  1
 15 14  1  0
 16 25  1  0
 17 16  2  0
 18 19  2  0
 19  9  1  0
 21 20  1  0
 22 21  1  0
 22 24  1  0
 22 23  1  6
 24 26  1  0
 24 25  1  1
 26 27  2  0
 26 28  1  0
M  END
$$$$
