TYI.pdb
     RDKit          3D

 28 28  0  0  1  0  0  0  0  0999 V2000
    8.1363  -14.9779   18.6636 C   0  0  0  0  0  0  0  0  0  0  0  0
    8.2654  -15.2457   20.1469 C   0  0  1  0  0  0  0  0  0  0  0  0
    7.0939  -14.8032   20.7476 O   0  0  0  0  0  0  0  0  0  0  0  0
    8.4048  -16.7271   20.4367 C   0  0  2  0  0  0  0  0  0  0  0  0
    7.2631  -17.4588   19.8716 N   0  0  0  0  0  0  0  0  0  0  0  0
    8.4978  -16.9912   21.8901 C   0  0  0  0  0  0  0  0  0  0  0  0
    7.4687  -17.4046   22.4870 O   0  0  0  0  0  0  0  0  0  0  0  0
   10.2626  -23.2519   22.6626 O   0  0  0  0  0  0  0  0  0  0  0  0
   10.4666  -21.9109   22.9998 C   0  0  0  0  0  0  0  0  0  0  0  0
   10.1262  -21.5463   24.2836 C   0  0  0  0  0  0  0  0  0  0  0  0
   10.3137  -20.2363   24.6484 C   0  0  0  0  0  0  0  0  0  0  0  0
   10.8247  -19.2864   23.7833 C   0  0  0  0  0  0  0  0  0  0  0  0
   10.9747  -17.9086   24.3093 C   0  0  0  0  0  0  0  0  0  0  0  0
    9.7325  -17.0763   24.0839 C   0  0  2  0  0  0  0  0  0  0  0  0
    9.6532  -16.8155   22.6587 N   0  0  0  0  0  0  0  0  0  0  0  0
    9.8968  -15.8311   24.8667 C   0  0  0  0  0  0  0  0  0  0  0  0
   10.7362  -14.9918   24.4708 O   0  0  0  0  0  0  0  0  0  0  0  0
   11.1517  -19.6777   22.5208 C   0  0  0  0  0  0  0  0  0  0  0  0
   10.9764  -20.9971   22.1126 C   0  0  0  0  0  0  0  0  0  0  0  0
    5.9871  -12.5937   26.1884 C   0  0  0  0  0  0  0  0  0  0  0  0
    7.2709  -13.2879   25.7821 C   0  0  0  0  0  0  0  0  0  0  0  0
    7.9840  -13.6965   27.0406 C   0  0  2  0  0  0  0  0  0  0  0  0
    8.3290  -12.4346   27.8047 C   0  0  0  0  0  0  0  0  0  0  0  0
    9.2781  -14.4247   26.7767 C   0  0  2  0  0  0  0  0  0  0  0  0
    9.1105  -15.6274   26.0253 N   0  0  0  0  0  0  0  0  0  0  0  0
    9.8535  -14.7692   28.0977 C   0  0  0  0  0  0  0  0  0  0  0  0
    9.6716  -15.8777   28.6664 O   0  0  0  0  0  0  0  0  0  0  0  0
   10.6333  -13.8438   28.7598 O   0  0  0  0  0  0  0  0  0  0  0  0
  2  1  1  6
  3  2  1  0
  4  2  1  0
  4  6  1  0
  4  5  1  1
  6 15  1  0
  7  6  2  0
  9  8  1  0
 10  9  2  0
 11 10  1  0
 12 11  2  0
 12 18  1  0
 13 12  1  0
 14 16  1  0
 14 13  1  6
 15 14  1  0
 16 25  1  0
 17 16  2  0
 18 19  2  0
 19  9  1  0
 21 20  1  0
 22 21  1  0
 22 24  1  0
 22 23  1  1
 24 26  1  0
 24 25  1  6
 26 27  2  0
 26 28  1  0
M  END
$$$$
