TYI.pdb
     RDKit          3D

 28 28  0  0  1  0  0  0  0  0999 V2000
    8.5136  -16.0900   17.0167 C   0  0  0  0  0  0  0  0  0  0  0  0
    8.0395  -16.2568   18.4436 C   0  0  1  0  0  0  0  0  0  0  0  0
    6.7362  -16.7339   18.3902 O   0  0  0  0  0  0  0  0  0  0  0  0
    8.8758  -17.2739   19.1945 C   0  0  2  0  0  0  0  0  0  0  0  0
    8.7770  -18.5859   18.5410 N   0  0  0  0  0  0  0  0  0  0  0  0
    8.4549  -17.3871   20.6091 C   0  0  0  0  0  0  0  0  0  0  0  0
    7.6346  -18.2924   20.9153 O   0  0  0  0  0  0  0  0  0  0  0  0
   14.5435  -18.5136   22.5845 O   0  0  0  0  0  0  0  0  0  0  0  0
   13.1912  -18.3391   22.8913 C   0  0  0  0  0  0  0  0  0  0  0  0
   12.2892  -18.8686   21.9952 C   0  0  0  0  0  0  0  0  0  0  0  0
   10.9522  -18.7153   22.2658 C   0  0  0  0  0  0  0  0  0  0  0  0
   10.4890  -18.0573   23.3903 C   0  0  0  0  0  0  0  0  0  0  0  0
    9.0190  -17.9650   23.5580 C   0  0  0  0  0  0  0  0  0  0  0  0
    8.4669  -16.6633   23.0215 C   0  0  2  0  0  0  0  0  0  0  0  0
    8.9037  -16.5575   21.6419 N   0  0  0  0  0  0  0  0  0  0  0  0
    9.0199  -15.5783   23.8625 C   0  0  0  0  0  0  0  0  0  0  0  0
   10.1625  -15.1461   23.5918 O   0  0  0  0  0  0  0  0  0  0  0  0
   11.4052  -17.5448   24.2573 C   0  0  0  0  0  0  0  0  0  0  0  0
   12.7701  -17.6795   24.0182 C   0  0  0  0  0  0  0  0  0  0  0  0
    5.6949  -11.8796   26.5460 C   0  0  0  0  0  0  0  0  0  0  0  0
    6.4480  -13.1659   26.2748 C   0  0  0  0  0  0  0  0  0  0  0  0
    7.8071  -12.7945   25.7512 C   0  0  2  0  0  0  0  0  0  0  0  0
    7.6316  -12.2856   24.3350 C   0  0  0  0  0  0  0  0  0  0  0  0
    8.7564  -13.9648   25.6890 C   0  0  2  0  0  0  0  0  0  0  0  0
    8.2512  -15.0671   24.9349 N   0  0  0  0  0  0  0  0  0  0  0  0
    8.9804  -14.4100   27.0842 C   0  0  0  0  0  0  0  0  0  0  0  0
    8.5964  -15.5240   27.5276 O   0  0  0  0  0  0  0  0  0  0  0  0
    9.6422  -13.5781   27.9633 O   0  0  0  0  0  0  0  0  0  0  0  0
  2  1  1  6
  3  2  1  0
  4  2  1  0
  4  6  1  0
  4  5  1  6
  6 15  1  0
  7  6  2  0
  9  8  1  0
 10  9  2  0
 11 10  1  0
 12 11  2  0
 12 18  1  0
 13 12  1  0
 14 16  1  0
 14 13  1  1
 15 14  1  0
 16 25  1  0
 17 16  2  0
 18 19  2  0
 19  9  1  0
 21 20  1  0
 22 21  1  0
 22 24  1  0
 22 23  1  6
 24 26  1  0
 24 25  1  6
 26 27  2  0
 26 28  1  0
M  END
$$$$
