TYI.pdb
     RDKit          3D

 28 28  0  0  1  0  0  0  0  0999 V2000
    6.8891  -15.2950   19.1763 C   0  0  0  0  0  0  0  0  0  0  0  0
    7.4760  -16.6879   19.2368 C   0  0  1  0  0  0  0  0  0  0  0  0
    8.0195  -16.9592   17.9877 O   0  0  0  0  0  0  0  0  0  0  0  0
    8.5920  -16.7797   20.2586 C   0  0  2  0  0  0  0  0  0  0  0  0
    9.3243  -18.0420   20.0902 N   0  0  0  0  0  0  0  0  0  0  0  0
    8.0732  -16.6834   21.6416 C   0  0  0  0  0  0  0  0  0  0  0  0
    7.2517  -15.7663   21.9066 O   0  0  0  0  0  0  0  0  0  0  0  0
    4.9882  -22.7822   22.1690 O   0  0  0  0  0  0  0  0  0  0  0  0
    5.6967  -21.7800   22.8376 C   0  0  0  0  0  0  0  0  0  0  0  0
    6.9868  -21.5565   22.4104 C   0  0  0  0  0  0  0  0  0  0  0  0
    7.7117  -20.5790   23.0454 C   0  0  0  0  0  0  0  0  0  0  0  0
    7.1972  -19.8236   24.0831 C   0  0  0  0  0  0  0  0  0  0  0  0
    8.0906  -18.8012   24.6782 C   0  0  0  0  0  0  0  0  0  0  0  0
    7.9069  -17.4441   24.0369 C   0  0  2  0  0  0  0  0  0  0  0  0
    8.4290  -17.5423   22.6866 N   0  0  0  0  0  0  0  0  0  0  0  0
    8.6656  -16.4717   24.8548 C   0  0  0  0  0  0  0  0  0  0  0  0
    9.8684  -16.2741   24.5718 O   0  0  0  0  0  0  0  0  0  0  0  0
    5.9189  -20.0682   24.4828 C   0  0  0  0  0  0  0  0  0  0  0  0
    5.1513  -21.0511   23.8640 C   0  0  0  0  0  0  0  0  0  0  0  0
    6.0846  -12.0029   26.6677 C   0  0  0  0  0  0  0  0  0  0  0  0
    7.0687  -12.9542   26.0180 C   0  0  0  0  0  0  0  0  0  0  0  0
    7.8022  -13.6695   27.1179 C   0  0  2  0  0  0  0  0  0  0  0  0
    8.6758  -12.6537   27.8251 C   0  0  0  0  0  0  0  0  0  0  0  0
    8.7108  -14.7607   26.6097 C   0  0  2  0  0  0  0  0  0  0  0  0
    8.0182  -15.8016   25.9198 N   0  0  0  0  0  0  0  0  0  0  0  0
    9.3833  -15.3448   27.7935 C   0  0  0  0  0  0  0  0  0  0  0  0
    8.9551  -16.3582   28.4057 O   0  0  0  0  0  0  0  0  0  0  0  0
   10.5415  -14.7660   28.2696 O   0  0  0  0  0  0  0  0  0  0  0  0
  2  1  1  6
  3  2  1  0
  4  2  1  0
  4  6  1  0
  4  5  1  1
  6 15  1  0
  7  6  2  0
  9  8  1  0
 10  9  2  0
 11 10  1  0
 12 11  2  0
 12 18  1  0
 13 12  1  0
 14 16  1  0
 14 13  1  1
 15 14  1  0
 16 25  1  0
 17 16  2  0
 18 19  2  0
 19  9  1  0
 21 20  1  0
 22 21  1  0
 22 24  1  0
 22 23  1  6
 24 26  1  0
 24 25  1  1
 26 27  2  0
 26 28  1  0
M  END
$$$$
