TYI.pdb
     RDKit          3D

 28 28  0  0  1  0  0  0  0  0999 V2000
    6.0389  -20.4955   26.4661 C   0  0  0  0  0  0  0  0  0  0  0  0
    6.7348  -19.3620   25.7455 C   0  0  1  0  0  0  0  0  0  0  0  0
    7.9647  -19.1761   26.3636 O   0  0  0  0  0  0  0  0  0  0  0  0
    6.9929  -19.7002   24.2906 C   0  0  2  0  0  0  0  0  0  0  0  0
    7.8095  -20.9177   24.1954 N   0  0  0  0  0  0  0  0  0  0  0  0
    7.6688  -18.5885   23.5847 C   0  0  0  0  0  0  0  0  0  0  0  0
    8.9232  -18.6259   23.4789 O   0  0  0  0  0  0  0  0  0  0  0  0
    8.9621  -11.9532   18.0032 O   0  0  0  0  0  0  0  0  0  0  0  0
    8.3725  -12.8030   18.9432 C   0  0  0  0  0  0  0  0  0  0  0  0
    8.2981  -14.1347   18.5994 C   0  0  0  0  0  0  0  0  0  0  0  0
    7.7247  -14.9977   19.4998 C   0  0  0  0  0  0  0  0  0  0  0  0
    7.2275  -14.5805   20.7208 C   0  0  0  0  0  0  0  0  0  0  0  0
    6.6347  -15.6196   21.5963 C   0  0  0  0  0  0  0  0  0  0  0  0
    7.6896  -16.3870   22.3612 C   0  0  2  0  0  0  0  0  0  0  0  0
    7.0138  -17.4890   23.0202 N   0  0  0  0  0  0  0  0  0  0  0  0
    8.2917  -15.4462   23.3321 C   0  0  0  0  0  0  0  0  0  0  0  0
    9.0852  -14.5804   22.9003 O   0  0  0  0  0  0  0  0  0  0  0  0
    7.3155  -13.2579   21.0318 C   0  0  0  0  0  0  0  0  0  0  0  0
    7.8901  -12.3511   20.1454 C   0  0  0  0  0  0  0  0  0  0  0  0
    7.0111  -11.3664   26.7516 C   0  0  0  0  0  0  0  0  0  0  0  0
    7.6358  -12.6851   27.1594 C   0  0  0  0  0  0  0  0  0  0  0  0
    7.2078  -13.7195   26.1564 C   0  0  2  0  0  0  0  0  0  0  0  0
    6.2930  -14.6974   26.8652 C   0  0  0  0  0  0  0  0  0  0  0  0
    8.3617  -14.5143   25.5982 C   0  0  2  0  0  0  0  0  0  0  0  0
    7.9576  -15.5508   24.7031 N   0  0  0  0  0  0  0  0  0  0  0  0
    9.0559  -15.1310   26.7526 C   0  0  0  0  0  0  0  0  0  0  0  0
    9.6028  -14.4650   27.6705 O   0  0  0  0  0  0  0  0  0  0  0  0
    9.1202  -16.5055   26.8498 O   0  0  0  0  0  0  0  0  0  0  0  0
  2  1  1  1
  3  2  1  0
  4  2  1  0
  4  6  1  0
  4  5  1  1
  6 15  1  0
  7  6  2  0
  9  8  1  0
 10  9  2  0
 11 10  1  0
 12 11  2  0
 12 18  1  0
 13 12  1  0
 14 16  1  0
 14 13  1  1
 15 14  1  0
 16 25  1  0
 17 16  2  0
 18 19  2  0
 19  9  1  0
 21 20  1  0
 22 21  1  0
 22 24  1  0
 22 23  1  1
 24 26  1  0
 24 25  1  6
 26 27  2  0
 26 28  1  0
M  END
$$$$
