TYI.pdb
     RDKit          3D

 28 28  0  0  1  0  0  0  0  0999 V2000
   11.7097  -20.1021   20.6911 C   0  0  0  0  0  0  0  0  0  0  0  0
   11.2839  -18.8576   21.4384 C   0  0  1  0  0  0  0  0  0  0  0  0
   12.3191  -18.5226   22.3017 O   0  0  0  0  0  0  0  0  0  0  0  0
   11.0669  -17.6886   20.4982 C   0  0  2  0  0  0  0  0  0  0  0  0
   12.3328  -17.3265   19.8467 N   0  0  0  0  0  0  0  0  0  0  0  0
   10.5166  -16.5128   21.2093 C   0  0  0  0  0  0  0  0  0  0  0  0
   11.3094  -15.5907   21.5370 O   0  0  0  0  0  0  0  0  0  0  0  0
    7.5682  -13.1781   16.3351 O   0  0  0  0  0  0  0  0  0  0  0  0
    7.4780  -13.6810   17.6360 C   0  0  0  0  0  0  0  0  0  0  0  0
    7.6970  -12.7801   18.6546 C   0  0  0  0  0  0  0  0  0  0  0  0
    7.6161  -13.2404   19.9453 C   0  0  0  0  0  0  0  0  0  0  0  0
    7.3267  -14.5575   20.2512 C   0  0  0  0  0  0  0  0  0  0  0  0
    7.2706  -14.9178   21.6881 C   0  0  0  0  0  0  0  0  0  0  0  0
    8.6436  -15.1951   22.2580 C   0  0  2  0  0  0  0  0  0  0  0  0
    9.1697  -16.3459   21.5478 N   0  0  0  0  0  0  0  0  0  0  0  0
    8.4667  -15.4684   23.7017 C   0  0  0  0  0  0  0  0  0  0  0  0
    8.9143  -16.5443   24.1576 O   0  0  0  0  0  0  0  0  0  0  0  0
    7.1153  -15.4240   19.2225 C   0  0  0  0  0  0  0  0  0  0  0  0
    7.1884  -14.9958   17.8997 C   0  0  0  0  0  0  0  0  0  0  0  0
    6.1264  -11.3700   26.4885 C   0  0  0  0  0  0  0  0  0  0  0  0
    7.3740  -12.1903   26.2315 C   0  0  0  0  0  0  0  0  0  0  0  0
    7.0913  -13.5980   26.6765 C   0  0  2  0  0  0  0  0  0  0  0  0
    7.4649  -13.7017   28.1410 C   0  0  0  0  0  0  0  0  0  0  0  0
    7.9075  -14.6271   25.9351 C   0  0  2  0  0  0  0  0  0  0  0  0
    7.8053  -14.5181   24.5150 N   0  0  0  0  0  0  0  0  0  0  0  0
    7.3966  -15.9560   26.3449 C   0  0  0  0  0  0  0  0  0  0  0  0
    6.3445  -16.4686   25.8809 O   0  0  0  0  0  0  0  0  0  0  0  0
    8.0924  -16.6901   27.2829 O   0  0  0  0  0  0  0  0  0  0  0  0
  2  1  1  6
  3  2  1  0
  4  2  1  0
  4  6  1  0
  4  5  1  1
  6 15  1  0
  7  6  2  0
  9  8  1  0
 10  9  2  0
 11 10  1  0
 12 11  2  0
 12 18  1  0
 13 12  1  0
 14 16  1  0
 14 13  1  6
 15 14  1  0
 16 25  1  0
 17 16  2  0
 18 19  2  0
 19  9  1  0
 21 20  1  0
 22 21  1  0
 22 24  1  0
 22 23  1  1
 24 26  1  0
 24 25  1  6
 26 27  2  0
 26 28  1  0
M  END
$$$$
