SDG.pdb
     RDKit          3D

 19 18  0  0  1  0  0  0  0  0999 V2000
    7.6942  -13.7122   20.7808 O   0  0  0  0  0  0  0  0  0  0  0  0
    8.3476  -12.6568   20.1223 C   0  0  0  0  0  0  0  0  0  0  0  0
    8.6876  -13.1225   18.7077 C   0  0  2  0  0  0  0  0  0  0  0  0
    7.5194  -13.6130   18.0259 N   0  0  0  0  0  0  0  0  0  0  0  0
    9.6467  -14.2728   18.8234 C   0  0  0  0  0  0  0  0  0  0  0  0
    9.2966  -15.4579   18.6336 O   0  0  0  0  0  0  0  0  0  0  0  0
   10.9683  -13.9831   19.1556 N   0  0  0  0  0  0  0  0  0  0  0  0
   12.0148  -15.0566   19.3130 C   0  0  1  0  0  0  0  0  0  0  0  0
   13.1503  -14.4924   18.5040 C   0  0  0  0  0  0  0  0  0  0  0  0
   14.3727  -15.2687   18.4045 C   0  0  0  0  0  0  0  0  0  0  0  0
   14.5179  -16.5038   18.3144 O   0  0  0  0  0  0  0  0  0  0  0  0
   12.2621  -15.0440   20.7854 C   0  0  0  0  0  0  0  0  0  0  0  0
   12.4845  -13.9342   21.4075 O   0  0  0  0  0  0  0  0  0  0  0  0
   15.6147  -14.5668   18.4059 O   0  0  0  0  0  0  0  0  0  0  0  0
   12.2739  -16.1839   21.6107 N   0  0  0  0  0  0  0  0  0  0  0  0
   12.5065  -16.0769   23.0420 C   0  0  0  0  0  0  0  0  0  0  0  0
   12.3410  -17.4038   23.6752 C   0  0  0  0  0  0  0  0  0  0  0  0
   12.5204  -17.6209   25.0266 O   0  0  0  0  0  0  0  0  0  0  0  0
   12.0208  -18.3998   22.9663 O   0  0  0  0  0  0  0  0  0  0  0  0
  1  2  1  0
  2  3  1  0
  3  4  1  1
  5  3  1  0
  5  6  2  0
  7  5  1  0
  8  7  1  0
  8  9  1  6
 10  9  1  0
 10 14  1  0
 11 10  2  0
 12  8  1  0
 13 12  2  0
 15 12  1  0
 16 15  1  0
 17 16  1  0
 17 18  1  0
 19 17  2  0
M  END
$$$$
