SDG.pdb
     RDKit          3D

 19 18  0  0  1  0  0  0  0  0999 V2000
   -0.7616  -26.1188   29.7659 O   0  0  0  0  0  0  0  0  0  0  0  0
   -2.0783  -26.3264   29.3212 C   0  0  0  0  0  0  0  0  0  0  0  0
   -3.0101  -25.4994   30.2053 C   0  0  2  0  0  0  0  0  0  0  0  0
   -3.0093  -25.9843   31.5598 N   0  0  0  0  0  0  0  0  0  0  0  0
   -4.4068  -25.6652   29.6778 C   0  0  0  0  0  0  0  0  0  0  0  0
   -4.7103  -25.4043   28.4934 O   0  0  0  0  0  0  0  0  0  0  0  0
   -5.3813  -26.1275   30.5594 N   0  0  0  0  0  0  0  0  0  0  0  0
   -6.8054  -26.3744   30.1311 C   0  0  1  0  0  0  0  0  0  0  0  0
   -7.2245  -27.4582   31.0859 C   0  0  0  0  0  0  0  0  0  0  0  0
   -6.8158  -28.8209   30.7979 C   0  0  0  0  0  0  0  0  0  0  0  0
   -6.4753  -29.3295   29.7117 O   0  0  0  0  0  0  0  0  0  0  0  0
   -7.4500  -25.0548   30.3999 C   0  0  0  0  0  0  0  0  0  0  0  0
   -8.7136  -24.8836   30.1940 O   0  0  0  0  0  0  0  0  0  0  0  0
   -6.7818  -29.7530   31.8773 O   0  0  0  0  0  0  0  0  0  0  0  0
   -6.7823  -23.9155   30.8865 N   0  0  0  0  0  0  0  0  0  0  0  0
   -7.4778  -22.6508   31.0627 C   0  0  0  0  0  0  0  0  0  0  0  0
   -7.2811  -21.8021   29.8669 C   0  0  0  0  0  0  0  0  0  0  0  0
   -8.0569  -21.9111   28.7302 O   0  0  0  0  0  0  0  0  0  0  0  0
   -6.3667  -20.9298   29.8624 O   0  0  0  0  0  0  0  0  0  0  0  0
  1  2  1  0
  2  3  1  0
  3  4  1  1
  5  3  1  0
  5  6  2  0
  7  5  1  0
  8  7  1  0
  8  9  1  1
 10  9  1  0
 10 14  1  0
 11 10  2  0
 12  8  1  0
 13 12  2  0
 15 12  1  0
 16 15  1  0
 17 16  1  0
 17 18  1  0
 19 17  2  0
M  END
$$$$
