SDG.pdb
     RDKit          3D

 19 18  0  0  1  0  0  0  0  0999 V2000
    9.9147  -12.4209   19.9297 O   0  0  0  0  0  0  0  0  0  0  0  0
    8.8999  -12.4098   18.9578 C   0  0  0  0  0  0  0  0  0  0  0  0
    9.0093  -13.7003   18.1476 C   0  0  2  0  0  0  0  0  0  0  0  0
    8.0439  -13.7293   17.0812 N   0  0  0  0  0  0  0  0  0  0  0  0
    8.6876  -14.8448   19.0657 C   0  0  0  0  0  0  0  0  0  0  0  0
    7.5783  -15.4215   19.0532 O   0  0  0  0  0  0  0  0  0  0  0  0
    9.6769  -15.2603   19.9541 N   0  0  0  0  0  0  0  0  0  0  0  0
    9.4600  -16.3829   20.9364 C   0  0  1  0  0  0  0  0  0  0  0  0
    9.3129  -17.5643   20.0173 C   0  0  0  0  0  0  0  0  0  0  0  0
    8.9761  -18.8495   20.6018 C   0  0  0  0  0  0  0  0  0  0  0  0
    7.8540  -19.3430   20.8295 O   0  0  0  0  0  0  0  0  0  0  0  0
   10.7375  -16.3786   21.7092 C   0  0  0  0  0  0  0  0  0  0  0  0
   11.8157  -15.8837   21.1985 O   0  0  0  0  0  0  0  0  0  0  0  0
   10.0454  -19.7106   20.9895 O   0  0  0  0  0  0  0  0  0  0  0  0
   10.8926  -16.8843   23.0133 N   0  0  0  0  0  0  0  0  0  0  0  0
   11.5944  -16.1277   24.0376 C   0  0  0  0  0  0  0  0  0  0  0  0
   11.6296  -16.9048   25.2961 C   0  0  0  0  0  0  0  0  0  0  0  0
   12.4310  -16.5664   26.3680 O   0  0  0  0  0  0  0  0  0  0  0  0
   10.9008  -17.9299   25.4191 O   0  0  0  0  0  0  0  0  0  0  0  0
  1  2  1  0
  2  3  1  0
  3  4  1  6
  5  3  1  0
  5  6  2  0
  7  5  1  0
  8  7  1  0
  8  9  1  6
 10  9  1  0
 10 14  1  0
 11 10  2  0
 12  8  1  0
 13 12  2  0
 15 12  1  0
 16 15  1  0
 17 16  1  0
 17 18  1  0
 19 17  2  0
M  END
$$$$
