SDG.pdb
     RDKit          3D

 19 18  0  0  1  0  0  0  0  0999 V2000
    9.7036  -17.1900   21.4447 O   0  0  0  0  0  0  0  0  0  0  0  0
   10.4185  -16.3043   20.6206 C   0  0  0  0  0  0  0  0  0  0  0  0
   11.4839  -17.1082   19.8774 C   0  0  2  0  0  0  0  0  0  0  0  0
   10.9466  -18.3438   19.3728 N   0  0  0  0  0  0  0  0  0  0  0  0
   12.5587  -17.4646   20.8645 C   0  0  0  0  0  0  0  0  0  0  0  0
   12.6475  -18.6021   21.3757 O   0  0  0  0  0  0  0  0  0  0  0  0
   13.4775  -16.4750   21.2070 N   0  0  0  0  0  0  0  0  0  0  0  0
   14.5849  -16.7113   22.2020 C   0  0  1  0  0  0  0  0  0  0  0  0
   15.6718  -15.8238   21.6608 C   0  0  0  0  0  0  0  0  0  0  0  0
   17.0353  -16.0680   22.0944 C   0  0  0  0  0  0  0  0  0  0  0  0
   17.6182  -15.6745   23.1240 O   0  0  0  0  0  0  0  0  0  0  0  0
   13.9800  -16.2132   23.4729 C   0  0  0  0  0  0  0  0  0  0  0  0
   13.8687  -14.9463   23.6985 O   0  0  0  0  0  0  0  0  0  0  0  0
   17.8716  -16.8668   21.2592 O   0  0  0  0  0  0  0  0  0  0  0  0
   13.4873  -17.0317   24.5063 N   0  0  0  0  0  0  0  0  0  0  0  0
   12.8885  -16.4597   25.7016 C   0  0  0  0  0  0  0  0  0  0  0  0
   12.5144  -17.5414   26.6391 C   0  0  0  0  0  0  0  0  0  0  0  0
   12.6150  -18.8812   26.3218 O   0  0  0  0  0  0  0  0  0  0  0  0
   12.0803  -17.2499   27.7895 O   0  0  0  0  0  0  0  0  0  0  0  0
  1  2  1  0
  2  3  1  0
  3  4  1  1
  5  3  1  0
  5  6  2  0
  7  5  1  0
  8  7  1  0
  8  9  1  6
 10  9  1  0
 10 14  1  0
 11 10  2  0
 12  8  1  0
 13 12  2  0
 15 12  1  0
 16 15  1  0
 17 16  1  0
 17 18  1  0
 19 17  2  0
M  END
$$$$
