SDG.pdb
     RDKit          3D

 19 18  0  0  1  0  0  0  0  0999 V2000
   -0.4507  -28.1271   26.1965 O   0  0  0  0  0  0  0  0  0  0  0  0
   -1.7761  -27.9364   26.6227 C   0  0  0  0  0  0  0  0  0  0  0  0
   -1.9532  -26.4578   26.9636 C   0  0  2  0  0  0  0  0  0  0  0  0
   -0.8984  -25.9916   27.8239 N   0  0  0  0  0  0  0  0  0  0  0  0
   -3.2399  -26.3157   27.7257 C   0  0  0  0  0  0  0  0  0  0  0  0
   -4.3358  -26.7054   27.2674 O   0  0  0  0  0  0  0  0  0  0  0  0
   -3.1841  -25.7250   28.9862 N   0  0  0  0  0  0  0  0  0  0  0  0
   -4.3832  -25.6514   29.8968 C   0  0  1  0  0  0  0  0  0  0  0  0
   -3.7562  -25.8943   31.2421 C   0  0  0  0  0  0  0  0  0  0  0  0
   -3.7009  -27.2580   31.7362 C   0  0  0  0  0  0  0  0  0  0  0  0
   -2.7082  -27.9430   32.0523 O   0  0  0  0  0  0  0  0  0  0  0  0
   -4.8477  -24.2468   29.6954 C   0  0  0  0  0  0  0  0  0  0  0  0
   -4.0127  -23.2625   29.7433 O   0  0  0  0  0  0  0  0  0  0  0  0
   -4.9309  -27.9613   31.9023 O   0  0  0  0  0  0  0  0  0  0  0  0
   -6.1784  -23.8664   29.4401 N   0  0  0  0  0  0  0  0  0  0  0  0
   -6.5205  -22.4921   29.1111 C   0  0  0  0  0  0  0  0  0  0  0  0
   -7.4636  -21.9576   30.1181 C   0  0  0  0  0  0  0  0  0  0  0  0
   -7.9462  -20.6647   30.0862 O   0  0  0  0  0  0  0  0  0  0  0  0
   -7.8598  -22.7005   31.0604 O   0  0  0  0  0  0  0  0  0  0  0  0
  1  2  1  0
  2  3  1  0
  3  4  1  1
  5  3  1  0
  5  6  2  0
  7  5  1  0
  8  7  1  0
  8  9  1  1
 10  9  1  0
 10 14  1  0
 11 10  2  0
 12  8  1  0
 13 12  2  0
 15 12  1  0
 16 15  1  0
 17 16  1  0
 17 18  1  0
 19 17  2  0
M  END
$$$$
