SDG.pdb
     RDKit          3D

 19 18  0  0  1  0  0  0  0  0999 V2000
    6.5123  -13.6452   21.8150 O   0  0  0  0  0  0  0  0  0  0  0  0
    7.6110  -12.7976   21.5938 C   0  0  0  0  0  0  0  0  0  0  0  0
    8.3275  -13.2745   20.3317 C   0  0  2  0  0  0  0  0  0  0  0  0
    7.4145  -13.3875   19.2255 N   0  0  0  0  0  0  0  0  0  0  0  0
    8.8643  -14.6509   20.6035 C   0  0  0  0  0  0  0  0  0  0  0  0
    8.4363  -15.6653   20.0110 O   0  0  0  0  0  0  0  0  0  0  0  0
    9.8747  -14.7759   21.5544 N   0  0  0  0  0  0  0  0  0  0  0  0
   10.5457  -16.0928   21.8508 C   0  0  1  0  0  0  0  0  0  0  0  0
   11.9332  -15.8502   21.3235 C   0  0  0  0  0  0  0  0  0  0  0  0
   12.8833  -16.9468   21.3647 C   0  0  0  0  0  0  0  0  0  0  0  0
   13.8657  -17.1118   22.1146 O   0  0  0  0  0  0  0  0  0  0  0  0
   10.4721  -16.1572   23.3406 C   0  0  0  0  0  0  0  0  0  0  0  0
   10.8450  -15.1539   24.0636 O   0  0  0  0  0  0  0  0  0  0  0  0
   12.7147  -18.0153   20.4346 O   0  0  0  0  0  0  0  0  0  0  0  0
   10.0073  -17.2622   24.0778 N   0  0  0  0  0  0  0  0  0  0  0  0
    9.9168  -17.2176   25.5284 C   0  0  0  0  0  0  0  0  0  0  0  0
   11.1097  -17.8598   26.1230 C   0  0  0  0  0  0  0  0  0  0  0  0
   11.2292  -18.1227   27.4729 O   0  0  0  0  0  0  0  0  0  0  0  0
   12.0768  -18.1921   25.3806 O   0  0  0  0  0  0  0  0  0  0  0  0
  1  2  1  0
  2  3  1  0
  3  4  1  6
  5  3  1  0
  5  6  2  0
  7  5  1  0
  8  7  1  0
  8  9  1  1
 10  9  1  0
 10 14  1  0
 11 10  2  0
 12  8  1  0
 13 12  2  0
 15 12  1  0
 16 15  1  0
 17 16  1  0
 17 18  1  0
 19 17  2  0
M  END
$$$$
