SDG.pdb
     RDKit          3D

 19 18  0  0  1  0  0  0  0  0999 V2000
   -3.2125  -18.5847   23.0543 O   0  0  0  0  0  0  0  0  0  0  0  0
   -4.3786  -19.1229   23.6245 C   0  0  0  0  0  0  0  0  0  0  0  0
   -4.4851  -20.5834   23.1894 C   0  0  2  0  0  0  0  0  0  0  0  0
   -4.6820  -20.6905   21.7682 N   0  0  0  0  0  0  0  0  0  0  0  0
   -5.7009  -21.1692   23.8490 C   0  0  0  0  0  0  0  0  0  0  0  0
   -6.8616  -20.9122   23.4619 O   0  0  0  0  0  0  0  0  0  0  0  0
   -5.5021  -22.0265   24.9289 N   0  0  0  0  0  0  0  0  0  0  0  0
   -6.6214  -22.8342   25.5349 C   0  0  1  0  0  0  0  0  0  0  0  0
   -6.1100  -24.2378   25.3600 C   0  0  0  0  0  0  0  0  0  0  0  0
   -5.9866  -24.7590   24.0109 C   0  0  0  0  0  0  0  0  0  0  0  0
   -6.8542  -24.8583   23.1211 O   0  0  0  0  0  0  0  0  0  0  0  0
   -6.6179  -22.3660   26.9526 C   0  0  0  0  0  0  0  0  0  0  0  0
   -5.5738  -21.7968   27.4569 O   0  0  0  0  0  0  0  0  0  0  0  0
   -4.7105  -25.2399   23.5921 O   0  0  0  0  0  0  0  0  0  0  0  0
   -7.7004  -22.4858   27.8439 N   0  0  0  0  0  0  0  0  0  0  0  0
   -7.6196  -21.9739   29.2025 C   0  0  0  0  0  0  0  0  0  0  0  0
   -8.9255  -22.1413   29.8775 C   0  0  0  0  0  0  0  0  0  0  0  0
   -9.1471  -21.7756   31.1901 O   0  0  0  0  0  0  0  0  0  0  0  0
   -9.8982  -22.6398   29.2433 O   0  0  0  0  0  0  0  0  0  0  0  0
  1  2  1  0
  2  3  1  0
  3  4  1  6
  5  3  1  0
  5  6  2  0
  7  5  1  0
  8  7  1  0
  8  9  1  1
 10  9  1  0
 10 14  1  0
 11 10  2  0
 12  8  1  0
 13 12  2  0
 15 12  1  0
 16 15  1  0
 17 16  1  0
 17 18  1  0
 19 17  2  0
M  END
$$$$
