SDG.pdb
     RDKit          3D

 19 18  0  0  1  0  0  0  0  0999 V2000
    6.5277  -16.9816   19.6091 O   0  0  0  0  0  0  0  0  0  0  0  0
    7.4604  -16.9431   18.5588 C   0  0  0  0  0  0  0  0  0  0  0  0
    8.0835  -18.3320   18.4308 C   0  0  2  0  0  0  0  0  0  0  0  0
    7.0948  -19.3639   18.5973 N   0  0  0  0  0  0  0  0  0  0  0  0
    9.0791  -18.4906   19.5444 C   0  0  0  0  0  0  0  0  0  0  0  0
    8.8984  -19.2809   20.4962 O   0  0  0  0  0  0  0  0  0  0  0  0
   10.2373  -17.7182   19.4925 N   0  0  0  0  0  0  0  0  0  0  0  0
   11.3444  -17.8545   20.5064 C   0  0  1  0  0  0  0  0  0  0  0  0
   12.5360  -17.3861   19.7173 C   0  0  0  0  0  0  0  0  0  0  0  0
   13.2381  -18.3555   18.8961 C   0  0  0  0  0  0  0  0  0  0  0  0
   13.4747  -19.5583   19.1237 O   0  0  0  0  0  0  0  0  0  0  0  0
   10.9169  -16.9001   21.5721 C   0  0  0  0  0  0  0  0  0  0  0  0
   10.2281  -15.8479   21.2777 O   0  0  0  0  0  0  0  0  0  0  0  0
   13.7516  -17.9215   17.6379 O   0  0  0  0  0  0  0  0  0  0  0  0
   11.2017  -17.0420   22.9430 N   0  0  0  0  0  0  0  0  0  0  0  0
   10.5637  -16.1951   23.9379 C   0  0  0  0  0  0  0  0  0  0  0  0
   11.1193  -16.4920   25.2766 C   0  0  0  0  0  0  0  0  0  0  0  0
   10.7291  -15.8228   26.4192 O   0  0  0  0  0  0  0  0  0  0  0  0
   11.9928  -17.3962   25.4049 O   0  0  0  0  0  0  0  0  0  0  0  0
  1  2  1  0
  2  3  1  0
  3  4  1  1
  5  3  1  0
  5  6  2  0
  7  5  1  0
  8  7  1  0
  8  9  1  6
 10  9  1  0
 10 14  1  0
 11 10  2  0
 12  8  1  0
 13 12  2  0
 15 12  1  0
 16 15  1  0
 17 16  1  0
 17 18  1  0
 19 17  2  0
M  END
$$$$
