FTN.pdb
     RDKit          3D

 27 27  0  0  1  0  0  0  0  0999 V2000
    7.5859  -13.5441   20.4395 N   0  0  0  0  0  0  0  0  0  0  0  0
    7.9670  -13.6702   21.8332 C   0  0  1  0  0  0  0  0  0  0  0  0
    6.8265  -13.0527   22.6147 C   0  0  0  0  0  0  0  0  0  0  0  0
    6.9680  -13.1185   24.0676 C   0  0  0  0  0  0  0  0  0  0  0  0
    6.4544  -14.1362   24.8153 C   0  0  0  0  0  0  0  0  0  0  0  0
    6.6039  -14.1929   26.2044 C   0  0  0  0  0  0  0  0  0  0  0  0
    7.2845  -13.2081   26.8685 C   0  0  0  0  0  0  0  0  0  0  0  0
    7.8044  -12.1774   26.1007 C   0  0  0  0  0  0  0  0  0  0  0  0
    7.6584  -12.1193   24.7283 C   0  0  0  0  0  0  0  0  0  0  0  0
    8.1405  -15.0569   22.2620 C   0  0  0  0  0  0  0  0  0  0  0  0
    7.4963  -15.9680   21.6857 O   0  0  0  0  0  0  0  0  0  0  0  0
    9.3986  -17.2532   21.1130 C   0  0  0  0  0  0  0  0  0  0  0  0
   10.2906  -17.1369   22.3046 C   0  0  1  0  0  0  0  0  0  0  0  0
   11.2588  -16.1522   22.1239 O   0  0  0  0  0  0  0  0  0  0  0  0
    9.4955  -16.7440   23.5572 C   0  0  2  0  0  0  0  0  0  0  0  0
    9.0215  -15.3905   23.3146 N   0  0  0  0  0  0  0  0  0  0  0  0
   10.4031  -16.6868   24.7179 C   0  0  0  0  0  0  0  0  0  0  0  0
   10.5280  -15.6416   25.4471 O   0  0  0  0  0  0  0  0  0  0  0  0
   11.2933  -19.1048   29.1513 N   0  0  0  0  0  0  0  0  0  0  0  0
   10.0935  -18.9888   28.3970 C   0  0  0  0  0  0  0  0  0  0  0  0
    8.9813  -19.3616   28.9361 O   0  0  0  0  0  0  0  0  0  0  0  0
    9.9857  -18.4708   27.0249 C   0  0  0  0  0  0  0  0  0  0  0  0
   11.3680  -18.1786   26.4351 C   0  0  2  0  0  0  0  0  0  0  0  0
   11.1696  -17.8284   25.0468 N   0  0  0  0  0  0  0  0  0  0  0  0
   12.2255  -19.4028   26.4713 C   0  0  0  0  0  0  0  0  0  0  0  0
   12.0533  -20.3067   25.6223 O   0  0  0  0  0  0  0  0  0  0  0  0
   13.2116  -19.5481   27.4376 O   0  0  0  0  0  0  0  0  0  0  0  0
  2  1  1  6
  2 10  1  0
  3  2  1  0
  4  3  1  0
  4  5  2  0
  6  5  1  0
  7  6  2  0
  8  9  2  0
  8  7  1  0
  9  4  1  0
 10 16  1  0
 10 11  2  0
 13 12  1  6
 14 13  1  0
 15 17  1  0
 15 13  1  0
 15 16  1  6
 17 18  2  0
 19 20  1  0
 20 22  1  0
 21 20  2  0
 23 22  1  6
 24 23  1  0
 24 17  1  0
 25 23  1  0
 25 27  1  0
 26 25  2  0
M  END
$$$$
