FTN.pdb
     RDKit          3D

 27 27  0  0  1  0  0  0  0  0999 V2000
    6.0640  -16.3230   25.9201 N   0  0  0  0  0  0  0  0  0  0  0  0
    6.7230  -15.4464   24.9710 C   0  0  1  0  0  0  0  0  0  0  0  0
    7.7301  -14.6629   25.7863 C   0  0  0  0  0  0  0  0  0  0  0  0
    7.1926  -13.4842   26.4623 C   0  0  0  0  0  0  0  0  0  0  0  0
    5.9465  -12.9914   26.2109 C   0  0  0  0  0  0  0  0  0  0  0  0
    5.4395  -11.8676   26.8707 C   0  0  0  0  0  0  0  0  0  0  0  0
    6.1947  -11.2155   27.8080 C   0  0  0  0  0  0  0  0  0  0  0  0
    7.4602  -11.7235   28.0584 C   0  0  0  0  0  0  0  0  0  0  0  0
    7.9632  -12.8338   27.4082 C   0  0  0  0  0  0  0  0  0  0  0  0
    7.4269  -16.1663   23.9112 C   0  0  0  0  0  0  0  0  0  0  0  0
    7.6703  -17.3904   24.0509 O   0  0  0  0  0  0  0  0  0  0  0  0
    6.8333  -14.9077   20.4716 C   0  0  0  0  0  0  0  0  0  0  0  0
    8.2102  -15.4771   20.3769 C   0  0  1  0  0  0  0  0  0  0  0  0
    9.1569  -14.4864   20.1280 O   0  0  0  0  0  0  0  0  0  0  0  0
    8.6222  -16.1555   21.6906 C   0  0  2  0  0  0  0  0  0  0  0  0
    7.8384  -15.5083   22.7309 N   0  0  0  0  0  0  0  0  0  0  0  0
   10.0409  -15.8663   21.9697 C   0  0  0  0  0  0  0  0  0  0  0  0
   10.4449  -14.7244   22.3851 O   0  0  0  0  0  0  0  0  0  0  0  0
   11.2918  -18.8511   23.5827 N   0  0  0  0  0  0  0  0  0  0  0  0
   11.9468  -17.7864   24.2608 C   0  0  0  0  0  0  0  0  0  0  0  0
   12.1190  -17.8745   25.5372 O   0  0  0  0  0  0  0  0  0  0  0  0
   12.4651  -16.5590   23.6386 C   0  0  0  0  0  0  0  0  0  0  0  0
   12.3840  -16.6375   22.1117 C   0  0  2  0  0  0  0  0  0  0  0  0
   11.0006  -16.8859   21.7742 N   0  0  0  0  0  0  0  0  0  0  0  0
   13.1852  -17.7916   21.6005 C   0  0  0  0  0  0  0  0  0  0  0  0
   14.4317  -17.7823   21.7176 O   0  0  0  0  0  0  0  0  0  0  0  0
   12.5610  -18.8744   20.9964 O   0  0  0  0  0  0  0  0  0  0  0  0
  2  1  1  1
  2 10  1  0
  3  2  1  0
  4  3  1  0
  4  5  2  0
  6  5  1  0
  7  6  2  0
  8  9  2  0
  8  7  1  0
  9  4  1  0
 10 16  1  0
 10 11  2  0
 13 12  1  1
 14 13  1  0
 15 17  1  0
 15 13  1  0
 15 16  1  1
 17 18  2  0
 19 20  1  0
 20 22  1  0
 21 20  2  0
 23 22  1  1
 24 23  1  0
 24 17  1  0
 25 23  1  0
 25 27  1  0
 26 25  2  0
M  END
$$$$
