FTN.pdb
     RDKit          3D

 27 27  0  0  1  0  0  0  0  0999 V2000
    6.0522  -16.1042   25.7723 N   0  0  0  0  0  0  0  0  0  0  0  0
    6.8626  -15.3728   24.8173 C   0  0  1  0  0  0  0  0  0  0  0  0
    7.7059  -14.4308   25.6506 C   0  0  0  0  0  0  0  0  0  0  0  0
    6.9957  -13.2646   26.1711 C   0  0  0  0  0  0  0  0  0  0  0  0
    6.5206  -13.1969   27.4472 C   0  0  0  0  0  0  0  0  0  0  0  0
    5.8501  -12.0717   27.9368 C   0  0  0  0  0  0  0  0  0  0  0  0
    5.6467  -10.9825   27.1330 C   0  0  0  0  0  0  0  0  0  0  0  0
    6.1336  -11.0591   25.8371 C   0  0  0  0  0  0  0  0  0  0  0  0
    6.7968  -12.1693   25.3512 C   0  0  0  0  0  0  0  0  0  0  0  0
    7.7462  -16.2318   24.0311 C   0  0  0  0  0  0  0  0  0  0  0  0
    8.0915  -17.3489   24.4892 O   0  0  0  0  0  0  0  0  0  0  0  0
    7.5748  -15.8362   20.0803 C   0  0  0  0  0  0  0  0  0  0  0  0
    8.9875  -16.0423   20.5173 C   0  0  1  0  0  0  0  0  0  0  0  0
    9.6807  -14.8366   20.5907 O   0  0  0  0  0  0  0  0  0  0  0  0
    9.0500  -16.6688   21.9171 C   0  0  2  0  0  0  0  0  0  0  0  0
    8.2188  -15.8268   22.7630 N   0  0  0  0  0  0  0  0  0  0  0  0
   10.4282  -16.5811   22.4339 C   0  0  0  0  0  0  0  0  0  0  0  0
   10.8898  -15.5275   22.9966 O   0  0  0  0  0  0  0  0  0  0  0  0
   11.5258  -18.3370   25.3780 N   0  0  0  0  0  0  0  0  0  0  0  0
   12.3649  -19.2500   24.6818 C   0  0  0  0  0  0  0  0  0  0  0  0
   12.6353  -20.3875   25.2290 O   0  0  0  0  0  0  0  0  0  0  0  0
   12.9734  -19.0254   23.3621 C   0  0  0  0  0  0  0  0  0  0  0  0
   12.6292  -17.6336   22.8252 C   0  0  2  0  0  0  0  0  0  0  0  0
   11.2811  -17.7016   22.3082 N   0  0  0  0  0  0  0  0  0  0  0  0
   13.5287  -17.2708   21.6875 C   0  0  0  0  0  0  0  0  0  0  0  0
   13.3428  -17.7844   20.5609 O   0  0  0  0  0  0  0  0  0  0  0  0
   14.5692  -16.3695   21.8672 O   0  0  0  0  0  0  0  0  0  0  0  0
  2  1  1  1
  2 10  1  0
  3  2  1  0
  4  3  1  0
  4  5  2  0
  6  5  1  0
  7  6  2  0
  8  9  2  0
  8  7  1  0
  9  4  1  0
 10 16  1  0
 10 11  2  0
 13 12  1  1
 14 13  1  0
 15 17  1  0
 15 13  1  0
 15 16  1  1
 17 18  2  0
 19 20  1  0
 20 22  1  0
 21 20  2  0
 23 22  1  6
 24 23  1  0
 24 17  1  0
 25 23  1  0
 25 27  1  0
 26 25  2  0
M  END
$$$$
