FTN.pdb
     RDKit          3D

 27 27  0  0  1  0  0  0  0  0999 V2000
    5.8662  -15.6927   23.4944 N   0  0  0  0  0  0  0  0  0  0  0  0
    7.2148  -15.5487   24.0081 C   0  0  1  0  0  0  0  0  0  0  0  0
    7.0485  -15.2478   25.4828 C   0  0  0  0  0  0  0  0  0  0  0  0
    6.8053  -13.8426   25.8015 C   0  0  0  0  0  0  0  0  0  0  0  0
    5.6038  -13.3842   26.2544 C   0  0  0  0  0  0  0  0  0  0  0  0
    5.3855  -12.0384   26.5645 C   0  0  0  0  0  0  0  0  0  0  0  0
    6.3924  -11.1222   26.4199 C   0  0  0  0  0  0  0  0  0  0  0  0
    7.6112  -11.5966   25.9598 C   0  0  0  0  0  0  0  0  0  0  0  0
    7.8294  -12.9258   25.6531 C   0  0  0  0  0  0  0  0  0  0  0  0
    8.0229  -16.7576   23.8582 C   0  0  0  0  0  0  0  0  0  0  0  0
    7.4672  -17.8829   23.9036 O   0  0  0  0  0  0  0  0  0  0  0  0
   10.5339  -17.3357   21.0795 C   0  0  0  0  0  0  0  0  0  0  0  0
   11.2475  -17.5135   22.3787 C   0  0  1  0  0  0  0  0  0  0  0  0
   11.9068  -16.3485   22.7632 O   0  0  0  0  0  0  0  0  0  0  0  0
   10.2667  -17.8545   23.5090 C   0  0  2  0  0  0  0  0  0  0  0  0
    9.4198  -16.6821   23.6627 N   0  0  0  0  0  0  0  0  0  0  0  0
   11.0103  -18.0239   24.7710 C   0  0  0  0  0  0  0  0  0  0  0  0
   11.4343  -17.0328   25.4620 O   0  0  0  0  0  0  0  0  0  0  0  0
    8.7793  -20.8335   27.1155 N   0  0  0  0  0  0  0  0  0  0  0  0
   10.0107  -20.4333   27.7034 C   0  0  0  0  0  0  0  0  0  0  0  0
    9.9840  -19.7440   28.7946 O   0  0  0  0  0  0  0  0  0  0  0  0
   11.3521  -20.7343   27.1814 C   0  0  0  0  0  0  0  0  0  0  0  0
   11.9664  -19.5094   26.4986 C   0  0  2  0  0  0  0  0  0  0  0  0
   11.2692  -19.3305   25.2450 N   0  0  0  0  0  0  0  0  0  0  0  0
   13.4071  -19.7509   26.1807 C   0  0  0  0  0  0  0  0  0  0  0  0
   14.2332  -19.8904   27.1112 O   0  0  0  0  0  0  0  0  0  0  0  0
   13.8393  -19.8219   24.8634 O   0  0  0  0  0  0  0  0  0  0  0  0
  2  1  1  1
  2 10  1  0
  3  2  1  0
  4  3  1  0
  4  5  2  0
  6  5  1  0
  7  6  2  0
  8  9  2  0
  8  7  1  0
  9  4  1  0
 10 16  1  0
 10 11  2  0
 13 12  1  6
 14 13  1  0
 15 17  1  0
 15 13  1  0
 15 16  1  1
 17 18  2  0
 19 20  1  0
 20 22  1  0
 21 20  2  0
 23 22  1  6
 24 23  1  0
 24 17  1  0
 25 23  1  0
 25 27  1  0
 26 25  2  0
M  END
$$$$
