FTN.pdb
     RDKit          3D

 27 27  0  0  1  0  0  0  0  0999 V2000
    7.8937  -13.5790   20.7980 N   0  0  0  0  0  0  0  0  0  0  0  0
    8.1742  -13.7068   22.2153 C   0  0  1  0  0  0  0  0  0  0  0  0
    7.2442  -12.7239   22.8948 C   0  0  0  0  0  0  0  0  0  0  0  0
    7.2479  -12.7803   24.3550 C   0  0  0  0  0  0  0  0  0  0  0  0
    8.3947  -12.8419   25.0897 C   0  0  0  0  0  0  0  0  0  0  0  0
    8.3860  -12.8867   26.4873 C   0  0  0  0  0  0  0  0  0  0  0  0
    7.2016  -12.8696   27.1734 C   0  0  0  0  0  0  0  0  0  0  0  0
    6.0401  -12.8059   26.4188 C   0  0  0  0  0  0  0  0  0  0  0  0
    6.0461  -12.7612   25.0381 C   0  0  0  0  0  0  0  0  0  0  0  0
    7.9130  -15.0468   22.7378 C   0  0  0  0  0  0  0  0  0  0  0  0
    6.8915  -15.6708   22.3582 O   0  0  0  0  0  0  0  0  0  0  0  0
    8.1523  -17.7848   21.6664 C   0  0  0  0  0  0  0  0  0  0  0  0
    9.2172  -17.7967   22.7128 C   0  0  1  0  0  0  0  0  0  0  0  0
   10.3675  -17.1425   22.2786 O   0  0  0  0  0  0  0  0  0  0  0  0
    8.7549  -17.0713   23.9840 C   0  0  2  0  0  0  0  0  0  0  0  0
    8.7911  -15.6530   23.6635 N   0  0  0  0  0  0  0  0  0  0  0  0
    9.7326  -17.2997   25.0637 C   0  0  0  0  0  0  0  0  0  0  0  0
   10.7218  -16.5152   25.2781 O   0  0  0  0  0  0  0  0  0  0  0  0
   10.8716  -19.3829   30.2508 N   0  0  0  0  0  0  0  0  0  0  0  0
   10.7599  -20.0654   29.0083 C   0  0  0  0  0  0  0  0  0  0  0  0
   11.5046  -21.0986   28.7971 O   0  0  0  0  0  0  0  0  0  0  0  0
    9.8550  -19.7054   27.9065 C   0  0  0  0  0  0  0  0  0  0  0  0
   10.4569  -18.5980   27.0373 C   0  0  2  0  0  0  0  0  0  0  0  0
    9.5787  -18.4278   25.9019 N   0  0  0  0  0  0  0  0  0  0  0  0
   11.7950  -19.0092   26.5124 C   0  0  0  0  0  0  0  0  0  0  0  0
   11.8674  -19.7058   25.4745 O   0  0  0  0  0  0  0  0  0  0  0  0
   12.9593  -18.6268   27.1645 O   0  0  0  0  0  0  0  0  0  0  0  0
  2  1  1  6
  2 10  1  0
  3  2  1  0
  4  3  1  0
  4  5  2  0
  6  5  1  0
  7  6  2  0
  8  9  2  0
  8  7  1  0
  9  4  1  0
 10 16  1  0
 10 11  2  0
 13 12  1  6
 14 13  1  0
 15 17  1  0
 15 13  1  0
 15 16  1  6
 17 18  2  0
 19 20  1  0
 20 22  1  0
 21 20  2  0
 23 22  1  1
 24 23  1  0
 24 17  1  0
 25 23  1  0
 25 27  1  0
 26 25  2  0
M  END
$$$$
