FTN.pdb
     RDKit          3D

 27 27  0  0  1  0  0  0  0  0999 V2000
    8.3502  -14.1271   21.1199 N   0  0  0  0  0  0  0  0  0  0  0  0
    8.5002  -14.5495   22.4993 C   0  0  1  0  0  0  0  0  0  0  0  0
    7.1275  -14.3852   23.1169 C   0  0  0  0  0  0  0  0  0  0  0  0
    7.0958  -13.5998   24.3487 C   0  0  0  0  0  0  0  0  0  0  0  0
    7.6947  -12.3805   24.4639 C   0  0  0  0  0  0  0  0  0  0  0  0
    7.6501  -11.6340   25.6454 C   0  0  0  0  0  0  0  0  0  0  0  0
    6.9902  -12.1151   26.7441 C   0  0  0  0  0  0  0  0  0  0  0  0
    6.3832  -13.3553   26.6184 C   0  0  0  0  0  0  0  0  0  0  0  0
    6.4254  -14.0945   25.4521 C   0  0  0  0  0  0  0  0  0  0  0  0
    8.9183  -15.9437   22.6349 C   0  0  0  0  0  0  0  0  0  0  0  0
    8.7375  -16.7396   21.6804 O   0  0  0  0  0  0  0  0  0  0  0  0
   10.6781  -17.8263   21.5216 C   0  0  0  0  0  0  0  0  0  0  0  0
   11.2267  -17.8069   22.9100 C   0  0  1  0  0  0  0  0  0  0  0  0
   12.0328  -16.6917   23.1253 O   0  0  0  0  0  0  0  0  0  0  0  0
   10.1010  -17.7405   23.9512 C   0  0  2  0  0  0  0  0  0  0  0  0
    9.5231  -16.4120   23.8224 N   0  0  0  0  0  0  0  0  0  0  0  0
   10.6771  -17.8362   25.3051 C   0  0  0  0  0  0  0  0  0  0  0  0
   11.2175  -16.8386   25.8987 O   0  0  0  0  0  0  0  0  0  0  0  0
    9.7752  -20.0688   30.2380 N   0  0  0  0  0  0  0  0  0  0  0  0
    9.6133  -20.4575   28.8797 C   0  0  0  0  0  0  0  0  0  0  0  0
    8.4337  -20.7699   28.4585 O   0  0  0  0  0  0  0  0  0  0  0  0
   10.6836  -20.5413   27.8747 C   0  0  0  0  0  0  0  0  0  0  0  0
   11.0676  -19.1514   27.3602 C   0  0  2  0  0  0  0  0  0  0  0  0
   10.6343  -19.0761   25.9832 N   0  0  0  0  0  0  0  0  0  0  0  0
   12.5523  -18.9765   27.3740 C   0  0  0  0  0  0  0  0  0  0  0  0
   13.2358  -19.3956   26.4124 O   0  0  0  0  0  0  0  0  0  0  0  0
   13.1818  -18.3537   28.4431 O   0  0  0  0  0  0  0  0  0  0  0  0
  2  1  1  6
  2 10  1  0
  3  2  1  0
  4  3  1  0
  4  5  2  0
  6  5  1  0
  7  6  2  0
  8  9  2  0
  8  7  1  0
  9  4  1  0
 10 16  1  0
 10 11  2  0
 13 12  1  6
 14 13  1  0
 15 17  1  0
 15 13  1  0
 15 16  1  1
 17 18  2  0
 19 20  1  0
 20 22  1  0
 21 20  2  0
 23 22  1  6
 24 23  1  0
 24 17  1  0
 25 23  1  0
 25 27  1  0
 26 25  2  0
M  END
$$$$
