SIL.pdb
     RDKit          3D

 23 22  0  0  1  0  0  0  0  0999 V2000
   70.8593   -6.7877    5.5792 O   0  0  0  0  0  0  0  0  0  0  0  0
   70.2451   -7.8865    6.1643 C   0  0  0  0  0  0  0  0  0  0  0  0
   71.1696   -8.5286    7.1990 C   0  0  2  0  0  0  0  0  0  0  0  0
   71.8764   -7.4980    7.9008 N   0  0  0  0  0  0  0  0  0  0  0  0
   72.1197   -9.4197    6.5316 C   0  0  0  0  0  0  0  0  0  0  0  0
   72.6902  -10.3322    7.1855 O   0  0  0  0  0  0  0  0  0  0  0  0
   73.4023   -6.6175    3.1475 C   0  0  0  0  0  0  0  0  0  0  0  0
   72.7901   -6.5068    4.5097 C   0  0  0  0  0  0  0  0  0  0  0  0
   71.4169   -7.1114    4.5012 C   0  0  2  0  0  0  0  0  0  0  0  0
   70.6527   -6.8090    5.7647 C   0  0  0  0  0  0  0  0  0  0  0  0
   71.4616   -8.6102    4.3078 C   0  0  2  0  0  0  0  0  0  0  0  0
   72.4034   -9.2624    5.1503 N   0  0  0  0  0  0  0  0  0  0  0  0
   71.8446   -8.9056    2.8817 C   0  0  0  0  0  0  0  0  0  0  0  0
   72.3463  -10.0130    2.5466 O   0  0  0  0  0  0  0  0  0  0  0  0
   69.7271   -5.4038   -0.0734 C   0  0  0  0  0  0  0  0  0  0  0  0
   71.0070   -6.1143   -0.2825 C   0  0  2  0  0  0  0  0  0  0  0  0
   70.7541   -7.6367   -0.4133 C   0  0  0  0  0  0  0  0  0  0  0  0
   72.0851   -5.9580    0.6958 C   0  0  0  0  0  0  0  0  0  0  0  0
   72.7553   -7.1308    1.3064 C   0  0  2  0  0  0  0  0  0  0  0  0
   71.6293   -7.9055    1.9083 N   0  0  0  0  0  0  0  0  0  0  0  0
   73.6570   -6.8479    2.4216 C   0  0  0  0  0  0  0  0  0  0  0  0
   73.4887   -7.4364    3.5510 O   0  0  0  0  0  0  0  0  0  0  0  0
   74.7383   -5.9739    2.4024 O   0  0  0  0  0  0  0  0  0  0  0  0
  1  2  1  0
  2  3  1  0
  3  4  1  6
  3  5  1  0
  5  6  2  0
  7  8  1  0
  8  9  1  0
  9 11  1  0
  9 10  1  1
 11 13  1  0
 12  5  1  0
 11 12  1  1
 13 14  2  0
 16 17  1  1
 16 15  1  0
 18 16  1  0
 19 18  1  1
 19 21  1  0
 20 13  1  0
 20 19  1  0
 21 22  2  0
 21 23  1  0
M  END
$$$$
