SIL.pdb
     RDKit          3D

 23 22  0  0  1  0  0  0  0  0999 V2000
    7.2310  -19.4824   23.2928 O   0  0  0  0  0  0  0  0  0  0  0  0
    6.1249  -18.8241   22.7733 C   0  0  0  0  0  0  0  0  0  0  0  0
    6.4096  -18.3382   21.3519 C   0  0  2  0  0  0  0  0  0  0  0  0
    6.7899  -19.4570   20.5407 N   0  0  0  0  0  0  0  0  0  0  0  0
    7.4865  -17.3473   21.3717 C   0  0  0  0  0  0  0  0  0  0  0  0
    8.6314  -17.6559   20.9477 O   0  0  0  0  0  0  0  0  0  0  0  0
    6.8158  -12.4338   19.4970 C   0  0  0  0  0  0  0  0  0  0  0  0
    7.4410  -13.7393   19.8806 C   0  0  0  0  0  0  0  0  0  0  0  0
    7.8234  -13.7137   21.3313 C   0  0  2  0  0  0  0  0  0  0  0  0
    8.9018  -12.7007   21.6192 C   0  0  0  0  0  0  0  0  0  0  0  0
    8.2877  -15.0682   21.8163 C   0  0  2  0  0  0  0  0  0  0  0  0
    7.2495  -16.0387   21.8662 N   0  0  0  0  0  0  0  0  0  0  0  0
    8.8428  -14.9226   23.2086 C   0  0  0  0  0  0  0  0  0  0  0  0
    9.8871  -14.2540   23.4385 O   0  0  0  0  0  0  0  0  0  0  0  0
    8.5043  -12.1813   26.3056 C   0  0  0  0  0  0  0  0  0  0  0  0
    7.4103  -13.1007   25.9256 C   0  0  2  0  0  0  0  0  0  0  0  0
    6.0695  -12.6061   26.5225 C   0  0  0  0  0  0  0  0  0  0  0  0
    7.5135  -14.5212   26.2647 C   0  0  0  0  0  0  0  0  0  0  0  0
    8.5789  -15.3800   25.6949 C   0  0  2  0  0  0  0  0  0  0  0  0
    8.1637  -15.5576   24.2714 N   0  0  0  0  0  0  0  0  0  0  0  0
    8.6688  -16.7360   26.2335 C   0  0  0  0  0  0  0  0  0  0  0  0
    9.0171  -16.9214   27.4561 O   0  0  0  0  0  0  0  0  0  0  0  0
    8.4018  -17.9134   25.5437 O   0  0  0  0  0  0  0  0  0  0  0  0
  1  2  1  0
  2  3  1  0
  3  4  1  6
  3  5  1  0
  5  6  2  0
  7  8  1  0
  8  9  1  0
  9 11  1  0
  9 10  1  6
 11 13  1  0
 12  5  1  0
 11 12  1  1
 13 14  2  0
 16 17  1  1
 16 15  1  0
 18 16  1  0
 19 18  1  1
 19 21  1  0
 20 13  1  0
 20 19  1  0
 21 22  2  0
 21 23  1  0
M  END
$$$$
