SIL.pdb
     RDKit          3D

 23 22  0  0  1  0  0  0  0  0999 V2000
   12.6624  -19.5155   20.5560 O   0  0  0  0  0  0  0  0  0  0  0  0
   11.9639  -18.6195   21.3536 C   0  0  0  0  0  0  0  0  0  0  0  0
   11.8804  -17.2517   20.6757 C   0  0  2  0  0  0  0  0  0  0  0  0
   13.2058  -16.7913   20.3824 N   0  0  0  0  0  0  0  0  0  0  0  0
   11.2056  -16.2995   21.5591 C   0  0  0  0  0  0  0  0  0  0  0  0
   11.8833  -15.4800   22.2336 O   0  0  0  0  0  0  0  0  0  0  0  0
    6.8957  -13.4852   20.0633 C   0  0  0  0  0  0  0  0  0  0  0  0
    8.1794  -13.9538   20.6757 C   0  0  0  0  0  0  0  0  0  0  0  0
    7.8910  -14.7593   21.9083 C   0  0  2  0  0  0  0  0  0  0  0  0
    7.1840  -13.9507   22.9658 C   0  0  0  0  0  0  0  0  0  0  0  0
    9.1497  -15.3457   22.5063 C   0  0  2  0  0  0  0  0  0  0  0  0
    9.7905  -16.2931   21.6612 N   0  0  0  0  0  0  0  0  0  0  0  0
    8.7971  -16.0466   23.7916 C   0  0  0  0  0  0  0  0  0  0  0  0
    8.4541  -17.2600   23.8116 O   0  0  0  0  0  0  0  0  0  0  0  0
   11.0037  -15.1090   28.5316 C   0  0  0  0  0  0  0  0  0  0  0  0
   10.1452  -14.3364   27.6082 C   0  0  2  0  0  0  0  0  0  0  0  0
    9.9582  -12.8935   28.1390 C   0  0  0  0  0  0  0  0  0  0  0  0
    8.8066  -14.8333   27.2844 C   0  0  0  0  0  0  0  0  0  0  0  0
    8.6019  -15.9436   26.3238 C   0  0  2  0  0  0  0  0  0  0  0  0
    8.8575  -15.3109   24.9954 N   0  0  0  0  0  0  0  0  0  0  0  0
    7.2427  -16.4739   26.2338 C   0  0  0  0  0  0  0  0  0  0  0  0
    6.3715  -15.8900   25.4919 O   0  0  0  0  0  0  0  0  0  0  0  0
    6.7554  -17.6005   26.8870 O   0  0  0  0  0  0  0  0  0  0  0  0
  1  2  1  0
  2  3  1  0
  3  4  1  1
  3  5  1  0
  5  6  2  0
  7  8  1  0
  8  9  1  0
  9 11  1  0
  9 10  1  1
 11 13  1  0
 12  5  1  0
 11 12  1  6
 13 14  2  0
 16 17  1  1
 16 15  1  0
 18 16  1  0
 19 18  1  1
 19 21  1  0
 20 13  1  0
 20 19  1  0
 21 22  2  0
 21 23  1  0
M  END
$$$$
