SIL.pdb
     RDKit          3D

 23 22  0  0  1  0  0  0  0  0999 V2000
    7.8265  -19.3461   24.7710 O   0  0  0  0  0  0  0  0  0  0  0  0
    6.5745  -18.8524   25.1107 C   0  0  0  0  0  0  0  0  0  0  0  0
    6.0453  -17.9320   24.0106 C   0  0  2  0  0  0  0  0  0  0  0  0
    5.9865  -18.6601   22.7773 N   0  0  0  0  0  0  0  0  0  0  0  0
    6.9278  -16.7735   23.8645 C   0  0  0  0  0  0  0  0  0  0  0  0
    7.7188  -16.7064   22.8869 O   0  0  0  0  0  0  0  0  0  0  0  0
    5.6238  -12.0279   26.5046 C   0  0  0  0  0  0  0  0  0  0  0  0
    5.9528  -13.0425   25.4536 C   0  0  0  0  0  0  0  0  0  0  0  0
    7.3958  -13.4388   25.5627 C   0  0  2  0  0  0  0  0  0  0  0  0
    8.3266  -12.2904   25.2683 C   0  0  0  0  0  0  0  0  0  0  0  0
    7.7365  -14.5882   24.6415 C   0  0  2  0  0  0  0  0  0  0  0  0
    6.8986  -15.7235   24.8182 N   0  0  0  0  0  0  0  0  0  0  0  0
    9.1538  -15.0218   24.9079 C   0  0  0  0  0  0  0  0  0  0  0  0
   10.1122  -14.6315   24.1871 O   0  0  0  0  0  0  0  0  0  0  0  0
   10.5085  -13.6703   28.5647 C   0  0  0  0  0  0  0  0  0  0  0  0
    9.9475  -15.0319   28.6980 C   0  0  2  0  0  0  0  0  0  0  0  0
    9.8869  -15.4374   30.1916 C   0  0  0  0  0  0  0  0  0  0  0  0
   10.5861  -16.1456   27.9941 C   0  0  0  0  0  0  0  0  0  0  0  0
   10.7733  -16.1294   26.5237 C   0  0  2  0  0  0  0  0  0  0  0  0
    9.3971  -15.8875   25.9966 N   0  0  0  0  0  0  0  0  0  0  0  0
   11.1941  -17.3901   25.9151 C   0  0  0  0  0  0  0  0  0  0  0  0
   12.3931  -17.8187   26.0854 O   0  0  0  0  0  0  0  0  0  0  0  0
   10.4059  -18.2296   25.1357 O   0  0  0  0  0  0  0  0  0  0  0  0
  1  2  1  0
  2  3  1  0
  3  4  1  6
  3  5  1  0
  5  6  2  0
  7  8  1  0
  8  9  1  0
  9 11  1  0
  9 10  1  6
 11 13  1  0
 12  5  1  0
 11 12  1  1
 13 14  2  0
 16 17  1  1
 16 15  1  0
 18 16  1  0
 19 18  1  1
 19 21  1  0
 20 13  1  0
 20 19  1  0
 21 22  2  0
 21 23  1  0
M  END
$$$$
