HAK.pdb
     RDKit          3D

 25 25  0  0  1  0  0  0  0  0999 V2000
   20.4176   -6.9795  -17.1284 N   0  0  0  0  0  0  0  0  0  0  0  0
   21.3664   -8.0610  -16.9800 C   0  0  1  0  0  0  0  0  0  0  0  0
   21.3816   -8.4423  -15.5151 C   0  0  0  0  0  0  0  0  0  0  0  0
   21.8069   -7.2254  -14.7630 C   0  0  0  0  0  0  0  0  0  0  0  0
   22.6996   -6.2972  -15.2330 C   0  0  0  0  0  0  0  0  0  0  0  0
   22.8256   -5.3438  -14.2632 N   0  0  0  0  0  0  0  0  0  0  0  0
   22.0449   -5.6593  -13.2269 C   0  0  0  0  0  0  0  0  0  0  0  0
   21.4289   -6.8071  -13.5417 N   0  0  0  0  0  0  0  0  0  0  0  0
   21.0162   -9.2130  -17.8539 C   0  0  0  0  0  0  0  0  0  0  0  0
   19.8424   -9.5750  -18.0562 O   0  0  0  0  0  0  0  0  0  0  0  0
   23.0051  -11.1284  -20.3090 C   0  0  0  0  0  0  0  0  0  0  0  0
   21.7879  -10.9988  -19.3919 C   0  0  2  0  0  0  0  0  0  0  0  0
   22.0885   -9.9168  -18.4752 N   0  0  0  0  0  0  0  0  0  0  0  0
   21.6216  -12.2354  -18.5704 C   0  0  0  0  0  0  0  0  0  0  0  0
   22.3010  -12.3336  -17.5228 O   0  0  0  0  0  0  0  0  0  0  0  0
   20.7442  -13.2713  -18.9292 N   0  0  0  0  0  0  0  0  0  0  0  0
   20.6350  -14.4501  -18.0831 C   0  0  1  0  0  0  0  0  0  0  0  0
   19.1975  -14.8621  -18.1106 C   0  0  0  0  0  0  0  0  0  0  0  0
   18.8636  -16.0611  -17.3079 C   0  0  0  0  0  0  0  0  0  0  0  0
   17.4762  -16.5427  -17.4834 C   0  0  0  0  0  0  0  0  0  0  0  0
   17.2569  -17.7636  -16.5798 C   0  0  0  0  0  0  0  0  0  0  0  0
   15.8743  -18.1492  -16.5780 N   0  0  0  0  0  0  0  0  0  0  0  0
   21.6570  -15.4415  -18.3538 C   0  0  0  0  0  0  0  0  0  0  0  0
   22.1101  -15.6046  -19.5134 O   0  0  0  0  0  0  0  0  0  0  0  0
   22.2125  -16.2821  -17.3835 O   0  0  0  0  0  0  0  0  0  0  0  0
  2  9  1  0
  2  1  1  1
  3  2  1  0
  4  3  1  0
  5  4  2  0
  6  7  1  0
  6  5  1  0
  7  8  2  0
  8  4  1  0
  9 10  2  0
 12 11  1  6
 13 12  1  0
 13  9  1  0
 14 15  2  0
 14 12  1  0
 16 14  1  0
 17 16  1  0
 18 19  1  0
 17 18  1  6
 19 20  1  0
 20 21  1  0
 21 22  1  0
 23 17  1  0
 23 25  1  0
 24 23  2  0
M  END
$$$$
