HAK.pdb
     RDKit          3D

 25 25  0  0  1  0  0  0  0  0999 V2000
   21.5916  -20.1139  -16.1935 N   0  0  0  0  0  0  0  0  0  0  0  0
   22.1545  -19.3399  -15.1090 C   0  0  1  0  0  0  0  0  0  0  0  0
   22.0492  -17.8816  -15.5011 C   0  0  0  0  0  0  0  0  0  0  0  0
   22.8624  -17.7146  -16.7413 C   0  0  0  0  0  0  0  0  0  0  0  0
   22.3740  -17.8634  -18.0135 C   0  0  0  0  0  0  0  0  0  0  0  0
   23.4153  -17.6318  -18.8662 N   0  0  0  0  0  0  0  0  0  0  0  0
   24.5126  -17.3491  -18.1598 C   0  0  0  0  0  0  0  0  0  0  0  0
   24.1648  -17.4022  -16.8667 N   0  0  0  0  0  0  0  0  0  0  0  0
   21.4619  -19.6247  -13.8235 C   0  0  0  0  0  0  0  0  0  0  0  0
   21.5645  -18.8899  -12.8238 O   0  0  0  0  0  0  0  0  0  0  0  0
   18.8299  -20.0904  -12.3961 C   0  0  0  0  0  0  0  0  0  0  0  0
   19.9620  -21.1110  -12.5229 C   0  0  2  0  0  0  0  0  0  0  0  0
   20.6514  -20.7952  -13.7585 N   0  0  0  0  0  0  0  0  0  0  0  0
   19.4055  -22.4893  -12.6717 C   0  0  0  0  0  0  0  0  0  0  0  0
   18.9821  -22.8270  -13.8010 O   0  0  0  0  0  0  0  0  0  0  0  0
   19.3435  -23.4006  -11.6053 N   0  0  0  0  0  0  0  0  0  0  0  0
   18.8880  -24.7618  -11.8449 C   0  0  1  0  0  0  0  0  0  0  0  0
   19.9442  -25.6670  -11.2953 C   0  0  0  0  0  0  0  0  0  0  0  0
   19.7216  -27.1140  -11.5191 C   0  0  0  0  0  0  0  0  0  0  0  0
   20.7649  -27.9863  -10.9373 C   0  0  0  0  0  0  0  0  0  0  0  0
   20.3719  -29.4516  -11.1683 C   0  0  0  0  0  0  0  0  0  0  0  0
   21.4239  -30.3303  -10.7424 N   0  0  0  0  0  0  0  0  0  0  0  0
   17.5071  -24.9757  -11.4600 C   0  0  0  0  0  0  0  0  0  0  0  0
   16.9382  -24.2147  -10.6393 O   0  0  0  0  0  0  0  0  0  0  0  0
   16.7081  -26.0153  -11.9471 O   0  0  0  0  0  0  0  0  0  0  0  0
  2  9  1  0
  2  1  1  6
  3  2  1  0
  4  3  1  0
  5  4  2  0
  6  7  1  0
  6  5  1  0
  7  8  2  0
  8  4  1  0
  9 10  2  0
 12 11  1  6
 13 12  1  0
 13  9  1  0
 14 15  2  0
 14 12  1  0
 16 14  1  0
 17 16  1  0
 18 19  1  0
 17 18  1  1
 19 20  1  0
 20 21  1  0
 21 22  1  0
 23 17  1  0
 23 25  1  0
 24 23  2  0
M  END
$$$$
