HAK.pdb
     RDKit          3D

 25 25  0  0  1  0  0  0  0  0999 V2000
   21.4596  -12.8691  -16.1907 N   0  0  0  0  0  0  0  0  0  0  0  0
   21.5690  -11.6962  -17.0300 C   0  0  1  0  0  0  0  0  0  0  0  0
   20.4756  -11.7909  -18.0726 C   0  0  0  0  0  0  0  0  0  0  0  0
   20.8012  -12.9721  -18.9247 C   0  0  0  0  0  0  0  0  0  0  0  0
   21.7073  -12.9588  -19.9533 C   0  0  0  0  0  0  0  0  0  0  0  0
   21.7226  -14.2176  -20.4828 N   0  0  0  0  0  0  0  0  0  0  0  0
   20.8622  -14.9902  -19.8151 C   0  0  0  0  0  0  0  0  0  0  0  0
   20.3064  -14.2218  -18.8683 N   0  0  0  0  0  0  0  0  0  0  0  0
   21.4715  -10.4460  -16.2296 C   0  0  0  0  0  0  0  0  0  0  0  0
   20.5791  -10.2537  -15.3832 O   0  0  0  0  0  0  0  0  0  0  0  0
   23.7639   -7.5273  -15.9136 C   0  0  0  0  0  0  0  0  0  0  0  0
   22.4293   -8.2303  -15.6607 C   0  0  2  0  0  0  0  0  0  0  0  0
   22.4540   -9.4395  -16.4599 N   0  0  0  0  0  0  0  0  0  0  0  0
   21.2979   -7.3952  -16.1647 C   0  0  0  0  0  0  0  0  0  0  0  0
   20.7395   -7.7522  -17.2274 O   0  0  0  0  0  0  0  0  0  0  0  0
   20.8494   -6.2443  -15.4969 N   0  0  0  0  0  0  0  0  0  0  0  0
   19.6964   -5.5174  -16.0066 C   0  0  1  0  0  0  0  0  0  0  0  0
   18.5624   -6.4919  -16.0465 C   0  0  0  0  0  0  0  0  0  0  0  0
   17.2325   -5.9092  -16.3381 C   0  0  0  0  0  0  0  0  0  0  0  0
   16.1251   -6.8898  -16.3324 C   0  0  0  0  0  0  0  0  0  0  0  0
   14.8121   -6.1570  -16.6392 C   0  0  0  0  0  0  0  0  0  0  0  0
   13.6893   -7.0308  -16.4496 N   0  0  0  0  0  0  0  0  0  0  0  0
   19.5005   -4.2352  -15.3598 C   0  0  0  0  0  0  0  0  0  0  0  0
   19.7318   -4.0858  -14.1348 O   0  0  0  0  0  0  0  0  0  0  0  0
   19.0484   -3.0855  -16.0158 O   0  0  0  0  0  0  0  0  0  0  0  0
  2  9  1  0
  2  1  1  1
  3  2  1  0
  4  3  1  0
  5  4  2  0
  6  7  1  0
  6  5  1  0
  7  8  2  0
  8  4  1  0
  9 10  2  0
 12 11  1  6
 13 12  1  0
 13  9  1  0
 14 15  2  0
 14 12  1  0
 16 14  1  0
 17 16  1  0
 18 19  1  0
 17 18  1  1
 19 20  1  0
 20 21  1  0
 21 22  1  0
 23 17  1  0
 23 25  1  0
 24 23  2  0
M  END
$$$$
