HAK.pdb
     RDKit          3D

 25 25  0  0  1  0  0  0  0  0999 V2000
   20.2646   -8.1828  -16.6104 N   0  0  0  0  0  0  0  0  0  0  0  0
   20.1415   -8.0781  -15.1731 C   0  0  1  0  0  0  0  0  0  0  0  0
   21.4935   -7.6546  -14.6399 C   0  0  0  0  0  0  0  0  0  0  0  0
   22.3827   -8.8491  -14.7374 C   0  0  0  0  0  0  0  0  0  0  0  0
   23.3515   -9.0175  -15.6925 C   0  0  0  0  0  0  0  0  0  0  0  0
   23.9422  -10.2243  -15.4477 N   0  0  0  0  0  0  0  0  0  0  0  0
   23.3689  -10.7911  -14.3833 C   0  0  0  0  0  0  0  0  0  0  0  0
   22.4203   -9.9452  -13.9584 N   0  0  0  0  0  0  0  0  0  0  0  0
   19.0656   -7.1250  -14.7894 C   0  0  0  0  0  0  0  0  0  0  0  0
   18.8252   -6.0844  -15.4291 O   0  0  0  0  0  0  0  0  0  0  0  0
   15.9611   -7.2016  -14.0718 C   0  0  0  0  0  0  0  0  0  0  0  0
   17.1461   -6.6118  -13.3054 C   0  0  2  0  0  0  0  0  0  0  0  0
   18.2900   -7.4387  -13.6355 N   0  0  0  0  0  0  0  0  0  0  0  0
   16.9266   -6.7354  -11.8329 C   0  0  0  0  0  0  0  0  0  0  0  0
   17.6363   -7.5548  -11.2056 O   0  0  0  0  0  0  0  0  0  0  0  0
   15.9676   -5.9760  -11.1434 N   0  0  0  0  0  0  0  0  0  0  0  0
   15.8344   -6.1194   -9.7014 C   0  0  1  0  0  0  0  0  0  0  0  0
   14.9987   -4.9701   -9.2348 C   0  0  0  0  0  0  0  0  0  0  0  0
   14.5616   -5.0337   -7.8212 C   0  0  0  0  0  0  0  0  0  0  0  0
   13.6444   -3.9449   -7.4194 C   0  0  0  0  0  0  0  0  0  0  0  0
   13.1790   -4.1949   -5.9785 C   0  0  0  0  0  0  0  0  0  0  0  0
   12.3587   -3.1112   -5.5172 N   0  0  0  0  0  0  0  0  0  0  0  0
   15.4742   -7.4630   -9.2941 C   0  0  0  0  0  0  0  0  0  0  0  0
   15.8400   -7.9233   -8.1847 O   0  0  0  0  0  0  0  0  0  0  0  0
   14.7149   -8.3427  -10.0726 O   0  0  0  0  0  0  0  0  0  0  0  0
  2  9  1  0
  2  1  1  6
  3  2  1  0
  4  3  1  0
  5  4  2  0
  6  7  1  0
  6  5  1  0
  7  8  2  0
  8  4  1  0
  9 10  2  0
 12 11  1  6
 13 12  1  0
 13  9  1  0
 14 15  2  0
 14 12  1  0
 16 14  1  0
 17 16  1  0
 18 19  1  0
 17 18  1  6
 19 20  1  0
 20 21  1  0
 21 22  1  0
 23 17  1  0
 23 25  1  0
 24 23  2  0
M  END
$$$$
