HAK.pdb
     RDKit          3D

 25 25  0  0  1  0  0  0  0  0999 V2000
   24.9148  -20.2371   -9.5452 N   0  0  0  0  0  0  0  0  0  0  0  0
   24.0416  -20.7369  -10.5842 C   0  0  1  0  0  0  0  0  0  0  0  0
   22.6447  -20.2488  -10.2650 C   0  0  0  0  0  0  0  0  0  0  0  0
   22.2202  -20.9567   -9.0217 C   0  0  0  0  0  0  0  0  0  0  0  0
   23.0266  -21.7914   -8.2922 C   0  0  0  0  0  0  0  0  0  0  0  0
   22.2819  -22.2386   -7.2382 N   0  0  0  0  0  0  0  0  0  0  0  0
   21.0586  -21.7073   -7.3022 C   0  0  0  0  0  0  0  0  0  0  0  0
   21.0316  -20.9281   -8.3922 N   0  0  0  0  0  0  0  0  0  0  0  0
   24.4939  -20.2956  -11.9311 C   0  0  0  0  0  0  0  0  0  0  0  0
   24.4308  -19.1115  -12.3104 O   0  0  0  0  0  0  0  0  0  0  0  0
   26.2765  -22.0635  -14.6750 C   0  0  0  0  0  0  0  0  0  0  0  0
   25.4192  -20.9118  -14.1479 C   0  0  2  0  0  0  0  0  0  0  0  0
   25.0183  -21.2900  -12.8071 N   0  0  0  0  0  0  0  0  0  0  0  0
   24.1708  -20.7797  -14.9575 C   0  0  0  0  0  0  0  0  0  0  0  0
   23.2049  -21.5203  -14.6624 O   0  0  0  0  0  0  0  0  0  0  0  0
   24.0489  -19.8686  -16.0190 N   0  0  0  0  0  0  0  0  0  0  0  0
   22.7988  -19.7863  -16.7593 C   0  0  1  0  0  0  0  0  0  0  0  0
   22.7801  -18.4422  -17.4151 C   0  0  0  0  0  0  0  0  0  0  0  0
   21.6045  -18.1691  -18.2734 C   0  0  0  0  0  0  0  0  0  0  0  0
   20.9640  -16.8587  -18.0275 C   0  0  0  0  0  0  0  0  0  0  0  0
   19.7944  -16.6868  -19.0059 C   0  0  0  0  0  0  0  0  0  0  0  0
   19.1743  -15.4040  -18.8322 N   0  0  0  0  0  0  0  0  0  0  0  0
   22.5335  -20.9645  -17.5607 C   0  0  0  0  0  0  0  0  0  0  0  0
   23.4697  -21.6097  -18.0934 O   0  0  0  0  0  0  0  0  0  0  0  0
   21.2546  -21.4735  -17.8095 O   0  0  0  0  0  0  0  0  0  0  0  0
  2  9  1  0
  2  1  1  1
  3  2  1  0
  4  3  1  0
  5  4  2  0
  6  7  1  0
  6  5  1  0
  7  8  2  0
  8  4  1  0
  9 10  2  0
 12 11  1  6
 13 12  1  0
 13  9  1  0
 14 15  2  0
 14 12  1  0
 16 14  1  0
 17 16  1  0
 18 19  1  0
 17 18  1  6
 19 20  1  0
 20 21  1  0
 21 22  1  0
 23 17  1  0
 23 25  1  0
 24 23  2  0
M  END
$$$$
