HAK.pdb
     RDKit          3D

 25 25  0  0  1  0  0  0  0  0999 V2000
   28.9468  -18.9813  -16.9772 N   0  0  0  0  0  0  0  0  0  0  0  0
   28.3811  -17.7065  -17.3604 C   0  0  1  0  0  0  0  0  0  0  0  0
   28.0807  -17.7799  -18.8423 C   0  0  0  0  0  0  0  0  0  0  0  0
   29.3935  -17.9305  -19.5357 C   0  0  0  0  0  0  0  0  0  0  0  0
   29.7506  -19.0181  -20.2900 C   0  0  0  0  0  0  0  0  0  0  0  0
   31.0142  -18.7815  -20.7511 N   0  0  0  0  0  0  0  0  0  0  0  0
   31.4341  -17.5949  -20.3055 C   0  0  0  0  0  0  0  0  0  0  0  0
   30.4394  -17.0850  -19.5662 N   0  0  0  0  0  0  0  0  0  0  0  0
   27.1685  -17.3888  -16.5592 C   0  0  0  0  0  0  0  0  0  0  0  0
   26.4472  -18.2658  -16.0488 O   0  0  0  0  0  0  0  0  0  0  0  0
   25.8428  -14.1488  -15.2864 C   0  0  0  0  0  0  0  0  0  0  0  0
   25.7317  -15.6566  -15.5173 C   0  0  2  0  0  0  0  0  0  0  0  0
   26.8389  -16.0135  -16.3824 N   0  0  0  0  0  0  0  0  0  0  0  0
   24.4753  -15.9781  -16.2586 C   0  0  0  0  0  0  0  0  0  0  0  0
   24.4814  -15.8361  -17.5030 O   0  0  0  0  0  0  0  0  0  0  0  0
   23.3099  -16.4261  -15.6161 N   0  0  0  0  0  0  0  0  0  0  0  0
   22.1067  -16.6759  -16.3956 C   0  0  1  0  0  0  0  0  0  0  0  0
   21.4443  -17.8699  -15.7851 C   0  0  0  0  0  0  0  0  0  0  0  0
   20.1713  -18.2845  -16.4183 C   0  0  0  0  0  0  0  0  0  0  0  0
   19.6365  -19.5711  -15.9216 C   0  0  0  0  0  0  0  0  0  0  0  0
   18.4110  -19.9561  -16.7612 C   0  0  0  0  0  0  0  0  0  0  0  0
   17.7854  -21.1343  -16.2317 N   0  0  0  0  0  0  0  0  0  0  0  0
   21.3231  -15.4797  -16.6317 C   0  0  0  0  0  0  0  0  0  0  0  0
   20.4271  -15.4555  -17.5109 O   0  0  0  0  0  0  0  0  0  0  0  0
   21.4879  -14.2815  -15.9292 O   0  0  0  0  0  0  0  0  0  0  0  0
  2  9  1  0
  2  1  1  1
  3  2  1  0
  4  3  1  0
  5  4  2  0
  6  7  1  0
  6  5  1  0
  7  8  2  0
  8  4  1  0
  9 10  2  0
 12 11  1  6
 13 12  1  0
 13  9  1  0
 14 15  2  0
 14 12  1  0
 16 14  1  0
 17 16  1  0
 18 19  1  0
 17 18  1  1
 19 20  1  0
 20 21  1  0
 21 22  1  0
 23 17  1  0
 23 25  1  0
 24 23  2  0
M  END
$$$$
