HAK.pdb
     RDKit          3D

 25 25  0  0  1  0  0  0  0  0999 V2000
   27.5051  -15.7018  -17.2126 N   0  0  0  0  0  0  0  0  0  0  0  0
   27.5107  -14.5170  -18.0423 C   0  0  1  0  0  0  0  0  0  0  0  0
   26.3907  -14.6728  -19.0487 C   0  0  0  0  0  0  0  0  0  0  0  0
   26.7378  -15.8540  -19.8923 C   0  0  0  0  0  0  0  0  0  0  0  0
   27.9789  -16.4340  -19.9394 C   0  0  0  0  0  0  0  0  0  0  0  0
   27.8948  -17.4765  -20.8178 N   0  0  0  0  0  0  0  0  0  0  0  0
   26.6528  -17.5490  -21.3026 C   0  0  0  0  0  0  0  0  0  0  0  0
   25.9563  -16.5562  -20.7324 N   0  0  0  0  0  0  0  0  0  0  0  0
   27.3607  -13.2827  -17.2256 C   0  0  0  0  0  0  0  0  0  0  0  0
   26.4832  -13.1531  -16.3520 O   0  0  0  0  0  0  0  0  0  0  0  0
   29.5739  -10.3509  -16.7653 C   0  0  0  0  0  0  0  0  0  0  0  0
   28.2038  -11.0216  -16.6539 C   0  0  2  0  0  0  0  0  0  0  0  0
   28.2731  -12.2160  -17.4724 N   0  0  0  0  0  0  0  0  0  0  0  0
   27.1468  -10.1466  -17.2443 C   0  0  0  0  0  0  0  0  0  0  0  0
   27.0031  -10.1665  -18.4883 O   0  0  0  0  0  0  0  0  0  0  0  0
   26.3251   -9.3183  -16.4630 N   0  0  0  0  0  0  0  0  0  0  0  0
   25.3025   -8.5051  -17.1038 C   0  0  1  0  0  0  0  0  0  0  0  0
   24.3332   -8.1181  -16.0324 C   0  0  0  0  0  0  0  0  0  0  0  0
   23.2125   -7.2544  -16.4698 C   0  0  0  0  0  0  0  0  0  0  0  0
   22.2691   -6.8902  -15.3904 C   0  0  0  0  0  0  0  0  0  0  0  0
   21.0999   -6.1035  -15.9981 C   0  0  0  0  0  0  0  0  0  0  0  0
   20.2104   -5.6447  -14.9693 N   0  0  0  0  0  0  0  0  0  0  0  0
   25.8506   -7.4747  -17.9632 C   0  0  0  0  0  0  0  0  0  0  0  0
   25.2993   -7.1782  -19.0516 O   0  0  0  0  0  0  0  0  0  0  0  0
   27.0061   -6.7421  -17.6724 O   0  0  0  0  0  0  0  0  0  0  0  0
  2  9  1  0
  2  1  1  1
  3  2  1  0
  4  3  1  0
  5  4  2  0
  6  7  1  0
  6  5  1  0
  7  8  2  0
  8  4  1  0
  9 10  2  0
 12 11  1  6
 13 12  1  0
 13  9  1  0
 14 15  2  0
 14 12  1  0
 16 14  1  0
 17 16  1  0
 18 19  1  0
 17 18  1  1
 19 20  1  0
 20 21  1  0
 21 22  1  0
 23 17  1  0
 23 25  1  0
 24 23  2  0
M  END
$$$$
