HAK.pdb
     RDKit          3D

 25 25  0  0  1  0  0  0  0  0999 V2000
   18.2913  -14.5878  -18.9486 N   0  0  0  0  0  0  0  0  0  0  0  0
   19.3381  -13.8656  -18.2595 C   0  0  1  0  0  0  0  0  0  0  0  0
   20.6453  -14.2263  -18.9323 C   0  0  0  0  0  0  0  0  0  0  0  0
   20.8646  -15.6814  -18.6838 C   0  0  0  0  0  0  0  0  0  0  0  0
   20.7702  -16.6541  -19.6452 C   0  0  0  0  0  0  0  0  0  0  0  0
   21.0374  -17.8442  -19.0308 N   0  0  0  0  0  0  0  0  0  0  0  0
   21.2893  -17.6290  -17.7373 C   0  0  0  0  0  0  0  0  0  0  0  0
   21.1814  -16.3084  -17.5366 N   0  0  0  0  0  0  0  0  0  0  0  0
   19.0865  -12.3995  -18.2763 C   0  0  0  0  0  0  0  0  0  0  0  0
   18.8153  -11.7725  -19.3171 O   0  0  0  0  0  0  0  0  0  0  0  0
   17.5402  -10.1362  -16.2790 C   0  0  0  0  0  0  0  0  0  0  0  0
   18.8812  -10.2834  -16.9995 C   0  0  2  0  0  0  0  0  0  0  0  0
   19.1650  -11.7046  -17.0345 N   0  0  0  0  0  0  0  0  0  0  0  0
   19.9710   -9.6385  -16.2071 C   0  0  0  0  0  0  0  0  0  0  0  0
   20.5300  -10.3244  -15.3208 O   0  0  0  0  0  0  0  0  0  0  0  0
   20.3804   -8.3124  -16.4208 N   0  0  0  0  0  0  0  0  0  0  0  0
   21.4452   -7.7458  -15.6067 C   0  0  1  0  0  0  0  0  0  0  0  0
   22.1981   -6.8008  -16.4883 C   0  0  0  0  0  0  0  0  0  0  0  0
   22.9179   -7.4250  -17.6222 C   0  0  0  0  0  0  0  0  0  0  0  0
   23.5557   -6.4586  -18.5428 C   0  0  0  0  0  0  0  0  0  0  0  0
   24.1230   -7.2214  -19.7475 C   0  0  0  0  0  0  0  0  0  0  0  0
   24.5601   -6.3074  -20.7642 N   0  0  0  0  0  0  0  0  0  0  0  0
   20.9874   -7.2863  -14.3106 C   0  0  0  0  0  0  0  0  0  0  0  0
   19.8296   -6.8249  -14.1589 O   0  0  0  0  0  0  0  0  0  0  0  0
   21.7662   -7.3101  -13.1489 O   0  0  0  0  0  0  0  0  0  0  0  0
  2  9  1  0
  2  1  1  6
  3  2  1  0
  4  3  1  0
  5  4  2  0
  6  7  1  0
  6  5  1  0
  7  8  2  0
  8  4  1  0
  9 10  2  0
 12 11  1  1
 13 12  1  0
 13  9  1  0
 14 15  2  0
 14 12  1  0
 16 14  1  0
 17 16  1  0
 18 19  1  0
 17 18  1  6
 19 20  1  0
 20 21  1  0
 21 22  1  0
 23 17  1  0
 23 25  1  0
 24 23  2  0
M  END
$$$$
