HAK.pdb
     RDKit          3D

 25 25  0  0  1  0  0  0  0  0999 V2000
   19.5132  -14.6370  -16.1282 N   0  0  0  0  0  0  0  0  0  0  0  0
   19.5649  -13.3632  -16.8113 C   0  0  1  0  0  0  0  0  0  0  0  0
   18.1608  -13.0547  -17.2855 C   0  0  0  0  0  0  0  0  0  0  0  0
   17.8160  -14.0943  -18.2992 C   0  0  0  0  0  0  0  0  0  0  0  0
   18.2604  -14.0889  -19.5960 C   0  0  0  0  0  0  0  0  0  0  0  0
   17.7323  -15.1944  -20.1994 N   0  0  0  0  0  0  0  0  0  0  0  0
   16.9869  -15.8669  -19.3189 C   0  0  0  0  0  0  0  0  0  0  0  0
   17.0447  -15.1882  -18.1648 N   0  0  0  0  0  0  0  0  0  0  0  0
   20.1035  -12.2953  -15.9266 C   0  0  0  0  0  0  0  0  0  0  0  0
   19.4621  -11.8236  -14.9696 O   0  0  0  0  0  0  0  0  0  0  0  0
   23.4960  -10.9022  -15.4914 C   0  0  0  0  0  0  0  0  0  0  0  0
   21.9774  -10.7708  -15.3653 C   0  0  2  0  0  0  0  0  0  0  0  0
   21.4129  -11.8072  -16.2072 N   0  0  0  0  0  0  0  0  0  0  0  0
   21.5210   -9.4603  -15.9183 C   0  0  0  0  0  0  0  0  0  0  0  0
   21.3993   -9.3639  -17.1611 O   0  0  0  0  0  0  0  0  0  0  0  0
   21.2297   -8.3543  -15.1037 N   0  0  0  0  0  0  0  0  0  0  0  0
   20.7955   -7.1052  -15.7111 C   0  0  1  0  0  0  0  0  0  0  0  0
   19.3180   -7.0182  -15.4956 C   0  0  0  0  0  0  0  0  0  0  0  0
   18.6820   -5.7593  -15.9475 C   0  0  0  0  0  0  0  0  0  0  0  0
   17.2486   -5.6444  -15.6012 C   0  0  0  0  0  0  0  0  0  0  0  0
   16.6839   -4.3700  -16.2430 C   0  0  0  0  0  0  0  0  0  0  0  0
   15.2750   -4.2593  -15.9922 N   0  0  0  0  0  0  0  0  0  0  0  0
   21.6279   -5.9759  -15.3471 C   0  0  0  0  0  0  0  0  0  0  0  0
   22.1855   -5.9178  -14.2236 O   0  0  0  0  0  0  0  0  0  0  0  0
   21.8768   -4.8821  -16.1826 O   0  0  0  0  0  0  0  0  0  0  0  0
  2  9  1  0
  2  1  1  1
  3  2  1  0
  4  3  1  0
  5  4  2  0
  6  7  1  0
  6  5  1  0
  7  8  2  0
  8  4  1  0
  9 10  2  0
 12 11  1  6
 13 12  1  0
 13  9  1  0
 14 15  2  0
 14 12  1  0
 16 14  1  0
 17 16  1  0
 18 19  1  0
 17 18  1  1
 19 20  1  0
 20 21  1  0
 21 22  1  0
 23 17  1  0
 23 25  1  0
 24 23  2  0
M  END
$$$$
