HAK.pdb
     RDKit          3D

 25 25  0  0  1  0  0  0  0  0999 V2000
   14.1234   -8.7221  -11.6071 N   0  0  0  0  0  0  0  0  0  0  0  0
   15.0993   -8.4247  -10.5819 C   0  0  1  0  0  0  0  0  0  0  0  0
   15.8862   -9.6940  -10.3344 C   0  0  0  0  0  0  0  0  0  0  0  0
   14.9152  -10.7030   -9.8184 C   0  0  0  0  0  0  0  0  0  0  0  0
   14.2249  -10.5816   -8.6402 C   0  0  0  0  0  0  0  0  0  0  0  0
   13.4457  -11.6970   -8.5220 N   0  0  0  0  0  0  0  0  0  0  0  0
   13.6379  -12.4867   -9.5814 C   0  0  0  0  0  0  0  0  0  0  0  0
   14.5347  -11.8719  -10.3648 N   0  0  0  0  0  0  0  0  0  0  0  0
   15.9769   -7.2918  -10.9812 C   0  0  0  0  0  0  0  0  0  0  0  0
   16.3595   -7.1140  -12.1525 O   0  0  0  0  0  0  0  0  0  0  0  0
   17.3245   -4.3980   -9.0430 C   0  0  0  0  0  0  0  0  0  0  0  0
   17.1882   -5.2319  -10.3179 C   0  0  2  0  0  0  0  0  0  0  0  0
   16.3839   -6.3839   -9.9607 N   0  0  0  0  0  0  0  0  0  0  0  0
   18.5231   -5.7461  -10.7482 C   0  0  0  0  0  0  0  0  0  0  0  0
   19.0587   -6.6338  -10.0457 O   0  0  0  0  0  0  0  0  0  0  0  0
   19.1835   -5.2741  -11.8940 N   0  0  0  0  0  0  0  0  0  0  0  0
   20.4364   -5.8870  -12.3087 C   0  0  1  0  0  0  0  0  0  0  0  0
   20.0857   -6.9278  -13.3239 C   0  0  0  0  0  0  0  0  0  0  0  0
   21.2353   -7.6339  -13.9348 C   0  0  0  0  0  0  0  0  0  0  0  0
   20.8596   -8.6399  -14.9520 C   0  0  0  0  0  0  0  0  0  0  0  0
   22.1269   -9.3647  -15.4246 C   0  0  0  0  0  0  0  0  0  0  0  0
   21.8036  -10.3596  -16.4073 N   0  0  0  0  0  0  0  0  0  0  0  0
   21.4680   -4.9180  -12.6211 C   0  0  0  0  0  0  0  0  0  0  0  0
   22.6824   -5.2361  -12.6027 O   0  0  0  0  0  0  0  0  0  0  0  0
   21.2162   -3.5838  -12.9575 O   0  0  0  0  0  0  0  0  0  0  0  0
  2  9  1  0
  2  1  1  6
  3  2  1  0
  4  3  1  0
  5  4  2  0
  6  7  1  0
  6  5  1  0
  7  8  2  0
  8  4  1  0
  9 10  2  0
 12 11  1  1
 13 12  1  0
 13  9  1  0
 14 15  2  0
 14 12  1  0
 16 14  1  0
 17 16  1  0
 18 19  1  0
 17 18  1  6
 19 20  1  0
 20 21  1  0
 21 22  1  0
 23 17  1  0
 23 25  1  0
 24 23  2  0
M  END
$$$$
