ILI.pdb
     RDKit          3D

 25 24  0  0  1  0  0  0  0  0999 V2000
   21.0411  -20.2513  -14.9698 C   0  0  0  0  0  0  0  0  0  0  0  0
   22.4025  -20.7786  -15.3314 C   0  0  0  0  0  0  0  0  0  0  0  0
   23.2324  -20.9406  -14.1015 C   0  0  2  0  0  0  0  0  0  0  0  0
   23.2814  -19.6301  -13.3025 C   0  0  0  0  0  0  0  0  0  0  0  0
   24.6529  -21.3991  -14.3586 C   0  0  2  0  0  0  0  0  0  0  0  0
   24.5501  -22.7571  -14.9611 N   0  0  0  0  0  0  0  0  0  0  0  0
   25.4714  -21.5531  -13.1406 C   0  0  0  0  0  0  0  0  0  0  0  0
   25.1794  -22.5009  -12.3178 O   0  0  0  0  0  0  0  0  0  0  0  0
   29.8843  -22.7980  -11.7065 C   0  0  0  0  0  0  0  0  0  0  0  0
   29.6052  -21.5033  -12.5026 C   0  0  2  0  0  0  0  0  0  0  0  0
   30.9534  -20.9390  -12.8290 C   0  0  0  0  0  0  0  0  0  0  0  0
   28.7077  -20.6034  -11.7429 C   0  0  0  0  0  0  0  0  0  0  0  0
   27.3156  -21.0590  -11.4946 C   0  0  2  0  0  0  0  0  0  0  0  0
   26.5689  -20.7756  -12.7468 N   0  0  0  0  0  0  0  0  0  0  0  0
   26.5911  -20.4398  -10.3963 C   0  0  0  0  0  0  0  0  0  0  0  0
   26.0039  -19.3255  -10.6381 O   0  0  0  0  0  0  0  0  0  0  0  0
   22.3832  -21.6636   -7.6225 C   0  0  0  0  0  0  0  0  0  0  0  0
   23.5191  -20.9070   -8.2684 C   0  0  0  0  0  0  0  0  0  0  0  0
   24.7156  -20.7525   -7.3683 C   0  0  2  0  0  0  0  0  0  0  0  0
   24.3236  -20.1416   -6.0670 C   0  0  0  0  0  0  0  0  0  0  0  0
   25.8995  -20.0985   -8.0277 C   0  0  2  0  0  0  0  0  0  0  0  0
   26.4473  -20.9127   -9.0855 N   0  0  0  0  0  0  0  0  0  0  0  0
   26.9377  -19.6160   -7.0887 C   0  0  0  0  0  0  0  0  0  0  0  0
   28.1394  -20.3218   -6.8760 O   0  0  0  0  0  0  0  0  0  0  0  0
   26.8509  -18.5637   -6.4119 O   0  0  0  0  0  0  0  0  0  0  0  0
  2  1  1  0
  3  2  1  0
  3  4  1  6
  5  7  1  0
  5  3  1  0
  5  6  1  1
  7  8  2  0
 10  9  1  1
 11 10  1  0
 12 10  1  0
 13 12  1  6
 14 13  1  0
 14  7  1  0
 15 13  1  0
 15 16  2  0
 17 18  1  0
 18 19  1  0
 19 21  1  0
 19 20  1  1
 21 22  1  6
 21 23  1  0
 22 15  1  0
 23 24  1  0
 25 23  2  0
M  END
$$$$
