ILI.pdb
     RDKit          3D

 25 24  0  0  1  0  0  0  0  0999 V2000
   13.2666  -10.3359  -16.0260 C   0  0  0  0  0  0  0  0  0  0  0  0
   14.7637  -10.2018  -16.0799 C   0  0  0  0  0  0  0  0  0  0  0  0
   15.2760   -9.6558  -14.7887 C   0  0  2  0  0  0  0  0  0  0  0  0
   14.6675   -8.2752  -14.5029 C   0  0  0  0  0  0  0  0  0  0  0  0
   16.7842   -9.5411  -14.7100 C   0  0  2  0  0  0  0  0  0  0  0  0
   17.3107  -10.9337  -14.7413 N   0  0  0  0  0  0  0  0  0  0  0  0
   17.2834   -8.9434  -13.4566 C   0  0  0  0  0  0  0  0  0  0  0  0
   17.1824   -9.6235  -12.3667 O   0  0  0  0  0  0  0  0  0  0  0  0
   21.1592   -8.0310  -11.3400 C   0  0  0  0  0  0  0  0  0  0  0  0
   20.7159   -7.1050  -12.4950 C   0  0  2  0  0  0  0  0  0  0  0  0
   21.9052   -6.2456  -12.7941 C   0  0  0  0  0  0  0  0  0  0  0  0
   19.4791   -6.3742  -12.1363 C   0  0  0  0  0  0  0  0  0  0  0  0
   18.2360   -7.1649  -11.9453 C   0  0  2  0  0  0  0  0  0  0  0  0
   17.8784   -7.6855  -13.2895 N   0  0  0  0  0  0  0  0  0  0  0  0
   17.0731   -6.4720  -11.4141 C   0  0  0  0  0  0  0  0  0  0  0  0
   16.3740   -5.7847  -12.2411 O   0  0  0  0  0  0  0  0  0  0  0  0
   13.3151   -8.4796   -8.2216 C   0  0  0  0  0  0  0  0  0  0  0  0
   14.1472   -7.7192   -9.2262 C   0  0  0  0  0  0  0  0  0  0  0  0
   14.5794   -6.3643   -8.7332 C   0  0  2  0  0  0  0  0  0  0  0  0
   13.4048   -5.5653   -8.2834 C   0  0  0  0  0  0  0  0  0  0  0  0
   15.5016   -5.6348   -9.6721 C   0  0  2  0  0  0  0  0  0  0  0  0
   16.6081   -6.4598  -10.0927 N   0  0  0  0  0  0  0  0  0  0  0  0
   15.9375   -4.3028   -9.1948 C   0  0  0  0  0  0  0  0  0  0  0  0
   15.2168   -3.1288   -9.4942 O   0  0  0  0  0  0  0  0  0  0  0  0
   16.9600   -4.0963   -8.4985 O   0  0  0  0  0  0  0  0  0  0  0  0
  2  1  1  0
  3  2  1  0
  3  4  1  6
  5  7  1  0
  5  3  1  0
  5  6  1  1
  7  8  2  0
 10  9  1  1
 11 10  1  0
 12 10  1  0
 13 12  1  6
 14 13  1  0
 14  7  1  0
 15 13  1  0
 15 16  2  0
 17 18  1  0
 18 19  1  0
 19 21  1  0
 19 20  1  6
 21 22  1  1
 21 23  1  0
 22 15  1  0
 23 24  1  0
 25 23  2  0
M  END
$$$$
