ILI.pdb
     RDKit          3D

 25 24  0  0  1  0  0  0  0  0999 V2000
   20.1473  -20.0985  -12.2782 C   0  0  0  0  0  0  0  0  0  0  0  0
   21.4902  -20.2001  -12.9477 C   0  0  0  0  0  0  0  0  0  0  0  0
   22.4978  -20.7505  -11.9940 C   0  0  2  0  0  0  0  0  0  0  0  0
   22.5208  -19.9316  -10.6951 C   0  0  0  0  0  0  0  0  0  0  0  0
   23.9081  -20.8206  -12.5420 C   0  0  2  0  0  0  0  0  0  0  0  0
   23.8915  -21.8645  -13.6040 N   0  0  0  0  0  0  0  0  0  0  0  0
   24.9207  -21.2529  -11.5597 C   0  0  0  0  0  0  0  0  0  0  0  0
   24.9180  -22.4818  -11.1721 O   0  0  0  0  0  0  0  0  0  0  0  0
   30.7084  -21.1619  -11.1511 C   0  0  0  0  0  0  0  0  0  0  0  0
   29.4801  -21.4931  -10.2739 C   0  0  2  0  0  0  0  0  0  0  0  0
   29.5355  -22.9735  -10.0552 C   0  0  0  0  0  0  0  0  0  0  0  0
   28.2366  -20.9905  -10.9012 C   0  0  0  0  0  0  0  0  0  0  0  0
   26.9789  -21.0754  -10.1150 C   0  0  2  0  0  0  0  0  0  0  0  0
   25.9260  -20.4730  -10.9718 N   0  0  0  0  0  0  0  0  0  0  0  0
   26.9436  -20.4000   -8.8278 C   0  0  0  0  0  0  0  0  0  0  0  0
   26.4265  -19.2266   -8.7974 O   0  0  0  0  0  0  0  0  0  0  0  0
   28.4038  -20.5900   -2.7595 C   0  0  0  0  0  0  0  0  0  0  0  0
   27.5392  -20.0846   -3.8893 C   0  0  0  0  0  0  0  0  0  0  0  0
   27.7355  -20.8468   -5.1723 C   0  0  2  0  0  0  0  0  0  0  0  0
   29.0588  -21.5316   -5.1839 C   0  0  0  0  0  0  0  0  0  0  0  0
   27.4412  -20.0471   -6.4126 C   0  0  2  0  0  0  0  0  0  0  0  0
   27.4075  -20.8747   -7.5940 N   0  0  0  0  0  0  0  0  0  0  0  0
   28.2900  -18.8464   -6.5861 C   0  0  0  0  0  0  0  0  0  0  0  0
   27.9979  -17.6255   -5.9447 O   0  0  0  0  0  0  0  0  0  0  0  0
   29.3206  -18.8009   -7.2995 O   0  0  0  0  0  0  0  0  0  0  0  0
  2  1  1  0
  3  2  1  0
  3  4  1  1
  5  7  1  0
  5  3  1  0
  5  6  1  6
  7  8  2  0
 10  9  1  6
 11 10  1  0
 12 10  1  0
 13 12  1  6
 14 13  1  0
 14  7  1  0
 15 13  1  0
 15 16  2  0
 17 18  1  0
 18 19  1  0
 19 21  1  0
 19 20  1  6
 21 22  1  6
 21 23  1  0
 22 15  1  0
 23 24  1  0
 25 23  2  0
M  END
$$$$
