ILI.pdb
     RDKit          3D

 25 24  0  0  1  0  0  0  0  0999 V2000
   20.3437  -19.8016  -13.6963 C   0  0  0  0  0  0  0  0  0  0  0  0
   21.6675  -20.1825  -14.3002 C   0  0  0  0  0  0  0  0  0  0  0  0
   22.5995  -20.6557  -13.2349 C   0  0  2  0  0  0  0  0  0  0  0  0
   22.7989  -19.5710  -12.1662 C   0  0  0  0  0  0  0  0  0  0  0  0
   23.9606  -21.0889  -13.7386 C   0  0  2  0  0  0  0  0  0  0  0  0
   23.7346  -22.3211  -14.5437 N   0  0  0  0  0  0  0  0  0  0  0  0
   24.9110  -21.4645  -12.6742 C   0  0  0  0  0  0  0  0  0  0  0  0
   24.7764  -22.6128  -12.1052 O   0  0  0  0  0  0  0  0  0  0  0  0
   29.5967  -21.3740   -9.7035 C   0  0  0  0  0  0  0  0  0  0  0  0
   29.4070  -21.8560  -11.1593 C   0  0  2  0  0  0  0  0  0  0  0  0
   30.7417  -21.6771  -11.8144 C   0  0  0  0  0  0  0  0  0  0  0  0
   28.2822  -21.1424  -11.8059 C   0  0  0  0  0  0  0  0  0  0  0  0
   26.9367  -21.2622  -11.1876 C   0  0  2  0  0  0  0  0  0  0  0  0
   25.9842  -20.7084  -12.1834 N   0  0  0  0  0  0  0  0  0  0  0  0
   26.7119  -20.5724   -9.9273 C   0  0  0  0  0  0  0  0  0  0  0  0
   26.4202  -19.3249   -9.9878 O   0  0  0  0  0  0  0  0  0  0  0  0
   23.3204  -21.8773   -6.0533 C   0  0  0  0  0  0  0  0  0  0  0  0
   24.2370  -21.1811   -7.0303 C   0  0  0  0  0  0  0  0  0  0  0  0
   25.6196  -20.9482   -6.4828 C   0  0  2  0  0  0  0  0  0  0  0  0
   25.5564  -20.2836   -5.1507 C   0  0  0  0  0  0  0  0  0  0  0  0
   26.5635  -20.2955   -7.4562 C   0  0  2  0  0  0  0  0  0  0  0  0
   26.7715  -21.1045   -8.6327 N   0  0  0  0  0  0  0  0  0  0  0  0
   27.8347  -19.8261   -6.8596 C   0  0  0  0  0  0  0  0  0  0  0  0
   27.9663  -18.5403   -6.2966 O   0  0  0  0  0  0  0  0  0  0  0  0
   28.8863  -20.5069   -6.7993 O   0  0  0  0  0  0  0  0  0  0  0  0
  2  1  1  0
  3  2  1  0
  3  4  1  1
  5  7  1  0
  5  3  1  0
  5  6  1  6
  7  8  2  0
 10  9  1  1
 11 10  1  0
 12 10  1  0
 13 12  1  6
 14 13  1  0
 14  7  1  0
 15 13  1  0
 15 16  2  0
 17 18  1  0
 18 19  1  0
 19 21  1  0
 19 20  1  1
 21 22  1  6
 21 23  1  0
 22 15  1  0
 23 24  1  0
 25 23  2  0
M  END
$$$$
