ILI.pdb
     RDKit          3D

 25 24  0  0  1  0  0  0  0  0999 V2000
   20.2602  -39.7901   -5.7749 C   0  0  0  0  0  0  0  0  0  0  0  0
   20.5869  -38.7524   -6.8134 C   0  0  0  0  0  0  0  0  0  0  0  0
   21.8682  -38.0686   -6.4691 C   0  0  2  0  0  0  0  0  0  0  0  0
   21.7618  -37.3695   -5.1059 C   0  0  0  0  0  0  0  0  0  0  0  0
   22.3335  -37.0545   -7.4933 C   0  0  2  0  0  0  0  0  0  0  0  0
   22.6680  -37.8262   -8.7222 N   0  0  0  0  0  0  0  0  0  0  0  0
   23.5635  -36.3315   -7.1171 C   0  0  0  0  0  0  0  0  0  0  0  0
   24.6968  -36.9286   -7.2583 O   0  0  0  0  0  0  0  0  0  0  0  0
   26.6763  -33.2374   -8.6590 C   0  0  0  0  0  0  0  0  0  0  0  0
   25.2010  -32.9053   -8.3413 C   0  0  2  0  0  0  0  0  0  0  0  0
   24.9711  -31.5374   -8.9057 C   0  0  0  0  0  0  0  0  0  0  0  0
   24.9316  -33.0472   -6.8922 C   0  0  0  0  0  0  0  0  0  0  0  0
   24.9822  -34.4118   -6.3069 C   0  0  2  0  0  0  0  0  0  0  0  0
   23.6658  -35.0294   -6.6089 N   0  0  0  0  0  0  0  0  0  0  0  0
   25.2053  -34.5211   -4.8742 C   0  0  0  0  0  0  0  0  0  0  0  0
   24.2215  -34.2277   -4.1054 O   0  0  0  0  0  0  0  0  0  0  0  0
   27.5249  -37.9933   -0.5045 C   0  0  0  0  0  0  0  0  0  0  0  0
   27.1401  -36.5846   -0.8884 C   0  0  0  0  0  0  0  0  0  0  0  0
   27.0505  -36.3796   -2.3768 C   0  0  2  0  0  0  0  0  0  0  0  0
   28.3561  -36.6750   -3.0314 C   0  0  0  0  0  0  0  0  0  0  0  0
   26.4394  -35.0648   -2.7797 C   0  0  2  0  0  0  0  0  0  0  0  0
   26.3762  -34.9148   -4.2134 N   0  0  0  0  0  0  0  0  0  0  0  0
   27.0289  -33.8821   -2.1118 C   0  0  0  0  0  0  0  0  0  0  0  0
   27.6478  -32.8446   -2.8383 O   0  0  0  0  0  0  0  0  0  0  0  0
   27.0343  -33.6947   -0.8717 O   0  0  0  0  0  0  0  0  0  0  0  0
  2  1  1  0
  3  2  1  0
  3  4  1  1
  5  7  1  0
  5  3  1  0
  5  6  1  6
  7  8  2  0
 10  9  1  1
 11 10  1  0
 12 10  1  0
 13 12  1  1
 14 13  1  0
 14  7  1  0
 15 13  1  0
 15 16  2  0
 17 18  1  0
 18 19  1  0
 19 21  1  0
 19 20  1  1
 21 22  1  6
 21 23  1  0
 22 15  1  0
 23 24  1  0
 25 23  2  0
M  END
$$$$
