ILI.pdb
     RDKit          3D

 25 24  0  0  1  0  0  0  0  0999 V2000
   27.6376  -18.0609  -17.0510 C   0  0  0  0  0  0  0  0  0  0  0  0
   28.2366  -18.8016  -15.8871 C   0  0  0  0  0  0  0  0  0  0  0  0
   27.1549  -19.3640  -15.0262 C   0  0  2  0  0  0  0  0  0  0  0  0
   26.2037  -18.2546  -14.5544 C   0  0  0  0  0  0  0  0  0  0  0  0
   27.6493  -20.1210  -13.8111 C   0  0  2  0  0  0  0  0  0  0  0  0
   28.3719  -21.3155  -14.3293 N   0  0  0  0  0  0  0  0  0  0  0  0
   26.5768  -20.6382  -12.9397 C   0  0  0  0  0  0  0  0  0  0  0  0
   25.9802  -21.7291  -13.2782 O   0  0  0  0  0  0  0  0  0  0  0  0
   26.4207  -21.9004   -8.4861 C   0  0  0  0  0  0  0  0  0  0  0  0
   26.3030  -20.3954   -8.8162 C   0  0  2  0  0  0  0  0  0  0  0  0
   26.3800  -19.6919   -7.4965 C   0  0  0  0  0  0  0  0  0  0  0  0
   25.0815  -20.1261   -9.6085 C   0  0  0  0  0  0  0  0  0  0  0  0
   24.9988  -20.7032  -10.9749 C   0  0  2  0  0  0  0  0  0  0  0  0
   26.1050  -20.0788  -11.7444 N   0  0  0  0  0  0  0  0  0  0  0  0
   23.7674  -20.4947  -11.7197 C   0  0  0  0  0  0  0  0  0  0  0  0
   23.5224  -19.3016  -12.1217 O   0  0  0  0  0  0  0  0  0  0  0  0
   22.7110  -21.9639  -16.3564 C   0  0  0  0  0  0  0  0  0  0  0  0
   22.7070  -21.2747  -15.0131 C   0  0  0  0  0  0  0  0  0  0  0  0
   21.5415  -21.6712  -14.1471 C   0  0  2  0  0  0  0  0  0  0  0  0
   20.2526  -21.4541  -14.8625 C   0  0  0  0  0  0  0  0  0  0  0  0
   21.5838  -21.0933  -12.7584 C   0  0  2  0  0  0  0  0  0  0  0  0
   22.7978  -21.4459  -12.0629 N   0  0  0  0  0  0  0  0  0  0  0  0
   20.3716  -21.3504  -11.9480 C   0  0  0  0  0  0  0  0  0  0  0  0
   20.3370  -22.3452  -10.9496 O   0  0  0  0  0  0  0  0  0  0  0  0
   19.2903  -20.7264  -12.0679 O   0  0  0  0  0  0  0  0  0  0  0  0
  2  1  1  0
  3  2  1  0
  3  4  1  1
  5  7  1  0
  5  3  1  0
  5  6  1  6
  7  8  2  0
 10  9  1  1
 11 10  1  0
 12 10  1  0
 13 12  1  1
 14 13  1  0
 14  7  1  0
 15 13  1  0
 15 16  2  0
 17 18  1  0
 18 19  1  0
 19 21  1  0
 19 20  1  6
 21 22  1  1
 21 23  1  0
 22 15  1  0
 23 24  1  0
 25 23  2  0
M  END
$$$$
