ILI.pdb
     RDKit          3D

 25 24  0  0  1  0  0  0  0  0999 V2000
   22.8184  -21.3732  -13.1214 C   0  0  0  0  0  0  0  0  0  0  0  0
   24.0709  -20.5877  -12.8451 C   0  0  0  0  0  0  0  0  0  0  0  0
   24.5523  -20.8618  -11.4592 C   0  0  2  0  0  0  0  0  0  0  0  0
   23.4534  -20.5544  -10.4314 C   0  0  0  0  0  0  0  0  0  0  0  0
   25.8022  -20.1015  -11.0670 C   0  0  2  0  0  0  0  0  0  0  0  0
   26.8342  -20.4419  -12.0852 N   0  0  0  0  0  0  0  0  0  0  0  0
   26.3690  -20.4957   -9.7629 C   0  0  0  0  0  0  0  0  0  0  0  0
   25.8961  -21.5411   -9.1763 O   0  0  0  0  0  0  0  0  0  0  0  0
   30.8470  -18.7493   -5.8818 C   0  0  0  0  0  0  0  0  0  0  0  0
   29.6775  -19.7410   -6.0730 C   0  0  2  0  0  0  0  0  0  0  0  0
   30.2326  -21.0844   -5.7129 C   0  0  0  0  0  0  0  0  0  0  0  0
   29.1151  -19.6321   -7.4384 C   0  0  0  0  0  0  0  0  0  0  0  0
   27.8510  -20.3566   -7.7285 C   0  0  2  0  0  0  0  0  0  0  0  0
   27.3956  -19.8596   -9.0519 N   0  0  0  0  0  0  0  0  0  0  0  0
   26.7516  -20.1928   -6.7909 C   0  0  0  0  0  0  0  0  0  0  0  0
   26.0134  -19.1535   -6.9315 O   0  0  0  0  0  0  0  0  0  0  0  0
   22.3864  -22.6202   -6.2332 C   0  0  0  0  0  0  0  0  0  0  0  0
   23.4847  -21.5876   -6.1479 C   0  0  0  0  0  0  0  0  0  0  0  0
   24.1873  -21.5784   -4.8168 C   0  0  2  0  0  0  0  0  0  0  0  0
   23.2148  -21.3749   -3.7064 C   0  0  0  0  0  0  0  0  0  0  0  0
   25.3876  -20.6725   -4.7625 C   0  0  2  0  0  0  0  0  0  0  0  0
   26.3867  -21.0399   -5.7364 N   0  0  0  0  0  0  0  0  0  0  0  0
   25.9575  -20.4872   -3.4085 C   0  0  0  0  0  0  0  0  0  0  0  0
   25.7795  -19.2938   -2.6795 O   0  0  0  0  0  0  0  0  0  0  0  0
   26.6338  -21.3488   -2.7974 O   0  0  0  0  0  0  0  0  0  0  0  0
  2  1  1  0
  3  2  1  0
  3  4  1  1
  5  7  1  0
  5  3  1  0
  5  6  1  6
  7  8  2  0
 10  9  1  6
 11 10  1  0
 12 10  1  0
 13 12  1  1
 14 13  1  0
 14  7  1  0
 15 13  1  0
 15 16  2  0
 17 18  1  0
 18 19  1  0
 19 21  1  0
 19 20  1  1
 21 22  1  6
 21 23  1  0
 22 15  1  0
 23 24  1  0
 25 23  2  0
M  END
$$$$
