RIH.pdb
     RDKit          3D

 30 30  0  0  1  0  0  0  0  0999 V2000
   29.7173  -18.2166  -18.4428 N   0  0  0  0  0  0  0  0  0  0  0  0
   28.9950  -16.9915  -18.6218 C   0  0  0  0  0  0  0  0  0  0  0  0
   28.9135  -16.4811  -19.7837 N   0  0  0  0  0  0  0  0  0  0  0  0
   28.3861  -16.3805  -17.4852 N   0  0  0  0  0  0  0  0  0  0  0  0
   27.9527  -17.2176  -16.4123 C   0  0  0  0  0  0  0  0  0  0  0  0
   26.8500  -18.1569  -16.6092 C   0  0  0  0  0  0  0  0  0  0  0  0
   26.2907  -19.0048  -15.5646 C   0  0  0  0  0  0  0  0  0  0  0  0
   27.1877  -19.9926  -14.9171 C   0  0  2  0  0  0  0  0  0  0  0  0
   27.6828  -20.9379  -15.8661 N   0  0  0  0  0  0  0  0  0  0  0  0
   26.3950  -20.7859  -13.8728 C   0  0  0  0  0  0  0  0  0  0  0  0
   25.9421  -21.8699  -14.2447 O   0  0  0  0  0  0  0  0  0  0  0  0
   28.4136  -15.6195  -20.0315 C   0  0  0  0  0  0  0  0  0  0  0  0
   26.0843  -21.0814   -7.7906 C   0  0  0  0  0  0  0  0  0  0  0  0
   25.1914  -21.3340   -9.0202 C   0  0  2  0  0  0  0  0  0  0  0  0
   25.7793  -20.5682  -10.1363 C   0  0  0  0  0  0  0  0  0  0  0  0
   25.2311  -19.1351  -10.0292 C   0  0  2  0  0  0  0  0  0  0  0  0
   25.5243  -21.0052  -11.5214 N   0  0  0  0  0  0  0  0  0  0  0  0
   26.2066  -20.2847  -12.5645 C   0  0  0  0  0  0  0  0  0  0  0  0
   24.1177  -21.3609  -11.8482 O   0  0  0  0  0  0  0  0  0  0  0  0
   23.4736  -22.2178  -11.1761 N   0  0  0  0  0  0  0  0  0  0  0  0
   23.4355  -20.7657  -12.9215 C   0  0  2  0  0  0  0  0  0  0  0  0
   22.0553  -21.0355  -13.2715 C   0  0  0  0  0  0  0  0  0  0  0  0
   21.7545  -22.4697  -13.4480 C   0  0  0  0  0  0  0  0  0  0  0  0
   20.3502  -22.6657  -13.8413 C   0  0  0  0  0  0  0  0  0  0  0  0
   19.4051  -21.6462  -13.9242 N   0  0  0  0  0  0  0  0  0  0  0  0
   18.2206  -22.1575  -14.3100 C   0  0  0  0  0  0  0  0  0  0  0  0
   18.3979  -23.4776  -14.4725 N   0  0  0  0  0  0  0  0  0  0  0  0
   19.6765  -23.7708  -14.1894 C   0  0  0  0  0  0  0  0  0  0  0  0
   21.1489  -20.4291  -12.2745 O   0  0  0  0  0  0  0  0  0  0  0  0
   19.8581  -20.0389  -12.6935 O   0  0  0  0  0  0  0  0  0  0  0  0
  1  2  1  0
  2  4  1  0
  2  3  2  0
  4  5  1  0
  5  6  1  0
  7  8  1  0
  7  6  1  0
  8 10  1  0
  8  9  1  6
 10 11  2  0
 12 13  1  0
 14 13  1  0
 14 16  1  0
 14 15  1  6
 16 18  1  0
 16 17  1  6
 17 10  1  0
 18 20  1  0
 19 18  2  0
 20 21  1  0
 21 22  1  6
 22 23  1  0
 23 24  2  0
 24 25  1  0
 26 25  1  0
 27 23  1  0
 27 26  2  0
 28 29  1  0
 28 21  1  0
 30 28  2  0
M  END
$$$$
