RIH.pdb
     RDKit          3D

 30 30  0  0  1  0  0  0  0  0999 V2000
   20.6505  -22.7678  -10.6782 N   0  0  0  0  0  0  0  0  0  0  0  0
   20.2870  -22.7525   -9.2917 C   0  0  0  0  0  0  0  0  0  0  0  0
   19.1356  -23.1669   -8.9455 N   0  0  0  0  0  0  0  0  0  0  0  0
   21.2335  -22.2713   -8.3385 N   0  0  0  0  0  0  0  0  0  0  0  0
   22.4890  -21.7826   -8.8123 C   0  0  0  0  0  0  0  0  0  0  0  0
   22.6185  -20.3980   -9.2632 C   0  0  0  0  0  0  0  0  0  0  0  0
   23.8818  -19.7518   -9.5940 C   0  0  0  0  0  0  0  0  0  0  0  0
   24.9605  -20.5900  -10.1715 C   0  0  2  0  0  0  0  0  0  0  0  0
   25.9378  -20.9229   -9.1849 N   0  0  0  0  0  0  0  0  0  0  0  0
   25.6855  -19.7974  -11.2644 C   0  0  0  0  0  0  0  0  0  0  0  0
   26.1703  -18.7182  -10.9201 O   0  0  0  0  0  0  0  0  0  0  0  0
   18.7551  -23.1675   -7.9921 C   0  0  0  0  0  0  0  0  0  0  0  0
   28.1229  -22.1353  -16.0159 C   0  0  0  0  0  0  0  0  0  0  0  0
   26.9123  -21.5211  -15.2877 C   0  0  2  0  0  0  0  0  0  0  0  0
   27.4368  -20.4432  -14.4269 C   0  0  0  0  0  0  0  0  0  0  0  0
   28.3807  -21.1066  -13.4098 C   0  0  1  0  0  0  0  0  0  0  0  0
   26.4930  -19.6259  -13.6421 N   0  0  0  0  0  0  0  0  0  0  0  0
   25.7809  -20.2943  -12.5843 C   0  0  0  0  0  0  0  0  0  0  0  0
   25.6686  -18.6562  -14.4115 O   0  0  0  0  0  0  0  0  0  0  0  0
   26.1748  -17.9041  -15.2941 N   0  0  0  0  0  0  0  0  0  0  0  0
   24.2877  -18.5247  -14.1940 C   0  0  1  0  0  0  0  0  0  0  0  0
   23.2820  -18.5655  -15.2368 C   0  0  0  0  0  0  0  0  0  0  0  0
   23.7067  -19.2970  -16.4462 C   0  0  0  0  0  0  0  0  0  0  0  0
   23.8995  -18.3740  -17.5759 C   0  0  0  0  0  0  0  0  0  0  0  0
   23.7085  -16.9961  -17.5095 N   0  0  0  0  0  0  0  0  0  0  0  0
   23.9668  -16.4451  -18.7107 C   0  0  0  0  0  0  0  0  0  0  0  0
   24.3168  -17.4455  -19.5336 N   0  0  0  0  0  0  0  0  0  0  0  0
   24.2731  -18.5958  -18.8438 C   0  0  0  0  0  0  0  0  0  0  0  0
   22.0196  -19.1199  -14.7056 O   0  0  0  0  0  0  0  0  0  0  0  0
   20.8154  -18.7965  -15.3685 O   0  0  0  0  0  0  0  0  0  0  0  0
  1  2  1  0
  2  4  1  0
  2  3  2  0
  4  5  1  0
  5  6  1  0
  7  8  1  0
  7  6  1  0
  8 10  1  0
  8  9  1  1
 10 11  2  0
 12 13  1  0
 14 13  1  0
 14 16  1  0
 14 15  1  6
 16 18  1  0
 16 17  1  1
 17 10  1  0
 18 20  1  0
 19 18  2  0
 20 21  1  0
 21 22  1  6
 22 23  1  0
 23 24  2  0
 24 25  1  0
 26 25  1  0
 27 23  1  0
 27 26  2  0
 28 29  1  0
 28 21  1  0
 30 28  2  0
M  END
$$$$
