RIH.pdb
     RDKit          3D

 30 30  0  0  1  0  0  0  0  0999 V2000
   17.6202  -24.0221   -8.6124 N   0  0  0  0  0  0  0  0  0  0  0  0
   18.5090  -25.1458   -8.5673 C   0  0  0  0  0  0  0  0  0  0  0  0
   19.2333  -25.4075   -9.5794 N   0  0  0  0  0  0  0  0  0  0  0  0
   18.5545  -25.9388   -7.3821 N   0  0  0  0  0  0  0  0  0  0  0  0
   17.3870  -26.0057   -6.5621 C   0  0  0  0  0  0  0  0  0  0  0  0
   16.9129  -24.8168   -5.8560 C   0  0  0  0  0  0  0  0  0  0  0  0
   16.6494  -24.7566   -4.4243 C   0  0  0  0  0  0  0  0  0  0  0  0
   15.5218  -25.5592   -3.8912 C   0  0  2  0  0  0  0  0  0  0  0  0
   14.2778  -25.1322   -4.4475 N   0  0  0  0  0  0  0  0  0  0  0  0
   15.4253  -25.3503   -2.3761 C   0  0  0  0  0  0  0  0  0  0  0  0
   14.7564  -24.3849   -2.0036 O   0  0  0  0  0  0  0  0  0  0  0  0
   19.9154  -26.1710   -9.6531 C   0  0  0  0  0  0  0  0  0  0  0  0
   17.0773  -29.5106   -0.0377 C   0  0  0  0  0  0  0  0  0  0  0  0
   15.8596  -28.6573    0.3649 C   0  0  2  0  0  0  0  0  0  0  0  0
   16.3771  -27.3241    0.7290 C   0  0  0  0  0  0  0  0  0  0  0  0
   15.9517  -27.0646    2.1841 C   0  0  2  0  0  0  0  0  0  0  0  0
   15.9405  -26.1472   -0.0449 N   0  0  0  0  0  0  0  0  0  0  0  0
   16.0738  -26.2266   -1.4762 C   0  0  0  0  0  0  0  0  0  0  0  0
   16.2930  -24.8198    0.5257 O   0  0  0  0  0  0  0  0  0  0  0  0
   17.4405  -24.3104    0.3687 N   0  0  0  0  0  0  0  0  0  0  0  0
   15.3705  -24.0672    1.2702 C   0  0  1  0  0  0  0  0  0  0  0  0
   15.6824  -22.8325    1.9619 C   0  0  0  0  0  0  0  0  0  0  0  0
   14.7908  -21.7103    1.6096 C   0  0  0  0  0  0  0  0  0  0  0  0
   15.2278  -20.4681    2.2664 C   0  0  0  0  0  0  0  0  0  0  0  0
   16.3597  -20.3574    3.0702 N   0  0  0  0  0  0  0  0  0  0  0  0
   16.4762  -19.0921    3.5158 C   0  0  0  0  0  0  0  0  0  0  0  0
   15.4424  -18.4019    3.0107 N   0  0  0  0  0  0  0  0  0  0  0  0
   14.7015  -19.2355    2.2641 C   0  0  0  0  0  0  0  0  0  0  0  0
   15.6919  -23.0552    3.4226 O   0  0  0  0  0  0  0  0  0  0  0  0
   16.2838  -22.0722    4.2456 O   0  0  0  0  0  0  0  0  0  0  0  0
  1  2  1  0
  2  4  1  0
  2  3  2  0
  4  5  1  0
  5  6  1  0
  7  8  1  0
  7  6  1  0
  8 10  1  0
  8  9  1  6
 10 11  2  0
 12 13  1  0
 14 13  1  0
 14 16  1  0
 14 15  1  6
 16 18  1  0
 16 17  1  6
 17 10  1  0
 18 20  1  0
 19 18  2  0
 20 21  1  0
 21 22  1  1
 22 23  1  0
 23 24  2  0
 24 25  1  0
 26 25  1  0
 27 23  1  0
 27 26  2  0
 28 29  1  0
 28 21  1  0
 30 28  2  0
M  END
$$$$
