LVV.pdb
     RDKit          3D

 23 22  0  0  1  0  0  0  0  0999 V2000
   16.1988  -25.0774   -7.9231 C   0  0  0  0  0  0  0  0  0  0  0  0
   17.6649  -24.8480   -7.6242 C   0  0  1  0  0  0  0  0  0  0  0  0
   18.5352  -26.0309   -7.9651 C   0  0  0  0  0  0  0  0  0  0  0  0
   18.1758  -23.5338   -8.0941 C   0  0  0  0  0  0  0  0  0  0  0  0
   19.6201  -23.2977   -7.8044 C   0  0  2  0  0  0  0  0  0  0  0  0
   19.9374  -23.0670   -6.4273 N   0  0  0  0  0  0  0  0  0  0  0  0
   20.1408  -22.1705   -8.6127 C   0  0  0  0  0  0  0  0  0  0  0  0
   19.7525  -21.0115   -8.2998 O   0  0  0  0  0  0  0  0  0  0  0  0
   23.4833  -21.0330   -8.7807 C   0  0  0  0  0  0  0  0  0  0  0  0
   23.0108  -21.1639  -10.2021 C   0  0  2  0  0  0  0  0  0  0  0  0
   23.7520  -20.2340  -11.1343 C   0  0  0  0  0  0  0  0  0  0  0  0
   21.5245  -21.1057  -10.3936 C   0  0  2  0  0  0  0  0  0  0  0  0
   21.0243  -22.3191   -9.6841 N   0  0  0  0  0  0  0  0  0  0  0  0
   21.0561  -21.1247  -11.7752 C   0  0  0  0  0  0  0  0  0  0  0  0
   21.1448  -22.1822  -12.4598 O   0  0  0  0  0  0  0  0  0  0  0  0
   18.3885  -18.2205  -14.5221 C   0  0  0  0  0  0  0  0  0  0  0  0
   18.5668  -19.5531  -13.8470 C   0  0  2  0  0  0  0  0  0  0  0  0
   17.8774  -19.5316  -12.4949 C   0  0  0  0  0  0  0  0  0  0  0  0
   19.9972  -19.9790  -13.7524 C   0  0  2  0  0  0  0  0  0  0  0  0
   20.4971  -20.0000  -12.3940 N   0  0  0  0  0  0  0  0  0  0  0  0
   20.7994  -19.0901  -14.6286 C   0  0  0  0  0  0  0  0  0  0  0  0
   21.5219  -18.1476  -14.2284 O   0  0  0  0  0  0  0  0  0  0  0  0
   20.7403  -19.3262  -15.9932 O   0  0  0  0  0  0  0  0  0  0  0  0
  2  1  1  6
  2  3  1  0
  4  2  1  0
  4  5  1  0
  5  6  1  1
  7  8  2  0
  7  5  1  0
 10 12  1  0
 10  9  1  1
 11 10  1  0
 12 13  1  1
 13  7  1  0
 14 20  1  0
 14 12  1  0
 15 14  2  0
 17 19  1  0
 17 16  1  1
 18 17  1  0
 19 21  1  0
 19 20  1  1
 21 23  1  0
 22 21  2  0
M  END
$$$$
