LVV.pdb
     RDKit          3D

 23 22  0  0  1  0  0  0  0  0999 V2000
   31.3533  -20.8936  -11.2236 C   0  0  0  0  0  0  0  0  0  0  0  0
   30.7502  -21.1652  -12.5852 C   0  0  1  0  0  0  0  0  0  0  0  0
   30.7432  -22.6271  -12.9534 C   0  0  0  0  0  0  0  0  0  0  0  0
   29.4720  -20.4477  -12.8305 C   0  0  0  0  0  0  0  0  0  0  0  0
   28.9314  -20.6116  -14.2113 C   0  0  2  0  0  0  0  0  0  0  0  0
   29.7257  -20.0308  -15.2516 N   0  0  0  0  0  0  0  0  0  0  0  0
   27.5532  -20.0759  -14.3032 C   0  0  0  0  0  0  0  0  0  0  0  0
   27.4214  -18.8213  -14.2753 O   0  0  0  0  0  0  0  0  0  0  0  0
   25.3774  -19.8111  -16.8639 C   0  0  0  0  0  0  0  0  0  0  0  0
   24.5381  -20.4136  -15.7715 C   0  0  2  0  0  0  0  0  0  0  0  0
   23.0825  -20.0277  -15.8959 C   0  0  0  0  0  0  0  0  0  0  0  0
   25.0651  -20.2286  -14.3795 C   0  0  2  0  0  0  0  0  0  0  0  0
   26.4110  -20.8713  -14.4180 N   0  0  0  0  0  0  0  0  0  0  0  0
   24.2728  -20.8271  -13.3106 C   0  0  0  0  0  0  0  0  0  0  0  0
   24.0494  -22.0701  -13.3072 O   0  0  0  0  0  0  0  0  0  0  0  0
   24.7014  -19.8582   -9.5027 C   0  0  0  0  0  0  0  0  0  0  0  0
   23.2413  -19.9299   -9.8584 C   0  0  2  0  0  0  0  0  0  0  0  0
   22.4695  -20.5456   -8.7056 C   0  0  0  0  0  0  0  0  0  0  0  0
   22.9844  -20.6279  -11.1557 C   0  0  2  0  0  0  0  0  0  0  0  0
   23.7362  -20.0719  -12.2608 N   0  0  0  0  0  0  0  0  0  0  0  0
   21.5225  -20.6047  -11.4075 C   0  0  0  0  0  0  0  0  0  0  0  0
   20.6737  -21.2780  -10.7776 O   0  0  0  0  0  0  0  0  0  0  0  0
   21.0678  -19.7722  -12.4182 O   0  0  0  0  0  0  0  0  0  0  0  0
  2  1  1  1
  2  3  1  0
  4  2  1  0
  4  5  1  0
  5  6  1  6
  7  8  2  0
  7  5  1  0
 10 12  1  0
 10  9  1  6
 11 10  1  0
 12 13  1  6
 13  7  1  0
 14 20  1  0
 14 12  1  0
 15 14  2  0
 17 19  1  0
 17 16  1  1
 18 17  1  0
 19 21  1  0
 19 20  1  6
 21 23  1  0
 22 21  2  0
M  END
$$$$
