LVV.pdb
     RDKit          3D

 23 22  0  0  1  0  0  0  0  0999 V2000
   19.2908  -17.7075  -17.4563 C   0  0  0  0  0  0  0  0  0  0  0  0
   18.8230  -16.3224  -17.8489 C   0  0  1  0  0  0  0  0  0  0  0  0
   17.3894  -16.0480  -17.4716 C   0  0  0  0  0  0  0  0  0  0  0  0
   19.7835  -15.2426  -17.5017 C   0  0  0  0  0  0  0  0  0  0  0  0
   19.3139  -13.8693  -17.8469 C   0  0  2  0  0  0  0  0  0  0  0  0
   19.1526  -13.6123  -19.2463 N   0  0  0  0  0  0  0  0  0  0  0  0
   20.2163  -12.8451  -17.2712 C   0  0  0  0  0  0  0  0  0  0  0  0
   20.5365  -12.9781  -16.0580 O   0  0  0  0  0  0  0  0  0  0  0  0
   23.6761  -11.5961  -18.4730 C   0  0  0  0  0  0  0  0  0  0  0  0
   22.6832  -10.4838  -18.2781 C   0  0  2  0  0  0  0  0  0  0  0  0
   23.3603   -9.1555  -18.0323 C   0  0  0  0  0  0  0  0  0  0  0  0
   21.5900  -10.7636  -17.2903 C   0  0  2  0  0  0  0  0  0  0  0  0
   20.7239  -11.7586  -17.9871 N   0  0  0  0  0  0  0  0  0  0  0  0
   20.7830   -9.6169  -16.8873 C   0  0  0  0  0  0  0  0  0  0  0  0
   20.0739   -9.0106  -17.7385 O   0  0  0  0  0  0  0  0  0  0  0  0
   18.3460   -7.0820  -13.4786 C   0  0  0  0  0  0  0  0  0  0  0  0
   19.1806   -8.2597  -13.9027 C   0  0  2  0  0  0  0  0  0  0  0  0
   20.0302   -8.7247  -12.7340 C   0  0  0  0  0  0  0  0  0  0  0  0
   19.9929   -7.9949  -15.1300 C   0  0  2  0  0  0  0  0  0  0  0  0
   20.7538   -9.1453  -15.5693 N   0  0  0  0  0  0  0  0  0  0  0  0
   20.8602   -6.8214  -14.8617 C   0  0  0  0  0  0  0  0  0  0  0  0
   22.0652   -6.8806  -14.5223 O   0  0  0  0  0  0  0  0  0  0  0  0
   20.2872   -5.5668  -14.9988 O   0  0  0  0  0  0  0  0  0  0  0  0
  2  1  1  1
  2  3  1  0
  4  2  1  0
  4  5  1  0
  5  6  1  6
  7  8  2  0
  7  5  1  0
 10 12  1  0
 10  9  1  1
 11 10  1  0
 12 13  1  6
 13  7  1  0
 14 20  1  0
 14 12  1  0
 15 14  2  0
 17 19  1  0
 17 16  1  1
 18 17  1  0
 19 21  1  0
 19 20  1  1
 21 23  1  0
 22 21  2  0
M  END
$$$$
