LVV.pdb
     RDKit          3D

 23 22  0  0  1  0  0  0  0  0999 V2000
   29.8917  -20.5704  -10.0741 C   0  0  0  0  0  0  0  0  0  0  0  0
   29.4312  -20.6498  -11.5139 C   0  0  1  0  0  0  0  0  0  0  0  0
   29.7191  -21.9815  -12.1594 C   0  0  0  0  0  0  0  0  0  0  0  0
   28.0581  -20.1260  -11.7356 C   0  0  0  0  0  0  0  0  0  0  0  0
   27.6314  -20.1085  -13.1650 C   0  0  2  0  0  0  0  0  0  0  0  0
   28.4515  -19.3237  -14.0381 N   0  0  0  0  0  0  0  0  0  0  0  0
   26.2266  -19.6546  -13.2887 C   0  0  0  0  0  0  0  0  0  0  0  0
   25.9706  -18.4730  -12.9278 O   0  0  0  0  0  0  0  0  0  0  0  0
   22.9259  -18.1161  -15.6611 C   0  0  0  0  0  0  0  0  0  0  0  0
   24.0887  -18.9742  -15.2459 C   0  0  2  0  0  0  0  0  0  0  0  0
   24.6643  -19.7505  -16.4075 C   0  0  0  0  0  0  0  0  0  0  0  0
   23.8550  -19.8337  -14.0392 C   0  0  2  0  0  0  0  0  0  0  0  0
   25.1875  -20.4507  -13.7757 N   0  0  0  0  0  0  0  0  0  0  0  0
   22.8547  -20.8854  -14.1869 C   0  0  0  0  0  0  0  0  0  0  0  0
   23.1439  -21.9542  -14.7943 O   0  0  0  0  0  0  0  0  0  0  0  0
   18.7362  -20.4618  -12.6547 C   0  0  0  0  0  0  0  0  0  0  0  0
   19.5278  -21.7406  -12.6906 C   0  0  2  0  0  0  0  0  0  0  0  0
   20.1532  -21.9869  -11.3297 C   0  0  0  0  0  0  0  0  0  0  0  0
   20.5330  -21.7805  -13.7971 C   0  0  2  0  0  0  0  0  0  0  0  0
   21.5577  -20.7655  -13.6732 N   0  0  0  0  0  0  0  0  0  0  0  0
   19.8022  -21.6815  -15.0845 C   0  0  0  0  0  0  0  0  0  0  0  0
   19.6633  -20.6309  -15.7534 O   0  0  0  0  0  0  0  0  0  0  0  0
   19.2322  -22.8441  -15.5793 O   0  0  0  0  0  0  0  0  0  0  0  0
  2  1  1  1
  2  3  1  0
  4  2  1  0
  4  5  1  0
  5  6  1  6
  7  8  2  0
  7  5  1  0
 10 12  1  0
 10  9  1  6
 11 10  1  0
 12 13  1  6
 13  7  1  0
 14 20  1  0
 14 12  1  0
 15 14  2  0
 17 19  1  0
 17 16  1  1
 18 17  1  0
 19 21  1  0
 19 20  1  1
 21 23  1  0
 22 21  2  0
M  END
$$$$
