LVV.pdb
     RDKit          3D

 23 22  0  0  1  0  0  0  0  0999 V2000
   23.0795  -22.3222  -14.0403 C   0  0  0  0  0  0  0  0  0  0  0  0
   24.3464  -23.1474  -13.9681 C   0  0  1  0  0  0  0  0  0  0  0  0
   24.9034  -23.5047  -15.3228 C   0  0  0  0  0  0  0  0  0  0  0  0
   25.3433  -22.6342  -12.9925 C   0  0  0  0  0  0  0  0  0  0  0  0
   26.3563  -21.7093  -13.5793 C   0  0  2  0  0  0  0  0  0  0  0  0
   27.5421  -21.5265  -12.7978 N   0  0  0  0  0  0  0  0  0  0  0  0
   25.7572  -20.3838  -13.8606 C   0  0  0  0  0  0  0  0  0  0  0  0
   25.2480  -19.7649  -12.8860 O   0  0  0  0  0  0  0  0  0  0  0  0
   26.8928  -17.9975  -17.0345 C   0  0  0  0  0  0  0  0  0  0  0  0
   26.2415  -17.5785  -15.7456 C   0  0  2  0  0  0  0  0  0  0  0  0
   27.2548  -17.3262  -14.6536 C   0  0  0  0  0  0  0  0  0  0  0  0
   25.1061  -18.4449  -15.2877 C   0  0  2  0  0  0  0  0  0  0  0  0
   25.7267  -19.7918  -15.1252 N   0  0  0  0  0  0  0  0  0  0  0  0
   23.9685  -18.5418  -16.1960 C   0  0  0  0  0  0  0  0  0  0  0  0
   24.0082  -19.3339  -17.1789 O   0  0  0  0  0  0  0  0  0  0  0  0
   20.1546  -18.9964  -15.2987 C   0  0  0  0  0  0  0  0  0  0  0  0
   20.3540  -17.8058  -16.1966 C   0  0  2  0  0  0  0  0  0  0  0  0
   19.1739  -17.6828  -17.1432 C   0  0  0  0  0  0  0  0  0  0  0  0
   21.6646  -17.8236  -16.9165 C   0  0  2  0  0  0  0  0  0  0  0  0
   22.8049  -17.7820  -16.0257 N   0  0  0  0  0  0  0  0  0  0  0  0
   21.6715  -16.6993  -17.8846 C   0  0  0  0  0  0  0  0  0  0  0  0
   22.2181  -15.5881  -17.6922 O   0  0  0  0  0  0  0  0  0  0  0  0
   21.0216  -16.9006  -19.0923 O   0  0  0  0  0  0  0  0  0  0  0  0
  2  1  1  6
  2  3  1  0
  4  2  1  0
  4  5  1  0
  5  6  1  1
  7  8  2  0
  7  5  1  0
 10 12  1  0
 10  9  1  6
 11 10  1  0
 12 13  1  6
 13  7  1  0
 14 20  1  0
 14 12  1  0
 15 14  2  0
 17 19  1  0
 17 16  1  6
 18 17  1  0
 19 21  1  0
 19 20  1  1
 21 23  1  0
 22 21  2  0
M  END
$$$$
