LVV.pdb
     RDKit          3D

 23 22  0  0  1  0  0  0  0  0999 V2000
   27.1571  -24.6456  -21.5661 C   0  0  0  0  0  0  0  0  0  0  0  0
   26.1489  -23.5689  -21.2261 C   0  0  1  0  0  0  0  0  0  0  0  0
   24.9559  -23.5567  -22.1477 C   0  0  0  0  0  0  0  0  0  0  0  0
   25.8270  -23.4826  -19.7777 C   0  0  0  0  0  0  0  0  0  0  0  0
   24.8803  -22.3853  -19.4238 C   0  0  2  0  0  0  0  0  0  0  0  0
   25.3318  -21.0633  -19.7383 N   0  0  0  0  0  0  0  0  0  0  0  0
   24.5235  -22.4419  -17.9870 C   0  0  0  0  0  0  0  0  0  0  0  0
   24.4587  -23.5845  -17.4557 O   0  0  0  0  0  0  0  0  0  0  0  0
   24.8953  -19.2042  -15.2824 C   0  0  0  0  0  0  0  0  0  0  0  0
   24.9501  -20.6871  -15.0393 C   0  0  2  0  0  0  0  0  0  0  0  0
   26.3448  -21.2402  -15.2181 C   0  0  0  0  0  0  0  0  0  0  0  0
   23.9138  -21.4957  -15.7614 C   0  0  2  0  0  0  0  0  0  0  0  0
   24.2602  -21.3175  -17.2016 N   0  0  0  0  0  0  0  0  0  0  0  0
   22.5268  -21.0991  -15.5439 C   0  0  0  0  0  0  0  0  0  0  0  0
   22.0443  -20.1133  -16.1687 O   0  0  0  0  0  0  0  0  0  0  0  0
   19.6617  -23.4706  -13.1172 C   0  0  0  0  0  0  0  0  0  0  0  0
   19.3974  -22.6171  -14.3276 C   0  0  2  0  0  0  0  0  0  0  0  0
   19.4494  -23.4793  -15.5757 C   0  0  0  0  0  0  0  0  0  0  0  0
   20.2982  -21.4269  -14.4173 C   0  0  2  0  0  0  0  0  0  0  0  0
   21.6826  -21.7763  -14.6557 N   0  0  0  0  0  0  0  0  0  0  0  0
   20.1294  -20.6293  -13.1777 C   0  0  0  0  0  0  0  0  0  0  0  0
   20.9818  -20.5313  -12.2642 O   0  0  0  0  0  0  0  0  0  0  0  0
   18.9350  -19.9428  -13.0250 O   0  0  0  0  0  0  0  0  0  0  0  0
  2  1  1  1
  2  3  1  0
  4  2  1  0
  4  5  1  0
  5  6  1  1
  7  8  2  0
  7  5  1  0
 10 12  1  0
 10  9  1  6
 11 10  1  0
 12 13  1  6
 13  7  1  0
 14 20  1  0
 14 12  1  0
 15 14  2  0
 17 19  1  0
 17 16  1  1
 18 17  1  0
 19 21  1  0
 19 20  1  1
 21 23  1  0
 22 21  2  0
M  END
$$$$
