LVV.pdb
     RDKit          3D

 23 22  0  0  1  0  0  0  0  0999 V2000
   26.0789  -15.9371  -15.9265 C   0  0  0  0  0  0  0  0  0  0  0  0
   26.5797  -15.1061  -17.0884 C   0  0  1  0  0  0  0  0  0  0  0  0
   26.3660  -15.7641  -18.4279 C   0  0  0  0  0  0  0  0  0  0  0  0
   26.1834  -13.6754  -17.0191 C   0  0  0  0  0  0  0  0  0  0  0  0
   24.7179  -13.4519  -16.8516 C   0  0  2  0  0  0  0  0  0  0  0  0
   23.8879  -14.0767  -17.8370 N   0  0  0  0  0  0  0  0  0  0  0  0
   24.4084  -12.0037  -16.8109 C   0  0  0  0  0  0  0  0  0  0  0  0
   25.0470  -11.3028  -15.9785 O   0  0  0  0  0  0  0  0  0  0  0  0
   22.8128   -7.9310  -18.9739 C   0  0  0  0  0  0  0  0  0  0  0  0
   23.1084   -9.4003  -18.8533 C   0  0  2  0  0  0  0  0  0  0  0  0
   22.2126  -10.2339  -19.7398 C   0  0  0  0  0  0  0  0  0  0  0  0
   23.1825   -9.9284  -17.4515 C   0  0  2  0  0  0  0  0  0  0  0  0
   23.4640  -11.3824  -17.6311 N   0  0  0  0  0  0  0  0  0  0  0  0
   21.9802   -9.7640  -16.6415 C   0  0  0  0  0  0  0  0  0  0  0  0
   20.9288  -10.4005  -16.9317 O   0  0  0  0  0  0  0  0  0  0  0  0
   19.6090   -8.9460  -12.5267 C   0  0  0  0  0  0  0  0  0  0  0  0
   20.8088   -9.2710  -13.3742 C   0  0  2  0  0  0  0  0  0  0  0  0
   22.0739   -8.8897  -12.6274 C   0  0  0  0  0  0  0  0  0  0  0  0
   20.7469   -8.6655  -14.7401 C   0  0  2  0  0  0  0  0  0  0  0  0
   21.9347   -8.9154  -15.5289 N   0  0  0  0  0  0  0  0  0  0  0  0
   20.4735   -7.2153  -14.5870 C   0  0  0  0  0  0  0  0  0  0  0  0
   19.3662   -6.7221  -14.2690 O   0  0  0  0  0  0  0  0  0  0  0  0
   21.5283   -6.3453  -14.8148 O   0  0  0  0  0  0  0  0  0  0  0  0
  2  1  1  1
  2  3  1  0
  4  2  1  0
  4  5  1  0
  5  6  1  6
  7  8  2  0
  7  5  1  0
 10 12  1  0
 10  9  1  1
 11 10  1  0
 12 13  1  6
 13  7  1  0
 14 20  1  0
 14 12  1  0
 15 14  2  0
 17 19  1  0
 17 16  1  1
 18 17  1  0
 19 21  1  0
 19 20  1  1
 21 23  1  0
 22 21  2  0
M  END
$$$$
