LVV.pdb
     RDKit          3D

 23 22  0  0  1  0  0  0  0  0999 V2000
   17.6839  -10.0059  -21.1556 C   0  0  0  0  0  0  0  0  0  0  0  0
   18.6577  -10.9405  -20.4703 C   0  0  1  0  0  0  0  0  0  0  0  0
   19.9548  -11.1051  -21.2210 C   0  0  0  0  0  0  0  0  0  0  0  0
   18.8009  -10.6954  -19.0115 C   0  0  0  0  0  0  0  0  0  0  0  0
   19.7797  -11.5929  -18.3316 C   0  0  2  0  0  0  0  0  0  0  0  0
   19.3234  -12.9300  -18.0986 N   0  0  0  0  0  0  0  0  0  0  0  0
   20.2255  -11.0065  -17.0462 C   0  0  0  0  0  0  0  0  0  0  0  0
   19.4390  -11.1082  -16.0648 O   0  0  0  0  0  0  0  0  0  0  0  0
   23.4590  -10.2446  -13.6886 C   0  0  0  0  0  0  0  0  0  0  0  0
   22.9298  -10.6052  -15.0490 C   0  0  2  0  0  0  0  0  0  0  0  0
   24.0329  -10.7178  -16.0754 C   0  0  0  0  0  0  0  0  0  0  0  0
   21.7778   -9.7749  -15.5316 C   0  0  2  0  0  0  0  0  0  0  0  0
   21.4495  -10.3587  -16.8648 N   0  0  0  0  0  0  0  0  0  0  0  0
   22.0358   -8.3465  -15.6783 C   0  0  0  0  0  0  0  0  0  0  0  0
   22.8006   -7.9315  -16.5937 O   0  0  0  0  0  0  0  0  0  0  0  0
   19.3238   -5.3482  -14.3409 C   0  0  0  0  0  0  0  0  0  0  0  0
   20.4391   -5.2128  -15.3414 C   0  0  2  0  0  0  0  0  0  0  0  0
   19.9336   -5.6026  -16.7185 C   0  0  0  0  0  0  0  0  0  0  0  0
   21.6736   -5.9621  -14.9527 C   0  0  2  0  0  0  0  0  0  0  0  0
   21.4608   -7.3890  -14.8340 N   0  0  0  0  0  0  0  0  0  0  0  0
   22.1936   -5.3689  -13.6961 C   0  0  0  0  0  0  0  0  0  0  0  0
   22.7354   -4.2427  -13.6030 O   0  0  0  0  0  0  0  0  0  0  0  0
   22.0670   -6.1239  -12.5405 O   0  0  0  0  0  0  0  0  0  0  0  0
  2  1  1  6
  2  3  1  0
  4  2  1  0
  4  5  1  0
  5  6  1  1
  7  8  2  0
  7  5  1  0
 10 12  1  0
 10  9  1  1
 11 10  1  0
 12 13  1  6
 13  7  1  0
 14 20  1  0
 14 12  1  0
 15 14  2  0
 17 19  1  0
 17 16  1  1
 18 17  1  0
 19 21  1  0
 19 20  1  1
 21 23  1  0
 22 21  2  0
M  END
$$$$
