YMQ.pdb
     RDKit          3D

 30 30  0  0  1  0  0  0  0  0999 V2000
   28.3581  -15.5054  -21.7324 O   0  0  0  0  0  0  0  0  0  0  0  0
   28.7050  -14.4646  -20.8858 C   0  0  0  0  0  0  0  0  0  0  0  0
   28.4817  -13.1475  -21.2232 C   0  0  0  0  0  0  0  0  0  0  0  0
   28.8230  -12.1043  -20.3886 C   0  0  0  0  0  0  0  0  0  0  0  0
   29.4120  -12.3454  -19.1609 C   0  0  0  0  0  0  0  0  0  0  0  0
   29.7914  -11.2619  -18.2430 C   0  0  0  0  0  0  0  0  0  0  0  0
   30.6443  -10.2334  -18.9528 C   0  0  2  0  0  0  0  0  0  0  0  0
   31.9003  -10.8790  -19.2904 N   0  0  0  0  0  0  0  0  0  0  0  0
   30.8722   -9.0349  -18.0998 C   0  0  0  0  0  0  0  0  0  0  0  0
   29.8981   -8.5067  -17.4725 O   0  0  0  0  0  0  0  0  0  0  0  0
   29.6339  -13.6687  -18.8268 C   0  0  0  0  0  0  0  0  0  0  0  0
   29.2981  -14.7166  -19.6503 C   0  0  0  0  0  0  0  0  0  0  0  0
   35.0515  -10.8550  -15.0865 C   0  0  0  0  0  0  0  0  0  0  0  0
   34.5094   -9.7444  -16.4121 S   0  0  0  0  0  0  0  0  0  0  0  0
   34.0338   -8.1539  -15.5932 C   0  0  0  0  0  0  0  0  0  0  0  0
   33.7222   -7.1482  -16.6469 C   0  0  0  0  0  0  0  0  0  0  0  0
   32.3240   -7.1757  -17.1656 C   0  0  2  0  0  0  0  0  0  0  0  0
   32.1336   -8.4276  -17.9357 N   0  0  0  0  0  0  0  0  0  0  0  0
   31.9012   -6.0299  -17.9903 C   0  0  0  0  0  0  0  0  0  0  0  0
   32.3717   -5.8698  -19.1666 O   0  0  0  0  0  0  0  0  0  0  0  0
   26.7516   -4.6343  -20.2144 N   0  0  0  0  0  0  0  0  0  0  0  0
   27.3690   -3.3902  -20.4677 C   0  0  0  0  0  0  0  0  0  0  0  0
   26.7836   -2.5446  -21.1703 O   0  0  0  0  0  0  0  0  0  0  0  0
   28.7196   -3.1138  -19.8831 C   0  0  0  0  0  0  0  0  0  0  0  0
   29.1880   -4.2519  -19.0279 C   0  0  0  0  0  0  0  0  0  0  0  0
   30.5137   -3.9789  -18.4337 C   0  0  2  0  0  0  0  0  0  0  0  0
   30.9820   -5.0644  -17.5814 N   0  0  0  0  0  0  0  0  0  0  0  0
   30.5300   -2.7267  -17.6903 C   0  0  0  0  0  0  0  0  0  0  0  0
   30.6040   -1.5649  -18.1553 O   0  0  0  0  0  0  0  0  0  0  0  0
   30.4554   -2.7632  -16.2806 O   0  0  0  0  0  0  0  0  0  0  0  0
  2  1  1  0
  3  2  2  0
  4  3  1  0
  5  4  2  0
  5 11  1  0
  6  5  1  0
  7  6  1  0
  7  8  1  1
  9  7  1  0
  9 10  2  0
 11 12  2  0
 12  2  1  0
 14 13  1  0
 14 15  1  0
 15 16  1  0
 17 16  1  6
 17 19  1  0
 17 18  1  0
 18  9  1  0
 19 20  2  0
 22 24  1  0
 22 21  1  0
 23 22  2  0
 24 25  1  0
 26 25  1  1
 26 28  1  0
 27 26  1  0
 27 19  1  0
 28 29  2  0
 28 30  1  0
M  END
$$$$
