YMQ.pdb
     RDKit          3D

 30 30  0  0  1  0  0  0  0  0999 V2000
   30.3547  -11.4272  -24.9348 O   0  0  0  0  0  0  0  0  0  0  0  0
   29.4323  -11.0768  -23.9617 C   0  0  0  0  0  0  0  0  0  0  0  0
   28.0919  -10.9353  -24.2476 C   0  0  0  0  0  0  0  0  0  0  0  0
   27.1657  -10.5871  -23.2872 C   0  0  0  0  0  0  0  0  0  0  0  0
   27.5545  -10.3630  -21.9792 C   0  0  0  0  0  0  0  0  0  0  0  0
   26.5991   -9.9894  -20.9266 C   0  0  0  0  0  0  0  0  0  0  0  0
   26.3883  -11.1370  -19.9634 C   0  0  2  0  0  0  0  0  0  0  0  0
   25.7432  -12.2052  -20.7057 N   0  0  0  0  0  0  0  0  0  0  0  0
   25.5616  -10.7222  -18.7971 C   0  0  0  0  0  0  0  0  0  0  0  0
   24.2917  -10.7127  -18.8893 O   0  0  0  0  0  0  0  0  0  0  0  0
   28.9006  -10.5063  -21.6973 C   0  0  0  0  0  0  0  0  0  0  0  0
   29.8328  -10.8530  -22.6460 C   0  0  0  0  0  0  0  0  0  0  0  0
   22.7046  -10.5196  -12.4343 C   0  0  0  0  0  0  0  0  0  0  0  0
   23.4878  -10.7502  -14.0522 S   0  0  0  0  0  0  0  0  0  0  0  0
   25.2163  -10.1089  -13.8871 C   0  0  0  0  0  0  0  0  0  0  0  0
   25.9518  -10.3855  -15.1525 C   0  0  0  0  0  0  0  0  0  0  0  0
   25.2685   -9.9401  -16.4013 C   0  0  2  0  0  0  0  0  0  0  0  0
   26.1085  -10.3270  -17.5595 N   0  0  0  0  0  0  0  0  0  0  0  0
   24.9370   -8.5075  -16.4997 C   0  0  0  0  0  0  0  0  0  0  0  0
   25.8424   -7.6506  -16.7764 O   0  0  0  0  0  0  0  0  0  0  0  0
   23.6667   -4.6010  -19.2950 N   0  0  0  0  0  0  0  0  0  0  0  0
   22.7834   -3.9274  -18.4237 C   0  0  0  0  0  0  0  0  0  0  0  0
   22.5772   -2.7087  -18.5780 O   0  0  0  0  0  0  0  0  0  0  0  0
   22.1112   -4.6965  -17.3288 C   0  0  0  0  0  0  0  0  0  0  0  0
   22.4501   -6.1547  -17.3980 C   0  0  0  0  0  0  0  0  0  0  0  0
   23.3616   -6.5559  -16.3056 C   0  0  2  0  0  0  0  0  0  0  0  0
   23.6581   -7.9828  -16.3164 N   0  0  0  0  0  0  0  0  0  0  0  0
   22.8487   -6.1692  -14.9986 C   0  0  0  0  0  0  0  0  0  0  0  0
   22.2889   -6.9042  -14.1512 O   0  0  0  0  0  0  0  0  0  0  0  0
   22.9685   -4.8247  -14.5834 O   0  0  0  0  0  0  0  0  0  0  0  0
  2  1  1  0
  3  2  2  0
  4  3  1  0
  5  4  2  0
  5 11  1  0
  6  5  1  0
  7  6  1  0
  7  8  1  6
  9  7  1  0
  9 10  2  0
 11 12  2  0
 12  2  1  0
 14 13  1  0
 14 15  1  0
 15 16  1  0
 17 16  1  1
 17 19  1  0
 17 18  1  0
 18  9  1  0
 19 20  2  0
 22 24  1  0
 22 21  1  0
 23 22  2  0
 24 25  1  0
 26 25  1  6
 26 28  1  0
 27 26  1  0
 27 19  1  0
 28 29  2  0
 28 30  1  0
M  END
$$$$
