YMQ.pdb
     RDKit          3D

 30 30  0  0  1  0  0  0  0  0999 V2000
   29.3813  -16.0120  -18.6121 O   0  0  0  0  0  0  0  0  0  0  0  0
   28.7061  -16.8479  -17.7371 C   0  0  0  0  0  0  0  0  0  0  0  0
   28.4966  -16.5048  -16.4192 C   0  0  0  0  0  0  0  0  0  0  0  0
   27.8263  -17.3288  -15.5401 C   0  0  0  0  0  0  0  0  0  0  0  0
   27.3309  -18.5512  -15.9556 C   0  0  0  0  0  0  0  0  0  0  0  0
   26.6120  -19.4587  -15.0500 C   0  0  0  0  0  0  0  0  0  0  0  0
   27.5827  -20.3331  -14.2871 C   0  0  2  0  0  0  0  0  0  0  0  0
   28.1620  -21.2619  -15.2409 N   0  0  0  0  0  0  0  0  0  0  0  0
   26.9040  -21.0593  -13.1790 C   0  0  0  0  0  0  0  0  0  0  0  0
   26.2158  -22.1010  -13.4293 O   0  0  0  0  0  0  0  0  0  0  0  0
   27.5435  -18.8910  -17.2789 C   0  0  0  0  0  0  0  0  0  0  0  0
   28.2101  -18.0780  -18.1643 C   0  0  0  0  0  0  0  0  0  0  0  0
   27.9407  -20.0294   -7.1548 C   0  0  0  0  0  0  0  0  0  0  0  0
   26.1720  -20.2055   -6.8013 S   0  0  0  0  0  0  0  0  0  0  0  0
   25.3648  -20.6507   -8.4065 C   0  0  0  0  0  0  0  0  0  0  0  0
   26.3762  -20.5470   -9.4951 C   0  0  0  0  0  0  0  0  0  0  0  0
   25.9038  -20.9555  -10.8496 C   0  0  2  0  0  0  0  0  0  0  0  0
   26.9749  -20.6577  -11.8298 N   0  0  0  0  0  0  0  0  0  0  0  0
   24.6394  -20.3603  -11.3173 C   0  0  0  0  0  0  0  0  0  0  0  0
   24.6000  -19.1439  -11.7039 O   0  0  0  0  0  0  0  0  0  0  0  0
   21.6497  -21.2725  -16.0444 N   0  0  0  0  0  0  0  0  0  0  0  0
   21.6352  -22.3803  -15.1693 C   0  0  0  0  0  0  0  0  0  0  0  0
   21.5190  -23.5301  -15.6342 O   0  0  0  0  0  0  0  0  0  0  0  0
   21.7606  -22.1473  -13.6955 C   0  0  0  0  0  0  0  0  0  0  0  0
   22.0755  -20.7134  -13.3941 C   0  0  0  0  0  0  0  0  0  0  0  0
   22.2050  -20.4766  -11.9407 C   0  0  2  0  0  0  0  0  0  0  0  0
   23.4266  -21.0451  -11.3852 N   0  0  0  0  0  0  0  0  0  0  0  0
   21.0512  -20.9723  -11.2032 C   0  0  0  0  0  0  0  0  0  0  0  0
   21.0230  -21.9106  -10.3722 O   0  0  0  0  0  0  0  0  0  0  0  0
   19.7928  -20.3643  -11.4058 O   0  0  0  0  0  0  0  0  0  0  0  0
  2  1  1  0
  3  2  2  0
  4  3  1  0
  5  4  2  0
  5 11  1  0
  6  5  1  0
  7  6  1  0
  7  8  1  6
  9  7  1  0
  9 10  2  0
 11 12  2  0
 12  2  1  0
 14 13  1  0
 14 15  1  0
 15 16  1  0
 17 16  1  1
 17 19  1  0
 17 18  1  0
 18  9  1  0
 19 20  2  0
 22 24  1  0
 22 21  1  0
 23 22  2  0
 24 25  1  0
 26 25  1  6
 26 28  1  0
 27 26  1  0
 27 19  1  0
 28 29  2  0
 28 30  1  0
M  END
$$$$
