YMQ.pdb
     RDKit          3D

 30 30  0  0  1  0  0  0  0  0999 V2000
   28.0034  -15.8989  -17.7520 O   0  0  0  0  0  0  0  0  0  0  0  0
   27.5703  -16.7707  -16.7658 C   0  0  0  0  0  0  0  0  0  0  0  0
   27.3202  -18.0999  -17.0287 C   0  0  0  0  0  0  0  0  0  0  0  0
   26.8890  -18.9760  -16.0551 C   0  0  0  0  0  0  0  0  0  0  0  0
   26.6882  -18.5457  -14.7564 C   0  0  0  0  0  0  0  0  0  0  0  0
   26.2286  -19.4470  -13.6902 C   0  0  0  0  0  0  0  0  0  0  0  0
   27.3875  -20.2333  -13.1177 C   0  0  2  0  0  0  0  0  0  0  0  0
   27.7512  -21.2368  -14.1021 N   0  0  0  0  0  0  0  0  0  0  0  0
   27.0263  -20.8651  -11.8192 C   0  0  0  0  0  0  0  0  0  0  0  0
   26.2728  -21.8913  -11.7995 O   0  0  0  0  0  0  0  0  0  0  0  0
   26.9407  -17.2111  -14.4974 C   0  0  0  0  0  0  0  0  0  0  0  0
   27.3706  -16.3286  -15.4595 C   0  0  0  0  0  0  0  0  0  0  0  0
   27.4767  -20.1092   -3.9423 C   0  0  0  0  0  0  0  0  0  0  0  0
   28.1709  -19.6780   -5.5599 S   0  0  0  0  0  0  0  0  0  0  0  0
   26.9676  -20.2988   -6.8221 C   0  0  0  0  0  0  0  0  0  0  0  0
   27.5490  -20.0941   -8.1781 C   0  0  0  0  0  0  0  0  0  0  0  0
   26.7331  -20.6190   -9.3111 C   0  0  2  0  0  0  0  0  0  0  0  0
   27.4771  -20.3878  -10.5719 N   0  0  0  0  0  0  0  0  0  0  0  0
   25.3677  -20.0818   -9.4482 C   0  0  0  0  0  0  0  0  0  0  0  0
   25.1803  -18.8815   -9.8418 O   0  0  0  0  0  0  0  0  0  0  0  0
   22.4223  -21.5433  -13.7922 N   0  0  0  0  0  0  0  0  0  0  0  0
   21.2897  -21.0172  -13.1337 C   0  0  0  0  0  0  0  0  0  0  0  0
   20.2226  -20.8783  -13.7610 O   0  0  0  0  0  0  0  0  0  0  0  0
   21.3970  -20.6367  -11.6894 C   0  0  0  0  0  0  0  0  0  0  0  0
   22.7549  -20.9540  -11.1404 C   0  0  0  0  0  0  0  0  0  0  0  0
   22.9028  -20.4870   -9.7457 C   0  0  2  0  0  0  0  0  0  0  0  0
   24.2074  -20.8076   -9.1808 N   0  0  0  0  0  0  0  0  0  0  0  0
   21.8511  -21.0069   -8.8828 C   0  0  0  0  0  0  0  0  0  0  0  0
   20.6122  -20.8962   -9.0393 O   0  0  0  0  0  0  0  0  0  0  0  0
   22.2079  -21.7278   -7.7221 O   0  0  0  0  0  0  0  0  0  0  0  0
  2  1  1  0
  3  2  2  0
  4  3  1  0
  5  4  2  0
  5 11  1  0
  6  5  1  0
  7  6  1  0
  7  8  1  6
  9  7  1  0
  9 10  2  0
 11 12  2  0
 12  2  1  0
 14 13  1  0
 14 15  1  0
 15 16  1  0
 17 16  1  1
 17 19  1  0
 17 18  1  0
 18  9  1  0
 19 20  2  0
 22 24  1  0
 22 21  1  0
 23 22  2  0
 24 25  1  0
 26 25  1  6
 26 28  1  0
 27 26  1  0
 27 19  1  0
 28 29  2  0
 28 30  1  0
M  END
$$$$
