YMQ.pdb
     RDKit          3D

 30 30  0  0  1  0  0  0  0  0999 V2000
   28.6158  -15.2060  -18.1591 O   0  0  0  0  0  0  0  0  0  0  0  0
   27.9776  -16.1168  -17.3324 C   0  0  0  0  0  0  0  0  0  0  0  0
   28.0451  -16.0244  -15.9594 C   0  0  0  0  0  0  0  0  0  0  0  0
   27.4141  -16.9251  -15.1275 C   0  0  0  0  0  0  0  0  0  0  0  0
   26.6775  -17.9725  -15.6495 C   0  0  0  0  0  0  0  0  0  0  0  0
   25.9909  -18.9539  -14.7975 C   0  0  0  0  0  0  0  0  0  0  0  0
   26.9922  -19.8169  -14.0616 C   0  0  2  0  0  0  0  0  0  0  0  0
   27.6419  -20.6570  -15.0517 N   0  0  0  0  0  0  0  0  0  0  0  0
   26.3315  -20.6411  -13.0127 C   0  0  0  0  0  0  0  0  0  0  0  0
   25.8414  -21.7775  -13.3122 O   0  0  0  0  0  0  0  0  0  0  0  0
   26.6125  -18.0610  -17.0278 C   0  0  0  0  0  0  0  0  0  0  0  0
   27.2372  -17.1693  -17.8669 C   0  0  0  0  0  0  0  0  0  0  0  0
   26.5580  -19.3800   -6.9008 C   0  0  0  0  0  0  0  0  0  0  0  0
   27.6316  -20.7508   -7.4034 S   0  0  0  0  0  0  0  0  0  0  0  0
   27.0854  -21.2402   -9.1030 C   0  0  0  0  0  0  0  0  0  0  0  0
   25.7262  -20.6820   -9.3476 C   0  0  0  0  0  0  0  0  0  0  0  0
   25.2157  -20.8261  -10.7416 C   0  0  2  0  0  0  0  0  0  0  0  0
   26.2088  -20.2340  -11.6688 N   0  0  0  0  0  0  0  0  0  0  0  0
   23.8875  -20.2528  -11.0228 C   0  0  0  0  0  0  0  0  0  0  0  0
   23.7772  -19.0592  -11.4631 O   0  0  0  0  0  0  0  0  0  0  0  0
   21.7492  -22.2579  -16.1507 N   0  0  0  0  0  0  0  0  0  0  0  0
   21.1124  -21.2108  -15.4499 C   0  0  0  0  0  0  0  0  0  0  0  0
   20.8951  -20.1280  -16.0258 O   0  0  0  0  0  0  0  0  0  0  0  0
   20.7107  -21.4264  -14.0236 C   0  0  0  0  0  0  0  0  0  0  0  0
   21.9013  -21.4179  -13.1134 C   0  0  0  0  0  0  0  0  0  0  0  0
   21.5688  -20.8625  -11.7845 C   0  0  2  0  0  0  0  0  0  0  0  0
   22.6843  -20.9359  -10.8494 N   0  0  0  0  0  0  0  0  0  0  0  0
   20.3966  -21.5030  -11.2043 C   0  0  0  0  0  0  0  0  0  0  0  0
   19.1971  -21.3331  -11.5263 O   0  0  0  0  0  0  0  0  0  0  0  0
   20.5697  -22.4323  -10.1552 O   0  0  0  0  0  0  0  0  0  0  0  0
  2  1  1  0
  3  2  2  0
  4  3  1  0
  5  4  2  0
  5 11  1  0
  6  5  1  0
  7  6  1  0
  7  8  1  6
  9  7  1  0
  9 10  2  0
 11 12  2  0
 12  2  1  0
 14 13  1  0
 14 15  1  0
 15 16  1  0
 17 16  1  1
 17 19  1  0
 17 18  1  0
 18  9  1  0
 19 20  2  0
 22 24  1  0
 22 21  1  0
 23 22  2  0
 24 25  1  0
 26 25  1  6
 26 28  1  0
 27 26  1  0
 27 19  1  0
 28 29  2  0
 28 30  1  0
M  END
$$$$
