YMQ.pdb
     RDKit          3D

 30 30  0  0  1  0  0  0  0  0999 V2000
   23.0696  -25.4840  -22.9373 O   0  0  0  0  0  0  0  0  0  0  0  0
   23.8600  -26.4035  -22.2664 C   0  0  0  0  0  0  0  0  0  0  0  0
   23.7546  -27.7579  -22.4964 C   0  0  0  0  0  0  0  0  0  0  0  0
   24.5358  -28.6815  -21.8346 C   0  0  0  0  0  0  0  0  0  0  0  0
   25.4701  -28.2756  -20.8994 C   0  0  0  0  0  0  0  0  0  0  0  0
   26.3213  -29.2278  -20.1719 C   0  0  0  0  0  0  0  0  0  0  0  0
   25.5462  -29.8948  -19.0569 C   0  0  2  0  0  0  0  0  0  0  0  0
   25.2814  -28.8794  -18.0534 N   0  0  0  0  0  0  0  0  0  0  0  0
   26.3049  -31.0357  -18.4751 C   0  0  0  0  0  0  0  0  0  0  0  0
   26.6771  -31.9981  -19.2212 O   0  0  0  0  0  0  0  0  0  0  0  0
   25.5723  -26.9155  -20.6721 C   0  0  0  0  0  0  0  0  0  0  0  0
   24.7991  -25.9858  -21.3255 C   0  0  0  0  0  0  0  0  0  0  0  0
   31.8971  -32.1571  -17.6038 C   0  0  0  0  0  0  0  0  0  0  0  0
   31.4674  -32.2743  -15.8471 S   0  0  0  0  0  0  0  0  0  0  0  0
   29.7218  -32.8867  -15.7806 C   0  0  0  0  0  0  0  0  0  0  0  0
   28.8373  -31.8815  -16.4332 C   0  0  0  0  0  0  0  0  0  0  0  0
   27.4019  -32.2700  -16.5489 C   0  0  2  0  0  0  0  0  0  0  0  0
   26.6492  -31.1238  -17.1111 N   0  0  0  0  0  0  0  0  0  0  0  0
   26.7384  -32.7277  -15.3151 C   0  0  0  0  0  0  0  0  0  0  0  0
   26.6853  -31.9697  -14.2888 O   0  0  0  0  0  0  0  0  0  0  0  0
   21.6035  -33.6169  -14.9524 N   0  0  0  0  0  0  0  0  0  0  0  0
   21.9513  -34.9838  -14.8923 C   0  0  0  0  0  0  0  0  0  0  0  0
   21.1601  -35.8398  -15.3314 O   0  0  0  0  0  0  0  0  0  0  0  0
   23.2694  -35.3757  -14.2996 C   0  0  0  0  0  0  0  0  0  0  0  0
   24.0593  -34.1729  -13.8810 C   0  0  0  0  0  0  0  0  0  0  0  0
   25.5140  -34.4316  -13.9274 C   0  0  2  0  0  0  0  0  0  0  0  0
   26.1273  -33.9723  -15.1671 N   0  0  0  0  0  0  0  0  0  0  0  0
   25.8239  -35.8388  -13.7162 C   0  0  0  0  0  0  0  0  0  0  0  0
   26.9570  -36.3745  -13.6905 O   0  0  0  0  0  0  0  0  0  0  0  0
   24.7666  -36.7521  -13.5104 O   0  0  0  0  0  0  0  0  0  0  0  0
  2  1  1  0
  3  2  2  0
  4  3  1  0
  5  4  2  0
  5 11  1  0
  6  5  1  0
  7  6  1  0
  7  8  1  1
  9  7  1  0
  9 10  2  0
 11 12  2  0
 12  2  1  0
 14 13  1  0
 14 15  1  0
 15 16  1  0
 17 16  1  1
 17 19  1  0
 17 18  1  0
 18  9  1  0
 19 20  2  0
 22 24  1  0
 22 21  1  0
 23 22  2  0
 24 25  1  0
 26 25  1  6
 26 28  1  0
 27 26  1  0
 27 19  1  0
 28 29  2  0
 28 30  1  0
M  END
$$$$
