YMQ.pdb
     RDKit          3D

 30 30  0  0  1  0  0  0  0  0999 V2000
   29.6049  -19.2433   -4.3102 O   0  0  0  0  0  0  0  0  0  0  0  0
   28.9007  -19.6665   -5.4261 C   0  0  0  0  0  0  0  0  0  0  0  0
   29.5064  -20.3693   -6.4448 C   0  0  0  0  0  0  0  0  0  0  0  0
   28.8155  -20.7951   -7.5595 C   0  0  0  0  0  0  0  0  0  0  0  0
   27.4659  -20.5280   -7.6988 C   0  0  0  0  0  0  0  0  0  0  0  0
   26.6938  -20.9633   -8.8714 C   0  0  0  0  0  0  0  0  0  0  0  0
   25.6305  -19.9450   -9.2200 C   0  0  2  0  0  0  0  0  0  0  0  0
   24.4463  -20.2830   -8.4510 N   0  0  0  0  0  0  0  0  0  0  0  0
   25.3374  -19.9441  -10.6794 C   0  0  0  0  0  0  0  0  0  0  0  0
   24.1793  -20.2717  -11.0954 O   0  0  0  0  0  0  0  0  0  0  0  0
   26.8626  -19.8225   -6.6740 C   0  0  0  0  0  0  0  0  0  0  0  0
   27.5409  -19.3930   -5.5584 C   0  0  0  0  0  0  0  0  0  0  0  0
   28.9313  -16.4504  -15.2268 C   0  0  0  0  0  0  0  0  0  0  0  0
   28.5687  -18.0637  -15.9685 S   0  0  0  0  0  0  0  0  0  0  0  0
   26.9497  -18.6092  -15.2561 C   0  0  0  0  0  0  0  0  0  0  0  0
   27.1511  -18.9553  -13.8213 C   0  0  0  0  0  0  0  0  0  0  0  0
   25.9111  -19.2887  -13.0624 C   0  0  2  0  0  0  0  0  0  0  0  0
   26.2860  -19.5939  -11.6613 N   0  0  0  0  0  0  0  0  0  0  0  0
   25.0850  -20.3874  -13.5937 C   0  0  0  0  0  0  0  0  0  0  0  0
   25.4830  -21.5976  -13.5065 O   0  0  0  0  0  0  0  0  0  0  0  0
   19.7563  -22.1813  -12.0978 N   0  0  0  0  0  0  0  0  0  0  0  0
   19.8038  -22.8742  -13.3270 C   0  0  0  0  0  0  0  0  0  0  0  0
   18.9032  -23.6866  -13.6104 O   0  0  0  0  0  0  0  0  0  0  0  0
   20.9406  -22.6154  -14.2665 C   0  0  0  0  0  0  0  0  0  0  0  0
   21.8631  -21.5627  -13.7311 C   0  0  0  0  0  0  0  0  0  0  0  0
   22.9961  -21.3123  -14.6469 C   0  0  2  0  0  0  0  0  0  0  0  0
   23.8439  -20.2124  -14.2047 N   0  0  0  0  0  0  0  0  0  0  0  0
   22.5500  -21.0722  -16.0123 C   0  0  0  0  0  0  0  0  0  0  0  0
   22.4235  -19.9668  -16.5899 O   0  0  0  0  0  0  0  0  0  0  0  0
   22.2074  -22.1736  -16.8272 O   0  0  0  0  0  0  0  0  0  0  0  0
  2  1  1  0
  3  2  2  0
  4  3  1  0
  5  4  2  0
  5 11  1  0
  6  5  1  0
  7  6  1  0
  7  8  1  1
  9  7  1  0
  9 10  2  0
 11 12  2  0
 12  2  1  0
 14 13  1  0
 14 15  1  0
 15 16  1  0
 17 16  1  6
 17 19  1  0
 17 18  1  0
 18  9  1  0
 19 20  2  0
 22 24  1  0
 22 21  1  0
 23 22  2  0
 24 25  1  0
 26 25  1  1
 26 28  1  0
 27 26  1  0
 27 19  1  0
 28 29  2  0
 28 30  1  0
M  END
$$$$
