CHF.pdb
     RDKit          3D

 28 29  0  0  1  0  0  0  0  0999 V2000
    5.7466  -19.3598   21.2625 N   0  0  0  0  0  0  0  0  0  0  0  0
    5.7519  -17.9316   21.4127 C   0  0  1  0  0  0  0  0  0  0  0  0
    4.8340  -17.4943   22.5463 C   0  0  0  0  0  0  0  0  0  0  0  0
    5.3741  -18.2459   24.1015 S   0  0  0  0  0  0  0  0  0  0  0  0
    7.1505  -17.4744   21.7792 C   0  0  0  0  0  0  0  0  0  0  0  0
    7.9187  -18.3010   22.3080 O   0  0  0  0  0  0  0  0  0  0  0  0
    7.5577  -16.1544   21.5253 N   0  0  0  0  0  0  0  0  0  0  0  0
    8.8389  -15.6066   21.8035 C   0  0  1  0  0  0  0  0  0  0  0  0
    9.2405  -14.4139   20.9372 C   0  0  0  0  0  0  0  0  0  0  0  0
    9.0077  -14.6614   19.4916 C   0  0  0  0  0  0  0  0  0  0  0  0
    9.7523  -15.6065   18.7593 C   0  0  0  0  0  0  0  0  0  0  0  0
    9.3024  -15.5900   17.5151 N   0  0  0  0  0  0  0  0  0  0  0  0
    8.3233  -14.6820   17.4598 C   0  0  0  0  0  0  0  0  0  0  0  0
    8.1332  -14.1098   18.6528 N   0  0  0  0  0  0  0  0  0  0  0  0
    9.0777  -15.2544   23.2136 C   0  0  0  0  0  0  0  0  0  0  0  0
    8.7143  -14.1156   23.6382 O   0  0  0  0  0  0  0  0  0  0  0  0
    9.6888  -16.1011   24.1422 N   0  0  0  0  0  0  0  0  0  0  0  0
    9.5769  -15.9436   25.5847 C   0  0  1  0  0  0  0  0  0  0  0  0
    8.1728  -15.8575   26.0420 C   0  0  0  0  0  0  0  0  0  0  0  0
    7.8123  -14.4677   26.3688 C   0  0  0  0  0  0  0  0  0  0  0  0
    6.6123  -13.9309   25.8815 C   0  0  0  0  0  0  0  0  0  0  0  0
    6.2068  -12.6681   26.1662 C   0  0  0  0  0  0  0  0  0  0  0  0
    6.9786  -11.8516   26.9625 C   0  0  0  0  0  0  0  0  0  0  0  0
    8.1884  -12.3293   27.4804 C   0  0  0  0  0  0  0  0  0  0  0  0
    8.5515  -13.6158   27.1608 C   0  0  0  0  0  0  0  0  0  0  0  0
   10.2817  -17.0639   26.2273 C   0  0  0  0  0  0  0  0  0  0  0  0
   10.5961  -17.0786   27.5886 O   0  0  0  0  0  0  0  0  0  0  0  0
   10.6290  -18.0724   25.5178 O   0  0  0  0  0  0  0  0  0  0  0  0
  2  1  1  1
  3  2  1  0
  3  4  1  0
  5  2  1  0
  5  6  2  0
  7  5  1  0
  8  7  1  0
  8  9  1  6
 10  9  1  0
 10 14  1  0
 11 12  1  0
 11 10  2  0
 12 13  1  0
 13 14  2  0
 15  8  1  0
 16 15  2  0
 17 15  1  0
 18 17  1  0
 18 26  1  0
 18 19  1  6
 20 19  1  0
 21 20  2  0
 22 21  1  0
 23 22  2  0
 23 24  1  0
 24 25  2  0
 25 20  1  0
 26 27  1  0
 28 26  2  0
M  END
$$$$
