CHF.pdb
     RDKit          3D

 28 29  0  0  1  0  0  0  0  0999 V2000
    6.9093  -19.5832   20.4586 N   0  0  0  0  0  0  0  0  0  0  0  0
    6.6209  -18.5904   21.4554 C   0  0  1  0  0  0  0  0  0  0  0  0
    6.3675  -19.2315   22.8132 C   0  0  0  0  0  0  0  0  0  0  0  0
    5.8090  -17.9773   23.9924 S   0  0  0  0  0  0  0  0  0  0  0  0
    7.8245  -17.6822   21.6167 C   0  0  0  0  0  0  0  0  0  0  0  0
    8.9568  -18.2027   21.6185 O   0  0  0  0  0  0  0  0  0  0  0  0
    7.6561  -16.2951   21.7591 N   0  0  0  0  0  0  0  0  0  0  0  0
    8.6790  -15.3549   22.0565 C   0  0  1  0  0  0  0  0  0  0  0  0
    8.4221  -13.9327   21.5606 C   0  0  0  0  0  0  0  0  0  0  0  0
    8.3365  -13.8573   20.0801 C   0  0  0  0  0  0  0  0  0  0  0  0
    8.5752  -14.9724   19.2533 C   0  0  0  0  0  0  0  0  0  0  0  0
    8.4157  -14.5800   17.9998 N   0  0  0  0  0  0  0  0  0  0  0  0
    8.0926  -13.2836   18.0286 C   0  0  0  0  0  0  0  0  0  0  0  0
    8.0407  -12.8308   19.2853 N   0  0  0  0  0  0  0  0  0  0  0  0
    9.0742  -15.2854   23.4737 C   0  0  0  0  0  0  0  0  0  0  0  0
   10.0246  -14.5179   23.8153 O   0  0  0  0  0  0  0  0  0  0  0  0
    8.4659  -16.0189   24.4958 N   0  0  0  0  0  0  0  0  0  0  0  0
    8.8779  -15.9682   25.8907 C   0  0  1  0  0  0  0  0  0  0  0  0
    7.7647  -15.6247   26.8023 C   0  0  0  0  0  0  0  0  0  0  0  0
    7.4729  -14.1823   26.7529 C   0  0  0  0  0  0  0  0  0  0  0  0
    6.1922  -13.7472   26.3843 C   0  0  0  0  0  0  0  0  0  0  0  0
    5.8484  -12.4355   26.3444 C   0  0  0  0  0  0  0  0  0  0  0  0
    6.7678  -11.4642   26.6725 C   0  0  0  0  0  0  0  0  0  0  0  0
    8.0643  -11.8343   27.0493 C   0  0  0  0  0  0  0  0  0  0  0  0
    8.3594  -13.1766   27.0729 C   0  0  0  0  0  0  0  0  0  0  0  0
    9.4773  -17.2651   26.2422 C   0  0  0  0  0  0  0  0  0  0  0  0
   10.0535  -17.5187   27.4896 O   0  0  0  0  0  0  0  0  0  0  0  0
    9.4790  -18.2078   25.3749 O   0  0  0  0  0  0  0  0  0  0  0  0
  2  1  1  6
  3  2  1  0
  3  4  1  0
  5  2  1  0
  5  6  2  0
  7  5  1  0
  8  7  1  0
  8  9  1  1
 10  9  1  0
 10 14  1  0
 11 12  1  0
 11 10  2  0
 12 13  1  0
 13 14  2  0
 15  8  1  0
 16 15  2  0
 17 15  1  0
 18 17  1  0
 18 26  1  0
 18 19  1  1
 20 19  1  0
 21 20  2  0
 22 21  1  0
 23 22  2  0
 23 24  1  0
 24 25  2  0
 25 20  1  0
 26 27  1  0
 28 26  2  0
M  END
$$$$
