CHF.pdb
     RDKit          3D

 28 29  0  0  1  0  0  0  0  0999 V2000
    7.0507  -13.2422   19.5628 N   0  0  0  0  0  0  0  0  0  0  0  0
    8.3202  -13.7961   19.9421 C   0  0  1  0  0  0  0  0  0  0  0  0
    9.2431  -12.7229   20.5035 C   0  0  0  0  0  0  0  0  0  0  0  0
    8.3332  -11.6723   21.6627 S   0  0  0  0  0  0  0  0  0  0  0  0
    8.1095  -14.8148   21.0454 C   0  0  0  0  0  0  0  0  0  0  0  0
    7.0612  -14.7461   21.7157 O   0  0  0  0  0  0  0  0  0  0  0  0
    9.0752  -15.8034   21.2959 N   0  0  0  0  0  0  0  0  0  0  0  0
    9.0029  -16.8079   22.2983 C   0  0  1  0  0  0  0  0  0  0  0  0
    9.7936  -18.0816   22.0036 C   0  0  0  0  0  0  0  0  0  0  0  0
    9.1825  -18.8874   20.9163 C   0  0  0  0  0  0  0  0  0  0  0  0
    7.8892  -18.6284   20.4217 C   0  0  0  0  0  0  0  0  0  0  0  0
    7.6451  -19.5093   19.4652 N   0  0  0  0  0  0  0  0  0  0  0  0
    8.7264  -20.2873   19.3576 C   0  0  0  0  0  0  0  0  0  0  0  0
    9.6684  -19.9214   20.2326 N   0  0  0  0  0  0  0  0  0  0  0  0
    9.3398  -16.3600   23.6604 C   0  0  0  0  0  0  0  0  0  0  0  0
   10.3222  -15.5755   23.8299 O   0  0  0  0  0  0  0  0  0  0  0  0
    8.6413  -16.7428   24.8086 N   0  0  0  0  0  0  0  0  0  0  0  0
    8.9570  -16.2715   26.1488 C   0  0  1  0  0  0  0  0  0  0  0  0
    7.7588  -15.8290   26.8949 C   0  0  0  0  0  0  0  0  0  0  0  0
    7.3416  -14.4836   26.4659 C   0  0  0  0  0  0  0  0  0  0  0  0
    6.1456  -14.3245   25.7518 C   0  0  0  0  0  0  0  0  0  0  0  0
    5.6891  -13.1119   25.3501 C   0  0  0  0  0  0  0  0  0  0  0  0
    6.4022  -11.9692   25.6370 C   0  0  0  0  0  0  0  0  0  0  0  0
    7.6049  -12.0614   26.3477 C   0  0  0  0  0  0  0  0  0  0  0  0
    8.0211  -13.3141   26.7306 C   0  0  0  0  0  0  0  0  0  0  0  0
    9.6647  -17.3469   26.8613 C   0  0  0  0  0  0  0  0  0  0  0  0
   10.2666  -17.1593   28.1082 O   0  0  0  0  0  0  0  0  0  0  0  0
    9.7408  -18.5072   26.3239 O   0  0  0  0  0  0  0  0  0  0  0  0
  2  1  1  1
  3  2  1  0
  3  4  1  0
  5  2  1  0
  5  6  2  0
  7  5  1  0
  8  7  1  0
  8  9  1  6
 10  9  1  0
 10 14  1  0
 11 12  1  0
 11 10  2  0
 12 13  1  0
 13 14  2  0
 15  8  1  0
 16 15  2  0
 17 15  1  0
 18 17  1  0
 18 26  1  0
 18 19  1  1
 20 19  1  0
 21 20  2  0
 22 21  1  0
 23 22  2  0
 23 24  1  0
 24 25  2  0
 25 20  1  0
 26 27  1  0
 28 26  2  0
M  END
$$$$
