CHF.pdb
     RDKit          3D

 28 29  0  0  1  0  0  0  0  0999 V2000
    6.3290  -18.9164   20.0702 N   0  0  0  0  0  0  0  0  0  0  0  0
    6.1427  -18.0022   21.1619 C   0  0  1  0  0  0  0  0  0  0  0  0
    5.9048  -18.7470   22.4687 C   0  0  0  0  0  0  0  0  0  0  0  0
    5.5450  -17.5678   23.7935 S   0  0  0  0  0  0  0  0  0  0  0  0
    7.4056  -17.1835   21.3471 C   0  0  0  0  0  0  0  0  0  0  0  0
    8.5011  -17.7370   21.1311 O   0  0  0  0  0  0  0  0  0  0  0  0
    7.3309  -15.8404   21.7508 N   0  0  0  0  0  0  0  0  0  0  0  0
    8.4336  -14.9840   22.0146 C   0  0  1  0  0  0  0  0  0  0  0  0
    8.3587  -13.6043   21.3625 C   0  0  0  0  0  0  0  0  0  0  0  0
    8.2647  -13.6829   19.8827 C   0  0  0  0  0  0  0  0  0  0  0  0
    7.2403  -13.0435   19.1574 C   0  0  0  0  0  0  0  0  0  0  0  0
    7.4408  -13.3003   17.8750 N   0  0  0  0  0  0  0  0  0  0  0  0
    8.5351  -14.0627   17.7899 C   0  0  0  0  0  0  0  0  0  0  0  0
    9.0464  -14.3034   19.0013 N   0  0  0  0  0  0  0  0  0  0  0  0
    8.7613  -14.8043   23.4393 C   0  0  0  0  0  0  0  0  0  0  0  0
    8.6121  -13.6620   23.9704 O   0  0  0  0  0  0  0  0  0  0  0  0
    9.2354  -15.8224   24.2709 N   0  0  0  0  0  0  0  0  0  0  0  0
    9.1700  -15.7833   25.7242 C   0  0  1  0  0  0  0  0  0  0  0  0
    7.7884  -15.6273   26.2292 C   0  0  0  0  0  0  0  0  0  0  0  0
    7.4669  -14.2068   26.4461 C   0  0  0  0  0  0  0  0  0  0  0  0
    6.1778  -13.7369   26.1579 C   0  0  0  0  0  0  0  0  0  0  0  0
    5.8070  -12.4477   26.3596 C   0  0  0  0  0  0  0  0  0  0  0  0
    6.7058  -11.5355   26.8663 C   0  0  0  0  0  0  0  0  0  0  0  0
    8.0092  -11.9428   27.1746 C   0  0  0  0  0  0  0  0  0  0  0  0
    8.3320  -13.2601   26.9510 C   0  0  0  0  0  0  0  0  0  0  0  0
    9.7964  -17.0075   26.2474 C   0  0  0  0  0  0  0  0  0  0  0  0
   10.2446  -18.0405   25.4204 O   0  0  0  0  0  0  0  0  0  0  0  0
    9.9392  -17.1439   27.5131 O   0  0  0  0  0  0  0  0  0  0  0  0
  2  1  1  6
  3  2  1  0
  3  4  1  0
  5  2  1  0
  5  6  2  0
  7  5  1  0
  8  7  1  0
  8  9  1  1
 10  9  1  0
 10 14  1  0
 11 12  1  0
 11 10  2  0
 12 13  1  0
 13 14  2  0
 15  8  1  0
 16 15  2  0
 17 15  1  0
 18 17  1  0
 18 26  1  0
 18 19  1  6
 20 19  1  0
 21 20  2  0
 22 21  1  0
 23 22  2  0
 23 24  1  0
 24 25  2  0
 25 20  1  0
 26 27  1  0
 28 26  2  0
M  END
$$$$
