CHF.pdb
     RDKit          3D

 28 29  0  0  1  0  0  0  0  0999 V2000
    5.9766  -19.0292   20.8632 N   0  0  0  0  0  0  0  0  0  0  0  0
    6.0502  -18.1843   22.0221 C   0  0  1  0  0  0  0  0  0  0  0  0
    5.9498  -18.9994   23.3044 C   0  0  0  0  0  0  0  0  0  0  0  0
    5.8436  -17.8920   24.7319 S   0  0  0  0  0  0  0  0  0  0  0  0
    7.3982  -17.4902   22.0477 C   0  0  0  0  0  0  0  0  0  0  0  0
    8.4193  -18.1843   21.8788 O   0  0  0  0  0  0  0  0  0  0  0  0
    7.4815  -16.1038   22.2566 N   0  0  0  0  0  0  0  0  0  0  0  0
    8.6772  -15.3522   22.4122 C   0  0  1  0  0  0  0  0  0  0  0  0
    8.6264  -13.9255   21.8677 C   0  0  0  0  0  0  0  0  0  0  0  0
    8.3138  -13.8851   20.4166 C   0  0  0  0  0  0  0  0  0  0  0  0
    8.2563  -15.0490   19.6252 C   0  0  0  0  0  0  0  0  0  0  0  0
    7.9530  -14.6772   18.3922 N   0  0  0  0  0  0  0  0  0  0  0  0
    7.8245  -13.3470   18.3996 C   0  0  0  0  0  0  0  0  0  0  0  0
    8.0408  -12.8520   19.6224 N   0  0  0  0  0  0  0  0  0  0  0  0
    9.2141  -15.3044   23.7830 C   0  0  0  0  0  0  0  0  0  0  0  0
   10.3261  -14.7316   23.9935 O   0  0  0  0  0  0  0  0  0  0  0  0
    8.5750  -15.8556   24.8967 N   0  0  0  0  0  0  0  0  0  0  0  0
    9.1422  -15.8697   26.2369 C   0  0  1  0  0  0  0  0  0  0  0  0
    8.1775  -15.4316   27.2692 C   0  0  0  0  0  0  0  0  0  0  0  0
    7.6656  -14.0838   26.9699 C   0  0  0  0  0  0  0  0  0  0  0  0
    8.4738  -12.9654   27.2178 C   0  0  0  0  0  0  0  0  0  0  0  0
    8.0753  -11.6987   26.9405 C   0  0  0  0  0  0  0  0  0  0  0  0
    6.8337  -11.4633   26.3931 C   0  0  0  0  0  0  0  0  0  0  0  0
    5.9793  -12.5386   26.1217 C   0  0  0  0  0  0  0  0  0  0  0  0
    6.4330  -13.8009   26.4219 C   0  0  0  0  0  0  0  0  0  0  0  0
    9.6421  -17.2258   26.5122 C   0  0  0  0  0  0  0  0  0  0  0  0
    9.5259  -18.2750   25.5968 O   0  0  0  0  0  0  0  0  0  0  0  0
   10.2070  -17.4667   27.6363 O   0  0  0  0  0  0  0  0  0  0  0  0
  2  1  1  6
  3  2  1  0
  3  4  1  0
  5  2  1  0
  5  6  2  0
  7  5  1  0
  8  7  1  0
  8  9  1  1
 10  9  1  0
 10 14  1  0
 11 12  1  0
 11 10  2  0
 12 13  1  0
 13 14  2  0
 15  8  1  0
 16 15  2  0
 17 15  1  0
 18 17  1  0
 18 26  1  0
 18 19  1  1
 20 19  1  0
 21 20  2  0
 22 21  1  0
 23 22  2  0
 23 24  1  0
 24 25  2  0
 25 20  1  0
 26 27  1  0
 28 26  2  0
M  END
$$$$
