CHF.pdb
     RDKit          3D

 28 29  0  0  1  0  0  0  0  0999 V2000
    7.3634  -13.9331   18.6983 N   0  0  0  0  0  0  0  0  0  0  0  0
    8.4478  -13.8263   19.6336 C   0  0  1  0  0  0  0  0  0  0  0  0
    8.4020  -12.4997   20.3798 C   0  0  0  0  0  0  0  0  0  0  0  0
    7.6753  -12.7398   22.0198 S   0  0  0  0  0  0  0  0  0  0  0  0
    8.3168  -14.9205   20.6752 C   0  0  0  0  0  0  0  0  0  0  0  0
    7.1912  -15.4217   20.8621 O   0  0  0  0  0  0  0  0  0  0  0  0
    9.4390  -15.3492   21.4029 N   0  0  0  0  0  0  0  0  0  0  0  0
    9.4970  -16.4802   22.2610 C   0  0  1  0  0  0  0  0  0  0  0  0
   10.6414  -17.4531   21.9817 C   0  0  0  0  0  0  0  0  0  0  0  0
   10.4878  -18.1469   20.6778 C   0  0  0  0  0  0  0  0  0  0  0  0
   11.0072  -17.6215   19.4786 C   0  0  0  0  0  0  0  0  0  0  0  0
   10.7095  -18.4718   18.5096 N   0  0  0  0  0  0  0  0  0  0  0  0
   10.0362  -19.4844   19.0640 C   0  0  0  0  0  0  0  0  0  0  0  0
    9.8939  -19.3009   20.3804 N   0  0  0  0  0  0  0  0  0  0  0  0
    9.4917  -16.1750   23.7020 C   0  0  0  0  0  0  0  0  0  0  0  0
   10.1845  -15.2035   24.1324 O   0  0  0  0  0  0  0  0  0  0  0  0
    8.7626  -16.8921   24.6543 N   0  0  0  0  0  0  0  0  0  0  0  0
    8.6339  -16.4962   26.0488 C   0  0  1  0  0  0  0  0  0  0  0  0
    7.2640  -16.0567   26.3929 C   0  0  0  0  0  0  0  0  0  0  0  0
    7.1698  -14.5872   26.3939 C   0  0  0  0  0  0  0  0  0  0  0  0
    8.2690  -13.8233   26.8106 C   0  0  0  0  0  0  0  0  0  0  0  0
    8.2594  -12.4667   26.8108 C   0  0  0  0  0  0  0  0  0  0  0  0
    7.1429  -11.7781   26.3916 C   0  0  0  0  0  0  0  0  0  0  0  0
    6.0122  -12.4837   25.9631 C   0  0  0  0  0  0  0  0  0  0  0  0
    6.0757  -13.8565   25.9830 C   0  0  0  0  0  0  0  0  0  0  0  0
    9.0614  -17.6248   26.8903 C   0  0  0  0  0  0  0  0  0  0  0  0
    9.5526  -17.4574   28.1876 O   0  0  0  0  0  0  0  0  0  0  0  0
    8.9872  -18.8153   26.4231 O   0  0  0  0  0  0  0  0  0  0  0  0
  2  1  1  6
  3  2  1  0
  3  4  1  0
  5  2  1  0
  5  6  2  0
  7  5  1  0
  8  7  1  0
  8  9  1  6
 10  9  1  0
 10 14  1  0
 11 12  1  0
 11 10  2  0
 12 13  1  0
 13 14  2  0
 15  8  1  0
 16 15  2  0
 17 15  1  0
 18 17  1  0
 18 26  1  0
 18 19  1  1
 20 19  1  0
 21 20  2  0
 22 21  1  0
 23 22  2  0
 23 24  1  0
 24 25  2  0
 25 20  1  0
 26 27  1  0
 28 26  2  0
M  END
$$$$
