CHF.pdb
     RDKit          3D

 28 29  0  0  1  0  0  0  0  0999 V2000
    7.9197  -15.1288   17.8234 N   0  0  0  0  0  0  0  0  0  0  0  0
    8.5298  -14.4823   18.9513 C   0  0  1  0  0  0  0  0  0  0  0  0
    7.9015  -13.1197   19.2105 C   0  0  0  0  0  0  0  0  0  0  0  0
    8.7543  -12.2980   20.5791 S   0  0  0  0  0  0  0  0  0  0  0  0
    8.2922  -15.3187   20.1936 C   0  0  0  0  0  0  0  0  0  0  0  0
    7.1148  -15.5292   20.5434 O   0  0  0  0  0  0  0  0  0  0  0  0
    9.3759  -15.8365   20.9216 N   0  0  0  0  0  0  0  0  0  0  0  0
    9.2904  -16.6431   22.0882 C   0  0  1  0  0  0  0  0  0  0  0  0
    9.8012  -18.0744   21.9305 C   0  0  0  0  0  0  0  0  0  0  0  0
    9.0332  -18.8402   20.9163 C   0  0  0  0  0  0  0  0  0  0  0  0
    7.8498  -19.5352   21.2336 C   0  0  0  0  0  0  0  0  0  0  0  0
    7.4114  -20.1031   20.1218 N   0  0  0  0  0  0  0  0  0  0  0  0
    8.2712  -19.7856   19.1492 C   0  0  0  0  0  0  0  0  0  0  0  0
    9.2614  -19.0189   19.6168 N   0  0  0  0  0  0  0  0  0  0  0  0
    9.9023  -16.0649   23.2968 C   0  0  0  0  0  0  0  0  0  0  0  0
   10.9892  -15.4191   23.1930 O   0  0  0  0  0  0  0  0  0  0  0  0
    9.3624  -16.1761   24.5808 N   0  0  0  0  0  0  0  0  0  0  0  0
    9.9691  -15.6007   25.7719 C   0  0  1  0  0  0  0  0  0  0  0  0
    9.8273  -14.1294   25.8303 C   0  0  0  0  0  0  0  0  0  0  0  0
    8.4204  -13.7463   26.0354 C   0  0  0  0  0  0  0  0  0  0  0  0
    8.1144  -12.6388   26.8388 C   0  0  0  0  0  0  0  0  0  0  0  0
    6.8427  -12.2154   27.0476 C   0  0  0  0  0  0  0  0  0  0  0  0
    5.7843  -12.8749   26.4635 C   0  0  0  0  0  0  0  0  0  0  0  0
    6.0239  -13.9886   25.6497 C   0  0  0  0  0  0  0  0  0  0  0  0
    7.3309  -14.3748   25.4716 C   0  0  0  0  0  0  0  0  0  0  0  0
    9.3698  -16.2437   26.9518 C   0  0  0  0  0  0  0  0  0  0  0  0
    9.8299  -16.0181   28.2516 O   0  0  0  0  0  0  0  0  0  0  0  0
    8.3860  -17.0485   26.7921 O   0  0  0  0  0  0  0  0  0  0  0  0
  2  1  1  6
  3  2  1  0
  3  4  1  0
  5  2  1  0
  5  6  2  0
  7  5  1  0
  8  7  1  0
  8  9  1  6
 10  9  1  0
 10 14  1  0
 11 12  1  0
 11 10  2  0
 12 13  1  0
 13 14  2  0
 15  8  1  0
 16 15  2  0
 17 15  1  0
 18 17  1  0
 18 26  1  0
 18 19  1  1
 20 19  1  0
 21 20  2  0
 22 21  1  0
 23 22  2  0
 23 24  1  0
 24 25  2  0
 25 20  1  0
 26 27  1  0
 28 26  2  0
M  END
$$$$
