CHF.pdb
     RDKit          3D

 28 29  0  0  1  0  0  0  0  0999 V2000
   12.6786  -17.3181   19.3032 N   0  0  0  0  0  0  0  0  0  0  0  0
   11.8401  -18.0217   20.2328 C   0  0  1  0  0  0  0  0  0  0  0  0
   12.6352  -19.0579   21.0157 C   0  0  0  0  0  0  0  0  0  0  0  0
   11.5722  -19.8471   22.2496 S   0  0  0  0  0  0  0  0  0  0  0  0
   11.2841  -17.0387   21.2448 C   0  0  0  0  0  0  0  0  0  0  0  0
   12.0893  -16.4297   21.9754 O   0  0  0  0  0  0  0  0  0  0  0  0
    9.8992  -16.8286   21.3471 N   0  0  0  0  0  0  0  0  0  0  0  0
    9.2546  -15.9163   22.2252 C   0  0  1  0  0  0  0  0  0  0  0  0
    7.8158  -15.5602   21.8546 C   0  0  0  0  0  0  0  0  0  0  0  0
    7.7403  -14.6873   20.6557 C   0  0  0  0  0  0  0  0  0  0  0  0
    8.8876  -14.1422   20.0468 C   0  0  0  0  0  0  0  0  0  0  0  0
    8.4852  -13.4238   19.0111 N   0  0  0  0  0  0  0  0  0  0  0  0
    7.1523  -13.5081   18.9644 C   0  0  0  0  0  0  0  0  0  0  0  0
    6.6857  -14.2722   19.9570 N   0  0  0  0  0  0  0  0  0  0  0  0
    9.2859  -16.2887   23.6499 C   0  0  0  0  0  0  0  0  0  0  0  0
    9.3044  -17.5162   23.9695 O   0  0  0  0  0  0  0  0  0  0  0  0
    9.2975  -15.3693   24.7022 N   0  0  0  0  0  0  0  0  0  0  0  0
    9.4134  -15.7389   26.1051 C   0  0  1  0  0  0  0  0  0  0  0  0
    9.3948  -14.5667   27.0072 C   0  0  0  0  0  0  0  0  0  0  0  0
    8.3001  -13.6485   26.6509 C   0  0  0  0  0  0  0  0  0  0  0  0
    7.1813  -13.5466   27.4896 C   0  0  0  0  0  0  0  0  0  0  0  0
    6.1508  -12.7019   27.2353 C   0  0  0  0  0  0  0  0  0  0  0  0
    6.1695  -11.8968   26.1182 C   0  0  0  0  0  0  0  0  0  0  0  0
    7.2592  -11.9518   25.2410 C   0  0  0  0  0  0  0  0  0  0  0  0
    8.2760  -12.8248   25.5461 C   0  0  0  0  0  0  0  0  0  0  0  0
    8.3279  -16.6788   26.4259 C   0  0  0  0  0  0  0  0  0  0  0  0
    7.2726  -16.9432   25.5492 O   0  0  0  0  0  0  0  0  0  0  0  0
    8.3391  -17.2837   27.5550 O   0  0  0  0  0  0  0  0  0  0  0  0
  2  1  1  6
  3  2  1  0
  3  4  1  0
  5  2  1  0
  5  6  2  0
  7  5  1  0
  8  7  1  0
  8  9  1  6
 10  9  1  0
 10 14  1  0
 11 12  1  0
 11 10  2  0
 12 13  1  0
 13 14  2  0
 15  8  1  0
 16 15  2  0
 17 15  1  0
 18 17  1  0
 18 26  1  0
 18 19  1  1
 20 19  1  0
 21 20  2  0
 22 21  1  0
 23 22  2  0
 23 24  1  0
 24 25  2  0
 25 20  1  0
 26 27  1  0
 28 26  2  0
M  END
$$$$
