CHF.pdb
     RDKit          3D

 28 29  0  0  1  0  0  0  0  0999 V2000
    7.4668  -14.2085   18.2320 N   0  0  0  0  0  0  0  0  0  0  0  0
    8.2029  -13.8259   19.4042 C   0  0  1  0  0  0  0  0  0  0  0  0
    7.6442  -12.5461   20.0113 C   0  0  0  0  0  0  0  0  0  0  0  0
    8.5839  -12.1059   21.4941 S   0  0  0  0  0  0  0  0  0  0  0  0
    8.0620  -14.9088   20.4564 C   0  0  0  0  0  0  0  0  0  0  0  0
    6.9628  -15.4867   20.5607 O   0  0  0  0  0  0  0  0  0  0  0  0
    9.1462  -15.2427   21.2845 N   0  0  0  0  0  0  0  0  0  0  0  0
    9.2149  -16.3571   22.1632 C   0  0  1  0  0  0  0  0  0  0  0  0
   10.1928  -17.4554   21.7488 C   0  0  0  0  0  0  0  0  0  0  0  0
   10.0197  -18.6965   22.5453 C   0  0  0  0  0  0  0  0  0  0  0  0
    8.7875  -19.3742   22.6268 C   0  0  0  0  0  0  0  0  0  0  0  0
    8.9657  -20.4326   23.4006 N   0  0  0  0  0  0  0  0  0  0  0  0
   10.2441  -20.4277   23.7903 C   0  0  0  0  0  0  0  0  0  0  0  0
   10.8966  -19.3791   23.2787 N   0  0  0  0  0  0  0  0  0  0  0  0
    9.4636  -16.0267   23.5769 C   0  0  0  0  0  0  0  0  0  0  0  0
   10.4350  -15.2671   23.8743 O   0  0  0  0  0  0  0  0  0  0  0  0
    8.6908  -16.4979   24.6416 N   0  0  0  0  0  0  0  0  0  0  0  0
    8.9465  -16.1770   26.0379 C   0  0  1  0  0  0  0  0  0  0  0  0
    7.7179  -15.8016   26.7712 C   0  0  0  0  0  0  0  0  0  0  0  0
    7.2997  -14.4324   26.4268 C   0  0  0  0  0  0  0  0  0  0  0  0
    8.1178  -13.3496   26.7786 C   0  0  0  0  0  0  0  0  0  0  0  0
    7.8063  -12.0662   26.4687 C   0  0  0  0  0  0  0  0  0  0  0  0
    6.6484  -11.7770   25.7816 C   0  0  0  0  0  0  0  0  0  0  0  0
    5.7890  -12.8147   25.4015 C   0  0  0  0  0  0  0  0  0  0  0  0
    6.1526  -14.0961   25.7407 C   0  0  0  0  0  0  0  0  0  0  0  0
    9.6113  -17.3315   26.6624 C   0  0  0  0  0  0  0  0  0  0  0  0
   10.1673  -17.2823   27.9432 O   0  0  0  0  0  0  0  0  0  0  0  0
    9.6920  -18.4324   26.0124 O   0  0  0  0  0  0  0  0  0  0  0  0
  2  1  1  6
  3  2  1  0
  3  4  1  0
  5  2  1  0
  5  6  2  0
  7  5  1  0
  8  7  1  0
  8  9  1  6
 10  9  1  0
 10 14  1  0
 11 12  1  0
 11 10  2  0
 12 13  1  0
 13 14  2  0
 15  8  1  0
 16 15  2  0
 17 15  1  0
 18 17  1  0
 18 26  1  0
 18 19  1  1
 20 19  1  0
 21 20  2  0
 22 21  1  0
 23 22  2  0
 23 24  1  0
 24 25  2  0
 25 20  1  0
 26 27  1  0
 28 26  2  0
M  END
$$$$
