SCF.pdb
     RDKit          3D

 24 24  0  0  1  0  0  0  0  0999 V2000
   27.4675  -18.1966  -15.5260 O   0  0  0  0  0  0  0  0  0  0  0  0
   27.8298  -19.0297  -16.5654 C   0  0  0  0  0  0  0  0  0  0  0  0
   28.8014  -20.0658  -16.0421 C   0  0  2  0  0  0  0  0  0  0  0  0
   29.3313  -20.8513  -17.1177 N   0  0  0  0  0  0  0  0  0  0  0  0
   28.0932  -20.8773  -15.0239 C   0  0  0  0  0  0  0  0  0  0  0  0
   27.0887  -21.5226  -15.4091 O   0  0  0  0  0  0  0  0  0  0  0  0
   28.4689  -20.9682  -13.6778 N   0  0  0  0  0  0  0  0  0  0  0  0
   27.6657  -21.5561  -12.6273 C   0  0  1  0  0  0  0  0  0  0  0  0
   28.4511  -21.7993  -11.3670 C   0  0  0  0  0  0  0  0  0  0  0  0
   29.1043  -20.2361  -10.7589 S   0  0  0  0  0  0  0  0  0  0  0  0
   26.5406  -20.6433  -12.2799 C   0  0  0  0  0  0  0  0  0  0  0  0
   26.7238  -19.3872  -12.1987 O   0  0  0  0  0  0  0  0  0  0  0  0
   25.2450  -21.1371  -12.0316 N   0  0  0  0  0  0  0  0  0  0  0  0
   24.1287  -20.2583  -11.6536 C   0  0  1  0  0  0  0  0  0  0  0  0
   23.9051  -19.3523  -12.8608 C   0  0  0  0  0  0  0  0  0  0  0  0
   23.4099  -20.0794  -14.0338 C   0  0  0  0  0  0  0  0  0  0  0  0
   24.2713  -20.6451  -14.9463 C   0  0  0  0  0  0  0  0  0  0  0  0
   23.7536  -21.3211  -16.0383 C   0  0  0  0  0  0  0  0  0  0  0  0
   22.3951  -21.4470  -16.2433 C   0  0  0  0  0  0  0  0  0  0  0  0
   21.5355  -20.8834  -15.3345 C   0  0  0  0  0  0  0  0  0  0  0  0
   22.0543  -20.1987  -14.2283 C   0  0  0  0  0  0  0  0  0  0  0  0
   22.9359  -21.1030  -11.4443 C   0  0  0  0  0  0  0  0  0  0  0  0
   23.0348  -22.4694  -11.6034 O   0  0  0  0  0  0  0  0  0  0  0  0
   21.8062  -20.6439  -11.1222 O   0  0  0  0  0  0  0  0  0  0  0  0
  1  2  1  0
  2  3  1  0
  3  5  1  0
  3  4  1  6
  5  6  2  0
  7  8  1  0
  7  5  1  0
  8 11  1  0
  9 10  1  0
  8  9  1  1
 11 12  2  0
 11 13  1  0
 13 14  1  0
 14 22  1  0
 14 15  1  6
 16 15  1  0
 16 17  2  0
 18 17  1  0
 19 18  2  0
 20 21  2  0
 20 19  1  0
 21 16  1  0
 22 24  2  0
 22 23  1  0
M  END
$$$$
