SCF.pdb
     RDKit          3D

 24 24  0  0  1  0  0  0  0  0999 V2000
   24.5959  -23.4220  -15.4081 O   0  0  0  0  0  0  0  0  0  0  0  0
   25.9722  -23.3136  -15.4171 C   0  0  0  0  0  0  0  0  0  0  0  0
   26.3479  -21.9335  -15.9124 C   0  0  2  0  0  0  0  0  0  0  0  0
   27.0830  -22.0193  -17.1399 N   0  0  0  0  0  0  0  0  0  0  0  0
   27.0996  -21.2534  -14.8312 C   0  0  0  0  0  0  0  0  0  0  0  0
   28.2049  -20.7462  -15.1391 O   0  0  0  0  0  0  0  0  0  0  0  0
   26.6605  -21.1424  -13.5059 N   0  0  0  0  0  0  0  0  0  0  0  0
   27.0589  -20.1028  -12.5813 C   0  0  1  0  0  0  0  0  0  0  0  0
   26.3011  -18.8201  -12.7927 C   0  0  0  0  0  0  0  0  0  0  0  0
   27.1439  -17.8259  -14.0342 S   0  0  0  0  0  0  0  0  0  0  0  0
   26.8017  -20.5448  -11.1819 C   0  0  0  0  0  0  0  0  0  0  0  0
   25.6965  -21.0886  -10.8646 O   0  0  0  0  0  0  0  0  0  0  0  0
   27.7671  -20.3765  -10.1701 N   0  0  0  0  0  0  0  0  0  0  0  0
   27.4961  -20.7067   -8.7635 C   0  0  1  0  0  0  0  0  0  0  0  0
   28.6348  -20.0666   -7.9748 C   0  0  0  0  0  0  0  0  0  0  0  0
   28.4163  -20.1079   -6.5254 C   0  0  0  0  0  0  0  0  0  0  0  0
   28.6339  -21.2556   -5.7973 C   0  0  0  0  0  0  0  0  0  0  0  0
   28.4121  -21.2434   -4.4305 C   0  0  0  0  0  0  0  0  0  0  0  0
   27.9778  -20.1124   -3.7705 C   0  0  0  0  0  0  0  0  0  0  0  0
   27.7605  -18.9678   -4.4952 C   0  0  0  0  0  0  0  0  0  0  0  0
   27.9834  -18.9752   -5.8779 C   0  0  0  0  0  0  0  0  0  0  0  0
   26.2177  -20.0719   -8.3855 C   0  0  0  0  0  0  0  0  0  0  0  0
   25.3168  -20.7692   -7.6081 O   0  0  0  0  0  0  0  0  0  0  0  0
   25.8894  -18.9059   -8.7367 O   0  0  0  0  0  0  0  0  0  0  0  0
  1  2  1  0
  2  3  1  0
  3  5  1  0
  3  4  1  6
  5  6  2  0
  7  8  1  0
  7  5  1  0
  8 11  1  0
  9 10  1  0
  8  9  1  6
 11 12  2  0
 11 13  1  0
 13 14  1  0
 14 22  1  0
 14 15  1  1
 16 15  1  0
 16 17  2  0
 18 17  1  0
 19 18  2  0
 20 21  2  0
 20 19  1  0
 21 16  1  0
 22 24  2  0
 22 23  1  0
M  END
$$$$
