SCF.pdb
     RDKit          3D

 24 24  0  0  1  0  0  0  0  0999 V2000
   23.2433  -19.6734  -13.8848 O   0  0  0  0  0  0  0  0  0  0  0  0
   22.4490  -19.5440  -15.0065 C   0  0  0  0  0  0  0  0  0  0  0  0
   23.1739  -20.1517  -16.1882 C   0  0  2  0  0  0  0  0  0  0  0  0
   22.3506  -21.1283  -16.8389 N   0  0  0  0  0  0  0  0  0  0  0  0
   24.4562  -20.7080  -15.6957 C   0  0  0  0  0  0  0  0  0  0  0  0
   24.5621  -21.9578  -15.6714 O   0  0  0  0  0  0  0  0  0  0  0  0
   25.5424  -19.9378  -15.2616 N   0  0  0  0  0  0  0  0  0  0  0  0
   26.8915  -20.4290  -15.0800 C   0  0  1  0  0  0  0  0  0  0  0  0
   27.9279  -19.3542  -15.2674 C   0  0  0  0  0  0  0  0  0  0  0  0
   27.6028  -18.0044  -14.1218 S   0  0  0  0  0  0  0  0  0  0  0  0
   27.0530  -20.9654  -13.6994 C   0  0  0  0  0  0  0  0  0  0  0  0
   28.1304  -21.5432  -13.3483 O   0  0  0  0  0  0  0  0  0  0  0  0
   26.0251  -20.8517  -12.7432 N   0  0  0  0  0  0  0  0  0  0  0  0
   26.2477  -21.1206  -11.3151 C   0  0  1  0  0  0  0  0  0  0  0  0
   27.3021  -20.1087  -10.8761 C   0  0  0  0  0  0  0  0  0  0  0  0
   27.6215  -20.2033   -9.4481 C   0  0  0  0  0  0  0  0  0  0  0  0
   27.0233  -19.3805   -8.5209 C   0  0  0  0  0  0  0  0  0  0  0  0
   27.3598  -19.5088   -7.1838 C   0  0  0  0  0  0  0  0  0  0  0  0
   28.2803  -20.4395   -6.7477 C   0  0  0  0  0  0  0  0  0  0  0  0
   28.8772  -21.2601   -7.6711 C   0  0  0  0  0  0  0  0  0  0  0  0
   28.5401  -21.1341   -9.0247 C   0  0  0  0  0  0  0  0  0  0  0  0
   24.9833  -20.8557  -10.6000 C   0  0  0  0  0  0  0  0  0  0  0  0
   24.7721  -21.4232   -9.3609 O   0  0  0  0  0  0  0  0  0  0  0  0
   24.0629  -20.1271  -11.0610 O   0  0  0  0  0  0  0  0  0  0  0  0
  1  2  1  0
  2  3  1  0
  3  5  1  0
  3  4  1  1
  5  6  2  0
  7  8  1  0
  7  5  1  0
  8 11  1  0
  9 10  1  0
  8  9  1  1
 11 12  2  0
 11 13  1  0
 13 14  1  0
 14 22  1  0
 14 15  1  1
 16 15  1  0
 16 17  2  0
 18 17  1  0
 19 18  2  0
 20 21  2  0
 20 19  1  0
 21 16  1  0
 22 24  2  0
 22 23  1  0
M  END
$$$$
