SCF.pdb
     RDKit          3D

 24 24  0  0  1  0  0  0  0  0999 V2000
   25.7146  -29.0518  -17.9829 O   0  0  0  0  0  0  0  0  0  0  0  0
   26.3622  -28.3051  -17.0191 C   0  0  0  0  0  0  0  0  0  0  0  0
   25.8004  -26.8996  -17.0342 C   0  0  2  0  0  0  0  0  0  0  0  0
   24.6509  -26.8235  -17.8872 N   0  0  0  0  0  0  0  0  0  0  0  0
   26.8892  -25.9809  -17.4429 C   0  0  0  0  0  0  0  0  0  0  0  0
   26.9467  -25.6719  -18.6574 O   0  0  0  0  0  0  0  0  0  0  0  0
   27.8448  -25.4433  -16.5716 N   0  0  0  0  0  0  0  0  0  0  0  0
   28.8974  -24.5266  -16.9536 C   0  0  1  0  0  0  0  0  0  0  0  0
   28.9614  -23.3163  -16.0618 C   0  0  0  0  0  0  0  0  0  0  0  0
   27.4195  -22.3967  -16.1910 S   0  0  0  0  0  0  0  0  0  0  0  0
   30.2186  -25.2102  -16.8696 C   0  0  0  0  0  0  0  0  0  0  0  0
   30.5146  -25.9317  -15.8648 O   0  0  0  0  0  0  0  0  0  0  0  0
   31.1777  -25.0814  -17.8931 N   0  0  0  0  0  0  0  0  0  0  0  0
   32.4266  -25.8570  -17.9011 C   0  0  1  0  0  0  0  0  0  0  0  0
   31.9937  -27.3126  -18.0501 C   0  0  0  0  0  0  0  0  0  0  0  0
   31.6599  -27.6680  -19.4330 C   0  0  0  0  0  0  0  0  0  0  0  0
   32.6128  -28.1478  -20.3027 C   0  0  0  0  0  0  0  0  0  0  0  0
   32.2471  -28.4684  -21.5992 C   0  0  0  0  0  0  0  0  0  0  0  0
   30.9516  -28.3221  -22.0507 C   0  0  0  0  0  0  0  0  0  0  0  0
   30.0009  -27.8440  -21.1846 C   0  0  0  0  0  0  0  0  0  0  0  0
   30.3660  -27.5182  -19.8723 C   0  0  0  0  0  0  0  0  0  0  0  0
   33.2062  -25.4513  -19.0876 C   0  0  0  0  0  0  0  0  0  0  0  0
   32.6911  -24.5037  -19.9472 O   0  0  0  0  0  0  0  0  0  0  0  0
   34.3390  -25.9273  -19.3717 O   0  0  0  0  0  0  0  0  0  0  0  0
  1  2  1  0
  2  3  1  0
  3  5  1  0
  3  4  1  6
  5  6  2  0
  7  8  1  0
  7  5  1  0
  8 11  1  0
  9 10  1  0
  8  9  1  1
 11 12  2  0
 11 13  1  0
 13 14  1  0
 14 22  1  0
 14 15  1  6
 16 15  1  0
 16 17  2  0
 18 17  1  0
 19 18  2  0
 20 21  2  0
 20 19  1  0
 21 16  1  0
 22 24  2  0
 22 23  1  0
M  END
$$$$
