SCF.pdb
     RDKit          3D

 24 24  0  0  1  0  0  0  0  0999 V2000
   23.4312  -14.4884  -18.7257 O   0  0  0  0  0  0  0  0  0  0  0  0
   23.4401  -13.5714  -17.6936 C   0  0  0  0  0  0  0  0  0  0  0  0
   24.8543  -13.4435  -17.1693 C   0  0  2  0  0  0  0  0  0  0  0  0
   25.1541  -14.5083  -16.2577 N   0  0  0  0  0  0  0  0  0  0  0  0
   24.9912  -12.0999  -16.5588 C   0  0  0  0  0  0  0  0  0  0  0  0
   24.4125  -11.9121  -15.4617 O   0  0  0  0  0  0  0  0  0  0  0  0
   25.7154  -11.0413  -17.1210 N   0  0  0  0  0  0  0  0  0  0  0  0
   25.8986   -9.7416  -16.5114 C   0  0  1  0  0  0  0  0  0  0  0  0
   27.2207   -9.1175  -16.8675 C   0  0  0  0  0  0  0  0  0  0  0  0
   28.5397   -9.9684  -15.9865 S   0  0  0  0  0  0  0  0  0  0  0  0
   24.8301   -8.8114  -16.9728 C   0  0  0  0  0  0  0  0  0  0  0  0
   24.6519   -8.5896  -18.2125 O   0  0  0  0  0  0  0  0  0  0  0  0
   23.9870   -8.1508  -16.0580 N   0  0  0  0  0  0  0  0  0  0  0  0
   22.8655   -7.3057  -16.4927 C   0  0  1  0  0  0  0  0  0  0  0  0
   21.9385   -8.2371  -17.2683 C   0  0  0  0  0  0  0  0  0  0  0  0
   20.7433   -7.5564  -17.7764 C   0  0  0  0  0  0  0  0  0  0  0  0
   19.4794   -8.0454  -17.5352 C   0  0  0  0  0  0  0  0  0  0  0  0
   18.3825   -7.3660  -18.0378 C   0  0  0  0  0  0  0  0  0  0  0  0
   18.5152   -6.2083  -18.7766 C   0  0  0  0  0  0  0  0  0  0  0  0
   19.7745   -5.7200  -19.0177 C   0  0  0  0  0  0  0  0  0  0  0  0
   20.8871   -6.4037  -18.5114 C   0  0  0  0  0  0  0  0  0  0  0  0
   22.1719   -6.8142  -15.2854 C   0  0  0  0  0  0  0  0  0  0  0  0
   21.4907   -5.6159  -15.3339 O   0  0  0  0  0  0  0  0  0  0  0  0
   22.1628   -7.4345  -14.1873 O   0  0  0  0  0  0  0  0  0  0  0  0
  1  2  1  0
  2  3  1  0
  3  5  1  0
  3  4  1  1
  5  6  2  0
  7  8  1  0
  7  5  1  0
  8 11  1  0
  9 10  1  0
  8  9  1  6
 11 12  2  0
 11 13  1  0
 13 14  1  0
 14 22  1  0
 14 15  1  6
 16 15  1  0
 16 17  2  0
 18 17  1  0
 19 18  2  0
 20 21  2  0
 20 19  1  0
 21 16  1  0
 22 24  2  0
 22 23  1  0
M  END
$$$$
