SCF.pdb
     RDKit          3D

 24 24  0  0  1  0  0  0  0  0999 V2000
   17.1640  -15.2497  -15.0929 O   0  0  0  0  0  0  0  0  0  0  0  0
   17.8955  -14.1656  -15.5349 C   0  0  0  0  0  0  0  0  0  0  0  0
   16.9761  -13.2386  -16.3009 C   0  0  2  0  0  0  0  0  0  0  0  0
   16.5285  -13.8586  -17.5134 N   0  0  0  0  0  0  0  0  0  0  0  0
   17.7037  -11.9683  -16.5321 C   0  0  0  0  0  0  0  0  0  0  0  0
   18.2320  -11.8125  -17.6592 O   0  0  0  0  0  0  0  0  0  0  0  0
   17.8372  -10.9450  -15.5854 N   0  0  0  0  0  0  0  0  0  0  0  0
   18.4573   -9.6604  -15.8298 C   0  0  1  0  0  0  0  0  0  0  0  0
   17.7011   -8.5239  -15.1967 C   0  0  0  0  0  0  0  0  0  0  0  0
   18.6020   -6.9877  -15.4580 S   0  0  0  0  0  0  0  0  0  0  0  0
   19.8348   -9.6476  -15.2624 C   0  0  0  0  0  0  0  0  0  0  0  0
   20.0776  -10.1789  -14.1325 O   0  0  0  0  0  0  0  0  0  0  0  0
   20.9074   -9.0508  -15.9534 N   0  0  0  0  0  0  0  0  0  0  0  0
   22.2859   -9.0847  -15.4436 C   0  0  1  0  0  0  0  0  0  0  0  0
   23.0372  -10.0250  -16.3815 C   0  0  0  0  0  0  0  0  0  0  0  0
   24.4753  -10.0792  -16.1005 C   0  0  0  0  0  0  0  0  0  0  0  0
   25.3796   -9.3416  -16.8305 C   0  0  0  0  0  0  0  0  0  0  0  0
   26.7277   -9.4284  -16.5263 C   0  0  0  0  0  0  0  0  0  0  0  0
   27.1973  -10.2343  -15.5097 C   0  0  0  0  0  0  0  0  0  0  0  0
   26.2968  -10.9701  -14.7814 C   0  0  0  0  0  0  0  0  0  0  0  0
   24.9323  -10.8857  -15.0854 C   0  0  0  0  0  0  0  0  0  0  0  0
   22.8466   -7.7236  -15.5581 C   0  0  0  0  0  0  0  0  0  0  0  0
   22.3743   -6.8745  -16.5369 O   0  0  0  0  0  0  0  0  0  0  0  0
   23.7510   -7.2778  -14.8004 O   0  0  0  0  0  0  0  0  0  0  0  0
  1  2  1  0
  2  3  1  0
  3  5  1  0
  3  4  1  6
  5  6  2  0
  7  8  1  0
  7  5  1  0
  8 11  1  0
  9 10  1  0
  8  9  1  1
 11 12  2  0
 11 13  1  0
 13 14  1  0
 14 22  1  0
 14 15  1  6
 16 15  1  0
 16 17  2  0
 18 17  1  0
 19 18  2  0
 20 21  2  0
 20 19  1  0
 21 16  1  0
 22 24  2  0
 22 23  1  0
M  END
$$$$
