SCF.pdb
     RDKit          3D

 24 24  0  0  1  0  0  0  0  0999 V2000
   23.7283  -12.8710  -20.0671 O   0  0  0  0  0  0  0  0  0  0  0  0
   22.8855  -11.8326  -19.7245 C   0  0  0  0  0  0  0  0  0  0  0  0
   21.6684  -12.4035  -19.0289 C   0  0  2  0  0  0  0  0  0  0  0  0
   20.8537  -13.1350  -19.9541 N   0  0  0  0  0  0  0  0  0  0  0  0
   20.9484  -11.2812  -18.3819 C   0  0  0  0  0  0  0  0  0  0  0  0
   20.3709  -10.4643  -19.1388 O   0  0  0  0  0  0  0  0  0  0  0  0
   20.8728  -11.0775  -16.9984 N   0  0  0  0  0  0  0  0  0  0  0  0
   20.2545   -9.9367  -16.3575 C   0  0  1  0  0  0  0  0  0  0  0  0
   19.5795  -10.2974  -15.0619 C   0  0  0  0  0  0  0  0  0  0  0  0
   18.1633  -11.3556  -15.4004 S   0  0  0  0  0  0  0  0  0  0  0  0
   21.2877   -8.9087  -16.0485 C   0  0  0  0  0  0  0  0  0  0  0  0
   22.5231   -9.2113  -16.0375 O   0  0  0  0  0  0  0  0  0  0  0  0
   20.9336   -7.5762  -15.7601 N   0  0  0  0  0  0  0  0  0  0  0  0
   21.9376   -6.5152  -15.5941 C   0  0  1  0  0  0  0  0  0  0  0  0
   22.7124   -6.4870  -16.9084 C   0  0  0  0  0  0  0  0  0  0  0  0
   23.7127   -5.4160  -16.9561 C   0  0  0  0  0  0  0  0  0  0  0  0
   23.5665   -4.3314  -17.7909 C   0  0  0  0  0  0  0  0  0  0  0  0
   24.5400   -3.3467  -17.7995 C   0  0  0  0  0  0  0  0  0  0  0  0
   25.6583   -3.4171  -16.9945 C   0  0  0  0  0  0  0  0  0  0  0  0
   25.8051   -4.4979  -16.1621 C   0  0  0  0  0  0  0  0  0  0  0  0
   24.8232   -5.4965  -16.1498 C   0  0  0  0  0  0  0  0  0  0  0  0
   21.2221   -5.2358  -15.4169 C   0  0  0  0  0  0  0  0  0  0  0  0
   21.7473   -4.2743  -14.5791 O   0  0  0  0  0  0  0  0  0  0  0  0
   20.1362   -4.9601  -15.9959 O   0  0  0  0  0  0  0  0  0  0  0  0
  1  2  1  0
  2  3  1  0
  3  5  1  0
  3  4  1  6
  5  6  2  0
  7  8  1  0
  7  5  1  0
  8 11  1  0
  9 10  1  0
  8  9  1  1
 11 12  2  0
 11 13  1  0
 13 14  1  0
 14 22  1  0
 14 15  1  6
 16 15  1  0
 16 17  2  0
 18 17  1  0
 19 18  2  0
 20 21  2  0
 20 19  1  0
 21 16  1  0
 22 24  2  0
 22 23  1  0
M  END
$$$$
