SCF.pdb
     RDKit          3D

 24 24  0  0  1  0  0  0  0  0999 V2000
   20.6265  -13.8912  -16.6602 O   0  0  0  0  0  0  0  0  0  0  0  0
   20.5188  -12.8261  -17.5319 C   0  0  0  0  0  0  0  0  0  0  0  0
   21.7053  -12.8453  -18.4716 C   0  0  2  0  0  0  0  0  0  0  0  0
   22.7170  -13.7398  -17.9909 N   0  0  0  0  0  0  0  0  0  0  0  0
   22.1861  -11.4515  -18.6226 C   0  0  0  0  0  0  0  0  0  0  0  0
   23.2756  -11.1629  -18.0717 O   0  0  0  0  0  0  0  0  0  0  0  0
   21.5108  -10.4499  -19.3313 N   0  0  0  0  0  0  0  0  0  0  0  0
   21.9836   -9.0940  -19.5106 C   0  0  1  0  0  0  0  0  0  0  0  0
   21.4445   -8.4548  -20.7617 C   0  0  0  0  0  0  0  0  0  0  0  0
   22.1144   -9.3016  -22.2018 S   0  0  0  0  0  0  0  0  0  0  0  0
   21.5518   -8.2515  -18.3602 C   0  0  0  0  0  0  0  0  0  0  0  0
   20.4673   -8.4995  -17.7436 O   0  0  0  0  0  0  0  0  0  0  0  0
   22.3247   -7.1595  -17.9196 N   0  0  0  0  0  0  0  0  0  0  0  0
   21.9400   -6.3421  -16.7599 C   0  0  1  0  0  0  0  0  0  0  0  0
   23.1044   -6.4614  -15.7810 C   0  0  0  0  0  0  0  0  0  0  0  0
   23.0987   -7.7279  -15.0420 C   0  0  0  0  0  0  0  0  0  0  0  0
   22.1458   -7.9992  -14.0864 C   0  0  0  0  0  0  0  0  0  0  0  0
   22.1844   -9.2099  -13.4155 C   0  0  0  0  0  0  0  0  0  0  0  0
   23.1519  -10.1588  -13.6745 C   0  0  0  0  0  0  0  0  0  0  0  0
   24.1022   -9.8894  -14.6268 C   0  0  0  0  0  0  0  0  0  0  0  0
   24.0674   -8.6662  -15.3081 C   0  0  0  0  0  0  0  0  0  0  0  0
   21.8178   -4.9415  -17.2112 C   0  0  0  0  0  0  0  0  0  0  0  0
   22.1475   -4.6152  -18.5100 O   0  0  0  0  0  0  0  0  0  0  0  0
   21.4223   -4.0029  -16.4673 O   0  0  0  0  0  0  0  0  0  0  0  0
  1  2  1  0
  2  3  1  0
  3  5  1  0
  3  4  1  1
  5  6  2  0
  7  8  1  0
  7  5  1  0
  8 11  1  0
  9 10  1  0
  8  9  1  6
 11 12  2  0
 11 13  1  0
 13 14  1  0
 14 22  1  0
 14 15  1  1
 16 15  1  0
 16 17  2  0
 18 17  1  0
 19 18  2  0
 20 21  2  0
 20 19  1  0
 21 16  1  0
 22 24  2  0
 22 23  1  0
M  END
$$$$
