SCF.pdb
     RDKit          3D

 24 24  0  0  1  0  0  0  0  0999 V2000
   27.7367  -16.5267  -13.4303 O   0  0  0  0  0  0  0  0  0  0  0  0
   27.9810  -17.4229  -14.4516 C   0  0  0  0  0  0  0  0  0  0  0  0
   26.6569  -17.9414  -14.9704 C   0  0  2  0  0  0  0  0  0  0  0  0
   25.7984  -16.8549  -15.3411 N   0  0  0  0  0  0  0  0  0  0  0  0
   26.0714  -18.8142  -13.9255 C   0  0  0  0  0  0  0  0  0  0  0  0
   25.0623  -18.3788  -13.3205 O   0  0  0  0  0  0  0  0  0  0  0  0
   26.5662  -20.0767  -13.5752 N   0  0  0  0  0  0  0  0  0  0  0  0
   25.9256  -20.9975  -12.6608 C   0  0  1  0  0  0  0  0  0  0  0  0
   26.0238  -22.4278  -13.1179 C   0  0  0  0  0  0  0  0  0  0  0  0
   25.1807  -23.4921  -11.9361 S   0  0  0  0  0  0  0  0  0  0  0  0
   26.5738  -20.9139  -11.3220 C   0  0  0  0  0  0  0  0  0  0  0  0
   27.8395  -20.8460  -11.2155 O   0  0  0  0  0  0  0  0  0  0  0  0
   25.8121  -20.9074  -10.1371 N   0  0  0  0  0  0  0  0  0  0  0  0
   26.4202  -21.0928   -8.8116 C   0  0  1  0  0  0  0  0  0  0  0  0
   27.2485  -19.8342   -8.5707 C   0  0  0  0  0  0  0  0  0  0  0  0
   27.7690  -19.7490   -7.2025 C   0  0  0  0  0  0  0  0  0  0  0  0
   27.1882  -18.9294   -6.2614 C   0  0  0  0  0  0  0  0  0  0  0  0
   27.7181  -18.8838   -4.9829 C   0  0  0  0  0  0  0  0  0  0  0  0
   28.8152  -19.6370   -4.6189 C   0  0  0  0  0  0  0  0  0  0  0  0
   29.3949  -20.4543   -5.5562 C   0  0  0  0  0  0  0  0  0  0  0  0
   28.8626  -20.5038   -6.8507 C   0  0  0  0  0  0  0  0  0  0  0  0
   25.3308  -21.1631   -7.8174 C   0  0  0  0  0  0  0  0  0  0  0  0
   25.5932  -21.6553   -6.5560 O   0  0  0  0  0  0  0  0  0  0  0  0
   24.1484  -20.7934   -8.0537 O   0  0  0  0  0  0  0  0  0  0  0  0
  1  2  1  0
  2  3  1  0
  3  5  1  0
  3  4  1  1
  5  6  2  0
  7  8  1  0
  7  5  1  0
  8 11  1  0
  9 10  1  0
  8  9  1  6
 11 12  2  0
 11 13  1  0
 13 14  1  0
 14 22  1  0
 14 15  1  1
 16 15  1  0
 16 17  2  0
 18 17  1  0
 19 18  2  0
 20 21  2  0
 20 19  1  0
 21 16  1  0
 22 24  2  0
 22 23  1  0
M  END
$$$$
