SCF.pdb
     RDKit          3D

 24 24  0  0  1  0  0  0  0  0999 V2000
   27.7764  -16.8725  -14.8587 O   0  0  0  0  0  0  0  0  0  0  0  0
   28.2964  -18.1512  -14.8408 C   0  0  0  0  0  0  0  0  0  0  0  0
   27.1887  -19.1309  -15.1640 C   0  0  2  0  0  0  0  0  0  0  0  0
   26.5009  -18.7404  -16.3595 N   0  0  0  0  0  0  0  0  0  0  0  0
   26.2983  -19.2139  -13.9821 C   0  0  0  0  0  0  0  0  0  0  0  0
   25.1690  -18.6767  -14.0820 O   0  0  0  0  0  0  0  0  0  0  0  0
   26.6327  -19.8452  -12.7776 N   0  0  0  0  0  0  0  0  0  0  0  0
   25.7264  -20.0582  -11.6696 C   0  0  1  0  0  0  0  0  0  0  0  0
   24.6659  -21.0800  -11.9789 C   0  0  0  0  0  0  0  0  0  0  0  0
   25.4482  -22.6095  -12.5159 S   0  0  0  0  0  0  0  0  0  0  0  0
   26.4834  -20.5491  -10.4841 C   0  0  0  0  0  0  0  0  0  0  0  0
   27.7258  -20.8088  -10.5678 O   0  0  0  0  0  0  0  0  0  0  0  0
   25.8532  -20.7409   -9.2390 N   0  0  0  0  0  0  0  0  0  0  0  0
   26.6118  -20.9962   -8.0059 C   0  0  1  0  0  0  0  0  0  0  0  0
   27.4979  -19.7682   -7.8187 C   0  0  0  0  0  0  0  0  0  0  0  0
   28.1691  -19.7444   -6.5152 C   0  0  0  0  0  0  0  0  0  0  0  0
   29.1459  -20.6586   -6.1920 C   0  0  0  0  0  0  0  0  0  0  0  0
   29.7490  -20.5944   -4.9471 C   0  0  0  0  0  0  0  0  0  0  0  0
   29.4012  -19.6389   -4.0147 C   0  0  0  0  0  0  0  0  0  0  0  0
   28.4276  -18.7271   -4.3358 C   0  0  0  0  0  0  0  0  0  0  0  0
   27.8146  -18.7880   -5.5937 C   0  0  0  0  0  0  0  0  0  0  0  0
   25.6491  -21.0834   -6.8897 C   0  0  0  0  0  0  0  0  0  0  0  0
   26.0103  -21.7385   -5.7310 O   0  0  0  0  0  0  0  0  0  0  0  0
   24.4909  -20.5859   -6.9295 O   0  0  0  0  0  0  0  0  0  0  0  0
  1  2  1  0
  2  3  1  0
  3  5  1  0
  3  4  1  6
  5  6  2  0
  7  8  1  0
  7  5  1  0
  8 11  1  0
  9 10  1  0
  8  9  1  6
 11 12  2  0
 11 13  1  0
 13 14  1  0
 14 22  1  0
 14 15  1  1
 16 15  1  0
 16 17  2  0
 18 17  1  0
 19 18  2  0
 20 21  2  0
 20 19  1  0
 21 16  1  0
 22 24  2  0
 22 23  1  0
M  END
$$$$
