SCF.pdb
     RDKit          3D

 24 24  0  0  1  0  0  0  0  0999 V2000
   14.6182   -9.5592  -15.9672 O   0  0  0  0  0  0  0  0  0  0  0  0
   15.7234  -10.0879  -15.3309 C   0  0  0  0  0  0  0  0  0  0  0  0
   16.6790  -10.6193  -16.3777 C   0  0  2  0  0  0  0  0  0  0  0  0
   16.3334  -11.9616  -16.7432 N   0  0  0  0  0  0  0  0  0  0  0  0
   18.0541  -10.4998  -15.8380 C   0  0  0  0  0  0  0  0  0  0  0  0
   18.5694  -11.5386  -15.3592 O   0  0  0  0  0  0  0  0  0  0  0  0
   18.8045   -9.3173  -15.8286 N   0  0  0  0  0  0  0  0  0  0  0  0
   20.1789   -9.2071  -15.3892 C   0  0  1  0  0  0  0  0  0  0  0  0
   21.1094  -10.0909  -16.1749 C   0  0  0  0  0  0  0  0  0  0  0  0
   22.7849   -9.9056  -15.5436 S   0  0  0  0  0  0  0  0  0  0  0  0
   20.6524   -7.8044  -15.5562 C   0  0  0  0  0  0  0  0  0  0  0  0
   20.5548   -7.2146  -16.6790 O   0  0  0  0  0  0  0  0  0  0  0  0
   21.2201   -7.0890  -14.4839 N   0  0  0  0  0  0  0  0  0  0  0  0
   21.5380   -5.6566  -14.5763 C   0  0  1  0  0  0  0  0  0  0  0  0
   20.1939   -4.9587  -14.7626 C   0  0  0  0  0  0  0  0  0  0  0  0
   20.3211   -3.5033  -14.8869 C   0  0  0  0  0  0  0  0  0  0  0  0
   21.0651   -2.9292  -15.8926 C   0  0  0  0  0  0  0  0  0  0  0  0
   21.1547   -1.5493  -15.9662 C   0  0  0  0  0  0  0  0  0  0  0  0
   20.5193   -0.7260  -15.0596 C   0  0  0  0  0  0  0  0  0  0  0  0
   19.7774   -1.2972  -14.0566 C   0  0  0  0  0  0  0  0  0  0  0  0
   19.6838   -2.6924  -13.9780 C   0  0  0  0  0  0  0  0  0  0  0  0
   22.1353   -5.2397  -13.2919 C   0  0  0  0  0  0  0  0  0  0  0  0
   22.9648   -4.1385  -13.2544 O   0  0  0  0  0  0  0  0  0  0  0  0
   21.9309   -5.8405  -12.2021 O   0  0  0  0  0  0  0  0  0  0  0  0
  1  2  1  0
  2  3  1  0
  3  5  1  0
  3  4  1  1
  5  6  2  0
  7  8  1  0
  7  5  1  0
  8 11  1  0
  9 10  1  0
  8  9  1  6
 11 12  2  0
 11 13  1  0
 13 14  1  0
 14 22  1  0
 14 15  1  1
 16 15  1  0
 16 17  2  0
 18 17  1  0
 19 18  2  0
 20 21  2  0
 20 19  1  0
 21 16  1  0
 22 24  2  0
 22 23  1  0
M  END
$$$$
