SCF.pdb
     RDKit          3D

 24 24  0  0  1  0  0  0  0  0999 V2000
   20.1875  -13.5986  -15.7429 O   0  0  0  0  0  0  0  0  0  0  0  0
   20.6333  -12.3885  -16.2355 C   0  0  0  0  0  0  0  0  0  0  0  0
   19.7082  -11.9463  -17.3490 C   0  0  2  0  0  0  0  0  0  0  0  0
   19.8816  -12.7714  -18.5083 N   0  0  0  0  0  0  0  0  0  0  0  0
   19.9699  -10.5115  -17.6124 C   0  0  0  0  0  0  0  0  0  0  0  0
   20.7628  -10.2401  -18.5459 O   0  0  0  0  0  0  0  0  0  0  0  0
   19.3962   -9.4540  -16.8955 N   0  0  0  0  0  0  0  0  0  0  0  0
   19.5634   -8.0504  -17.2058 C   0  0  1  0  0  0  0  0  0  0  0  0
   18.4145   -7.4940  -18.0025 C   0  0  0  0  0  0  0  0  0  0  0  0
   16.8619   -7.9891  -17.2379 S   0  0  0  0  0  0  0  0  0  0  0  0
   19.6532   -7.2610  -15.9455 C   0  0  0  0  0  0  0  0  0  0  0  0
   18.9185   -7.5449  -14.9467 O   0  0  0  0  0  0  0  0  0  0  0  0
   20.5485   -6.1810  -15.8184 N   0  0  0  0  0  0  0  0  0  0  0  0
   20.6508   -5.3866  -14.5856 C   0  0  1  0  0  0  0  0  0  0  0  0
   22.0723   -5.6130  -14.0795 C   0  0  0  0  0  0  0  0  0  0  0  0
   22.3144   -6.9981  -13.6638 C   0  0  0  0  0  0  0  0  0  0  0  0
   23.0164   -7.8757  -14.4586 C   0  0  0  0  0  0  0  0  0  0  0  0
   23.2174   -9.1741  -14.0211 C   0  0  0  0  0  0  0  0  0  0  0  0
   22.7345   -9.6198  -12.8080 C   0  0  0  0  0  0  0  0  0  0  0  0
   22.0345   -8.7459  -12.0151 C   0  0  0  0  0  0  0  0  0  0  0  0
   21.8286   -7.4317  -12.4532 C   0  0  0  0  0  0  0  0  0  0  0  0
   20.4766   -3.9651  -14.9450 C   0  0  0  0  0  0  0  0  0  0  0  0
   20.4567   -3.0104  -13.9497 O   0  0  0  0  0  0  0  0  0  0  0  0
   20.3414   -3.5590  -16.1313 O   0  0  0  0  0  0  0  0  0  0  0  0
  1  2  1  0
  2  3  1  0
  3  5  1  0
  3  4  1  6
  5  6  2  0
  7  8  1  0
  7  5  1  0
  8 11  1  0
  9 10  1  0
  8  9  1  6
 11 12  2  0
 11 13  1  0
 13 14  1  0
 14 22  1  0
 14 15  1  6
 16 15  1  0
 16 17  2  0
 18 17  1  0
 19 18  2  0
 20 21  2  0
 20 19  1  0
 21 16  1  0
 22 24  2  0
 22 23  1  0
M  END
$$$$
