SCF.pdb
     RDKit          3D

 24 24  0  0  1  0  0  0  0  0999 V2000
   27.1143  -18.0641  -16.4848 O   0  0  0  0  0  0  0  0  0  0  0  0
   26.3086  -19.0669  -15.9836 C   0  0  0  0  0  0  0  0  0  0  0  0
   27.1881  -20.1920  -15.4818 C   0  0  2  0  0  0  0  0  0  0  0  0
   27.6055  -21.0303  -16.5671 N   0  0  0  0  0  0  0  0  0  0  0  0
   26.4338  -20.9254  -14.4379 C   0  0  0  0  0  0  0  0  0  0  0  0
   25.4849  -21.6492  -14.8246 O   0  0  0  0  0  0  0  0  0  0  0  0
   26.7091  -20.8627  -13.0662 N   0  0  0  0  0  0  0  0  0  0  0  0
   25.8006  -21.2687  -12.0154 C   0  0  1  0  0  0  0  0  0  0  0  0
   26.4040  -21.1290  -10.6440 C   0  0  0  0  0  0  0  0  0  0  0  0
   25.1233  -21.3632   -9.4010 S   0  0  0  0  0  0  0  0  0  0  0  0
   24.5759  -20.4210  -12.0500 C   0  0  0  0  0  0  0  0  0  0  0  0
   24.6458  -19.1688  -11.8376 O   0  0  0  0  0  0  0  0  0  0  0  0
   23.3082  -20.9738  -12.3172 N   0  0  0  0  0  0  0  0  0  0  0  0
   22.0697  -20.1901  -12.2022 C   0  0  1  0  0  0  0  0  0  0  0  0
   22.1744  -19.1142  -13.2791 C   0  0  0  0  0  0  0  0  0  0  0  0
   22.0140  -19.6490  -14.6350 C   0  0  0  0  0  0  0  0  0  0  0  0
   20.7690  -19.8682  -15.1795 C   0  0  0  0  0  0  0  0  0  0  0  0
   20.6709  -20.3757  -16.4641 C   0  0  0  0  0  0  0  0  0  0  0  0
   21.7862  -20.6707  -17.2208 C   0  0  0  0  0  0  0  0  0  0  0  0
   23.0278  -20.4526  -16.6790 C   0  0  0  0  0  0  0  0  0  0  0  0
   23.1322  -19.9395  -15.3800 C   0  0  0  0  0  0  0  0  0  0  0  0
   20.9356  -21.0846  -12.5085 C   0  0  0  0  0  0  0  0  0  0  0  0
   19.6500  -20.5859  -12.4792 O   0  0  0  0  0  0  0  0  0  0  0  0
   21.0707  -22.3038  -12.8016 O   0  0  0  0  0  0  0  0  0  0  0  0
  1  2  1  0
  2  3  1  0
  3  5  1  0
  3  4  1  6
  5  6  2  0
  7  8  1  0
  7  5  1  0
  8 11  1  0
  9 10  1  0
  8  9  1  1
 11 12  2  0
 11 13  1  0
 13 14  1  0
 14 22  1  0
 14 15  1  6
 16 15  1  0
 16 17  2  0
 18 17  1  0
 19 18  2  0
 20 21  2  0
 20 19  1  0
 21 16  1  0
 22 24  2  0
 22 23  1  0
M  END
$$$$
