SCF.pdb
     RDKit          3D

 24 24  0  0  1  0  0  0  0  0999 V2000
   20.4439  -19.5020  -11.3088 O   0  0  0  0  0  0  0  0  0  0  0  0
   21.0912  -19.2862  -12.5089 C   0  0  0  0  0  0  0  0  0  0  0  0
   21.4799  -20.6247  -13.0993 C   0  0  2  0  0  0  0  0  0  0  0  0
   20.3329  -21.4757  -13.2217 N   0  0  0  0  0  0  0  0  0  0  0  0
   22.5448  -21.2037  -12.2465 C   0  0  0  0  0  0  0  0  0  0  0  0
   22.2089  -22.1254  -11.4644 O   0  0  0  0  0  0  0  0  0  0  0  0
   23.8837  -20.7932  -12.2580 N   0  0  0  0  0  0  0  0  0  0  0  0
   24.9480  -21.4031  -11.4902 C   0  0  1  0  0  0  0  0  0  0  0  0
   26.2482  -21.4565  -12.2458 C   0  0  0  0  0  0  0  0  0  0  0  0
   26.6927  -19.7986  -12.7881 S   0  0  0  0  0  0  0  0  0  0  0  0
   25.1889  -20.6178  -10.2472 C   0  0  0  0  0  0  0  0  0  0  0  0
   24.7773  -19.4185  -10.1457 O   0  0  0  0  0  0  0  0  0  0  0  0
   25.8759  -21.1730   -9.1500 N   0  0  0  0  0  0  0  0  0  0  0  0
   26.2290  -20.3817   -7.9624 C   0  0  1  0  0  0  0  0  0  0  0  0
   27.0237  -21.3306   -7.0700 C   0  0  0  0  0  0  0  0  0  0  0  0
   27.6980  -20.6415   -5.9652 C   0  0  0  0  0  0  0  0  0  0  0  0
   28.9026  -20.0004   -6.1452 C   0  0  0  0  0  0  0  0  0  0  0  0
   29.4995  -19.3647   -5.0695 C   0  0  0  0  0  0  0  0  0  0  0  0
   28.9234  -19.3526   -3.8159 C   0  0  0  0  0  0  0  0  0  0  0  0
   27.7226  -19.9915   -3.6353 C   0  0  0  0  0  0  0  0  0  0  0  0
   27.1150  -20.6359   -4.7203 C   0  0  0  0  0  0  0  0  0  0  0  0
   27.0991  -19.2712   -8.3983 C   0  0  0  0  0  0  0  0  0  0  0  0
   28.0445  -19.4932   -9.3776 O   0  0  0  0  0  0  0  0  0  0  0  0
   27.0315  -18.1059   -7.9207 O   0  0  0  0  0  0  0  0  0  0  0  0
  1  2  1  0
  2  3  1  0
  3  5  1  0
  3  4  1  1
  5  6  2  0
  7  8  1  0
  7  5  1  0
  8 11  1  0
  9 10  1  0
  8  9  1  6
 11 12  2  0
 11 13  1  0
 13 14  1  0
 14 22  1  0
 14 15  1  1
 16 15  1  0
 16 17  2  0
 18 17  1  0
 19 18  2  0
 20 21  2  0
 20 19  1  0
 21 16  1  0
 22 24  2  0
 22 23  1  0
M  END
$$$$
