SCF.pdb
     RDKit          3D

 24 24  0  0  1  0  0  0  0  0999 V2000
   28.1368  -23.2969  -17.3756 O   0  0  0  0  0  0  0  0  0  0  0  0
   27.2129  -22.3246  -17.7026 C   0  0  0  0  0  0  0  0  0  0  0  0
   27.8859  -20.9707  -17.6308 C   0  0  2  0  0  0  0  0  0  0  0  0
   29.0290  -20.9276  -18.4947 N   0  0  0  0  0  0  0  0  0  0  0  0
   28.2200  -20.7057  -16.2114 C   0  0  0  0  0  0  0  0  0  0  0  0
   29.4305  -20.5247  -15.9363 O   0  0  0  0  0  0  0  0  0  0  0  0
   27.2832  -20.6452  -15.1721 N   0  0  0  0  0  0  0  0  0  0  0  0
   27.5417  -20.1224  -13.8477 C   0  0  1  0  0  0  0  0  0  0  0  0
   27.6915  -18.6251  -13.8366 C   0  0  0  0  0  0  0  0  0  0  0  0
   26.1833  -17.8690  -14.4639 S   0  0  0  0  0  0  0  0  0  0  0  0
   26.4101  -20.4620  -12.9400 C   0  0  0  0  0  0  0  0  0  0  0  0
   25.2106  -20.4472  -13.3628 O   0  0  0  0  0  0  0  0  0  0  0  0
   26.6290  -20.8084  -11.5924 N   0  0  0  0  0  0  0  0  0  0  0  0
   25.5550  -21.3204  -10.7288 C   0  0  1  0  0  0  0  0  0  0  0  0
   26.2673  -21.9898   -9.5571 C   0  0  0  0  0  0  0  0  0  0  0  0
   27.1281  -21.0659   -8.8118 C   0  0  0  0  0  0  0  0  0  0  0  0
   28.4973  -21.0867   -8.9516 C   0  0  0  0  0  0  0  0  0  0  0  0
   29.2664  -20.1938   -8.2245 C   0  0  0  0  0  0  0  0  0  0  0  0
   28.7026  -19.2787   -7.3596 C   0  0  0  0  0  0  0  0  0  0  0  0
   27.3379  -19.2571   -7.2194 C   0  0  0  0  0  0  0  0  0  0  0  0
   26.5557  -20.1583   -7.9527 C   0  0  0  0  0  0  0  0  0  0  0  0
   24.7773  -20.1654  -10.2373 C   0  0  0  0  0  0  0  0  0  0  0  0
   23.5302  -20.3717   -9.6856 O   0  0  0  0  0  0  0  0  0  0  0  0
   25.1902  -18.9750  -10.2915 O   0  0  0  0  0  0  0  0  0  0  0  0
  1  2  1  0
  2  3  1  0
  3  5  1  0
  3  4  1  6
  5  6  2  0
  7  8  1  0
  7  5  1  0
  8 11  1  0
  9 10  1  0
  8  9  1  6
 11 12  2  0
 11 13  1  0
 13 14  1  0
 14 22  1  0
 14 15  1  1
 16 15  1  0
 16 17  2  0
 18 17  1  0
 19 18  2  0
 20 21  2  0
 20 19  1  0
 21 16  1  0
 22 24  2  0
 22 23  1  0
M  END
$$$$
