SSR.pdb
     RDKit          3D

 24 23  0  0  1  0  0  0  0  0999 V2000
    6.7193  -18.8826   18.6127 O   0  0  0  0  0  0  0  0  0  0  0  0
    6.6707  -17.9906   17.5394 C   0  0  0  0  0  0  0  0  0  0  0  0
    8.0344  -17.3457   17.4231 C   0  0  2  0  0  0  0  0  0  0  0  0
    9.0295  -18.3403   17.1613 N   0  0  0  0  0  0  0  0  0  0  0  0
    8.3553  -16.5043   18.5930 C   0  0  0  0  0  0  0  0  0  0  0  0
    8.9694  -17.0337   19.5550 O   0  0  0  0  0  0  0  0  0  0  0  0
    7.9856  -12.0737   20.5917 O   0  0  0  0  0  0  0  0  0  0  0  0
    7.6892  -12.8990   19.5163 C   0  0  0  0  0  0  0  0  0  0  0  0
    8.1667  -14.3169   19.8228 C   0  0  2  0  0  0  0  0  0  0  0  0
    7.9948  -15.1340   18.6607 N   0  0  0  0  0  0  0  0  0  0  0  0
    7.5362  -14.8589   21.0281 C   0  0  0  0  0  0  0  0  0  0  0  0
    6.3558  -15.3206   20.8956 O   0  0  0  0  0  0  0  0  0  0  0  0
    8.6299  -21.0932   26.6772 N   0  0  0  0  0  0  0  0  0  0  0  0
    7.3862  -20.5027   27.1048 C   0  0  0  0  0  0  0  0  0  0  0  0
    6.6685  -21.1447   27.9583 N   0  0  0  0  0  0  0  0  0  0  0  0
    7.0030  -19.2423   26.5712 N   0  0  0  0  0  0  0  0  0  0  0  0
    7.7016  -18.6560   25.4775 C   0  0  0  0  0  0  0  0  0  0  0  0
    7.2213  -17.2618   25.1403 C   0  0  0  0  0  0  0  0  0  0  0  0
    7.9094  -16.7056   23.9233 C   0  0  0  0  0  0  0  0  0  0  0  0
    7.4489  -15.3561   23.5162 C   0  0  2  0  0  0  0  0  0  0  0  0
    8.1181  -14.9135   22.3125 N   0  0  0  0  0  0  0  0  0  0  0  0
    7.4922  -14.3434   24.5913 C   0  0  0  0  0  0  0  0  0  0  0  0
    8.3775  -13.4434   24.6630 O   0  0  0  0  0  0  0  0  0  0  0  0
    6.5400  -14.3281   25.6019 O   0  0  0  0  0  0  0  0  0  0  0  0
  2  3  1  0
  2  1  1  0
  3  4  1  1
  5  3  1  0
  6  5  2  0
  8  7  1  0
  9  8  1  6
  9 11  1  0
  9 10  1  0
 10  5  1  0
 11 21  1  0
 12 11  2  0
 14 15  2  0
 14 13  1  0
 16 14  1  0
 17 16  1  0
 18 17  1  0
 19 18  1  0
 20 19  1  1
 20 22  1  0
 21 20  1  0
 22 23  2  0
 22 24  1  0
M  END
$$$$
