SSR.pdb
     RDKit          3D

 24 23  0  0  1  0  0  0  0  0999 V2000
    8.4001  -15.5567   14.4464 O   0  0  0  0  0  0  0  0  0  0  0  0
    7.7069  -15.5684   15.6586 C   0  0  0  0  0  0  0  0  0  0  0  0
    7.4201  -14.1304   16.0313 C   0  0  2  0  0  0  0  0  0  0  0  0
    7.8770  -13.2525   14.9975 N   0  0  0  0  0  0  0  0  0  0  0  0
    7.9566  -13.7812   17.3617 C   0  0  0  0  0  0  0  0  0  0  0  0
    9.0430  -13.1492   17.4171 O   0  0  0  0  0  0  0  0  0  0  0  0
    6.5286  -15.7770   20.7930 O   0  0  0  0  0  0  0  0  0  0  0  0
    6.8430  -14.4310   20.9150 C   0  0  0  0  0  0  0  0  0  0  0  0
    7.8847  -14.0596   19.8618 C   0  0  2  0  0  0  0  0  0  0  0  0
    7.2893  -14.1345   18.5626 N   0  0  0  0  0  0  0  0  0  0  0  0
    9.1096  -14.8500   19.9998 C   0  0  0  0  0  0  0  0  0  0  0  0
    9.3285  -15.7243   19.0987 O   0  0  0  0  0  0  0  0  0  0  0  0
   16.4232  -14.4064   21.7815 N   0  0  0  0  0  0  0  0  0  0  0  0
   16.8784  -14.9238   20.5152 C   0  0  0  0  0  0  0  0  0  0  0  0
   18.0607  -15.4276   20.4524 N   0  0  0  0  0  0  0  0  0  0  0  0
   16.0098  -14.8581   19.3922 N   0  0  0  0  0  0  0  0  0  0  0  0
   14.7085  -14.2883   19.4926 C   0  0  0  0  0  0  0  0  0  0  0  0
   13.7572  -15.1153   20.3286 C   0  0  0  0  0  0  0  0  0  0  0  0
   12.3750  -14.5218   20.3660 C   0  0  0  0  0  0  0  0  0  0  0  0
   11.3623  -15.3578   21.0547 C   0  0  2  0  0  0  0  0  0  0  0  0
   10.0600  -14.7281   21.0355 N   0  0  0  0  0  0  0  0  0  0  0  0
   11.7537  -15.8047   22.4076 C   0  0  0  0  0  0  0  0  0  0  0  0
   11.1966  -15.3905   23.4645 O   0  0  0  0  0  0  0  0  0  0  0  0
   12.7778  -16.7242   22.5917 O   0  0  0  0  0  0  0  0  0  0  0  0
  2  3  1  0
  2  1  1  0
  3  4  1  6
  5  3  1  0
  6  5  2  0
  8  7  1  0
  9  8  1  1
  9 11  1  0
  9 10  1  0
 10  5  1  0
 11 21  1  0
 12 11  2  0
 14 15  2  0
 14 13  1  0
 16 14  1  0
 17 16  1  0
 18 17  1  0
 19 18  1  0
 20 19  1  1
 20 22  1  0
 21 20  1  0
 22 23  2  0
 22 24  1  0
M  END
$$$$
