SSR.pdb
     RDKit          3D

 24 23  0  0  1  0  0  0  0  0999 V2000
    8.2568  -12.5659   16.0436 O   0  0  0  0  0  0  0  0  0  0  0  0
    8.0046  -12.7811   17.4001 C   0  0  0  0  0  0  0  0  0  0  0  0
    8.4880  -14.1749   17.7361 C   0  0  2  0  0  0  0  0  0  0  0  0
    7.9975  -15.1126   16.7727 N   0  0  0  0  0  0  0  0  0  0  0  0
    8.1676  -14.5567   19.1258 C   0  0  0  0  0  0  0  0  0  0  0  0
    8.3271  -13.6966   20.0301 O   0  0  0  0  0  0  0  0  0  0  0  0
    6.8374  -18.4458   20.0208 O   0  0  0  0  0  0  0  0  0  0  0  0
    6.3343  -17.3763   20.7478 C   0  0  0  0  0  0  0  0  0  0  0  0
    7.3804  -16.2647   20.7979 C   0  0  2  0  0  0  0  0  0  0  0  0
    7.6913  -15.8493   19.4642 N   0  0  0  0  0  0  0  0  0  0  0  0
    8.5517  -16.6497   21.5879 C   0  0  0  0  0  0  0  0  0  0  0  0
    9.5700  -17.0551   20.9375 O   0  0  0  0  0  0  0  0  0  0  0  0
   10.7585  -15.7288   30.1943 N   0  0  0  0  0  0  0  0  0  0  0  0
   10.5603  -14.8133   29.0984 C   0  0  0  0  0  0  0  0  0  0  0  0
   10.2909  -13.5851   29.3715 N   0  0  0  0  0  0  0  0  0  0  0  0
   10.6693  -15.2991   27.7671 N   0  0  0  0  0  0  0  0  0  0  0  0
   10.6559  -16.6944   27.4827 C   0  0  0  0  0  0  0  0  0  0  0  0
   10.8852  -17.0083   26.0209 C   0  0  0  0  0  0  0  0  0  0  0  0
    9.7183  -16.5973   25.1645 C   0  0  0  0  0  0  0  0  0  0  0  0
    9.7683  -17.0998   23.7702 C   0  0  2  0  0  0  0  0  0  0  0  0
    8.6492  -16.6106   22.9950 N   0  0  0  0  0  0  0  0  0  0  0  0
    9.9412  -18.5624   23.6516 C   0  0  0  0  0  0  0  0  0  0  0  0
    8.9734  -19.3734   23.5846 O   0  0  0  0  0  0  0  0  0  0  0  0
   11.2057  -19.1345   23.6064 O   0  0  0  0  0  0  0  0  0  0  0  0
  2  3  1  0
  2  1  1  0
  3  4  1  6
  5  3  1  0
  6  5  2  0
  8  7  1  0
  9  8  1  6
  9 11  1  0
  9 10  1  0
 10  5  1  0
 11 21  1  0
 12 11  2  0
 14 15  2  0
 14 13  1  0
 16 14  1  0
 17 16  1  0
 18 17  1  0
 19 18  1  0
 20 19  1  1
 20 22  1  0
 21 20  1  0
 22 23  2  0
 22 24  1  0
M  END
$$$$
