SSR.pdb
     RDKit          3D

 24 23  0  0  1  0  0  0  0  0999 V2000
    9.4706  -14.5858   15.2455 O   0  0  0  0  0  0  0  0  0  0  0  0
    9.5437  -14.5127   16.6381 C   0  0  0  0  0  0  0  0  0  0  0  0
    8.1268  -14.4412   17.1639 C   0  0  2  0  0  0  0  0  0  0  0  0
    7.5674  -13.1506   16.9000 N   0  0  0  0  0  0  0  0  0  0  0  0
    8.0394  -14.8266   18.5864 C   0  0  0  0  0  0  0  0  0  0  0  0
    8.0120  -13.9114   19.4492 O   0  0  0  0  0  0  0  0  0  0  0  0
    7.9126  -18.9121   19.8178 O   0  0  0  0  0  0  0  0  0  0  0  0
    7.0829  -17.9487   20.3735 C   0  0  0  0  0  0  0  0  0  0  0  0
    7.7969  -16.5986   20.3566 C   0  0  2  0  0  0  0  0  0  0  0  0
    7.9862  -16.1822   19.0007 N   0  0  0  0  0  0  0  0  0  0  0  0
    9.0285  -16.6201   21.1484 C   0  0  0  0  0  0  0  0  0  0  0  0
   10.1150  -16.8026   20.5078 O   0  0  0  0  0  0  0  0  0  0  0  0
   10.3285  -14.9817   29.6903 N   0  0  0  0  0  0  0  0  0  0  0  0
   10.0681  -14.1631   28.5325 C   0  0  0  0  0  0  0  0  0  0  0  0
    9.4859  -13.0289   28.7066 N   0  0  0  0  0  0  0  0  0  0  0  0
   10.4620  -14.6367   27.2516 N   0  0  0  0  0  0  0  0  0  0  0  0
   10.9773  -15.9522   27.0729 C   0  0  0  0  0  0  0  0  0  0  0  0
   11.3002  -16.2765   25.6312 C   0  0  0  0  0  0  0  0  0  0  0  0
   10.0837  -16.2023   24.7488 C   0  0  0  0  0  0  0  0  0  0  0  0
   10.3326  -16.5331   23.3249 C   0  0  2  0  0  0  0  0  0  0  0  0
    9.1150  -16.4574   22.5473 N   0  0  0  0  0  0  0  0  0  0  0  0
   11.0632  -17.7990   23.1083 C   0  0  0  0  0  0  0  0  0  0  0  0
   10.5025  -18.8704   22.7384 O   0  0  0  0  0  0  0  0  0  0  0  0
   12.4355  -17.8786   23.3046 O   0  0  0  0  0  0  0  0  0  0  0  0
  2  3  1  0
  2  1  1  0
  3  4  1  1
  5  3  1  0
  6  5  2  0
  8  7  1  0
  9  8  1  6
  9 11  1  0
  9 10  1  0
 10  5  1  0
 11 21  1  0
 12 11  2  0
 14 15  2  0
 14 13  1  0
 16 14  1  0
 17 16  1  0
 18 17  1  0
 19 18  1  0
 20 19  1  1
 20 22  1  0
 21 20  1  0
 22 23  2  0
 22 24  1  0
M  END
$$$$
