SSR.pdb
     RDKit          3D

 24 23  0  0  1  0  0  0  0  0999 V2000
   10.6255  -13.7453   17.2614 O   0  0  0  0  0  0  0  0  0  0  0  0
   10.1295  -14.9078   16.6676 C   0  0  0  0  0  0  0  0  0  0  0  0
    8.6199  -14.8068   16.6631 C   0  0  2  0  0  0  0  0  0  0  0  0
    8.2143  -13.5029   16.2348 N   0  0  0  0  0  0  0  0  0  0  0  0
    8.0308  -15.1960   17.9597 C   0  0  0  0  0  0  0  0  0  0  0  0
    7.7187  -14.2841   18.7681 O   0  0  0  0  0  0  0  0  0  0  0  0
    8.3470  -19.1170   19.4237 O   0  0  0  0  0  0  0  0  0  0  0  0
    7.1173  -18.4911   19.5706 C   0  0  0  0  0  0  0  0  0  0  0  0
    7.3214  -16.9776   19.5892 C   0  0  2  0  0  0  0  0  0  0  0  0
    7.8104  -16.5519   18.3135 N   0  0  0  0  0  0  0  0  0  0  0  0
    8.1532  -16.5507   20.7162 C   0  0  0  0  0  0  0  0  0  0  0  0
    9.3885  -16.3551   20.4713 O   0  0  0  0  0  0  0  0  0  0  0  0
    7.0601  -11.6486   28.2551 N   0  0  0  0  0  0  0  0  0  0  0  0
    6.6584  -11.8196   26.8811 C   0  0  0  0  0  0  0  0  0  0  0  0
    5.6073  -11.2003   26.4720 N   0  0  0  0  0  0  0  0  0  0  0  0
    7.4334  -12.6600   26.0366 N   0  0  0  0  0  0  0  0  0  0  0  0
    7.6919  -14.0185   26.3765 C   0  0  0  0  0  0  0  0  0  0  0  0
    8.5529  -14.7351   25.3600 C   0  0  0  0  0  0  0  0  0  0  0  0
    7.7598  -15.1830   24.1624 C   0  0  0  0  0  0  0  0  0  0  0  0
    8.5427  -15.9266   23.1460 C   0  0  2  0  0  0  0  0  0  0  0  0
    7.7085  -16.3391   22.0385 N   0  0  0  0  0  0  0  0  0  0  0  0
    9.3519  -17.0378   23.6880 C   0  0  0  0  0  0  0  0  0  0  0  0
    8.9519  -18.2369   23.7215 O   0  0  0  0  0  0  0  0  0  0  0  0
   10.6234  -16.8166   24.2006 O   0  0  0  0  0  0  0  0  0  0  0  0
  2  3  1  0
  2  1  1  0
  3  4  1  1
  5  3  1  0
  6  5  2  0
  8  7  1  0
  9  8  1  6
  9 11  1  0
  9 10  1  0
 10  5  1  0
 11 21  1  0
 12 11  2  0
 14 15  2  0
 14 13  1  0
 16 14  1  0
 17 16  1  0
 18 17  1  0
 19 18  1  0
 20 19  1  1
 20 22  1  0
 21 20  1  0
 22 23  2  0
 22 24  1  0
M  END
$$$$
