SSR.pdb
     RDKit          3D

 24 23  0  0  1  0  0  0  0  0999 V2000
   10.6803  -13.6269   18.5856 O   0  0  0  0  0  0  0  0  0  0  0  0
    9.8797  -14.3317   17.6844 C   0  0  0  0  0  0  0  0  0  0  0  0
    8.4387  -13.9894   17.9936 C   0  0  2  0  0  0  0  0  0  0  0  0
    8.2227  -12.5827   17.8428 N   0  0  0  0  0  0  0  0  0  0  0  0
    8.0150  -14.4987   19.3130 C   0  0  0  0  0  0  0  0  0  0  0  0
    7.7475  -13.6629   20.2144 O   0  0  0  0  0  0  0  0  0  0  0  0
    8.2204  -18.6245   20.3097 O   0  0  0  0  0  0  0  0  0  0  0  0
    7.1050  -17.8852   20.6769 C   0  0  0  0  0  0  0  0  0  0  0  0
    7.5061  -16.4223   20.8536 C   0  0  2  0  0  0  0  0  0  0  0  0
    7.9032  -15.8858   19.5878 N   0  0  0  0  0  0  0  0  0  0  0  0
    8.5055  -16.2518   21.9103 C   0  0  0  0  0  0  0  0  0  0  0  0
    9.7092  -16.0711   21.5328 O   0  0  0  0  0  0  0  0  0  0  0  0
    5.0200  -12.7773   27.1504 N   0  0  0  0  0  0  0  0  0  0  0  0
    6.0700  -11.8096   26.9522 C   0  0  0  0  0  0  0  0  0  0  0  0
    5.7580  -10.5612   26.9622 N   0  0  0  0  0  0  0  0  0  0  0  0
    7.4007  -12.2681   26.7549 N   0  0  0  0  0  0  0  0  0  0  0  0
    7.7212  -13.6551   26.7927 C   0  0  0  0  0  0  0  0  0  0  0  0
    8.2736  -14.1765   25.4847 C   0  0  0  0  0  0  0  0  0  0  0  0
    8.6980  -15.6166   25.5840 C   0  0  0  0  0  0  0  0  0  0  0  0
    9.2592  -16.1827   24.3336 C   0  0  2  0  0  0  0  0  0  0  0  0
    8.2526  -16.2703   23.2983 N   0  0  0  0  0  0  0  0  0  0  0  0
    9.9978  -17.4499   24.5119 C   0  0  0  0  0  0  0  0  0  0  0  0
    9.5067  -18.5841   24.2443 O   0  0  0  0  0  0  0  0  0  0  0  0
   11.3000  -17.4603   24.9938 O   0  0  0  0  0  0  0  0  0  0  0  0
  2  3  1  0
  2  1  1  0
  3  4  1  1
  5  3  1  0
  6  5  2  0
  8  7  1  0
  9  8  1  6
  9 11  1  0
  9 10  1  0
 10  5  1  0
 11 21  1  0
 12 11  2  0
 14 15  2  0
 14 13  1  0
 16 14  1  0
 17 16  1  0
 18 17  1  0
 19 18  1  0
 20 19  1  1
 20 22  1  0
 21 20  1  0
 22 23  2  0
 22 24  1  0
M  END
$$$$
