SSR.pdb
     RDKit          3D

 24 23  0  0  1  0  0  0  0  0999 V2000
    8.8815  -16.6312   17.3559 O   0  0  0  0  0  0  0  0  0  0  0  0
    9.0703  -15.4696   16.6042 C   0  0  0  0  0  0  0  0  0  0  0  0
    8.2493  -14.3738   17.2479 C   0  0  2  0  0  0  0  0  0  0  0  0
    8.2822  -13.1934   16.4394 N   0  0  0  0  0  0  0  0  0  0  0  0
    8.6503  -14.1248   18.6468 C   0  0  0  0  0  0  0  0  0  0  0  0
    9.6332  -13.3684   18.8574 O   0  0  0  0  0  0  0  0  0  0  0  0
    6.3207  -15.5225   21.8807 O   0  0  0  0  0  0  0  0  0  0  0  0
    7.0579  -14.3490   21.9507 C   0  0  0  0  0  0  0  0  0  0  0  0
    8.3265  -14.5004   21.1139 C   0  0  2  0  0  0  0  0  0  0  0  0
    7.9665  -14.7075   19.7445 N   0  0  0  0  0  0  0  0  0  0  0  0
    9.2202  -15.5267   21.6544 C   0  0  0  0  0  0  0  0  0  0  0  0
    8.9907  -16.7283   21.2970 O   0  0  0  0  0  0  0  0  0  0  0  0
   16.6568  -18.0565   23.9379 N   0  0  0  0  0  0  0  0  0  0  0  0
   16.7238  -16.7490   23.3343 C   0  0  0  0  0  0  0  0  0  0  0  0
   17.6994  -16.4965   22.5342 N   0  0  0  0  0  0  0  0  0  0  0  0
   15.7164  -15.7953   23.6437 N   0  0  0  0  0  0  0  0  0  0  0  0
   14.6763  -16.0887   24.5711 C   0  0  0  0  0  0  0  0  0  0  0  0
   13.4670  -16.7315   23.9288 C   0  0  0  0  0  0  0  0  0  0  0  0
   12.3271  -15.7618   23.7727 C   0  0  0  0  0  0  0  0  0  0  0  0
   11.1122  -16.3330   23.1429 C   0  0  2  0  0  0  0  0  0  0  0  0
   10.3042  -15.3018   22.5293 N   0  0  0  0  0  0  0  0  0  0  0  0
   10.3237  -17.2188   24.0242 C   0  0  0  0  0  0  0  0  0  0  0  0
    9.3494  -16.8161   24.7224 O   0  0  0  0  0  0  0  0  0  0  0  0
   10.6194  -18.5712   24.1331 O   0  0  0  0  0  0  0  0  0  0  0  0
  2  3  1  0
  2  1  1  0
  3  4  1  6
  5  3  1  0
  6  5  2  0
  8  7  1  0
  9  8  1  1
  9 11  1  0
  9 10  1  0
 10  5  1  0
 11 21  1  0
 12 11  2  0
 14 15  2  0
 14 13  1  0
 16 14  1  0
 17 16  1  0
 18 17  1  0
 19 18  1  0
 20 19  1  1
 20 22  1  0
 21 20  1  0
 22 23  2  0
 22 24  1  0
M  END
$$$$
