SSR.pdb
     RDKit          3D

 24 23  0  0  1  0  0  0  0  0999 V2000
    8.4949  -16.6027   15.0136 O   0  0  0  0  0  0  0  0  0  0  0  0
    7.3001  -15.9057   14.8222 C   0  0  0  0  0  0  0  0  0  0  0  0
    7.6247  -14.4285   14.8643 C   0  0  2  0  0  0  0  0  0  0  0  0
    8.2527  -14.0266   13.6427 N   0  0  0  0  0  0  0  0  0  0  0  0
    8.4077  -14.0632   16.0614 C   0  0  0  0  0  0  0  0  0  0  0  0
    9.6588  -13.9882   15.9529 O   0  0  0  0  0  0  0  0  0  0  0  0
    6.7039  -14.3097   19.8797 O   0  0  0  0  0  0  0  0  0  0  0  0
    7.5365  -13.2252   19.6427 C   0  0  0  0  0  0  0  0  0  0  0  0
    8.5193  -13.5788   18.5283 C   0  0  2  0  0  0  0  0  0  0  0  0
    7.7957  -13.7983   17.3134 N   0  0  0  0  0  0  0  0  0  0  0  0
    9.3982  -14.6879   18.9043 C   0  0  0  0  0  0  0  0  0  0  0  0
    9.1750  -15.8088   18.3403 O   0  0  0  0  0  0  0  0  0  0  0  0
   17.0890  -15.1310   16.9925 N   0  0  0  0  0  0  0  0  0  0  0  0
   16.9177  -14.1061   17.9919 C   0  0  0  0  0  0  0  0  0  0  0  0
   17.7869  -13.1589   18.0485 N   0  0  0  0  0  0  0  0  0  0  0  0
   15.8028  -14.1803   18.8702 N   0  0  0  0  0  0  0  0  0  0  0  0
   14.7300  -15.0863   18.6330 C   0  0  0  0  0  0  0  0  0  0  0  0
   13.6179  -14.9752   19.6522 C   0  0  0  0  0  0  0  0  0  0  0  0
   12.4638  -15.8857   19.3314 C   0  0  0  0  0  0  0  0  0  0  0  0
   11.2926  -15.7380   20.2288 C   0  0  2  0  0  0  0  0  0  0  0  0
   10.4619  -14.6231   19.8293 N   0  0  0  0  0  0  0  0  0  0  0  0
   11.6234  -15.7085   21.6685 C   0  0  0  0  0  0  0  0  0  0  0  0
   11.4140  -14.7053   22.4092 O   0  0  0  0  0  0  0  0  0  0  0  0
   12.1947  -16.8073   22.2966 O   0  0  0  0  0  0  0  0  0  0  0  0
  2  3  1  0
  2  1  1  0
  3  4  1  6
  5  3  1  0
  6  5  2  0
  8  7  1  0
  9  8  1  1
  9 11  1  0
  9 10  1  0
 10  5  1  0
 11 21  1  0
 12 11  2  0
 14 15  2  0
 14 13  1  0
 16 14  1  0
 17 16  1  0
 18 17  1  0
 19 18  1  0
 20 19  1  6
 20 22  1  0
 21 20  1  0
 22 23  2  0
 22 24  1  0
M  END
$$$$
