SSR.pdb
     RDKit          3D

 24 23  0  0  1  0  0  0  0  0999 V2000
   11.0201  -12.5628   17.8025 O   0  0  0  0  0  0  0  0  0  0  0  0
   10.6745  -13.9151   17.7597 C   0  0  0  0  0  0  0  0  0  0  0  0
    9.1650  -13.9999   17.8172 C   0  0  2  0  0  0  0  0  0  0  0  0
    8.5902  -12.7059   17.6090 N   0  0  0  0  0  0  0  0  0  0  0  0
    8.6894  -14.6486   19.0552 C   0  0  0  0  0  0  0  0  0  0  0  0
    8.2416  -13.9166   19.9753 O   0  0  0  0  0  0  0  0  0  0  0  0
    7.8886  -18.8741   21.3481 O   0  0  0  0  0  0  0  0  0  0  0  0
    8.2707  -18.2272   20.1814 C   0  0  0  0  0  0  0  0  0  0  0  0
    8.3186  -16.7215   20.4329 C   0  0  2  0  0  0  0  0  0  0  0  0
    8.7233  -16.0555   19.2327 N   0  0  0  0  0  0  0  0  0  0  0  0
    9.1349  -16.3869   21.6016 C   0  0  0  0  0  0  0  0  0  0  0  0
   10.3949  -16.3281   21.4191 O   0  0  0  0  0  0  0  0  0  0  0  0
   10.1346  -16.3957   28.9784 N   0  0  0  0  0  0  0  0  0  0  0  0
   10.0044  -15.0508   29.4813 C   0  0  0  0  0  0  0  0  0  0  0  0
   10.4727  -14.7896   30.6510 N   0  0  0  0  0  0  0  0  0  0  0  0
    9.3682  -14.0714   28.6713 N   0  0  0  0  0  0  0  0  0  0  0  0
    8.6275  -14.4353   27.5107 C   0  0  0  0  0  0  0  0  0  0  0  0
    9.4921  -14.9868   26.3988 C   0  0  0  0  0  0  0  0  0  0  0  0
    8.6748  -15.4474   25.2224 C   0  0  0  0  0  0  0  0  0  0  0  0
    9.4700  -15.9641   24.0824 C   0  0  2  0  0  0  0  0  0  0  0  0
    8.6508  -16.1261   22.9011 N   0  0  0  0  0  0  0  0  0  0  0  0
   10.2663  -17.1708   24.3873 C   0  0  0  0  0  0  0  0  0  0  0  0
    9.8062  -18.3458   24.3061 O   0  0  0  0  0  0  0  0  0  0  0  0
   11.5921  -17.0736   24.7883 O   0  0  0  0  0  0  0  0  0  0  0  0
  2  3  1  0
  2  1  1  0
  3  4  1  1
  5  3  1  0
  6  5  2  0
  8  7  1  0
  9  8  1  6
  9 11  1  0
  9 10  1  0
 10  5  1  0
 11 21  1  0
 12 11  2  0
 14 15  2  0
 14 13  1  0
 16 14  1  0
 17 16  1  0
 18 17  1  0
 19 18  1  0
 20 19  1  1
 20 22  1  0
 21 20  1  0
 22 23  2  0
 22 24  1  0
M  END
$$$$
