SSR.pdb
     RDKit          3D

 24 23  0  0  1  0  0  0  0  0999 V2000
   10.0762  -14.1207   17.7810 O   0  0  0  0  0  0  0  0  0  0  0  0
    8.7817  -14.2931   17.2863 C   0  0  0  0  0  0  0  0  0  0  0  0
    7.8289  -13.6639   18.2790 C   0  0  2  0  0  0  0  0  0  0  0  0
    8.0819  -12.2592   18.3831 N   0  0  0  0  0  0  0  0  0  0  0  0
    7.8505  -14.3510   19.5856 C   0  0  0  0  0  0  0  0  0  0  0  0
    8.4712  -13.8049   20.5339 O   0  0  0  0  0  0  0  0  0  0  0  0
    6.1378  -18.1254   22.1468 O   0  0  0  0  0  0  0  0  0  0  0  0
    6.4058  -17.5900   20.8950 C   0  0  0  0  0  0  0  0  0  0  0  0
    7.1375  -16.2599   21.0623 C   0  0  2  0  0  0  0  0  0  0  0  0
    7.1993  -15.5932   19.7975 N   0  0  0  0  0  0  0  0  0  0  0  0
    8.4405  -16.4287   21.7086 C   0  0  0  0  0  0  0  0  0  0  0  0
    9.4396  -16.6108   20.9385 O   0  0  0  0  0  0  0  0  0  0  0  0
    9.6921  -15.9188   29.9514 N   0  0  0  0  0  0  0  0  0  0  0  0
   10.0071  -14.8459   29.0414 C   0  0  0  0  0  0  0  0  0  0  0  0
    9.4445  -13.7038   29.2280 N   0  0  0  0  0  0  0  0  0  0  0  0
   10.9208  -15.0890   27.9803 N   0  0  0  0  0  0  0  0  0  0  0  0
   11.0626  -16.3839   27.4048 C   0  0  0  0  0  0  0  0  0  0  0  0
   11.2129  -16.3556   25.8999 C   0  0  0  0  0  0  0  0  0  0  0  0
    9.8848  -16.4352   25.1973 C   0  0  0  0  0  0  0  0  0  0  0  0
    9.9732  -16.5948   23.7257 C   0  0  2  0  0  0  0  0  0  0  0  0
    8.6832  -16.4073   23.0984 N   0  0  0  0  0  0  0  0  0  0  0  0
   10.6416  -17.8358   23.2827 C   0  0  0  0  0  0  0  0  0  0  0  0
   10.0288  -18.9256   23.0932 O   0  0  0  0  0  0  0  0  0  0  0  0
   12.0095  -17.8695   23.0463 O   0  0  0  0  0  0  0  0  0  0  0  0
  2  3  1  0
  2  1  1  0
  3  4  1  1
  5  3  1  0
  6  5  2  0
  8  7  1  0
  9  8  1  6
  9 11  1  0
  9 10  1  0
 10  5  1  0
 11 21  1  0
 12 11  2  0
 14 15  2  0
 14 13  1  0
 16 14  1  0
 17 16  1  0
 18 17  1  0
 19 18  1  0
 20 19  1  1
 20 22  1  0
 21 20  1  0
 22 23  2  0
 22 24  1  0
M  END
$$$$
