DYW.pdb
     RDKit          3D

 35 37  0  0  1  0  0  0  0  0999 V2000
   24.8008  -33.3689  -11.9366 N   0  0  0  0  0  0  0  0  0  0  0  0
   25.4997  -34.3068  -11.1160 C   0  0  1  0  0  0  0  0  0  0  0  0
   26.3749  -35.2633  -11.8970 C   0  0  0  0  0  0  0  0  0  0  0  0
   25.6572  -36.4791  -12.3243 C   0  0  0  0  0  0  0  0  0  0  0  0
   24.7043  -36.9338  -11.6195 O   0  0  0  0  0  0  0  0  0  0  0  0
   26.3016  -33.5834  -10.0751 C   0  0  0  0  0  0  0  0  0  0  0  0
   27.4836  -33.2507  -10.3180 O   0  0  0  0  0  0  0  0  0  0  0  0
   26.0281  -37.1207  -13.4969 O   0  0  0  0  0  0  0  0  0  0  0  0
   20.1196  -32.0553   -7.6990 O   0  0  0  0  0  0  0  0  0  0  0  0
   21.4921  -31.9895   -7.5049 C   0  0  0  0  0  0  0  0  0  0  0  0
   22.3282  -31.1640   -8.2268 C   0  0  0  0  0  0  0  0  0  0  0  0
   23.7072  -31.1413   -7.9857 C   0  0  0  0  0  0  0  0  0  0  0  0
   24.2593  -31.9566   -7.0078 C   0  0  0  0  0  0  0  0  0  0  0  0
   25.6948  -31.9401   -6.7462 C   0  0  0  0  0  0  0  0  0  0  0  0
   26.5379  -32.6653   -7.7329 C   0  0  2  0  0  0  0  0  0  0  0  0
   25.7612  -33.2575   -8.8063 N   0  0  0  0  0  0  0  0  0  0  0  0
   27.4357  -33.6975   -7.1649 C   0  0  0  0  0  0  0  0  0  0  0  0
   28.0711  -34.4910   -7.9449 O   0  0  0  0  0  0  0  0  0  0  0  0
   23.4258  -32.7778   -6.2898 C   0  0  0  0  0  0  0  0  0  0  0  0
   22.0473  -32.8085   -6.5222 C   0  0  0  0  0  0  0  0  0  0  0  0
   27.6584  -33.8822   -5.7760 N   0  0  0  0  0  0  0  0  0  0  0  0
   28.9549  -34.3166   -5.2384 C   0  0  1  0  0  0  0  0  0  0  0  0
   30.0624  -33.5477   -5.8723 C   0  0  0  0  0  0  0  0  0  0  0  0
   31.3044  -34.3343   -5.9386 C   0  0  0  0  0  0  0  0  0  0  0  0
   31.9738  -34.7478   -7.0901 C   0  0  0  0  0  0  0  0  0  0  0  0
   33.0403  -35.4723   -6.7376 N   0  0  0  0  0  0  0  0  0  0  0  0
   33.1057  -35.5554   -5.3911 C   0  0  0  0  0  0  0  0  0  0  0  0
   34.0088  -36.1659   -4.5301 C   0  0  0  0  0  0  0  0  0  0  0  0
   33.8914  -36.1060   -3.1604 C   0  0  0  0  0  0  0  0  0  0  0  0
   32.8146  -35.3981   -2.6692 C   0  0  0  0  0  0  0  0  0  0  0  0
   31.9062  -34.7855   -3.4944 C   0  0  0  0  0  0  0  0  0  0  0  0
   32.0489  -34.8629   -4.8804 C   0  0  0  0  0  0  0  0  0  0  0  0
   28.9793  -34.4385   -3.7885 C   0  0  0  0  0  0  0  0  0  0  0  0
   28.6900  -33.4889   -3.0009 O   0  0  0  0  0  0  0  0  0  0  0  0
   29.3278  -35.6297   -3.1198 O   0  0  0  0  0  0  0  0  0  0  0  0
  2  1  1  6
  3  2  1  0
  3  4  1  0
  4  8  1  0
  5  4  2  0
  6  2  1  0
  6  7  2  0
  9 10  1  0
 10 11  2  0
 11 12  1  0
 13 12  2  0
 13 14  1  0
 15 14  1  1
 15 16  1  0
 15 17  1  0
 16  6  1  0
 17 21  1  0
 18 17  2  0
 19 13  1  0
 20 10  1  0
 20 19  2  0
 21 22  1  0
 22 33  1  0
 22 23  1  1
 24 23  1  0
 24 32  1  0
 25 26  1  0
 25 24  2  0
 26 27  1  0
 27 32  2  0
 27 28  1  0
 28 29  2  0
 29 30  1  0
 31 30  2  0
 32 31  1  0
 33 34  2  0
 33 35  1  0
M  END
$$$$
