DYW.pdb
     RDKit          3D

 35 37  0  0  1  0  0  0  0  0999 V2000
   17.6901  -17.8321    5.1130 N   0  0  0  0  0  0  0  0  0  0  0  0
   17.9503  -18.0961    6.4929 C   0  0  1  0  0  0  0  0  0  0  0  0
   18.0537  -19.5702    6.8202 C   0  0  0  0  0  0  0  0  0  0  0  0
   16.7608  -20.2730    6.7169 C   0  0  0  0  0  0  0  0  0  0  0  0
   15.6795  -19.6489    6.9465 O   0  0  0  0  0  0  0  0  0  0  0  0
   19.1849  -17.3670    6.9330 C   0  0  0  0  0  0  0  0  0  0  0  0
   20.1998  -17.3599    6.2003 O   0  0  0  0  0  0  0  0  0  0  0  0
   16.7334  -21.6154    6.3684 O   0  0  0  0  0  0  0  0  0  0  0  0
   19.9855  -10.5844    5.1732 O   0  0  0  0  0  0  0  0  0  0  0  0
   20.0778  -11.5610    6.1548 C   0  0  0  0  0  0  0  0  0  0  0  0
   21.2243  -11.8122    6.8789 C   0  0  0  0  0  0  0  0  0  0  0  0
   21.2570  -12.8125    7.8579 C   0  0  0  0  0  0  0  0  0  0  0  0
   20.1261  -13.5738    8.1174 C   0  0  0  0  0  0  0  0  0  0  0  0
   20.1477  -14.6177    9.1368 C   0  0  0  0  0  0  0  0  0  0  0  0
   20.4334  -15.9917    8.6462 C   0  0  2  0  0  0  0  0  0  0  0  0
   19.2454  -16.6747    8.1680 N   0  0  0  0  0  0  0  0  0  0  0  0
   21.1412  -16.8739    9.6027 C   0  0  0  0  0  0  0  0  0  0  0  0
   20.7052  -18.0586    9.8222 O   0  0  0  0  0  0  0  0  0  0  0  0
   18.9855  -13.3226    7.3960 C   0  0  0  0  0  0  0  0  0  0  0  0
   18.9416  -12.3263    6.4160 C   0  0  0  0  0  0  0  0  0  0  0  0
   22.3073  -16.4990   10.3186 N   0  0  0  0  0  0  0  0  0  0  0  0
   23.0369  -17.4389   11.1806 C   0  0  1  0  0  0  0  0  0  0  0  0
   23.3403  -18.6942   10.4380 C   0  0  0  0  0  0  0  0  0  0  0  0
   23.8978  -19.7300   11.3223 C   0  0  0  0  0  0  0  0  0  0  0  0
   23.2008  -20.7681   11.9400 C   0  0  0  0  0  0  0  0  0  0  0  0
   24.0495  -21.4756   12.6923 N   0  0  0  0  0  0  0  0  0  0  0  0
   25.2882  -20.9458   12.5969 C   0  0  0  0  0  0  0  0  0  0  0  0
   26.5089  -21.3039   13.1545 C   0  0  0  0  0  0  0  0  0  0  0  0
   27.6752  -20.6194   12.9002 C   0  0  0  0  0  0  0  0  0  0  0  0
   27.5769  -19.5388   12.0490 C   0  0  0  0  0  0  0  0  0  0  0  0
   26.3857  -19.1608   11.4840 C   0  0  0  0  0  0  0  0  0  0  0  0
   25.2175  -19.8726   11.7598 C   0  0  0  0  0  0  0  0  0  0  0  0
   24.1295  -16.8288   11.9232 C   0  0  0  0  0  0  0  0  0  0  0  0
   24.3331  -17.0263   13.1582 O   0  0  0  0  0  0  0  0  0  0  0  0
   25.0696  -15.9572   11.3366 O   0  0  0  0  0  0  0  0  0  0  0  0
  2  1  1  6
  3  2  1  0
  3  4  1  0
  4  8  1  0
  5  4  2  0
  6  2  1  0
  6  7  2  0
  9 10  1  0
 10 11  2  0
 11 12  1  0
 13 12  2  0
 13 14  1  0
 15 14  1  1
 15 16  1  0
 15 17  1  0
 16  6  1  0
 17 21  1  0
 18 17  2  0
 19 13  1  0
 20 10  1  0
 20 19  2  0
 21 22  1  0
 22 33  1  0
 22 23  1  6
 24 23  1  0
 24 32  1  0
 25 26  1  0
 25 24  2  0
 26 27  1  0
 27 32  2  0
 27 28  1  0
 28 29  2  0
 29 30  1  0
 31 30  2  0
 32 31  1  0
 33 34  2  0
 33 35  1  0
M  END
$$$$
