DYW.pdb
     RDKit          3D

 35 37  0  0  1  0  0  0  0  0999 V2000
   22.7305  -20.1836  -16.0913 N   0  0  0  0  0  0  0  0  0  0  0  0
   23.7999  -19.4543  -15.4863 C   0  0  1  0  0  0  0  0  0  0  0  0
   24.0447  -18.1003  -16.1167 C   0  0  0  0  0  0  0  0  0  0  0  0
   24.7138  -18.1905  -17.4283 C   0  0  0  0  0  0  0  0  0  0  0  0
   24.2722  -17.5219  -18.4129 O   0  0  0  0  0  0  0  0  0  0  0  0
   23.5611  -19.3178  -14.0118 C   0  0  0  0  0  0  0  0  0  0  0  0
   23.3202  -18.1919  -13.5205 O   0  0  0  0  0  0  0  0  0  0  0  0
   25.8248  -19.0073  -17.5792 O   0  0  0  0  0  0  0  0  0  0  0  0
   17.2521  -18.5415  -12.5635 O   0  0  0  0  0  0  0  0  0  0  0  0
   18.4563  -19.1275  -12.1997 C   0  0  0  0  0  0  0  0  0  0  0  0
   19.1416  -18.8142  -11.0448 C   0  0  0  0  0  0  0  0  0  0  0  0
   20.3543  -19.4396  -10.7308 C   0  0  0  0  0  0  0  0  0  0  0  0
   20.8905  -20.3931  -11.5847 C   0  0  0  0  0  0  0  0  0  0  0  0
   22.1526  -21.0531  -11.2670 C   0  0  0  0  0  0  0  0  0  0  0  0
   23.3809  -20.3415  -11.7087 C   0  0  2  0  0  0  0  0  0  0  0  0
   23.5987  -20.4347  -13.1407 N   0  0  0  0  0  0  0  0  0  0  0  0
   24.6271  -20.7295  -11.0081 C   0  0  0  0  0  0  0  0  0  0  0  0
   25.0987  -21.9122  -11.1510 O   0  0  0  0  0  0  0  0  0  0  0  0
   20.2071  -20.7042  -12.7340 C   0  0  0  0  0  0  0  0  0  0  0  0
   18.9955  -20.0859  -13.0574 C   0  0  0  0  0  0  0  0  0  0  0  0
   25.3682  -19.8635  -10.1634 N   0  0  0  0  0  0  0  0  0  0  0  0
   26.4646  -20.3444   -9.3117 C   0  0  1  0  0  0  0  0  0  0  0  0
   27.1830  -19.1948   -8.6938 C   0  0  0  0  0  0  0  0  0  0  0  0
   28.3425  -19.6374   -7.9030 C   0  0  0  0  0  0  0  0  0  0  0  0
   29.3815  -20.4639   -8.3301 C   0  0  0  0  0  0  0  0  0  0  0  0
   30.2242  -20.6655   -7.3123 N   0  0  0  0  0  0  0  0  0  0  0  0
   29.7836  -20.0015   -6.2218 C   0  0  0  0  0  0  0  0  0  0  0  0
   30.2885  -19.8691   -4.9346 C   0  0  0  0  0  0  0  0  0  0  0  0
   29.6728  -19.1103   -3.9657 C   0  0  0  0  0  0  0  0  0  0  0  0
   28.5072  -18.4733   -4.3367 C   0  0  0  0  0  0  0  0  0  0  0  0
   27.9841  -18.5859   -5.5996 C   0  0  0  0  0  0  0  0  0  0  0  0
   28.6289  -19.3629   -6.5628 C   0  0  0  0  0  0  0  0  0  0  0  0
   26.0881  -21.4400   -8.4312 C   0  0  0  0  0  0  0  0  0  0  0  0
   25.0190  -21.4562   -7.7511 O   0  0  0  0  0  0  0  0  0  0  0  0
   26.8799  -22.5925   -8.2509 O   0  0  0  0  0  0  0  0  0  0  0  0
  2  1  1  6
  3  2  1  0
  3  4  1  0
  4  8  1  0
  5  4  2  0
  6  2  1  0
  6  7  2  0
  9 10  1  0
 10 11  2  0
 11 12  1  0
 13 12  2  0
 13 14  1  0
 15 14  1  1
 15 16  1  0
 15 17  1  0
 16  6  1  0
 17 21  1  0
 18 17  2  0
 19 13  1  0
 20 10  1  0
 20 19  2  0
 21 22  1  0
 22 33  1  0
 22 23  1  1
 24 23  1  0
 24 32  1  0
 25 26  1  0
 25 24  2  0
 26 27  1  0
 27 32  2  0
 27 28  1  0
 28 29  2  0
 29 30  1  0
 31 30  2  0
 32 31  1  0
 33 34  2  0
 33 35  1  0
M  END
$$$$
