DYW.pdb
     RDKit          3D

 35 37  0  0  1  0  0  0  0  0999 V2000
   26.3656  -22.5774  -17.4341 N   0  0  0  0  0  0  0  0  0  0  0  0
   26.0979  -21.3409  -16.7701 C   0  0  1  0  0  0  0  0  0  0  0  0
   25.3799  -20.3290  -17.6370 C   0  0  0  0  0  0  0  0  0  0  0  0
   26.2057  -19.8472  -18.7604 C   0  0  0  0  0  0  0  0  0  0  0  0
   27.4719  -19.8740  -18.6740 O   0  0  0  0  0  0  0  0  0  0  0  0
   25.3345  -21.5910  -15.5034 C   0  0  0  0  0  0  0  0  0  0  0  0
   24.6595  -22.6377  -15.3782 O   0  0  0  0  0  0  0  0  0  0  0  0
   25.5927  -19.3663  -19.9081 O   0  0  0  0  0  0  0  0  0  0  0  0
   22.2527  -20.8167   -7.2081 O   0  0  0  0  0  0  0  0  0  0  0  0
   22.9643  -20.6705   -8.3905 C   0  0  0  0  0  0  0  0  0  0  0  0
   22.8934  -19.5512   -9.1928 C   0  0  0  0  0  0  0  0  0  0  0  0
   23.6358  -19.4612  -10.3764 C   0  0  0  0  0  0  0  0  0  0  0  0
   24.4622  -20.5064  -10.7643 C   0  0  0  0  0  0  0  0  0  0  0  0
   25.2423  -20.4232  -11.9947 C   0  0  0  0  0  0  0  0  0  0  0  0
   24.5278  -20.8141  -13.2384 C   0  0  2  0  0  0  0  0  0  0  0  0
   25.3498  -20.6708  -14.4259 N   0  0  0  0  0  0  0  0  0  0  0  0
   23.2319  -20.1340  -13.4676 C   0  0  0  0  0  0  0  0  0  0  0  0
   23.2094  -18.9498  -13.9562 O   0  0  0  0  0  0  0  0  0  0  0  0
   24.5319  -21.6201   -9.9646 C   0  0  0  0  0  0  0  0  0  0  0  0
   23.7949  -21.7206   -8.7806 C   0  0  0  0  0  0  0  0  0  0  0  0
   21.9681  -20.7117  -13.1816 N   0  0  0  0  0  0  0  0  0  0  0  0
   20.7256  -19.9275  -13.1875 C   0  0  1  0  0  0  0  0  0  0  0  0
   20.5329  -19.2723  -14.5115 C   0  0  0  0  0  0  0  0  0  0  0  0
   20.3962  -20.2598  -15.5940 C   0  0  0  0  0  0  0  0  0  0  0  0
   19.7225  -21.4795  -15.5352 C   0  0  0  0  0  0  0  0  0  0  0  0
   19.8557  -22.1078  -16.7074 N   0  0  0  0  0  0  0  0  0  0  0  0
   20.5941  -21.3490  -17.5460 C   0  0  0  0  0  0  0  0  0  0  0  0
   21.0038  -21.5285  -18.8611 C   0  0  0  0  0  0  0  0  0  0  0  0
   21.7511  -20.5963  -19.5439 C   0  0  0  0  0  0  0  0  0  0  0  0
   22.0825  -19.4512  -18.8503 C   0  0  0  0  0  0  0  0  0  0  0  0
   21.6931  -19.2463  -17.5512 C   0  0  0  0  0  0  0  0  0  0  0  0
   20.9362  -20.2090  -16.8821 C   0  0  0  0  0  0  0  0  0  0  0  0
   19.5831  -20.6317  -12.6251 C   0  0  0  0  0  0  0  0  0  0  0  0
   18.4519  -20.0927  -12.4361 O   0  0  0  0  0  0  0  0  0  0  0  0
   19.6261  -21.9862  -12.2362 O   0  0  0  0  0  0  0  0  0  0  0  0
  2  1  1  6
  3  2  1  0
  3  4  1  0
  4  8  1  0
  5  4  2  0
  6  2  1  0
  6  7  2  0
  9 10  1  0
 10 11  2  0
 11 12  1  0
 13 12  2  0
 13 14  1  0
 15 14  1  1
 15 16  1  0
 15 17  1  0
 16  6  1  0
 17 21  1  0
 18 17  2  0
 19 13  1  0
 20 10  1  0
 20 19  2  0
 21 22  1  0
 22 33  1  0
 22 23  1  6
 24 23  1  0
 24 32  1  0
 25 26  1  0
 25 24  2  0
 26 27  1  0
 27 32  2  0
 27 28  1  0
 28 29  2  0
 29 30  1  0
 31 30  2  0
 32 31  1  0
 33 34  2  0
 33 35  1  0
M  END
$$$$
