DYW.pdb
     RDKit          3D

 35 37  0  0  1  0  0  0  0  0999 V2000
   28.3128  -22.6822  -18.6122 N   0  0  0  0  0  0  0  0  0  0  0  0
   28.0411  -21.4114  -18.0181 C   0  0  1  0  0  0  0  0  0  0  0  0
   27.2870  -20.4648  -18.9270 C   0  0  0  0  0  0  0  0  0  0  0  0
   28.1581  -19.8043  -19.9174 C   0  0  0  0  0  0  0  0  0  0  0  0
   27.6486  -19.2409  -20.9345 O   0  0  0  0  0  0  0  0  0  0  0  0
   27.3117  -21.5948  -16.7204 C   0  0  0  0  0  0  0  0  0  0  0  0
   26.3786  -22.4254  -16.6412 O   0  0  0  0  0  0  0  0  0  0  0  0
   29.5327  -19.8022  -19.7316 O   0  0  0  0  0  0  0  0  0  0  0  0
   24.8370  -19.9826   -8.2867 O   0  0  0  0  0  0  0  0  0  0  0  0
   25.5362  -20.1757   -9.4697 C   0  0  0  0  0  0  0  0  0  0  0  0
   25.8577  -21.4182   -9.9743 C   0  0  0  0  0  0  0  0  0  0  0  0
   26.5662  -21.5503  -11.1747 C   0  0  0  0  0  0  0  0  0  0  0  0
   26.9596  -20.4229  -11.8819 C   0  0  0  0  0  0  0  0  0  0  0  0
   27.6966  -20.5482  -13.1350 C   0  0  0  0  0  0  0  0  0  0  0  0
   26.8836  -20.9033  -14.3280 C   0  0  2  0  0  0  0  0  0  0  0  0
   27.6458  -20.8501  -15.5620 N   0  0  0  0  0  0  0  0  0  0  0  0
   25.6356  -20.1245  -14.5015 C   0  0  0  0  0  0  0  0  0  0  0  0
   25.6930  -18.9008  -14.8770 O   0  0  0  0  0  0  0  0  0  0  0  0
   26.6387  -19.1867  -11.3784 C   0  0  0  0  0  0  0  0  0  0  0  0
   25.9316  -19.0431  -10.1808 C   0  0  0  0  0  0  0  0  0  0  0  0
   24.3347  -20.6455  -14.2799 N   0  0  0  0  0  0  0  0  0  0  0  0
   23.1519  -19.7822  -14.1598 C   0  0  1  0  0  0  0  0  0  0  0  0
   23.0639  -18.8590  -15.3258 C   0  0  0  0  0  0  0  0  0  0  0  0
   22.7933  -19.5848  -16.5770 C   0  0  0  0  0  0  0  0  0  0  0  0
   22.1341  -20.8065  -16.7112 C   0  0  0  0  0  0  0  0  0  0  0  0
   22.1196  -21.1542  -18.0018 N   0  0  0  0  0  0  0  0  0  0  0  0
   22.7453  -20.2065  -18.7327 C   0  0  0  0  0  0  0  0  0  0  0  0
   22.9864  -20.0769  -20.0945 C   0  0  0  0  0  0  0  0  0  0  0  0
   23.6404  -18.9945  -20.6371 C   0  0  0  0  0  0  0  0  0  0  0  0
   24.0549  -18.0230  -19.7503 C   0  0  0  0  0  0  0  0  0  0  0  0
   23.8319  -18.1236  -18.4008 C   0  0  0  0  0  0  0  0  0  0  0  0
   23.1667  -19.2329  -17.8771 C   0  0  0  0  0  0  0  0  0  0  0  0
   21.9391  -20.4949  -13.7871 C   0  0  0  0  0  0  0  0  0  0  0  0
   20.8276  -19.9238  -13.5774 O   0  0  0  0  0  0  0  0  0  0  0  0
   21.8853  -21.8943  -13.6240 O   0  0  0  0  0  0  0  0  0  0  0  0
  2  1  1  6
  3  2  1  0
  3  4  1  0
  4  8  1  0
  5  4  2  0
  6  2  1  0
  6  7  2  0
  9 10  1  0
 10 11  2  0
 11 12  1  0
 13 12  2  0
 13 14  1  0
 15 14  1  1
 15 16  1  0
 15 17  1  0
 16  6  1  0
 17 21  1  0
 18 17  2  0
 19 13  1  0
 20 10  1  0
 20 19  2  0
 21 22  1  0
 22 33  1  0
 22 23  1  6
 24 23  1  0
 24 32  1  0
 25 26  1  0
 25 24  2  0
 26 27  1  0
 27 32  2  0
 27 28  1  0
 28 29  2  0
 29 30  1  0
 31 30  2  0
 32 31  1  0
 33 34  2  0
 33 35  1  0
M  END
$$$$
