DYW.pdb
     RDKit          3D

 35 37  0  0  1  0  0  0  0  0999 V2000
   24.6206   -8.6444  -19.1061 N   0  0  0  0  0  0  0  0  0  0  0  0
   23.2969   -8.1837  -18.8284 C   0  0  1  0  0  0  0  0  0  0  0  0
   22.2859   -8.5657  -19.8881 C   0  0  0  0  0  0  0  0  0  0  0  0
   22.2886   -7.6464  -21.0417 C   0  0  0  0  0  0  0  0  0  0  0  0
   22.9884   -6.5878  -21.0075 O   0  0  0  0  0  0  0  0  0  0  0  0
   22.8569   -8.6643  -17.4775 C   0  0  0  0  0  0  0  0  0  0  0  0
   23.1586   -9.8181  -17.0971 O   0  0  0  0  0  0  0  0  0  0  0  0
   21.5247   -7.9442  -22.1606 O   0  0  0  0  0  0  0  0  0  0  0  0
   22.3745   -2.0257  -14.0680 O   0  0  0  0  0  0  0  0  0  0  0  0
   22.3194   -3.4123  -14.0607 C   0  0  0  0  0  0  0  0  0  0  0  0
   21.3663   -4.1366  -13.3762 C   0  0  0  0  0  0  0  0  0  0  0  0
   21.3617   -5.5364  -13.4062 C   0  0  0  0  0  0  0  0  0  0  0  0
   22.3249   -6.2231  -14.1318 C   0  0  0  0  0  0  0  0  0  0  0  0
   22.3290   -7.6818  -14.1721 C   0  0  0  0  0  0  0  0  0  0  0  0
   21.6033   -8.2969  -15.3145 C   0  0  2  0  0  0  0  0  0  0  0  0
   22.0999   -7.8468  -16.6019 N   0  0  0  0  0  0  0  0  0  0  0  0
   20.1302   -8.1435  -15.2887 C   0  0  0  0  0  0  0  0  0  0  0  0
   19.5940   -7.0540  -15.6976 O   0  0  0  0  0  0  0  0  0  0  0  0
   23.2731   -5.5008  -14.8129 C   0  0  0  0  0  0  0  0  0  0  0  0
   23.2871   -4.1029  -14.7898 C   0  0  0  0  0  0  0  0  0  0  0  0
   19.2334   -9.1442  -14.8336 N   0  0  0  0  0  0  0  0  0  0  0  0
   18.0143   -9.5020  -15.5715 C   0  0  1  0  0  0  0  0  0  0  0  0
   18.3111   -9.6434  -17.0246 C   0  0  0  0  0  0  0  0  0  0  0  0
   17.0865   -9.8517  -17.8137 C   0  0  0  0  0  0  0  0  0  0  0  0
   16.0762   -8.9208  -18.0540 C   0  0  0  0  0  0  0  0  0  0  0  0
   15.1152   -9.4988  -18.7813 N   0  0  0  0  0  0  0  0  0  0  0  0
   15.4501  -10.7823  -19.0351 C   0  0  0  0  0  0  0  0  0  0  0  0
   14.8199  -11.7946  -19.7476 C   0  0  0  0  0  0  0  0  0  0  0  0
   15.3622  -13.0503  -19.8985 C   0  0  0  0  0  0  0  0  0  0  0  0
   16.5854  -13.2642  -19.2983 C   0  0  0  0  0  0  0  0  0  0  0  0
   17.2312  -12.2847  -18.5880 C   0  0  0  0  0  0  0  0  0  0  0  0
   16.6578  -11.0199  -18.4500 C   0  0  0  0  0  0  0  0  0  0  0  0
   17.2399  -10.5644  -14.9478 C   0  0  0  0  0  0  0  0  0  0  0  0
   17.7500  -11.6386  -14.5102 O   0  0  0  0  0  0  0  0  0  0  0  0
   15.8428  -10.4989  -14.7698 O   0  0  0  0  0  0  0  0  0  0  0  0
  2  1  1  6
  3  2  1  0
  3  4  1  0
  4  8  1  0
  5  4  2  0
  6  2  1  0
  6  7  2  0
  9 10  1  0
 10 11  2  0
 11 12  1  0
 13 12  2  0
 13 14  1  0
 15 14  1  1
 15 16  1  0
 15 17  1  0
 16  6  1  0
 17 21  1  0
 18 17  2  0
 19 13  1  0
 20 10  1  0
 20 19  2  0
 21 22  1  0
 22 33  1  0
 22 23  1  6
 24 23  1  0
 24 32  1  0
 25 26  1  0
 25 24  2  0
 26 27  1  0
 27 32  2  0
 27 28  1  0
 28 29  2  0
 29 30  1  0
 31 30  2  0
 32 31  1  0
 33 34  2  0
 33 35  1  0
M  END
$$$$
