ANW.pdb
     RDKit          3D

 28 29  0  0  1  0  0  0  0  0999 V2000
   28.1913  -19.7915  -17.6406 C   0  0  0  0  0  0  0  0  0  0  0  0
   28.3442  -20.4361  -16.2825 C   0  0  2  0  0  0  0  0  0  0  0  0
   28.3546  -21.8700  -16.3277 N   0  0  0  0  0  0  0  0  0  0  0  0
   27.3075  -19.9482  -15.3320 C   0  0  0  0  0  0  0  0  0  0  0  0
   27.2420  -18.7113  -15.1420 O   0  0  0  0  0  0  0  0  0  0  0  0
   21.9467  -21.0337  -12.9491 N   0  0  0  0  0  0  0  0  0  0  0  0
   22.9723  -20.1317  -13.3285 C   0  0  0  0  0  0  0  0  0  0  0  0
   22.9338  -18.9685  -12.8313 O   0  0  0  0  0  0  0  0  0  0  0  0
   24.0548  -20.4954  -14.2609 C   0  0  0  0  0  0  0  0  0  0  0  0
   25.4442  -20.1826  -13.7350 C   0  0  2  0  0  0  0  0  0  0  0  0
   26.4205  -20.7963  -14.6549 N   0  0  0  0  0  0  0  0  0  0  0  0
   25.7286  -20.6804  -12.3989 C   0  0  0  0  0  0  0  0  0  0  0  0
   25.9876  -21.9293  -12.2343 O   0  0  0  0  0  0  0  0  0  0  0  0
   25.7646  -19.9323  -11.1888 N   0  0  0  0  0  0  0  0  0  0  0  0
   26.0410  -20.5815   -9.8992 C   0  0  1  0  0  0  0  0  0  0  0  0
   26.9502  -19.6771   -9.0874 C   0  0  0  0  0  0  0  0  0  0  0  0
   27.2271  -20.2984   -7.7924 C   0  0  0  0  0  0  0  0  0  0  0  0
   26.8896  -21.5764   -7.3571 C   0  0  0  0  0  0  0  0  0  0  0  0
   27.3562  -21.6864   -6.1033 N   0  0  0  0  0  0  0  0  0  0  0  0
   27.9747  -20.5724   -5.6861 C   0  0  0  0  0  0  0  0  0  0  0  0
   28.6068  -20.2057   -4.4968 C   0  0  0  0  0  0  0  0  0  0  0  0
   29.1631  -18.9726   -4.3502 C   0  0  0  0  0  0  0  0  0  0  0  0
   29.0927  -18.0817   -5.4037 C   0  0  0  0  0  0  0  0  0  0  0  0
   28.4705  -18.4321   -6.5851 C   0  0  0  0  0  0  0  0  0  0  0  0
   27.8963  -19.6903   -6.7506 C   0  0  0  0  0  0  0  0  0  0  0  0
   24.7599  -20.7372   -9.1897 C   0  0  0  0  0  0  0  0  0  0  0  0
   23.7881  -20.0236   -9.4789 O   0  0  0  0  0  0  0  0  0  0  0  0
   24.6428  -21.6899   -8.1920 O   0  0  0  0  0  0  0  0  0  0  0  0
  2  4  1  0
  2  1  1  6
  3  2  1  0
  4  5  2  0
  6  7  1  0
  7  9  1  0
  8  7  2  0
 10  9  1  6
 10 12  1  0
 11 10  1  0
 11  4  1  0
 12 13  2  0
 12 14  1  0
 14 15  1  0
 15 26  1  0
 15 16  1  1
 17 18  2  0
 17 16  1  0
 19 18  1  0
 20 25  2  0
 20 19  1  0
 21 20  1  0
 22 23  1  0
 22 21  2  0
 23 24  2  0
 24 25  1  0
 25 17  1  0
 26 28  1  0
 27 26  2  0
M  END
$$$$
