ANW.pdb
     RDKit          3D

 28 29  0  0  1  0  0  0  0  0999 V2000
   29.7164  -19.8496  -16.9990 C   0  0  0  0  0  0  0  0  0  0  0  0
   28.7198  -18.7155  -16.9358 C   0  0  2  0  0  0  0  0  0  0  0  0
   29.2548  -17.4588  -17.3745 N   0  0  0  0  0  0  0  0  0  0  0  0
   28.1297  -18.5886  -15.5749 C   0  0  0  0  0  0  0  0  0  0  0  0
   28.7809  -17.9339  -14.7276 O   0  0  0  0  0  0  0  0  0  0  0  0
   25.3864  -15.9037  -14.1210 N   0  0  0  0  0  0  0  0  0  0  0  0
   24.7668  -17.0588  -14.6610 C   0  0  0  0  0  0  0  0  0  0  0  0
   24.0612  -16.9053  -15.7003 O   0  0  0  0  0  0  0  0  0  0  0  0
   24.9135  -18.3993  -14.0653 C   0  0  0  0  0  0  0  0  0  0  0  0
   26.3573  -18.8296  -13.8786 C   0  0  2  0  0  0  0  0  0  0  0  0
   26.9027  -19.1587  -15.2092 N   0  0  0  0  0  0  0  0  0  0  0  0
   26.5533  -19.9907  -13.0257 C   0  0  0  0  0  0  0  0  0  0  0  0
   26.5795  -21.1629  -13.5541 O   0  0  0  0  0  0  0  0  0  0  0  0
   26.7335  -20.0038  -11.6141 N   0  0  0  0  0  0  0  0  0  0  0  0
   26.9349  -21.2632  -10.8830 C   0  0  1  0  0  0  0  0  0  0  0  0
   28.0875  -21.0801   -9.9125 C   0  0  0  0  0  0  0  0  0  0  0  0
   27.5898  -20.4928   -8.6688 C   0  0  0  0  0  0  0  0  0  0  0  0
   26.3143  -20.0113   -8.3900 C   0  0  0  0  0  0  0  0  0  0  0  0
   26.3421  -19.5737   -7.1213 N   0  0  0  0  0  0  0  0  0  0  0  0
   27.5440  -19.7337   -6.5493 C   0  0  0  0  0  0  0  0  0  0  0  0
   28.0586  -19.4436   -5.2845 C   0  0  0  0  0  0  0  0  0  0  0  0
   29.3534  -19.7234   -4.9739 C   0  0  0  0  0  0  0  0  0  0  0  0
   30.1578  -20.3034   -5.9357 C   0  0  0  0  0  0  0  0  0  0  0  0
   29.6610  -20.5954   -7.1901 C   0  0  0  0  0  0  0  0  0  0  0  0
   28.3379  -20.3149   -7.5236 C   0  0  0  0  0  0  0  0  0  0  0  0
   25.7057  -21.5438  -10.1220 C   0  0  0  0  0  0  0  0  0  0  0  0
   24.8125  -20.6890  -10.0293 O   0  0  0  0  0  0  0  0  0  0  0  0
   25.5490  -22.7739   -9.5065 O   0  0  0  0  0  0  0  0  0  0  0  0
  2  4  1  0
  2  1  1  1
  3  2  1  0
  4  5  2  0
  6  7  1  0
  7  9  1  0
  8  7  2  0
 10  9  1  6
 10 12  1  0
 11 10  1  0
 11  4  1  0
 12 13  2  0
 12 14  1  0
 14 15  1  0
 15 26  1  0
 15 16  1  1
 17 18  2  0
 17 16  1  0
 19 18  1  0
 20 25  2  0
 20 19  1  0
 21 20  1  0
 22 23  1  0
 22 21  2  0
 23 24  2  0
 24 25  1  0
 25 17  1  0
 26 28  1  0
 27 26  2  0
M  END
$$$$
