ANW.pdb
     RDKit          3D

 28 29  0  0  1  0  0  0  0  0999 V2000
   15.4386   -9.5142  -19.2315 C   0  0  0  0  0  0  0  0  0  0  0  0
   16.6980   -9.8000  -18.4469 C   0  0  2  0  0  0  0  0  0  0  0  0
   16.6785  -11.0677  -17.7755 N   0  0  0  0  0  0  0  0  0  0  0  0
   16.9987   -8.7022  -17.4872 C   0  0  0  0  0  0  0  0  0  0  0  0
   17.5228   -7.6632  -17.9522 O   0  0  0  0  0  0  0  0  0  0  0  0
   14.5686   -5.7225  -13.1224 N   0  0  0  0  0  0  0  0  0  0  0  0
   14.8489   -6.5847  -14.2122 C   0  0  0  0  0  0  0  0  0  0  0  0
   14.1603   -6.4325  -15.2631 O   0  0  0  0  0  0  0  0  0  0  0  0
   15.8899   -7.6274  -14.1618 C   0  0  0  0  0  0  0  0  0  0  0  0
   16.8823   -7.5550  -15.3083 C   0  0  2  0  0  0  0  0  0  0  0  0
   16.7262   -8.7804  -16.1147 N   0  0  0  0  0  0  0  0  0  0  0  0
   18.2791   -7.4646  -14.9151 C   0  0  0  0  0  0  0  0  0  0  0  0
   18.9543   -8.5446  -14.7376 O   0  0  0  0  0  0  0  0  0  0  0  0
   19.0383   -6.2815  -14.6935 N   0  0  0  0  0  0  0  0  0  0  0  0
   20.5072   -6.3165  -14.6434 C   0  0  1  0  0  0  0  0  0  0  0  0
   21.0282   -6.7240  -16.0095 C   0  0  0  0  0  0  0  0  0  0  0  0
   22.4908   -6.7223  -15.9946 C   0  0  0  0  0  0  0  0  0  0  0  0
   23.3543   -7.7944  -15.7908 C   0  0  0  0  0  0  0  0  0  0  0  0
   24.5997   -7.2994  -15.8682 N   0  0  0  0  0  0  0  0  0  0  0  0
   24.6138   -5.9803  -16.1077 C   0  0  0  0  0  0  0  0  0  0  0  0
   25.6313   -5.0383  -16.2686 C   0  0  0  0  0  0  0  0  0  0  0  0
   25.3435   -3.7303  -16.5092 C   0  0  0  0  0  0  0  0  0  0  0  0
   24.0195   -3.3451  -16.5928 C   0  0  0  0  0  0  0  0  0  0  0  0
   23.0040   -4.2669  -16.4357 C   0  0  0  0  0  0  0  0  0  0  0  0
   23.2823   -5.6093  -16.1887 C   0  0  0  0  0  0  0  0  0  0  0  0
   20.9797   -4.9563  -14.3348 C   0  0  0  0  0  0  0  0  0  0  0  0
   20.4180   -3.9667  -14.8269 O   0  0  0  0  0  0  0  0  0  0  0  0
   22.0606   -4.7845  -13.4868 O   0  0  0  0  0  0  0  0  0  0  0  0
  2  4  1  0
  2  1  1  1
  3  2  1  0
  4  5  2  0
  6  7  1  0
  7  9  1  0
  8  7  2  0
 10  9  1  1
 10 12  1  0
 11 10  1  0
 11  4  1  0
 12 13  2  0
 12 14  1  0
 14 15  1  0
 15 26  1  0
 15 16  1  6
 17 18  2  0
 17 16  1  0
 19 18  1  0
 20 25  2  0
 20 19  1  0
 21 20  1  0
 22 23  1  0
 22 21  2  0
 23 24  2  0
 24 25  1  0
 25 17  1  0
 26 28  1  0
 27 26  2  0
M  END
$$$$
