ANW.pdb
     RDKit          3D

 28 29  0  0  1  0  0  0  0  0999 V2000
   20.8592  -18.7858  -15.7120 C   0  0  0  0  0  0  0  0  0  0  0  0
   21.8464  -19.2601  -14.6711 C   0  0  2  0  0  0  0  0  0  0  0  0
   21.7743  -18.5288  -13.4389 N   0  0  0  0  0  0  0  0  0  0  0  0
   23.2370  -19.2571  -15.2027 C   0  0  0  0  0  0  0  0  0  0  0  0
   23.5217  -20.1204  -16.0654 O   0  0  0  0  0  0  0  0  0  0  0  0
   27.9350  -18.0055  -16.9543 N   0  0  0  0  0  0  0  0  0  0  0  0
   27.3169  -16.8911  -16.3331 C   0  0  0  0  0  0  0  0  0  0  0  0
   27.8681  -15.7624  -16.4878 O   0  0  0  0  0  0  0  0  0  0  0  0
   26.0844  -17.0019  -15.5320 C   0  0  0  0  0  0  0  0  0  0  0  0
   25.5427  -18.4170  -15.4379 C   0  0  2  0  0  0  0  0  0  0  0  0
   24.2202  -18.3486  -14.7877 N   0  0  0  0  0  0  0  0  0  0  0  0
   26.3596  -19.3445  -14.6722 C   0  0  0  0  0  0  0  0  0  0  0  0
   27.5370  -19.6431  -15.0946 O   0  0  0  0  0  0  0  0  0  0  0  0
   26.0149  -19.9954  -13.4545 N   0  0  0  0  0  0  0  0  0  0  0  0
   26.9278  -20.9567  -12.8191 C   0  0  1  0  0  0  0  0  0  0  0  0
   27.6531  -20.2573  -11.6840 C   0  0  0  0  0  0  0  0  0  0  0  0
   26.7974  -20.2352  -10.4980 C   0  0  0  0  0  0  0  0  0  0  0  0
   25.4076  -20.2658  -10.4342 C   0  0  0  0  0  0  0  0  0  0  0  0
   25.0859  -20.2273   -9.1315 N   0  0  0  0  0  0  0  0  0  0  0  0
   26.1650  -20.1733   -8.3376 C   0  0  0  0  0  0  0  0  0  0  0  0
   26.3454  -20.1198   -6.9545 C   0  0  0  0  0  0  0  0  0  0  0  0
   27.5923  -20.0708   -6.4119 C   0  0  0  0  0  0  0  0  0  0  0  0
   28.6857  -20.0749   -7.2562 C   0  0  0  0  0  0  0  0  0  0  0  0
   28.5208  -20.1276   -8.6258 C   0  0  0  0  0  0  0  0  0  0  0  0
   27.2511  -20.1780   -9.1965 C   0  0  0  0  0  0  0  0  0  0  0  0
   26.1140  -22.0527  -12.2665 C   0  0  0  0  0  0  0  0  0  0  0  0
   24.8863  -22.0749  -12.4378 O   0  0  0  0  0  0  0  0  0  0  0  0
   26.7284  -23.0659  -11.5505 O   0  0  0  0  0  0  0  0  0  0  0  0
  2  4  1  0
  2  1  1  6
  3  2  1  0
  4  5  2  0
  6  7  1  0
  7  9  1  0
  8  7  2  0
 10  9  1  1
 10 12  1  0
 11 10  1  0
 11  4  1  0
 12 13  2  0
 12 14  1  0
 14 15  1  0
 15 26  1  0
 15 16  1  1
 17 18  2  0
 17 16  1  0
 19 18  1  0
 20 25  2  0
 20 19  1  0
 21 20  1  0
 22 23  1  0
 22 21  2  0
 23 24  2  0
 24 25  1  0
 25 17  1  0
 26 28  1  0
 27 26  2  0
M  END
$$$$
