ANW.pdb
     RDKit          3D

 28 29  0  0  1  0  0  0  0  0999 V2000
   29.9884  -23.0471  -15.7573 C   0  0  0  0  0  0  0  0  0  0  0  0
   28.6598  -22.8673  -16.4543 C   0  0  2  0  0  0  0  0  0  0  0  0
   28.7829  -22.5691  -17.8522 N   0  0  0  0  0  0  0  0  0  0  0  0
   27.8241  -21.8424  -15.7704 C   0  0  0  0  0  0  0  0  0  0  0  0
   28.1746  -20.6452  -15.8905 O   0  0  0  0  0  0  0  0  0  0  0  0
   25.3944  -19.5861  -17.8475 N   0  0  0  0  0  0  0  0  0  0  0  0
   25.0809  -19.5644  -16.4651 C   0  0  0  0  0  0  0  0  0  0  0  0
   25.0390  -18.4336  -15.8984 O   0  0  0  0  0  0  0  0  0  0  0  0
   24.8098  -20.7860  -15.6857 C   0  0  0  0  0  0  0  0  0  0  0  0
   25.8190  -21.0416  -14.5808 C   0  0  2  0  0  0  0  0  0  0  0  0
   26.6861  -22.1537  -15.0138 N   0  0  0  0  0  0  0  0  0  0  0  0
   25.2503  -21.4057  -13.2932 C   0  0  0  0  0  0  0  0  0  0  0  0
   24.6446  -22.5333  -13.1686 O   0  0  0  0  0  0  0  0  0  0  0  0
   25.2795  -20.6450  -12.0908 N   0  0  0  0  0  0  0  0  0  0  0  0
   24.6704  -21.1523  -10.8527 C   0  0  1  0  0  0  0  0  0  0  0  0
   25.1686  -20.3139   -9.6898 C   0  0  0  0  0  0  0  0  0  0  0  0
   26.5688  -20.6384   -9.4184 C   0  0  0  0  0  0  0  0  0  0  0  0
   27.4502  -21.3822  -10.1970 C   0  0  0  0  0  0  0  0  0  0  0  0
   28.6173  -21.4041   -9.5341 N   0  0  0  0  0  0  0  0  0  0  0  0
   28.5634  -20.7285   -8.3773 C   0  0  0  0  0  0  0  0  0  0  0  0
   29.4894  -20.4699   -7.3653 C   0  0  0  0  0  0  0  0  0  0  0  0
   29.1470  -19.7328   -6.2740 C   0  0  0  0  0  0  0  0  0  0  0  0
   27.8597  -19.2403   -6.1813 C   0  0  0  0  0  0  0  0  0  0  0  0
   26.9346  -19.4889   -7.1752 C   0  0  0  0  0  0  0  0  0  0  0  0
   27.2696  -20.2416   -8.2984 C   0  0  0  0  0  0  0  0  0  0  0  0
   23.2112  -20.9923  -10.9705 C   0  0  0  0  0  0  0  0  0  0  0  0
   22.7208  -20.3536  -11.9131 O   0  0  0  0  0  0  0  0  0  0  0  0
   22.3825  -21.5619  -10.0188 O   0  0  0  0  0  0  0  0  0  0  0  0
  2  4  1  0
  2  1  1  1
  3  2  1  0
  4  5  2  0
  6  7  1  0
  7  9  1  0
  8  7  2  0
 10  9  1  6
 10 12  1  0
 11 10  1  0
 11  4  1  0
 12 13  2  0
 12 14  1  0
 14 15  1  0
 15 26  1  0
 15 16  1  1
 17 18  2  0
 17 16  1  0
 19 18  1  0
 20 25  2  0
 20 19  1  0
 21 20  1  0
 22 23  1  0
 22 21  2  0
 23 24  2  0
 24 25  1  0
 25 17  1  0
 26 28  1  0
 27 26  2  0
M  END
$$$$
