ANW.pdb
     RDKit          3D

 28 29  0  0  1  0  0  0  0  0999 V2000
   23.7616   -4.2181  -23.2568 C   0  0  0  0  0  0  0  0  0  0  0  0
   23.7563   -5.6149  -22.6805 C   0  0  2  0  0  0  0  0  0  0  0  0
   23.5838   -6.6407  -23.6685 N   0  0  0  0  0  0  0  0  0  0  0  0
   22.7415   -5.7508  -21.5998 C   0  0  0  0  0  0  0  0  0  0  0  0
   21.5357   -5.7067  -21.9383 O   0  0  0  0  0  0  0  0  0  0  0  0
   20.2296   -7.9580  -17.7080 N   0  0  0  0  0  0  0  0  0  0  0  0
   20.9708   -8.6343  -18.7095 C   0  0  0  0  0  0  0  0  0  0  0  0
   20.7878   -9.8814  -18.8225 O   0  0  0  0  0  0  0  0  0  0  0  0
   21.9245   -7.9491  -19.6007 C   0  0  0  0  0  0  0  0  0  0  0  0
   22.0330   -6.4563  -19.3464 C   0  0  2  0  0  0  0  0  0  0  0  0
   23.0710   -5.9222  -20.2484 N   0  0  0  0  0  0  0  0  0  0  0  0
   22.3978   -6.0829  -17.9894 C   0  0  0  0  0  0  0  0  0  0  0  0
   23.6388   -6.0680  -17.6525 O   0  0  0  0  0  0  0  0  0  0  0  0
   21.5214   -5.7088  -16.9324 N   0  0  0  0  0  0  0  0  0  0  0  0
   22.0415   -5.3043  -15.6181 C   0  0  1  0  0  0  0  0  0  0  0  0
   23.4521   -5.8444  -15.4691 C   0  0  0  0  0  0  0  0  0  0  0  0
   23.3969   -7.2530  -15.0790 C   0  0  0  0  0  0  0  0  0  0  0  0
   24.2530   -8.2863  -15.4477 C   0  0  0  0  0  0  0  0  0  0  0  0
   23.7973   -9.3928  -14.8395 N   0  0  0  0  0  0  0  0  0  0  0  0
   22.7043   -9.1586  -14.0993 C   0  0  0  0  0  0  0  0  0  0  0  0
   21.8866   -9.9617  -13.3024 C   0  0  0  0  0  0  0  0  0  0  0  0
   20.8139   -9.4387  -12.6488 C   0  0  0  0  0  0  0  0  0  0  0  0
   20.5435   -8.0910  -12.7863 C   0  0  0  0  0  0  0  0  0  0  0  0
   21.3443   -7.2860  -13.5713 C   0  0  0  0  0  0  0  0  0  0  0  0
   22.4459   -7.8063  -14.2468 C   0  0  0  0  0  0  0  0  0  0  0  0
   22.0841   -3.8327  -15.5843 C   0  0  0  0  0  0  0  0  0  0  0  0
   21.6448   -3.1670  -16.5334 O   0  0  0  0  0  0  0  0  0  0  0  0
   22.6195   -3.1899  -14.4811 O   0  0  0  0  0  0  0  0  0  0  0  0
  2  4  1  0
  2  1  1  6
  3  2  1  0
  4  5  2  0
  6  7  1  0
  7  9  1  0
  8  7  2  0
 10  9  1  1
 10 12  1  0
 11 10  1  0
 11  4  1  0
 12 13  2  0
 12 14  1  0
 14 15  1  0
 15 26  1  0
 15 16  1  6
 17 18  2  0
 17 16  1  0
 19 18  1  0
 20 25  2  0
 20 19  1  0
 21 20  1  0
 22 23  1  0
 22 21  2  0
 23 24  2  0
 24 25  1  0
 25 17  1  0
 26 28  1  0
 27 26  2  0
M  END
$$$$
