ANW.pdb
     RDKit          3D

 28 29  0  0  1  0  0  0  0  0999 V2000
   23.7273  -26.0686  -14.6543 C   0  0  0  0  0  0  0  0  0  0  0  0
   23.3701  -24.7491  -15.2981 C   0  0  2  0  0  0  0  0  0  0  0  0
   24.4036  -24.2279  -16.1457 N   0  0  0  0  0  0  0  0  0  0  0  0
   22.9685  -23.7407  -14.2791 C   0  0  0  0  0  0  0  0  0  0  0  0
   22.0143  -24.0394  -13.5236 O   0  0  0  0  0  0  0  0  0  0  0  0
   25.7355  -22.2796  -11.1220 N   0  0  0  0  0  0  0  0  0  0  0  0
   25.5054  -21.5818  -12.3343 C   0  0  0  0  0  0  0  0  0  0  0  0
   26.3962  -21.6663  -13.2292 O   0  0  0  0  0  0  0  0  0  0  0  0
   24.2928  -20.7801  -12.5797 C   0  0  0  0  0  0  0  0  0  0  0  0
   23.1110  -21.5960  -13.0720 C   0  0  2  0  0  0  0  0  0  0  0  0
   23.5992  -22.4978  -14.1325 N   0  0  0  0  0  0  0  0  0  0  0  0
   22.0113  -20.8232  -13.6264 C   0  0  0  0  0  0  0  0  0  0  0  0
   21.4777  -19.8909  -12.9193 O   0  0  0  0  0  0  0  0  0  0  0  0
   21.4196  -20.9648  -14.9129 N   0  0  0  0  0  0  0  0  0  0  0  0
   20.3390  -20.0726  -15.3573 C   0  0  1  0  0  0  0  0  0  0  0  0
   20.4010  -19.9535  -16.8691 C   0  0  0  0  0  0  0  0  0  0  0  0
   21.6161  -19.2354  -17.2528 C   0  0  0  0  0  0  0  0  0  0  0  0
   22.9402  -19.6386  -17.1093 C   0  0  0  0  0  0  0  0  0  0  0  0
   23.6957  -18.6467  -17.6067 N   0  0  0  0  0  0  0  0  0  0  0  0
   22.9616  -17.6228  -18.0653 C   0  0  0  0  0  0  0  0  0  0  0  0
   23.2747  -16.3980  -18.6571 C   0  0  0  0  0  0  0  0  0  0  0  0
   22.2959  -15.5307  -19.0328 C   0  0  0  0  0  0  0  0  0  0  0  0
   20.9773  -15.8827  -18.8186 C   0  0  0  0  0  0  0  0  0  0  0  0
   20.6543  -17.0910  -18.2344 C   0  0  0  0  0  0  0  0  0  0  0  0
   21.6447  -17.9894  -17.8442 C   0  0  0  0  0  0  0  0  0  0  0  0
   19.0584  -20.6918  -14.9759 C   0  0  0  0  0  0  0  0  0  0  0  0
   19.0047  -21.8920  -14.6698 O   0  0  0  0  0  0  0  0  0  0  0  0
   17.9063  -19.9241  -14.9597 O   0  0  0  0  0  0  0  0  0  0  0  0
  2  4  1  0
  2  1  1  1
  3  2  1  0
  4  5  2  0
  6  7  1  0
  7  9  1  0
  8  7  2  0
 10  9  1  6
 10 12  1  0
 11 10  1  0
 11  4  1  0
 12 13  2  0
 12 14  1  0
 14 15  1  0
 15 26  1  0
 15 16  1  6
 17 18  2  0
 17 16  1  0
 19 18  1  0
 20 25  2  0
 20 19  1  0
 21 20  1  0
 22 23  1  0
 22 21  2  0
 23 24  2  0
 24 25  1  0
 25 17  1  0
 26 28  1  0
 27 26  2  0
M  END
$$$$
