QGI.pdb
     RDKit          3D

 22 21  0  0  1  0  0  0  0  0999 V2000
    6.9994  -12.8177   17.1899 N   0  0  0  0  0  0  0  0  0  0  0  0
    7.6288  -13.9420   16.5960 C   0  0  0  0  0  0  0  0  0  0  0  0
    7.3311  -14.3057   15.4289 O   0  0  0  0  0  0  0  0  0  0  0  0
    8.6420  -14.6895   17.3578 C   0  0  0  0  0  0  0  0  0  0  0  0
    8.7446  -14.1460   18.7691 C   0  0  0  0  0  0  0  0  0  0  0  0
    8.6303  -15.2722   19.7767 C   0  0  2  0  0  0  0  0  0  0  0  0
    7.2522  -15.6239   19.9849 N   0  0  0  0  0  0  0  0  0  0  0  0
    9.2771  -14.8299   21.0486 C   0  0  0  0  0  0  0  0  0  0  0  0
    9.6590  -13.6271   21.1353 O   0  0  0  0  0  0  0  0  0  0  0  0
    9.4597  -15.7182   22.1227 N   0  0  0  0  0  0  0  0  0  0  0  0
   10.4934  -15.4592   23.1168 C   0  0  0  0  0  0  0  0  0  0  0  0
    9.9609  -15.5878   24.4899 C   0  0  0  0  0  0  0  0  0  0  0  0
    9.7969  -16.7154   24.9820 O   0  0  0  0  0  0  0  0  0  0  0  0
    7.1272  -11.8875   27.2176 C   0  0  0  0  0  0  0  0  0  0  0  0
    6.4443  -12.7623   26.1711 C   0  0  0  0  0  0  0  0  0  0  0  0
    7.5247  -13.3378   25.3131 C   0  0  2  0  0  0  0  0  0  0  0  0
    6.9035  -13.9391   24.0764 C   0  0  0  0  0  0  0  0  0  0  0  0
    8.4414  -14.2883   26.0233 C   0  0  2  0  0  0  0  0  0  0  0  0
    9.6439  -14.4450   25.2296 N   0  0  0  0  0  0  0  0  0  0  0  0
    7.8395  -15.5668   26.4047 C   0  0  0  0  0  0  0  0  0  0  0  0
    7.9002  -16.0051   27.5803 O   0  0  0  0  0  0  0  0  0  0  0  0
    7.1683  -16.3649   25.4868 O   0  0  0  0  0  0  0  0  0  0  0  0
  1  2  1  0
  2  4  1  0
  2  3  2  0
  4  5  1  0
  5  6  1  0
  6  8  1  0
  6  7  1  1
  8  9  2  0
 10 11  1  0
 10  8  1  0
 11 12  1  0
 12 13  2  0
 12 19  1  0
 15 14  1  0
 15 16  1  0
 16 18  1  0
 16 17  1  6
 18 20  1  0
 18 19  1  6
 20 22  1  0
 21 20  2  0
M  END
$$$$
