QGI.pdb
     RDKit          3D

 22 21  0  0  1  0  0  0  0  0999 V2000
    8.2517  -13.2210   16.8757 N   0  0  0  0  0  0  0  0  0  0  0  0
    8.6334  -14.0598   15.7969 C   0  0  0  0  0  0  0  0  0  0  0  0
    9.3296  -13.6138   14.8486 O   0  0  0  0  0  0  0  0  0  0  0  0
    8.2076  -15.4684   15.7907 C   0  0  0  0  0  0  0  0  0  0  0  0
    7.4389  -15.7903   17.0569 C   0  0  0  0  0  0  0  0  0  0  0  0
    8.3967  -16.0938   18.1915 C   0  0  2  0  0  0  0  0  0  0  0  0
    9.1148  -17.3117   17.9324 N   0  0  0  0  0  0  0  0  0  0  0  0
    7.6089  -16.1855   19.4574 C   0  0  0  0  0  0  0  0  0  0  0  0
    6.4974  -16.7887   19.4246 O   0  0  0  0  0  0  0  0  0  0  0  0
    8.0816  -15.6205   20.6547 N   0  0  0  0  0  0  0  0  0  0  0  0
    7.3563  -15.8360   21.9001 C   0  0  0  0  0  0  0  0  0  0  0  0
    8.0470  -15.1970   23.0403 C   0  0  0  0  0  0  0  0  0  0  0  0
    9.2876  -15.1714   23.0708 O   0  0  0  0  0  0  0  0  0  0  0  0
    6.4061  -11.0756   27.1549 C   0  0  0  0  0  0  0  0  0  0  0  0
    7.4618  -12.1414   26.8784 C   0  0  0  0  0  0  0  0  0  0  0  0
    6.8994  -13.0496   25.8326 C   0  0  2  0  0  0  0  0  0  0  0  0
    5.6576  -13.7143   26.3738 C   0  0  0  0  0  0  0  0  0  0  0  0
    7.8833  -14.0298   25.2674 C   0  0  2  0  0  0  0  0  0  0  0  0
    7.3064  -14.6247   24.0784 N   0  0  0  0  0  0  0  0  0  0  0  0
    8.3868  -15.0246   26.2156 C   0  0  0  0  0  0  0  0  0  0  0  0
    7.7993  -16.1186   26.4050 O   0  0  0  0  0  0  0  0  0  0  0  0
    9.5419  -14.8125   26.9578 O   0  0  0  0  0  0  0  0  0  0  0  0
  1  2  1  0
  2  4  1  0
  2  3  2  0
  4  5  1  0
  5  6  1  0
  6  8  1  0
  6  7  1  6
  8  9  2  0
 10 11  1  0
 10  8  1  0
 11 12  1  0
 12 13  2  0
 12 19  1  0
 15 14  1  0
 15 16  1  0
 16 18  1  0
 16 17  1  1
 18 20  1  0
 18 19  1  6
 20 22  1  0
 21 20  2  0
M  END
$$$$
