QGI.pdb
     RDKit          3D

 22 21  0  0  1  0  0  0  0  0999 V2000
   12.1869  -20.9080   18.5784 N   0  0  0  0  0  0  0  0  0  0  0  0
   12.4754  -19.8547   19.4842 C   0  0  0  0  0  0  0  0  0  0  0  0
   13.1790  -20.0587   20.5071 O   0  0  0  0  0  0  0  0  0  0  0  0
   11.9433  -18.5083   19.2204 C   0  0  0  0  0  0  0  0  0  0  0  0
   11.1661  -18.0063   20.4211 C   0  0  0  0  0  0  0  0  0  0  0  0
    9.6766  -18.1536   20.1833 C   0  0  2  0  0  0  0  0  0  0  0  0
    9.2763  -17.4103   19.0199 N   0  0  0  0  0  0  0  0  0  0  0  0
    8.9585  -17.6807   21.4048 C   0  0  0  0  0  0  0  0  0  0  0  0
    9.1266  -18.3242   22.4808 O   0  0  0  0  0  0  0  0  0  0  0  0
    8.1183  -16.5542   21.3682 N   0  0  0  0  0  0  0  0  0  0  0  0
    7.3443  -16.1820   22.5456 C   0  0  0  0  0  0  0  0  0  0  0  0
    8.2000  -15.5490   23.5716 C   0  0  0  0  0  0  0  0  0  0  0  0
    9.4348  -15.6382   23.4818 O   0  0  0  0  0  0  0  0  0  0  0  0
    5.5423  -11.7420   26.4507 C   0  0  0  0  0  0  0  0  0  0  0  0
    6.5324  -12.4555   25.5356 C   0  0  0  0  0  0  0  0  0  0  0  0
    7.4324  -13.2634   26.4143 C   0  0  2  0  0  0  0  0  0  0  0  0
    8.1478  -12.3394   27.3689 C   0  0  0  0  0  0  0  0  0  0  0  0
    8.3681  -14.1730   25.6757 C   0  0  2  0  0  0  0  0  0  0  0  0
    7.6210  -14.8539   24.6370 N   0  0  0  0  0  0  0  0  0  0  0  0
    9.1398  -15.0893   26.5166 C   0  0  0  0  0  0  0  0  0  0  0  0
    8.6672  -16.1829   26.9146 O   0  0  0  0  0  0  0  0  0  0  0  0
   10.4370  -14.7989   26.9201 O   0  0  0  0  0  0  0  0  0  0  0  0
  1  2  1  0
  2  4  1  0
  2  3  2  0
  4  5  1  0
  5  6  1  0
  6  8  1  0
  6  7  1  6
  8  9  2  0
 10 11  1  0
 10  8  1  0
 11 12  1  0
 12 13  2  0
 12 19  1  0
 15 14  1  0
 15 16  1  0
 16 18  1  0
 16 17  1  6
 18 20  1  0
 18 19  1  6
 20 22  1  0
 21 20  2  0
M  END
$$$$
