QGI.pdb
     RDKit          3D

 22 21  0  0  1  0  0  0  0  0999 V2000
    7.2326  -14.7226   17.4099 N   0  0  0  0  0  0  0  0  0  0  0  0
    8.1332  -15.4678   18.2140 C   0  0  0  0  0  0  0  0  0  0  0  0
    8.9967  -14.8879   18.9217 O   0  0  0  0  0  0  0  0  0  0  0  0
    8.0532  -16.9372   18.2176 C   0  0  0  0  0  0  0  0  0  0  0  0
    8.2126  -17.4684   19.6283 C   0  0  0  0  0  0  0  0  0  0  0  0
    6.8871  -17.9869   20.1487 C   0  0  2  0  0  0  0  0  0  0  0  0
    5.8094  -17.1417   19.7127 N   0  0  0  0  0  0  0  0  0  0  0  0
    6.9613  -18.0487   21.6394 C   0  0  0  0  0  0  0  0  0  0  0  0
    7.7903  -18.8488   22.1616 O   0  0  0  0  0  0  0  0  0  0  0  0
    6.1373  -17.2445   22.4459 N   0  0  0  0  0  0  0  0  0  0  0  0
    6.2277  -17.3313   23.8978 C   0  0  0  0  0  0  0  0  0  0  0  0
    7.3405  -16.5074   24.4158 C   0  0  0  0  0  0  0  0  0  0  0  0
    8.5071  -16.7732   24.0855 O   0  0  0  0  0  0  0  0  0  0  0  0
    6.1629  -11.5733   27.1862 C   0  0  0  0  0  0  0  0  0  0  0  0
    6.4343  -13.0609   26.9857 C   0  0  0  0  0  0  0  0  0  0  0  0
    7.4910  -13.1725   25.9342 C   0  0  2  0  0  0  0  0  0  0  0  0
    6.9463  -12.6425   24.6306 C   0  0  0  0  0  0  0  0  0  0  0  0
    8.0910  -14.5400   25.7998 C   0  0  2  0  0  0  0  0  0  0  0  0
    7.0797  -15.4346   25.2730 N   0  0  0  0  0  0  0  0  0  0  0  0
    8.7378  -15.0581   27.0061 C   0  0  0  0  0  0  0  0  0  0  0  0
    9.7812  -14.5393   27.4753 O   0  0  0  0  0  0  0  0  0  0  0  0
    8.2327  -16.1519   27.6978 O   0  0  0  0  0  0  0  0  0  0  0  0
  1  2  1  0
  2  4  1  0
  2  3  2  0
  4  5  1  0
  5  6  1  0
  6  8  1  0
  6  7  1  1
  8  9  2  0
 10 11  1  0
 10  8  1  0
 11 12  1  0
 12 13  2  0
 12 19  1  0
 15 14  1  0
 15 16  1  0
 16 18  1  0
 16 17  1  6
 18 20  1  0
 18 19  1  1
 20 22  1  0
 21 20  2  0
M  END
$$$$
