QGI.pdb
     RDKit          3D

 22 21  0  0  1  0  0  0  0  0999 V2000
    9.6600  -11.6495   19.5897 N   0  0  0  0  0  0  0  0  0  0  0  0
   10.0057  -12.8933   19.0011 C   0  0  0  0  0  0  0  0  0  0  0  0
   11.0027  -13.5440   19.4078 O   0  0  0  0  0  0  0  0  0  0  0  0
    9.1853  -13.4256   17.9015 C   0  0  0  0  0  0  0  0  0  0  0  0
    8.8242  -14.8733   18.1689 C   0  0  0  0  0  0  0  0  0  0  0  0
    7.5754  -14.9552   19.0237 C   0  0  2  0  0  0  0  0  0  0  0  0
    7.2917  -13.6806   19.6245 N   0  0  0  0  0  0  0  0  0  0  0  0
    7.7857  -16.0105   20.0599 C   0  0  0  0  0  0  0  0  0  0  0  0
    7.8094  -17.2180   19.6837 O   0  0  0  0  0  0  0  0  0  0  0  0
    7.9533  -15.6798   21.4159 N   0  0  0  0  0  0  0  0  0  0  0  0
    8.0924  -16.7337   22.4128 C   0  0  0  0  0  0  0  0  0  0  0  0
    8.6359  -16.2034   23.6812 C   0  0  0  0  0  0  0  0  0  0  0  0
    9.8264  -16.4029   23.9703 O   0  0  0  0  0  0  0  0  0  0  0  0
    6.5660  -11.4862   26.9019 C   0  0  0  0  0  0  0  0  0  0  0  0
    7.6719  -12.5364   26.8755 C   0  0  0  0  0  0  0  0  0  0  0  0
    7.2508  -13.5872   25.8992 C   0  0  2  0  0  0  0  0  0  0  0  0
    5.9411  -14.1840   26.3525 C   0  0  0  0  0  0  0  0  0  0  0  0
    8.2949  -14.6255   25.6158 C   0  0  2  0  0  0  0  0  0  0  0  0
    7.8129  -15.4813   24.5500 N   0  0  0  0  0  0  0  0  0  0  0  0
    8.7605  -15.3758   26.7830 C   0  0  0  0  0  0  0  0  0  0  0  0
    8.3180  -16.5189   27.0575 O   0  0  0  0  0  0  0  0  0  0  0  0
    9.7173  -14.8642   27.6506 O   0  0  0  0  0  0  0  0  0  0  0  0
  1  2  1  0
  2  4  1  0
  2  3  2  0
  4  5  1  0
  5  6  1  0
  6  8  1  0
  6  7  1  1
  8  9  2  0
 10 11  1  0
 10  8  1  0
 11 12  1  0
 12 13  2  0
 12 19  1  0
 15 14  1  0
 15 16  1  0
 16 18  1  0
 16 17  1  1
 18 20  1  0
 18 19  1  6
 20 22  1  0
 21 20  2  0
M  END
$$$$
