QGI.pdb
     RDKit          3D

 22 21  0  0  1  0  0  0  0  0999 V2000
    9.4809  -12.4966   18.6678 N   0  0  0  0  0  0  0  0  0  0  0  0
    8.9014  -13.4295   17.7695 C   0  0  0  0  0  0  0  0  0  0  0  0
    9.5895  -13.9625   16.8610 O   0  0  0  0  0  0  0  0  0  0  0  0
    7.4775  -13.7753   17.9052 C   0  0  0  0  0  0  0  0  0  0  0  0
    7.1185  -13.9580   19.3666 C   0  0  0  0  0  0  0  0  0  0  0  0
    7.9531  -15.0646   19.9794 C   0  0  2  0  0  0  0  0  0  0  0  0
    7.8385  -16.2699   19.2047 N   0  0  0  0  0  0  0  0  0  0  0  0
    7.4920  -15.2752   21.3847 C   0  0  0  0  0  0  0  0  0  0  0  0
    7.4763  -14.2773   22.1619 O   0  0  0  0  0  0  0  0  0  0  0  0
    7.0859  -16.5423   21.8382 N   0  0  0  0  0  0  0  0  0  0  0  0
    6.6257  -16.7138   23.2103 C   0  0  0  0  0  0  0  0  0  0  0  0
    7.6313  -16.2258   24.1779 C   0  0  0  0  0  0  0  0  0  0  0  0
    8.8238  -16.5392   24.0350 O   0  0  0  0  0  0  0  0  0  0  0  0
    5.9722  -11.7196   26.6709 C   0  0  0  0  0  0  0  0  0  0  0  0
    6.7544  -12.7371   25.8465 C   0  0  0  0  0  0  0  0  0  0  0  0
    7.4713  -13.6224   26.8145 C   0  0  2  0  0  0  0  0  0  0  0  0
    8.4035  -12.7826   27.6527 C   0  0  0  0  0  0  0  0  0  0  0  0
    8.1556  -14.8008   26.1887 C   0  0  2  0  0  0  0  0  0  0  0  0
    7.2406  -15.4159   25.2479 N   0  0  0  0  0  0  0  0  0  0  0  0
    8.7331  -15.7593   27.1320 C   0  0  0  0  0  0  0  0  0  0  0  0
    9.9241  -15.6726   27.5214 O   0  0  0  0  0  0  0  0  0  0  0  0
    7.9949  -16.8173   27.6477 O   0  0  0  0  0  0  0  0  0  0  0  0
  1  2  1  0
  2  4  1  0
  2  3  2  0
  4  5  1  0
  5  6  1  0
  6  8  1  0
  6  7  1  6
  8  9  2  0
 10 11  1  0
 10  8  1  0
 11 12  1  0
 12 13  2  0
 12 19  1  0
 15 14  1  0
 15 16  1  0
 16 18  1  0
 16 17  1  6
 18 20  1  0
 18 19  1  1
 20 22  1  0
 21 20  2  0
M  END
$$$$
