QGI.pdb
     RDKit          3D

 22 21  0  0  1  0  0  0  0  0999 V2000
    7.2150  -22.4169   18.9678 N   0  0  0  0  0  0  0  0  0  0  0  0
    7.7140  -21.1111   18.7254 C   0  0  0  0  0  0  0  0  0  0  0  0
    8.2931  -20.8327   17.6438 O   0  0  0  0  0  0  0  0  0  0  0  0
    7.5502  -20.0720   19.7545 C   0  0  0  0  0  0  0  0  0  0  0  0
    8.0824  -18.7452   19.2505 C   0  0  0  0  0  0  0  0  0  0  0  0
    9.0437  -18.1466   20.2576 C   0  0  2  0  0  0  0  0  0  0  0  0
    9.5169  -19.1567   21.1642 N   0  0  0  0  0  0  0  0  0  0  0  0
    8.3366  -17.0503   20.9854 C   0  0  0  0  0  0  0  0  0  0  0  0
    8.2793  -15.9119   20.4369 O   0  0  0  0  0  0  0  0  0  0  0  0
    7.7492  -17.2690   22.2438 N   0  0  0  0  0  0  0  0  0  0  0  0
    6.9918  -16.2054   22.8908 C   0  0  0  0  0  0  0  0  0  0  0  0
    7.8713  -15.3402   23.7054 C   0  0  0  0  0  0  0  0  0  0  0  0
    9.0303  -15.1107   23.3251 O   0  0  0  0  0  0  0  0  0  0  0  0
    5.6814  -11.4397   27.2317 C   0  0  0  0  0  0  0  0  0  0  0  0
    6.0313  -12.7833   26.6001 C   0  0  0  0  0  0  0  0  0  0  0  0
    7.3139  -12.5933   25.8560 C   0  0  2  0  0  0  0  0  0  0  0  0
    7.0220  -11.9279   24.5336 C   0  0  0  0  0  0  0  0  0  0  0  0
    8.1375  -13.8379   25.7107 C   0  0  2  0  0  0  0  0  0  0  0  0
    7.3994  -14.7838   24.8976 N   0  0  0  0  0  0  0  0  0  0  0  0
    8.6173  -14.4178   26.9659 C   0  0  0  0  0  0  0  0  0  0  0  0
    8.1581  -15.4961   27.4177 O   0  0  0  0  0  0  0  0  0  0  0  0
    9.6068  -13.8067   27.7259 O   0  0  0  0  0  0  0  0  0  0  0  0
  1  2  1  0
  2  4  1  0
  2  3  2  0
  4  5  1  0
  5  6  1  0
  6  8  1  0
  6  7  1  1
  8  9  2  0
 10 11  1  0
 10  8  1  0
 11 12  1  0
 12 13  2  0
 12 19  1  0
 15 14  1  0
 15 16  1  0
 16 18  1  0
 16 17  1  6
 18 20  1  0
 18 19  1  1
 20 22  1  0
 21 20  2  0
M  END
$$$$
