QGI.pdb
     RDKit          3D

 22 21  0  0  1  0  0  0  0  0999 V2000
    7.2250  -20.4095   16.4259 N   0  0  0  0  0  0  0  0  0  0  0  0
    8.4480  -20.7919   17.0351 C   0  0  0  0  0  0  0  0  0  0  0  0
    9.0130  -21.8721   16.7240 O   0  0  0  0  0  0  0  0  0  0  0  0
    9.0601  -19.9113   18.0428 C   0  0  0  0  0  0  0  0  0  0  0  0
    8.1858  -18.6956   18.2784 C   0  0  0  0  0  0  0  0  0  0  0  0
    8.9807  -17.5992   18.9587 C   0  0  2  0  0  0  0  0  0  0  0  0
   10.1424  -18.1461   19.6049 N   0  0  0  0  0  0  0  0  0  0  0  0
    8.0866  -16.9114   19.9379 C   0  0  0  0  0  0  0  0  0  0  0  0
    6.8742  -16.7410   19.6194 O   0  0  0  0  0  0  0  0  0  0  0  0
    8.5703  -16.4633   21.1795 N   0  0  0  0  0  0  0  0  0  0  0  0
    7.6558  -15.8777   22.1513 C   0  0  0  0  0  0  0  0  0  0  0  0
    8.3755  -15.4293   23.3623 C   0  0  0  0  0  0  0  0  0  0  0  0
    9.5860  -15.6753   23.4837 O   0  0  0  0  0  0  0  0  0  0  0  0
    5.6658  -11.5663   26.0979 C   0  0  0  0  0  0  0  0  0  0  0  0
    6.6599  -12.3877   25.2831 C   0  0  0  0  0  0  0  0  0  0  0  0
    7.3721  -13.2856   26.2429 C   0  0  2  0  0  0  0  0  0  0  0  0
    8.0521  -12.4428   27.2937 C   0  0  0  0  0  0  0  0  0  0  0  0
    8.3005  -14.2713   25.5988 C   0  0  2  0  0  0  0  0  0  0  0  0
    7.6957  -14.7320   24.3649 N   0  0  0  0  0  0  0  0  0  0  0  0
    8.7411  -15.3682   26.4619 C   0  0  0  0  0  0  0  0  0  0  0  0
    8.0359  -16.3907   26.6487 O   0  0  0  0  0  0  0  0  0  0  0  0
    9.9636  -15.3377   27.1213 O   0  0  0  0  0  0  0  0  0  0  0  0
  1  2  1  0
  2  4  1  0
  2  3  2  0
  4  5  1  0
  5  6  1  0
  6  8  1  0
  6  7  1  1
  8  9  2  0
 10 11  1  0
 10  8  1  0
 11 12  1  0
 12 13  2  0
 12 19  1  0
 15 14  1  0
 15 16  1  0
 16 18  1  0
 16 17  1  1
 18 20  1  0
 18 19  1  6
 20 22  1  0
 21 20  2  0
M  END
$$$$
