NSA.pdb
     RDKit          3D

 20 19  0  0  1  0  0  0  0  0999 V2000
    9.1947  -12.1403   17.8483 N   0  0  0  0  0  0  0  0  0  0  0  0
   10.1033  -12.9138   18.6129 C   0  0  0  0  0  0  0  0  0  0  0  0
   11.3365  -12.7332   18.4561 O   0  0  0  0  0  0  0  0  0  0  0  0
    9.5962  -13.9153   19.5756 C   0  0  0  0  0  0  0  0  0  0  0  0
    9.7929  -15.2873   18.9697 C   0  0  2  0  0  0  0  0  0  0  0  0
    8.9045  -15.4665   17.8105 N   0  0  0  0  0  0  0  0  0  0  0  0
    9.4153  -16.2940   19.9731 C   0  0  0  0  0  0  0  0  0  0  0  0
    8.4565  -17.0642   19.8225 O   0  0  0  0  0  0  0  0  0  0  0  0
   11.3164  -19.0243   21.0264 O   0  0  0  0  0  0  0  0  0  0  0  0
   10.0387  -18.7202   21.4358 C   0  0  0  0  0  0  0  0  0  0  0  0
    9.9527  -17.3917   22.1575 C   0  0  2  0  0  0  0  0  0  0  0  0
   10.1931  -16.3786   21.1633 N   0  0  0  0  0  0  0  0  0  0  0  0
   10.9702  -17.2808   23.2295 C   0  0  0  0  0  0  0  0  0  0  0  0
   11.8887  -16.4241   23.1478 O   0  0  0  0  0  0  0  0  0  0  0  0
   10.1743  -16.5075   26.0136 C   0  0  0  0  0  0  0  0  0  0  0  0
   11.1721  -17.6223   25.7022 C   0  0  2  0  0  0  0  0  0  0  0  0
   10.9494  -18.1277   24.3736 N   0  0  0  0  0  0  0  0  0  0  0  0
   11.1932  -18.6644   26.7316 C   0  0  0  0  0  0  0  0  0  0  0  0
   10.4417  -19.6672   26.6150 O   0  0  0  0  0  0  0  0  0  0  0  0
   12.0132  -18.5961   27.8377 O   0  0  0  0  0  0  0  0  0  0  0  0
  2  3  2  0
  2  1  1  0
  4  2  1  0
  5  4  1  0
  5  6  1  6
  7  8  2  0
  7  5  1  0
  9 10  1  0
 11 10  1  6
 11 12  1  0
 12  7  1  0
 13 11  1  0
 13 17  1  0
 14 13  2  0
 16 15  1  1
 16 17  1  0
 16 18  1  0
 18 20  1  0
 19 18  2  0
M  END
$$$$
