NSA.pdb
     RDKit          3D

 20 19  0  0  1  0  0  0  0  0999 V2000
    7.0979  -14.0416   14.4427 N   0  0  0  0  0  0  0  0  0  0  0  0
    8.3766  -14.0958   15.0514 C   0  0  0  0  0  0  0  0  0  0  0  0
    9.3411  -14.5654   14.3978 O   0  0  0  0  0  0  0  0  0  0  0  0
    8.5601  -13.6058   16.4346 C   0  0  0  0  0  0  0  0  0  0  0  0
    8.8909  -14.7934   17.3111 C   0  0  2  0  0  0  0  0  0  0  0  0
    7.9695  -15.9065   17.0330 N   0  0  0  0  0  0  0  0  0  0  0  0
    8.6952  -14.4006   18.7148 C   0  0  0  0  0  0  0  0  0  0  0  0
    9.3736  -13.5226   19.2663 O   0  0  0  0  0  0  0  0  0  0  0  0
    6.1223  -16.8037   21.0137 O   0  0  0  0  0  0  0  0  0  0  0  0
    6.1604  -15.4457   21.2297 C   0  0  0  0  0  0  0  0  0  0  0  0
    7.4962  -14.8299   20.8695 C   0  0  2  0  0  0  0  0  0  0  0  0
    7.6790  -15.0635   19.4608 N   0  0  0  0  0  0  0  0  0  0  0  0
    8.6107  -15.4546   21.6208 C   0  0  0  0  0  0  0  0  0  0  0  0
    9.3464  -16.3139   21.0689 O   0  0  0  0  0  0  0  0  0  0  0  0
    9.9781  -15.1923   25.1470 C   0  0  0  0  0  0  0  0  0  0  0  0
    9.9050  -15.7829   23.7395 C   0  0  2  0  0  0  0  0  0  0  0  0
    8.8858  -15.1138   22.9753 N   0  0  0  0  0  0  0  0  0  0  0  0
    9.7723  -17.2418   23.7459 C   0  0  0  0  0  0  0  0  0  0  0  0
    8.6281  -17.7606   23.8208 O   0  0  0  0  0  0  0  0  0  0  0  0
   10.8606  -18.0846   23.6700 O   0  0  0  0  0  0  0  0  0  0  0  0
  2  3  2  0
  2  1  1  0
  4  2  1  0
  5  4  1  0
  5  6  1  6
  7  8  2  0
  7  5  1  0
  9 10  1  0
 11 10  1  1
 11 12  1  0
 12  7  1  0
 13 11  1  0
 13 17  1  0
 14 13  2  0
 16 15  1  1
 16 17  1  0
 16 18  1  0
 18 20  1  0
 19 18  2  0
M  END
$$$$
