NSA.pdb
     RDKit          3D

 20 19  0  0  1  0  0  0  0  0999 V2000
   18.5814  -16.5679   16.3885 N   0  0  0  0  0  0  0  0  0  0  0  0
   17.1755  -16.3982   16.3315 C   0  0  0  0  0  0  0  0  0  0  0  0
   16.5508  -16.8366   15.3338 O   0  0  0  0  0  0  0  0  0  0  0  0
   16.4665  -15.7134   17.4339 C   0  0  0  0  0  0  0  0  0  0  0  0
   15.4740  -14.7489   16.8234 C   0  0  2  0  0  0  0  0  0  0  0  0
   16.1613  -13.5332   16.3599 N   0  0  0  0  0  0  0  0  0  0  0  0
   14.5206  -14.3443   17.8675 C   0  0  0  0  0  0  0  0  0  0  0  0
   14.8022  -13.5221   18.7506 O   0  0  0  0  0  0  0  0  0  0  0  0
   10.6000  -16.0621   17.8360 O   0  0  0  0  0  0  0  0  0  0  0  0
   10.8902  -14.7670   18.1978 C   0  0  0  0  0  0  0  0  0  0  0  0
   12.2429  -14.6314   18.8648 C   0  0  2  0  0  0  0  0  0  0  0  0
   13.2215  -14.9281   17.8514 N   0  0  0  0  0  0  0  0  0  0  0  0
   12.3983  -15.5811   19.9922 C   0  0  0  0  0  0  0  0  0  0  0  0
   13.0295  -16.6584   19.8334 O   0  0  0  0  0  0  0  0  0  0  0  0
   11.5639  -15.5851   23.6779 C   0  0  0  0  0  0  0  0  0  0  0  0
   11.9444  -16.2586   22.3600 C   0  0  2  0  0  0  0  0  0  0  0  0
   11.8458  -15.3163   21.2771 N   0  0  0  0  0  0  0  0  0  0  0  0
   11.2045  -17.5013   22.1271 C   0  0  0  0  0  0  0  0  0  0  0  0
   10.2565  -17.5133   21.2994 O   0  0  0  0  0  0  0  0  0  0  0  0
   11.5059  -18.6764   22.7820 O   0  0  0  0  0  0  0  0  0  0  0  0
  2  3  2  0
  2  1  1  0
  4  2  1  0
  5  4  1  0
  5  6  1  1
  7  8  2  0
  7  5  1  0
  9 10  1  0
 11 10  1  6
 11 12  1  0
 12  7  1  0
 13 11  1  0
 13 17  1  0
 14 13  2  0
 16 15  1  1
 16 17  1  0
 16 18  1  0
 18 20  1  0
 19 18  2  0
M  END
$$$$
