NSA.pdb
     RDKit          3D

 20 19  0  0  1  0  0  0  0  0999 V2000
   14.7207  -14.9181   21.1191 N   0  0  0  0  0  0  0  0  0  0  0  0
   13.6067  -14.7857   20.2531 C   0  0  0  0  0  0  0  0  0  0  0  0
   13.7981  -14.7936   19.0116 O   0  0  0  0  0  0  0  0  0  0  0  0
   12.2459  -14.6398   20.8134 C   0  0  0  0  0  0  0  0  0  0  0  0
   11.6761  -16.0251   21.0236 C   0  0  2  0  0  0  0  0  0  0  0  0
   11.0716  -16.5238   19.7781 N   0  0  0  0  0  0  0  0  0  0  0  0
   10.6052  -15.9368   22.0277 C   0  0  0  0  0  0  0  0  0  0  0  0
    9.4670  -15.5267   21.7601 O   0  0  0  0  0  0  0  0  0  0  0  0
   10.5337  -18.5399   24.9889 O   0  0  0  0  0  0  0  0  0  0  0  0
    9.4834  -17.7135   24.6632 C   0  0  0  0  0  0  0  0  0  0  0  0
    9.9158  -16.2847   24.4086 C   0  0  2  0  0  0  0  0  0  0  0  0
   10.9006  -16.3443   23.3602 N   0  0  0  0  0  0  0  0  0  0  0  0
   10.5177  -15.6687   25.6149 C   0  0  0  0  0  0  0  0  0  0  0  0
   11.7143  -15.9099   25.9220 O   0  0  0  0  0  0  0  0  0  0  0  0
    9.4625  -13.1341   28.2083 C   0  0  0  0  0  0  0  0  0  0  0  0
   10.3076  -14.3029   27.7035 C   0  0  2  0  0  0  0  0  0  0  0  0
    9.7761  -14.7963   26.4608 N   0  0  0  0  0  0  0  0  0  0  0  0
   10.4943  -15.3435   28.7174 C   0  0  0  0  0  0  0  0  0  0  0  0
    9.8703  -16.4314   28.6124 O   0  0  0  0  0  0  0  0  0  0  0  0
   11.3373  -15.1833   29.7965 O   0  0  0  0  0  0  0  0  0  0  0  0
  2  3  2  0
  2  1  1  0
  4  2  1  0
  5  4  1  0
  5  6  1  6
  7  8  2  0
  7  5  1  0
  9 10  1  0
 11 10  1  1
 11 12  1  0
 12  7  1  0
 13 11  1  0
 13 17  1  0
 14 13  2  0
 16 15  1  1
 16 17  1  0
 16 18  1  0
 18 20  1  0
 19 18  2  0
M  END
$$$$
