NSA.pdb
     RDKit          3D

 20 19  0  0  1  0  0  0  0  0999 V2000
   15.4342  -16.7798   15.3536 N   0  0  0  0  0  0  0  0  0  0  0  0
   16.2948  -15.9723   16.1382 C   0  0  0  0  0  0  0  0  0  0  0  0
   17.3730  -15.5678   15.6364 O   0  0  0  0  0  0  0  0  0  0  0  0
   15.9199  -15.6193   17.5245 C   0  0  0  0  0  0  0  0  0  0  0  0
   15.0426  -14.3881   17.4722 C   0  0  2  0  0  0  0  0  0  0  0  0
   15.8658  -13.1807   17.2993 N   0  0  0  0  0  0  0  0  0  0  0  0
   14.3441  -14.2635   18.7604 C   0  0  0  0  0  0  0  0  0  0  0  0
   14.9102  -13.8885   19.7968 O   0  0  0  0  0  0  0  0  0  0  0  0
   10.3692  -15.7594   19.0863 O   0  0  0  0  0  0  0  0  0  0  0  0
   10.7388  -14.5437   19.6137 C   0  0  0  0  0  0  0  0  0  0  0  0
   12.1959  -14.4986   20.0233 C   0  0  2  0  0  0  0  0  0  0  0  0
   12.9581  -14.5888   18.8054 N   0  0  0  0  0  0  0  0  0  0  0  0
   12.5530  -15.6295   20.9125 C   0  0  0  0  0  0  0  0  0  0  0  0
   12.9406  -16.7233   20.4251 O   0  0  0  0  0  0  0  0  0  0  0  0
   14.1186  -16.5569   23.7892 C   0  0  0  0  0  0  0  0  0  0  0  0
   12.7138  -16.6478   23.1947 C   0  0  2  0  0  0  0  0  0  0  0  0
   12.4698  -15.5242   22.3297 N   0  0  0  0  0  0  0  0  0  0  0  0
   11.6805  -16.8391   24.2154 C   0  0  0  0  0  0  0  0  0  0  0  0
   10.7728  -15.9776   24.3487 O   0  0  0  0  0  0  0  0  0  0  0  0
   11.6559  -17.9382   25.0473 O   0  0  0  0  0  0  0  0  0  0  0  0
  2  3  2  0
  2  1  1  0
  4  2  1  0
  5  4  1  0
  5  6  1  1
  7  8  2  0
  7  5  1  0
  9 10  1  0
 11 10  1  6
 11 12  1  0
 12  7  1  0
 13 11  1  0
 13 17  1  0
 14 13  2  0
 16 15  1  1
 16 17  1  0
 16 18  1  0
 18 20  1  0
 19 18  2  0
M  END
$$$$
