NSA.pdb
     RDKit          3D

 20 19  0  0  1  0  0  0  0  0999 V2000
   16.8068  -19.9283   17.3170 N   0  0  0  0  0  0  0  0  0  0  0  0
   16.9566  -18.8515   18.2261 C   0  0  0  0  0  0  0  0  0  0  0  0
   18.0781  -18.6567   18.7574 O   0  0  0  0  0  0  0  0  0  0  0  0
   15.8040  -17.9789   18.5376 C   0  0  0  0  0  0  0  0  0  0  0  0
   14.5984  -18.5156   17.7984 C   0  0  2  0  0  0  0  0  0  0  0  0
   14.5433  -17.9587   16.4374 N   0  0  0  0  0  0  0  0  0  0  0  0
   13.3875  -18.0711   18.5049 C   0  0  0  0  0  0  0  0  0  0  0  0
   12.8440  -16.9800   18.2830 O   0  0  0  0  0  0  0  0  0  0  0  0
   11.6331  -20.6994   21.3901 O   0  0  0  0  0  0  0  0  0  0  0  0
   10.9362  -19.9881   20.4410 C   0  0  0  0  0  0  0  0  0  0  0  0
   11.5701  -18.6495   20.1259 C   0  0  2  0  0  0  0  0  0  0  0  0
   12.8243  -18.9410   19.4820 N   0  0  0  0  0  0  0  0  0  0  0  0
   11.8194  -17.8561   21.3528 C   0  0  0  0  0  0  0  0  0  0  0  0
   12.9739  -17.8022   21.8513 O   0  0  0  0  0  0  0  0  0  0  0  0
    9.7679  -15.5386   23.5346 C   0  0  0  0  0  0  0  0  0  0  0  0
   11.0193  -16.3401   23.1786 C   0  0  2  0  0  0  0  0  0  0  0  0
   10.7780  -17.1379   22.0057 N   0  0  0  0  0  0  0  0  0  0  0  0
   11.5407  -17.1060   24.3134 C   0  0  0  0  0  0  0  0  0  0  0  0
   11.2559  -18.3271   24.4212 O   0  0  0  0  0  0  0  0  0  0  0  0
   12.3431  -16.5413   25.2818 O   0  0  0  0  0  0  0  0  0  0  0  0
  2  3  2  0
  2  1  1  0
  4  2  1  0
  5  4  1  0
  5  6  1  6
  7  8  2  0
  7  5  1  0
  9 10  1  0
 11 10  1  1
 11 12  1  0
 12  7  1  0
 13 11  1  0
 13 17  1  0
 14 13  2  0
 16 15  1  1
 16 17  1  0
 16 18  1  0
 18 20  1  0
 19 18  2  0
M  END
$$$$
