NSA.pdb
     RDKit          3D

 20 19  0  0  1  0  0  0  0  0999 V2000
   13.9180  -18.7319   21.3472 N   0  0  0  0  0  0  0  0  0  0  0  0
   13.1088  -17.8361   20.6047 C   0  0  0  0  0  0  0  0  0  0  0  0
   13.0545  -17.9595   19.3558 O   0  0  0  0  0  0  0  0  0  0  0  0
   12.3465  -16.7765   21.2997 C   0  0  0  0  0  0  0  0  0  0  0  0
   10.9267  -17.2652   21.4818 C   0  0  2  0  0  0  0  0  0  0  0  0
   10.1976  -17.2056   20.2050 N   0  0  0  0  0  0  0  0  0  0  0  0
   10.2440  -16.3623   22.4208 C   0  0  0  0  0  0  0  0  0  0  0  0
   10.0744  -15.1570   22.1889 O   0  0  0  0  0  0  0  0  0  0  0  0
    8.1013  -18.1192   25.5641 O   0  0  0  0  0  0  0  0  0  0  0  0
    7.7914  -16.9283   24.9492 C   0  0  0  0  0  0  0  0  0  0  0  0
    9.0173  -16.1158   24.5885 C   0  0  2  0  0  0  0  0  0  0  0  0
    9.7605  -16.9084   23.6441 N   0  0  0  0  0  0  0  0  0  0  0  0
    9.8635  -15.8406   25.7740 C   0  0  0  0  0  0  0  0  0  0  0  0
   10.8790  -16.5465   26.0077 O   0  0  0  0  0  0  0  0  0  0  0  0
    9.8894  -13.2700   28.5552 C   0  0  0  0  0  0  0  0  0  0  0  0
   10.3230  -14.5726   27.8841 C   0  0  2  0  0  0  0  0  0  0  0  0
    9.5630  -14.7854   26.6810 N   0  0  0  0  0  0  0  0  0  0  0  0
   10.3025  -15.7142   28.8020 C   0  0  0  0  0  0  0  0  0  0  0  0
    9.3739  -16.5597   28.7201 O   0  0  0  0  0  0  0  0  0  0  0  0
   11.2704  -15.9081   29.7643 O   0  0  0  0  0  0  0  0  0  0  0  0
  2  3  2  0
  2  1  1  0
  4  2  1  0
  5  4  1  0
  5  6  1  6
  7  8  2  0
  7  5  1  0
  9 10  1  0
 11 10  1  1
 11 12  1  0
 12  7  1  0
 13 11  1  0
 13 17  1  0
 14 13  2  0
 16 15  1  1
 16 17  1  0
 16 18  1  0
 18 20  1  0
 19 18  2  0
M  END
$$$$
