NSA.pdb
     RDKit          3D

 20 19  0  0  1  0  0  0  0  0999 V2000
   10.2136  -20.2322   17.7025 N   0  0  0  0  0  0  0  0  0  0  0  0
   11.2038  -19.5107   18.4149 C   0  0  0  0  0  0  0  0  0  0  0  0
   12.3508  -20.0089   18.5336 O   0  0  0  0  0  0  0  0  0  0  0  0
   10.8799  -18.1942   19.0057 C   0  0  0  0  0  0  0  0  0  0  0  0
    9.4256  -17.8967   18.7152 C   0  0  2  0  0  0  0  0  0  0  0  0
    9.2779  -17.3412   17.3606 N   0  0  0  0  0  0  0  0  0  0  0  0
    8.9652  -16.8714   19.6637 C   0  0  0  0  0  0  0  0  0  0  0  0
    9.6556  -15.8925   19.9805 O   0  0  0  0  0  0  0  0  0  0  0  0
    5.2552  -17.5181   21.5353 O   0  0  0  0  0  0  0  0  0  0  0  0
    5.6242  -16.2542   21.1368 C   0  0  0  0  0  0  0  0  0  0  0  0
    7.1244  -16.0486   21.1468 C   0  0  2  0  0  0  0  0  0  0  0  0
    7.6687  -17.0201   20.2344 N   0  0  0  0  0  0  0  0  0  0  0  0
    7.7004  -16.2630   22.4956 C   0  0  0  0  0  0  0  0  0  0  0  0
    8.2539  -17.3561   22.7839 O   0  0  0  0  0  0  0  0  0  0  0  0
    7.9541  -14.2301   25.6849 C   0  0  0  0  0  0  0  0  0  0  0  0
    8.0713  -15.5072   24.8541 C   0  0  2  0  0  0  0  0  0  0  0  0
    7.6479  -15.2575   23.5018 N   0  0  0  0  0  0  0  0  0  0  0  0
    7.4004  -16.6501   25.4785 C   0  0  0  0  0  0  0  0  0  0  0  0
    6.2068  -16.9102   25.1760 O   0  0  0  0  0  0  0  0  0  0  0  0
    8.0279  -17.4671   26.3946 O   0  0  0  0  0  0  0  0  0  0  0  0
  2  3  2  0
  2  1  1  0
  4  2  1  0
  5  4  1  0
  5  6  1  6
  7  8  2  0
  7  5  1  0
  9 10  1  0
 11 10  1  1
 11 12  1  0
 12  7  1  0
 13 11  1  0
 13 17  1  0
 14 13  2  0
 16 15  1  1
 16 17  1  0
 16 18  1  0
 18 20  1  0
 19 18  2  0
M  END
$$$$
