NSA.pdb
     RDKit          3D

 20 19  0  0  1  0  0  0  0  0999 V2000
    7.1039  -13.5130   15.1239 N   0  0  0  0  0  0  0  0  0  0  0  0
    8.2346  -14.0629   15.7781 C   0  0  0  0  0  0  0  0  0  0  0  0
    8.9681  -14.8666   15.1506 O   0  0  0  0  0  0  0  0  0  0  0  0
    8.5350  -13.6902   17.1773 C   0  0  0  0  0  0  0  0  0  0  0  0
    8.8533  -14.9569   17.9402 C   0  0  2  0  0  0  0  0  0  0  0  0
    7.6652  -15.8220   18.0134 N   0  0  0  0  0  0  0  0  0  0  0  0
    9.2146  -14.5885   19.3174 C   0  0  0  0  0  0  0  0  0  0  0  0
   10.2558  -13.9777   19.5970 O   0  0  0  0  0  0  0  0  0  0  0  0
    6.6641  -15.9195   22.4675 O   0  0  0  0  0  0  0  0  0  0  0  0
    7.3713  -14.7406   22.5175 C   0  0  0  0  0  0  0  0  0  0  0  0
    8.6764  -14.8044   21.7522 C   0  0  2  0  0  0  0  0  0  0  0  0
    8.3213  -14.9532   20.3651 N   0  0  0  0  0  0  0  0  0  0  0  0
    9.5062  -15.9577   22.1744 C   0  0  0  0  0  0  0  0  0  0  0  0
    9.4694  -17.0374   21.5286 O   0  0  0  0  0  0  0  0  0  0  0  0
   12.6012  -16.6763   23.8399 C   0  0  0  0  0  0  0  0  0  0  0  0
   11.1157  -17.0271   23.7675 C   0  0  2  0  0  0  0  0  0  0  0  0
   10.3613  -15.8902   23.3105 N   0  0  0  0  0  0  0  0  0  0  0  0
   10.6107  -17.6045   25.0155 C   0  0  0  0  0  0  0  0  0  0  0  0
    9.6895  -17.0191   25.6421 O   0  0  0  0  0  0  0  0  0  0  0  0
   11.1051  -18.7791   25.5412 O   0  0  0  0  0  0  0  0  0  0  0  0
  2  3  2  0
  2  1  1  0
  4  2  1  0
  5  4  1  0
  5  6  1  1
  7  8  2  0
  7  5  1  0
  9 10  1  0
 11 10  1  1
 11 12  1  0
 12  7  1  0
 13 11  1  0
 13 17  1  0
 14 13  2  0
 16 15  1  1
 16 17  1  0
 16 18  1  0
 18 20  1  0
 19 18  2  0
M  END
$$$$
