NSA.pdb
     RDKit          3D

 20 19  0  0  1  0  0  0  0  0999 V2000
   17.4072  -13.7573   15.9255 N   0  0  0  0  0  0  0  0  0  0  0  0
   16.6235  -14.7898   16.4984 C   0  0  0  0  0  0  0  0  0  0  0  0
   16.6991  -15.9478   16.0174 O   0  0  0  0  0  0  0  0  0  0  0  0
   15.7339  -14.4966   17.6428 C   0  0  0  0  0  0  0  0  0  0  0  0
   14.3508  -15.0057   17.3019 C   0  0  2  0  0  0  0  0  0  0  0  0
   13.7917  -14.2484   16.1709 N   0  0  0  0  0  0  0  0  0  0  0  0
   13.4752  -14.7760   18.4609 C   0  0  0  0  0  0  0  0  0  0  0  0
   13.4784  -13.7173   19.1046 O   0  0  0  0  0  0  0  0  0  0  0  0
    9.4399  -16.3313   20.5258 O   0  0  0  0  0  0  0  0  0  0  0  0
   10.3576  -16.2329   19.5058 C   0  0  0  0  0  0  0  0  0  0  0  0
   11.6907  -15.6806   19.9651 C   0  0  2  0  0  0  0  0  0  0  0  0
   12.5894  -15.8216   18.8493 N   0  0  0  0  0  0  0  0  0  0  0  0
   12.2263  -16.4299   21.1264 C   0  0  0  0  0  0  0  0  0  0  0  0
   12.6660  -17.6002   20.9797 O   0  0  0  0  0  0  0  0  0  0  0  0
   13.2023  -15.6602   24.6656 C   0  0  0  0  0  0  0  0  0  0  0  0
   12.7088  -16.6124   23.5770 C   0  0  2  0  0  0  0  0  0  0  0  0
   12.2609  -15.8645   22.4323 N   0  0  0  0  0  0  0  0  0  0  0  0
   11.7218  -17.5742   24.0737 C   0  0  0  0  0  0  0  0  0  0  0  0
   12.0720  -18.4469   24.9101 O   0  0  0  0  0  0  0  0  0  0  0  0
   10.4062  -17.5648   23.6616 O   0  0  0  0  0  0  0  0  0  0  0  0
  2  3  2  0
  2  1  1  0
  4  2  1  0
  5  4  1  0
  5  6  1  6
  7  8  2  0
  7  5  1  0
  9 10  1  0
 11 10  1  6
 11 12  1  0
 12  7  1  0
 13 11  1  0
 13 17  1  0
 14 13  2  0
 16 15  1  1
 16 17  1  0
 16 18  1  0
 18 20  1  0
 19 18  2  0
M  END
$$$$
