NSA.pdb
     RDKit          3D

 20 19  0  0  1  0  0  0  0  0999 V2000
    7.2489  -13.0707   16.4061 N   0  0  0  0  0  0  0  0  0  0  0  0
    8.3315  -13.8333   16.9110 C   0  0  0  0  0  0  0  0  0  0  0  0
    8.8245  -14.7380   16.1923 O   0  0  0  0  0  0  0  0  0  0  0  0
    8.8628  -13.5605   18.2639 C   0  0  0  0  0  0  0  0  0  0  0  0
    9.2837  -14.8785   18.8751 C   0  0  2  0  0  0  0  0  0  0  0  0
    8.2089  -15.8737   18.7349 N   0  0  0  0  0  0  0  0  0  0  0  0
    9.5057  -14.6706   20.3140 C   0  0  0  0  0  0  0  0  0  0  0  0
   10.4580  -14.0137   20.7577 O   0  0  0  0  0  0  0  0  0  0  0  0
    6.7553  -16.4369   23.0664 O   0  0  0  0  0  0  0  0  0  0  0  0
    7.4136  -15.2482   23.2808 C   0  0  0  0  0  0  0  0  0  0  0  0
    8.7897  -15.2155   22.6497 C   0  0  2  0  0  0  0  0  0  0  0  0
    8.5793  -15.2526   21.2260 N   0  0  0  0  0  0  0  0  0  0  0  0
    9.6097  -16.3812   23.0567 C   0  0  0  0  0  0  0  0  0  0  0  0
    9.6558  -17.4097   22.3326 O   0  0  0  0  0  0  0  0  0  0  0  0
   12.5182  -17.5065   24.3484 C   0  0  0  0  0  0  0  0  0  0  0  0
   11.0420  -17.5593   24.7397 C   0  0  2  0  0  0  0  0  0  0  0  0
   10.3627  -16.3831   24.2648 N   0  0  0  0  0  0  0  0  0  0  0  0
   10.8459  -17.8147   26.1688 C   0  0  0  0  0  0  0  0  0  0  0  0
   10.2259  -16.9735   26.8702 O   0  0  0  0  0  0  0  0  0  0  0  0
   11.3149  -18.9532   26.7887 O   0  0  0  0  0  0  0  0  0  0  0  0
  2  3  2  0
  2  1  1  0
  4  2  1  0
  5  4  1  0
  5  6  1  1
  7  8  2  0
  7  5  1  0
  9 10  1  0
 11 10  1  1
 11 12  1  0
 12  7  1  0
 13 11  1  0
 13 17  1  0
 14 13  2  0
 16 15  1  1
 16 17  1  0
 16 18  1  0
 18 20  1  0
 19 18  2  0
M  END
$$$$
