SRQ.pdb
     RDKit          3D

 27 26  0  0  1  0  0  0  0  0999 V2000
    7.7776  -11.3674   26.8976 O   0  0  0  0  0  0  0  0  0  0  0  0
    7.1303  -11.2904   25.6675 C   0  0  0  0  0  0  0  0  0  0  0  0
    6.0686  -12.3653   25.5799 C   0  0  2  0  0  0  0  0  0  0  0  0
    5.2082  -12.3229   26.7211 N   0  0  0  0  0  0  0  0  0  0  0  0
    6.6716  -13.7154   25.4325 C   0  0  0  0  0  0  0  0  0  0  0  0
    6.8663  -14.4475   26.4397 O   0  0  0  0  0  0  0  0  0  0  0  0
    7.2521  -12.9793   18.8844 N   0  0  0  0  0  0  0  0  0  0  0  0
    8.6406  -13.2554   19.0149 C   0  0  0  0  0  0  0  0  0  0  0  0
    9.5204  -12.3604   18.7144 N   0  0  0  0  0  0  0  0  0  0  0  0
    9.1377  -14.5048   19.4733 N   0  0  0  0  0  0  0  0  0  0  0  0
    8.3496  -15.3813   20.2774 C   0  0  0  0  0  0  0  0  0  0  0  0
    8.3430  -15.0243   21.7447 C   0  0  0  0  0  0  0  0  0  0  0  0
    7.6346  -16.0447   22.5907 C   0  0  0  0  0  0  0  0  0  0  0  0
    7.6363  -15.5431   24.0219 C   0  0  2  0  0  0  0  0  0  0  0  0
    7.0544  -14.2438   24.1704 N   0  0  0  0  0  0  0  0  0  0  0  0
    9.0805  -15.5030   24.4283 C   0  0  0  0  0  0  0  0  0  0  0  0
    9.8120  -14.5354   24.0776 O   0  0  0  0  0  0  0  0  0  0  0  0
   10.5265  -12.6255   18.7477 N   0  0  0  0  0  0  0  0  0  0  0  0
   11.2138  -16.5238   30.0383 C   0  0  0  0  0  0  0  0  0  0  0  0
   10.7864  -15.3562   29.2893 O   0  0  0  0  0  0  0  0  0  0  0  0
   10.4986  -14.3714   29.9764 C   0  0  0  0  0  0  0  0  0  0  0  0
   10.7126  -15.3796   27.8468 C   0  0  0  0  0  0  0  0  0  0  0  0
   11.1850  -16.5552   27.1009 C   0  0  2  0  0  0  0  0  0  0  0  0
   11.0615  -16.5478   25.6156 N   0  0  0  0  0  0  0  0  0  0  0  0
    9.6590  -16.5358   25.2078 C   0  0  0  0  0  0  0  0  0  0  0  0
   11.8370  -17.5230   24.8637 O   0  0  0  0  0  0  0  0  0  0  0  0
   13.2193  -17.5630   24.8473 O   0  0  0  0  0  0  0  0  0  0  0  0
  1  2  1  0
  2  3  1  0
  3  5  1  0
  3  4  1  1
  5 15  1  0
  6  5  2  0
  8  7  1  0
  8 10  1  0
  9  8  2  0
 11 10  1  0
 12 11  1  0
 13 12  1  0
 14 13  1  6
 15 14  1  0
 16 14  1  0
 16 24  1  0
 17 16  2  0
 18 19  1  0
 19 21  1  0
 20 19  2  0
 21 22  1  0
 23 24  1  0
 23 22  1  1
 25 23  1  0
 26 25  1  0
 27 25  2  0
M  END
$$$$
