SRQ.pdb
     RDKit          3D

 27 26  0  0  1  0  0  0  0  0999 V2000
   16.8651  -15.3453   18.4519 O   0  0  0  0  0  0  0  0  0  0  0  0
   16.0088  -15.3590   17.3544 C   0  0  0  0  0  0  0  0  0  0  0  0
   15.0447  -14.1958   17.4430 C   0  0  2  0  0  0  0  0  0  0  0  0
   15.6942  -13.0377   17.9735 N   0  0  0  0  0  0  0  0  0  0  0  0
   13.8492  -14.5403   18.2556 C   0  0  0  0  0  0  0  0  0  0  0  0
   13.5941  -13.9187   19.3219 O   0  0  0  0  0  0  0  0  0  0  0  0
    7.8137  -21.5648   18.9958 N   0  0  0  0  0  0  0  0  0  0  0  0
    7.8456  -20.3207   18.3086 C   0  0  0  0  0  0  0  0  0  0  0  0
    7.0630  -20.1028   17.3058 N   0  0  0  0  0  0  0  0  0  0  0  0
    8.7203  -19.2620   18.6724 N   0  0  0  0  0  0  0  0  0  0  0  0
    8.6051  -17.9587   18.1030 C   0  0  0  0  0  0  0  0  0  0  0  0
    9.5671  -16.9504   18.6846 C   0  0  0  0  0  0  0  0  0  0  0  0
   10.8911  -16.9290   17.9736 C   0  0  0  0  0  0  0  0  0  0  0  0
   11.7359  -15.8353   18.5982 C   0  0  2  0  0  0  0  0  0  0  0  0
   12.9459  -15.5707   17.8806 N   0  0  0  0  0  0  0  0  0  0  0  0
   12.0604  -16.3228   19.9801 C   0  0  0  0  0  0  0  0  0  0  0  0
   13.1342  -16.9512   20.1957 O   0  0  0  0  0  0  0  0  0  0  0  0
    7.1498  -19.1978   16.7987 N   0  0  0  0  0  0  0  0  0  0  0  0
    8.7117  -14.7660   25.4051 C   0  0  0  0  0  0  0  0  0  0  0  0
    9.7616  -15.6865   25.8018 O   0  0  0  0  0  0  0  0  0  0  0  0
    9.8143  -15.9287   27.0115 C   0  0  0  0  0  0  0  0  0  0  0  0
   10.6626  -16.2571   24.8275 C   0  0  0  0  0  0  0  0  0  0  0  0
   10.5320  -15.9077   23.4054 C   0  0  2  0  0  0  0  0  0  0  0  0
   11.4507  -16.5592   22.4291 N   0  0  0  0  0  0  0  0  0  0  0  0
   11.1835  -16.0954   21.0702 C   0  0  0  0  0  0  0  0  0  0  0  0
   11.5934  -18.0062   22.4905 O   0  0  0  0  0  0  0  0  0  0  0  0
   12.5941  -18.6541   23.1915 O   0  0  0  0  0  0  0  0  0  0  0  0
  1  2  1  0
  2  3  1  0
  3  5  1  0
  3  4  1  1
  5 15  1  0
  6  5  2  0
  8  7  1  0
  8 10  1  0
  9  8  2  0
 11 10  1  0
 12 11  1  0
 13 12  1  0
 14 13  1  6
 15 14  1  0
 16 14  1  0
 16 24  1  0
 17 16  2  0
 18 19  1  0
 19 21  1  0
 20 19  2  0
 21 22  1  0
 23 24  1  0
 23 22  1  1
 25 23  1  0
 26 25  1  0
 27 25  2  0
M  END
$$$$
