SRQ.pdb
     RDKit          3D

 27 26  0  0  1  0  0  0  0  0999 V2000
    8.0338  -13.3743   20.6369 O   0  0  0  0  0  0  0  0  0  0  0  0
    8.3569  -12.4967   19.6058 C   0  0  0  0  0  0  0  0  0  0  0  0
    8.6964  -13.2789   18.3556 C   0  0  2  0  0  0  0  0  0  0  0  0
    7.5329  -13.9195   17.8261 N   0  0  0  0  0  0  0  0  0  0  0  0
    9.7685  -14.2755   18.6113 C   0  0  0  0  0  0  0  0  0  0  0  0
    9.6957  -15.4379   18.1299 O   0  0  0  0  0  0  0  0  0  0  0  0
   17.6249  -15.2708   17.0520 N   0  0  0  0  0  0  0  0  0  0  0  0
   16.6178  -14.3936   16.5651 C   0  0  0  0  0  0  0  0  0  0  0  0
   16.9115  -13.1890   16.2068 N   0  0  0  0  0  0  0  0  0  0  0  0
   15.2551  -14.7767   16.4443 N   0  0  0  0  0  0  0  0  0  0  0  0
   14.7628  -15.9972   16.9956 C   0  0  0  0  0  0  0  0  0  0  0  0
   13.9701  -15.8172   18.2682 C   0  0  0  0  0  0  0  0  0  0  0  0
   12.7920  -14.8998   18.0975 C   0  0  0  0  0  0  0  0  0  0  0  0
   12.0702  -14.8183   19.4288 C   0  0  2  0  0  0  0  0  0  0  0  0
   10.9129  -13.9764   19.3983 N   0  0  0  0  0  0  0  0  0  0  0  0
   13.0768  -14.2642   20.3944 C   0  0  0  0  0  0  0  0  0  0  0  0
   14.1813  -13.8190   19.9743 O   0  0  0  0  0  0  0  0  0  0  0  0
   16.1413  -12.5674   15.8845 N   0  0  0  0  0  0  0  0  0  0  0  0
   10.4900  -18.5977   23.5504 C   0  0  0  0  0  0  0  0  0  0  0  0
   11.5344  -18.1802   24.4681 O   0  0  0  0  0  0  0  0  0  0  0  0
   11.4659  -18.6749   25.5974 C   0  0  0  0  0  0  0  0  0  0  0  0
   12.5619  -17.2512   24.0581 C   0  0  0  0  0  0  0  0  0  0  0  0
   12.2173  -16.0840   23.2333 C   0  0  1  0  0  0  0  0  0  0  0  0
   13.3239  -15.2228   22.7279 N   0  0  0  0  0  0  0  0  0  0  0  0
   12.8215  -14.2241   21.7880 C   0  0  0  0  0  0  0  0  0  0  0  0
   14.5244  -15.8793   22.2320 O   0  0  0  0  0  0  0  0  0  0  0  0
   15.3923  -15.3121   21.3168 O   0  0  0  0  0  0  0  0  0  0  0  0
  1  2  1  0
  2  3  1  0
  3  5  1  0
  3  4  1  1
  5 15  1  0
  6  5  2  0
  8  7  1  0
  8 10  1  0
  9  8  2  0
 11 10  1  0
 12 11  1  0
 13 12  1  0
 14 13  1  6
 15 14  1  0
 16 14  1  0
 16 24  1  0
 17 16  2  0
 18 19  1  0
 19 21  1  0
 20 19  2  0
 21 22  1  0
 23 24  1  0
 23 22  1  1
 25 23  1  0
 26 25  1  0
 27 25  2  0
M  END
$$$$
