SRQ.pdb
     RDKit          3D

 27 26  0  0  1  0  0  0  0  0999 V2000
   17.0020  -16.6229   16.0587 O   0  0  0  0  0  0  0  0  0  0  0  0
   16.6105  -16.0259   17.2537 C   0  0  0  0  0  0  0  0  0  0  0  0
   15.6956  -14.8554   16.9653 C   0  0  2  0  0  0  0  0  0  0  0  0
   16.4445  -13.7270   16.5068 N   0  0  0  0  0  0  0  0  0  0  0  0
   14.8840  -14.4926   18.1560 C   0  0  0  0  0  0  0  0  0  0  0  0
   15.3554  -13.7434   19.0531 O   0  0  0  0  0  0  0  0  0  0  0  0
    6.3505  -13.3193   19.6526 N   0  0  0  0  0  0  0  0  0  0  0  0
    7.4117  -13.3012   18.7069 C   0  0  0  0  0  0  0  0  0  0  0  0
    7.1834  -13.0259   17.4669 N   0  0  0  0  0  0  0  0  0  0  0  0
    8.7603  -13.5786   19.0570 N   0  0  0  0  0  0  0  0  0  0  0  0
    9.1264  -14.0087   20.3673 C   0  0  0  0  0  0  0  0  0  0  0  0
   10.6058  -14.2600   20.5371 C   0  0  0  0  0  0  0  0  0  0  0  0
   11.2894  -14.6159   19.2468 C   0  0  0  0  0  0  0  0  0  0  0  0
   12.7832  -14.6482   19.5063 C   0  0  2  0  0  0  0  0  0  0  0  0
   13.5564  -14.9627   18.3434 N   0  0  0  0  0  0  0  0  0  0  0  0
   12.9831  -15.7067   20.5514 C   0  0  0  0  0  0  0  0  0  0  0  0
   12.7214  -16.9141   20.2903 O   0  0  0  0  0  0  0  0  0  0  0  0
    7.9789  -13.0671   16.7968 N   0  0  0  0  0  0  0  0  0  0  0  0
   17.3991  -14.4053   22.9965 C   0  0  0  0  0  0  0  0  0  0  0  0
   17.3278  -15.6275   22.2166 O   0  0  0  0  0  0  0  0  0  0  0  0
   18.2456  -15.7839   21.4054 C   0  0  0  0  0  0  0  0  0  0  0  0
   16.2477  -16.5690   22.4001 C   0  0  0  0  0  0  0  0  0  0  0  0
   15.1615  -16.2736   23.3458 C   0  0  2  0  0  0  0  0  0  0  0  0
   13.7548  -16.3903   22.8671 N   0  0  0  0  0  0  0  0  0  0  0  0
   13.4655  -15.3875   21.8454 C   0  0  0  0  0  0  0  0  0  0  0  0
   12.7002  -16.4662   23.8671 O   0  0  0  0  0  0  0  0  0  0  0  0
   11.5530  -15.6944   23.8392 O   0  0  0  0  0  0  0  0  0  0  0  0
  1  2  1  0
  2  3  1  0
  3  5  1  0
  3  4  1  1
  5 15  1  0
  6  5  2  0
  8  7  1  0
  8 10  1  0
  9  8  2  0
 11 10  1  0
 12 11  1  0
 13 12  1  0
 14 13  1  6
 15 14  1  0
 16 14  1  0
 16 24  1  0
 17 16  2  0
 18 19  1  0
 19 21  1  0
 20 19  2  0
 21 22  1  0
 23 24  1  0
 23 22  1  6
 25 23  1  0
 26 25  1  0
 27 25  2  0
M  END
$$$$
