SRQ.pdb
     RDKit          3D

 27 26  0  0  1  0  0  0  0  0999 V2000
   11.7227  -13.1704   18.0729 O   0  0  0  0  0  0  0  0  0  0  0  0
   10.8170  -13.3186   19.1197 C   0  0  0  0  0  0  0  0  0  0  0  0
    9.4272  -13.5456   18.5656 C   0  0  2  0  0  0  0  0  0  0  0  0
    8.8937  -12.3357   18.0218 N   0  0  0  0  0  0  0  0  0  0  0  0
    8.5133  -14.0996   19.5980 C   0  0  0  0  0  0  0  0  0  0  0  0
    7.9353  -13.3402   20.4212 O   0  0  0  0  0  0  0  0  0  0  0  0
    2.3768  -19.7664   21.5421 N   0  0  0  0  0  0  0  0  0  0  0  0
    3.3661  -20.0235   22.5301 C   0  0  0  0  0  0  0  0  0  0  0  0
    3.0306  -20.4439   23.7032 N   0  0  0  0  0  0  0  0  0  0  0  0
    4.7550  -19.8386   22.2957 N   0  0  0  0  0  0  0  0  0  0  0  0
    5.2421  -19.1827   21.1259 C   0  0  0  0  0  0  0  0  0  0  0  0
    5.8629  -17.8328   21.3958 C   0  0  0  0  0  0  0  0  0  0  0  0
    6.8427  -17.4181   20.3343 C   0  0  0  0  0  0  0  0  0  0  0  0
    7.3389  -16.0269   20.6785 C   0  0  2  0  0  0  0  0  0  0  0  0
    8.2469  -15.4906   19.7105 N   0  0  0  0  0  0  0  0  0  0  0  0
    8.0316  -16.1673   22.0025 C   0  0  0  0  0  0  0  0  0  0  0  0
    9.1771  -16.6947   22.0669 O   0  0  0  0  0  0  0  0  0  0  0  0
    3.7802  -20.5790   24.4129 N   0  0  0  0  0  0  0  0  0  0  0  0
    6.4379  -12.3890   27.0290 C   0  0  0  0  0  0  0  0  0  0  0  0
    7.5171  -13.2397   27.4967 O   0  0  0  0  0  0  0  0  0  0  0  0
    7.9016  -13.0105   28.6475 C   0  0  0  0  0  0  0  0  0  0  0  0
    8.0782  -14.2677   26.6511 C   0  0  0  0  0  0  0  0  0  0  0  0
    7.5301  -14.5007   25.3070 C   0  0  1  0  0  0  0  0  0  0  0  0
    8.1598  -15.5516   24.4581 N   0  0  0  0  0  0  0  0  0  0  0  0
    7.4293  -15.7178   23.2043 C   0  0  0  0  0  0  0  0  0  0  0  0
    8.4713  -16.8307   25.0784 O   0  0  0  0  0  0  0  0  0  0  0  0
    9.6950  -17.1357   25.6460 O   0  0  0  0  0  0  0  0  0  0  0  0
  1  2  1  0
  2  3  1  0
  3  5  1  0
  3  4  1  1
  5 15  1  0
  6  5  2  0
  8  7  1  0
  8 10  1  0
  9  8  2  0
 11 10  1  0
 12 11  1  0
 13 12  1  0
 14 13  1  6
 15 14  1  0
 16 14  1  0
 16 24  1  0
 17 16  2  0
 18 19  1  0
 19 21  1  0
 20 19  2  0
 21 22  1  0
 23 24  1  0
 23 22  1  6
 25 23  1  0
 26 25  1  0
 27 25  2  0
M  END
$$$$
