SRQ.pdb
     RDKit          3D

 27 26  0  0  1  0  0  0  0  0999 V2000
   10.2495  -13.3447   17.9050 O   0  0  0  0  0  0  0  0  0  0  0  0
    9.8140  -13.2577   19.2244 C   0  0  0  0  0  0  0  0  0  0  0  0
    8.3988  -13.7829   19.3317 C   0  0  2  0  0  0  0  0  0  0  0  0
    7.4696  -12.8583   18.7606 N   0  0  0  0  0  0  0  0  0  0  0  0
    8.0350  -14.0831   20.7409 C   0  0  0  0  0  0  0  0  0  0  0  0
    7.4773  -13.2126   21.4617 O   0  0  0  0  0  0  0  0  0  0  0  0
    4.6016  -21.4440   23.4696 N   0  0  0  0  0  0  0  0  0  0  0  0
    6.0105  -21.4934   23.6531 C   0  0  0  0  0  0  0  0  0  0  0  0
    6.5942  -22.5998   23.9704 N   0  0  0  0  0  0  0  0  0  0  0  0
    6.8472  -20.3552   23.5028 N   0  0  0  0  0  0  0  0  0  0  0  0
    6.3129  -19.0450   23.3186 C   0  0  0  0  0  0  0  0  0  0  0  0
    7.3644  -17.9723   23.1637 C   0  0  0  0  0  0  0  0  0  0  0  0
    6.7841  -16.6334   22.8043 C   0  0  0  0  0  0  0  0  0  0  0  0
    7.9296  -15.6458   22.6922 C   0  0  2  0  0  0  0  0  0  0  0  0
    8.2919  -15.3452   21.3404 N   0  0  0  0  0  0  0  0  0  0  0  0
    9.0854  -16.2948   23.3962 C   0  0  0  0  0  0  0  0  0  0  0  0
    9.4037  -17.4869   23.1280 O   0  0  0  0  0  0  0  0  0  0  0  0
    7.6314  -22.6038   24.0588 N   0  0  0  0  0  0  0  0  0  0  0  0
   10.1628  -13.2544   29.0144 C   0  0  0  0  0  0  0  0  0  0  0  0
    9.0003  -13.8920   28.4234 O   0  0  0  0  0  0  0  0  0  0  0  0
    8.0474  -14.0557   29.1915 C   0  0  0  0  0  0  0  0  0  0  0  0
    8.9932  -14.2946   27.0361 C   0  0  0  0  0  0  0  0  0  0  0  0
    9.0893  -15.7173   26.6782 C   0  0  2  0  0  0  0  0  0  0  0  0
   10.1333  -16.1318   25.6985 N   0  0  0  0  0  0  0  0  0  0  0  0
    9.8444  -15.5984   24.3699 C   0  0  0  0  0  0  0  0  0  0  0  0
   10.5002  -17.5393   25.6503 O   0  0  0  0  0  0  0  0  0  0  0  0
    9.7102  -18.5241   25.0859 O   0  0  0  0  0  0  0  0  0  0  0  0
  1  2  1  0
  2  3  1  0
  3  5  1  0
  3  4  1  1
  5 15  1  0
  6  5  2  0
  8  7  1  0
  8 10  1  0
  9  8  2  0
 11 10  1  0
 12 11  1  0
 13 12  1  0
 14 13  1  6
 15 14  1  0
 16 14  1  0
 16 24  1  0
 17 16  2  0
 18 19  1  0
 19 21  1  0
 20 19  2  0
 21 22  1  0
 23 24  1  0
 23 22  1  1
 25 23  1  0
 26 25  1  0
 27 25  2  0
M  END
$$$$
