SRQ.pdb
     RDKit          3D

 27 26  0  0  1  0  0  0  0  0999 V2000
    5.2623  -21.3844   25.4804 O   0  0  0  0  0  0  0  0  0  0  0  0
    4.1804  -21.0586   24.6672 C   0  0  0  0  0  0  0  0  0  0  0  0
    4.6373  -20.9446   23.2290 C   0  0  2  0  0  0  0  0  0  0  0  0
    5.0300  -22.2212   22.7186 N   0  0  0  0  0  0  0  0  0  0  0  0
    5.7443  -19.9637   23.0856 C   0  0  0  0  0  0  0  0  0  0  0  0
    6.9381  -20.3029   23.3052 O   0  0  0  0  0  0  0  0  0  0  0  0
    6.9744  -12.2581   18.5266 N   0  0  0  0  0  0  0  0  0  0  0  0
    8.1761  -12.6593   19.1713 C   0  0  0  0  0  0  0  0  0  0  0  0
    9.2648  -11.9847   19.0125 N   0  0  0  0  0  0  0  0  0  0  0  0
    8.2548  -13.8017   20.0121 N   0  0  0  0  0  0  0  0  0  0  0  0
    7.0914  -14.5203   20.4195 C   0  0  0  0  0  0  0  0  0  0  0  0
    7.3760  -15.6500   21.3803 C   0  0  0  0  0  0  0  0  0  0  0  0
    6.1441  -16.4290   21.7470 C   0  0  0  0  0  0  0  0  0  0  0  0
    6.5885  -17.6941   22.4554 C   0  0  2  0  0  0  0  0  0  0  0  0
    5.5201  -18.6148   22.7002 N   0  0  0  0  0  0  0  0  0  0  0  0
    7.1737  -17.2360   23.7594 C   0  0  0  0  0  0  0  0  0  0  0  0
    6.4251  -16.7649   24.6605 O   0  0  0  0  0  0  0  0  0  0  0  0
   10.1509  -12.3803   19.3892 N   0  0  0  0  0  0  0  0  0  0  0  0
    9.5810  -20.2937   28.1102 C   0  0  0  0  0  0  0  0  0  0  0  0
    9.8805  -18.9319   28.5135 O   0  0  0  0  0  0  0  0  0  0  0  0
   10.2875  -18.8079   29.6728 C   0  0  0  0  0  0  0  0  0  0  0  0
    9.7021  -17.8260   27.6014 C   0  0  0  0  0  0  0  0  0  0  0  0
    9.1769  -18.0605   26.2484 C   0  0  2  0  0  0  0  0  0  0  0  0
    9.1755  -16.9249   25.2830 N   0  0  0  0  0  0  0  0  0  0  0  0
    8.5655  -17.3174   24.0153 C   0  0  0  0  0  0  0  0  0  0  0  0
   10.4216  -16.1997   25.0841 O   0  0  0  0  0  0  0  0  0  0  0  0
   10.5926  -14.8613   25.3874 O   0  0  0  0  0  0  0  0  0  0  0  0
  1  2  1  0
  2  3  1  0
  3  5  1  0
  3  4  1  1
  5 15  1  0
  6  5  2  0
  8  7  1  0
  8 10  1  0
  9  8  2  0
 11 10  1  0
 12 11  1  0
 13 12  1  0
 14 13  1  1
 15 14  1  0
 16 14  1  0
 16 24  1  0
 17 16  2  0
 18 19  1  0
 19 21  1  0
 20 19  2  0
 21 22  1  0
 23 24  1  0
 23 22  1  1
 25 23  1  0
 26 25  1  0
 27 25  2  0
M  END
$$$$
