SRQ.pdb
     RDKit          3D

 27 26  0  0  1  0  0  0  0  0999 V2000
   10.6425  -13.2394   18.0680 O   0  0  0  0  0  0  0  0  0  0  0  0
   10.1761  -13.3790   19.3722 C   0  0  0  0  0  0  0  0  0  0  0  0
    8.6764  -13.5809   19.3605 C   0  0  2  0  0  0  0  0  0  0  0  0
    8.0012  -12.3529   19.0769 N   0  0  0  0  0  0  0  0  0  0  0  0
    8.1944  -14.1557   20.6432 C   0  0  0  0  0  0  0  0  0  0  0  0
    7.9205  -13.4094   21.6211 O   0  0  0  0  0  0  0  0  0  0  0  0
    7.5535  -21.3021   25.4723 N   0  0  0  0  0  0  0  0  0  0  0  0
    6.6281  -20.2269   25.5657 C   0  0  0  0  0  0  0  0  0  0  0  0
    6.5968  -19.4749   26.6140 N   0  0  0  0  0  0  0  0  0  0  0  0
    5.6997  -19.9181   24.5357 N   0  0  0  0  0  0  0  0  0  0  0  0
    6.1209  -19.4441   23.2575 C   0  0  0  0  0  0  0  0  0  0  0  0
    6.6822  -18.0423   23.2799 C   0  0  0  0  0  0  0  0  0  0  0  0
    6.9567  -17.5012   21.9049 C   0  0  0  0  0  0  0  0  0  0  0  0
    7.5443  -16.1119   22.0616 C   0  0  2  0  0  0  0  0  0  0  0  0
    8.0196  -15.5529   20.8325 N   0  0  0  0  0  0  0  0  0  0  0  0
    8.6852  -16.2680   23.0241 C   0  0  0  0  0  0  0  0  0  0  0  0
    9.8106  -16.6688   22.6150 O   0  0  0  0  0  0  0  0  0  0  0  0
    5.9610  -18.6507   26.6123 N   0  0  0  0  0  0  0  0  0  0  0  0
   10.3593  -12.9235   29.0288 C   0  0  0  0  0  0  0  0  0  0  0  0
   10.0249  -14.3218   28.8288 O   0  0  0  0  0  0  0  0  0  0  0  0
    9.4587  -14.8651   29.7823 C   0  0  0  0  0  0  0  0  0  0  0  0
   10.3470  -14.9978   27.5935 C   0  0  0  0  0  0  0  0  0  0  0  0
    9.3441  -15.1011   26.5235 C   0  0  1  0  0  0  0  0  0  0  0  0
    9.6480  -15.9679   25.3497 N   0  0  0  0  0  0  0  0  0  0  0  0
    8.5361  -15.9741   24.4027 C   0  0  0  0  0  0  0  0  0  0  0  0
   10.1495  -17.3097   25.6067 O   0  0  0  0  0  0  0  0  0  0  0  0
   11.4917  -17.6243   25.7164 O   0  0  0  0  0  0  0  0  0  0  0  0
  1  2  1  0
  2  3  1  0
  3  5  1  0
  3  4  1  1
  5 15  1  0
  6  5  2  0
  8  7  1  0
  8 10  1  0
  9  8  2  0
 11 10  1  0
 12 11  1  0
 13 12  1  0
 14 13  1  6
 15 14  1  0
 16 14  1  0
 16 24  1  0
 17 16  2  0
 18 19  1  0
 19 21  1  0
 20 19  2  0
 21 22  1  0
 23 24  1  0
 23 22  1  6
 25 23  1  0
 26 25  1  0
 27 25  2  0
M  END
$$$$
