VVV.pdb
     RDKit          3D

 22 21  0  0  1  0  0  0  0  0999 V2000
   24.6885  -21.0478   -8.9640 C   0  0  0  0  0  0  0  0  0  0  0  0
   23.3819  -20.3622   -9.1903 C   0  0  2  0  0  0  0  0  0  0  0  0
   22.3369  -21.0239   -8.3165 C   0  0  0  0  0  0  0  0  0  0  0  0
   22.8982  -20.4371  -10.6118 C   0  0  2  0  0  0  0  0  0  0  0  0
   22.5488  -21.7873  -10.9573 N   0  0  0  0  0  0  0  0  0  0  0  0
   23.8993  -19.9473  -11.5875 C   0  0  0  0  0  0  0  0  0  0  0  0
   24.2574  -18.7516  -11.5901 O   0  0  0  0  0  0  0  0  0  0  0  0
   27.3595  -21.2427  -12.1169 C   0  0  0  0  0  0  0  0  0  0  0  0
   26.6799  -21.2621  -13.4477 C   0  0  2  0  0  0  0  0  0  0  0  0
   27.6567  -20.7910  -14.5240 C   0  0  0  0  0  0  0  0  0  0  0  0
   25.4931  -20.3230  -13.5154 C   0  0  2  0  0  0  0  0  0  0  0  0
   24.5010  -20.8000  -12.5632 N   0  0  0  0  0  0  0  0  0  0  0  0
   24.9232  -20.2798  -14.8972 C   0  0  0  0  0  0  0  0  0  0  0  0
   24.4306  -21.3576  -15.3699 O   0  0  0  0  0  0  0  0  0  0  0  0
   22.2510  -17.8442  -16.1168 C   0  0  0  0  0  0  0  0  0  0  0  0
   23.3869  -17.8400  -17.1172 C   0  0  1  0  0  0  0  0  0  0  0  0
   24.1460  -16.5594  -17.0738 C   0  0  0  0  0  0  0  0  0  0  0  0
   24.2588  -19.0604  -16.9336 C   0  0  2  0  0  0  0  0  0  0  0  0
   24.9203  -19.0926  -15.6721 N   0  0  0  0  0  0  0  0  0  0  0  0
   25.2179  -19.1852  -18.0459 C   0  0  0  0  0  0  0  0  0  0  0  0
   24.7652  -19.5747  -19.2879 O   0  0  0  0  0  0  0  0  0  0  0  0
   26.4296  -18.9423  -17.8729 O   0  0  0  0  0  0  0  0  0  0  0  0
  2  1  1  6
  2  3  1  0
  4  2  1  0
  4  5  1  6
  6  4  1  0
  6  7  2  0
  9  8  1  1
  9 11  1  0
 10  9  1  0
 11 13  1  0
 11 12  1  1
 12  6  1  0
 13 19  1  0
 14 13  2  0
 16 17  1  1
 16 15  1  0
 16 18  1  0
 18 20  1  0
 18 19  1  1
 20 22  2  0
 20 21  1  0
M  END
$$$$
