VVV.pdb
     RDKit          3D

 22 21  0  0  1  0  0  0  0  0999 V2000
   24.2662  -13.6288  -15.8139 C   0  0  0  0  0  0  0  0  0  0  0  0
   23.6463  -12.3967  -16.3849 C   0  0  2  0  0  0  0  0  0  0  0  0
   24.0562  -11.2152  -15.5309 C   0  0  0  0  0  0  0  0  0  0  0  0
   22.1436  -12.4345  -16.4156 C   0  0  2  0  0  0  0  0  0  0  0  0
   21.6811  -13.4967  -17.2656 N   0  0  0  0  0  0  0  0  0  0  0  0
   21.5450  -11.1636  -16.8850 C   0  0  0  0  0  0  0  0  0  0  0  0
   21.6438  -10.8132  -18.0790 O   0  0  0  0  0  0  0  0  0  0  0  0
   18.2339   -9.5569  -15.1205 C   0  0  0  0  0  0  0  0  0  0  0  0
   18.7704   -9.1448  -16.4530 C   0  0  2  0  0  0  0  0  0  0  0  0
   18.4286  -10.2127  -17.4908 C   0  0  0  0  0  0  0  0  0  0  0  0
   20.2796   -9.0141  -16.4642 C   0  0  2  0  0  0  0  0  0  0  0  0
   20.8335  -10.2826  -16.0139 N   0  0  0  0  0  0  0  0  0  0  0  0
   20.7265   -7.8963  -15.5770 C   0  0  0  0  0  0  0  0  0  0  0  0
   20.9138   -8.1573  -14.3423 O   0  0  0  0  0  0  0  0  0  0  0  0
   23.8562   -5.9092  -16.1591 C   0  0  0  0  0  0  0  0  0  0  0  0
   22.7346   -4.9212  -15.9202 C   0  0  1  0  0  0  0  0  0  0  0  0
   22.3640   -4.2050  -17.1722 C   0  0  0  0  0  0  0  0  0  0  0  0
   21.5637   -5.6014  -15.2495 C   0  0  2  0  0  0  0  0  0  0  0  0
   20.9405   -6.5847  -16.0708 N   0  0  0  0  0  0  0  0  0  0  0  0
   20.5885   -4.6046  -14.7719 C   0  0  0  0  0  0  0  0  0  0  0  0
   20.9528   -3.7277  -13.7729 O   0  0  0  0  0  0  0  0  0  0  0  0
   19.4423   -4.5487  -15.2619 O   0  0  0  0  0  0  0  0  0  0  0  0
  2  1  1  1
  2  3  1  0
  4  2  1  0
  4  5  1  6
  6  4  1  0
  6  7  2  0
  9  8  1  1
  9 11  1  0
 10  9  1  0
 11 13  1  0
 11 12  1  1
 12  6  1  0
 13 19  1  0
 14 13  2  0
 16 17  1  6
 16 15  1  0
 16 18  1  0
 18 20  1  0
 18 19  1  6
 20 22  2  0
 20 21  1  0
M  END
$$$$
