VVV.pdb
     RDKit          3D

 22 21  0  0  1  0  0  0  0  0999 V2000
   25.0077  -21.0671   -9.3663 C   0  0  0  0  0  0  0  0  0  0  0  0
   25.6873  -20.8754  -10.6815 C   0  0  2  0  0  0  0  0  0  0  0  0
   26.0253  -19.4073  -10.8358 C   0  0  0  0  0  0  0  0  0  0  0  0
   24.8444  -21.2732  -11.8612 C   0  0  2  0  0  0  0  0  0  0  0  0
   24.4986  -22.6660  -11.7897 N   0  0  0  0  0  0  0  0  0  0  0  0
   25.5141  -21.0222  -13.1583 C   0  0  0  0  0  0  0  0  0  0  0  0
   26.6716  -21.4379  -13.3710 O   0  0  0  0  0  0  0  0  0  0  0  0
   23.4617  -20.9007  -16.5943 C   0  0  0  0  0  0  0  0  0  0  0  0
   24.9511  -20.9934  -16.5145 C   0  0  2  0  0  0  0  0  0  0  0  0
   25.3498  -22.4005  -16.0726 C   0  0  0  0  0  0  0  0  0  0  0  0
   25.5450  -20.0464  -15.4919 C   0  0  2  0  0  0  0  0  0  0  0  0
   24.8847  -20.3031  -14.2204 N   0  0  0  0  0  0  0  0  0  0  0  0
   25.3570  -18.6226  -15.9085 C   0  0  0  0  0  0  0  0  0  0  0  0
   24.2627  -18.0502  -15.5882 O   0  0  0  0  0  0  0  0  0  0  0  0
   27.4840  -14.4377  -17.1125 C   0  0  0  0  0  0  0  0  0  0  0  0
   27.1514  -15.6323  -16.2446 C   0  0  1  0  0  0  0  0  0  0  0  0
   26.7082  -15.2121  -14.8863 C   0  0  0  0  0  0  0  0  0  0  0  0
   26.1636  -16.5367  -16.9444 C   0  0  2  0  0  0  0  0  0  0  0  0
   26.3479  -17.9151  -16.6347 N   0  0  0  0  0  0  0  0  0  0  0  0
   26.1892  -16.3056  -18.3999 C   0  0  0  0  0  0  0  0  0  0  0  0
   25.6556  -15.1411  -18.9087 O   0  0  0  0  0  0  0  0  0  0  0  0
   26.6874  -17.1509  -19.1708 O   0  0  0  0  0  0  0  0  0  0  0  0
  2  1  1  1
  2  3  1  0
  4  2  1  0
  4  5  1  1
  6  4  1  0
  6  7  2  0
  9  8  1  1
  9 11  1  0
 10  9  1  0
 11 13  1  0
 11 12  1  1
 12  6  1  0
 13 19  1  0
 14 13  2  0
 16 17  1  1
 16 15  1  0
 16 18  1  0
 18 20  1  0
 18 19  1  6
 20 22  2  0
 20 21  1  0
M  END
$$$$
