VVV.pdb
     RDKit          3D

 22 21  0  0  1  0  0  0  0  0999 V2000
   15.7271  -13.7150  -17.1583 C   0  0  0  0  0  0  0  0  0  0  0  0
   17.1012  -14.2167  -16.8608 C   0  0  2  0  0  0  0  0  0  0  0  0
   16.9802  -15.5208  -16.1005 C   0  0  0  0  0  0  0  0  0  0  0  0
   17.9195  -13.2760  -16.0206 C   0  0  2  0  0  0  0  0  0  0  0  0
   17.2668  -13.0190  -14.7666 N   0  0  0  0  0  0  0  0  0  0  0  0
   18.1757  -11.9800  -16.6904 C   0  0  0  0  0  0  0  0  0  0  0  0
   18.8168  -11.9290  -17.7601 O   0  0  0  0  0  0  0  0  0  0  0  0
   15.6702   -8.7987  -16.2254 C   0  0  0  0  0  0  0  0  0  0  0  0
   16.7273   -8.8609  -17.2799 C   0  0  2  0  0  0  0  0  0  0  0  0
   16.2578   -9.7666  -18.4173 C   0  0  0  0  0  0  0  0  0  0  0  0
   18.0260   -9.4563  -16.7759 C   0  0  2  0  0  0  0  0  0  0  0  0
   17.7119  -10.7371  -16.1599 N   0  0  0  0  0  0  0  0  0  0  0  0
   18.6870   -8.5437  -15.7928 C   0  0  0  0  0  0  0  0  0  0  0  0
   18.3237   -8.6228  -14.5724 O   0  0  0  0  0  0  0  0  0  0  0  0
   21.7944   -5.8052  -16.9548 C   0  0  0  0  0  0  0  0  0  0  0  0
   21.7980   -6.5097  -15.6152 C   0  0  1  0  0  0  0  0  0  0  0  0
   22.5382   -5.7243  -14.5889 C   0  0  0  0  0  0  0  0  0  0  0  0
   20.3890   -6.8628  -15.1988 C   0  0  2  0  0  0  0  0  0  0  0  0
   19.6852   -7.6155  -16.1827 N   0  0  0  0  0  0  0  0  0  0  0  0
   19.6424   -5.6515  -14.8142 C   0  0  0  0  0  0  0  0  0  0  0  0
   19.8323   -5.1101  -13.5611 O   0  0  0  0  0  0  0  0  0  0  0  0
   18.8444   -5.1153  -15.6095 O   0  0  0  0  0  0  0  0  0  0  0  0
  2  1  1  1
  2  3  1  0
  4  2  1  0
  4  5  1  1
  6  4  1  0
  6  7  2  0
  9  8  1  1
  9 11  1  0
 10  9  1  0
 11 13  1  0
 11 12  1  1
 12  6  1  0
 13 19  1  0
 14 13  2  0
 16 17  1  1
 16 15  1  0
 16 18  1  0
 18 20  1  0
 18 19  1  6
 20 22  2  0
 20 21  1  0
M  END
$$$$
