VVV.pdb
     RDKit          3D

 22 21  0  0  1  0  0  0  0  0999 V2000
   28.3170  -19.6140  -17.4747 C   0  0  0  0  0  0  0  0  0  0  0  0
   27.1873  -20.0492  -16.6014 C   0  0  2  0  0  0  0  0  0  0  0  0
   26.4271  -18.8183  -16.1536 C   0  0  0  0  0  0  0  0  0  0  0  0
   27.6267  -20.7852  -15.3662 C   0  0  2  0  0  0  0  0  0  0  0  0
   28.3646  -21.9672  -15.7167 N   0  0  0  0  0  0  0  0  0  0  0  0
   26.4939  -21.1799  -14.4973 C   0  0  0  0  0  0  0  0  0  0  0  0
   25.7257  -22.1057  -14.8298 O   0  0  0  0  0  0  0  0  0  0  0  0
   26.7526  -21.1671  -10.4296 C   0  0  0  0  0  0  0  0  0  0  0  0
   25.5193  -20.5110  -10.9604 C   0  0  2  0  0  0  0  0  0  0  0  0
   24.3291  -20.8732  -10.0736 C   0  0  0  0  0  0  0  0  0  0  0  0
   25.1610  -20.9756  -12.3571 C   0  0  2  0  0  0  0  0  0  0  0  0
   26.2212  -20.5350  -13.2518 N   0  0  0  0  0  0  0  0  0  0  0  0
   23.8412  -20.4174  -12.7846 C   0  0  0  0  0  0  0  0  0  0  0  0
   23.6974  -19.1499  -12.7616 O   0  0  0  0  0  0  0  0  0  0  0  0
   21.4711  -22.3888  -15.5284 C   0  0  0  0  0  0  0  0  0  0  0  0
   21.4104  -20.9096  -15.2130 C   0  0  1  0  0  0  0  0  0  0  0  0
   20.1805  -20.2836  -15.7727 C   0  0  0  0  0  0  0  0  0  0  0  0
   21.5796  -20.6771  -13.7295 C   0  0  2  0  0  0  0  0  0  0  0  0
   22.7736  -21.2504  -13.2044 N   0  0  0  0  0  0  0  0  0  0  0  0
   20.3913  -21.1427  -12.9923 C   0  0  0  0  0  0  0  0  0  0  0  0
   19.2226  -20.4159  -13.0659 O   0  0  0  0  0  0  0  0  0  0  0  0
   20.4346  -22.1839  -12.3059 O   0  0  0  0  0  0  0  0  0  0  0  0
  2  1  1  1
  2  3  1  0
  4  2  1  0
  4  5  1  6
  6  4  1  0
  6  7  2  0
  9  8  1  1
  9 11  1  0
 10  9  1  0
 11 13  1  0
 11 12  1  6
 12  6  1  0
 13 19  1  0
 14 13  2  0
 16 17  1  1
 16 15  1  0
 16 18  1  0
 18 20  1  0
 18 19  1  1
 20 22  2  0
 20 21  1  0
M  END
$$$$
