MSN.pdb
     RDKit          3D

 23 22  0  0  1  0  0  0  0  0999 V2000
   26.7342  -19.0867   -7.3654 C   0  0  0  0  0  0  0  0  0  0  0  0
   28.0135  -20.2461   -7.9083 S   0  0  0  0  0  0  0  0  0  0  0  0
   27.6784  -20.6830   -9.6376 C   0  0  0  0  0  0  0  0  0  0  0  0
   26.3610  -21.4580   -9.6503 C   0  0  0  0  0  0  0  0  0  0  0  0
   26.1000  -21.8087  -11.1066 C   0  0  2  0  0  0  0  0  0  0  0  0
   27.3139  -21.6657  -11.8951 N   0  0  0  0  0  0  0  0  0  0  0  0
   25.1309  -20.7932  -11.6144 C   0  0  0  0  0  0  0  0  0  0  0  0
   24.1266  -20.4166  -10.9354 O   0  0  0  0  0  0  0  0  0  0  0  0
   25.5402  -19.8976  -15.3863 O   0  0  0  0  0  0  0  0  0  0  0  0
   24.9610  -18.7783  -14.7751 C   0  0  0  0  0  0  0  0  0  0  0  0
   24.3101  -19.3054  -13.4890 C   0  0  2  0  0  0  0  0  0  0  0  0
   25.2898  -20.1962  -12.8925 N   0  0  0  0  0  0  0  0  0  0  0  0
   23.0395  -19.9830  -13.7677 C   0  0  0  0  0  0  0  0  0  0  0  0
   23.0354  -21.2446  -13.7288 O   0  0  0  0  0  0  0  0  0  0  0  0
   20.2280  -22.8732  -14.6691 N   0  0  0  0  0  0  0  0  0  0  0  0
   20.0563  -22.3144  -13.3892 C   0  0  0  0  0  0  0  0  0  0  0  0
   19.7813  -23.0287  -12.3695 O   0  0  0  0  0  0  0  0  0  0  0  0
   20.1867  -20.8800  -13.1713 C   0  0  0  0  0  0  0  0  0  0  0  0
   20.6216  -20.0582  -14.3286 C   0  0  2  0  0  0  0  0  0  0  0  0
   21.8319  -19.3255  -14.0737 N   0  0  0  0  0  0  0  0  0  0  0  0
   19.5655  -19.1702  -14.8709 C   0  0  0  0  0  0  0  0  0  0  0  0
   18.6305  -19.6921  -15.5092 O   0  0  0  0  0  0  0  0  0  0  0  0
   19.5574  -17.8063  -14.7113 O   0  0  0  0  0  0  0  0  0  0  0  0
  2  1  1  0
  3  2  1  0
  4  5  1  0
  4  3  1  0
  5  7  1  0
  5  6  1  6
  7  8  2  0
  9 10  1  0
 11 10  1  6
 11 13  1  0
 12  7  1  0
 12 11  1  0
 13 20  1  0
 14 13  2  0
 16 15  1  0
 17 16  2  0
 18 16  1  0
 19 18  1  1
 20 19  1  0
 21 23  1  0
 21 19  1  0
 22 21  2  0
M  END
$$$$
