MSN.pdb
     RDKit          3D

 23 22  0  0  1  0  0  0  0  0999 V2000
   28.7164  -13.0112  -15.3165 C   0  0  0  0  0  0  0  0  0  0  0  0
   27.3054  -11.8786  -15.3582 S   0  0  0  0  0  0  0  0  0  0  0  0
   27.0689  -11.3388  -17.0747 C   0  0  0  0  0  0  0  0  0  0  0  0
   25.9896  -10.2569  -17.0531 C   0  0  0  0  0  0  0  0  0  0  0  0
   24.7020  -10.9631  -16.6585 C   0  0  2  0  0  0  0  0  0  0  0  0
   24.3509  -11.9776  -17.6400 N   0  0  0  0  0  0  0  0  0  0  0  0
   23.6271   -9.9282  -16.7010 C   0  0  0  0  0  0  0  0  0  0  0  0
   23.5466   -9.0736  -17.6363 O   0  0  0  0  0  0  0  0  0  0  0  0
   21.2958   -9.2884  -13.3860 O   0  0  0  0  0  0  0  0  0  0  0  0
   20.5914   -9.3119  -14.5964 C   0  0  0  0  0  0  0  0  0  0  0  0
   21.5921   -8.8425  -15.6613 C   0  0  2  0  0  0  0  0  0  0  0  0
   22.6361   -9.8518  -15.6877 N   0  0  0  0  0  0  0  0  0  0  0  0
   22.1169   -7.5075  -15.3553 C   0  0  0  0  0  0  0  0  0  0  0  0
   23.3610   -7.4030  -15.1700 O   0  0  0  0  0  0  0  0  0  0  0  0
   24.6762   -3.2445  -17.0927 N   0  0  0  0  0  0  0  0  0  0  0  0
   23.4790   -3.4597  -16.3854 C   0  0  0  0  0  0  0  0  0  0  0  0
   22.8732   -2.5174  -15.7765 O   0  0  0  0  0  0  0  0  0  0  0  0
   22.8730   -4.7826  -16.3174 C   0  0  0  0  0  0  0  0  0  0  0  0
   21.9297   -5.0363  -15.1995 C   0  0  2  0  0  0  0  0  0  0  0  0
   21.3316   -6.3424  -15.2549 N   0  0  0  0  0  0  0  0  0  0  0  0
   20.8985   -3.9851  -15.0276 C   0  0  0  0  0  0  0  0  0  0  0  0
   21.0316   -3.1809  -14.0843 O   0  0  0  0  0  0  0  0  0  0  0  0
   19.8053   -3.8457  -15.8468 O   0  0  0  0  0  0  0  0  0  0  0  0
  2  1  1  0
  3  2  1  0
  4  5  1  0
  4  3  1  0
  5  7  1  0
  5  6  1  6
  7  8  2  0
  9 10  1  0
 11 10  1  1
 11 13  1  0
 12  7  1  0
 12 11  1  0
 13 20  1  0
 14 13  2  0
 16 15  1  0
 17 16  2  0
 18 16  1  0
 19 18  1  6
 20 19  1  0
 21 23  1  0
 21 19  1  0
 22 21  2  0
M  END
$$$$
