MSN.pdb
     RDKit          3D

 23 22  0  0  1  0  0  0  0  0999 V2000
   27.2143  -16.0712  -14.4691 C   0  0  0  0  0  0  0  0  0  0  0  0
   25.7093  -16.7633  -15.1981 S   0  0  0  0  0  0  0  0  0  0  0  0
   25.7447  -16.4302  -16.9818 C   0  0  0  0  0  0  0  0  0  0  0  0
   25.7357  -14.9109  -17.1479 C   0  0  0  0  0  0  0  0  0  0  0  0
   24.2708  -14.5031  -17.1573 C   0  0  2  0  0  0  0  0  0  0  0  0
   23.5310  -15.2679  -18.1490 N   0  0  0  0  0  0  0  0  0  0  0  0
   24.2363  -13.0766  -17.5957 C   0  0  0  0  0  0  0  0  0  0  0  0
   24.8508  -12.1602  -16.9679 O   0  0  0  0  0  0  0  0  0  0  0  0
   21.4495  -11.9083  -20.3444 O   0  0  0  0  0  0  0  0  0  0  0  0
   22.7155  -11.3472  -20.5545 C   0  0  0  0  0  0  0  0  0  0  0  0
   23.3740  -11.2929  -19.1692 C   0  0  2  0  0  0  0  0  0  0  0  0
   23.5077  -12.6757  -18.7460 N   0  0  0  0  0  0  0  0  0  0  0  0
   22.5800  -10.4974  -18.2269 C   0  0  0  0  0  0  0  0  0  0  0  0
   21.6559  -11.0900  -17.6040 O   0  0  0  0  0  0  0  0  0  0  0  0
   20.6897   -6.9680  -14.9117 N   0  0  0  0  0  0  0  0  0  0  0  0
   21.5136   -8.0615  -14.5870 C   0  0  0  0  0  0  0  0  0  0  0  0
   21.6907   -8.4423  -13.3831 O   0  0  0  0  0  0  0  0  0  0  0  0
   22.2074   -8.8142  -15.6233 C   0  0  0  0  0  0  0  0  0  0  0  0
   21.9589   -8.4118  -17.0306 C   0  0  2  0  0  0  0  0  0  0  0  0
   22.7777   -9.1263  -17.9718 N   0  0  0  0  0  0  0  0  0  0  0  0
   22.0318   -6.9495  -17.2636 C   0  0  0  0  0  0  0  0  0  0  0  0
   23.0854   -6.4826  -17.7390 O   0  0  0  0  0  0  0  0  0  0  0  0
   21.0063   -6.0793  -16.9861 O   0  0  0  0  0  0  0  0  0  0  0  0
  2  1  1  0
  3  2  1  0
  4  5  1  0
  4  3  1  0
  5  7  1  0
  5  6  1  6
  7  8  2  0
  9 10  1  0
 11 10  1  6
 11 13  1  0
 12  7  1  0
 12 11  1  0
 13 20  1  0
 14 13  2  0
 16 15  1  0
 17 16  2  0
 18 16  1  0
 19 18  1  1
 20 19  1  0
 21 23  1  0
 21 19  1  0
 22 21  2  0
M  END
$$$$
