MSN.pdb
     RDKit          3D

 23 22  0  0  1  0  0  0  0  0999 V2000
   26.2595  -18.2982  -15.9219 C   0  0  0  0  0  0  0  0  0  0  0  0
   27.4299  -19.2663  -14.9377 S   0  0  0  0  0  0  0  0  0  0  0  0
   26.5616  -20.7333  -14.3152 C   0  0  0  0  0  0  0  0  0  0  0  0
   25.3416  -20.2307  -13.5439 C   0  0  0  0  0  0  0  0  0  0  0  0
   24.6512  -21.4733  -13.0039 C   0  0  2  0  0  0  0  0  0  0  0  0
   24.2518  -22.3527  -14.0915 N   0  0  0  0  0  0  0  0  0  0  0  0
   23.3975  -21.0022  -12.3445 C   0  0  0  0  0  0  0  0  0  0  0  0
   23.4075  -20.1643  -11.3910 O   0  0  0  0  0  0  0  0  0  0  0  0
   20.3339  -21.0576  -14.4227 O   0  0  0  0  0  0  0  0  0  0  0  0
   20.1043  -20.3187  -13.2552 C   0  0  0  0  0  0  0  0  0  0  0  0
   20.8755  -21.0514  -12.1488 C   0  0  2  0  0  0  0  0  0  0  0  0
   22.1242  -21.4744  -12.7579 N   0  0  0  0  0  0  0  0  0  0  0  0
   20.1069  -22.1806  -11.6146 C   0  0  0  0  0  0  0  0  0  0  0  0
   20.2041  -23.2846  -12.2187 O   0  0  0  0  0  0  0  0  0  0  0  0
   19.7773  -24.8996   -8.2050 N   0  0  0  0  0  0  0  0  0  0  0  0
   18.8312  -23.9659   -7.7436 C   0  0  0  0  0  0  0  0  0  0  0  0
   18.6304  -23.7625   -6.5011 O   0  0  0  0  0  0  0  0  0  0  0  0
   18.0313  -23.1826   -8.6756 C   0  0  0  0  0  0  0  0  0  0  0  0
   18.4313  -23.2194  -10.1048 C   0  0  2  0  0  0  0  0  0  0  0  0
   19.2737  -22.1168  -10.4807 N   0  0  0  0  0  0  0  0  0  0  0  0
   17.2963  -23.3680  -11.0471 C   0  0  0  0  0  0  0  0  0  0  0  0
   16.6954  -24.4599  -11.0746 O   0  0  0  0  0  0  0  0  0  0  0  0
   16.8685  -22.3731  -11.8913 O   0  0  0  0  0  0  0  0  0  0  0  0
  2  1  1  0
  3  2  1  0
  4  5  1  0
  4  3  1  0
  5  7  1  0
  5  6  1  6
  7  8  2  0
  9 10  1  0
 11 10  1  6
 11 13  1  0
 12  7  1  0
 12 11  1  0
 13 20  1  0
 14 13  2  0
 16 15  1  0
 17 16  2  0
 18 16  1  0
 19 18  1  1
 20 19  1  0
 21 23  1  0
 21 19  1  0
 22 21  2  0
M  END
$$$$
