MSN.pdb
     RDKit          3D

 23 22  0  0  1  0  0  0  0  0999 V2000
   27.5706  -18.8634   -6.8304 C   0  0  0  0  0  0  0  0  0  0  0  0
   28.8737  -19.9137   -6.1415 S   0  0  0  0  0  0  0  0  0  0  0  0
   29.8744  -20.5433   -7.5183 C   0  0  0  0  0  0  0  0  0  0  0  0
   29.1251  -20.1957   -8.8044 C   0  0  0  0  0  0  0  0  0  0  0  0
   28.6766  -21.5231   -9.3950 C   0  0  2  0  0  0  0  0  0  0  0  0
   29.8056  -22.2372   -9.9703 N   0  0  0  0  0  0  0  0  0  0  0  0
   27.7550  -21.1899  -10.5211 C   0  0  0  0  0  0  0  0  0  0  0  0
   28.1782  -20.9432  -11.6922 O   0  0  0  0  0  0  0  0  0  0  0  0
   23.8973  -20.4052   -9.9068 O   0  0  0  0  0  0  0  0  0  0  0  0
   24.0345  -21.5810  -10.6554 C   0  0  0  0  0  0  0  0  0  0  0  0
   25.3866  -21.4552  -11.3707 C   0  0  2  0  0  0  0  0  0  0  0  0
   26.3493  -21.1335  -10.3319 N   0  0  0  0  0  0  0  0  0  0  0  0
   25.3449  -20.4364  -12.4249 C   0  0  0  0  0  0  0  0  0  0  0  0
   25.7534  -19.2795  -12.1285 O   0  0  0  0  0  0  0  0  0  0  0  0
   24.5069  -17.7253  -16.8401 N   0  0  0  0  0  0  0  0  0  0  0  0
   25.4963  -18.7234  -16.9084 C   0  0  0  0  0  0  0  0  0  0  0  0
   26.2942  -18.8197  -17.8982 O   0  0  0  0  0  0  0  0  0  0  0  0
   25.6538  -19.7006  -15.8397 C   0  0  0  0  0  0  0  0  0  0  0  0
   24.7391  -19.5820  -14.6764 C   0  0  2  0  0  0  0  0  0  0  0  0
   24.8830  -20.6603  -13.7366 N   0  0  0  0  0  0  0  0  0  0  0  0
   23.3167  -19.3813  -15.0432 C   0  0  0  0  0  0  0  0  0  0  0  0
   22.5381  -20.3476  -14.9250 O   0  0  0  0  0  0  0  0  0  0  0  0
   22.8071  -18.1930  -15.5058 O   0  0  0  0  0  0  0  0  0  0  0  0
  2  1  1  0
  3  2  1  0
  4  5  1  0
  4  3  1  0
  5  7  1  0
  5  6  1  6
  7  8  2  0
  9 10  1  0
 11 10  1  1
 11 13  1  0
 12  7  1  0
 12 11  1  0
 13 20  1  0
 14 13  2  0
 16 15  1  0
 17 16  2  0
 18 16  1  0
 19 18  1  6
 20 19  1  0
 21 23  1  0
 21 19  1  0
 22 21  2  0
M  END
$$$$
