MSN.pdb
     RDKit          3D

 23 22  0  0  1  0  0  0  0  0999 V2000
   12.7382  -15.7999  -17.4723 C   0  0  0  0  0  0  0  0  0  0  0  0
   13.5512  -14.6475  -16.3380 S   0  0  0  0  0  0  0  0  0  0  0  0
   15.3361  -14.7070  -16.6606 C   0  0  0  0  0  0  0  0  0  0  0  0
   15.9696  -13.5766  -15.8500 C   0  0  0  0  0  0  0  0  0  0  0  0
   17.4584  -13.6317  -16.1544 C   0  0  2  0  0  0  0  0  0  0  0  0
   18.0673  -14.7970  -15.5323 N   0  0  0  0  0  0  0  0  0  0  0  0
   18.0625  -12.4295  -15.5077 C   0  0  0  0  0  0  0  0  0  0  0  0
   18.2362  -12.3511  -14.2527 O   0  0  0  0  0  0  0  0  0  0  0  0
   20.1541   -9.8947  -17.6772 O   0  0  0  0  0  0  0  0  0  0  0  0
   20.3278   -9.8155  -16.2896 C   0  0  0  0  0  0  0  0  0  0  0  0
   18.9374  -10.0624  -15.6884 C   0  0  2  0  0  0  0  0  0  0  0  0
   18.4745  -11.3081  -16.2743 N   0  0  0  0  0  0  0  0  0  0  0  0
   18.0264   -8.9463  -15.9633 C   0  0  0  0  0  0  0  0  0  0  0  0
   17.2721   -9.0491  -16.9701 O   0  0  0  0  0  0  0  0  0  0  0  0
   15.4346   -4.3843  -15.9801 N   0  0  0  0  0  0  0  0  0  0  0  0
   15.2739   -5.1388  -14.8034 C   0  0  0  0  0  0  0  0  0  0  0  0
   14.4110   -4.8339  -13.9156 O   0  0  0  0  0  0  0  0  0  0  0  0
   16.0953   -6.3138  -14.5454 C   0  0  0  0  0  0  0  0  0  0  0  0
   17.0994   -6.6752  -15.5775 C   0  0  2  0  0  0  0  0  0  0  0  0
   17.9369   -7.7758  -15.1850 N   0  0  0  0  0  0  0  0  0  0  0  0
   17.9123   -5.5319  -16.0572 C   0  0  0  0  0  0  0  0  0  0  0  0
   19.0880   -5.4373  -15.6538 O   0  0  0  0  0  0  0  0  0  0  0  0
   17.4454   -4.5709  -16.9200 O   0  0  0  0  0  0  0  0  0  0  0  0
  2  1  1  0
  3  2  1  0
  4  5  1  0
  4  3  1  0
  5  7  1  0
  5  6  1  1
  7  8  2  0
  9 10  1  0
 11 10  1  6
 11 13  1  0
 12  7  1  0
 12 11  1  0
 13 20  1  0
 14 13  2  0
 16 15  1  0
 17 16  2  0
 18 16  1  0
 19 18  1  1
 20 19  1  0
 21 23  1  0
 21 19  1  0
 22 21  2  0
M  END
$$$$
