MSN.pdb
     RDKit          3D

 23 22  0  0  1  0  0  0  0  0999 V2000
   27.2680  -12.7229  -15.1985 C   0  0  0  0  0  0  0  0  0  0  0  0
   27.8142  -13.5855  -16.6929 S   0  0  0  0  0  0  0  0  0  0  0  0
   29.5244  -14.1335  -16.4318 C   0  0  0  0  0  0  0  0  0  0  0  0
   30.4230  -12.9326  -16.7256 C   0  0  0  0  0  0  0  0  0  0  0  0
   30.3018  -12.6794  -18.2201 C   0  0  2  0  0  0  0  0  0  0  0  0
   31.0343  -13.6857  -18.9728 N   0  0  0  0  0  0  0  0  0  0  0  0
   30.9725  -11.3711  -18.4786 C   0  0  0  0  0  0  0  0  0  0  0  0
   32.2350  -11.2601  -18.5522 O   0  0  0  0  0  0  0  0  0  0  0  0
   30.3207   -6.8941  -20.0804 O   0  0  0  0  0  0  0  0  0  0  0  0
   29.7191   -8.0994  -19.6968 C   0  0  0  0  0  0  0  0  0  0  0  0
   30.8188   -8.8963  -18.9818 C   0  0  2  0  0  0  0  0  0  0  0  0
   30.2217  -10.1795  -18.6558 N   0  0  0  0  0  0  0  0  0  0  0  0
   31.3066   -8.1916  -17.7916 C   0  0  0  0  0  0  0  0  0  0  0  0
   30.6605   -8.3508  -16.7190 O   0  0  0  0  0  0  0  0  0  0  0  0
   35.7454   -6.7820  -14.2672 N   0  0  0  0  0  0  0  0  0  0  0  0
   34.3793   -6.7173  -14.5982 C   0  0  0  0  0  0  0  0  0  0  0  0
   33.5383   -6.0801  -13.8824 O   0  0  0  0  0  0  0  0  0  0  0  0
   33.8610   -7.3826  -15.7858 C   0  0  0  0  0  0  0  0  0  0  0  0
   32.8299   -6.6575  -16.5700 C   0  0  2  0  0  0  0  0  0  0  0  0
   32.4395   -7.3550  -17.7649 N   0  0  0  0  0  0  0  0  0  0  0  0
   33.1761   -5.2465  -16.8658 C   0  0  0  0  0  0  0  0  0  0  0  0
   33.6660   -4.9839  -17.9817 O   0  0  0  0  0  0  0  0  0  0  0  0
   32.9888   -4.2122  -15.9822 O   0  0  0  0  0  0  0  0  0  0  0  0
  2  1  1  0
  3  2  1  0
  4  5  1  0
  4  3  1  0
  5  7  1  0
  5  6  1  6
  7  8  2  0
  9 10  1  0
 11 10  1  1
 11 13  1  0
 12  7  1  0
 12 11  1  0
 13 20  1  0
 14 13  2  0
 16 15  1  0
 17 16  2  0
 18 16  1  0
 19 18  1  6
 20 19  1  0
 21 23  1  0
 21 19  1  0
 22 21  2  0
M  END
$$$$
