PAN.pdb
     RDKit          3D

 21 21  0  0  1  0  0  0  0  0999 V2000
   20.3933  -13.3383  -17.7843 N   0  0  0  0  0  0  0  0  0  0  0  0
   20.1497  -14.7469  -18.0077 C   0  0  0  0  0  0  0  0  0  0  0  0
   19.2291  -14.8739  -19.2023 C   0  0  0  0  0  0  0  0  0  0  0  0
   18.7060  -13.4341  -19.3449 C   0  0  0  0  0  0  0  0  0  0  0  0
   19.9591  -12.6923  -18.9757 C   0  0  1  0  0  0  0  0  0  0  0  0
   19.8249  -11.2439  -18.8770 C   0  0  0  0  0  0  0  0  0  0  0  0
   20.1796  -10.5334  -19.8553 O   0  0  0  0  0  0  0  0  0  0  0  0
   17.6998   -8.7795  -17.8437 C   0  0  0  0  0  0  0  0  0  0  0  0
   19.1674   -9.1179  -17.6941 C   0  0  2  0  0  0  0  0  0  0  0  0
   19.3182  -10.5480  -17.7491 N   0  0  0  0  0  0  0  0  0  0  0  0
   19.7206   -8.5642  -16.4059 C   0  0  0  0  0  0  0  0  0  0  0  0
   19.7293   -9.2385  -15.3561 O   0  0  0  0  0  0  0  0  0  0  0  0
   21.9731   -5.0408  -13.1962 N   0  0  0  0  0  0  0  0  0  0  0  0
   22.3326   -4.7741  -14.5427 C   0  0  0  0  0  0  0  0  0  0  0  0
   23.2140   -3.9063  -14.7597 O   0  0  0  0  0  0  0  0  0  0  0  0
   21.7105   -5.4762  -15.6808 C   0  0  0  0  0  0  0  0  0  0  0  0
   20.8087   -6.6131  -15.2008 C   0  0  2  0  0  0  0  0  0  0  0  0
   20.2469   -7.2479  -16.3728 N   0  0  0  0  0  0  0  0  0  0  0  0
   19.7917   -6.0610  -14.3029 C   0  0  0  0  0  0  0  0  0  0  0  0
   18.7567   -5.5466  -14.7905 O   0  0  0  0  0  0  0  0  0  0  0  0
   19.9104   -6.0752  -12.9261 O   0  0  0  0  0  0  0  0  0  0  0  0
  2  1  1  0
  3  4  1  0
  3  2  1  0
  4  5  1  0
  5  1  1  0
  6 10  1  0
  5  6  1  1
  7  6  2  0
  9  8  1  1
  9 10  1  0
  9 11  1  0
 11 12  2  0
 11 18  1  0
 14 13  1  0
 14 16  1  0
 15 14  2  0
 17 16  1  6
 17 19  1  0
 18 17  1  0
 19 21  1  0
 20 19  2  0
M  END
$$$$
