PAN.pdb
     RDKit          3D

 21 21  0  0  1  0  0  0  0  0999 V2000
   19.6402  -13.2238  -17.6200 N   0  0  0  0  0  0  0  0  0  0  0  0
   19.7048  -14.6395  -17.9113 C   0  0  0  0  0  0  0  0  0  0  0  0
   20.9374  -14.8830  -18.7551 C   0  0  0  0  0  0  0  0  0  0  0  0
   21.2938  -13.4547  -19.2024 C   0  0  0  0  0  0  0  0  0  0  0  0
   20.9304  -12.7182  -17.9445 C   0  0  1  0  0  0  0  0  0  0  0  0
   21.0212  -11.2650  -18.0197 C   0  0  0  0  0  0  0  0  0  0  0  0
   22.1574  -10.7238  -17.9571 O   0  0  0  0  0  0  0  0  0  0  0  0
   18.8655   -8.4090  -19.0220 C   0  0  0  0  0  0  0  0  0  0  0  0
   20.0387   -8.9543  -18.2364 C   0  0  2  0  0  0  0  0  0  0  0  0
   19.9162  -10.3861  -18.1603 N   0  0  0  0  0  0  0  0  0  0  0  0
   20.0985   -8.3419  -16.8604 C   0  0  0  0  0  0  0  0  0  0  0  0
   19.5015   -8.8538  -15.8917 O   0  0  0  0  0  0  0  0  0  0  0  0
   22.6872   -5.0628  -13.1076 N   0  0  0  0  0  0  0  0  0  0  0  0
   22.1227   -4.5640  -14.3100 C   0  0  0  0  0  0  0  0  0  0  0  0
   21.7018   -3.3809  -14.3206 O   0  0  0  0  0  0  0  0  0  0  0  0
   22.0165   -5.3824  -15.5324 C   0  0  0  0  0  0  0  0  0  0  0  0
   20.9260   -6.4441  -15.3920 C   0  0  2  0  0  0  0  0  0  0  0  0
   20.8476   -7.1568  -16.6482 N   0  0  0  0  0  0  0  0  0  0  0  0
   19.6703   -5.7844  -15.0261 C   0  0  0  0  0  0  0  0  0  0  0  0
   19.3083   -5.7774  -13.8250 O   0  0  0  0  0  0  0  0  0  0  0  0
   18.8487   -5.1593  -15.9447 O   0  0  0  0  0  0  0  0  0  0  0  0
  2  1  1  0
  3  4  1  0
  3  2  1  0
  4  5  1  0
  5  1  1  0
  6 10  1  0
  5  6  1  6
  7  6  2  0
  9  8  1  1
  9 10  1  0
  9 11  1  0
 11 12  2  0
 11 18  1  0
 14 13  1  0
 14 16  1  0
 15 14  2  0
 17 16  1  6
 17 19  1  0
 18 17  1  0
 19 21  1  0
 20 19  2  0
M  END
$$$$
