PAN.pdb
     RDKit          3D

 21 21  0  0  1  0  0  0  0  0999 V2000
   23.5933  -11.8462  -15.8531 N   0  0  0  0  0  0  0  0  0  0  0  0
   24.7416  -12.7263  -15.8503 C   0  0  0  0  0  0  0  0  0  0  0  0
   25.0093  -13.1429  -17.2804 C   0  0  0  0  0  0  0  0  0  0  0  0
   23.6986  -12.7320  -17.9734 C   0  0  0  0  0  0  0  0  0  0  0  0
   23.4190  -11.4665  -17.2136 C   0  0  1  0  0  0  0  0  0  0  0  0
   22.1466  -10.8218  -17.5148 C   0  0  0  0  0  0  0  0  0  0  0  0
   22.0380  -10.1627  -18.5833 O   0  0  0  0  0  0  0  0  0  0  0  0
   18.6108  -11.0833  -16.4952 C   0  0  0  0  0  0  0  0  0  0  0  0
   19.7468  -10.2319  -17.0200 C   0  0  2  0  0  0  0  0  0  0  0  0
   20.9926  -10.8725  -16.6907 N   0  0  0  0  0  0  0  0  0  0  0  0
   19.6863   -8.8387  -16.4478 C   0  0  0  0  0  0  0  0  0  0  0  0
   18.6810   -8.1150  -16.5972 O   0  0  0  0  0  0  0  0  0  0  0  0
   23.0989   -4.6395  -14.3886 N   0  0  0  0  0  0  0  0  0  0  0  0
   22.2874   -5.5844  -13.7087 C   0  0  0  0  0  0  0  0  0  0  0  0
   21.7469   -5.2339  -12.6306 O   0  0  0  0  0  0  0  0  0  0  0  0
   22.0623   -6.9482  -14.2230 C   0  0  0  0  0  0  0  0  0  0  0  0
   20.8765   -6.9852  -15.1866 C   0  0  2  0  0  0  0  0  0  0  0  0
   20.7905   -8.3268  -15.7203 N   0  0  0  0  0  0  0  0  0  0  0  0
   21.0772   -5.9670  -16.2204 C   0  0  0  0  0  0  0  0  0  0  0  0
   20.4933   -4.8618  -16.1147 O   0  0  0  0  0  0  0  0  0  0  0  0
   21.8870   -6.1589  -17.3237 O   0  0  0  0  0  0  0  0  0  0  0  0
  2  1  1  0
  3  4  1  0
  3  2  1  0
  4  5  1  0
  5  1  1  0
  6 10  1  0
  5  6  1  1
  7  6  2  0
  9  8  1  1
  9 10  1  0
  9 11  1  0
 11 12  2  0
 11 18  1  0
 14 13  1  0
 14 16  1  0
 15 14  2  0
 17 16  1  1
 17 19  1  0
 18 17  1  0
 19 21  1  0
 20 19  2  0
M  END
$$$$
