PAN.pdb
     RDKit          3D

 21 21  0  0  1  0  0  0  0  0999 V2000
   27.2878  -19.3549  -17.9256 N   0  0  0  0  0  0  0  0  0  0  0  0
   28.4843  -19.1240  -18.7055 C   0  0  0  0  0  0  0  0  0  0  0  0
   29.3411  -18.1272  -17.9552 C   0  0  0  0  0  0  0  0  0  0  0  0
   28.3396  -17.5678  -16.9299 C   0  0  0  0  0  0  0  0  0  0  0  0
   27.5775  -18.8285  -16.6355 C   0  0  1  0  0  0  0  0  0  0  0  0
   26.4220  -18.6733  -15.7601 C   0  0  0  0  0  0  0  0  0  0  0  0
   26.6112  -18.3514  -14.5566 O   0  0  0  0  0  0  0  0  0  0  0  0
   22.7596  -18.2193  -16.0902 C   0  0  0  0  0  0  0  0  0  0  0  0
   23.9496  -18.6723  -15.2718 C   0  0  2  0  0  0  0  0  0  0  0  0
   25.0714  -18.8576  -16.1538 N   0  0  0  0  0  0  0  0  0  0  0  0
   23.6363  -19.9406  -14.5199 C   0  0  0  0  0  0  0  0  0  0  0  0
   23.5405  -21.0389  -15.1042 O   0  0  0  0  0  0  0  0  0  0  0  0
   26.0281  -19.9561  -10.1711 N   0  0  0  0  0  0  0  0  0  0  0  0
   25.2216  -20.8248  -10.9511 C   0  0  0  0  0  0  0  0  0  0  0  0
   25.7960  -21.6512  -11.7022 O   0  0  0  0  0  0  0  0  0  0  0  0
   23.7479  -20.7873  -10.9070 C   0  0  0  0  0  0  0  0  0  0  0  0
   23.1482  -21.0477  -12.2886 C   0  0  2  0  0  0  0  0  0  0  0  0
   23.4444  -19.8986  -13.1156 N   0  0  0  0  0  0  0  0  0  0  0  0
   21.7120  -21.2942  -12.1402 C   0  0  0  0  0  0  0  0  0  0  0  0
   20.9014  -20.3717  -12.3963 O   0  0  0  0  0  0  0  0  0  0  0  0
   21.1914  -22.5058  -11.7269 O   0  0  0  0  0  0  0  0  0  0  0  0
  2  1  1  0
  3  4  1  0
  3  2  1  0
  4  5  1  0
  5  1  1  0
  6 10  1  0
  5  6  1  6
  7  6  2  0
  9  8  1  6
  9 10  1  0
  9 11  1  0
 11 12  2  0
 11 18  1  0
 14 13  1  0
 14 16  1  0
 15 14  2  0
 17 16  1  1
 17 19  1  0
 18 17  1  0
 19 21  1  0
 20 19  2  0
M  END
$$$$
