PAN.pdb
     RDKit          3D

 21 21  0  0  1  0  0  0  0  0999 V2000
   16.2715  -11.0104  -10.2329 N   0  0  0  0  0  0  0  0  0  0  0  0
   15.6924  -12.3164  -10.4617 C   0  0  0  0  0  0  0  0  0  0  0  0
   14.3949  -12.1220  -11.2163 C   0  0  0  0  0  0  0  0  0  0  0  0
   14.1488  -10.6152  -11.0264 C   0  0  0  0  0  0  0  0  0  0  0  0
   15.5696  -10.1341  -11.1075 C   0  0  1  0  0  0  0  0  0  0  0  0
   15.7671   -8.7137  -10.8447 C   0  0  0  0  0  0  0  0  0  0  0  0
   15.8083   -7.9161  -11.8193 O   0  0  0  0  0  0  0  0  0  0  0  0
   15.6540   -6.4244   -7.8988 C   0  0  0  0  0  0  0  0  0  0  0  0
   16.0595   -6.7238   -9.3260 C   0  0  2  0  0  0  0  0  0  0  0  0
   15.9208   -8.1373   -9.5573 N   0  0  0  0  0  0  0  0  0  0  0  0
   17.4708   -6.2670   -9.5934 C   0  0  0  0  0  0  0  0  0  0  0  0
   18.4143   -6.5899   -8.8436 O   0  0  0  0  0  0  0  0  0  0  0  0
   21.6161   -5.1318  -12.4034 N   0  0  0  0  0  0  0  0  0  0  0  0
   21.0087   -6.4020  -12.2273 C   0  0  0  0  0  0  0  0  0  0  0  0
   21.6442   -7.4192  -12.5995 O   0  0  0  0  0  0  0  0  0  0  0  0
   19.6706   -6.5620  -11.6280 C   0  0  0  0  0  0  0  0  0  0  0  0
   19.0662   -5.2075  -11.2592 C   0  0  2  0  0  0  0  0  0  0  0  0
   17.7463   -5.4516  -10.7203 N   0  0  0  0  0  0  0  0  0  0  0  0
   19.0520   -4.3571  -12.4518 C   0  0  0  0  0  0  0  0  0  0  0  0
   18.1585   -4.5270  -13.3159 O   0  0  0  0  0  0  0  0  0  0  0  0
   19.9829   -3.3622  -12.6824 O   0  0  0  0  0  0  0  0  0  0  0  0
  2  1  1  0
  3  4  1  0
  3  2  1  0
  4  5  1  0
  5  1  1  0
  6 10  1  0
  5  6  1  1
  7  6  2  0
  9  8  1  1
  9 10  1  0
  9 11  1  0
 11 12  2  0
 11 18  1  0
 14 13  1  0
 14 16  1  0
 15 14  2  0
 17 16  1  6
 17 19  1  0
 18 17  1  0
 19 21  1  0
 20 19  2  0
M  END
$$$$
