PAN.pdb
     RDKit          3D

 21 21  0  0  1  0  0  0  0  0999 V2000
   13.4917   -7.9055   -9.7627 N   0  0  0  0  0  0  0  0  0  0  0  0
   12.4731   -8.0998   -8.7537 C   0  0  0  0  0  0  0  0  0  0  0  0
   13.1623   -8.5293   -7.4765 C   0  0  0  0  0  0  0  0  0  0  0  0
   14.5592   -8.9157   -7.9930 C   0  0  0  0  0  0  0  0  0  0  0  0
   14.7204   -7.8565   -9.0461 C   0  0  1  0  0  0  0  0  0  0  0  0
   15.9184   -7.9676   -9.8696 C   0  0  0  0  0  0  0  0  0  0  0  0
   17.0441   -7.7969   -9.3297 O   0  0  0  0  0  0  0  0  0  0  0  0
   17.0513   -9.5213  -12.9605 C   0  0  0  0  0  0  0  0  0  0  0  0
   17.1248   -8.3103  -12.0556 C   0  0  2  0  0  0  0  0  0  0  0  0
   15.9279   -8.2577  -11.2585 N   0  0  0  0  0  0  0  0  0  0  0  0
   17.2970   -7.0462  -12.8583 C   0  0  0  0  0  0  0  0  0  0  0  0
   18.3070   -6.8546  -13.5655 O   0  0  0  0  0  0  0  0  0  0  0  0
   16.3174   -4.0260  -16.2120 N   0  0  0  0  0  0  0  0  0  0  0  0
   15.0785   -4.0934  -15.5235 C   0  0  0  0  0  0  0  0  0  0  0  0
   14.0347   -3.7869  -16.1509 O   0  0  0  0  0  0  0  0  0  0  0  0
   14.9806   -4.5073  -14.1113 C   0  0  0  0  0  0  0  0  0  0  0  0
   16.3631   -4.7805  -13.5197 C   0  0  2  0  0  0  0  0  0  0  0  0
   16.2950   -6.0437  -12.8183 N   0  0  0  0  0  0  0  0  0  0  0  0
   16.7342   -3.6604  -12.6518 C   0  0  0  0  0  0  0  0  0  0  0  0
   16.2266   -3.5762  -11.5078 O   0  0  0  0  0  0  0  0  0  0  0  0
   17.6267   -2.6749  -13.0289 O   0  0  0  0  0  0  0  0  0  0  0  0
  2  1  1  0
  3  4  1  0
  3  2  1  0
  4  5  1  0
  5  1  1  0
  6 10  1  0
  5  6  1  6
  7  6  2  0
  9  8  1  6
  9 10  1  0
  9 11  1  0
 11 12  2  0
 11 18  1  0
 14 13  1  0
 14 16  1  0
 15 14  2  0
 17 16  1  1
 17 19  1  0
 18 17  1  0
 19 21  1  0
 20 19  2  0
M  END
$$$$
