WNY.pdb
     RDKit          3D

 35 37  0  0  1  0  0  0  0  0999 V2000
    8.6436  -18.9498   21.5763 N   0  0  0  0  0  0  0  0  0  0  0  0
    9.0478  -17.6792   22.1078 C   0  0  1  0  0  0  0  0  0  0  0  0
    7.9868  -17.0225   22.9503 C   0  0  0  0  0  0  0  0  0  0  0  0
    7.2280  -16.0314   22.1710 C   0  0  0  0  0  0  0  0  0  0  0  0
    5.9023  -16.1965   21.7250 C   0  0  0  0  0  0  0  0  0  0  0  0
    5.5229  -15.0906   21.0816 N   0  0  0  0  0  0  0  0  0  0  0  0
    6.5422  -14.2041   21.0840 C   0  0  0  0  0  0  0  0  0  0  0  0
    6.6750  -12.9432   20.5639 C   0  0  0  0  0  0  0  0  0  0  0  0
    7.8455  -12.2478   20.7022 C   0  0  0  0  0  0  0  0  0  0  0  0
    8.9102  -12.8052   21.3667 C   0  0  0  0  0  0  0  0  0  0  0  0
    8.7938  -14.0730   21.8964 C   0  0  0  0  0  0  0  0  0  0  0  0
    7.6058  -14.7754   21.7560 C   0  0  0  0  0  0  0  0  0  0  0  0
   10.2530  -17.8436   22.9615 C   0  0  0  0  0  0  0  0  0  0  0  0
   10.6564  -19.0091   23.2324 O   0  0  0  0  0  0  0  0  0  0  0  0
   13.7767  -16.9590   22.0277 N   0  0  0  0  0  0  0  0  0  0  0  0
   13.8202  -15.7857   22.8074 C   0  0  0  0  0  0  0  0  0  0  0  0
   14.5594  -14.8464   22.4486 O   0  0  0  0  0  0  0  0  0  0  0  0
   13.0132  -15.6641   24.0209 C   0  0  0  0  0  0  0  0  0  0  0  0
   12.1516  -16.8694   24.2968 C   0  0  2  0  0  0  0  0  0  0  0  0
   10.9411  -16.7382   23.4663 N   0  0  0  0  0  0  0  0  0  0  0  0
   11.6680  -16.8407   25.7217 C   0  0  0  0  0  0  0  0  0  0  0  0
   12.4701  -16.7634   26.7042 O   0  0  0  0  0  0  0  0  0  0  0  0
    7.5415  -11.3444   24.9817 O   0  0  0  0  0  0  0  0  0  0  0  0
    7.7309  -12.5806   25.5934 C   0  0  0  0  0  0  0  0  0  0  0  0
    8.7755  -12.7611   26.4735 C   0  0  0  0  0  0  0  0  0  0  0  0
    8.9761  -13.9901   27.0912 C   0  0  0  0  0  0  0  0  0  0  0  0
    8.1519  -15.0685   26.8553 C   0  0  0  0  0  0  0  0  0  0  0  0
    8.3761  -16.3761   27.5222 C   0  0  0  0  0  0  0  0  0  0  0  0
    9.8293  -16.8180   27.4353 C   0  0  2  0  0  0  0  0  0  0  0  0
   10.2934  -16.8974   26.0668 N   0  0  0  0  0  0  0  0  0  0  0  0
    9.8845  -18.1781   28.0154 C   0  0  0  0  0  0  0  0  0  0  0  0
   10.2002  -19.3076   27.2752 O   0  0  0  0  0  0  0  0  0  0  0  0
    7.1098  -14.8803   25.9743 C   0  0  0  0  0  0  0  0  0  0  0  0
    6.9028  -13.6545   25.3528 C   0  0  0  0  0  0  0  0  0  0  0  0
    9.6374  -18.3399   29.2327 O   0  0  0  0  0  0  0  0  0  0  0  0
  2  1  1  1
  3  2  1  0
  4  3  1  0
  4  5  2  0
  6  5  1  0
  7  6  1  0
  8  7  2  0
  9  8  1  0
 10  9  2  0
 10 11  1  0
 11 12  2  0
 12  7  1  0
 12  4  1  0
 13 20  1  0
 13  2  1  0
 14 13  2  0
 16 18  1  0
 16 15  1  0
 17 16  2  0
 19 18  1  1
 19 20  1  0
 21 22  2  0
 21 19  1  0
 23 24  1  0
 24 34  2  0
 24 25  1  0
 25 26  2  0
 26 27  1  0
 27 28  1  0
 29 28  1  6
 29 30  1  0
 30 21  1  0
 31 29  1  0
 31 32  1  0
 33 27  2  0
 34 33  1  0
 35 31  2  0
M  END
$$$$
