WNY.pdb
     RDKit          3D

 35 37  0  0  1  0  0  0  0  0999 V2000
    6.3605  -17.7798   24.1263 N   0  0  0  0  0  0  0  0  0  0  0  0
    7.1257  -16.6236   23.7550 C   0  0  1  0  0  0  0  0  0  0  0  0
    7.8964  -16.0272   24.9027 C   0  0  0  0  0  0  0  0  0  0  0  0
    7.0794  -15.0507   25.6405 C   0  0  0  0  0  0  0  0  0  0  0  0
    5.9957  -15.3735   26.4803 C   0  0  0  0  0  0  0  0  0  0  0  0
    5.5105  -14.2486   27.0096 N   0  0  0  0  0  0  0  0  0  0  0  0
    6.2277  -13.1984   26.5541 C   0  0  0  0  0  0  0  0  0  0  0  0
    6.1405  -11.8494   26.7786 C   0  0  0  0  0  0  0  0  0  0  0  0
    7.0057  -10.9805   26.1711 C   0  0  0  0  0  0  0  0  0  0  0  0
    7.9789  -11.4487   25.3229 C   0  0  0  0  0  0  0  0  0  0  0  0
    8.0810  -12.8033   25.0857 C   0  0  0  0  0  0  0  0  0  0  0  0
    7.2034  -13.6821   25.7037 C   0  0  0  0  0  0  0  0  0  0  0  0
    8.1085  -16.9800   22.6988 C   0  0  0  0  0  0  0  0  0  0  0  0
    8.4064  -18.1948   22.5253 O   0  0  0  0  0  0  0  0  0  0  0  0
    7.6853  -13.8380   19.4579 N   0  0  0  0  0  0  0  0  0  0  0  0
    8.3948  -15.0413   19.2705 C   0  0  0  0  0  0  0  0  0  0  0  0
    7.8795  -15.9485   18.5857 O   0  0  0  0  0  0  0  0  0  0  0  0
    9.7163  -15.2307   19.8673 C   0  0  0  0  0  0  0  0  0  0  0  0
    9.7561  -16.3114   20.9169 C   0  0  2  0  0  0  0  0  0  0  0  0
    8.7043  -16.0005   21.9016 N   0  0  0  0  0  0  0  0  0  0  0  0
   11.0531  -16.2426   21.6772 C   0  0  0  0  0  0  0  0  0  0  0  0
   12.1670  -16.5287   21.1368 O   0  0  0  0  0  0  0  0  0  0  0  0
    9.6683  -16.7274   29.4923 O   0  0  0  0  0  0  0  0  0  0  0  0
   10.2992  -16.2236   28.3581 C   0  0  0  0  0  0  0  0  0  0  0  0
   11.5838  -16.6167   28.0522 C   0  0  0  0  0  0  0  0  0  0  0  0
   12.2256  -16.1215   26.9230 C   0  0  0  0  0  0  0  0  0  0  0  0
   11.6156  -15.2278   26.0701 C   0  0  0  0  0  0  0  0  0  0  0  0
   12.3114  -14.7068   24.8662 C   0  0  0  0  0  0  0  0  0  0  0  0
   12.3780  -15.7425   23.7538 C   0  0  2  0  0  0  0  0  0  0  0  0
   11.1241  -15.8566   23.0402 N   0  0  0  0  0  0  0  0  0  0  0  0
   12.6485  -17.0402   24.4112 C   0  0  0  0  0  0  0  0  0  0  0  0
   13.8736  -17.3662   24.9738 O   0  0  0  0  0  0  0  0  0  0  0  0
   10.3314  -14.8396   26.3825 C   0  0  0  0  0  0  0  0  0  0  0  0
    9.6833  -15.3304   27.5097 C   0  0  0  0  0  0  0  0  0  0  0  0
   11.7407  -17.9009   24.4738 O   0  0  0  0  0  0  0  0  0  0  0  0
  2  1  1  1
  3  2  1  0
  4  3  1  0
  4  5  2  0
  6  5  1  0
  7  6  1  0
  8  7  2  0
  9  8  1  0
 10  9  2  0
 10 11  1  0
 11 12  2  0
 12  7  1  0
 12  4  1  0
 13 20  1  0
 13  2  1  0
 14 13  2  0
 16 18  1  0
 16 15  1  0
 17 16  2  0
 19 18  1  6
 19 20  1  0
 21 22  2  0
 21 19  1  0
 23 24  1  0
 24 34  2  0
 24 25  1  0
 25 26  2  0
 26 27  1  0
 27 28  1  0
 29 28  1  1
 29 30  1  0
 30 21  1  0
 31 29  1  0
 31 32  1  0
 33 27  2  0
 34 33  1  0
 35 31  2  0
M  END
$$$$
