WNY.pdb
     RDKit          3D

 35 37  0  0  1  0  0  0  0  0999 V2000
    6.1487  -17.7011   22.4089 N   0  0  0  0  0  0  0  0  0  0  0  0
    7.1904  -16.7405   22.6379 C   0  0  1  0  0  0  0  0  0  0  0  0
    7.5462  -16.5848   24.0926 C   0  0  0  0  0  0  0  0  0  0  0  0
    6.7530  -15.5170   24.7218 C   0  0  0  0  0  0  0  0  0  0  0  0
    5.6390  -15.7233   25.5587 C   0  0  0  0  0  0  0  0  0  0  0  0
    5.1878  -14.5386   25.9758 N   0  0  0  0  0  0  0  0  0  0  0  0
    5.9564  -13.5605   25.4491 C   0  0  0  0  0  0  0  0  0  0  0  0
    5.9186  -12.1947   25.5534 C   0  0  0  0  0  0  0  0  0  0  0  0
    6.8311  -11.4160   24.8948 C   0  0  0  0  0  0  0  0  0  0  0  0
    7.8031  -11.9936   24.1155 C   0  0  0  0  0  0  0  0  0  0  0  0
    7.8559  -13.3666   23.9995 C   0  0  0  0  0  0  0  0  0  0  0  0
    6.9304  -14.1538   24.6690 C   0  0  0  0  0  0  0  0  0  0  0  0
    8.4265  -17.1478   21.9204 C   0  0  0  0  0  0  0  0  0  0  0  0
    8.6407  -18.3760   21.7198 O   0  0  0  0  0  0  0  0  0  0  0  0
   10.3303  -16.7056   18.5401 N   0  0  0  0  0  0  0  0  0  0  0  0
   10.9221  -15.5255   19.0337 C   0  0  0  0  0  0  0  0  0  0  0  0
   11.0619  -14.5509   18.2669 O   0  0  0  0  0  0  0  0  0  0  0  0
   11.3684  -15.4378   20.4236 C   0  0  0  0  0  0  0  0  0  0  0  0
   10.7831  -16.5031   21.3145 C   0  0  2  0  0  0  0  0  0  0  0  0
    9.3487  -16.2015   21.4688 N   0  0  0  0  0  0  0  0  0  0  0  0
   11.3686  -16.3963   22.6969 C   0  0  0  0  0  0  0  0  0  0  0  0
   12.6124  -16.5381   22.9148 O   0  0  0  0  0  0  0  0  0  0  0  0
   12.0293  -15.9590   31.5338 O   0  0  0  0  0  0  0  0  0  0  0  0
   11.5739  -15.8237   30.2251 C   0  0  0  0  0  0  0  0  0  0  0  0
   10.9789  -16.8911   29.5888 C   0  0  0  0  0  0  0  0  0  0  0  0
   10.5197  -16.7699   28.2824 C   0  0  0  0  0  0  0  0  0  0  0  0
   10.6366  -15.5940   27.5740 C   0  0  0  0  0  0  0  0  0  0  0  0
   10.1412  -15.4768   26.1791 C   0  0  0  0  0  0  0  0  0  0  0  0
   11.1499  -16.0050   25.1701 C   0  0  2  0  0  0  0  0  0  0  0  0
   10.5800  -16.1320   23.8458 N   0  0  0  0  0  0  0  0  0  0  0  0
   11.5315  -17.3572   25.6342 C   0  0  0  0  0  0  0  0  0  0  0  0
   10.9856  -18.5211   25.1141 O   0  0  0  0  0  0  0  0  0  0  0  0
   11.2325  -14.5314   28.2169 C   0  0  0  0  0  0  0  0  0  0  0  0
   11.6940  -14.6450   29.5229 C   0  0  0  0  0  0  0  0  0  0  0  0
   12.3878  -17.4794   26.5401 O   0  0  0  0  0  0  0  0  0  0  0  0
  2  1  1  1
  3  2  1  0
  4  3  1  0
  4  5  2  0
  6  5  1  0
  7  6  1  0
  8  7  2  0
  9  8  1  0
 10  9  2  0
 10 11  1  0
 11 12  2  0
 12  7  1  0
 12  4  1  0
 13 20  1  0
 13  2  1  0
 14 13  2  0
 16 18  1  0
 16 15  1  0
 17 16  2  0
 19 18  1  6
 19 20  1  0
 21 22  2  0
 21 19  1  0
 23 24  1  0
 24 34  2  0
 24 25  1  0
 25 26  2  0
 26 27  1  0
 27 28  1  0
 29 28  1  1
 29 30  1  0
 30 21  1  0
 31 29  1  0
 31 32  1  0
 33 27  2  0
 34 33  1  0
 35 31  2  0
M  END
$$$$
