WNY.pdb
     RDKit          3D

 35 37  0  0  1  0  0  0  0  0999 V2000
    6.7298  -18.6853   25.6396 N   0  0  0  0  0  0  0  0  0  0  0  0
    7.0401  -17.7340   24.6105 C   0  0  1  0  0  0  0  0  0  0  0  0
    7.8560  -16.5690   25.1044 C   0  0  0  0  0  0  0  0  0  0  0  0
    7.0000  -15.5486   25.7301 C   0  0  0  0  0  0  0  0  0  0  0  0
    5.7441  -15.7963   26.3176 C   0  0  0  0  0  0  0  0  0  0  0  0
    5.2675  -14.6530   26.8143 N   0  0  0  0  0  0  0  0  0  0  0  0
    6.1552  -13.6625   26.5785 C   0  0  0  0  0  0  0  0  0  0  0  0
    6.1487  -12.3235   26.8700 C   0  0  0  0  0  0  0  0  0  0  0  0
    7.1949  -11.5213   26.5027 C   0  0  0  0  0  0  0  0  0  0  0  0
    8.2721  -12.0477   25.8332 C   0  0  0  0  0  0  0  0  0  0  0  0
    8.2951  -13.3932   25.5320 C   0  0  0  0  0  0  0  0  0  0  0  0
    7.2339  -14.2045   25.9063 C   0  0  0  0  0  0  0  0  0  0  0  0
    7.8159  -18.3905   23.5262 C   0  0  0  0  0  0  0  0  0  0  0  0
    8.5970  -19.3380   23.8204 O   0  0  0  0  0  0  0  0  0  0  0  0
    5.1628  -18.4465   19.9739 N   0  0  0  0  0  0  0  0  0  0  0  0
    6.3625  -19.1861   19.9932 C   0  0  0  0  0  0  0  0  0  0  0  0
    6.3084  -20.4257   20.1265 O   0  0  0  0  0  0  0  0  0  0  0  0
    7.6557  -18.5164   19.8596 C   0  0  0  0  0  0  0  0  0  0  0  0
    8.4961  -18.5704   21.1093 C   0  0  2  0  0  0  0  0  0  0  0  0
    7.6967  -17.9789   22.1972 N   0  0  0  0  0  0  0  0  0  0  0  0
    9.6978  -17.6766   20.9601 C   0  0  0  0  0  0  0  0  0  0  0  0
   10.5958  -17.8948   20.0880 O   0  0  0  0  0  0  0  0  0  0  0  0
    7.1111  -12.7748   17.5024 O   0  0  0  0  0  0  0  0  0  0  0  0
    8.0049  -13.1213   18.5120 C   0  0  0  0  0  0  0  0  0  0  0  0
    7.5326  -13.5253   19.7416 C   0  0  0  0  0  0  0  0  0  0  0  0
    8.4138  -13.8741   20.7585 C   0  0  0  0  0  0  0  0  0  0  0  0
    9.7801  -13.8325   20.5862 C   0  0  0  0  0  0  0  0  0  0  0  0
   10.7112  -14.2086   21.6801 C   0  0  0  0  0  0  0  0  0  0  0  0
   11.0742  -15.6853   21.6367 C   0  0  2  0  0  0  0  0  0  0  0  0
    9.9118  -16.5362   21.7758 N   0  0  0  0  0  0  0  0  0  0  0  0
   11.9595  -15.9290   22.7970 C   0  0  0  0  0  0  0  0  0  0  0  0
   13.2170  -15.3585   22.9263 O   0  0  0  0  0  0  0  0  0  0  0  0
   10.2447  -13.4276   19.3543 C   0  0  0  0  0  0  0  0  0  0  0  0
    9.3698  -13.0774   18.3327 C   0  0  0  0  0  0  0  0  0  0  0  0
   11.5740  -16.6842   23.7189 O   0  0  0  0  0  0  0  0  0  0  0  0
  2  1  1  1
  3  2  1  0
  4  3  1  0
  4  5  2  0
  6  5  1  0
  7  6  1  0
  8  7  2  0
  9  8  1  0
 10  9  2  0
 10 11  1  0
 11 12  2  0
 12  7  1  0
 12  4  1  0
 13 20  1  0
 13  2  1  0
 14 13  2  0
 16 18  1  0
 16 15  1  0
 17 16  2  0
 19 18  1  6
 19 20  1  0
 21 22  2  0
 21 19  1  0
 23 24  1  0
 24 34  2  0
 24 25  1  0
 25 26  2  0
 26 27  1  0
 27 28  1  0
 29 28  1  1
 29 30  1  0
 30 21  1  0
 31 29  1  0
 31 32  1  0
 33 27  2  0
 34 33  1  0
 35 31  2  0
M  END
$$$$
