WNY.pdb
     RDKit          3D

 35 37  0  0  1  0  0  0  0  0999 V2000
    6.5994  -17.9419   24.6375 N   0  0  0  0  0  0  0  0  0  0  0  0
    7.5274  -16.9111   24.2681 C   0  0  1  0  0  0  0  0  0  0  0  0
    7.9822  -16.0747   25.4344 C   0  0  0  0  0  0  0  0  0  0  0  0
    6.9555  -15.0916   25.8152 C   0  0  0  0  0  0  0  0  0  0  0  0
    5.7400  -15.3993   26.4568 C   0  0  0  0  0  0  0  0  0  0  0  0
    5.0713  -14.2660   26.6797 N   0  0  0  0  0  0  0  0  0  0  0  0
    5.7939  -13.2250   26.2119 C   0  0  0  0  0  0  0  0  0  0  0  0
    5.5634  -11.8745   26.1852 C   0  0  0  0  0  0  0  0  0  0  0  0
    6.4763  -11.0185   25.6315 C   0  0  0  0  0  0  0  0  0  0  0  0
    7.6428  -11.5016   25.0913 C   0  0  0  0  0  0  0  0  0  0  0  0
    7.8910  -12.8579   25.1099 C   0  0  0  0  0  0  0  0  0  0  0  0
    6.9645  -13.7234   25.6728 C   0  0  0  0  0  0  0  0  0  0  0  0
    8.7399  -17.5125   23.6543 C   0  0  0  0  0  0  0  0  0  0  0  0
    9.0289  -18.7126   23.9201 O   0  0  0  0  0  0  0  0  0  0  0  0
   13.0444  -18.2193   20.8414 N   0  0  0  0  0  0  0  0  0  0  0  0
   12.1862  -17.3048   20.1981 C   0  0  0  0  0  0  0  0  0  0  0  0
   12.4392  -16.9571   19.0265 O   0  0  0  0  0  0  0  0  0  0  0  0
   11.0142  -16.7672   20.8880 C   0  0  0  0  0  0  0  0  0  0  0  0
   10.8439  -17.2936   22.2898 C   0  0  2  0  0  0  0  0  0  0  0  0
    9.5595  -16.7770   22.7956 N   0  0  0  0  0  0  0  0  0  0  0  0
   11.8972  -16.7073   23.1909 C   0  0  0  0  0  0  0  0  0  0  0  0
   12.6446  -15.7491   22.8194 O   0  0  0  0  0  0  0  0  0  0  0  0
    7.6344  -14.6534   27.1158 O   0  0  0  0  0  0  0  0  0  0  0  0
    8.9617  -15.0568   26.9977 C   0  0  0  0  0  0  0  0  0  0  0  0
    9.8079  -14.3974   26.1331 C   0  0  0  0  0  0  0  0  0  0  0  0
   11.1353  -14.7897   26.0054 C   0  0  0  0  0  0  0  0  0  0  0  0
   11.6583  -15.8405   26.7268 C   0  0  0  0  0  0  0  0  0  0  0  0
   13.0785  -16.2493   26.5821 C   0  0  0  0  0  0  0  0  0  0  0  0
   13.3498  -16.8984   25.2332 C   0  0  2  0  0  0  0  0  0  0  0  0
   12.1288  -17.1787   24.5083 N   0  0  0  0  0  0  0  0  0  0  0  0
   14.0163  -18.1879   25.5201 C   0  0  0  0  0  0  0  0  0  0  0  0
   15.2301  -18.2846   26.1840 O   0  0  0  0  0  0  0  0  0  0  0  0
   10.8062  -16.4947   27.5890 C   0  0  0  0  0  0  0  0  0  0  0  0
    9.4778  -16.1082   27.7221 C   0  0  0  0  0  0  0  0  0  0  0  0
   13.4752  -19.2566   25.1542 O   0  0  0  0  0  0  0  0  0  0  0  0
  2  1  1  1
  3  2  1  0
  4  3  1  0
  4  5  2  0
  6  5  1  0
  7  6  1  0
  8  7  2  0
  9  8  1  0
 10  9  2  0
 10 11  1  0
 11 12  2  0
 12  7  1  0
 12  4  1  0
 13 20  1  0
 13  2  1  0
 14 13  2  0
 16 18  1  0
 16 15  1  0
 17 16  2  0
 19 18  1  6
 19 20  1  0
 21 22  2  0
 21 19  1  0
 23 24  1  0
 24 34  2  0
 24 25  1  0
 25 26  2  0
 26 27  1  0
 27 28  1  0
 29 28  1  1
 29 30  1  0
 30 21  1  0
 31 29  1  0
 31 32  1  0
 33 27  2  0
 34 33  1  0
 35 31  2  0
M  END
$$$$
