WNY.pdb
     RDKit          3D

 35 37  0  0  1  0  0  0  0  0999 V2000
    7.0553  -16.9283   24.4841 N   0  0  0  0  0  0  0  0  0  0  0  0
    7.2903  -17.5183   23.1968 C   0  0  1  0  0  0  0  0  0  0  0  0
    6.7540  -16.6928   22.0577 C   0  0  0  0  0  0  0  0  0  0  0  0
    7.2449  -15.3074   22.1288 C   0  0  0  0  0  0  0  0  0  0  0  0
    7.7004  -14.5535   21.0297 C   0  0  0  0  0  0  0  0  0  0  0  0
    8.0357  -13.3332   21.4532 N   0  0  0  0  0  0  0  0  0  0  0  0
    7.8213  -13.2509   22.7844 C   0  0  0  0  0  0  0  0  0  0  0  0
    8.0048  -12.2407   23.6919 C   0  0  0  0  0  0  0  0  0  0  0  0
    7.7098  -12.4255   25.0154 C   0  0  0  0  0  0  0  0  0  0  0  0
    7.2234  -13.6314   25.4568 C   0  0  0  0  0  0  0  0  0  0  0  0
    7.0326  -14.6589   24.5571 C   0  0  0  0  0  0  0  0  0  0  0  0
    7.3314  -14.4687   23.2158 C   0  0  0  0  0  0  0  0  0  0  0  0
    8.7495  -17.6883   22.9725 C   0  0  0  0  0  0  0  0  0  0  0  0
    9.1464  -18.5968   22.1905 O   0  0  0  0  0  0  0  0  0  0  0  0
   13.7227  -16.2302   21.4792 N   0  0  0  0  0  0  0  0  0  0  0  0
   13.1914  -15.9248   22.7485 C   0  0  0  0  0  0  0  0  0  0  0  0
   13.9728  -15.7309   23.7020 O   0  0  0  0  0  0  0  0  0  0  0  0
   11.7460  -15.8348   22.9520 C   0  0  0  0  0  0  0  0  0  0  0  0
   11.1352  -17.0935   23.5121 C   0  0  2  0  0  0  0  0  0  0  0  0
    9.6821  -16.8664   23.6086 N   0  0  0  0  0  0  0  0  0  0  0  0
   11.6046  -17.3080   24.9259 C   0  0  0  0  0  0  0  0  0  0  0  0
   12.8366  -17.4156   25.2179 O   0  0  0  0  0  0  0  0  0  0  0  0
    7.8574  -11.9635   26.6662 O   0  0  0  0  0  0  0  0  0  0  0  0
    8.4201  -13.1656   27.0866 C   0  0  0  0  0  0  0  0  0  0  0  0
    7.7414  -14.3489   26.8935 C   0  0  0  0  0  0  0  0  0  0  0  0
    8.2916  -15.5562   27.3083 C   0  0  0  0  0  0  0  0  0  0  0  0
    9.5229  -15.6241   27.9225 C   0  0  0  0  0  0  0  0  0  0  0  0
   10.1005  -16.9202   28.3602 C   0  0  0  0  0  0  0  0  0  0  0  0
   11.1666  -17.4226   27.3983 C   0  0  2  0  0  0  0  0  0  0  0  0
   10.7124  -17.4046   26.0242 N   0  0  0  0  0  0  0  0  0  0  0  0
   11.4331  -18.8292   27.7724 C   0  0  0  0  0  0  0  0  0  0  0  0
   11.9937  -19.1995   28.9856 O   0  0  0  0  0  0  0  0  0  0  0  0
   10.1954  -14.4369   28.1121 C   0  0  0  0  0  0  0  0  0  0  0  0
    9.6518  -13.2260   27.7000 C   0  0  0  0  0  0  0  0  0  0  0  0
   11.1458  -19.7460   26.9688 O   0  0  0  0  0  0  0  0  0  0  0  0
  2  1  1  1
  3  2  1  0
  4  3  1  0
  4  5  2  0
  6  5  1  0
  7  6  1  0
  8  7  2  0
  9  8  1  0
 10  9  2  0
 10 11  1  0
 11 12  2  0
 12  7  1  0
 12  4  1  0
 13 20  1  0
 13  2  1  0
 14 13  2  0
 16 18  1  0
 16 15  1  0
 17 16  2  0
 19 18  1  1
 19 20  1  0
 21 22  2  0
 21 19  1  0
 23 24  1  0
 24 34  2  0
 24 25  1  0
 25 26  2  0
 26 27  1  0
 27 28  1  0
 29 28  1  1
 29 30  1  0
 30 21  1  0
 31 29  1  0
 31 32  1  0
 33 27  2  0
 34 33  1  0
 35 31  2  0
M  END
$$$$
