WNY.pdb
     RDKit          3D

 35 37  0  0  1  0  0  0  0  0999 V2000
    6.9592  -17.6387   23.7624 N   0  0  0  0  0  0  0  0  0  0  0  0
    8.1173  -16.7907   23.7733 C   0  0  1  0  0  0  0  0  0  0  0  0
    8.5411  -16.3809   25.1586 C   0  0  0  0  0  0  0  0  0  0  0  0
    7.6143  -15.3884   25.7256 C   0  0  0  0  0  0  0  0  0  0  0  0
    6.5739  -15.6776   26.6298 C   0  0  0  0  0  0  0  0  0  0  0  0
    5.9598  -14.5393   26.9589 N   0  0  0  0  0  0  0  0  0  0  0  0
    6.5507  -13.5126   26.3097 C   0  0  0  0  0  0  0  0  0  0  0  0
    6.3064  -12.1643   26.2914 C   0  0  0  0  0  0  0  0  0  0  0  0
    7.0657  -11.3249   25.5223 C   0  0  0  0  0  0  0  0  0  0  0  0
    8.0886  -11.8227   24.7531 C   0  0  0  0  0  0  0  0  0  0  0  0
    8.3483  -13.1770   24.7596 C   0  0  0  0  0  0  0  0  0  0  0  0
    7.5779  -14.0256   25.5410 C   0  0  0  0  0  0  0  0  0  0  0  0
    9.2683  -17.4914   23.1466 C   0  0  0  0  0  0  0  0  0  0  0  0
    9.4669  -18.7078   23.4210 O   0  0  0  0  0  0  0  0  0  0  0  0
   12.3654  -14.5662   20.2657 N   0  0  0  0  0  0  0  0  0  0  0  0
   11.2916  -15.4781   20.2216 C   0  0  0  0  0  0  0  0  0  0  0  0
   10.1296  -15.0407   20.0962 O   0  0  0  0  0  0  0  0  0  0  0  0
   11.5289  -16.9177   20.3210 C   0  0  0  0  0  0  0  0  0  0  0  0
   11.3358  -17.4674   21.7108 C   0  0  2  0  0  0  0  0  0  0  0  0
   10.1282  -16.8309   22.2666 N   0  0  0  0  0  0  0  0  0  0  0  0
   12.4683  -17.0285   22.5996 C   0  0  0  0  0  0  0  0  0  0  0  0
   13.6787  -17.3148   22.3397 O   0  0  0  0  0  0  0  0  0  0  0  0
    8.9834  -16.3929   29.2557 O   0  0  0  0  0  0  0  0  0  0  0  0
    9.9611  -15.9771   28.3561 C   0  0  0  0  0  0  0  0  0  0  0  0
    9.5963  -15.3824   27.1681 C   0  0  0  0  0  0  0  0  0  0  0  0
   10.5622  -14.9625   26.2608 C   0  0  0  0  0  0  0  0  0  0  0  0
   11.9091  -15.1193   26.5043 C   0  0  0  0  0  0  0  0  0  0  0  0
   12.9314  -14.6656   25.5276 C   0  0  0  0  0  0  0  0  0  0  0  0
   13.3628  -15.7858   24.5929 C   0  0  2  0  0  0  0  0  0  0  0  0
   12.2669  -16.2701   23.7810 N   0  0  0  0  0  0  0  0  0  0  0  0
   13.8151  -16.8972   25.4586 C   0  0  0  0  0  0  0  0  0  0  0  0
   13.1800  -18.1292   25.5074 O   0  0  0  0  0  0  0  0  0  0  0  0
   12.2660  -15.7147   27.6941 C   0  0  0  0  0  0  0  0  0  0  0  0
   11.3061  -16.1371   28.6061 C   0  0  0  0  0  0  0  0  0  0  0  0
   14.8186  -16.7391   26.1913 O   0  0  0  0  0  0  0  0  0  0  0  0
  2  1  1  1
  3  2  1  0
  4  3  1  0
  4  5  2  0
  6  5  1  0
  7  6  1  0
  8  7  2  0
  9  8  1  0
 10  9  2  0
 10 11  1  0
 11 12  2  0
 12  7  1  0
 12  4  1  0
 13 20  1  0
 13  2  1  0
 14 13  2  0
 16 18  1  0
 16 15  1  0
 17 16  2  0
 19 18  1  6
 19 20  1  0
 21 22  2  0
 21 19  1  0
 23 24  1  0
 24 34  2  0
 24 25  1  0
 25 26  2  0
 26 27  1  0
 27 28  1  0
 29 28  1  1
 29 30  1  0
 30 21  1  0
 31 29  1  0
 31 32  1  0
 33 27  2  0
 34 33  1  0
 35 31  2  0
M  END
$$$$
