WNY.pdb
     RDKit          3D

 35 37  0  0  1  0  0  0  0  0999 V2000
    6.3385  -17.4105   23.3866 N   0  0  0  0  0  0  0  0  0  0  0  0
    7.1223  -16.2207   23.2120 C   0  0  1  0  0  0  0  0  0  0  0  0
    7.8000  -15.7644   24.4766 C   0  0  0  0  0  0  0  0  0  0  0  0
    6.8807  -14.9836   25.3197 C   0  0  0  0  0  0  0  0  0  0  0  0
    5.9985  -15.5280   26.2733 C   0  0  0  0  0  0  0  0  0  0  0  0
    5.3442  -14.5317   26.8735 N   0  0  0  0  0  0  0  0  0  0  0  0
    5.7570  -13.3543   26.3558 C   0  0  0  0  0  0  0  0  0  0  0  0
    5.4040  -12.0550   26.6112 C   0  0  0  0  0  0  0  0  0  0  0  0
    5.9822  -11.0234   25.9225 C   0  0  0  0  0  0  0  0  0  0  0  0
    6.9290  -11.2751   24.9602 C   0  0  0  0  0  0  0  0  0  0  0  0
    7.2961  -12.5767   24.6905 C   0  0  0  0  0  0  0  0  0  0  0  0
    6.7094  -13.6205   25.3908 C   0  0  0  0  0  0  0  0  0  0  0  0
    8.1845  -16.4537   22.1991 C   0  0  0  0  0  0  0  0  0  0  0  0
    8.7548  -17.5796   22.1588 O   0  0  0  0  0  0  0  0  0  0  0  0
    7.7073  -13.2493   18.6117 N   0  0  0  0  0  0  0  0  0  0  0  0
    8.5316  -14.3916   18.6614 C   0  0  0  0  0  0  0  0  0  0  0  0
    8.2193  -15.3943   17.9874 O   0  0  0  0  0  0  0  0  0  0  0  0
    9.7371  -14.4081   19.4891 C   0  0  0  0  0  0  0  0  0  0  0  0
    9.7783  -15.5480   20.4740 C   0  0  2  0  0  0  0  0  0  0  0  0
    8.5601  -15.4548   21.2985 N   0  0  0  0  0  0  0  0  0  0  0  0
   10.9266  -15.3615   21.4289 C   0  0  0  0  0  0  0  0  0  0  0  0
   11.5310  -14.2501   21.5472 O   0  0  0  0  0  0  0  0  0  0  0  0
   11.0107  -16.1779   30.0800 O   0  0  0  0  0  0  0  0  0  0  0  0
   10.8409  -16.1657   28.6982 C   0  0  0  0  0  0  0  0  0  0  0  0
   10.4918  -14.9971   28.0572 C   0  0  0  0  0  0  0  0  0  0  0  0
   10.3191  -14.9707   26.6781 C   0  0  0  0  0  0  0  0  0  0  0  0
   10.4866  -16.0953   25.9002 C   0  0  0  0  0  0  0  0  0  0  0  0
   10.3002  -16.0540   24.4276 C   0  0  0  0  0  0  0  0  0  0  0  0
   11.6131  -16.2395   23.6818 C   0  0  2  0  0  0  0  0  0  0  0  0
   11.4121  -16.4048   22.2581 N   0  0  0  0  0  0  0  0  0  0  0  0
   12.2149  -17.4859   24.2053 C   0  0  0  0  0  0  0  0  0  0  0  0
   12.2445  -18.6739   23.4903 O   0  0  0  0  0  0  0  0  0  0  0  0
   10.8356  -17.2597   26.5482 C   0  0  0  0  0  0  0  0  0  0  0  0
   11.0101  -17.2939   27.9266 C   0  0  0  0  0  0  0  0  0  0  0  0
   12.7282  -17.4903   25.3478 O   0  0  0  0  0  0  0  0  0  0  0  0
  2  1  1  1
  3  2  1  0
  4  3  1  0
  4  5  2  0
  6  5  1  0
  7  6  1  0
  8  7  2  0
  9  8  1  0
 10  9  2  0
 10 11  1  0
 11 12  2  0
 12  7  1  0
 12  4  1  0
 13 20  1  0
 13  2  1  0
 14 13  2  0
 16 18  1  0
 16 15  1  0
 17 16  2  0
 19 18  1  6
 19 20  1  0
 21 22  2  0
 21 19  1  0
 23 24  1  0
 24 34  2  0
 24 25  1  0
 25 26  2  0
 26 27  1  0
 27 28  1  0
 29 28  1  1
 29 30  1  0
 30 21  1  0
 31 29  1  0
 31 32  1  0
 33 27  2  0
 34 33  1  0
 35 31  2  0
M  END
$$$$
