WNY.pdb
     RDKit          3D

 35 37  0  0  1  0  0  0  0  0999 V2000
    7.9730  -17.5498   25.9112 N   0  0  0  0  0  0  0  0  0  0  0  0
    7.7810  -17.1954   24.5336 C   0  0  1  0  0  0  0  0  0  0  0  0
    8.0104  -15.7331   24.2583 C   0  0  0  0  0  0  0  0  0  0  0  0
    7.1287  -14.8927   25.0840 C   0  0  0  0  0  0  0  0  0  0  0  0
    5.8229  -15.2386   25.4827 C   0  0  0  0  0  0  0  0  0  0  0  0
    5.3327  -14.2613   26.2480 N   0  0  0  0  0  0  0  0  0  0  0  0
    6.2593  -13.2861   26.3701 C   0  0  0  0  0  0  0  0  0  0  0  0
    6.2591  -12.0848   27.0295 C   0  0  0  0  0  0  0  0  0  0  0  0
    7.3502  -11.2601   26.9839 C   0  0  0  0  0  0  0  0  0  0  0  0
    8.4672  -11.6248   26.2732 C   0  0  0  0  0  0  0  0  0  0  0  0
    8.4846  -12.8303   25.6038 C   0  0  0  0  0  0  0  0  0  0  0  0
    7.3777  -13.6650   25.6525 C   0  0  0  0  0  0  0  0  0  0  0  0
    8.7212  -17.9611   23.6742 C   0  0  0  0  0  0  0  0  0  0  0  0
    9.7247  -18.5130   24.2060 O   0  0  0  0  0  0  0  0  0  0  0  0
    8.4265  -21.2589   22.3890 N   0  0  0  0  0  0  0  0  0  0  0  0
    8.0469  -20.8759   21.0868 C   0  0  0  0  0  0  0  0  0  0  0  0
    7.2553  -21.5995   20.4486 O   0  0  0  0  0  0  0  0  0  0  0  0
    8.5696  -19.6494   20.4860 C   0  0  0  0  0  0  0  0  0  0  0  0
    9.4262  -18.8357   21.4216 C   0  0  2  0  0  0  0  0  0  0  0  0
    8.5149  -18.0783   22.2981 N   0  0  0  0  0  0  0  0  0  0  0  0
   10.1938  -17.7992   20.6460 C   0  0  0  0  0  0  0  0  0  0  0  0
    9.7675  -17.3288   19.5452 O   0  0  0  0  0  0  0  0  0  0  0  0
    6.7528  -12.9341   18.2818 O   0  0  0  0  0  0  0  0  0  0  0  0
    7.7044  -13.4508   19.1568 C   0  0  0  0  0  0  0  0  0  0  0  0
    9.0065  -13.6176   18.7385 C   0  0  0  0  0  0  0  0  0  0  0  0
    9.9668  -14.1324   19.6017 C   0  0  0  0  0  0  0  0  0  0  0  0
    9.6651  -14.4943   20.8963 C   0  0  0  0  0  0  0  0  0  0  0  0
   10.7001  -15.0423   21.8092 C   0  0  0  0  0  0  0  0  0  0  0  0
   11.7413  -15.8629   21.0628 C   0  0  2  0  0  0  0  0  0  0  0  0
   11.4376  -17.2778   21.0848 N   0  0  0  0  0  0  0  0  0  0  0  0
   13.0204  -15.6596   21.7782 C   0  0  0  0  0  0  0  0  0  0  0  0
   13.4877  -16.5216   22.7591 O   0  0  0  0  0  0  0  0  0  0  0  0
    8.3613  -14.3247   21.3072 C   0  0  0  0  0  0  0  0  0  0  0  0
    7.3957  -13.8106   20.4499 C   0  0  0  0  0  0  0  0  0  0  0  0
   13.7316  -14.6668   21.5000 O   0  0  0  0  0  0  0  0  0  0  0  0
  2  1  1  1
  3  2  1  0
  4  3  1  0
  4  5  2  0
  6  5  1  0
  7  6  1  0
  8  7  2  0
  9  8  1  0
 10  9  2  0
 10 11  1  0
 11 12  2  0
 12  7  1  0
 12  4  1  0
 13 20  1  0
 13  2  1  0
 14 13  2  0
 16 18  1  0
 16 15  1  0
 17 16  2  0
 19 18  1  6
 19 20  1  0
 21 22  2  0
 21 19  1  0
 23 24  1  0
 24 34  2  0
 24 25  1  0
 25 26  2  0
 26 27  1  0
 27 28  1  0
 29 28  1  1
 29 30  1  0
 30 21  1  0
 31 29  1  0
 31 32  1  0
 33 27  2  0
 34 33  1  0
 35 31  2  0
M  END
$$$$
