SHN.pdb
     RDKit          3D

 25 25  0  0  1  0  0  0  0  0999 V2000
   19.2090   -7.7605  -12.4501 O   0  0  0  0  0  0  0  0  0  0  0  0
   19.1992   -8.5902  -11.3518 C   0  0  0  0  0  0  0  0  0  0  0  0
   17.8379   -9.1763  -11.1677 C   0  0  2  0  0  0  0  0  0  0  0  0
   17.3766   -9.8171  -12.4173 N   0  0  0  0  0  0  0  0  0  0  0  0
   16.8204   -8.1973  -10.7429 C   0  0  0  0  0  0  0  0  0  0  0  0
   16.0908   -7.6206  -11.6184 O   0  0  0  0  0  0  0  0  0  0  0  0
   16.6159   -7.8706   -9.3945 N   0  0  0  0  0  0  0  0  0  0  0  0
   15.5520   -6.9094   -9.0575 C   0  0  1  0  0  0  0  0  0  0  0  0
   14.6675   -7.4869   -7.9713 C   0  0  0  0  0  0  0  0  0  0  0  0
   13.6621   -8.4046   -8.5412 C   0  0  0  0  0  0  0  0  0  0  0  0
   13.4544   -8.7248   -9.8584 C   0  0  0  0  0  0  0  0  0  0  0  0
   12.4258   -9.5885   -9.9430 N   0  0  0  0  0  0  0  0  0  0  0  0
   11.9983   -9.8016   -8.6779 C   0  0  0  0  0  0  0  0  0  0  0  0
   12.7372   -9.0915   -7.8171 N   0  0  0  0  0  0  0  0  0  0  0  0
   16.2145   -5.6512   -8.6699 C   0  0  0  0  0  0  0  0  0  0  0  0
   17.1431   -5.7252   -7.8273 O   0  0  0  0  0  0  0  0  0  0  0  0
   17.9493   -0.7853   -8.2421 N   0  0  0  0  0  0  0  0  0  0  0  0
   17.9790   -1.3317   -9.5750 C   0  0  0  0  0  0  0  0  0  0  0  0
   18.6085   -0.6535  -10.4176 O   0  0  0  0  0  0  0  0  0  0  0  0
   17.3065   -2.5991   -9.8880 C   0  0  0  0  0  0  0  0  0  0  0  0
   16.6312   -3.2048   -8.6993 C   0  0  2  0  0  0  0  0  0  0  0  0
   15.8895   -4.3719   -9.1690 N   0  0  0  0  0  0  0  0  0  0  0  0
   15.7747   -2.2912   -7.9363 C   0  0  0  0  0  0  0  0  0  0  0  0
   14.5380   -2.2327   -8.2700 O   0  0  0  0  0  0  0  0  0  0  0  0
   16.1491   -1.4777   -6.8882 O   0  0  0  0  0  0  0  0  0  0  0  0
  1  2  1  0
  2  3  1  0
  3  5  1  0
  3  4  1  6
  5  6  2  0
  7  5  1  0
  7  8  1  0
  8 15  1  0
  8  9  1  1
 10  9  1  0
 11 10  2  0
 12 13  1  0
 12 11  1  0
 13 14  2  0
 14 10  1  0
 15 16  2  0
 18 17  1  0
 19 18  2  0
 20 18  1  0
 21 20  1  6
 21 23  1  0
 22 21  1  0
 22 15  1  0
 23 25  1  0
 24 23  2  0
M  END
$$$$
