SHN.pdb
     RDKit          3D

 25 25  0  0  1  0  0  0  0  0999 V2000
   17.6910  -16.0060  -17.2827 O   0  0  0  0  0  0  0  0  0  0  0  0
   18.4862  -15.0393  -16.7099 C   0  0  0  0  0  0  0  0  0  0  0  0
   19.7878  -15.6358  -16.2851 C   0  0  2  0  0  0  0  0  0  0  0  0
   19.5857  -16.5716  -15.1588 N   0  0  0  0  0  0  0  0  0  0  0  0
   20.7982  -14.6385  -15.8866 C   0  0  0  0  0  0  0  0  0  0  0  0
   20.6278  -13.9535  -14.8221 O   0  0  0  0  0  0  0  0  0  0  0  0
   21.9589  -14.4100  -16.6397 N   0  0  0  0  0  0  0  0  0  0  0  0
   22.9465  -13.4418  -16.1331 C   0  0  1  0  0  0  0  0  0  0  0  0
   24.3294  -13.8192  -16.6235 C   0  0  0  0  0  0  0  0  0  0  0  0
   25.3291  -12.8162  -16.2082 C   0  0  0  0  0  0  0  0  0  0  0  0
   25.1394  -11.6949  -15.4416 C   0  0  0  0  0  0  0  0  0  0  0  0
   26.3120  -11.0469  -15.3144 N   0  0  0  0  0  0  0  0  0  0  0  0
   27.2259  -11.7680  -16.0025 C   0  0  0  0  0  0  0  0  0  0  0  0
   26.6460  -12.8430  -16.5498 N   0  0  0  0  0  0  0  0  0  0  0  0
   22.5086  -12.1065  -16.5774 C   0  0  0  0  0  0  0  0  0  0  0  0
   22.1139  -11.9955  -17.7646 O   0  0  0  0  0  0  0  0  0  0  0  0
   22.0473   -7.2468  -13.9982 N   0  0  0  0  0  0  0  0  0  0  0  0
   21.6440   -8.6206  -14.1593 C   0  0  0  0  0  0  0  0  0  0  0  0
   21.8402   -9.3561  -13.1660 O   0  0  0  0  0  0  0  0  0  0  0  0
   21.0472   -9.0912  -15.4159 C   0  0  0  0  0  0  0  0  0  0  0  0
   22.0557   -9.6768  -16.3518 C   0  0  2  0  0  0  0  0  0  0  0  0
   22.4973  -10.9444  -15.7767 N   0  0  0  0  0  0  0  0  0  0  0  0
   23.1899   -8.8040  -16.6716 C   0  0  0  0  0  0  0  0  0  0  0  0
   22.9301   -7.7075  -17.2835 O   0  0  0  0  0  0  0  0  0  0  0  0
   24.5200   -9.0279  -16.3869 O   0  0  0  0  0  0  0  0  0  0  0  0
  1  2  1  0
  2  3  1  0
  3  5  1  0
  3  4  1  1
  5  6  2  0
  7  5  1  0
  7  8  1  0
  8 15  1  0
  8  9  1  6
 10  9  1  0
 11 10  2  0
 12 13  1  0
 12 11  1  0
 13 14  2  0
 14 10  1  0
 15 16  2  0
 18 17  1  0
 19 18  2  0
 20 18  1  0
 21 20  1  1
 21 23  1  0
 22 21  1  0
 22 15  1  0
 23 25  1  0
 24 23  2  0
M  END
$$$$
