SHN.pdb
     RDKit          3D

 25 25  0  0  1  0  0  0  0  0999 V2000
   26.6374  -12.5162  -15.5110 O   0  0  0  0  0  0  0  0  0  0  0  0
   25.7885  -11.5048  -15.9000 C   0  0  0  0  0  0  0  0  0  0  0  0
   24.6119  -12.0758  -16.6212 C   0  0  2  0  0  0  0  0  0  0  0  0
   25.0240  -12.6281  -17.9289 N   0  0  0  0  0  0  0  0  0  0  0  0
   23.5238  -11.1066  -16.8468 C   0  0  0  0  0  0  0  0  0  0  0  0
   23.4141  -10.5288  -17.9806 O   0  0  0  0  0  0  0  0  0  0  0  0
   22.5875  -10.7906  -15.8517 N   0  0  0  0  0  0  0  0  0  0  0  0
   21.5229   -9.8237  -16.1696 C   0  0  1  0  0  0  0  0  0  0  0  0
   20.2537  -10.2013  -15.4332 C   0  0  0  0  0  0  0  0  0  0  0  0
   19.1916   -9.2035  -15.6655 C   0  0  0  0  0  0  0  0  0  0  0  0
   18.7040   -8.2634  -14.7941 C   0  0  0  0  0  0  0  0  0  0  0  0
   17.7276   -7.5654  -15.4028 N   0  0  0  0  0  0  0  0  0  0  0  0
   17.6122   -8.0745  -16.6503 C   0  0  0  0  0  0  0  0  0  0  0  0
   18.4923   -9.0677  -16.8249 N   0  0  0  0  0  0  0  0  0  0  0  0
   22.0337   -8.4875  -15.8149 C   0  0  0  0  0  0  0  0  0  0  0  0
   22.9505   -8.4304  -14.9584 O   0  0  0  0  0  0  0  0  0  0  0  0
   23.6553   -3.6661  -15.5367 N   0  0  0  0  0  0  0  0  0  0  0  0
   24.2792   -4.7265  -16.2865 C   0  0  0  0  0  0  0  0  0  0  0  0
   25.4333   -4.4803  -16.7031 O   0  0  0  0  0  0  0  0  0  0  0  0
   23.5803   -5.9956  -16.5265 C   0  0  0  0  0  0  0  0  0  0  0  0
   22.2012   -6.0150  -15.9490 C   0  0  2  0  0  0  0  0  0  0  0  0
   21.5758   -7.2690  -16.3600 N   0  0  0  0  0  0  0  0  0  0  0  0
   21.3668   -4.8580  -16.2888 C   0  0  0  0  0  0  0  0  0  0  0  0
   20.8020   -4.8619  -17.4400 O   0  0  0  0  0  0  0  0  0  0  0  0
   21.1154   -3.7525  -15.5045 O   0  0  0  0  0  0  0  0  0  0  0  0
  1  2  1  0
  2  3  1  0
  3  5  1  0
  3  4  1  6
  5  6  2  0
  7  5  1  0
  7  8  1  0
  8 15  1  0
  8  9  1  1
 10  9  1  0
 11 10  2  0
 12 13  1  0
 12 11  1  0
 13 14  2  0
 14 10  1  0
 15 16  2  0
 18 17  1  0
 19 18  2  0
 20 18  1  0
 21 20  1  6
 21 23  1  0
 22 21  1  0
 22 15  1  0
 23 25  1  0
 24 23  2  0
M  END
$$$$
