SHN.pdb
     RDKit          3D

 25 25  0  0  1  0  0  0  0  0999 V2000
   26.0684  -19.0031  -17.7550 O   0  0  0  0  0  0  0  0  0  0  0  0
   25.1961  -19.8741  -17.1425 C   0  0  0  0  0  0  0  0  0  0  0  0
   25.7210  -20.2608  -15.7989 C   0  0  2  0  0  0  0  0  0  0  0  0
   26.9057  -21.1339  -15.9373 N   0  0  0  0  0  0  0  0  0  0  0  0
   24.7321  -20.9487  -14.9484 C   0  0  0  0  0  0  0  0  0  0  0  0
   24.7462  -22.2231  -14.8633 O   0  0  0  0  0  0  0  0  0  0  0  0
   23.7630  -20.2489  -14.2151 N   0  0  0  0  0  0  0  0  0  0  0  0
   22.8540  -21.0125  -13.3433 C   0  0  1  0  0  0  0  0  0  0  0  0
   22.8667  -20.4202  -11.9488 C   0  0  0  0  0  0  0  0  0  0  0  0
   24.0678  -20.8462  -11.2049 C   0  0  0  0  0  0  0  0  0  0  0  0
   25.0995  -21.6384  -11.6395 C   0  0  0  0  0  0  0  0  0  0  0  0
   25.9858  -21.7928  -10.6387 N   0  0  0  0  0  0  0  0  0  0  0  0
   25.5015  -21.0958   -9.5859 C   0  0  0  0  0  0  0  0  0  0  0  0
   24.3402  -20.5166   -9.9131 N   0  0  0  0  0  0  0  0  0  0  0  0
   21.5251  -20.9897  -13.9803 C   0  0  0  0  0  0  0  0  0  0  0  0
   21.1430  -19.9009  -14.4765 O   0  0  0  0  0  0  0  0  0  0  0  0
   16.9623  -22.0265  -16.1756 N   0  0  0  0  0  0  0  0  0  0  0  0
   17.6514  -23.2672  -15.9267 C   0  0  0  0  0  0  0  0  0  0  0  0
   17.1036  -24.2880  -16.3998 O   0  0  0  0  0  0  0  0  0  0  0  0
   18.9077  -23.2953  -15.1667 C   0  0  0  0  0  0  0  0  0  0  0  0
   19.3624  -21.9331  -14.7499 C   0  0  2  0  0  0  0  0  0  0  0  0
   20.6489  -22.0917  -14.0772 N   0  0  0  0  0  0  0  0  0  0  0  0
   18.4098  -21.1834  -13.9248 C   0  0  0  0  0  0  0  0  0  0  0  0
   17.3549  -20.7414  -14.5044 O   0  0  0  0  0  0  0  0  0  0  0  0
   18.5177  -20.8950  -12.5811 O   0  0  0  0  0  0  0  0  0  0  0  0
  1  2  1  0
  2  3  1  0
  3  5  1  0
  3  4  1  6
  5  6  2  0
  7  5  1  0
  7  8  1  0
  8 15  1  0
  8  9  1  1
 10  9  1  0
 11 10  2  0
 12 13  1  0
 12 11  1  0
 13 14  2  0
 14 10  1  0
 15 16  2  0
 18 17  1  0
 19 18  2  0
 20 18  1  0
 21 20  1  1
 21 23  1  0
 22 21  1  0
 22 15  1  0
 23 25  1  0
 24 23  2  0
M  END
$$$$
