SHN.pdb
     RDKit          3D

 25 25  0  0  1  0  0  0  0  0999 V2000
   26.7309  -13.2078  -16.4102 O   0  0  0  0  0  0  0  0  0  0  0  0
   26.2144  -13.8544  -15.3103 C   0  0  0  0  0  0  0  0  0  0  0  0
   25.2625  -14.9198  -15.7455 C   0  0  2  0  0  0  0  0  0  0  0  0
   25.9099  -15.8280  -16.7156 N   0  0  0  0  0  0  0  0  0  0  0  0
   24.0223  -14.3997  -16.3501 C   0  0  0  0  0  0  0  0  0  0  0  0
   23.8350  -14.5113  -17.6087 O   0  0  0  0  0  0  0  0  0  0  0  0
   23.0224  -13.7800  -15.5865 N   0  0  0  0  0  0  0  0  0  0  0  0
   21.8072  -13.3065  -16.2707 C   0  0  1  0  0  0  0  0  0  0  0  0
   20.6546  -14.2429  -15.9704 C   0  0  0  0  0  0  0  0  0  0  0  0
   20.9676  -15.6201  -16.3983 C   0  0  0  0  0  0  0  0  0  0  0  0
   21.2504  -16.7095  -15.6146 C   0  0  0  0  0  0  0  0  0  0  0  0
   21.4932  -17.7693  -16.4076 N   0  0  0  0  0  0  0  0  0  0  0  0
   21.3603  -17.3345  -17.6811 C   0  0  0  0  0  0  0  0  0  0  0  0
   21.0421  -16.0345  -17.6923 N   0  0  0  0  0  0  0  0  0  0  0  0
   21.5722  -11.9219  -15.8238 C   0  0  0  0  0  0  0  0  0  0  0  0
   22.0492  -11.5872  -14.7111 O   0  0  0  0  0  0  0  0  0  0  0  0
   21.8946   -7.9396  -12.9548 N   0  0  0  0  0  0  0  0  0  0  0  0
   20.8638   -8.3749  -13.8625 C   0  0  0  0  0  0  0  0  0  0  0  0
   19.9219   -7.5679  -14.0295 O   0  0  0  0  0  0  0  0  0  0  0  0
   20.9447   -9.6812  -14.5285 C   0  0  0  0  0  0  0  0  0  0  0  0
   20.7412   -9.5904  -16.0071 C   0  0  2  0  0  0  0  0  0  0  0  0
   20.8552  -10.9434  -16.5450 N   0  0  0  0  0  0  0  0  0  0  0  0
   21.6314   -8.6555  -16.7026 C   0  0  0  0  0  0  0  0  0  0  0  0
   22.8555   -8.6204  -16.3223 O   0  0  0  0  0  0  0  0  0  0  0  0
   21.3013   -7.7992  -17.7313 O   0  0  0  0  0  0  0  0  0  0  0  0
  1  2  1  0
  2  3  1  0
  3  5  1  0
  3  4  1  6
  5  6  2  0
  7  5  1  0
  7  8  1  0
  8 15  1  0
  8  9  1  1
 10  9  1  0
 11 10  2  0
 12 13  1  0
 12 11  1  0
 13 14  2  0
 14 10  1  0
 15 16  2  0
 18 17  1  0
 19 18  2  0
 20 18  1  0
 21 20  1  1
 21 23  1  0
 22 21  1  0
 22 15  1  0
 23 25  1  0
 24 23  2  0
M  END
$$$$
