SHN.pdb
     RDKit          3D

 25 25  0  0  1  0  0  0  0  0999 V2000
   26.9578  -12.6414  -15.4750 O   0  0  0  0  0  0  0  0  0  0  0  0
   25.9503  -11.8534  -15.9839 C   0  0  0  0  0  0  0  0  0  0  0  0
   24.7139  -12.6685  -16.1776 C   0  0  2  0  0  0  0  0  0  0  0  0
   24.8791  -13.5977  -17.3152 N   0  0  0  0  0  0  0  0  0  0  0  0
   23.4996  -11.8637  -16.4057 C   0  0  0  0  0  0  0  0  0  0  0  0
   23.1789  -11.5225  -17.5941 O   0  0  0  0  0  0  0  0  0  0  0  0
   22.6674  -11.4537  -15.3540 N   0  0  0  0  0  0  0  0  0  0  0  0
   21.4043  -10.7710  -15.6822 C   0  0  1  0  0  0  0  0  0  0  0  0
   20.2893  -11.3144  -14.8121 C   0  0  0  0  0  0  0  0  0  0  0  0
   19.7294  -12.5542  -15.3841 C   0  0  0  0  0  0  0  0  0  0  0  0
   20.0484  -13.1613  -16.5718 C   0  0  0  0  0  0  0  0  0  0  0  0
   19.2911  -14.2641  -16.7181 N   0  0  0  0  0  0  0  0  0  0  0  0
   18.5043  -14.3380  -15.6208 C   0  0  0  0  0  0  0  0  0  0  0  0
   18.7579  -13.3093  -14.8030 N   0  0  0  0  0  0  0  0  0  0  0  0
   21.6366   -9.3262  -15.5069 C   0  0  0  0  0  0  0  0  0  0  0  0
   22.2246   -8.9606  -14.4590 O   0  0  0  0  0  0  0  0  0  0  0  0
   23.8796   -5.3538  -16.2859 N   0  0  0  0  0  0  0  0  0  0  0  0
   23.0510   -5.4540  -17.4603 C   0  0  0  0  0  0  0  0  0  0  0  0
   23.4605   -4.8220  -18.4598 O   0  0  0  0  0  0  0  0  0  0  0  0
   21.8179   -6.2515  -17.4501 C   0  0  0  0  0  0  0  0  0  0  0  0
   21.5763   -6.9267  -16.1380 C   0  0  2  0  0  0  0  0  0  0  0  0
   21.2518   -8.3222  -16.4210 N   0  0  0  0  0  0  0  0  0  0  0  0
   20.5590   -6.2963  -15.2907 C   0  0  0  0  0  0  0  0  0  0  0  0
   19.3388   -6.3892  -15.6738 O   0  0  0  0  0  0  0  0  0  0  0  0
   20.7644   -5.6068  -14.1147 O   0  0  0  0  0  0  0  0  0  0  0  0
  1  2  1  0
  2  3  1  0
  3  5  1  0
  3  4  1  6
  5  6  2  0
  7  5  1  0
  7  8  1  0
  8 15  1  0
  8  9  1  1
 10  9  1  0
 11 10  2  0
 12 13  1  0
 12 11  1  0
 13 14  2  0
 14 10  1  0
 15 16  2  0
 18 17  1  0
 19 18  2  0
 20 18  1  0
 21 20  1  6
 21 23  1  0
 22 21  1  0
 22 15  1  0
 23 25  1  0
 24 23  2  0
M  END
$$$$
