SHN.pdb
     RDKit          3D

 25 25  0  0  1  0  0  0  0  0999 V2000
   22.9210  -11.4869  -17.7558 O   0  0  0  0  0  0  0  0  0  0  0  0
   22.1526  -10.4138  -17.3649 C   0  0  0  0  0  0  0  0  0  0  0  0
   21.4006  -10.7518  -16.1196 C   0  0  2  0  0  0  0  0  0  0  0  0
   20.3891  -11.7946  -16.3923 N   0  0  0  0  0  0  0  0  0  0  0  0
   20.7242   -9.5972  -15.5004 C   0  0  0  0  0  0  0  0  0  0  0  0
   19.6430   -9.1472  -16.0102 O   0  0  0  0  0  0  0  0  0  0  0  0
   21.2264   -8.9646  -14.3539 N   0  0  0  0  0  0  0  0  0  0  0  0
   20.5150   -7.7847  -13.8333 C   0  0  1  0  0  0  0  0  0  0  0  0
   20.2085   -7.9812  -12.3626 C   0  0  0  0  0  0  0  0  0  0  0  0
   18.9350   -8.7042  -12.1805 C   0  0  0  0  0  0  0  0  0  0  0  0
   18.0866   -9.1862  -13.1442 C   0  0  0  0  0  0  0  0  0  0  0  0
   17.0298   -9.7677  -12.5475 N   0  0  0  0  0  0  0  0  0  0  0  0
   17.2256   -9.6450  -11.2151 C   0  0  0  0  0  0  0  0  0  0  0  0
   18.3755   -9.0030  -10.9766 N   0  0  0  0  0  0  0  0  0  0  0  0
   21.3664   -6.6128  -14.1054 C   0  0  0  0  0  0  0  0  0  0  0  0
   22.5271   -6.6204  -13.6254 O   0  0  0  0  0  0  0  0  0  0  0  0
   23.2028   -2.6901  -18.2353 N   0  0  0  0  0  0  0  0  0  0  0  0
   23.0036   -3.1019  -16.8690 C   0  0  0  0  0  0  0  0  0  0  0  0
   23.6844   -2.4849  -16.0193 O   0  0  0  0  0  0  0  0  0  0  0  0
   22.0590   -4.1748  -16.5325 C   0  0  0  0  0  0  0  0  0  0  0  0
   21.9311   -4.3919  -15.0585 C   0  0  2  0  0  0  0  0  0  0  0  0
   20.9824   -5.4846  -14.8612 N   0  0  0  0  0  0  0  0  0  0  0  0
   21.5568   -3.2045  -14.2838 C   0  0  0  0  0  0  0  0  0  0  0  0
   22.5088   -2.4523  -13.8691 O   0  0  0  0  0  0  0  0  0  0  0  0
   20.2839   -2.7974  -13.9453 O   0  0  0  0  0  0  0  0  0  0  0  0
  1  2  1  0
  2  3  1  0
  3  5  1  0
  3  4  1  6
  5  6  2  0
  7  5  1  0
  7  8  1  0
  8 15  1  0
  8  9  1  1
 10  9  1  0
 11 10  2  0
 12 13  1  0
 12 11  1  0
 13 14  2  0
 14 10  1  0
 15 16  2  0
 18 17  1  0
 19 18  2  0
 20 18  1  0
 21 20  1  6
 21 23  1  0
 22 21  1  0
 22 15  1  0
 23 25  1  0
 24 23  2  0
M  END
$$$$
