SHN.pdb
     RDKit          3D

 25 25  0  0  1  0  0  0  0  0999 V2000
   18.1082  -11.3705  -20.4467 O   0  0  0  0  0  0  0  0  0  0  0  0
   17.6682  -10.3848  -19.5925 C   0  0  0  0  0  0  0  0  0  0  0  0
   18.1753  -10.6430  -18.2117 C   0  0  2  0  0  0  0  0  0  0  0  0
   17.5856  -11.8842  -17.6670 N   0  0  0  0  0  0  0  0  0  0  0  0
   17.9081   -9.5453  -17.2641 C   0  0  0  0  0  0  0  0  0  0  0  0
   16.8328   -9.5503  -16.5746 O   0  0  0  0  0  0  0  0  0  0  0  0
   18.8025   -8.4803  -17.0841 N   0  0  0  0  0  0  0  0  0  0  0  0
   18.4720   -7.4449  -16.0901 C   0  0  1  0  0  0  0  0  0  0  0  0
   18.4796   -8.0498  -14.7010 C   0  0  0  0  0  0  0  0  0  0  0  0
   19.8057   -8.6098  -14.3761 C   0  0  0  0  0  0  0  0  0  0  0  0
   20.2919   -9.8607  -14.6585 C   0  0  0  0  0  0  0  0  0  0  0  0
   21.5421   -9.9658  -14.1716 N   0  0  0  0  0  0  0  0  0  0  0  0
   21.8280   -8.7798  -13.5884 C   0  0  0  0  0  0  0  0  0  0  0  0
   20.7861   -7.9476  -13.7039 N   0  0  0  0  0  0  0  0  0  0  0  0
   19.4482   -6.3543  -16.2624 C   0  0  0  0  0  0  0  0  0  0  0  0
   20.4202   -6.5673  -17.0288 O   0  0  0  0  0  0  0  0  0  0  0  0
   22.0377   -2.0461  -16.9141 N   0  0  0  0  0  0  0  0  0  0  0  0
   21.2523   -2.7905  -17.8655 C   0  0  0  0  0  0  0  0  0  0  0  0
   21.3829   -2.4385  -19.0593 O   0  0  0  0  0  0  0  0  0  0  0  0
   20.3702   -3.8807  -17.4297 C   0  0  0  0  0  0  0  0  0  0  0  0
   20.3803   -4.0757  -15.9472 C   0  0  2  0  0  0  0  0  0  0  0  0
   19.3782   -5.0915  -15.6361 N   0  0  0  0  0  0  0  0  0  0  0  0
   20.1782   -2.8572  -15.1568 C   0  0  0  0  0  0  0  0  0  0  0  0
   21.0592   -1.9326  -15.2715 O   0  0  0  0  0  0  0  0  0  0  0  0
   19.1377   -2.5864  -14.2940 O   0  0  0  0  0  0  0  0  0  0  0  0
  1  2  1  0
  2  3  1  0
  3  5  1  0
  3  4  1  1
  5  6  2  0
  7  5  1  0
  7  8  1  0
  8 15  1  0
  8  9  1  1
 10  9  1  0
 11 10  2  0
 12 13  1  0
 12 11  1  0
 13 14  2  0
 14 10  1  0
 15 16  2  0
 18 17  1  0
 19 18  2  0
 20 18  1  0
 21 20  1  6
 21 23  1  0
 22 21  1  0
 22 15  1  0
 23 25  1  0
 24 23  2  0
M  END
$$$$
