SHN.pdb
     RDKit          3D

 25 25  0  0  1  0  0  0  0  0999 V2000
   14.7995   -8.3099  -17.2568 O   0  0  0  0  0  0  0  0  0  0  0  0
   15.8859   -8.3838  -16.4147 C   0  0  0  0  0  0  0  0  0  0  0  0
   16.7622   -9.5261  -16.8120 C   0  0  2  0  0  0  0  0  0  0  0  0
   16.1296  -10.8131  -16.4536 N   0  0  0  0  0  0  0  0  0  0  0  0
   18.1067   -9.4836  -16.2081 C   0  0  0  0  0  0  0  0  0  0  0  0
   18.2718   -9.8653  -15.0004 O   0  0  0  0  0  0  0  0  0  0  0  0
   19.2302   -9.0366  -16.9184 N   0  0  0  0  0  0  0  0  0  0  0  0
   20.5469   -9.0959  -16.2610 C   0  0  1  0  0  0  0  0  0  0  0  0
   21.5208   -9.8577  -17.1366 C   0  0  0  0  0  0  0  0  0  0  0  0
   21.3151  -11.3137  -17.0127 C   0  0  0  0  0  0  0  0  0  0  0  0
   21.9606  -12.1952  -16.1837 C   0  0  0  0  0  0  0  0  0  0  0  0
   21.4798  -13.4334  -16.4001 N   0  0  0  0  0  0  0  0  0  0  0  0
   20.5374  -13.3166  -17.3628 C   0  0  0  0  0  0  0  0  0  0  0  0
   20.4257  -12.0385  -17.7443 N   0  0  0  0  0  0  0  0  0  0  0  0
   20.9586   -7.7061  -15.9940 C   0  0  0  0  0  0  0  0  0  0  0  0
   20.9604   -6.9095  -16.9650 O   0  0  0  0  0  0  0  0  0  0  0  0
   19.9133   -2.6933  -14.3348 N   0  0  0  0  0  0  0  0  0  0  0  0
   20.8321   -3.5364  -15.0565 C   0  0  0  0  0  0  0  0  0  0  0  0
   21.8143   -2.9482  -15.5620 O   0  0  0  0  0  0  0  0  0  0  0  0
   20.6014   -4.9822  -15.1712 C   0  0  0  0  0  0  0  0  0  0  0  0
   21.7248   -5.7938  -14.6100 C   0  0  2  0  0  0  0  0  0  0  0  0
   21.3503   -7.1997  -14.7363 N   0  0  0  0  0  0  0  0  0  0  0  0
   22.1100   -5.4584  -13.2354 C   0  0  0  0  0  0  0  0  0  0  0  0
   22.6621   -4.3171  -13.0443 O   0  0  0  0  0  0  0  0  0  0  0  0
   21.9449   -6.2374  -12.1100 O   0  0  0  0  0  0  0  0  0  0  0  0
  1  2  1  0
  2  3  1  0
  3  5  1  0
  3  4  1  1
  5  6  2  0
  7  5  1  0
  7  8  1  0
  8 15  1  0
  8  9  1  6
 10  9  1  0
 11 10  2  0
 12 13  1  0
 12 11  1  0
 13 14  2  0
 14 10  1  0
 15 16  2  0
 18 17  1  0
 19 18  2  0
 20 18  1  0
 21 20  1  1
 21 23  1  0
 22 21  1  0
 22 15  1  0
 23 25  1  0
 24 23  2  0
M  END
$$$$
