SHN.pdb
     RDKit          3D

 25 25  0  0  1  0  0  0  0  0999 V2000
   22.0318  -39.9334  -11.9804 O   0  0  0  0  0  0  0  0  0  0  0  0
   22.5099  -38.9587  -11.1341 C   0  0  0  0  0  0  0  0  0  0  0  0
   23.2814  -37.9427  -11.9106 C   0  0  2  0  0  0  0  0  0  0  0  0
   24.5885  -38.4928  -12.3278 N   0  0  0  0  0  0  0  0  0  0  0  0
   23.5175  -36.6857  -11.1770 C   0  0  0  0  0  0  0  0  0  0  0  0
   24.6839  -36.4235  -10.7271 O   0  0  0  0  0  0  0  0  0  0  0  0
   22.4976  -35.7498  -10.9520 N   0  0  0  0  0  0  0  0  0  0  0  0
   22.8203  -34.5255  -10.1996 C   0  0  1  0  0  0  0  0  0  0  0  0
   22.3063  -33.3142  -10.9508 C   0  0  0  0  0  0  0  0  0  0  0  0
   22.5005  -32.0821  -10.1622 C   0  0  0  0  0  0  0  0  0  0  0  0
   23.0271  -31.9541   -8.9024 C   0  0  0  0  0  0  0  0  0  0  0  0
   23.0089  -30.6556   -8.5491 N   0  0  0  0  0  0  0  0  0  0  0  0
   22.4710  -29.9817   -9.5907 C   0  0  0  0  0  0  0  0  0  0  0  0
   22.1577  -30.8319  -10.5759 N   0  0  0  0  0  0  0  0  0  0  0  0
   22.2335  -34.6774   -8.8562 C   0  0  0  0  0  0  0  0  0  0  0  0
   21.1730  -35.3440   -8.7632 O   0  0  0  0  0  0  0  0  0  0  0  0
   23.0205  -34.2182   -2.8307 N   0  0  0  0  0  0  0  0  0  0  0  0
   22.5047  -34.8282   -4.0298 C   0  0  0  0  0  0  0  0  0  0  0  0
   21.5425  -35.6105   -3.8611 O   0  0  0  0  0  0  0  0  0  0  0  0
   23.0913  -34.5300   -5.3426 C   0  0  0  0  0  0  0  0  0  0  0  0
   22.0588  -34.3280   -6.4053 C   0  0  2  0  0  0  0  0  0  0  0  0
   22.7671  -34.1348   -7.6678 N   0  0  0  0  0  0  0  0  0  0  0  0
   21.1049  -33.2441   -6.1494 C   0  0  0  0  0  0  0  0  0  0  0  0
   21.4154  -32.0773   -6.5809 O   0  0  0  0  0  0  0  0  0  0  0  0
   19.8972  -33.3349   -5.4909 O   0  0  0  0  0  0  0  0  0  0  0  0
  1  2  1  0
  2  3  1  0
  3  5  1  0
  3  4  1  1
  5  6  2  0
  7  5  1  0
  7  8  1  0
  8 15  1  0
  8  9  1  6
 10  9  1  0
 11 10  2  0
 12 13  1  0
 12 11  1  0
 13 14  2  0
 14 10  1  0
 15 16  2  0
 18 17  1  0
 19 18  2  0
 20 18  1  0
 21 20  1  1
 21 23  1  0
 22 21  1  0
 22 15  1  0
 23 25  1  0
 24 23  2  0
M  END
$$$$
