SHN.pdb
     RDKit          3D

 25 25  0  0  1  0  0  0  0  0999 V2000
   17.4624  -14.0560  -13.7618 O   0  0  0  0  0  0  0  0  0  0  0  0
   17.8754  -12.8789  -14.3438 C   0  0  0  0  0  0  0  0  0  0  0  0
   16.8247  -12.3761  -15.2785 C   0  0  2  0  0  0  0  0  0  0  0  0
   16.6186  -13.3309  -16.3879 N   0  0  0  0  0  0  0  0  0  0  0  0
   17.1233  -11.0514  -15.8532 C   0  0  0  0  0  0  0  0  0  0  0  0
   17.6519  -10.9678  -17.0130 O   0  0  0  0  0  0  0  0  0  0  0  0
   16.8432   -9.8602  -15.1682 N   0  0  0  0  0  0  0  0  0  0  0  0
   17.1956   -8.5814  -15.8084 C   0  0  1  0  0  0  0  0  0  0  0  0
   15.9416   -7.7627  -16.0379 C   0  0  0  0  0  0  0  0  0  0  0  0
   16.2680   -6.4519  -16.6321 C   0  0  0  0  0  0  0  0  0  0  0  0
   16.2749   -5.2221  -16.0251 C   0  0  0  0  0  0  0  0  0  0  0  0
   16.6152   -4.2874  -16.9315 N   0  0  0  0  0  0  0  0  0  0  0  0
   16.8184   -4.9399  -18.0983 C   0  0  0  0  0  0  0  0  0  0  0  0
   16.6120   -6.2519  -17.9334 N   0  0  0  0  0  0  0  0  0  0  0  0
   18.1796   -7.9182  -14.9343 C   0  0  0  0  0  0  0  0  0  0  0  0
   18.7527   -8.6274  -14.0705 O   0  0  0  0  0  0  0  0  0  0  0  0
   22.2173   -5.5431  -13.1469 N   0  0  0  0  0  0  0  0  0  0  0  0
   22.0404   -6.8092  -13.8115 C   0  0  0  0  0  0  0  0  0  0  0  0
   23.0564   -7.5387  -13.8526 O   0  0  0  0  0  0  0  0  0  0  0  0
   20.7438   -7.1855  -14.3893 C   0  0  0  0  0  0  0  0  0  0  0  0
   19.7327   -6.0870  -14.3063 C   0  0  2  0  0  0  0  0  0  0  0  0
   18.5291   -6.5521  -14.9904 N   0  0  0  0  0  0  0  0  0  0  0  0
   20.1793   -4.7886  -14.8210 C   0  0  0  0  0  0  0  0  0  0  0  0
   21.2043   -4.2586  -14.2618 O   0  0  0  0  0  0  0  0  0  0  0  0
   19.6185   -4.0622  -15.8497 O   0  0  0  0  0  0  0  0  0  0  0  0
  1  2  1  0
  2  3  1  0
  3  5  1  0
  3  4  1  6
  5  6  2  0
  7  5  1  0
  7  8  1  0
  8 15  1  0
  8  9  1  1
 10  9  1  0
 11 10  2  0
 12 13  1  0
 12 11  1  0
 13 14  2  0
 14 10  1  0
 15 16  2  0
 18 17  1  0
 19 18  2  0
 20 18  1  0
 21 20  1  6
 21 23  1  0
 22 21  1  0
 22 15  1  0
 23 25  1  0
 24 23  2  0
M  END
$$$$
