SHN.pdb
     RDKit          3D

 25 25  0  0  1  0  0  0  0  0999 V2000
   15.6200   -8.7271  -15.9024 O   0  0  0  0  0  0  0  0  0  0  0  0
   16.9539   -8.7145  -16.2423 C   0  0  0  0  0  0  0  0  0  0  0  0
   17.5870  -10.0152  -15.8709 C   0  0  2  0  0  0  0  0  0  0  0  0
   16.8753  -10.6307  -14.7308 N   0  0  0  0  0  0  0  0  0  0  0  0
   19.0157   -9.9044  -15.5234 C   0  0  0  0  0  0  0  0  0  0  0  0
   19.4049  -10.1914  -14.3412 O   0  0  0  0  0  0  0  0  0  0  0  0
   19.9806   -9.4931  -16.4543 N   0  0  0  0  0  0  0  0  0  0  0  0
   21.3813   -9.3823  -16.0126 C   0  0  1  0  0  0  0  0  0  0  0  0
   22.2958   -9.9850  -17.0595 C   0  0  0  0  0  0  0  0  0  0  0  0
   22.0378  -11.4294  -17.2176 C   0  0  0  0  0  0  0  0  0  0  0  0
   20.8518  -12.1017  -17.0682 C   0  0  0  0  0  0  0  0  0  0  0  0
   21.0601  -13.4130  -17.2880 N   0  0  0  0  0  0  0  0  0  0  0  0
   22.3748  -13.5505  -17.5733 C   0  0  0  0  0  0  0  0  0  0  0  0
   22.9808  -12.3577  -17.5347 N   0  0  0  0  0  0  0  0  0  0  0  0
   21.6410   -7.9544  -15.7562 C   0  0  0  0  0  0  0  0  0  0  0  0
   21.0681   -7.1219  -16.5021 O   0  0  0  0  0  0  0  0  0  0  0  0
   22.2925   -3.2325  -14.2900 N   0  0  0  0  0  0  0  0  0  0  0  0
   21.7845   -3.8759  -15.4749 C   0  0  0  0  0  0  0  0  0  0  0  0
   21.2478   -3.1135  -16.3097 O   0  0  0  0  0  0  0  0  0  0  0  0
   21.9052   -5.3280  -15.6579 C   0  0  0  0  0  0  0  0  0  0  0  0
   22.4994   -6.0136  -14.4692 C   0  0  2  0  0  0  0  0  0  0  0  0
   22.4807   -7.4483  -14.7411 N   0  0  0  0  0  0  0  0  0  0  0  0
   21.8641   -5.6984  -13.1857 C   0  0  0  0  0  0  0  0  0  0  0  0
   22.5326   -4.9763  -12.3637 O   0  0  0  0  0  0  0  0  0  0  0  0
   20.6155   -6.0928  -12.7547 O   0  0  0  0  0  0  0  0  0  0  0  0
  1  2  1  0
  2  3  1  0
  3  5  1  0
  3  4  1  1
  5  6  2  0
  7  5  1  0
  7  8  1  0
  8 15  1  0
  8  9  1  6
 10  9  1  0
 11 10  2  0
 12 13  1  0
 12 11  1  0
 13 14  2  0
 14 10  1  0
 15 16  2  0
 18 17  1  0
 19 18  2  0
 20 18  1  0
 21 20  1  6
 21 23  1  0
 22 21  1  0
 22 15  1  0
 23 25  1  0
 24 23  2  0
M  END
$$$$
