FEI.pdb
     RDKit          3D

 29 29  0  0  1  0  0  0  0  0999 V2000
   20.9703  -19.5630  -16.8710 N   0  0  0  0  0  0  0  0  0  0  0  0
   22.1719  -18.7863  -16.6486 C   0  0  1  0  0  0  0  0  0  0  0  0
   21.8051  -17.5437  -15.8891 C   0  0  0  0  0  0  0  0  0  0  0  0
   21.2706  -16.5606  -16.8532 C   0  0  0  0  0  0  0  0  0  0  0  0
   22.1187  -15.9240  -17.7164 C   0  0  0  0  0  0  0  0  0  0  0  0
   21.5846  -15.0028  -18.6132 C   0  0  0  0  0  0  0  0  0  0  0  0
   20.2351  -14.7484  -18.6205 C   0  0  0  0  0  0  0  0  0  0  0  0
   19.3951  -15.3970  -17.7457 C   0  0  0  0  0  0  0  0  0  0  0  0
   19.9261  -16.3018  -16.8662 C   0  0  0  0  0  0  0  0  0  0  0  0
   23.1283  -19.6265  -15.8197 C   0  0  0  0  0  0  0  0  0  0  0  0
   22.6907  -20.2551  -14.8277 O   0  0  0  0  0  0  0  0  0  0  0  0
   24.4965  -19.7014  -16.1593 N   0  0  0  0  0  0  0  0  0  0  0  0
   25.5183  -20.4444  -15.4707 C   0  0  1  0  0  0  0  0  0  0  0  0
   26.7971  -20.6616  -16.2598 C   0  0  0  0  0  0  0  0  0  0  0  0
   26.5729  -20.4453  -17.7112 C   0  0  0  0  0  0  0  0  0  0  0  0
   27.6113  -19.5513  -18.3135 C   0  0  0  0  0  0  0  0  0  0  0  0
   27.2637  -18.5873  -19.0372 O   0  0  0  0  0  0  0  0  0  0  0  0
   25.7078  -20.1087  -14.0703 C   0  0  0  0  0  0  0  0  0  0  0  0
   25.9247  -18.8828  -13.7756 O   0  0  0  0  0  0  0  0  0  0  0  0
   28.9493  -19.7840  -18.0753 O   0  0  0  0  0  0  0  0  0  0  0  0
   22.3343  -20.2664  -10.4570 C   0  0  0  0  0  0  0  0  0  0  0  0
   23.5548  -19.9026  -11.2769 C   0  0  0  0  0  0  0  0  0  0  0  0
   24.7145  -20.7148  -10.7400 C   0  0  2  0  0  0  0  0  0  0  0  0
   24.9623  -20.3627   -9.3082 C   0  0  0  0  0  0  0  0  0  0  0  0
   25.9426  -20.5964  -11.6100 C   0  0  2  0  0  0  0  0  0  0  0  0
   25.6783  -21.0016  -12.9789 N   0  0  0  0  0  0  0  0  0  0  0  0
   26.9635  -21.5213  -11.0567 C   0  0  0  0  0  0  0  0  0  0  0  0
   27.0070  -22.6870  -11.4782 O   0  0  0  0  0  0  0  0  0  0  0  0
   27.8668  -21.1230  -10.0863 O   0  0  0  0  0  0  0  0  0  0  0  0
  2  1  1  1
  2 10  1  0
  3  2  1  0
  4  3  1  0
  5  4  2  0
  6  5  1  0
  7  8  1  0
  7  6  2  0
  8  9  2  0
  9  4  1  0
 10 11  2  0
 12 10  1  0
 12 13  1  0
 13 14  1  6
 15 14  1  0
 16 20  1  0
 16 15  1  0
 17 16  2  0
 18 26  1  0
 18 13  1  0
 19 18  2  0
 21 22  1  0
 22 23  1  0
 23 25  1  0
 23 24  1  1
 25 27  1  0
 25 26  1  6
 27 29  1  0
 28 27  2  0
M  END
$$$$
