FEI.pdb
     RDKit          3D

 29 29  0  0  1  0  0  0  0  0999 V2000
   18.8436  -23.5695  -14.2734 N   0  0  0  0  0  0  0  0  0  0  0  0
   19.5847  -22.3533  -14.5340 C   0  0  1  0  0  0  0  0  0  0  0  0
   18.8792  -21.2096  -13.8633 C   0  0  0  0  0  0  0  0  0  0  0  0
   17.7270  -20.8275  -14.7049 C   0  0  0  0  0  0  0  0  0  0  0  0
   16.4736  -20.7787  -14.1606 C   0  0  0  0  0  0  0  0  0  0  0  0
   15.4080  -20.4151  -14.9795 C   0  0  0  0  0  0  0  0  0  0  0  0
   15.6244  -20.1149  -16.3020 C   0  0  0  0  0  0  0  0  0  0  0  0
   16.8912  -20.1688  -16.8346 C   0  0  0  0  0  0  0  0  0  0  0  0
   17.9350  -20.5269  -16.0244 C   0  0  0  0  0  0  0  0  0  0  0  0
   20.9741  -22.5129  -13.9410 C   0  0  0  0  0  0  0  0  0  0  0  0
   21.0946  -22.7606  -12.7183 O   0  0  0  0  0  0  0  0  0  0  0  0
   22.1206  -22.3845  -14.7545 N   0  0  0  0  0  0  0  0  0  0  0  0
   23.4928  -22.5074  -14.3395 C   0  0  1  0  0  0  0  0  0  0  0  0
   24.4569  -22.9438  -15.4281 C   0  0  0  0  0  0  0  0  0  0  0  0
   25.8246  -23.1380  -14.8846 C   0  0  0  0  0  0  0  0  0  0  0  0
   26.8174  -23.4530  -15.9593 C   0  0  0  0  0  0  0  0  0  0  0  0
   26.4422  -23.5340  -17.1537 O   0  0  0  0  0  0  0  0  0  0  0  0
   23.9847  -21.4565  -13.4657 C   0  0  0  0  0  0  0  0  0  0  0  0
   23.6483  -20.2518  -13.7348 O   0  0  0  0  0  0  0  0  0  0  0  0
   28.1436  -23.6546  -15.6407 O   0  0  0  0  0  0  0  0  0  0  0  0
   26.4713  -20.0909   -7.9964 C   0  0  0  0  0  0  0  0  0  0  0  0
   25.9626  -19.6001   -9.3361 C   0  0  0  0  0  0  0  0  0  0  0  0
   25.5555  -20.8199  -10.1357 C   0  0  2  0  0  0  0  0  0  0  0  0
   26.5037  -21.9442   -9.8665 C   0  0  0  0  0  0  0  0  0  0  0  0
   25.3925  -20.5087  -11.6040 C   0  0  2  0  0  0  0  0  0  0  0  0
   24.8076  -21.6204  -12.3320 N   0  0  0  0  0  0  0  0  0  0  0  0
   26.7502  -20.2742  -12.1565 C   0  0  0  0  0  0  0  0  0  0  0  0
   27.3925  -21.2394  -12.5975 O   0  0  0  0  0  0  0  0  0  0  0  0
   27.3203  -19.0134  -12.1945 O   0  0  0  0  0  0  0  0  0  0  0  0
  2  1  1  1
  2 10  1  0
  3  2  1  0
  4  3  1  0
  5  4  2  0
  6  5  1  0
  7  8  1  0
  7  6  2  0
  8  9  2  0
  9  4  1  0
 10 11  2  0
 12 10  1  0
 12 13  1  0
 13 14  1  6
 15 14  1  0
 16 20  1  0
 16 15  1  0
 17 16  2  0
 18 26  1  0
 18 13  1  0
 19 18  2  0
 21 22  1  0
 22 23  1  0
 23 25  1  0
 23 24  1  6
 25 27  1  0
 25 26  1  6
 27 29  1  0
 28 27  2  0
M  END
$$$$
