FEI.pdb
     RDKit          3D

 29 29  0  0  1  0  0  0  0  0999 V2000
   17.0751  -11.1340  -15.6893 N   0  0  0  0  0  0  0  0  0  0  0  0
   17.6260  -10.2178  -16.6657 C   0  0  1  0  0  0  0  0  0  0  0  0
   16.6140  -10.0152  -17.7567 C   0  0  0  0  0  0  0  0  0  0  0  0
   16.4952  -11.2805  -18.5096 C   0  0  0  0  0  0  0  0  0  0  0  0
   15.4616  -12.1355  -18.2441 C   0  0  0  0  0  0  0  0  0  0  0  0
   15.3768  -13.3201  -18.9704 C   0  0  0  0  0  0  0  0  0  0  0  0
   16.3163  -13.6114  -19.9289 C   0  0  0  0  0  0  0  0  0  0  0  0
   17.3500  -12.7410  -20.1841 C   0  0  0  0  0  0  0  0  0  0  0  0
   17.4281  -11.5777  -19.4667 C   0  0  0  0  0  0  0  0  0  0  0  0
   17.8962   -8.8949  -15.9694 C   0  0  0  0  0  0  0  0  0  0  0  0
   17.1876   -8.5606  -14.9912 O   0  0  0  0  0  0  0  0  0  0  0  0
   18.9333   -8.0476  -16.4160 N   0  0  0  0  0  0  0  0  0  0  0  0
   19.2990   -6.7678  -15.8697 C   0  0  1  0  0  0  0  0  0  0  0  0
   20.4986   -6.7852  -14.9392 C   0  0  0  0  0  0  0  0  0  0  0  0
   20.7820   -5.4288  -14.4069 C   0  0  0  0  0  0  0  0  0  0  0  0
   21.9893   -5.4127  -13.5224 C   0  0  0  0  0  0  0  0  0  0  0  0
   22.5705   -6.4872  -13.2371 O   0  0  0  0  0  0  0  0  0  0  0  0
   19.2537   -5.6497  -16.7958 C   0  0  0  0  0  0  0  0  0  0  0  0
   19.9911   -5.7105  -17.8396 O   0  0  0  0  0  0  0  0  0  0  0  0
   22.4648   -4.2200  -13.0198 O   0  0  0  0  0  0  0  0  0  0  0  0
   14.7944   -2.6414  -17.8384 C   0  0  0  0  0  0  0  0  0  0  0  0
   16.0339   -3.5093  -17.9072 C   0  0  0  0  0  0  0  0  0  0  0  0
   17.2257   -2.6106  -17.6523 C   0  0  2  0  0  0  0  0  0  0  0  0
   17.2312   -1.4825  -18.6335 C   0  0  0  0  0  0  0  0  0  0  0  0
   18.5225   -3.3828  -17.6157 C   0  0  2  0  0  0  0  0  0  0  0  0
   18.4720   -4.4826  -16.6693 N   0  0  0  0  0  0  0  0  0  0  0  0
   19.5790   -2.4452  -17.1592 C   0  0  0  0  0  0  0  0  0  0  0  0
   20.0417   -1.6250  -17.9666 O   0  0  0  0  0  0  0  0  0  0  0  0
   20.0627   -2.4583  -15.8623 O   0  0  0  0  0  0  0  0  0  0  0  0
  2  1  1  1
  2 10  1  0
  3  2  1  0
  4  3  1  0
  5  4  2  0
  6  5  1  0
  7  8  1  0
  7  6  2  0
  8  9  2  0
  9  4  1  0
 10 11  2  0
 12 10  1  0
 12 13  1  0
 13 14  1  6
 15 14  1  0
 16 20  1  0
 16 15  1  0
 17 16  2  0
 18 26  1  0
 18 13  1  0
 19 18  2  0
 21 22  1  0
 22 23  1  0
 23 25  1  0
 23 24  1  6
 25 27  1  0
 25 26  1  1
 27 29  1  0
 28 27  2  0
M  END
$$$$
