FEI.pdb
     RDKit          3D

 29 29  0  0  1  0  0  0  0  0999 V2000
   24.6717  -34.7997   -9.5764 N   0  0  0  0  0  0  0  0  0  0  0  0
   25.2584  -33.9087   -8.5976 C   0  0  1  0  0  0  0  0  0  0  0  0
   24.8848  -32.4974   -8.9499 C   0  0  0  0  0  0  0  0  0  0  0  0
   25.5475  -32.1546  -10.2248 C   0  0  0  0  0  0  0  0  0  0  0  0
   24.8168  -32.1057  -11.3796 C   0  0  0  0  0  0  0  0  0  0  0  0
   25.4700  -31.7796  -12.5650 C   0  0  0  0  0  0  0  0  0  0  0  0
   26.8177  -31.5154  -12.5609 C   0  0  0  0  0  0  0  0  0  0  0  0
   27.5386  -31.5688  -11.3909 C   0  0  0  0  0  0  0  0  0  0  0  0
   26.8908  -31.8899  -10.2285 C   0  0  0  0  0  0  0  0  0  0  0  0
   24.6852  -34.2626   -7.2360 C   0  0  0  0  0  0  0  0  0  0  0  0
   23.5334  -34.7514   -7.1635 O   0  0  0  0  0  0  0  0  0  0  0  0
   25.4381  -34.0451   -6.0619 N   0  0  0  0  0  0  0  0  0  0  0  0
   25.0531  -34.3741   -4.7152 C   0  0  1  0  0  0  0  0  0  0  0  0
   26.2064  -34.5971   -3.7532 C   0  0  0  0  0  0  0  0  0  0  0  0
   27.1469  -35.6205   -4.2744 C   0  0  0  0  0  0  0  0  0  0  0  0
   28.2843  -35.8699   -3.3341 C   0  0  0  0  0  0  0  0  0  0  0  0
   28.9282  -36.9445   -3.4017 O   0  0  0  0  0  0  0  0  0  0  0  0
   23.9374  -33.6172   -4.1747 C   0  0  0  0  0  0  0  0  0  0  0  0
   24.0245  -32.3408   -4.1814 O   0  0  0  0  0  0  0  0  0  0  0  0
   28.6267  -34.9220   -2.3932 O   0  0  0  0  0  0  0  0  0  0  0  0
   18.7607  -35.4426   -4.2108 C   0  0  0  0  0  0  0  0  0  0  0  0
   20.0059  -34.6001   -4.3954 C   0  0  0  0  0  0  0  0  0  0  0  0
   20.3674  -34.0303   -3.0399 C   0  0  2  0  0  0  0  0  0  0  0  0
   19.2462  -33.1836   -2.5286 C   0  0  0  0  0  0  0  0  0  0  0  0
   21.6986  -33.3186   -3.0589 C   0  0  2  0  0  0  0  0  0  0  0  0
   22.7462  -34.1437   -3.6332 N   0  0  0  0  0  0  0  0  0  0  0  0
   22.0681  -33.0406   -1.6482 C   0  0  0  0  0  0  0  0  0  0  0  0
   21.4907  -32.1214   -1.0478 O   0  0  0  0  0  0  0  0  0  0  0  0
   23.0355  -33.7744   -0.9837 O   0  0  0  0  0  0  0  0  0  0  0  0
  2  1  1  6
  2 10  1  0
  3  2  1  0
  4  3  1  0
  5  4  2  0
  6  5  1  0
  7  8  1  0
  7  6  2  0
  8  9  2  0
  9  4  1  0
 10 11  2  0
 12 10  1  0
 12 13  1  0
 13 14  1  1
 15 14  1  0
 16 20  1  0
 16 15  1  0
 17 16  2  0
 18 26  1  0
 18 13  1  0
 19 18  2  0
 21 22  1  0
 22 23  1  0
 23 25  1  0
 23 24  1  6
 25 27  1  0
 25 26  1  1
 27 29  1  0
 28 27  2  0
M  END
$$$$
