FEI.pdb
     RDKit          3D

 29 29  0  0  1  0  0  0  0  0999 V2000
   26.7531  -17.9583  -18.2910 N   0  0  0  0  0  0  0  0  0  0  0  0
   27.3533  -18.6225  -17.1531 C   0  0  1  0  0  0  0  0  0  0  0  0
   28.0943  -17.6013  -16.3385 C   0  0  0  0  0  0  0  0  0  0  0  0
   29.2844  -17.1815  -17.1062 C   0  0  0  0  0  0  0  0  0  0  0  0
   30.3408  -18.0384  -17.2460 C   0  0  0  0  0  0  0  0  0  0  0  0
   31.4480  -17.6136  -17.9753 C   0  0  0  0  0  0  0  0  0  0  0  0
   31.4662  -16.3602  -18.5362 C   0  0  0  0  0  0  0  0  0  0  0  0
   30.3957  -15.5100  -18.3864 C   0  0  0  0  0  0  0  0  0  0  0  0
   29.3098  -15.9332  -17.6683 C   0  0  0  0  0  0  0  0  0  0  0  0
   26.2370  -19.2272  -16.3188 C   0  0  0  0  0  0  0  0  0  0  0  0
   25.2023  -18.5550  -16.0990 O   0  0  0  0  0  0  0  0  0  0  0  0
   26.3593  -20.5322  -15.7944 N   0  0  0  0  0  0  0  0  0  0  0  0
   25.3812  -21.2465  -15.0178 C   0  0  1  0  0  0  0  0  0  0  0  0
   24.7388  -22.4278  -15.7226 C   0  0  0  0  0  0  0  0  0  0  0  0
   23.3491  -22.1115  -16.1376 C   0  0  0  0  0  0  0  0  0  0  0  0
   22.6670  -23.2884  -16.7621 C   0  0  0  0  0  0  0  0  0  0  0  0
   21.6351  -23.1185  -17.4550 O   0  0  0  0  0  0  0  0  0  0  0  0
   25.7236  -21.4720  -13.6243 C   0  0  0  0  0  0  0  0  0  0  0  0
   26.6479  -22.3185  -13.3675 O   0  0  0  0  0  0  0  0  0  0  0  0
   23.1695  -24.5591  -16.5782 O   0  0  0  0  0  0  0  0  0  0  0  0
   28.4305  -19.6677   -9.9297 C   0  0  0  0  0  0  0  0  0  0  0  0
   27.6179  -20.6214  -10.7810 C   0  0  0  0  0  0  0  0  0  0  0  0
   26.1835  -20.5387  -10.3029 C   0  0  2  0  0  0  0  0  0  0  0  0
   26.1134  -20.8657   -8.8456 C   0  0  0  0  0  0  0  0  0  0  0  0
   25.2525  -21.3705  -11.1517 C   0  0  2  0  0  0  0  0  0  0  0  0
   25.1389  -20.8493  -12.5020 N   0  0  0  0  0  0  0  0  0  0  0  0
   23.9074  -21.2988  -10.5276 C   0  0  0  0  0  0  0  0  0  0  0  0
   23.0914  -20.4692  -10.9568 O   0  0  0  0  0  0  0  0  0  0  0  0
   23.5370  -22.1282   -9.4831 O   0  0  0  0  0  0  0  0  0  0  0  0
  2  1  1  6
  2 10  1  0
  3  2  1  0
  4  3  1  0
  5  4  2  0
  6  5  1  0
  7  8  1  0
  7  6  2  0
  8  9  2  0
  9  4  1  0
 10 11  2  0
 12 10  1  0
 12 13  1  0
 13 14  1  6
 15 14  1  0
 16 20  1  0
 16 15  1  0
 17 16  2  0
 18 26  1  0
 18 13  1  0
 19 18  2  0
 21 22  1  0
 22 23  1  0
 23 25  1  0
 23 24  1  1
 25 27  1  0
 25 26  1  6
 27 29  1  0
 28 27  2  0
M  END
$$$$
