GIR.pdb
     RDKit          3D

 24 23  0  0  1  0  0  0  0  0999 V2000
    5.3463  -19.4915   24.9985 N   0  0  0  0  0  0  0  0  0  0  0  0
    5.7601  -18.5094   25.9564 C   0  0  0  0  0  0  0  0  0  0  0  0
    6.1806  -17.2472   25.2944 C   0  0  0  0  0  0  0  0  0  0  0  0
    6.1449  -17.1336   24.0576 O   0  0  0  0  0  0  0  0  0  0  0  0
    5.7313  -12.3123   27.7208 C   0  0  0  0  0  0  0  0  0  0  0  0
    5.7711  -13.4175   26.6880 C   0  0  0  0  0  0  0  0  0  0  0  0
    7.2002  -13.7577   26.3133 C   0  0  2  0  0  0  0  0  0  0  0  0
    7.8374  -12.5533   25.6545 C   0  0  0  0  0  0  0  0  0  0  0  0
    7.2752  -14.9743   25.4314 C   0  0  2  0  0  0  0  0  0  0  0  0
    6.6419  -16.1167   26.0574 N   0  0  0  0  0  0  0  0  0  0  0  0
    8.6876  -15.2986   25.0600 C   0  0  0  0  0  0  0  0  0  0  0  0
    9.3480  -16.0346   25.8231 O   0  0  0  0  0  0  0  0  0  0  0  0
    9.1398  -12.6658   17.8216 N   0  0  0  0  0  0  0  0  0  0  0  0
    8.6273  -13.9658   17.5604 C   0  0  0  0  0  0  0  0  0  0  0  0
    7.6365  -14.1062   16.7337 N   0  0  0  0  0  0  0  0  0  0  0  0
    9.1684  -15.1165   18.1784 N   0  0  0  0  0  0  0  0  0  0  0  0
   10.3696  -15.0005   19.0761 C   0  0  0  0  0  0  0  0  0  0  0  0
   10.0298  -15.7685   20.2814 C   0  0  0  0  0  0  0  0  0  0  0  0
    9.5197  -15.1690   21.5163 C   0  0  0  0  0  0  0  0  0  0  0  0
    9.8877  -15.6662   22.8344 C   0  0  2  0  0  0  0  0  0  0  0  0
    9.2756  -14.8008   23.8909 N   0  0  0  0  0  0  0  0  0  0  0  0
   11.3658  -15.5942   23.0988 C   0  0  0  0  0  0  0  0  0  0  0  0
   12.2209  -16.4405   22.3242 O   0  0  0  0  0  0  0  0  0  0  0  0
   11.9554  -14.8870   23.9100 O   0  0  0  0  0  0  0  0  0  0  0  0
  2  1  1  0
  3  2  1  0
  4  3  2  0
  5  6  1  0
  6  7  1  0
  7  9  1  0
  7  8  1  6
  9 10  1  1
 10  3  1  0
 11 21  1  0
 11  9  1  0
 12 11  2  0
 13 14  1  0
 14 15  2  0
 16 14  1  0
 17 16  1  0
 18 17  1  0
 19 18  1  0
 20 19  1  6
 20 21  1  0
 22 20  1  0
 22 23  1  0
 24 22  2  0
M  END
$$$$
