GIR.pdb
     RDKit          3D

 24 23  0  0  1  0  0  0  0  0999 V2000
    7.5315  -14.9036   20.2856 N   0  0  0  0  0  0  0  0  0  0  0  0
    6.7763  -15.1602   21.4760 C   0  0  0  0  0  0  0  0  0  0  0  0
    7.5723  -14.8731   22.6976 C   0  0  0  0  0  0  0  0  0  0  0  0
    8.8044  -15.0333   22.7077 O   0  0  0  0  0  0  0  0  0  0  0  0
    5.6709  -11.3187   26.4538 C   0  0  0  0  0  0  0  0  0  0  0  0
    6.5468  -12.1178   25.5136 C   0  0  0  0  0  0  0  0  0  0  0  0
    6.9588  -13.4337   26.1438 C   0  0  2  0  0  0  0  0  0  0  0  0
    7.8173  -13.1516   27.3580 C   0  0  0  0  0  0  0  0  0  0  0  0
    7.6658  -14.3291   25.1631 C   0  0  2  0  0  0  0  0  0  0  0  0
    6.9486  -14.4018   23.9067 N   0  0  0  0  0  0  0  0  0  0  0  0
    7.8779  -15.6999   25.7233 C   0  0  0  0  0  0  0  0  0  0  0  0
    6.9337  -16.5158   25.6696 O   0  0  0  0  0  0  0  0  0  0  0  0
    6.4759  -19.5194   22.0978 N   0  0  0  0  0  0  0  0  0  0  0  0
    6.5649  -20.3791   23.2264 C   0  0  0  0  0  0  0  0  0  0  0  0
    5.4957  -20.9727   23.6616 N   0  0  0  0  0  0  0  0  0  0  0  0
    7.7909  -20.6076   23.8924 N   0  0  0  0  0  0  0  0  0  0  0  0
    9.0264  -19.8527   23.4854 C   0  0  0  0  0  0  0  0  0  0  0  0
    8.9035  -18.5341   24.1213 C   0  0  0  0  0  0  0  0  0  0  0  0
    9.9082  -17.9634   25.0211 C   0  0  0  0  0  0  0  0  0  0  0  0
    9.5798  -17.4961   26.3604 C   0  0  2  0  0  0  0  0  0  0  0  0
    9.0962  -16.0811   26.2984 N   0  0  0  0  0  0  0  0  0  0  0  0
   10.7719  -17.4465   27.2749 C   0  0  0  0  0  0  0  0  0  0  0  0
   11.4964  -16.2152   27.3552 O   0  0  0  0  0  0  0  0  0  0  0  0
   11.2196  -18.3430   27.9832 O   0  0  0  0  0  0  0  0  0  0  0  0
  2  1  1  0
  3  2  1  0
  4  3  2  0
  5  6  1  0
  6  7  1  0
  7  9  1  0
  7  8  1  1
  9 10  1  6
 10  3  1  0
 11 21  1  0
 11  9  1  0
 12 11  2  0
 13 14  1  0
 14 15  2  0
 16 14  1  0
 17 16  1  0
 18 17  1  0
 19 18  1  0
 20 19  1  6
 20 21  1  0
 22 20  1  0
 22 23  1  0
 24 22  2  0
M  END
$$$$
