GIR.pdb
     RDKit          3D

 24 23  0  0  1  0  0  0  0  0999 V2000
    4.6246  -17.8939   22.6641 N   0  0  0  0  0  0  0  0  0  0  0  0
    4.9719  -17.5920   24.0211 C   0  0  0  0  0  0  0  0  0  0  0  0
    6.0867  -16.6120   24.0921 C   0  0  0  0  0  0  0  0  0  0  0  0
    6.9321  -16.5415   23.1844 O   0  0  0  0  0  0  0  0  0  0  0  0
    5.7468  -11.8543   26.8853 C   0  0  0  0  0  0  0  0  0  0  0  0
    6.1192  -12.8944   25.8513 C   0  0  0  0  0  0  0  0  0  0  0  0
    7.2092  -13.8103   26.3721 C   0  0  2  0  0  0  0  0  0  0  0  0
    8.4711  -13.0026   26.5872 C   0  0  0  0  0  0  0  0  0  0  0  0
    7.4496  -14.9768   25.4529 C   0  0  2  0  0  0  0  0  0  0  0  0
    6.2267  -15.7138   25.2087 N   0  0  0  0  0  0  0  0  0  0  0  0
    8.5107  -15.8872   25.9848 C   0  0  0  0  0  0  0  0  0  0  0  0
    8.2671  -16.5412   27.0209 O   0  0  0  0  0  0  0  0  0  0  0  0
   10.0815  -16.7551   20.4159 N   0  0  0  0  0  0  0  0  0  0  0  0
   10.8308  -17.9528   20.2587 C   0  0  0  0  0  0  0  0  0  0  0  0
   10.4882  -18.8033   19.3400 N   0  0  0  0  0  0  0  0  0  0  0  0
   11.9448  -18.2461   21.0785 N   0  0  0  0  0  0  0  0  0  0  0  0
   12.3622  -17.2885   22.1606 C   0  0  0  0  0  0  0  0  0  0  0  0
   11.6267  -17.7121   23.3596 C   0  0  0  0  0  0  0  0  0  0  0  0
   11.8020  -17.1085   24.6823 C   0  0  0  0  0  0  0  0  0  0  0  0
   10.7417  -17.0949   25.6800 C   0  0  2  0  0  0  0  0  0  0  0  0
    9.7536  -16.0192   25.3539 N   0  0  0  0  0  0  0  0  0  0  0  0
   11.2343  -16.7483   27.0574 C   0  0  0  0  0  0  0  0  0  0  0  0
   11.8360  -17.7919   27.8294 O   0  0  0  0  0  0  0  0  0  0  0  0
   11.1909  -15.6611   27.6247 O   0  0  0  0  0  0  0  0  0  0  0  0
  2  1  1  0
  3  2  1  0
  4  3  2  0
  5  6  1  0
  6  7  1  0
  7  9  1  0
  7  8  1  6
  9 10  1  1
 10  3  1  0
 11 21  1  0
 11  9  1  0
 12 11  2  0
 13 14  1  0
 14 15  2  0
 16 14  1  0
 17 16  1  0
 18 17  1  0
 19 18  1  0
 20 19  1  6
 20 21  1  0
 22 20  1  0
 22 23  1  0
 24 22  2  0
M  END
$$$$
