GIR.pdb
     RDKit          3D

 24 23  0  0  1  0  0  0  0  0999 V2000
   10.7107  -17.8270   16.5978 N   0  0  0  0  0  0  0  0  0  0  0  0
    9.6745  -17.7893   17.5869 C   0  0  0  0  0  0  0  0  0  0  0  0
    9.9701  -16.7904   18.6466 C   0  0  0  0  0  0  0  0  0  0  0  0
   11.1158  -16.3306   18.7873 O   0  0  0  0  0  0  0  0  0  0  0  0
    6.4510  -12.8735   19.9681 C   0  0  0  0  0  0  0  0  0  0  0  0
    7.7119  -13.6701   19.7128 C   0  0  0  0  0  0  0  0  0  0  0  0
    8.0773  -14.5086   20.9219 C   0  0  2  0  0  0  0  0  0  0  0  0
    8.3626  -13.5903   22.0908 C   0  0  0  0  0  0  0  0  0  0  0  0
    9.2385  -15.4230   20.6412 C   0  0  2  0  0  0  0  0  0  0  0  0
    8.9459  -16.3217   19.5435 N   0  0  0  0  0  0  0  0  0  0  0  0
    9.6363  -16.1969   21.8580 C   0  0  0  0  0  0  0  0  0  0  0  0
    8.9370  -17.1760   22.1936 O   0  0  0  0  0  0  0  0  0  0  0  0
   18.1048  -17.1250   24.0136 N   0  0  0  0  0  0  0  0  0  0  0  0
   17.1952  -16.6670   23.0218 C   0  0  0  0  0  0  0  0  0  0  0  0
   17.4426  -16.9068   21.7704 N   0  0  0  0  0  0  0  0  0  0  0  0
   16.0224  -15.9539   23.3608 N   0  0  0  0  0  0  0  0  0  0  0  0
   15.0793  -16.4965   24.3992 C   0  0  0  0  0  0  0  0  0  0  0  0
   13.7859  -16.6331   23.7162 C   0  0  0  0  0  0  0  0  0  0  0  0
   12.5219  -16.1189   24.2481 C   0  0  0  0  0  0  0  0  0  0  0  0
   11.2286  -16.6241   23.8101 C   0  0  2  0  0  0  0  0  0  0  0  0
   10.7605  -15.8508   22.6173 N   0  0  0  0  0  0  0  0  0  0  0  0
   10.1442  -16.4305   24.8331 C   0  0  0  0  0  0  0  0  0  0  0  0
    9.8910  -17.5047   25.7437 O   0  0  0  0  0  0  0  0  0  0  0  0
    9.4280  -15.4481   24.9993 O   0  0  0  0  0  0  0  0  0  0  0  0
  2  1  1  0
  3  2  1  0
  4  3  2  0
  5  6  1  0
  6  7  1  0
  7  9  1  0
  7  8  1  1
  9 10  1  6
 10  3  1  0
 11 21  1  0
 11  9  1  0
 12 11  2  0
 13 14  1  0
 14 15  2  0
 16 14  1  0
 17 16  1  0
 18 17  1  0
 19 18  1  0
 20 19  1  1
 20 21  1  0
 22 20  1  0
 22 23  1  0
 24 22  2  0
M  END
$$$$
