GIR.pdb
     RDKit          3D

 24 23  0  0  1  0  0  0  0  0999 V2000
    6.8970  -14.8876   20.0292 N   0  0  0  0  0  0  0  0  0  0  0  0
    6.2257  -14.6459   21.2719 C   0  0  0  0  0  0  0  0  0  0  0  0
    7.1921  -14.4743   22.3877 C   0  0  0  0  0  0  0  0  0  0  0  0
    8.3794  -14.8176   22.2610 O   0  0  0  0  0  0  0  0  0  0  0  0
    6.0985  -11.3283   27.1962 C   0  0  0  0  0  0  0  0  0  0  0  0
    6.1585  -12.4938   26.2332 C   0  0  0  0  0  0  0  0  0  0  0  0
    7.5105  -12.5639   25.5508 C   0  0  2  0  0  0  0  0  0  0  0  0
    7.6746  -11.3543   24.6560 C   0  0  0  0  0  0  0  0  0  0  0  0
    7.6871  -13.8464   24.7843 C   0  0  2  0  0  0  0  0  0  0  0  0
    6.7900  -13.9073   23.6487 N   0  0  0  0  0  0  0  0  0  0  0  0
    7.4997  -15.0428   25.6626 C   0  0  0  0  0  0  0  0  0  0  0  0
    6.3591  -15.2729   26.1169 O   0  0  0  0  0  0  0  0  0  0  0  0
    5.8208  -20.3898   21.8210 N   0  0  0  0  0  0  0  0  0  0  0  0
    5.8749  -20.8330   23.1706 C   0  0  0  0  0  0  0  0  0  0  0  0
    5.5376  -22.0538   23.4547 N   0  0  0  0  0  0  0  0  0  0  0  0
    6.2878  -19.9780   24.2182 N   0  0  0  0  0  0  0  0  0  0  0  0
    6.6037  -18.5344   23.9380 C   0  0  0  0  0  0  0  0  0  0  0  0
    7.8234  -18.2474   24.7048 C   0  0  0  0  0  0  0  0  0  0  0  0
    7.8790  -18.2068   26.1677 C   0  0  0  0  0  0  0  0  0  0  0  0
    8.4359  -17.0755   26.8957 C   0  0  2  0  0  0  0  0  0  0  0  0
    8.5619  -15.8975   25.9811 N   0  0  0  0  0  0  0  0  0  0  0  0
    9.8353  -17.3226   27.3859 C   0  0  0  0  0  0  0  0  0  0  0  0
   10.0184  -18.3172   28.3981 O   0  0  0  0  0  0  0  0  0  0  0  0
   10.8713  -16.7731   27.0245 O   0  0  0  0  0  0  0  0  0  0  0  0
  2  1  1  0
  3  2  1  0
  4  3  2  0
  5  6  1  0
  6  7  1  0
  7  9  1  0
  7  8  1  6
  9 10  1  6
 10  3  1  0
 11 21  1  0
 11  9  1  0
 12 11  2  0
 13 14  1  0
 14 15  2  0
 16 14  1  0
 17 16  1  0
 18 17  1  0
 19 18  1  0
 20 19  1  6
 20 21  1  0
 22 20  1  0
 22 23  1  0
 24 22  2  0
M  END
$$$$
