GIR.pdb
     RDKit          3D

 24 23  0  0  1  0  0  0  0  0999 V2000
    4.8965  -19.2257   25.2076 N   0  0  0  0  0  0  0  0  0  0  0  0
    5.6201  -18.4250   26.1504 C   0  0  0  0  0  0  0  0  0  0  0  0
    6.1284  -17.1759   25.5261 C   0  0  0  0  0  0  0  0  0  0  0  0
    6.0070  -16.9784   24.3054 O   0  0  0  0  0  0  0  0  0  0  0  0
    5.6967  -12.6907   26.2582 C   0  0  0  0  0  0  0  0  0  0  0  0
    6.5217  -13.4187   27.2970 C   0  0  0  0  0  0  0  0  0  0  0  0
    7.7941  -13.9731   26.6871 C   0  0  2  0  0  0  0  0  0  0  0  0
    8.5735  -12.8392   26.0564 C   0  0  0  0  0  0  0  0  0  0  0  0
    7.5109  -15.0680   25.6950 C   0  0  2  0  0  0  0  0  0  0  0  0
    6.7762  -16.1553   26.3083 N   0  0  0  0  0  0  0  0  0  0  0  0
    8.7678  -15.5776   25.0639 C   0  0  0  0  0  0  0  0  0  0  0  0
    9.5683  -16.2234   25.7726 O   0  0  0  0  0  0  0  0  0  0  0  0
    6.7150  -13.9059   19.4038 N   0  0  0  0  0  0  0  0  0  0  0  0
    8.0498  -13.5002   19.1309 C   0  0  0  0  0  0  0  0  0  0  0  0
    8.2998  -12.2488   18.8933 N   0  0  0  0  0  0  0  0  0  0  0  0
    9.1189  -14.4251   19.1106 N   0  0  0  0  0  0  0  0  0  0  0  0
    8.8504  -15.8969   19.2652 C   0  0  0  0  0  0  0  0  0  0  0  0
    8.9391  -16.1589   20.7079 C   0  0  0  0  0  0  0  0  0  0  0  0
   10.0598  -15.7330   21.5490 C   0  0  0  0  0  0  0  0  0  0  0  0
   10.1415  -16.0627   22.9648 C   0  0  2  0  0  0  0  0  0  0  0  0
    9.0607  -15.3483   23.7141 N   0  0  0  0  0  0  0  0  0  0  0  0
   11.4175  -15.5925   23.6056 C   0  0  0  0  0  0  0  0  0  0  0  0
   12.5598  -16.4497   23.5177 O   0  0  0  0  0  0  0  0  0  0  0  0
   11.6187  -14.5432   24.2092 O   0  0  0  0  0  0  0  0  0  0  0  0
  2  1  1  0
  3  2  1  0
  4  3  2  0
  5  6  1  0
  6  7  1  0
  7  9  1  0
  7  8  1  6
  9 10  1  1
 10  3  1  0
 11 21  1  0
 11  9  1  0
 12 11  2  0
 13 14  1  0
 14 15  2  0
 16 14  1  0
 17 16  1  0
 18 17  1  0
 19 18  1  0
 20 19  1  6
 20 21  1  0
 22 20  1  0
 22 23  1  0
 24 22  2  0
M  END
$$$$
