GIR.pdb
     RDKit          3D

 24 23  0  0  1  0  0  0  0  0999 V2000
    8.6517  -17.1083   14.6700 N   0  0  0  0  0  0  0  0  0  0  0  0
    7.9411  -16.8624   15.8899 C   0  0  0  0  0  0  0  0  0  0  0  0
    8.8109  -16.2123   16.9043 C   0  0  0  0  0  0  0  0  0  0  0  0
   10.0486  -16.2828   16.8220 O   0  0  0  0  0  0  0  0  0  0  0  0
    6.8905  -11.8004   19.5424 C   0  0  0  0  0  0  0  0  0  0  0  0
    7.8531  -12.7295   18.8353 C   0  0  0  0  0  0  0  0  0  0  0  0
    8.3609  -13.8031   19.7776 C   0  0  2  0  0  0  0  0  0  0  0  0
    9.2392  -13.1607   20.8296 C   0  0  0  0  0  0  0  0  0  0  0  0
    9.0877  -14.8969   19.0435 C   0  0  2  0  0  0  0  0  0  0  0  0
    8.2543  -15.4814   18.0130 N   0  0  0  0  0  0  0  0  0  0  0  0
    9.5801  -15.9549   19.9795 C   0  0  0  0  0  0  0  0  0  0  0  0
    8.7448  -16.7293   20.4922 O   0  0  0  0  0  0  0  0  0  0  0  0
   14.8123  -15.4567   17.2077 N   0  0  0  0  0  0  0  0  0  0  0  0
   15.8261  -15.4342   18.2040 C   0  0  0  0  0  0  0  0  0  0  0  0
   16.6602  -14.4405   18.2425 N   0  0  0  0  0  0  0  0  0  0  0  0
   15.9529  -16.4687   19.1594 N   0  0  0  0  0  0  0  0  0  0  0  0
   14.9408  -17.5800   19.2117 C   0  0  0  0  0  0  0  0  0  0  0  0
   13.8264  -17.0536   20.0111 C   0  0  0  0  0  0  0  0  0  0  0  0
   12.6245  -17.8213   20.3440 C   0  0  0  0  0  0  0  0  0  0  0  0
   11.5027  -17.2392   21.0669 C   0  0  2  0  0  0  0  0  0  0  0  0
   10.9388  -16.0924   20.2880 N   0  0  0  0  0  0  0  0  0  0  0  0
   11.9011  -16.6383   22.3860 C   0  0  0  0  0  0  0  0  0  0  0  0
   12.1608  -17.5331   23.4719 O   0  0  0  0  0  0  0  0  0  0  0  0
   12.0396  -15.4514   22.6654 O   0  0  0  0  0  0  0  0  0  0  0  0
  2  1  1  0
  3  2  1  0
  4  3  2  0
  5  6  1  0
  6  7  1  0
  7  9  1  0
  7  8  1  1
  9 10  1  6
 10  3  1  0
 11 21  1  0
 11  9  1  0
 12 11  2  0
 13 14  1  0
 14 15  2  0
 16 14  1  0
 17 16  1  0
 18 17  1  0
 19 18  1  0
 20 19  1  6
 20 21  1  0
 22 20  1  0
 22 23  1  0
 24 22  2  0
M  END
$$$$
