GIR.pdb
     RDKit          3D

 24 23  0  0  1  0  0  0  0  0999 V2000
    6.4586  -15.4659   19.9825 N   0  0  0  0  0  0  0  0  0  0  0  0
    6.2388  -15.6983   21.3793 C   0  0  0  0  0  0  0  0  0  0  0  0
    7.2940  -15.0613   22.2094 C   0  0  0  0  0  0  0  0  0  0  0  0
    8.4192  -14.8248   21.7385 O   0  0  0  0  0  0  0  0  0  0  0  0
    5.8313  -11.8380   26.4007 C   0  0  0  0  0  0  0  0  0  0  0  0
    6.5820  -12.3858   25.2067 C   0  0  0  0  0  0  0  0  0  0  0  0
    7.5524  -13.4717   25.6283 C   0  0  2  0  0  0  0  0  0  0  0  0
    8.6516  -12.8532   26.4650 C   0  0  0  0  0  0  0  0  0  0  0  0
    8.1103  -14.2165   24.4461 C   0  0  2  0  0  0  0  0  0  0  0  0
    7.0524  -14.6972   23.5813 N   0  0  0  0  0  0  0  0  0  0  0  0
    8.9901  -15.3482   24.8739 C   0  0  0  0  0  0  0  0  0  0  0  0
    8.4622  -16.4573   25.1012 O   0  0  0  0  0  0  0  0  0  0  0  0
   11.0500  -14.9563   29.1566 N   0  0  0  0  0  0  0  0  0  0  0  0
   10.9234  -15.9349   30.1799 C   0  0  0  0  0  0  0  0  0  0  0  0
   11.0892  -15.5864   31.4192 N   0  0  0  0  0  0  0  0  0  0  0  0
   10.6203  -17.2841   29.8854 N   0  0  0  0  0  0  0  0  0  0  0  0
   11.0910  -17.9026   28.5978 C   0  0  0  0  0  0  0  0  0  0  0  0
   10.4767  -17.0985   27.5328 C   0  0  0  0  0  0  0  0  0  0  0  0
   10.7003  -17.3265   26.1036 C   0  0  0  0  0  0  0  0  0  0  0  0
   11.3203  -16.3295   25.2425 C   0  0  2  0  0  0  0  0  0  0  0  0
   10.3734  -15.1915   25.0225 N   0  0  0  0  0  0  0  0  0  0  0  0
   11.6149  -16.8460   23.8618 C   0  0  0  0  0  0  0  0  0  0  0  0
   12.7702  -16.3312   23.1928 O   0  0  0  0  0  0  0  0  0  0  0  0
   10.9826  -17.6738   23.2131 O   0  0  0  0  0  0  0  0  0  0  0  0
  2  1  1  0
  3  2  1  0
  4  3  2  0
  5  6  1  0
  6  7  1  0
  7  9  1  0
  7  8  1  6
  9 10  1  1
 10  3  1  0
 11 21  1  0
 11  9  1  0
 12 11  2  0
 13 14  1  0
 14 15  2  0
 16 14  1  0
 17 16  1  0
 18 17  1  0
 19 18  1  0
 20 19  1  1
 20 21  1  0
 22 20  1  0
 22 23  1  0
 24 22  2  0
M  END
$$$$
