GIR.pdb
     RDKit          3D

 24 23  0  0  1  0  0  0  0  0999 V2000
    6.6302  -14.4159   20.1808 N   0  0  0  0  0  0  0  0  0  0  0  0
    6.1716  -14.8748   21.4586 C   0  0  0  0  0  0  0  0  0  0  0  0
    7.1464  -14.5542   22.5335 C   0  0  0  0  0  0  0  0  0  0  0  0
    8.3691  -14.5839   22.3146 O   0  0  0  0  0  0  0  0  0  0  0  0
    5.7007  -11.0955   26.5220 C   0  0  0  0  0  0  0  0  0  0  0  0
    6.4341  -11.8710   25.4494 C   0  0  0  0  0  0  0  0  0  0  0  0
    7.0592  -13.1282   26.0214 C   0  0  2  0  0  0  0  0  0  0  0  0
    8.0969  -12.7381   27.0518 C   0  0  0  0  0  0  0  0  0  0  0  0
    7.6481  -14.0015   24.9471 C   0  0  2  0  0  0  0  0  0  0  0  0
    6.7120  -14.1999   23.8597 N   0  0  0  0  0  0  0  0  0  0  0  0
    8.0997  -15.3184   25.4944 C   0  0  0  0  0  0  0  0  0  0  0  0
    7.2449  -16.0749   26.0017 O   0  0  0  0  0  0  0  0  0  0  0  0
   12.3198  -18.1169   19.6357 N   0  0  0  0  0  0  0  0  0  0  0  0
   10.9560  -18.3874   19.9317 C   0  0  0  0  0  0  0  0  0  0  0  0
   10.1232  -18.6024   18.9596 N   0  0  0  0  0  0  0  0  0  0  0  0
   10.4777  -18.4291   21.2615 N   0  0  0  0  0  0  0  0  0  0  0  0
   11.2073  -17.6945   22.3525 C   0  0  0  0  0  0  0  0  0  0  0  0
   10.5166  -18.0598   23.5964 C   0  0  0  0  0  0  0  0  0  0  0  0
   10.9003  -17.5654   24.9205 C   0  0  0  0  0  0  0  0  0  0  0  0
    9.9251  -17.0645   25.8786 C   0  0  2  0  0  0  0  0  0  0  0  0
    9.4418  -15.7144   25.4502 N   0  0  0  0  0  0  0  0  0  0  0  0
   10.5063  -16.8394   27.2466 C   0  0  0  0  0  0  0  0  0  0  0  0
   10.9031  -17.9912   27.9971 O   0  0  0  0  0  0  0  0  0  0  0  0
   10.6936  -15.7722   27.8224 O   0  0  0  0  0  0  0  0  0  0  0  0
  2  1  1  0
  3  2  1  0
  4  3  2  0
  5  6  1  0
  6  7  1  0
  7  9  1  0
  7  8  1  1
  9 10  1  6
 10  3  1  0
 11 21  1  0
 11  9  1  0
 12 11  2  0
 13 14  1  0
 14 15  2  0
 16 14  1  0
 17 16  1  0
 18 17  1  0
 19 18  1  0
 20 19  1  6
 20 21  1  0
 22 20  1  0
 22 23  1  0
 24 22  2  0
M  END
$$$$
