GIR.pdb
     RDKit          3D

 24 23  0  0  1  0  0  0  0  0999 V2000
    6.3209  -14.3967   20.2062 N   0  0  0  0  0  0  0  0  0  0  0  0
    5.9152  -14.5795   21.5683 C   0  0  0  0  0  0  0  0  0  0  0  0
    7.0209  -14.2694   22.5114 C   0  0  0  0  0  0  0  0  0  0  0  0
    8.1728  -14.0590   22.0960 O   0  0  0  0  0  0  0  0  0  0  0  0
    6.0405  -11.3325   26.9258 C   0  0  0  0  0  0  0  0  0  0  0  0
    6.7417  -11.9316   25.7261 C   0  0  0  0  0  0  0  0  0  0  0  0
    7.4106  -13.2430   26.0884 C   0  0  2  0  0  0  0  0  0  0  0  0
    8.5490  -12.9675   27.0471 C   0  0  0  0  0  0  0  0  0  0  0  0
    7.8825  -13.9885   24.8698 C   0  0  2  0  0  0  0  0  0  0  0  0
    6.7990  -14.2019   23.9324 N   0  0  0  0  0  0  0  0  0  0  0  0
    8.5217  -15.2908   25.2345 C   0  0  0  0  0  0  0  0  0  0  0  0
    7.8027  -16.1898   25.7193 O   0  0  0  0  0  0  0  0  0  0  0  0
   15.5138  -15.4201   23.0005 N   0  0  0  0  0  0  0  0  0  0  0  0
   15.9202  -16.5151   23.8108 C   0  0  0  0  0  0  0  0  0  0  0  0
   17.1853  -16.7698   23.9506 N   0  0  0  0  0  0  0  0  0  0  0  0
   14.9813  -17.3394   24.4725 N   0  0  0  0  0  0  0  0  0  0  0  0
   13.9454  -18.0923   23.6836 C   0  0  0  0  0  0  0  0  0  0  0  0
   12.7134  -18.0077   24.4792 C   0  0  0  0  0  0  0  0  0  0  0  0
   11.7507  -16.9084   24.3814 C   0  0  0  0  0  0  0  0  0  0  0  0
   10.5357  -16.8624   25.1823 C   0  0  2  0  0  0  0  0  0  0  0  0
    9.8902  -15.5190   25.0461 N   0  0  0  0  0  0  0  0  0  0  0  0
   10.7965  -17.0068   26.6557 C   0  0  0  0  0  0  0  0  0  0  0  0
   10.9736  -18.3294   27.1721 O   0  0  0  0  0  0  0  0  0  0  0  0
   10.8824  -16.1196   27.4991 O   0  0  0  0  0  0  0  0  0  0  0  0
  2  1  1  0
  3  2  1  0
  4  3  2  0
  5  6  1  0
  6  7  1  0
  7  9  1  0
  7  8  1  1
  9 10  1  6
 10  3  1  0
 11 21  1  0
 11  9  1  0
 12 11  2  0
 13 14  1  0
 14 15  2  0
 16 14  1  0
 17 16  1  0
 18 17  1  0
 19 18  1  0
 20 19  1  6
 20 21  1  0
 22 20  1  0
 22 23  1  0
 24 22  2  0
M  END
$$$$
