VED.pdb
     RDKit          3D

 25 24  0  0  1  0  0  0  0  0999 V2000
    7.8263  -11.9062   19.1118 C   0  0  0  0  0  0  0  0  0  0  0  0
    8.9205  -12.8613   19.5009 C   0  0  1  0  0  0  0  0  0  0  0  0
    8.4972  -13.6818   20.6732 C   0  0  0  0  0  0  0  0  0  0  0  0
    9.3169  -13.7451   18.3091 C   0  0  2  0  0  0  0  0  0  0  0  0
    8.1147  -14.4906   17.9820 N   0  0  0  0  0  0  0  0  0  0  0  0
   10.4073  -14.6392   18.7744 C   0  0  0  0  0  0  0  0  0  0  0  0
   10.1403  -15.7780   19.2365 O   0  0  0  0  0  0  0  0  0  0  0  0
   11.7891  -14.2876   18.7338 N   0  0  0  0  0  0  0  0  0  0  0  0
   12.8255  -15.1952   19.1826 C   0  0  1  0  0  0  0  0  0  0  0  0
   14.0446  -14.8876   18.3193 C   0  0  0  0  0  0  0  0  0  0  0  0
   13.9972  -15.6088   16.9885 C   0  0  0  0  0  0  0  0  0  0  0  0
   15.2749  -15.4147   16.2939 C   0  0  0  0  0  0  0  0  0  0  0  0
   15.3678  -14.5887   15.3537 O   0  0  0  0  0  0  0  0  0  0  0  0
   13.1320  -15.0214   20.6174 C   0  0  0  0  0  0  0  0  0  0  0  0
   13.3779  -13.9023   21.1358 O   0  0  0  0  0  0  0  0  0  0  0  0
   16.4160  -16.1314   16.6487 O   0  0  0  0  0  0  0  0  0  0  0  0
   13.1511  -16.1522   21.4477 N   0  0  0  0  0  0  0  0  0  0  0  0
   13.5803  -16.0219   22.8573 C   0  0  1  0  0  0  0  0  0  0  0  0
   12.9972  -17.1316   23.6638 C   0  0  0  0  0  0  0  0  0  0  0  0
   11.5437  -17.2415   23.6784 C   0  0  0  0  0  0  0  0  0  0  0  0
   10.7829  -16.2854   23.8554 O   0  0  0  0  0  0  0  0  0  0  0  0
   15.0620  -15.9960   22.8923 C   0  0  0  0  0  0  0  0  0  0  0  0
   15.7649  -16.2297   21.8589 O   0  0  0  0  0  0  0  0  0  0  0  0
   10.9447  -18.4891   23.4838 O   0  0  0  0  0  0  0  0  0  0  0  0
   15.7290  -15.7159   24.0493 O   0  0  0  0  0  0  0  0  0  0  0  0
  2  4  1  0
  2  3  1  1
  2  1  1  0
  4  5  1  1
  6  7  2  0
  6  4  1  0
  8  6  1  0
  9  8  1  0
  9 10  1  6
 11 10  1  0
 12 11  1  0
 13 12  2  0
 14  9  1  0
 15 14  2  0
 16 12  1  0
 17 14  1  0
 18 17  1  0
 18 22  1  0
 19 20  1  0
 18 19  1  1
 20 24  1  0
 20 21  2  0
 22 25  1  0
 23 22  2  0
M  END
$$$$
