VED.pdb
     RDKit          3D

 25 24  0  0  1  0  0  0  0  0999 V2000
    6.8891  -11.5139   26.4340 C   0  0  0  0  0  0  0  0  0  0  0  0
    7.5401  -12.7586   25.8975 C   0  0  1  0  0  0  0  0  0  0  0  0
    8.2948  -13.4546   26.9804 C   0  0  0  0  0  0  0  0  0  0  0  0
    6.4947  -13.6831   25.2564 C   0  0  2  0  0  0  0  0  0  0  0  0
    5.7623  -14.2494   26.3748 N   0  0  0  0  0  0  0  0  0  0  0  0
    7.2386  -14.7250   24.5040 C   0  0  0  0  0  0  0  0  0  0  0  0
    7.2837  -15.9064   24.9324 O   0  0  0  0  0  0  0  0  0  0  0  0
    7.9325  -14.4741   23.2833 N   0  0  0  0  0  0  0  0  0  0  0  0
    8.4186  -15.5489   22.4420 C   0  0  1  0  0  0  0  0  0  0  0  0
    8.5758  -14.9440   21.0506 C   0  0  0  0  0  0  0  0  0  0  0  0
    9.1084  -15.9479   20.0496 C   0  0  0  0  0  0  0  0  0  0  0  0
    7.9807  -16.6728   19.4535 C   0  0  0  0  0  0  0  0  0  0  0  0
    7.1885  -17.3225   20.1783 O   0  0  0  0  0  0  0  0  0  0  0  0
    9.6994  -16.1000   22.9304 C   0  0  0  0  0  0  0  0  0  0  0  0
   10.3341  -17.0009   22.3245 O   0  0  0  0  0  0  0  0  0  0  0  0
    7.7520  -16.6660   18.0789 O   0  0  0  0  0  0  0  0  0  0  0  0
   10.2404  -15.6002   24.1245 N   0  0  0  0  0  0  0  0  0  0  0  0
   11.5593  -16.0805   24.5916 C   0  0  1  0  0  0  0  0  0  0  0  0
   11.3995  -17.3909   25.2838 C   0  0  0  0  0  0  0  0  0  0  0  0
   10.6695  -17.3842   26.5456 C   0  0  0  0  0  0  0  0  0  0  0  0
   10.4215  -16.3619   27.1919 O   0  0  0  0  0  0  0  0  0  0  0  0
   12.4702  -16.1486   23.4242 C   0  0  0  0  0  0  0  0  0  0  0  0
   12.0528  -15.9919   22.2334 O   0  0  0  0  0  0  0  0  0  0  0  0
   10.2099  -18.5899   27.0826 O   0  0  0  0  0  0  0  0  0  0  0  0
   13.8039  -16.3835   23.5911 O   0  0  0  0  0  0  0  0  0  0  0  0
  2  4  1  0
  2  3  1  1
  2  1  1  0
  4  5  1  1
  6  7  2  0
  6  4  1  0
  8  6  1  0
  9  8  1  0
  9 10  1  6
 11 10  1  0
 12 11  1  0
 13 12  2  0
 14  9  1  0
 15 14  2  0
 16 12  1  0
 17 14  1  0
 18 17  1  0
 18 22  1  0
 19 20  1  0
 18 19  1  6
 20 24  1  0
 20 21  2  0
 22 25  1  0
 23 22  2  0
M  END
$$$$
