VED.pdb
     RDKit          3D

 25 24  0  0  1  0  0  0  0  0999 V2000
    9.1538  -13.0244   20.4442 C   0  0  0  0  0  0  0  0  0  0  0  0
    8.0233  -13.5097   19.5797 C   0  0  1  0  0  0  0  0  0  0  0  0
    7.3634  -12.3581   18.8978 C   0  0  0  0  0  0  0  0  0  0  0  0
    8.5240  -14.5511   18.5681 C   0  0  2  0  0  0  0  0  0  0  0  0
    7.3272  -15.0204   17.8931 N   0  0  0  0  0  0  0  0  0  0  0  0
    9.1756  -15.6350   19.3461 C   0  0  0  0  0  0  0  0  0  0  0  0
    8.4785  -16.4764   19.9687 O   0  0  0  0  0  0  0  0  0  0  0  0
   10.5894  -15.7983   19.4426 N   0  0  0  0  0  0  0  0  0  0  0  0
   11.1869  -16.8940   20.1785 C   0  0  1  0  0  0  0  0  0  0  0  0
   12.3355  -17.3960   19.3096 C   0  0  0  0  0  0  0  0  0  0  0  0
   11.8424  -18.0573   18.0395 C   0  0  0  0  0  0  0  0  0  0  0  0
   12.9964  -18.5411   17.2736 C   0  0  0  0  0  0  0  0  0  0  0  0
   13.1772  -19.7717   17.1062 O   0  0  0  0  0  0  0  0  0  0  0  0
   11.6716  -16.4703   21.5083 C   0  0  0  0  0  0  0  0  0  0  0  0
   11.8325  -15.2646   21.8277 O   0  0  0  0  0  0  0  0  0  0  0  0
   13.9211  -17.6629   16.7120 O   0  0  0  0  0  0  0  0  0  0  0  0
   11.9678  -17.4522   22.4658 N   0  0  0  0  0  0  0  0  0  0  0  0
   11.8239  -17.1425   23.9050 C   0  0  1  0  0  0  0  0  0  0  0  0
   10.4507  -16.6281   24.1725 C   0  0  0  0  0  0  0  0  0  0  0  0
   10.1214  -16.3204   25.5589 C   0  0  0  0  0  0  0  0  0  0  0  0
   10.8523  -16.5912   26.5163 O   0  0  0  0  0  0  0  0  0  0  0  0
   12.1462  -18.3650   24.6789 C   0  0  0  0  0  0  0  0  0  0  0  0
   11.6543  -19.4995   24.3829 O   0  0  0  0  0  0  0  0  0  0  0  0
    8.9142  -15.6815   25.8552 O   0  0  0  0  0  0  0  0  0  0  0  0
   12.9933  -18.3127   25.7474 O   0  0  0  0  0  0  0  0  0  0  0  0
  2  4  1  0
  2  3  1  6
  2  1  1  0
  4  5  1  1
  6  7  2  0
  6  4  1  0
  8  6  1  0
  9  8  1  0
  9 10  1  6
 11 10  1  0
 12 11  1  0
 13 12  2  0
 14  9  1  0
 15 14  2  0
 16 12  1  0
 17 14  1  0
 18 17  1  0
 18 22  1  0
 19 20  1  0
 18 19  1  6
 20 24  1  0
 20 21  2  0
 22 25  1  0
 23 22  2  0
M  END
$$$$
