VED.pdb
     RDKit          3D

 25 24  0  0  1  0  0  0  0  0999 V2000
    7.6998  -12.4796   19.8430 C   0  0  0  0  0  0  0  0  0  0  0  0
    8.4293  -13.6642   20.4136 C   0  0  1  0  0  0  0  0  0  0  0  0
    7.7792  -14.1098   21.6807 C   0  0  0  0  0  0  0  0  0  0  0  0
    8.4990  -14.8034   19.3860 C   0  0  2  0  0  0  0  0  0  0  0  0
    7.1170  -15.1879   19.1616 N   0  0  0  0  0  0  0  0  0  0  0  0
    9.2801  -15.9026   20.0077 C   0  0  0  0  0  0  0  0  0  0  0  0
    8.7047  -16.7681   20.7157 O   0  0  0  0  0  0  0  0  0  0  0  0
   10.6900  -16.0548   19.8543 N   0  0  0  0  0  0  0  0  0  0  0  0
   11.4204  -17.1286   20.4968 C   0  0  1  0  0  0  0  0  0  0  0  0
   12.7480  -17.2268   19.7525 C   0  0  0  0  0  0  0  0  0  0  0  0
   12.6129  -17.9739   18.4421 C   0  0  0  0  0  0  0  0  0  0  0  0
   13.9232  -18.0260   17.7843 C   0  0  0  0  0  0  0  0  0  0  0  0
   14.7573  -18.9095   18.0986 O   0  0  0  0  0  0  0  0  0  0  0  0
   11.6349  -16.8706   21.9356 C   0  0  0  0  0  0  0  0  0  0  0  0
   11.8501  -15.7226   22.4021 O   0  0  0  0  0  0  0  0  0  0  0  0
   14.2839  -17.1081   16.7999 O   0  0  0  0  0  0  0  0  0  0  0  0
   11.5977  -17.9506   22.8304 N   0  0  0  0  0  0  0  0  0  0  0  0
   11.7870  -17.7126   24.2781 C   0  0  1  0  0  0  0  0  0  0  0  0
   10.7910  -18.5074   25.0515 C   0  0  0  0  0  0  0  0  0  0  0  0
   10.8908  -18.4529   26.5048 C   0  0  0  0  0  0  0  0  0  0  0  0
   11.7848  -17.8554   27.1113 O   0  0  0  0  0  0  0  0  0  0  0  0
   13.1894  -18.0446   24.6251 C   0  0  0  0  0  0  0  0  0  0  0  0
   13.9139  -18.7749   23.8778 O   0  0  0  0  0  0  0  0  0  0  0  0
    9.9336  -19.1056   27.2865 O   0  0  0  0  0  0  0  0  0  0  0  0
   13.7566  -17.5705   25.7720 O   0  0  0  0  0  0  0  0  0  0  0  0
  2  4  1  0
  2  3  1  1
  2  1  1  0
  4  5  1  1
  6  7  2  0
  6  4  1  0
  8  6  1  0
  9  8  1  0
  9 10  1  6
 11 10  1  0
 12 11  1  0
 13 12  2  0
 14  9  1  0
 15 14  2  0
 16 12  1  0
 17 14  1  0
 18 17  1  0
 18 22  1  0
 19 20  1  0
 18 19  1  1
 20 24  1  0
 20 21  2  0
 22 25  1  0
 23 22  2  0
M  END
$$$$
