VED.pdb
     RDKit          3D

 25 24  0  0  1  0  0  0  0  0999 V2000
    7.4749  -11.9198   19.2940 C   0  0  0  0  0  0  0  0  0  0  0  0
    8.5857  -12.8751   19.6322 C   0  0  1  0  0  0  0  0  0  0  0  0
    8.2111  -13.7050   20.8144 C   0  0  0  0  0  0  0  0  0  0  0  0
    8.9359  -13.7494   18.4192 C   0  0  2  0  0  0  0  0  0  0  0  0
    7.7458  -14.5451   18.1773 N   0  0  0  0  0  0  0  0  0  0  0  0
   10.0911  -14.5957   18.8120 C   0  0  0  0  0  0  0  0  0  0  0  0
    9.9049  -15.7591   19.2514 O   0  0  0  0  0  0  0  0  0  0  0  0
   11.4493  -14.1690   18.7237 N   0  0  0  0  0  0  0  0  0  0  0  0
   12.5546  -15.0657   18.9952 C   0  0  1  0  0  0  0  0  0  0  0  0
   13.6648  -14.6538   18.0340 C   0  0  0  0  0  0  0  0  0  0  0  0
   14.9473  -15.4198   18.2827 C   0  0  0  0  0  0  0  0  0  0  0  0
   15.9814  -14.9320   17.3632 C   0  0  0  0  0  0  0  0  0  0  0  0
   16.9964  -14.3404   17.8046 O   0  0  0  0  0  0  0  0  0  0  0  0
   13.0070  -14.9798   20.3989 C   0  0  0  0  0  0  0  0  0  0  0  0
   13.3075  -13.8940   20.9577 O   0  0  0  0  0  0  0  0  0  0  0  0
   15.8746  -15.1058   15.9848 O   0  0  0  0  0  0  0  0  0  0  0  0
   13.1083  -16.1597   21.1514 N   0  0  0  0  0  0  0  0  0  0  0  0
   13.5090  -16.0923   22.5737 C   0  0  1  0  0  0  0  0  0  0  0  0
   12.8887  -17.2213   23.3236 C   0  0  0  0  0  0  0  0  0  0  0  0
   13.2670  -17.3683   24.7238 C   0  0  0  0  0  0  0  0  0  0  0  0
   14.0661  -16.6261   25.3024 O   0  0  0  0  0  0  0  0  0  0  0  0
   14.9898  -16.0956   22.6409 C   0  0  0  0  0  0  0  0  0  0  0  0
   15.6226  -15.5402   23.5937 O   0  0  0  0  0  0  0  0  0  0  0  0
   12.7103  -18.4008   25.4835 O   0  0  0  0  0  0  0  0  0  0  0  0
   15.7321  -16.7034   21.6707 O   0  0  0  0  0  0  0  0  0  0  0  0
  2  4  1  0
  2  3  1  1
  2  1  1  0
  4  5  1  1
  6  7  2  0
  6  4  1  0
  8  6  1  0
  9  8  1  0
  9 10  1  6
 11 10  1  0
 12 11  1  0
 13 12  2  0
 14  9  1  0
 15 14  2  0
 16 12  1  0
 17 14  1  0
 18 17  1  0
 18 22  1  0
 19 20  1  0
 18 19  1  1
 20 24  1  0
 20 21  2  0
 22 25  1  0
 23 22  2  0
M  END
$$$$
