VED.pdb
     RDKit          3D

 25 24  0  0  1  0  0  0  0  0999 V2000
    8.4143  -12.5631   25.9313 C   0  0  0  0  0  0  0  0  0  0  0  0
    7.0422  -12.9272   26.4270 C   0  0  1  0  0  0  0  0  0  0  0  0
    6.2808  -11.6963   26.7899 C   0  0  0  0  0  0  0  0  0  0  0  0
    6.2929  -13.7645   25.3802 C   0  0  2  0  0  0  0  0  0  0  0  0
    5.0646  -14.1718   26.0386 N   0  0  0  0  0  0  0  0  0  0  0  0
    7.1547  -14.9298   25.0573 C   0  0  0  0  0  0  0  0  0  0  0  0
    7.3207  -15.8488   25.8994 O   0  0  0  0  0  0  0  0  0  0  0  0
    7.8341  -15.0894   23.8133 N   0  0  0  0  0  0  0  0  0  0  0  0
    8.7434  -16.1912   23.5714 C   0  0  1  0  0  0  0  0  0  0  0  0
    9.2096  -16.0312   22.1280 C   0  0  0  0  0  0  0  0  0  0  0  0
   10.1387  -17.1487   21.7020 C   0  0  0  0  0  0  0  0  0  0  0  0
   10.5248  -16.9416   20.3017 C   0  0  0  0  0  0  0  0  0  0  0  0
   10.0187  -17.6434   19.3926 O   0  0  0  0  0  0  0  0  0  0  0  0
    9.8886  -16.1808   24.5047 C   0  0  0  0  0  0  0  0  0  0  0  0
   10.1402  -15.2159   25.2711 O   0  0  0  0  0  0  0  0  0  0  0  0
   11.4552  -15.9708   19.9360 O   0  0  0  0  0  0  0  0  0  0  0  0
   10.7398  -17.2954   24.5450 N   0  0  0  0  0  0  0  0  0  0  0  0
   11.4745  -17.6146   25.7885 C   0  0  1  0  0  0  0  0  0  0  0  0
   10.5153  -17.7214   26.9244 C   0  0  0  0  0  0  0  0  0  0  0  0
   11.0531  -18.1805   28.1993 C   0  0  0  0  0  0  0  0  0  0  0  0
   12.2102  -18.5823   28.3534 O   0  0  0  0  0  0  0  0  0  0  0  0
   12.2497  -18.8582   25.5652 C   0  0  0  0  0  0  0  0  0  0  0  0
   11.9534  -19.6806   24.6418 O   0  0  0  0  0  0  0  0  0  0  0  0
   10.2360  -18.1783   29.3330 O   0  0  0  0  0  0  0  0  0  0  0  0
   13.3212  -19.1647   26.3524 O   0  0  0  0  0  0  0  0  0  0  0  0
  2  4  1  0
  2  3  1  6
  2  1  1  0
  4  5  1  1
  6  7  2  0
  6  4  1  0
  8  6  1  0
  9  8  1  0
  9 10  1  6
 11 10  1  0
 12 11  1  0
 13 12  2  0
 14  9  1  0
 15 14  2  0
 16 12  1  0
 17 14  1  0
 18 17  1  0
 18 22  1  0
 19 20  1  0
 18 19  1  1
 20 24  1  0
 20 21  2  0
 22 25  1  0
 23 22  2  0
M  END
$$$$
