VED.pdb
     RDKit          3D

 25 24  0  0  1  0  0  0  0  0999 V2000
    8.6612  -11.8108   19.8025 C   0  0  0  0  0  0  0  0  0  0  0  0
    7.9392  -13.1294   19.8303 C   0  0  1  0  0  0  0  0  0  0  0  0
    6.6909  -13.0520   19.0163 C   0  0  0  0  0  0  0  0  0  0  0  0
    8.8581  -14.2602   19.3451 C   0  0  2  0  0  0  0  0  0  0  0  0
    8.0429  -15.4595   19.4166 N   0  0  0  0  0  0  0  0  0  0  0  0
   10.0064  -14.3208   20.2846 C   0  0  0  0  0  0  0  0  0  0  0  0
   10.9187  -13.4571   20.2280 O   0  0  0  0  0  0  0  0  0  0  0  0
   10.1561  -15.3257   21.2857 N   0  0  0  0  0  0  0  0  0  0  0  0
   11.3495  -15.4248   22.1013 C   0  0  1  0  0  0  0  0  0  0  0  0
   11.0471  -16.4943   23.1458 C   0  0  0  0  0  0  0  0  0  0  0  0
   12.2040  -16.7016   24.1007 C   0  0  0  0  0  0  0  0  0  0  0  0
   11.8736  -17.7950   25.0215 C   0  0  0  0  0  0  0  0  0  0  0  0
   11.2292  -17.5666   26.0740 O   0  0  0  0  0  0  0  0  0  0  0  0
   12.5396  -15.7828   21.3024 C   0  0  0  0  0  0  0  0  0  0  0  0
   12.5303  -16.6816   20.4228 O   0  0  0  0  0  0  0  0  0  0  0  0
   12.2587  -19.1092   24.7638 O   0  0  0  0  0  0  0  0  0  0  0  0
   13.7399  -15.0924   21.5283 N   0  0  0  0  0  0  0  0  0  0  0  0
   14.9036  -15.3336   20.6475 C   0  0  1  0  0  0  0  0  0  0  0  0
   14.9091  -14.3367   19.5394 C   0  0  0  0  0  0  0  0  0  0  0  0
   15.9217  -14.5079   18.5048 C   0  0  0  0  0  0  0  0  0  0  0  0
   16.7769  -15.3983   18.5195 O   0  0  0  0  0  0  0  0  0  0  0  0
   16.1321  -15.2869   21.4758 C   0  0  0  0  0  0  0  0  0  0  0  0
   17.2893  -15.4511   20.9752 O   0  0  0  0  0  0  0  0  0  0  0  0
   15.9535  -13.6286   17.4190 O   0  0  0  0  0  0  0  0  0  0  0  0
   16.0607  -15.0622   22.8198 O   0  0  0  0  0  0  0  0  0  0  0  0
  2  4  1  0
  2  3  1  6
  2  1  1  0
  4  5  1  1
  6  7  2  0
  6  4  1  0
  8  6  1  0
  9  8  1  0
  9 10  1  1
 11 10  1  0
 12 11  1  0
 13 12  2  0
 14  9  1  0
 15 14  2  0
 16 12  1  0
 17 14  1  0
 18 17  1  0
 18 22  1  0
 19 20  1  0
 18 19  1  6
 20 24  1  0
 20 21  2  0
 22 25  1  0
 23 22  2  0
M  END
$$$$
