TGP.pdb
     RDKit          3D

 19 19  0  0  1  0  0  0  0  0999 V2000
    8.3390  -12.6030   19.6385 C   0  0  0  0  0  0  0  0  0  0  0  0
    7.9403  -13.8710   18.9647 C   0  0  1  0  0  0  0  0  0  0  0  0
    8.7224  -14.0173   17.8041 O   0  0  0  0  0  0  0  0  0  0  0  0
    8.1322  -15.0844   19.8176 C   0  0  2  0  0  0  0  0  0  0  0  0
    7.7308  -16.2540   19.0678 N   0  0  0  0  0  0  0  0  0  0  0  0
    7.3728  -14.9275   21.0867 C   0  0  0  0  0  0  0  0  0  0  0  0
    6.1232  -15.1120   21.1011 O   0  0  0  0  0  0  0  0  0  0  0  0
    7.9587  -14.5730   22.3302 N   0  0  0  0  0  0  0  0  0  0  0  0
    7.1876  -14.3730   23.5357 C   0  0  0  0  0  0  0  0  0  0  0  0
    8.0535  -14.0756   24.7247 C   0  0  0  0  0  0  0  0  0  0  0  0
    9.1149  -14.7128   24.7770 O   0  0  0  0  0  0  0  0  0  0  0  0
    7.6793  -13.1408   25.7024 N   0  0  0  0  0  0  0  0  0  0  0  0
    6.7880  -11.9990   25.3473 C   0  0  0  0  0  0  0  0  0  0  0  0
    6.0040  -11.6908   26.5991 C   0  0  0  0  0  0  0  0  0  0  0  0
    6.4842  -12.7216   27.5958 C   0  0  0  0  0  0  0  0  0  0  0  0
    7.9370  -12.9208   27.0800 C   0  0  1  0  0  0  0  0  0  0  0  0
    8.6157  -13.9256   27.8610 C   0  0  0  0  0  0  0  0  0  0  0  0
    9.5600  -13.6888   28.6132 O   0  0  0  0  0  0  0  0  0  0  0  0
    8.2084  -15.2723   27.7911 O   0  0  0  0  0  0  0  0  0  0  0  0
  2  1  1  1
  3  2  1  0
  4  2  1  0
  4  5  1  6
  6  8  1  0
  6  4  1  0
  7  6  2  0
  9  8  1  0
 10  9  1  0
 11 10  2  0
 12 10  1  0
 12 16  1  0
 13 14  1  0
 13 12  1  0
 14 15  1  0
 16 15  1  0
 17 19  1  0
 16 17  1  1
 18 17  2  0
M  END
$$$$
