TGP.pdb
     RDKit          3D

 19 19  0  0  1  0  0  0  0  0999 V2000
    8.5497  -12.5709   19.9220 C   0  0  0  0  0  0  0  0  0  0  0  0
    8.0152  -13.7095   19.1227 C   0  0  1  0  0  0  0  0  0  0  0  0
    8.8123  -13.8517   17.9719 O   0  0  0  0  0  0  0  0  0  0  0  0
    8.0194  -15.0097   19.8617 C   0  0  2  0  0  0  0  0  0  0  0  0
    7.4191  -16.0266   19.0269 N   0  0  0  0  0  0  0  0  0  0  0  0
    7.3170  -14.8465   21.1625 C   0  0  0  0  0  0  0  0  0  0  0  0
    6.1487  -14.3671   21.1929 O   0  0  0  0  0  0  0  0  0  0  0  0
    7.8730  -15.1976   22.4207 N   0  0  0  0  0  0  0  0  0  0  0  0
    7.1984  -14.9550   23.6752 C   0  0  0  0  0  0  0  0  0  0  0  0
    8.1212  -14.4048   24.7228 C   0  0  0  0  0  0  0  0  0  0  0  0
    9.2550  -14.9044   24.7421 O   0  0  0  0  0  0  0  0  0  0  0  0
    7.7197  -13.3966   25.6128 N   0  0  0  0  0  0  0  0  0  0  0  0
    6.7319  -12.3654   25.1828 C   0  0  0  0  0  0  0  0  0  0  0  0
    5.9801  -11.9768   26.4320 C   0  0  0  0  0  0  0  0  0  0  0  0
    6.5769  -12.8561   27.5077 C   0  0  0  0  0  0  0  0  0  0  0  0
    8.0177  -13.0093   26.9446 C   0  0  1  0  0  0  0  0  0  0  0  0
    8.8014  -13.8728   27.7935 C   0  0  0  0  0  0  0  0  0  0  0  0
    9.7571  -13.4901   28.4672 O   0  0  0  0  0  0  0  0  0  0  0  0
    8.4916  -15.2436   27.8892 O   0  0  0  0  0  0  0  0  0  0  0  0
  2  1  1  1
  3  2  1  0
  4  2  1  0
  4  5  1  6
  6  8  1  0
  6  4  1  0
  7  6  2  0
  9  8  1  0
 10  9  1  0
 11 10  2  0
 12 10  1  0
 12 16  1  0
 13 14  1  0
 13 12  1  0
 14 15  1  0
 16 15  1  0
 17 19  1  0
 16 17  1  1
 18 17  2  0
M  END
$$$$
