TGP.pdb
     RDKit          3D

 19 19  0  0  1  0  0  0  0  0999 V2000
    9.9846  -17.8434   19.9672 C   0  0  0  0  0  0  0  0  0  0  0  0
    9.4638  -16.7990   20.8940 C   0  0  1  0  0  0  0  0  0  0  0  0
   10.3716  -15.7240   20.9002 O   0  0  0  0  0  0  0  0  0  0  0  0
    8.1176  -16.2760   20.5055 C   0  0  2  0  0  0  0  0  0  0  0  0
    8.1877  -15.7518   19.1595 N   0  0  0  0  0  0  0  0  0  0  0  0
    7.6728  -15.2588   21.4953 C   0  0  0  0  0  0  0  0  0  0  0  0
    7.9893  -14.0459   21.3390 O   0  0  0  0  0  0  0  0  0  0  0  0
    6.8930  -15.5500   22.6452 N   0  0  0  0  0  0  0  0  0  0  0  0
    6.4319  -14.5331   23.5624 C   0  0  0  0  0  0  0  0  0  0  0  0
    7.4482  -14.2140   24.6192 C   0  0  0  0  0  0  0  0  0  0  0  0
    8.4376  -14.9596   24.6420 O   0  0  0  0  0  0  0  0  0  0  0  0
    7.2813  -13.1453   25.5135 N   0  0  0  0  0  0  0  0  0  0  0  0
    6.3922  -12.0017   25.1590 C   0  0  0  0  0  0  0  0  0  0  0  0
    5.8406  -11.4944   26.4686 C   0  0  0  0  0  0  0  0  0  0  0  0
    6.4360  -12.4240   27.5020 C   0  0  0  0  0  0  0  0  0  0  0  0
    7.7733  -12.7755   26.7917 C   0  0  1  0  0  0  0  0  0  0  0  0
    8.5294  -13.7183   27.5790 C   0  0  0  0  0  0  0  0  0  0  0  0
    9.5662  -13.4366   28.1785 O   0  0  0  0  0  0  0  0  0  0  0  0
    8.0938  -15.0526   27.6980 O   0  0  0  0  0  0  0  0  0  0  0  0
  2  1  1  6
  3  2  1  0
  4  2  1  0
  4  5  1  6
  6  8  1  0
  6  4  1  0
  7  6  2  0
  9  8  1  0
 10  9  1  0
 11 10  2  0
 12 10  1  0
 12 16  1  0
 13 14  1  0
 13 12  1  0
 14 15  1  0
 16 15  1  0
 17 19  1  0
 16 17  1  1
 18 17  2  0
M  END
$$$$
