TGP.pdb
     RDKit          3D

 19 19  0  0  1  0  0  0  0  0999 V2000
    8.8952  -18.7125   19.1720 C   0  0  0  0  0  0  0  0  0  0  0  0
    8.7843  -17.3688   19.8069 C   0  0  1  0  0  0  0  0  0  0  0  0
    7.7081  -16.6873   19.2093 O   0  0  0  0  0  0  0  0  0  0  0  0
    8.5448  -17.4252   21.2821 C   0  0  2  0  0  0  0  0  0  0  0  0
    7.3281  -18.1656   21.5325 N   0  0  0  0  0  0  0  0  0  0  0  0
    8.5005  -16.0447   21.8335 C   0  0  0  0  0  0  0  0  0  0  0  0
    9.5208  -15.3034   21.7612 O   0  0  0  0  0  0  0  0  0  0  0  0
    7.3631  -15.4699   22.4590 N   0  0  0  0  0  0  0  0  0  0  0  0
    7.3415  -14.1159   22.9631 C   0  0  0  0  0  0  0  0  0  0  0  0
    8.0714  -13.9803   24.2672 C   0  0  0  0  0  0  0  0  0  0  0  0
    9.0789  -14.6921   24.3843 O   0  0  0  0  0  0  0  0  0  0  0  0
    7.6363  -13.1072   25.2762 N   0  0  0  0  0  0  0  0  0  0  0  0
    6.8246  -11.9050   24.9300 C   0  0  0  0  0  0  0  0  0  0  0  0
    5.9330  -11.6593   26.1222 C   0  0  0  0  0  0  0  0  0  0  0  0
    6.2769  -12.7821   27.0749 C   0  0  0  0  0  0  0  0  0  0  0  0
    7.7654  -13.0033   26.6851 C   0  0  1  0  0  0  0  0  0  0  0  0
    8.3287  -14.0923   27.4447 C   0  0  0  0  0  0  0  0  0  0  0  0
    9.1991  -13.9529   28.3029 O   0  0  0  0  0  0  0  0  0  0  0  0
    7.8874  -15.4120   27.2256 O   0  0  0  0  0  0  0  0  0  0  0  0
  2  1  1  6
  3  2  1  0
  4  2  1  0
  4  5  1  6
  6  8  1  0
  6  4  1  0
  7  6  2  0
  9  8  1  0
 10  9  1  0
 11 10  2  0
 12 10  1  0
 12 16  1  0
 13 14  1  0
 13 12  1  0
 14 15  1  0
 16 15  1  0
 17 19  1  0
 16 17  1  1
 18 17  2  0
M  END
$$$$
