TGP.pdb
     RDKit          3D

 19 19  0  0  1  0  0  0  0  0999 V2000
    8.8002  -12.6590   20.1152 C   0  0  0  0  0  0  0  0  0  0  0  0
    8.0979  -13.6766   19.2832 C   0  0  1  0  0  0  0  0  0  0  0  0
    8.8353  -13.8620   18.0993 O   0  0  0  0  0  0  0  0  0  0  0  0
    7.9534  -15.0024   19.9602 C   0  0  2  0  0  0  0  0  0  0  0  0
    7.2529  -15.9074   19.0761 N   0  0  0  0  0  0  0  0  0  0  0  0
    7.2616  -14.8237   21.2646 C   0  0  0  0  0  0  0  0  0  0  0  0
    6.1361  -14.2520   21.3088 O   0  0  0  0  0  0  0  0  0  0  0  0
    7.7823  -15.2587   22.5116 N   0  0  0  0  0  0  0  0  0  0  0  0
    7.1253  -15.0011   23.7725 C   0  0  0  0  0  0  0  0  0  0  0  0
    8.0600  -14.4276   24.7968 C   0  0  0  0  0  0  0  0  0  0  0  0
    9.1971  -14.9197   24.8076 O   0  0  0  0  0  0  0  0  0  0  0  0
    7.6653  -13.4068   25.6755 N   0  0  0  0  0  0  0  0  0  0  0  0
    6.6507  -12.4003   25.2495 C   0  0  0  0  0  0  0  0  0  0  0  0
    5.9248  -11.9967   26.5092 C   0  0  0  0  0  0  0  0  0  0  0  0
    6.5625  -12.8435   27.5874 C   0  0  0  0  0  0  0  0  0  0  0  0
    7.9908  -12.9867   26.9908 C   0  0  1  0  0  0  0  0  0  0  0  0
    8.8093  -13.8198   27.8372 C   0  0  0  0  0  0  0  0  0  0  0  0
    9.7816  -13.4103   28.4701 O   0  0  0  0  0  0  0  0  0  0  0  0
    8.5166  -15.1904   27.9789 O   0  0  0  0  0  0  0  0  0  0  0  0
  2  1  1  1
  3  2  1  0
  4  2  1  0
  4  5  1  6
  6  8  1  0
  6  4  1  0
  7  6  2  0
  9  8  1  0
 10  9  1  0
 11 10  2  0
 12 10  1  0
 12 16  1  0
 13 14  1  0
 13 12  1  0
 14 15  1  0
 16 15  1  0
 17 19  1  0
 16 17  1  1
 18 17  2  0
M  END
$$$$
