TGP.pdb
     RDKit          3D

 19 19  0  0  1  0  0  0  0  0999 V2000
    9.2377  -18.3693   22.6715 C   0  0  0  0  0  0  0  0  0  0  0  0
    9.7014  -17.6321   21.4621 C   0  0  1  0  0  0  0  0  0  0  0  0
   10.2339  -18.5663   20.5546 O   0  0  0  0  0  0  0  0  0  0  0  0
    8.6119  -16.8744   20.7725 C   0  0  2  0  0  0  0  0  0  0  0  0
    9.0585  -16.5127   19.4455 N   0  0  0  0  0  0  0  0  0  0  0  0
    8.2300  -15.6932   21.5916 C   0  0  0  0  0  0  0  0  0  0  0  0
    8.9767  -14.6745   21.6162 O   0  0  0  0  0  0  0  0  0  0  0  0
    7.0512  -15.6135   22.3786 N   0  0  0  0  0  0  0  0  0  0  0  0
    6.7377  -14.4776   23.2148 C   0  0  0  0  0  0  0  0  0  0  0  0
    7.5610  -14.4473   24.4690 C   0  0  0  0  0  0  0  0  0  0  0  0
    8.2528  -15.4554   24.6705 O   0  0  0  0  0  0  0  0  0  0  0  0
    7.5422  -13.3510   25.3451 N   0  0  0  0  0  0  0  0  0  0  0  0
    7.0321  -12.0284   24.8817 C   0  0  0  0  0  0  0  0  0  0  0  0
    6.4432  -11.3688   26.1043 C   0  0  0  0  0  0  0  0  0  0  0  0
    6.6282  -12.3948   27.1996 C   0  0  0  0  0  0  0  0  0  0  0  0
    7.9214  -13.0883   26.6866 C   0  0  1  0  0  0  0  0  0  0  0  0
    8.2925  -14.1732   27.5617 C   0  0  0  0  0  0  0  0  0  0  0  0
    7.6800  -15.2378   27.6334 O   0  0  0  0  0  0  0  0  0  0  0  0
    9.4159  -14.0526   28.4029 O   0  0  0  0  0  0  0  0  0  0  0  0
  2  1  1  1
  3  2  1  0
  4  2  1  0
  4  5  1  6
  6  8  1  0
  6  4  1  0
  7  6  2  0
  9  8  1  0
 10  9  1  0
 11 10  2  0
 12 10  1  0
 12 16  1  0
 13 14  1  0
 13 12  1  0
 14 15  1  0
 16 15  1  0
 17 19  1  0
 16 17  1  1
 18 17  2  0
M  END
$$$$
