TGP.pdb
     RDKit          3D

 19 19  0  0  1  0  0  0  0  0999 V2000
   10.4367  -15.1107   20.7462 C   0  0  0  0  0  0  0  0  0  0  0  0
   10.0778  -13.9130   19.9353 C   0  0  1  0  0  0  0  0  0  0  0  0
   10.6717  -14.0465   18.6667 O   0  0  0  0  0  0  0  0  0  0  0  0
    8.6041  -13.7396   19.7492 C   0  0  2  0  0  0  0  0  0  0  0  0
    8.3721  -12.6572   18.8187 N   0  0  0  0  0  0  0  0  0  0  0  0
    7.9580  -13.5105   21.0691 C   0  0  0  0  0  0  0  0  0  0  0  0
    8.1883  -12.4452   21.7078 O   0  0  0  0  0  0  0  0  0  0  0  0
    7.0708  -14.4255   21.6944 N   0  0  0  0  0  0  0  0  0  0  0  0
    6.4344  -14.1624   22.9647 C   0  0  0  0  0  0  0  0  0  0  0  0
    7.4187  -14.1080   24.0961 C   0  0  0  0  0  0  0  0  0  0  0  0
    8.3662  -14.9019   24.0097 O   0  0  0  0  0  0  0  0  0  0  0  0
    7.2684  -13.2181   25.1709 N   0  0  0  0  0  0  0  0  0  0  0  0
    6.4934  -11.9558   24.9977 C   0  0  0  0  0  0  0  0  0  0  0  0
    5.8896  -11.6608   26.3486 C   0  0  0  0  0  0  0  0  0  0  0  0
    6.3403  -12.8174   27.2122 C   0  0  0  0  0  0  0  0  0  0  0  0
    7.6949  -13.1414   26.5218 C   0  0  1  0  0  0  0  0  0  0  0  0
    8.3219  -14.2779   27.1506 C   0  0  0  0  0  0  0  0  0  0  0  0
    9.4085  -14.2316   27.7258 O   0  0  0  0  0  0  0  0  0  0  0  0
    7.6902  -15.5368   27.1308 O   0  0  0  0  0  0  0  0  0  0  0  0
  2  1  1  1
  3  2  1  0
  4  2  1  0
  4  5  1  6
  6  8  1  0
  6  4  1  0
  7  6  2  0
  9  8  1  0
 10  9  1  0
 11 10  2  0
 12 10  1  0
 12 16  1  0
 13 14  1  0
 13 12  1  0
 14 15  1  0
 16 15  1  0
 17 19  1  0
 16 17  1  1
 18 17  2  0
M  END
$$$$
