DCK.pdb
     RDKit          3D

 24 23  0  0  1  0  0  0  0  0999 V2000
    8.9142  -17.3591   17.3415 N   0  0  0  0  0  0  0  0  0  0  0  0
   10.0487  -17.6360   18.1861 C   0  0  1  0  0  0  0  0  0  0  0  0
   11.2920  -17.4021   17.3157 C   0  0  0  0  0  0  0  0  0  0  0  0
   11.1925  -18.3640   16.1991 C   0  0  0  0  0  0  0  0  0  0  0  0
   10.7961  -19.5279   16.4074 O   0  0  0  0  0  0  0  0  0  0  0  0
   10.1529  -16.7096   19.3302 C   0  0  0  0  0  0  0  0  0  0  0  0
   11.2033  -16.7102   20.0265 O   0  0  0  0  0  0  0  0  0  0  0  0
   11.5494  -17.9376   14.9262 O   0  0  0  0  0  0  0  0  0  0  0  0
    9.0840  -15.8358   19.6354 N   0  0  0  0  0  0  0  0  0  0  0  0
    9.1590  -14.9257   20.7611 C   0  0  1  0  0  0  0  0  0  0  0  0
    7.8333  -14.1533   20.8349 C   0  0  0  0  0  0  0  0  0  0  0  0
    7.6034  -13.1430   19.3496 S   0  0  0  0  0  0  0  0  0  0  0  0
    9.2372  -15.7292   21.9986 C   0  0  0  0  0  0  0  0  0  0  0  0
    8.3220  -16.5885   22.2180 O   0  0  0  0  0  0  0  0  0  0  0  0
   10.2899  -15.5580   22.9166 N   0  0  0  0  0  0  0  0  0  0  0  0
   10.2744  -16.4299   24.1380 C   0  0  1  0  0  0  0  0  0  0  0  0
   11.1207  -17.6061   23.8391 C   0  0  0  0  0  0  0  0  0  0  0  0
   11.0168  -18.8269   24.6346 C   0  0  0  0  0  0  0  0  0  0  0  0
   11.7998  -20.0353   24.3354 C   0  0  0  0  0  0  0  0  0  0  0  0
   11.3733  -21.0950   25.3841 C   0  0  0  0  0  0  0  0  0  0  0  0
   11.9946  -22.3522   25.0889 N   0  0  0  0  0  0  0  0  0  0  0  0
   10.7676  -15.5038   25.1859 C   0  0  0  0  0  0  0  0  0  0  0  0
   10.7317  -15.9255   26.4076 O   0  0  0  0  0  0  0  0  0  0  0  0
   11.2711  -14.2445   25.0633 O   0  0  0  0  0  0  0  0  0  0  0  0
  2  1  1  6
  2  3  1  0
  3  4  1  0
  4  5  2  0
  4  8  1  0
  6  2  1  0
  6  9  1  0
  7  6  2  0
 10  9  1  0
 10 13  1  0
 10 11  1  1
 12 11  1  0
 13 15  1  0
 14 13  2  0
 15 16  1  0
 16 17  1  6
 16 22  1  0
 17 18  1  0
 19 18  1  0
 20 21  1  0
 20 19  1  0
 22 24  1  0
 23 22  2  0
M  END
$$$$
