DCK.pdb
     RDKit          3D

 24 23  0  0  1  0  0  0  0  0999 V2000
    9.7332  -18.0546   19.5777 N   0  0  0  0  0  0  0  0  0  0  0  0
    9.9869  -18.9784   20.6545 C   0  0  1  0  0  0  0  0  0  0  0  0
   11.3474  -19.6217   20.3492 C   0  0  0  0  0  0  0  0  0  0  0  0
   11.1338  -20.4814   19.1671 C   0  0  0  0  0  0  0  0  0  0  0  0
   10.2376  -21.3485   19.1760 O   0  0  0  0  0  0  0  0  0  0  0  0
   10.1185  -18.3117   21.9646 C   0  0  0  0  0  0  0  0  0  0  0  0
   11.0680  -17.5040   22.1493 O   0  0  0  0  0  0  0  0  0  0  0  0
   11.9514  -20.2965   18.0595 O   0  0  0  0  0  0  0  0  0  0  0  0
    9.1879  -18.5809   22.9945 N   0  0  0  0  0  0  0  0  0  0  0  0
    9.2887  -17.9272   24.2843 C   0  0  1  0  0  0  0  0  0  0  0  0
    7.9740  -17.1742   24.5376 C   0  0  0  0  0  0  0  0  0  0  0  0
    6.5548  -18.2678   24.2740 S   0  0  0  0  0  0  0  0  0  0  0  0
    9.3720  -18.9724   25.3252 C   0  0  0  0  0  0  0  0  0  0  0  0
    8.9591  -20.1434   25.0378 O   0  0  0  0  0  0  0  0  0  0  0  0
    9.8919  -18.6928   26.6026 N   0  0  0  0  0  0  0  0  0  0  0  0
   10.0023  -19.8449   27.5580 C   0  0  1  0  0  0  0  0  0  0  0  0
   11.1707  -19.5759   28.4249 C   0  0  0  0  0  0  0  0  0  0  0  0
   11.6092  -20.5535   29.4179 C   0  0  0  0  0  0  0  0  0  0  0  0
   12.7410  -20.3077   30.3242 C   0  0  0  0  0  0  0  0  0  0  0  0
   12.9776  -21.6366   31.0874 C   0  0  0  0  0  0  0  0  0  0  0  0
   14.1666  -21.5390   31.8815 N   0  0  0  0  0  0  0  0  0  0  0  0
    8.6714  -19.8337   28.2118 C   0  0  0  0  0  0  0  0  0  0  0  0
    8.0015  -18.7290   28.1629 O   0  0  0  0  0  0  0  0  0  0  0  0
    8.0206  -20.8318   28.8713 O   0  0  0  0  0  0  0  0  0  0  0  0
  2  1  1  6
  2  3  1  0
  3  4  1  0
  4  5  2  0
  4  8  1  0
  6  2  1  0
  6  9  1  0
  7  6  2  0
 10  9  1  0
 10 13  1  0
 10 11  1  1
 12 11  1  0
 13 15  1  0
 14 13  2  0
 15 16  1  0
 16 17  1  1
 16 22  1  0
 17 18  1  0
 19 18  1  0
 20 21  1  0
 20 19  1  0
 22 24  1  0
 23 22  2  0
M  END
$$$$
