DCK.pdb
     RDKit          3D

 24 23  0  0  1  0  0  0  0  0999 V2000
    7.1392  -14.3062   20.5632 N   0  0  0  0  0  0  0  0  0  0  0  0
    7.5305  -15.3147   21.5156 C   0  0  1  0  0  0  0  0  0  0  0  0
    8.5184  -16.2317   20.7799 C   0  0  0  0  0  0  0  0  0  0  0  0
    7.7506  -16.8609   19.6860 C   0  0  0  0  0  0  0  0  0  0  0  0
    6.6328  -17.3646   19.9136 O   0  0  0  0  0  0  0  0  0  0  0  0
    8.2529  -14.7592   22.6765 C   0  0  0  0  0  0  0  0  0  0  0  0
    9.4985  -14.9301   22.7630 O   0  0  0  0  0  0  0  0  0  0  0  0
    8.3051  -16.8740   18.4125 O   0  0  0  0  0  0  0  0  0  0  0  0
    7.5501  -14.0461   23.6748 N   0  0  0  0  0  0  0  0  0  0  0  0
    8.2385  -13.4914   24.8235 C   0  0  1  0  0  0  0  0  0  0  0  0
    7.2505  -12.5882   25.5770 C   0  0  0  0  0  0  0  0  0  0  0  0
    5.7090  -13.4765   25.9153 S   0  0  0  0  0  0  0  0  0  0  0  0
    8.5671  -14.6001   25.7432 C   0  0  0  0  0  0  0  0  0  0  0  0
    7.8972  -15.6801   25.6487 O   0  0  0  0  0  0  0  0  0  0  0  0
    9.5905  -14.4769   26.7012 N   0  0  0  0  0  0  0  0  0  0  0  0
    9.9185  -15.7006   27.5057 C   0  0  1  0  0  0  0  0  0  0  0  0
   11.1020  -16.3264   26.8760 C   0  0  0  0  0  0  0  0  0  0  0  0
   11.7235  -17.5126   27.4599 C   0  0  0  0  0  0  0  0  0  0  0  0
   12.9308  -18.1330   26.8941 C   0  0  0  0  0  0  0  0  0  0  0  0
   13.2813  -19.3213   27.8267 C   0  0  0  0  0  0  0  0  0  0  0  0
   14.4513  -19.9931   27.3434 N   0  0  0  0  0  0  0  0  0  0  0  0
   10.1071  -15.1366   28.8642 C   0  0  0  0  0  0  0  0  0  0  0  0
   10.3800  -15.9700   29.8142 O   0  0  0  0  0  0  0  0  0  0  0  0
   10.0410  -13.8425   29.2828 O   0  0  0  0  0  0  0  0  0  0  0  0
  2  1  1  6
  2  3  1  0
  3  4  1  0
  4  5  2  0
  4  8  1  0
  6  2  1  0
  6  9  1  0
  7  6  2  0
 10  9  1  0
 10 13  1  0
 10 11  1  1
 12 11  1  0
 13 15  1  0
 14 13  2  0
 15 16  1  0
 16 17  1  6
 16 22  1  0
 17 18  1  0
 19 18  1  0
 20 21  1  0
 20 19  1  0
 22 24  1  0
 23 22  2  0
M  END
$$$$
