DCK.pdb
     RDKit          3D

 24 23  0  0  1  0  0  0  0  0999 V2000
    7.7319  -16.6003   21.0309 N   0  0  0  0  0  0  0  0  0  0  0  0
    9.0438  -16.6397   21.6263 C   0  0  1  0  0  0  0  0  0  0  0  0
   10.0197  -16.1833   20.5320 C   0  0  0  0  0  0  0  0  0  0  0  0
   10.3843  -17.4012   19.7797 C   0  0  0  0  0  0  0  0  0  0  0  0
    9.6257  -18.3908   19.7829 O   0  0  0  0  0  0  0  0  0  0  0  0
    9.1940  -15.6932   22.7487 C   0  0  0  0  0  0  0  0  0  0  0  0
   10.3390  -15.4982   23.2377 O   0  0  0  0  0  0  0  0  0  0  0  0
   11.5829  -17.4097   19.0777 O   0  0  0  0  0  0  0  0  0  0  0  0
    8.0635  -15.0180   23.2637 N   0  0  0  0  0  0  0  0  0  0  0  0
    8.1822  -14.1064   24.3844 C   0  0  1  0  0  0  0  0  0  0  0  0
    6.8103  -13.4538   24.6113 C   0  0  0  0  0  0  0  0  0  0  0  0
    6.7881  -12.5514   26.1813 S   0  0  0  0  0  0  0  0  0  0  0  0
    8.4658  -14.9016   25.5970 C   0  0  0  0  0  0  0  0  0  0  0  0
    7.7301  -15.9135   25.8398 O   0  0  0  0  0  0  0  0  0  0  0  0
    9.5178  -14.5593   26.4667 N   0  0  0  0  0  0  0  0  0  0  0  0
    9.7655  -15.4777   27.6274 C   0  0  1  0  0  0  0  0  0  0  0  0
   10.9584  -16.2857   27.2913 C   0  0  0  0  0  0  0  0  0  0  0  0
   11.3068  -17.4703   28.0721 C   0  0  0  0  0  0  0  0  0  0  0  0
   12.4217  -18.3577   27.7088 C   0  0  0  0  0  0  0  0  0  0  0  0
   12.3863  -19.5304   28.7227 C   0  0  0  0  0  0  0  0  0  0  0  0
   13.4225  -20.4720   28.4172 N   0  0  0  0  0  0  0  0  0  0  0  0
    9.9035  -14.5230   28.7537 C   0  0  0  0  0  0  0  0  0  0  0  0
    9.8979  -15.0180   29.9481 O   0  0  0  0  0  0  0  0  0  0  0  0
   10.0439  -13.1687   28.7304 O   0  0  0  0  0  0  0  0  0  0  0  0
  2  1  1  6
  2  3  1  0
  3  4  1  0
  4  5  2  0
  4  8  1  0
  6  2  1  0
  6  9  1  0
  7  6  2  0
 10  9  1  0
 10 13  1  0
 10 11  1  1
 12 11  1  0
 13 15  1  0
 14 13  2  0
 15 16  1  0
 16 17  1  6
 16 22  1  0
 17 18  1  0
 19 18  1  0
 20 21  1  0
 20 19  1  0
 22 24  1  0
 23 22  2  0
M  END
$$$$
