DCK.pdb
     RDKit          3D

 24 23  0  0  1  0  0  0  0  0999 V2000
    7.7203  -14.0624   20.3933 N   0  0  0  0  0  0  0  0  0  0  0  0
    7.4599  -14.8082   21.5988 C   0  0  1  0  0  0  0  0  0  0  0  0
    7.8836  -16.2541   21.3025 C   0  0  0  0  0  0  0  0  0  0  0  0
    6.8957  -16.7767   20.3366 C   0  0  0  0  0  0  0  0  0  0  0  0
    5.7884  -17.1902   20.7340 O   0  0  0  0  0  0  0  0  0  0  0  0
    8.2750  -14.3544   22.7425 C   0  0  0  0  0  0  0  0  0  0  0  0
    9.5306  -14.3462   22.6361 O   0  0  0  0  0  0  0  0  0  0  0  0
    7.2338  -16.7931   18.9895 O   0  0  0  0  0  0  0  0  0  0  0  0
    7.6483  -13.9360   23.9389 N   0  0  0  0  0  0  0  0  0  0  0  0
    8.4261  -13.6182   25.1200 C   0  0  1  0  0  0  0  0  0  0  0  0
    7.5529  -12.7563   26.0443 C   0  0  0  0  0  0  0  0  0  0  0  0
    5.9015  -13.4797   26.2142 S   0  0  0  0  0  0  0  0  0  0  0  0
    8.6859  -14.8748   25.8524 C   0  0  0  0  0  0  0  0  0  0  0  0
    7.8262  -15.8117   25.7655 O   0  0  0  0  0  0  0  0  0  0  0  0
    9.8483  -15.0429   26.6275 N   0  0  0  0  0  0  0  0  0  0  0  0
   10.0292  -16.3717   27.3011 C   0  0  1  0  0  0  0  0  0  0  0  0
   11.0675  -17.1024   26.5416 C   0  0  0  0  0  0  0  0  0  0  0  0
   11.5435  -18.4095   26.9880 C   0  0  0  0  0  0  0  0  0  0  0  0
   12.6301  -19.1304   26.3082 C   0  0  0  0  0  0  0  0  0  0  0  0
   12.8084  -20.4648   27.0775 C   0  0  0  0  0  0  0  0  0  0  0  0
   13.7513  -21.3005   26.3945 N   0  0  0  0  0  0  0  0  0  0  0  0
   10.3751  -15.9720   28.6866 C   0  0  0  0  0  0  0  0  0  0  0  0
   10.6159  -14.7188   28.8943 O   0  0  0  0  0  0  0  0  0  0  0  0
   10.4785  -16.7357   29.8093 O   0  0  0  0  0  0  0  0  0  0  0  0
  2  1  1  6
  2  3  1  0
  3  4  1  0
  4  5  2  0
  4  8  1  0
  6  2  1  0
  6  9  1  0
  7  6  2  0
 10  9  1  0
 10 13  1  0
 10 11  1  1
 12 11  1  0
 13 15  1  0
 14 13  2  0
 15 16  1  0
 16 17  1  6
 16 22  1  0
 17 18  1  0
 19 18  1  0
 20 21  1  0
 20 19  1  0
 22 24  1  0
 23 22  2  0
M  END
$$$$
