DCK.pdb
     RDKit          3D

 24 23  0  0  1  0  0  0  0  0999 V2000
   12.3482  -20.4903   19.2422 N   0  0  0  0  0  0  0  0  0  0  0  0
   13.6650  -20.6741   19.7986 C   0  0  1  0  0  0  0  0  0  0  0  0
   14.6009  -19.7743   18.9785 C   0  0  0  0  0  0  0  0  0  0  0  0
   14.5100  -20.2568   17.5853 C   0  0  0  0  0  0  0  0  0  0  0  0
   13.7620  -21.2130   17.3005 O   0  0  0  0  0  0  0  0  0  0  0  0
   13.7647  -20.2225   21.2001 C   0  0  0  0  0  0  0  0  0  0  0  0
   14.9043  -20.0390   21.7060 O   0  0  0  0  0  0  0  0  0  0  0  0
   15.2737  -19.6207   16.6149 O   0  0  0  0  0  0  0  0  0  0  0  0
   12.5928  -20.0010   21.9594 N   0  0  0  0  0  0  0  0  0  0  0  0
   12.6664  -19.5765   23.3434 C   0  0  1  0  0  0  0  0  0  0  0  0
   11.3650  -18.8335   23.6807 C   0  0  0  0  0  0  0  0  0  0  0  0
   11.4528  -17.1131   23.1219 S   0  0  0  0  0  0  0  0  0  0  0  0
   12.6842  -20.7837   24.1951 C   0  0  0  0  0  0  0  0  0  0  0  0
   11.8840  -21.7339   23.9105 O   0  0  0  0  0  0  0  0  0  0  0  0
   13.5577  -20.8914   25.2932 N   0  0  0  0  0  0  0  0  0  0  0  0
   13.5320  -22.1827   26.0573 C   0  0  1  0  0  0  0  0  0  0  0  0
   14.9390  -22.5530   26.3260 C   0  0  0  0  0  0  0  0  0  0  0  0
   15.2690  -23.7999   27.0120 C   0  0  0  0  0  0  0  0  0  0  0  0
   16.6551  -24.2387   27.2327 C   0  0  0  0  0  0  0  0  0  0  0  0
   16.5635  -25.6484   27.8720 C   0  0  0  0  0  0  0  0  0  0  0  0
   17.8791  -26.1507   28.1381 N   0  0  0  0  0  0  0  0  0  0  0  0
   12.7000  -21.8303   27.2332 C   0  0  0  0  0  0  0  0  0  0  0  0
   12.6734  -20.5858   27.5829 O   0  0  0  0  0  0  0  0  0  0  0  0
   11.9334  -22.6306   28.0245 O   0  0  0  0  0  0  0  0  0  0  0  0
  2  1  1  6
  2  3  1  0
  3  4  1  0
  4  5  2  0
  4  8  1  0
  6  2  1  0
  6  9  1  0
  7  6  2  0
 10  9  1  0
 10 13  1  0
 10 11  1  1
 12 11  1  0
 13 15  1  0
 14 13  2  0
 15 16  1  0
 16 17  1  1
 16 22  1  0
 17 18  1  0
 19 18  1  0
 20 21  1  0
 20 19  1  0
 22 24  1  0
 23 22  2  0
M  END
$$$$
