WHL.pdb
     RDKit          3D

 33 35  0  0  1  0  0  0  0  0999 V2000
   28.1291  -21.5642  -10.7159 N   0  0  0  0  0  0  0  0  0  0  0  0
   26.8565  -21.2540  -10.1589 C   0  0  1  0  0  0  0  0  0  0  0  0
   26.8421  -20.1012   -9.2167 C   0  0  0  0  0  0  0  0  0  0  0  0
   27.8750  -20.2586   -8.1682 C   0  0  0  0  0  0  0  0  0  0  0  0
   29.1489  -20.8144   -8.3562 C   0  0  0  0  0  0  0  0  0  0  0  0
   29.8301  -20.7781   -7.2031 N   0  0  0  0  0  0  0  0  0  0  0  0
   29.0687  -20.2217   -6.2450 C   0  0  0  0  0  0  0  0  0  0  0  0
   29.3188  -19.9717   -4.9087 C   0  0  0  0  0  0  0  0  0  0  0  0
   28.3472  -19.3904   -4.1447 C   0  0  0  0  0  0  0  0  0  0  0  0
   27.1543  -19.0719   -4.7217 C   0  0  0  0  0  0  0  0  0  0  0  0
   26.8716  -19.3076   -6.0535 C   0  0  0  0  0  0  0  0  0  0  0  0
   27.8440  -19.8947   -6.8419 C   0  0  0  0  0  0  0  0  0  0  0  0
   25.8918  -20.9929  -11.2863 C   0  0  0  0  0  0  0  0  0  0  0  0
   25.9745  -19.9151  -11.9484 O   0  0  0  0  0  0  0  0  0  0  0  0
   24.8797  -21.9051  -11.6504 N   0  0  0  0  0  0  0  0  0  0  0  0
   23.9445  -21.5750  -12.6958 C   0  0  1  0  0  0  0  0  0  0  0  0
   23.8236  -22.6291  -13.7454 C   0  0  0  0  0  0  0  0  0  0  0  0
   25.0235  -22.7784  -14.6028 C   0  0  0  0  0  0  0  0  0  0  0  0
   26.1880  -22.0279  -14.5469 C   0  0  0  0  0  0  0  0  0  0  0  0
   27.0617  -22.4449  -15.4797 N   0  0  0  0  0  0  0  0  0  0  0  0
   26.4748  -23.4561  -16.1374 C   0  0  0  0  0  0  0  0  0  0  0  0
   25.2437  -23.6578  -15.6079 N   0  0  0  0  0  0  0  0  0  0  0  0
   22.5758  -21.4179  -12.0962 C   0  0  0  0  0  0  0  0  0  0  0  0
   22.4637  -21.1904  -10.8610 O   0  0  0  0  0  0  0  0  0  0  0  0
   20.3876  -16.9167  -14.0073 C   0  0  0  0  0  0  0  0  0  0  0  0
   20.1241  -17.9247  -12.9290 C   0  0  2  0  0  0  0  0  0  0  0  0
   20.4977  -17.2267  -11.6001 C   0  0  0  0  0  0  0  0  0  0  0  0
   20.9124  -19.1579  -12.9869 C   0  0  0  0  0  0  0  0  0  0  0  0
   20.3145  -20.4816  -12.7262 C   0  0  2  0  0  0  0  0  0  0  0  0
   21.4019  -21.5133  -12.8521 N   0  0  0  0  0  0  0  0  0  0  0  0
   19.2202  -20.9687  -13.5293 C   0  0  0  0  0  0  0  0  0  0  0  0
   19.2742  -21.5618  -14.7786 O   0  0  0  0  0  0  0  0  0  0  0  0
   18.0161  -20.8599  -13.0813 O   0  0  0  0  0  0  0  0  0  0  0  0
  2  1  1  6
  2 13  1  0
  2  3  1  0
  4  5  2  0
  4  3  1  0
  6  5  1  0
  7 12  2  0
  7  6  1  0
  8  7  1  0
  9 10  1  0
  9  8  2  0
 10 11  2  0
 11 12  1  0
 12  4  1  0
 13 14  2  0
 15 13  1  0
 15 16  1  0
 16 17  1  6
 18 22  1  0
 18 17  1  0
 19 18  2  0
 20 19  1  0
 20 21  1  0
 21 22  2  0
 23 24  2  0
 23 16  1  0
 26 25  1  6
 26 27  1  0
 26 28  1  0
 29 28  1  6
 29 30  1  0
 30 23  1  0
 31 32  1  0
 31 29  1  0
 33 31  2  0
M  END
$$$$
