WHL.pdb
     RDKit          3D

 33 35  0  0  1  0  0  0  0  0999 V2000
   26.8057  -22.5991  -12.3782 N   0  0  0  0  0  0  0  0  0  0  0  0
   26.1354  -21.5100  -11.7532 C   0  0  1  0  0  0  0  0  0  0  0  0
   26.9771  -20.3070  -11.5055 C   0  0  0  0  0  0  0  0  0  0  0  0
   27.8969  -20.5271  -10.3669 C   0  0  0  0  0  0  0  0  0  0  0  0
   29.2592  -20.8442  -10.4693 C   0  0  0  0  0  0  0  0  0  0  0  0
   29.7902  -20.9485   -9.2437 N   0  0  0  0  0  0  0  0  0  0  0  0
   28.8428  -20.7156   -8.3188 C   0  0  0  0  0  0  0  0  0  0  0  0
   28.8949  -20.7123   -6.9375 C   0  0  0  0  0  0  0  0  0  0  0  0
   27.7594  -20.4455   -6.2269 C   0  0  0  0  0  0  0  0  0  0  0  0
   26.6026  -20.1893   -6.9003 C   0  0  0  0  0  0  0  0  0  0  0  0
   26.5156  -20.1844   -8.2793 C   0  0  0  0  0  0  0  0  0  0  0  0
   27.6557  -20.4516   -9.0147 C   0  0  0  0  0  0  0  0  0  0  0  0
   24.9504  -21.1276  -12.6014 C   0  0  0  0  0  0  0  0  0  0  0  0
   25.0263  -21.2134  -13.8639 O   0  0  0  0  0  0  0  0  0  0  0  0
   23.7355  -20.6688  -12.0515 N   0  0  0  0  0  0  0  0  0  0  0  0
   22.6584  -20.2518  -12.9132 C   0  0  1  0  0  0  0  0  0  0  0  0
   21.4099  -19.8917  -12.1791 C   0  0  0  0  0  0  0  0  0  0  0  0
   20.2608  -19.5586  -13.0542 C   0  0  0  0  0  0  0  0  0  0  0  0
   20.2448  -19.5412  -14.4405 C   0  0  0  0  0  0  0  0  0  0  0  0
   19.0281  -19.1911  -14.8926 N   0  0  0  0  0  0  0  0  0  0  0  0
   18.2582  -18.9821  -13.8142 C   0  0  0  0  0  0  0  0  0  0  0  0
   19.0024  -19.2041  -12.7036 N   0  0  0  0  0  0  0  0  0  0  0  0
   23.0792  -19.0180  -13.6603 C   0  0  0  0  0  0  0  0  0  0  0  0
   23.5734  -18.0478  -13.0242 O   0  0  0  0  0  0  0  0  0  0  0  0
   25.5252  -15.7282  -16.7215 C   0  0  0  0  0  0  0  0  0  0  0  0
   26.0122  -16.7722  -15.7618 C   0  0  2  0  0  0  0  0  0  0  0  0
   27.2588  -17.4044  -16.4245 C   0  0  0  0  0  0  0  0  0  0  0  0
   25.0889  -17.8734  -15.4775 C   0  0  0  0  0  0  0  0  0  0  0  0
   23.6500  -17.7893  -15.7937 C   0  0  2  0  0  0  0  0  0  0  0  0
   22.9474  -18.8904  -15.0477 N   0  0  0  0  0  0  0  0  0  0  0  0
   23.1865  -17.8841  -17.1561 C   0  0  0  0  0  0  0  0  0  0  0  0
   22.9201  -16.8550  -18.0423 O   0  0  0  0  0  0  0  0  0  0  0  0
   22.9699  -19.0487  -17.6654 O   0  0  0  0  0  0  0  0  0  0  0  0
  2  1  1  6
  2 13  1  0
  2  3  1  0
  4  5  2  0
  4  3  1  0
  6  5  1  0
  7 12  2  0
  7  6  1  0
  8  7  1  0
  9 10  1  0
  9  8  2  0
 10 11  2  0
 11 12  1  0
 12  4  1  0
 13 14  2  0
 15 13  1  0
 15 16  1  0
 16 17  1  1
 18 22  1  0
 18 17  1  0
 19 18  2  0
 20 19  1  0
 20 21  1  0
 21 22  2  0
 23 24  2  0
 23 16  1  0
 26 25  1  6
 26 27  1  0
 26 28  1  0
 29 28  1  6
 29 30  1  0
 30 23  1  0
 31 32  1  0
 31 29  1  0
 33 31  2  0
M  END
$$$$
