WHL.pdb
     RDKit          3D

 33 35  0  0  1  0  0  0  0  0999 V2000
   26.2832  -21.0001  -12.2384 N   0  0  0  0  0  0  0  0  0  0  0  0
   25.5810  -20.6596  -11.0480 C   0  0  1  0  0  0  0  0  0  0  0  0
   24.5886  -21.6698  -10.5879 C   0  0  0  0  0  0  0  0  0  0  0  0
   23.3080  -21.5272  -11.3165 C   0  0  0  0  0  0  0  0  0  0  0  0
   22.9538  -22.2178  -12.4846 C   0  0  0  0  0  0  0  0  0  0  0  0
   21.7167  -21.8646  -12.8584 N   0  0  0  0  0  0  0  0  0  0  0  0
   21.2219  -20.9640  -11.9915 C   0  0  0  0  0  0  0  0  0  0  0  0
   20.0071  -20.3057  -11.9511 C   0  0  0  0  0  0  0  0  0  0  0  0
   19.7616  -19.4181  -10.9424 C   0  0  0  0  0  0  0  0  0  0  0  0
   20.7233  -19.2048  -10.0005 C   0  0  0  0  0  0  0  0  0  0  0  0
   21.9473  -19.8457  -10.0110 C   0  0  0  0  0  0  0  0  0  0  0  0
   22.2125  -20.7481  -11.0245 C   0  0  0  0  0  0  0  0  0  0  0  0
   26.5867  -20.4097   -9.9543 C   0  0  0  0  0  0  0  0  0  0  0  0
   27.3278  -21.3564   -9.5526 O   0  0  0  0  0  0  0  0  0  0  0  0
   26.7492  -19.1500   -9.3414 N   0  0  0  0  0  0  0  0  0  0  0  0
   27.5770  -19.0123   -8.1700 C   0  0  1  0  0  0  0  0  0  0  0  0
   27.7061  -17.6049   -7.6904 C   0  0  0  0  0  0  0  0  0  0  0  0
   28.6548  -17.4270   -6.5655 C   0  0  0  0  0  0  0  0  0  0  0  0
   29.4018  -18.4133   -5.9397 C   0  0  0  0  0  0  0  0  0  0  0  0
   30.1519  -17.8836   -4.9578 N   0  0  0  0  0  0  0  0  0  0  0  0
   29.8979  -16.5665   -4.9424 C   0  0  0  0  0  0  0  0  0  0  0  0
   28.9937  -16.2904   -5.9134 N   0  0  0  0  0  0  0  0  0  0  0  0
   26.9598  -19.7878   -7.0407 C   0  0  0  0  0  0  0  0  0  0  0  0
   26.0145  -20.5865   -7.2826 O   0  0  0  0  0  0  0  0  0  0  0  0
   30.2746  -23.6325   -5.7491 C   0  0  0  0  0  0  0  0  0  0  0  0
   29.1401  -22.9762   -5.0209 C   0  0  2  0  0  0  0  0  0  0  0  0
   27.9391  -23.9417   -5.1554 C   0  0  0  0  0  0  0  0  0  0  0  0
   28.6946  -21.6828   -5.5448 C   0  0  0  0  0  0  0  0  0  0  0  0
   27.6538  -20.8825   -4.8711 C   0  0  2  0  0  0  0  0  0  0  0  0
   27.3884  -19.6652   -5.7141 N   0  0  0  0  0  0  0  0  0  0  0  0
   27.8524  -20.3917   -3.5297 C   0  0  0  0  0  0  0  0  0  0  0  0
   28.7425  -19.4247   -3.0960 O   0  0  0  0  0  0  0  0  0  0  0  0
   27.1439  -20.8826   -2.5708 O   0  0  0  0  0  0  0  0  0  0  0  0
  2  1  1  6
  2 13  1  0
  2  3  1  0
  4  5  2  0
  4  3  1  0
  6  5  1  0
  7 12  2  0
  7  6  1  0
  8  7  1  0
  9 10  1  0
  9  8  2  0
 10 11  2  0
 11 12  1  0
 12  4  1  0
 13 14  2  0
 15 13  1  0
 15 16  1  0
 16 17  1  1
 18 22  1  0
 18 17  1  0
 19 18  2  0
 20 19  1  0
 20 21  1  0
 21 22  2  0
 23 24  2  0
 23 16  1  0
 26 25  1  6
 26 27  1  0
 26 28  1  0
 29 28  1  6
 29 30  1  0
 30 23  1  0
 31 32  1  0
 31 29  1  0
 33 31  2  0
M  END
$$$$
