WHL.pdb
     RDKit          3D

 33 35  0  0  1  0  0  0  0  0999 V2000
   23.5501  -22.2793  -13.4678 N   0  0  0  0  0  0  0  0  0  0  0  0
   24.0401  -21.1381  -12.7724 C   0  0  1  0  0  0  0  0  0  0  0  0
   23.0059  -20.3405  -12.0573 C   0  0  0  0  0  0  0  0  0  0  0  0
   22.0695  -19.7062  -13.0122 C   0  0  0  0  0  0  0  0  0  0  0  0
   20.6707  -19.7953  -12.9629 C   0  0  0  0  0  0  0  0  0  0  0  0
   20.1389  -19.0821  -13.9646 N   0  0  0  0  0  0  0  0  0  0  0  0
   21.1206  -18.5160  -14.6879 C   0  0  0  0  0  0  0  0  0  0  0  0
   21.0806  -17.7052  -15.8067 C   0  0  0  0  0  0  0  0  0  0  0  0
   22.2518  -17.2670  -16.3562 C   0  0  0  0  0  0  0  0  0  0  0  0
   23.4312  -17.6419  -15.7854 C   0  0  0  0  0  0  0  0  0  0  0  0
   23.5070  -18.4506  -14.6676 C   0  0  0  0  0  0  0  0  0  0  0  0
   22.3311  -18.9027  -14.0977 C   0  0  0  0  0  0  0  0  0  0  0  0
   25.0916  -21.5902  -11.7926 C   0  0  0  0  0  0  0  0  0  0  0  0
   25.0870  -22.7860  -11.3718 O   0  0  0  0  0  0  0  0  0  0  0  0
   26.1017  -20.7332  -11.3088 N   0  0  0  0  0  0  0  0  0  0  0  0
   27.2162  -21.2677  -10.5682 C   0  0  1  0  0  0  0  0  0  0  0  0
   28.5343  -21.0590  -11.2365 C   0  0  0  0  0  0  0  0  0  0  0  0
   29.7016  -21.5024  -10.4378 C   0  0  0  0  0  0  0  0  0  0  0  0
   29.6772  -22.2140   -9.2481 C   0  0  0  0  0  0  0  0  0  0  0  0
   30.9277  -22.4385   -8.8084 N   0  0  0  0  0  0  0  0  0  0  0  0
   31.7593  -21.8799   -9.7006 C   0  0  0  0  0  0  0  0  0  0  0  0
   31.0191  -21.3145  -10.6849 N   0  0  0  0  0  0  0  0  0  0  0  0
   27.3013  -20.5697   -9.2404 C   0  0  0  0  0  0  0  0  0  0  0  0
   26.8434  -19.4004   -9.1256 O   0  0  0  0  0  0  0  0  0  0  0  0
   29.1387  -22.0237   -3.4503 C   0  0  0  0  0  0  0  0  0  0  0  0
   28.5001  -21.0112   -4.3532 C   0  0  2  0  0  0  0  0  0  0  0  0
   27.0689  -20.8018   -3.8050 C   0  0  0  0  0  0  0  0  0  0  0  0
   28.3548  -21.3957   -5.7592 C   0  0  0  0  0  0  0  0  0  0  0  0
   27.8983  -20.4414   -6.7880 C   0  0  2  0  0  0  0  0  0  0  0  0
   27.8724  -21.1618   -8.1082 N   0  0  0  0  0  0  0  0  0  0  0  0
   28.6170  -19.2143   -7.0278 C   0  0  0  0  0  0  0  0  0  0  0  0
   28.4247  -17.9802   -6.4315 O   0  0  0  0  0  0  0  0  0  0  0  0
   29.5654  -19.2031   -7.9012 O   0  0  0  0  0  0  0  0  0  0  0  0
  2  1  1  1
  2 13  1  0
  2  3  1  0
  4  5  2  0
  4  3  1  0
  6  5  1  0
  7 12  2  0
  7  6  1  0
  8  7  1  0
  9 10  1  0
  9  8  2  0
 10 11  2  0
 11 12  1  0
 12  4  1  0
 13 14  2  0
 15 13  1  0
 15 16  1  0
 16 17  1  6
 18 22  1  0
 18 17  1  0
 19 18  2  0
 20 19  1  0
 20 21  1  0
 21 22  2  0
 23 24  2  0
 23 16  1  0
 26 25  1  1
 26 27  1  0
 26 28  1  0
 29 28  1  1
 29 30  1  0
 30 23  1  0
 31 32  1  0
 31 29  1  0
 33 31  2  0
M  END
$$$$
