WHL.pdb
     RDKit          3D

 33 35  0  0  1  0  0  0  0  0999 V2000
   20.8834  -21.3514  -19.1577 N   0  0  0  0  0  0  0  0  0  0  0  0
   22.1970  -21.7127  -18.7457 C   0  0  1  0  0  0  0  0  0  0  0  0
   23.2997  -21.0836  -19.5237 C   0  0  0  0  0  0  0  0  0  0  0  0
   22.7795  -20.0376  -20.4326 C   0  0  0  0  0  0  0  0  0  0  0  0
   22.1517  -20.2679  -21.6655 C   0  0  0  0  0  0  0  0  0  0  0  0
   21.7866  -19.0994  -22.2096 N   0  0  0  0  0  0  0  0  0  0  0  0
   22.1425  -18.0904  -21.3956 C   0  0  0  0  0  0  0  0  0  0  0  0
   21.9909  -16.7217  -21.5161 C   0  0  0  0  0  0  0  0  0  0  0  0
   22.4600  -15.9079  -20.5246 C   0  0  0  0  0  0  0  0  0  0  0  0
   23.0665  -16.4684  -19.4404 C   0  0  0  0  0  0  0  0  0  0  0  0
   23.2341  -17.8314  -19.2883 C   0  0  0  0  0  0  0  0  0  0  0  0
   22.7644  -18.6703  -20.2821 C   0  0  0  0  0  0  0  0  0  0  0  0
   22.3522  -21.3688  -17.2870 C   0  0  0  0  0  0  0  0  0  0  0  0
   23.4083  -20.7945  -16.8848 O   0  0  0  0  0  0  0  0  0  0  0  0
   21.3621  -21.6595  -16.3257 N   0  0  0  0  0  0  0  0  0  0  0  0
   21.3943  -21.0236  -15.0330 C   0  0  1  0  0  0  0  0  0  0  0  0
   21.1985  -19.5451  -15.0883 C   0  0  0  0  0  0  0  0  0  0  0  0
   22.4503  -18.7684  -15.2519 C   0  0  0  0  0  0  0  0  0  0  0  0
   23.7435  -19.2670  -15.2864 C   0  0  0  0  0  0  0  0  0  0  0  0
   24.6288  -18.2681  -15.4468 N   0  0  0  0  0  0  0  0  0  0  0  0
   23.9220  -17.1300  -15.5164 C   0  0  0  0  0  0  0  0  0  0  0  0
   22.6061  -17.4319  -15.3987 N   0  0  0  0  0  0  0  0  0  0  0  0
   20.2734  -21.5664  -14.1926 C   0  0  0  0  0  0  0  0  0  0  0  0
   19.1408  -21.7500  -14.7157 O   0  0  0  0  0  0  0  0  0  0  0  0
   18.7877  -25.4730  -10.9024 C   0  0  0  0  0  0  0  0  0  0  0  0
   19.0924  -24.2043  -10.1638 C   0  0  2  0  0  0  0  0  0  0  0  0
   17.7209  -23.5667   -9.8390 C   0  0  0  0  0  0  0  0  0  0  0  0
   19.8573  -23.1936  -10.8981 C   0  0  0  0  0  0  0  0  0  0  0  0
   19.2866  -22.4608  -12.0447 C   0  0  2  0  0  0  0  0  0  0  0  0
   20.4264  -21.8827  -12.8379 N   0  0  0  0  0  0  0  0  0  0  0  0
   18.3629  -21.3724  -11.8398 C   0  0  0  0  0  0  0  0  0  0  0  0
   16.9804  -21.4205  -11.7981 O   0  0  0  0  0  0  0  0  0  0  0  0
   18.8251  -20.1801  -11.6746 O   0  0  0  0  0  0  0  0  0  0  0  0
  2  1  1  6
  2 13  1  0
  2  3  1  0
  4  5  2  0
  4  3  1  0
  6  5  1  0
  7 12  2  0
  7  6  1  0
  8  7  1  0
  9 10  1  0
  9  8  2  0
 10 11  2  0
 11 12  1  0
 12  4  1  0
 13 14  2  0
 15 13  1  0
 15 16  1  0
 16 17  1  6
 18 22  1  0
 18 17  1  0
 19 18  2  0
 20 19  1  0
 20 21  1  0
 21 22  2  0
 23 24  2  0
 23 16  1  0
 26 25  1  6
 26 27  1  0
 26 28  1  0
 29 28  1  1
 29 30  1  0
 30 23  1  0
 31 32  1  0
 31 29  1  0
 33 31  2  0
M  END
$$$$
