WHL.pdb
     RDKit          3D

 33 35  0  0  1  0  0  0  0  0999 V2000
   26.6198  -22.0652  -12.2955 N   0  0  0  0  0  0  0  0  0  0  0  0
   25.9488  -21.1004  -11.4924 C   0  0  1  0  0  0  0  0  0  0  0  0
   26.7832  -19.9447  -11.0621 C   0  0  0  0  0  0  0  0  0  0  0  0
   27.9002  -20.3881  -10.1979 C   0  0  0  0  0  0  0  0  0  0  0  0
   29.0626  -21.0378  -10.6379 C   0  0  0  0  0  0  0  0  0  0  0  0
   29.8698  -21.2713   -9.5944 N   0  0  0  0  0  0  0  0  0  0  0  0
   29.3001  -20.8068   -8.4688 C   0  0  0  0  0  0  0  0  0  0  0  0
   29.7309  -20.8156   -7.1554 C   0  0  0  0  0  0  0  0  0  0  0  0
   28.9352  -20.2711   -6.1878 C   0  0  0  0  0  0  0  0  0  0  0  0
   27.7350  -19.7327   -6.5442 C   0  0  0  0  0  0  0  0  0  0  0  0
   27.2744  -19.7072   -7.8467 C   0  0  0  0  0  0  0  0  0  0  0  0
   28.0674  -20.2533   -8.8391 C   0  0  0  0  0  0  0  0  0  0  0  0
   24.7484  -20.5977  -12.2516 C   0  0  0  0  0  0  0  0  0  0  0  0
   24.8201  -19.5049  -12.8901 O   0  0  0  0  0  0  0  0  0  0  0  0
   23.5231  -21.2950  -12.2889 N   0  0  0  0  0  0  0  0  0  0  0  0
   22.4088  -20.7683  -13.0355 C   0  0  1  0  0  0  0  0  0  0  0  0
   22.6820  -20.6225  -14.4954 C   0  0  0  0  0  0  0  0  0  0  0  0
   21.5849  -19.9854  -15.2620 C   0  0  0  0  0  0  0  0  0  0  0  0
   20.3575  -19.5667  -14.7713 C   0  0  0  0  0  0  0  0  0  0  0  0
   19.6135  -19.0350  -15.7568 N   0  0  0  0  0  0  0  0  0  0  0  0
   20.3463  -19.1056  -16.8782 C   0  0  0  0  0  0  0  0  0  0  0  0
   21.5371  -19.6796  -16.5796 N   0  0  0  0  0  0  0  0  0  0  0  0
   21.2484  -21.7153  -12.9160 C   0  0  0  0  0  0  0  0  0  0  0  0
   21.3870  -22.9132  -13.2845 O   0  0  0  0  0  0  0  0  0  0  0  0
   19.1583  -25.0382  -10.6283 C   0  0  0  0  0  0  0  0  0  0  0  0
   19.3864  -23.6460  -10.1205 C   0  0  2  0  0  0  0  0  0  0  0  0
   18.8577  -23.6363   -8.6668 C   0  0  0  0  0  0  0  0  0  0  0  0
   18.6807  -22.5740  -10.8267 C   0  0  0  0  0  0  0  0  0  0  0  0
   18.8823  -22.3207  -12.2664 C   0  0  2  0  0  0  0  0  0  0  0  0
   20.0031  -21.3276  -12.4088 N   0  0  0  0  0  0  0  0  0  0  0  0
   17.8077  -21.8156  -13.0850 C   0  0  0  0  0  0  0  0  0  0  0  0
   17.7559  -20.6252  -13.7890 O   0  0  0  0  0  0  0  0  0  0  0  0
   16.7318  -22.5152  -13.2096 O   0  0  0  0  0  0  0  0  0  0  0  0
  2  1  1  6
  2 13  1  0
  2  3  1  0
  4  5  2  0
  4  3  1  0
  6  5  1  0
  7 12  2  0
  7  6  1  0
  8  7  1  0
  9 10  1  0
  9  8  2  0
 10 11  2  0
 11 12  1  0
 12  4  1  0
 13 14  2  0
 15 13  1  0
 15 16  1  0
 16 17  1  6
 18 22  1  0
 18 17  1  0
 19 18  2  0
 20 19  1  0
 20 21  1  0
 21 22  2  0
 23 24  2  0
 23 16  1  0
 26 25  1  6
 26 27  1  0
 26 28  1  0
 29 28  1  1
 29 30  1  0
 30 23  1  0
 31 32  1  0
 31 29  1  0
 33 31  2  0
M  END
$$$$
