PDC.pdb
     RDKit          3D

 22 22  0  0  1  0  0  0  0  0999 V2000
    8.4555  -14.5767   18.2664 N   0  0  0  0  0  0  0  0  0  0  0  0
    7.0848  -14.2317   18.5318 C   0  0  0  0  0  0  0  0  0  0  0  0
    7.1982  -12.8498   19.1327 C   0  0  0  0  0  0  0  0  0  0  0  0
    8.6118  -12.7072   19.6562 C   0  0  0  0  0  0  0  0  0  0  0  0
    9.2177  -14.0704   19.4026 C   0  0  1  0  0  0  0  0  0  0  0  0
    9.0392  -14.9752   20.5588 C   0  0  0  0  0  0  0  0  0  0  0  0
    7.8709  -15.1347   21.0470 O   0  0  0  0  0  0  0  0  0  0  0  0
   10.1646  -15.6407   21.0923 N   0  0  0  0  0  0  0  0  0  0  0  0
   10.0095  -16.6271   22.1598 C   0  0  1  0  0  0  0  0  0  0  0  0
   11.1172  -17.6191   22.0779 C   0  0  0  0  0  0  0  0  0  0  0  0
   11.1956  -18.4188   20.8524 C   0  0  0  0  0  0  0  0  0  0  0  0
   12.1383  -18.2975   20.0459 O   0  0  0  0  0  0  0  0  0  0  0  0
    9.9872  -15.8957   23.4715 C   0  0  0  0  0  0  0  0  0  0  0  0
   10.8448  -15.0700   23.8415 O   0  0  0  0  0  0  0  0  0  0  0  0
   10.2187  -19.3520   20.5330 O   0  0  0  0  0  0  0  0  0  0  0  0
    8.9302  -16.1118   24.4222 N   0  0  0  0  0  0  0  0  0  0  0  0
    8.9223  -15.5337   25.7282 C   0  0  1  0  0  0  0  0  0  0  0  0
    7.6087  -14.8844   26.0936 C   0  0  0  0  0  0  0  0  0  0  0  0
    7.2459  -13.6545   24.8048 S   0  0  0  0  0  0  0  0  0  0  0  0
    9.3442  -16.4714   26.7854 C   0  0  0  0  0  0  0  0  0  0  0  0
    9.5596  -17.6975   26.5496 O   0  0  0  0  0  0  0  0  0  0  0  0
    9.5229  -16.0514   28.0817 O   0  0  0  0  0  0  0  0  0  0  0  0
  1  5  1  0
  1  2  1  0
  3  4  1  0
  3  2  1  0
  4  5  1  0
  5  6  1  1
  7  6  2  0
  8  6  1  0
  9  8  1  0
  9 13  1  0
  9 10  1  1
 11 12  2  0
 11 10  1  0
 13 16  1  0
 14 13  2  0
 15 11  1  0
 16 17  1  0
 17 20  1  0
 17 18  1  1
 19 18  1  0
 20 21  2  0
 20 22  1  0
M  END
$$$$
