PDC.pdb
     RDKit          3D

 22 22  0  0  1  0  0  0  0  0999 V2000
    8.2518  -14.2938   18.0594 N   0  0  0  0  0  0  0  0  0  0  0  0
    7.1022  -13.8461   18.7986 C   0  0  0  0  0  0  0  0  0  0  0  0
    7.6381  -12.6575   19.5626 C   0  0  0  0  0  0  0  0  0  0  0  0
    9.1426  -12.8141   19.6304 C   0  0  0  0  0  0  0  0  0  0  0  0
    9.3850  -14.1524   18.9670 C   0  0  1  0  0  0  0  0  0  0  0  0
    9.3744  -15.2612   19.9457 C   0  0  0  0  0  0  0  0  0  0  0  0
    8.2546  -15.7310   20.3385 O   0  0  0  0  0  0  0  0  0  0  0  0
   10.6021  -15.7731   20.4195 N   0  0  0  0  0  0  0  0  0  0  0  0
   10.6283  -16.8293   21.4295 C   0  0  1  0  0  0  0  0  0  0  0  0
   11.8543  -17.6547   21.2468 C   0  0  0  0  0  0  0  0  0  0  0  0
   11.8557  -18.5912   20.1196 C   0  0  0  0  0  0  0  0  0  0  0  0
   12.2404  -18.2535   18.9831 O   0  0  0  0  0  0  0  0  0  0  0  0
   10.5662  -16.1821   22.7835 C   0  0  0  0  0  0  0  0  0  0  0  0
   11.3600  -15.3133   23.1949 O   0  0  0  0  0  0  0  0  0  0  0  0
   11.4265  -19.9031   20.2678 O   0  0  0  0  0  0  0  0  0  0  0  0
    9.5439  -16.5398   23.7293 N   0  0  0  0  0  0  0  0  0  0  0  0
    9.4646  -15.9848   25.0430 C   0  0  1  0  0  0  0  0  0  0  0  0
    8.0992  -15.4385   25.3867 C   0  0  0  0  0  0  0  0  0  0  0  0
    7.7013  -14.1765   24.1399 S   0  0  0  0  0  0  0  0  0  0  0  0
    9.9300  -16.9062   26.0962 C   0  0  0  0  0  0  0  0  0  0  0  0
   10.3393  -18.0761   25.8332 O   0  0  0  0  0  0  0  0  0  0  0  0
    9.9394  -16.5317   27.4185 O   0  0  0  0  0  0  0  0  0  0  0  0
  1  5  1  0
  1  2  1  0
  3  4  1  0
  3  2  1  0
  4  5  1  0
  5  6  1  1
  7  6  2  0
  8  6  1  0
  9  8  1  0
  9 13  1  0
  9 10  1  1
 11 12  2  0
 11 10  1  0
 13 16  1  0
 14 13  2  0
 15 11  1  0
 16 17  1  0
 17 20  1  0
 17 18  1  1
 19 18  1  0
 20 21  2  0
 20 22  1  0
M  END
$$$$
