PDC.pdb
     RDKit          3D

 22 22  0  0  1  0  0  0  0  0999 V2000
    7.9728  -14.6712   19.2155 N   0  0  0  0  0  0  0  0  0  0  0  0
    6.9201  -13.9297   19.8560 C   0  0  0  0  0  0  0  0  0  0  0  0
    7.5884  -12.6141   20.1822 C   0  0  0  0  0  0  0  0  0  0  0  0
    9.0816  -12.8652   20.1955 C   0  0  0  0  0  0  0  0  0  0  0  0
    9.1874  -14.3562   19.9595 C   0  0  1  0  0  0  0  0  0  0  0  0
    9.1986  -15.1145   21.2293 C   0  0  0  0  0  0  0  0  0  0  0  0
    8.0880  -15.4273   21.7746 O   0  0  0  0  0  0  0  0  0  0  0  0
   10.4366  -15.4745   21.8053 N   0  0  0  0  0  0  0  0  0  0  0  0
   10.4877  -16.3582   22.9684 C   0  0  1  0  0  0  0  0  0  0  0  0
   11.6899  -17.2315   22.8704 C   0  0  0  0  0  0  0  0  0  0  0  0
   11.7080  -18.2067   21.7766 C   0  0  0  0  0  0  0  0  0  0  0  0
   12.7046  -18.3552   21.0429 O   0  0  0  0  0  0  0  0  0  0  0  0
   10.4956  -15.5038   24.2037 C   0  0  0  0  0  0  0  0  0  0  0  0
   10.5406  -14.2580   24.2080 O   0  0  0  0  0  0  0  0  0  0  0  0
   10.6104  -19.0130   21.5072 O   0  0  0  0  0  0  0  0  0  0  0  0
   10.4498  -16.0953   25.5136 N   0  0  0  0  0  0  0  0  0  0  0  0
   10.1443  -15.3547   26.6961 C   0  0  1  0  0  0  0  0  0  0  0  0
    8.7795  -14.7087   26.6687 C   0  0  0  0  0  0  0  0  0  0  0  0
    8.8047  -13.3588   27.8863 S   0  0  0  0  0  0  0  0  0  0  0  0
   10.3197  -16.1339   27.9358 C   0  0  0  0  0  0  0  0  0  0  0  0
   10.3824  -17.3994   27.9312 O   0  0  0  0  0  0  0  0  0  0  0  0
   10.4233  -15.5152   29.1587 O   0  0  0  0  0  0  0  0  0  0  0  0
  1  5  1  0
  1  2  1  0
  3  4  1  0
  3  2  1  0
  4  5  1  0
  5  6  1  1
  7  6  2  0
  8  6  1  0
  9  8  1  0
  9 13  1  0
  9 10  1  6
 11 12  2  0
 11 10  1  0
 13 16  1  0
 14 13  2  0
 15 11  1  0
 16 17  1  0
 17 20  1  0
 17 18  1  6
 19 18  1  0
 20 21  2  0
 20 22  1  0
M  END
$$$$
