PDC.pdb
     RDKit          3D

 22 22  0  0  1  0  0  0  0  0999 V2000
    6.6875  -13.7011   21.2157 N   0  0  0  0  0  0  0  0  0  0  0  0
    7.7775  -12.7970   20.9649 C   0  0  0  0  0  0  0  0  0  0  0  0
    8.1255  -13.0847   19.5228 C   0  0  0  0  0  0  0  0  0  0  0  0
    7.5922  -14.4654   19.2036 C   0  0  0  0  0  0  0  0  0  0  0  0
    7.0352  -14.9398   20.5282 C   0  0  1  0  0  0  0  0  0  0  0  0
    8.0464  -15.6752   21.3182 C   0  0  0  0  0  0  0  0  0  0  0  0
    8.6910  -16.6287   20.7666 O   0  0  0  0  0  0  0  0  0  0  0  0
    8.2744  -15.3036   22.6613 N   0  0  0  0  0  0  0  0  0  0  0  0
    9.3137  -15.9625   23.4500 C   0  0  1  0  0  0  0  0  0  0  0  0
   10.5825  -15.9858   22.6707 C   0  0  0  0  0  0  0  0  0  0  0  0
   11.6777  -16.7901   23.2195 C   0  0  0  0  0  0  0  0  0  0  0  0
   11.6942  -17.1546   24.4114 O   0  0  0  0  0  0  0  0  0  0  0  0
    9.4505  -15.2247   24.7511 C   0  0  0  0  0  0  0  0  0  0  0  0
   10.4804  -15.2034   25.4532 O   0  0  0  0  0  0  0  0  0  0  0  0
   12.7513  -17.1844   22.4326 O   0  0  0  0  0  0  0  0  0  0  0  0
    8.3553  -14.4648   25.2904 N   0  0  0  0  0  0  0  0  0  0  0  0
    8.3899  -13.8488   26.5786 C   0  0  1  0  0  0  0  0  0  0  0  0
    7.1738  -13.0046   26.8775 C   0  0  0  0  0  0  0  0  0  0  0  0
    6.5912  -12.3302   25.2929 S   0  0  0  0  0  0  0  0  0  0  0  0
    8.6366  -14.8022   27.6763 C   0  0  0  0  0  0  0  0  0  0  0  0
    8.6935  -16.0527   27.4805 O   0  0  0  0  0  0  0  0  0  0  0  0
    8.8166  -14.3710   28.9688 O   0  0  0  0  0  0  0  0  0  0  0  0
  1  5  1  0
  1  2  1  0
  3  4  1  0
  3  2  1  0
  4  5  1  0
  5  6  1  1
  7  6  2  0
  8  6  1  0
  9  8  1  0
  9 13  1  0
  9 10  1  6
 11 12  2  0
 11 10  1  0
 13 16  1  0
 14 13  2  0
 15 11  1  0
 16 17  1  0
 17 20  1  0
 17 18  1  1
 19 18  1  0
 20 21  2  0
 20 22  1  0
M  END
$$$$
