PDC.pdb
     RDKit          3D

 22 22  0  0  1  0  0  0  0  0999 V2000
    8.5896  -14.4988   18.8351 N   0  0  0  0  0  0  0  0  0  0  0  0
    7.1752  -14.4871   18.5750 C   0  0  0  0  0  0  0  0  0  0  0  0
    6.7901  -13.0588   18.8837 C   0  0  0  0  0  0  0  0  0  0  0  0
    7.8655  -12.4939   19.7876 C   0  0  0  0  0  0  0  0  0  0  0  0
    8.7794  -13.6763   20.0248 C   0  0  1  0  0  0  0  0  0  0  0  0
    8.3835  -14.4455   21.2244 C   0  0  0  0  0  0  0  0  0  0  0  0
    7.1561  -14.4615   21.5736 O   0  0  0  0  0  0  0  0  0  0  0  0
    9.3720  -15.1436   21.9520 N   0  0  0  0  0  0  0  0  0  0  0  0
    9.0143  -15.9223   23.1360 C   0  0  1  0  0  0  0  0  0  0  0  0
    9.8458  -17.1569   23.1828 C   0  0  0  0  0  0  0  0  0  0  0  0
    9.6359  -18.0492   24.3262 C   0  0  0  0  0  0  0  0  0  0  0  0
    8.5217  -18.1696   24.8719 O   0  0  0  0  0  0  0  0  0  0  0  0
    9.2084  -15.0510   24.3440 C   0  0  0  0  0  0  0  0  0  0  0  0
   10.2538  -14.4268   24.6115 O   0  0  0  0  0  0  0  0  0  0  0  0
   10.6737  -18.8042   24.8555 O   0  0  0  0  0  0  0  0  0  0  0  0
    8.1556  -14.8755   25.3076 N   0  0  0  0  0  0  0  0  0  0  0  0
    8.2888  -14.0587   26.4717 C   0  0  1  0  0  0  0  0  0  0  0  0
    7.0054  -13.3758   26.8807 C   0  0  0  0  0  0  0  0  0  0  0  0
    6.5944  -12.1853   25.5696 S   0  0  0  0  0  0  0  0  0  0  0  0
    8.8818  -14.7693   27.6199 C   0  0  0  0  0  0  0  0  0  0  0  0
    9.1339  -16.0105   27.5851 O   0  0  0  0  0  0  0  0  0  0  0  0
    9.1886  -14.1097   28.7860 O   0  0  0  0  0  0  0  0  0  0  0  0
  1  5  1  0
  1  2  1  0
  3  4  1  0
  3  2  1  0
  4  5  1  0
  5  6  1  1
  7  6  2  0
  8  6  1  0
  9  8  1  0
  9 13  1  0
  9 10  1  1
 11 12  2  0
 11 10  1  0
 13 16  1  0
 14 13  2  0
 15 11  1  0
 16 17  1  0
 17 20  1  0
 17 18  1  1
 19 18  1  0
 20 21  2  0
 20 22  1  0
M  END
$$$$
