PDC.pdb
     RDKit          3D

 22 22  0  0  1  0  0  0  0  0999 V2000
    9.3393  -13.6923   18.2806 N   0  0  0  0  0  0  0  0  0  0  0  0
    8.3041  -14.3922   17.5687 C   0  0  0  0  0  0  0  0  0  0  0  0
    7.0416  -13.7608   18.1082 C   0  0  0  0  0  0  0  0  0  0  0  0
    7.3920  -13.1363   19.4424 C   0  0  0  0  0  0  0  0  0  0  0  0
    8.8404  -13.5263   19.6413 C   0  0  1  0  0  0  0  0  0  0  0  0
    8.9702  -14.8048   20.3735 C   0  0  0  0  0  0  0  0  0  0  0  0
    7.9473  -15.2874   20.9647 O   0  0  0  0  0  0  0  0  0  0  0  0
   10.2209  -15.4596   20.3991 N   0  0  0  0  0  0  0  0  0  0  0  0
   10.4391  -16.6145   21.2680 C   0  0  1  0  0  0  0  0  0  0  0  0
   11.6859  -17.3147   20.8523 C   0  0  0  0  0  0  0  0  0  0  0  0
   12.0175  -18.5497   21.5681 C   0  0  0  0  0  0  0  0  0  0  0  0
   13.1969  -18.9108   21.7474 O   0  0  0  0  0  0  0  0  0  0  0  0
   10.4986  -16.1262   22.6872 C   0  0  0  0  0  0  0  0  0  0  0  0
   11.2710  -15.2410   23.1043 O   0  0  0  0  0  0  0  0  0  0  0  0
   11.0278  -19.3771   22.0813 O   0  0  0  0  0  0  0  0  0  0  0  0
    9.6314  -16.6729   23.6956 N   0  0  0  0  0  0  0  0  0  0  0  0
    9.7039  -16.3039   25.0735 C   0  0  1  0  0  0  0  0  0  0  0  0
    8.6394  -15.3177   25.4918 C   0  0  0  0  0  0  0  0  0  0  0  0
    7.0363  -16.0303   25.0146 S   0  0  0  0  0  0  0  0  0  0  0  0
    9.7215  -17.4605   25.9884 C   0  0  0  0  0  0  0  0  0  0  0  0
    9.5368  -18.6450   25.5783 O   0  0  0  0  0  0  0  0  0  0  0  0
    9.9409  -17.3010   27.3358 O   0  0  0  0  0  0  0  0  0  0  0  0
  1  5  1  0
  1  2  1  0
  3  4  1  0
  3  2  1  0
  4  5  1  0
  5  6  1  1
  7  6  2  0
  8  6  1  0
  9  8  1  0
  9 13  1  0
  9 10  1  6
 11 12  2  0
 11 10  1  0
 13 16  1  0
 14 13  2  0
 15 11  1  0
 16 17  1  0
 17 20  1  0
 17 18  1  1
 19 18  1  0
 20 21  2  0
 20 22  1  0
M  END
$$$$
