PDC.pdb
     RDKit          3D

 22 22  0  0  1  0  0  0  0  0999 V2000
    8.8837  -14.5069   19.0688 N   0  0  0  0  0  0  0  0  0  0  0  0
    7.5275  -14.7053   18.6334 C   0  0  0  0  0  0  0  0  0  0  0  0
    6.9058  -13.3443   18.8448 C   0  0  0  0  0  0  0  0  0  0  0  0
    7.7641  -12.6159   19.8575 C   0  0  0  0  0  0  0  0  0  0  0  0
    8.7995  -13.6489   20.2456 C   0  0  1  0  0  0  0  0  0  0  0  0
    8.3665  -14.4508   21.4105 C   0  0  0  0  0  0  0  0  0  0  0  0
    7.1476  -14.3932   21.7845 O   0  0  0  0  0  0  0  0  0  0  0  0
    9.3111  -15.2604   22.0785 N   0  0  0  0  0  0  0  0  0  0  0  0
    8.9632  -15.9341   23.3280 C   0  0  1  0  0  0  0  0  0  0  0  0
    9.7642  -17.1832   23.4533 C   0  0  0  0  0  0  0  0  0  0  0  0
    9.6217  -17.9342   24.7036 C   0  0  0  0  0  0  0  0  0  0  0  0
    8.5072  -18.1547   25.2163 O   0  0  0  0  0  0  0  0  0  0  0  0
    9.2089  -14.9765   24.4588 C   0  0  0  0  0  0  0  0  0  0  0  0
   10.2853  -14.3838   24.6692 O   0  0  0  0  0  0  0  0  0  0  0  0
   10.7273  -18.4364   25.3766 O   0  0  0  0  0  0  0  0  0  0  0  0
    8.1738  -14.6711   25.4090 N   0  0  0  0  0  0  0  0  0  0  0  0
    8.3872  -13.8587   26.5642 C   0  0  1  0  0  0  0  0  0  0  0  0
    7.1857  -13.0287   26.9495 C   0  0  0  0  0  0  0  0  0  0  0  0
    6.4638  -12.3893   25.4082 S   0  0  0  0  0  0  0  0  0  0  0  0
    8.8837  -14.6160   27.7281 C   0  0  0  0  0  0  0  0  0  0  0  0
    9.0073  -15.8769   27.7068 O   0  0  0  0  0  0  0  0  0  0  0  0
    9.2362  -13.9809   28.8949 O   0  0  0  0  0  0  0  0  0  0  0  0
  1  5  1  0
  1  2  1  0
  3  4  1  0
  3  2  1  0
  4  5  1  0
  5  6  1  1
  7  6  2  0
  8  6  1  0
  9  8  1  0
  9 13  1  0
  9 10  1  1
 11 12  2  0
 11 10  1  0
 13 16  1  0
 14 13  2  0
 15 11  1  0
 16 17  1  0
 17 20  1  0
 17 18  1  1
 19 18  1  0
 20 21  2  0
 20 22  1  0
M  END
$$$$
