PDC.pdb
     RDKit          3D

 22 22  0  0  1  0  0  0  0  0999 V2000
    8.0686  -14.7447   19.1590 N   0  0  0  0  0  0  0  0  0  0  0  0
    6.8297  -14.0262   19.2903 C   0  0  0  0  0  0  0  0  0  0  0  0
    7.2885  -12.6296   19.6405 C   0  0  0  0  0  0  0  0  0  0  0  0
    8.6905  -12.7493   20.1998 C   0  0  0  0  0  0  0  0  0  0  0  0
    8.9310  -14.2431   20.2233 C   0  0  1  0  0  0  0  0  0  0  0  0
    8.5253  -14.8453   21.5118 C   0  0  0  0  0  0  0  0  0  0  0  0
    7.2988  -14.7952   21.8609 O   0  0  0  0  0  0  0  0  0  0  0  0
    9.5039  -15.4612   22.3223 N   0  0  0  0  0  0  0  0  0  0  0  0
    9.1387  -16.0626   23.6035 C   0  0  1  0  0  0  0  0  0  0  0  0
   10.0370  -17.2179   23.8788 C   0  0  0  0  0  0  0  0  0  0  0  0
    9.9970  -18.3261   22.9208 C   0  0  0  0  0  0  0  0  0  0  0  0
    8.9213  -18.8117   22.5198 O   0  0  0  0  0  0  0  0  0  0  0  0
    9.2276  -14.9991   24.6605 C   0  0  0  0  0  0  0  0  0  0  0  0
   10.1988  -14.2344   24.8217 O   0  0  0  0  0  0  0  0  0  0  0  0
   11.1612  -18.8876   22.4141 O   0  0  0  0  0  0  0  0  0  0  0  0
    8.1522  -14.7884   25.5916 N   0  0  0  0  0  0  0  0  0  0  0  0
    8.2257  -13.8601   26.6745 C   0  0  1  0  0  0  0  0  0  0  0  0
    6.9575  -13.0651   26.8760 C   0  0  0  0  0  0  0  0  0  0  0  0
    6.5170  -12.3479   25.2644 S   0  0  0  0  0  0  0  0  0  0  0  0
    8.6539  -14.4758   27.9444 C   0  0  0  0  0  0  0  0  0  0  0  0
    8.8543  -15.7221   28.0533 O   0  0  0  0  0  0  0  0  0  0  0  0
    8.8552  -13.7173   29.0727 O   0  0  0  0  0  0  0  0  0  0  0  0
  1  5  1  0
  1  2  1  0
  3  4  1  0
  3  2  1  0
  4  5  1  0
  5  6  1  1
  7  6  2  0
  8  6  1  0
  9  8  1  0
  9 13  1  0
  9 10  1  1
 11 12  2  0
 11 10  1  0
 13 16  1  0
 14 13  2  0
 15 11  1  0
 16 17  1  0
 17 20  1  0
 17 18  1  1
 19 18  1  0
 20 21  2  0
 20 22  1  0
M  END
$$$$
