PDC.pdb
     RDKit          3D

 22 22  0  0  1  0  0  0  0  0999 V2000
    7.9762  -14.4608   18.0181 N   0  0  0  0  0  0  0  0  0  0  0  0
    6.9159  -13.8908   18.8049 C   0  0  0  0  0  0  0  0  0  0  0  0
    7.5472  -12.6332   19.3560 C   0  0  0  0  0  0  0  0  0  0  0  0
    9.0479  -12.8252   19.2938 C   0  0  0  0  0  0  0  0  0  0  0  0
    9.1983  -14.2420   18.7840 C   0  0  1  0  0  0  0  0  0  0  0  0
    9.2683  -15.2202   19.8911 C   0  0  0  0  0  0  0  0  0  0  0  0
    8.1911  -15.5675   20.4809 O   0  0  0  0  0  0  0  0  0  0  0  0
   10.5238  -15.7462   20.2667 N   0  0  0  0  0  0  0  0  0  0  0  0
   10.6167  -16.8134   21.2611 C   0  0  1  0  0  0  0  0  0  0  0  0
   11.8529  -17.6071   21.0172 C   0  0  0  0  0  0  0  0  0  0  0  0
   11.9637  -18.8867   21.7227 C   0  0  0  0  0  0  0  0  0  0  0  0
   11.0759  -19.2899   22.4992 O   0  0  0  0  0  0  0  0  0  0  0  0
   10.5959  -16.1840   22.6247 C   0  0  0  0  0  0  0  0  0  0  0  0
   11.3790  -15.2940   23.0105 O   0  0  0  0  0  0  0  0  0  0  0  0
   13.0680  -19.7116   21.5572 O   0  0  0  0  0  0  0  0  0  0  0  0
    9.6305  -16.5863   23.6116 N   0  0  0  0  0  0  0  0  0  0  0  0
    9.5732  -16.0254   24.9239 C   0  0  1  0  0  0  0  0  0  0  0  0
    8.2422  -15.3919   25.2526 C   0  0  0  0  0  0  0  0  0  0  0  0
    7.7963  -14.3297   23.8460 S   0  0  0  0  0  0  0  0  0  0  0  0
    9.9669  -16.9735   25.9827 C   0  0  0  0  0  0  0  0  0  0  0  0
   10.2723  -18.1766   25.7283 O   0  0  0  0  0  0  0  0  0  0  0  0
   10.0196  -16.5889   27.3011 O   0  0  0  0  0  0  0  0  0  0  0  0
  1  5  1  0
  1  2  1  0
  3  4  1  0
  3  2  1  0
  4  5  1  0
  5  6  1  1
  7  6  2  0
  8  6  1  0
  9  8  1  0
  9 13  1  0
  9 10  1  6
 11 12  2  0
 11 10  1  0
 13 16  1  0
 14 13  2  0
 15 11  1  0
 16 17  1  0
 17 20  1  0
 17 18  1  1
 19 18  1  0
 20 21  2  0
 20 22  1  0
M  END
$$$$
