PDC.pdb
     RDKit          3D

 22 22  0  0  1  0  0  0  0  0999 V2000
    8.4116  -14.6041   19.1489 N   0  0  0  0  0  0  0  0  0  0  0  0
    7.0553  -14.2907   19.5103 C   0  0  0  0  0  0  0  0  0  0  0  0
    7.1750  -12.8966   20.0812 C   0  0  0  0  0  0  0  0  0  0  0  0
    8.6190  -12.7085   20.4961 C   0  0  0  0  0  0  0  0  0  0  0  0
    9.2415  -14.0594   20.2178 C   0  0  1  0  0  0  0  0  0  0  0  0
    9.1737  -14.9496   21.3970 C   0  0  0  0  0  0  0  0  0  0  0  0
    8.0697  -15.0607   22.0275 O   0  0  0  0  0  0  0  0  0  0  0  0
   10.3306  -15.6548   21.7946 N   0  0  0  0  0  0  0  0  0  0  0  0
   10.3185  -16.4889   22.9948 C   0  0  1  0  0  0  0  0  0  0  0  0
   11.3661  -17.5404   22.8740 C   0  0  0  0  0  0  0  0  0  0  0  0
   11.3205  -18.3804   21.6741 C   0  0  0  0  0  0  0  0  0  0  0  0
   10.4837  -19.2946   21.5413 O   0  0  0  0  0  0  0  0  0  0  0  0
   10.5316  -15.5976   24.1849 C   0  0  0  0  0  0  0  0  0  0  0  0
   11.0949  -14.4860   24.1506 O   0  0  0  0  0  0  0  0  0  0  0  0
   12.2118  -18.1947   20.6260 O   0  0  0  0  0  0  0  0  0  0  0  0
   10.0800  -15.9880   25.4931 N   0  0  0  0  0  0  0  0  0  0  0  0
   10.2053  -15.1533   26.6453 C   0  0  1  0  0  0  0  0  0  0  0  0
    9.1407  -14.0860   26.7369 C   0  0  0  0  0  0  0  0  0  0  0  0
    9.5452  -13.0525   28.1769 S   0  0  0  0  0  0  0  0  0  0  0  0
   10.2857  -15.9092   27.9090 C   0  0  0  0  0  0  0  0  0  0  0  0
   10.0138  -17.1452   27.9715 O   0  0  0  0  0  0  0  0  0  0  0  0
   10.6621  -15.3000   29.0820 O   0  0  0  0  0  0  0  0  0  0  0  0
  1  5  1  0
  1  2  1  0
  3  4  1  0
  3  2  1  0
  4  5  1  0
  5  6  1  1
  7  6  2  0
  8  6  1  0
  9  8  1  0
  9 13  1  0
  9 10  1  6
 11 12  2  0
 11 10  1  0
 13 16  1  0
 14 13  2  0
 15 11  1  0
 16 17  1  0
 17 20  1  0
 17 18  1  1
 19 18  1  0
 20 21  2  0
 20 22  1  0
M  END
$$$$
