VMP.pdb
     RDKit          3D

 23 23  0  0  1  0  0  0  0  0999 V2000
    8.2673  -18.4306   20.8215 C   0  0  0  0  0  0  0  0  0  0  0  0
    7.0015  -17.6031   20.7234 C   0  0  2  0  0  0  0  0  0  0  0  0
    6.0891  -18.0858   19.6303 C   0  0  0  0  0  0  0  0  0  0  0  0
    7.2734  -16.1365   20.7121 C   0  0  2  0  0  0  0  0  0  0  0  0
    7.9818  -15.8126   19.4915 N   0  0  0  0  0  0  0  0  0  0  0  0
    8.0544  -15.7215   21.9108 C   0  0  0  0  0  0  0  0  0  0  0  0
    9.3289  -15.6342   21.8613 O   0  0  0  0  0  0  0  0  0  0  0  0
    6.7204  -12.7850   27.7345 C   0  0  0  0  0  0  0  0  0  0  0  0
    6.7090  -11.8637   26.1804 S   0  0  0  0  0  0  0  0  0  0  0  0
    7.0129  -12.9663   24.7800 C   0  0  0  0  0  0  0  0  0  0  0  0
    7.3583  -14.3421   25.3069 C   0  0  0  0  0  0  0  0  0  0  0  0
    8.2689  -15.0870   24.3515 C   0  0  2  0  0  0  0  0  0  0  0  0
    7.4900  -15.3976   23.1695 N   0  0  0  0  0  0  0  0  0  0  0  0
    8.8419  -16.3051   24.9733 C   0  0  0  0  0  0  0  0  0  0  0  0
    8.1066  -17.3303   25.1472 O   0  0  0  0  0  0  0  0  0  0  0  0
   10.1784  -16.4159   25.3984 N   0  0  0  0  0  0  0  0  0  0  0  0
   11.2098  -15.4365   25.1685 C   0  0  0  0  0  0  0  0  0  0  0  0
   12.4300  -16.3307   24.9088 C   0  0  0  0  0  0  0  0  0  0  0  0
   12.2733  -17.3320   26.0286 C   0  0  0  0  0  0  0  0  0  0  0  0
   10.7776  -17.4979   26.1341 C   0  0  1  0  0  0  0  0  0  0  0  0
   10.4230  -17.4952   27.5569 C   0  0  0  0  0  0  0  0  0  0  0  0
   10.7862  -18.5549   28.3599 O   0  0  0  0  0  0  0  0  0  0  0  0
    9.7926  -16.5389   28.0525 O   0  0  0  0  0  0  0  0  0  0  0  0
  2  1  1  6
  2  3  1  0
  4  2  1  0
  4  6  1  0
  4  5  1  6
  6  7  2  0
  8  9  1  0
  9 10  1  0
 12 11  1  1
 11 10  1  0
 13  6  1  0
 13 12  1  0
 14 12  1  0
 14 15  2  0
 16 14  1  0
 17 16  1  0
 18 19  1  0
 18 17  1  0
 19 20  1  0
 20 16  1  0
 20 21  1  1
 21 22  1  0
 23 21  2  0
M  END
$$$$
