VMP.pdb
     RDKit          3D

 23 23  0  0  1  0  0  0  0  0999 V2000
    9.6093  -18.4779   22.1452 C   0  0  0  0  0  0  0  0  0  0  0  0
    9.8677  -17.3912   21.1210 C   0  0  2  0  0  0  0  0  0  0  0  0
   11.3128  -16.9783   21.0815 C   0  0  0  0  0  0  0  0  0  0  0  0
    8.8955  -16.2644   21.2214 C   0  0  2  0  0  0  0  0  0  0  0  0
    9.0621  -15.4126   20.0623 N   0  0  0  0  0  0  0  0  0  0  0  0
    9.0864  -15.4954   22.4829 C   0  0  0  0  0  0  0  0  0  0  0  0
   10.0291  -14.6383   22.5884 O   0  0  0  0  0  0  0  0  0  0  0  0
    6.3450  -11.2658   26.7064 C   0  0  0  0  0  0  0  0  0  0  0  0
    5.4380  -12.5329   25.7922 S   0  0  0  0  0  0  0  0  0  0  0  0
    6.5469  -13.4494   24.6967 C   0  0  0  0  0  0  0  0  0  0  0  0
    7.1969  -14.5670   25.4828 C   0  0  0  0  0  0  0  0  0  0  0  0
    8.5397  -14.9489   24.8928 C   0  0  2  0  0  0  0  0  0  0  0  0
    8.2806  -15.6306   23.6405 N   0  0  0  0  0  0  0  0  0  0  0  0
    9.3333  -15.7855   25.8251 C   0  0  0  0  0  0  0  0  0  0  0  0
    9.5750  -17.0011   25.5322 O   0  0  0  0  0  0  0  0  0  0  0  0
    9.8551  -15.3218   27.0465 N   0  0  0  0  0  0  0  0  0  0  0  0
    9.6004  -14.0264   27.6234 C   0  0  0  0  0  0  0  0  0  0  0  0
   10.9659  -13.6900   28.2381 C   0  0  0  0  0  0  0  0  0  0  0  0
   11.2912  -15.0045   28.9071 C   0  0  0  0  0  0  0  0  0  0  0  0
   10.7249  -16.0254   27.9518 C   0  0  1  0  0  0  0  0  0  0  0  0
   10.0313  -17.0468   28.7428 C   0  0  0  0  0  0  0  0  0  0  0  0
   10.7542  -17.9221   29.5245 O   0  0  0  0  0  0  0  0  0  0  0  0
    8.7866  -17.1336   28.7167 O   0  0  0  0  0  0  0  0  0  0  0  0
  2  1  1  1
  2  3  1  0
  4  2  1  0
  4  6  1  0
  4  5  1  6
  6  7  2  0
  8  9  1  0
  9 10  1  0
 12 11  1  1
 11 10  1  0
 13  6  1  0
 13 12  1  0
 14 12  1  0
 14 15  2  0
 16 14  1  0
 17 16  1  0
 18 19  1  0
 18 17  1  0
 19 20  1  0
 20 16  1  0
 20 21  1  1
 21 22  1  0
 23 21  2  0
M  END
$$$$
