VMP.pdb
     RDKit          3D

 23 23  0  0  1  0  0  0  0  0999 V2000
    7.1471  -20.1986   22.0752 C   0  0  0  0  0  0  0  0  0  0  0  0
    6.5697  -20.5613   23.4287 C   0  0  2  0  0  0  0  0  0  0  0  0
    6.3729  -22.0436   23.5849 C   0  0  0  0  0  0  0  0  0  0  0  0
    5.3853  -19.7294   23.7896 C   0  0  2  0  0  0  0  0  0  0  0  0
    4.2655  -20.1509   22.9742 N   0  0  0  0  0  0  0  0  0  0  0  0
    5.6664  -18.2783   23.6044 C   0  0  0  0  0  0  0  0  0  0  0  0
    5.4074  -17.6998   22.4942 O   0  0  0  0  0  0  0  0  0  0  0  0
    6.8830  -11.4825   27.1713 C   0  0  0  0  0  0  0  0  0  0  0  0
    7.3816  -13.2188   27.1943 S   0  0  0  0  0  0  0  0  0  0  0  0
    7.2265  -13.9515   25.5486 C   0  0  0  0  0  0  0  0  0  0  0  0
    6.8698  -15.4146   25.6965 C   0  0  0  0  0  0  0  0  0  0  0  0
    6.6552  -16.0700   24.3469 C   0  0  2  0  0  0  0  0  0  0  0  0
    6.2246  -17.4315   24.5939 N   0  0  0  0  0  0  0  0  0  0  0  0
    7.8775  -16.0189   23.5090 C   0  0  0  0  0  0  0  0  0  0  0  0
    8.7421  -16.9497   23.5967 O   0  0  0  0  0  0  0  0  0  0  0  0
    8.1615  -14.9868   22.5960 N   0  0  0  0  0  0  0  0  0  0  0  0
    7.4444  -13.7411   22.4969 C   0  0  0  0  0  0  0  0  0  0  0  0
    7.4352  -13.5119   20.9793 C   0  0  0  0  0  0  0  0  0  0  0  0
    8.8736  -13.8337   20.6497 C   0  0  0  0  0  0  0  0  0  0  0  0
    9.2006  -14.9581   21.6007 C   0  0  1  0  0  0  0  0  0  0  0  0
   10.5309  -14.7016   22.1616 C   0  0  0  0  0  0  0  0  0  0  0  0
   11.6479  -14.8017   21.3603 O   0  0  0  0  0  0  0  0  0  0  0  0
   10.6647  -14.3918   23.3631 O   0  0  0  0  0  0  0  0  0  0  0  0
  2  1  1  6
  2  3  1  0
  4  2  1  0
  4  6  1  0
  4  5  1  6
  6  7  2  0
  8  9  1  0
  9 10  1  0
 12 11  1  1
 11 10  1  0
 13  6  1  0
 13 12  1  0
 14 12  1  0
 14 15  2  0
 16 14  1  0
 17 16  1  0
 18 19  1  0
 18 17  1  0
 19 20  1  0
 20 16  1  0
 20 21  1  1
 21 22  1  0
 23 21  2  0
M  END
$$$$
