VMP.pdb
     RDKit          3D

 23 23  0  0  1  0  0  0  0  0999 V2000
    6.4510  -22.1622   23.3911 C   0  0  0  0  0  0  0  0  0  0  0  0
    6.6472  -20.6756   23.1712 C   0  0  2  0  0  0  0  0  0  0  0  0
    8.0899  -20.2687   23.2870 C   0  0  0  0  0  0  0  0  0  0  0  0
    5.6954  -19.8467   23.9663 C   0  0  2  0  0  0  0  0  0  0  0  0
    4.3465  -20.2552   23.6344 N   0  0  0  0  0  0  0  0  0  0  0  0
    5.8945  -18.3937   23.7053 C   0  0  0  0  0  0  0  0  0  0  0  0
    5.5577  -17.8798   22.5842 O   0  0  0  0  0  0  0  0  0  0  0  0
    7.4216  -11.2648   26.7817 C   0  0  0  0  0  0  0  0  0  0  0  0
    7.3292  -13.0568   26.9918 S   0  0  0  0  0  0  0  0  0  0  0  0
    7.1917  -13.8833   25.3895 C   0  0  0  0  0  0  0  0  0  0  0  0
    6.8805  -15.3462   25.6191 C   0  0  0  0  0  0  0  0  0  0  0  0
    6.7842  -16.1027   24.3094 C   0  0  2  0  0  0  0  0  0  0  0  0
    6.4526  -17.4765   24.6299 N   0  0  0  0  0  0  0  0  0  0  0  0
    8.0374  -16.0042   23.5229 C   0  0  0  0  0  0  0  0  0  0  0  0
    8.9823  -16.8312   23.7354 O   0  0  0  0  0  0  0  0  0  0  0  0
    8.2671  -15.0356   22.5289 N   0  0  0  0  0  0  0  0  0  0  0  0
    7.4447  -13.8773   22.2881 C   0  0  0  0  0  0  0  0  0  0  0  0
    7.4830  -13.7864   20.7565 C   0  0  0  0  0  0  0  0  0  0  0  0
    8.9581  -13.9985   20.5109 C   0  0  0  0  0  0  0  0  0  0  0  0
    9.3430  -14.9974   21.5738 C   0  0  1  0  0  0  0  0  0  0  0  0
   10.6178  -14.5669   22.1565 C   0  0  0  0  0  0  0  0  0  0  0  0
   11.7645  -14.5795   21.3918 O   0  0  0  0  0  0  0  0  0  0  0  0
   10.6773  -14.1870   23.3437 O   0  0  0  0  0  0  0  0  0  0  0  0
  2  1  1  1
  2  3  1  0
  4  2  1  0
  4  6  1  0
  4  5  1  6
  6  7  2  0
  8  9  1  0
  9 10  1  0
 12 11  1  1
 11 10  1  0
 13  6  1  0
 13 12  1  0
 14 12  1  0
 14 15  2  0
 16 14  1  0
 17 16  1  0
 18 19  1  0
 18 17  1  0
 19 20  1  0
 20 16  1  0
 20 21  1  1
 21 22  1  0
 23 21  2  0
M  END
$$$$
