VMP.pdb
     RDKit          3D

 23 23  0  0  1  0  0  0  0  0999 V2000
    7.8009  -20.4558   22.8581 C   0  0  0  0  0  0  0  0  0  0  0  0
    7.3779  -20.6075   24.3054 C   0  0  2  0  0  0  0  0  0  0  0  0
    7.4531  -22.0341   24.7739 C   0  0  0  0  0  0  0  0  0  0  0  0
    6.0901  -19.9161   24.6030 C   0  0  2  0  0  0  0  0  0  0  0  0
    5.0262  -20.6154   23.9133 N   0  0  0  0  0  0  0  0  0  0  0  0
    6.1390  -18.4832   24.1989 C   0  0  0  0  0  0  0  0  0  0  0  0
    5.8238  -18.1287   23.0118 O   0  0  0  0  0  0  0  0  0  0  0  0
    7.2547  -10.9850   26.5574 C   0  0  0  0  0  0  0  0  0  0  0  0
    7.2295  -12.7498   26.9431 S   0  0  0  0  0  0  0  0  0  0  0  0
    7.0570  -13.7326   25.4352 C   0  0  0  0  0  0  0  0  0  0  0  0
    6.9202  -15.1909   25.8151 C   0  0  0  0  0  0  0  0  0  0  0  0
    6.8065  -16.0731   24.5880 C   0  0  2  0  0  0  0  0  0  0  0  0
    6.5232  -17.4172   25.0497 N   0  0  0  0  0  0  0  0  0  0  0  0
    8.0326  -16.0201   23.7558 C   0  0  0  0  0  0  0  0  0  0  0  0
    8.9734  -16.8527   23.9645 O   0  0  0  0  0  0  0  0  0  0  0  0
    8.2402  -15.0898   22.7211 N   0  0  0  0  0  0  0  0  0  0  0  0
    7.4511  -13.9059   22.4941 C   0  0  0  0  0  0  0  0  0  0  0  0
    7.4010  -13.8595   20.9608 C   0  0  0  0  0  0  0  0  0  0  0  0
    8.8491  -14.1388   20.6354 C   0  0  0  0  0  0  0  0  0  0  0  0
    9.2575  -15.1227   21.7036 C   0  0  1  0  0  0  0  0  0  0  0  0
   10.5809  -14.7288   22.1970 C   0  0  0  0  0  0  0  0  0  0  0  0
   11.6747  -14.7900   21.3605 O   0  0  0  0  0  0  0  0  0  0  0  0
   10.7298  -14.3365   23.3723 O   0  0  0  0  0  0  0  0  0  0  0  0
  2  1  1  6
  2  3  1  0
  4  2  1  0
  4  6  1  0
  4  5  1  6
  6  7  2  0
  8  9  1  0
  9 10  1  0
 12 11  1  1
 11 10  1  0
 13  6  1  0
 13 12  1  0
 14 12  1  0
 14 15  2  0
 16 14  1  0
 17 16  1  0
 18 19  1  0
 18 17  1  0
 19 20  1  0
 20 16  1  0
 20 21  1  1
 21 22  1  0
 23 21  2  0
M  END
$$$$
