VMP.pdb
     RDKit          3D

 23 23  0  0  1  0  0  0  0  0999 V2000
    9.3126  -18.7398   22.3172 C   0  0  0  0  0  0  0  0  0  0  0  0
   10.2528  -17.9584   21.4217 C   0  0  2  0  0  0  0  0  0  0  0  0
   11.6940  -18.1499   21.8045 C   0  0  0  0  0  0  0  0  0  0  0  0
    9.8329  -16.5376   21.2484 C   0  0  2  0  0  0  0  0  0  0  0  0
   10.7287  -15.9089   20.3004 N   0  0  0  0  0  0  0  0  0  0  0  0
    9.8330  -15.8107   22.5487 C   0  0  0  0  0  0  0  0  0  0  0  0
   10.9151  -15.3228   23.0235 O   0  0  0  0  0  0  0  0  0  0  0  0
    5.6687  -11.2900   26.1734 C   0  0  0  0  0  0  0  0  0  0  0  0
    5.5714  -13.0675   26.4816 S   0  0  0  0  0  0  0  0  0  0  0  0
    7.1971  -13.8385   26.3021 C   0  0  0  0  0  0  0  0  0  0  0  0
    7.3241  -14.3906   24.8989 C   0  0  0  0  0  0  0  0  0  0  0  0
    8.7144  -14.9374   24.6442 C   0  0  2  0  0  0  0  0  0  0  0  0
    8.6871  -15.5971   23.3542 N   0  0  0  0  0  0  0  0  0  0  0  0
    9.1531  -15.8526   25.7254 C   0  0  0  0  0  0  0  0  0  0  0  0
    9.0040  -17.1097   25.5871 O   0  0  0  0  0  0  0  0  0  0  0  0
    9.7398  -15.4220   26.9293 N   0  0  0  0  0  0  0  0  0  0  0  0
    9.6833  -14.0800   27.4507 C   0  0  0  0  0  0  0  0  0  0  0  0
   11.0845  -13.9273   28.0583 C   0  0  0  0  0  0  0  0  0  0  0  0
   11.2090  -15.2466   28.7829 C   0  0  0  0  0  0  0  0  0  0  0  0
   10.4947  -16.2099   27.8677 C   0  0  1  0  0  0  0  0  0  0  0  0
    9.6560  -17.0814   28.6966 C   0  0  0  0  0  0  0  0  0  0  0  0
   10.2407  -17.9940   29.5481 O   0  0  0  0  0  0  0  0  0  0  0  0
    8.4116  -17.0064   28.6399 O   0  0  0  0  0  0  0  0  0  0  0  0
  2  1  1  1
  2  3  1  0
  4  2  1  0
  4  6  1  0
  4  5  1  6
  6  7  2  0
  8  9  1  0
  9 10  1  0
 12 11  1  1
 11 10  1  0
 13  6  1  0
 13 12  1  0
 14 12  1  0
 14 15  2  0
 16 14  1  0
 17 16  1  0
 18 19  1  0
 18 17  1  0
 19 20  1  0
 20 16  1  0
 20 21  1  1
 21 22  1  0
 23 21  2  0
M  END
$$$$
