VMP.pdb
     RDKit          3D

 23 23  0  0  1  0  0  0  0  0999 V2000
    2.7458  -18.2997   22.3922 C   0  0  0  0  0  0  0  0  0  0  0  0
    3.6364  -19.2488   21.6159 C   0  0  2  0  0  0  0  0  0  0  0  0
    3.1096  -20.6569   21.6219 C   0  0  0  0  0  0  0  0  0  0  0  0
    5.0760  -19.1156   21.9832 C   0  0  2  0  0  0  0  0  0  0  0  0
    5.2982  -19.8263   23.2250 N   0  0  0  0  0  0  0  0  0  0  0  0
    5.4731  -17.6852   22.1063 C   0  0  0  0  0  0  0  0  0  0  0  0
    5.3689  -16.8908   21.1101 O   0  0  0  0  0  0  0  0  0  0  0  0
    7.4851  -11.8379   27.0293 C   0  0  0  0  0  0  0  0  0  0  0  0
    7.3736  -13.6168   26.7343 S   0  0  0  0  0  0  0  0  0  0  0  0
    7.1709  -13.9621   24.9710 C   0  0  0  0  0  0  0  0  0  0  0  0
    6.7020  -15.3910   24.8034 C   0  0  0  0  0  0  0  0  0  0  0  0
    6.5453  -15.7529   23.3401 C   0  0  2  0  0  0  0  0  0  0  0  0
    5.9842  -17.0879   23.2852 N   0  0  0  0  0  0  0  0  0  0  0  0
    7.8324  -15.6625   22.6093 C   0  0  0  0  0  0  0  0  0  0  0  0
    8.6546  -16.6339   22.6567 O   0  0  0  0  0  0  0  0  0  0  0  0
    8.2247  -14.5493   21.8438 N   0  0  0  0  0  0  0  0  0  0  0  0
    7.5548  -13.2738   21.8239 C   0  0  0  0  0  0  0  0  0  0  0  0
    7.6853  -12.8814   20.3458 C   0  0  0  0  0  0  0  0  0  0  0  0
    9.1373  -13.2200   20.1045 C   0  0  0  0  0  0  0  0  0  0  0  0
    9.3475  -14.4524   20.9487 C   0  0  1  0  0  0  0  0  0  0  0  0
   10.6302  -14.3088   21.6444 C   0  0  0  0  0  0  0  0  0  0  0  0
   10.6606  -14.1922   23.0174 O   0  0  0  0  0  0  0  0  0  0  0  0
   11.7014  -14.2908   21.0043 O   0  0  0  0  0  0  0  0  0  0  0  0
  2  1  1  1
  2  3  1  0
  4  2  1  0
  4  6  1  0
  4  5  1  1
  6  7  2  0
  8  9  1  0
  9 10  1  0
 12 11  1  1
 11 10  1  0
 13  6  1  0
 13 12  1  0
 14 12  1  0
 14 15  2  0
 16 14  1  0
 17 16  1  0
 18 19  1  0
 18 17  1  0
 19 20  1  0
 20 16  1  0
 20 21  1  1
 21 22  1  0
 23 21  2  0
M  END
$$$$
