TWG.pdb
     RDKit          3D

 26 27  0  0  1  0  0  0  0  0999 V2000
   28.4468  -18.7127  -14.0648 C   0  0  0  0  0  0  0  0  0  0  0  0
   27.5690  -19.4354  -13.0580 C   0  0  1  0  0  0  0  0  0  0  0  0
   26.8941  -20.4529  -13.7086 O   0  0  0  0  0  0  0  0  0  0  0  0
   28.3360  -19.8980  -11.8663 C   0  0  2  0  0  0  0  0  0  0  0  0
   29.4257  -20.7481  -12.3750 N   0  0  0  0  0  0  0  0  0  0  0  0
   27.5623  -20.5855  -10.8342 C   0  0  0  0  0  0  0  0  0  0  0  0
   27.8121  -21.8047  -10.5693 O   0  0  0  0  0  0  0  0  0  0  0  0
   26.5308  -19.9644  -10.0953 N   0  0  0  0  0  0  0  0  0  0  0  0
   25.7476  -20.7124   -9.1417 C   0  0  1  0  0  0  0  0  0  0  0  0
   25.4974  -19.7893   -7.9684 C   0  0  0  0  0  0  0  0  0  0  0  0
   26.7907  -19.3812   -7.3630 C   0  0  0  0  0  0  0  0  0  0  0  0
   27.6371  -18.3592   -7.7360 C   0  0  0  0  0  0  0  0  0  0  0  0
   28.7139  -18.2998   -6.9488 N   0  0  0  0  0  0  0  0  0  0  0  0
   28.5832  -19.2880   -6.0468 C   0  0  0  0  0  0  0  0  0  0  0  0
   29.4305  -19.6584   -5.0014 C   0  0  0  0  0  0  0  0  0  0  0  0
   29.0906  -20.7248   -4.1821 C   0  0  0  0  0  0  0  0  0  0  0  0
   27.9090  -21.3894   -4.4362 C   0  0  0  0  0  0  0  0  0  0  0  0
   27.0618  -21.0350   -5.4655 C   0  0  0  0  0  0  0  0  0  0  0  0
   27.4058  -19.9708   -6.2792 C   0  0  0  0  0  0  0  0  0  0  0  0
   24.4954  -21.1974   -9.7479 C   0  0  0  0  0  0  0  0  0  0  0  0
   23.5593  -21.7071   -9.0752 O   0  0  0  0  0  0  0  0  0  0  0  0
   24.3173  -21.0951  -11.1416 N   0  0  0  0  0  0  0  0  0  0  0  0
   23.1255  -21.6532  -11.7462 C   0  0  0  0  0  0  0  0  0  0  0  0
   22.1264  -20.6424  -12.1029 C   0  0  0  0  0  0  0  0  0  0  0  0
   22.4853  -19.6636  -12.8037 O   0  0  0  0  0  0  0  0  0  0  0  0
   20.7960  -20.6891  -11.7182 O   0  0  0  0  0  0  0  0  0  0  0  0
  2  1  1  6
  3  2  1  0
  4  2  1  0
  4  6  1  0
  4  5  1  6
  6  7  2  0
  8  6  1  0
  8  9  1  0
  9 10  1  1
 10 11  1  0
 11 19  1  0
 12 13  1  0
 12 11  2  0
 13 14  1  0
 14 19  2  0
 14 15  1  0
 15 16  2  0
 16 17  1  0
 18 17  2  0
 19 18  1  0
 20  9  1  0
 20 22  1  0
 21 20  2  0
 23 24  1  0
 23 22  1  0
 24 26  1  0
 25 24  2  0
M  END
$$$$
