TWG.pdb
     RDKit          3D

 26 27  0  0  1  0  0  0  0  0999 V2000
    9.9074  -18.4172    7.1088 C   0  0  0  0  0  0  0  0  0  0  0  0
   11.3274  -18.8090    6.7394 C   0  0  1  0  0  0  0  0  0  0  0  0
   11.4599  -20.1789    6.8804 O   0  0  0  0  0  0  0  0  0  0  0  0
   11.7206  -18.3096    5.3909 C   0  0  2  0  0  0  0  0  0  0  0  0
   11.2430  -19.3084    4.4198 N   0  0  0  0  0  0  0  0  0  0  0  0
   13.1415  -18.0224    5.2037 C   0  0  0  0  0  0  0  0  0  0  0  0
   13.9229  -18.9466    4.8108 O   0  0  0  0  0  0  0  0  0  0  0  0
   13.7134  -16.7519    5.4371 N   0  0  0  0  0  0  0  0  0  0  0  0
   15.1141  -16.5116    5.1873 C   0  0  1  0  0  0  0  0  0  0  0  0
   15.2321  -15.0724    4.7335 C   0  0  0  0  0  0  0  0  0  0  0  0
   16.5262  -14.8687    4.0338 C   0  0  0  0  0  0  0  0  0  0  0  0
   17.1246  -15.6559    3.0735 C   0  0  0  0  0  0  0  0  0  0  0  0
   18.2939  -15.1468    2.6782 N   0  0  0  0  0  0  0  0  0  0  0  0
   18.4745  -14.0142    3.3795 C   0  0  0  0  0  0  0  0  0  0  0  0
   19.5320  -13.1040    3.3457 C   0  0  0  0  0  0  0  0  0  0  0  0
   19.5078  -11.9868    4.1674 C   0  0  0  0  0  0  0  0  0  0  0  0
   18.4218  -11.8155    5.0004 C   0  0  0  0  0  0  0  0  0  0  0  0
   17.3696  -12.7064    5.0449 C   0  0  0  0  0  0  0  0  0  0  0  0
   17.3991  -13.8186    4.2232 C   0  0  0  0  0  0  0  0  0  0  0  0
   15.9220  -16.7867    6.3883 C   0  0  0  0  0  0  0  0  0  0  0  0
   15.6363  -16.3290    7.5275 O   0  0  0  0  0  0  0  0  0  0  0  0
   17.0696  -17.5964    6.2789 N   0  0  0  0  0  0  0  0  0  0  0  0
   17.8733  -17.8486    7.4570 C   0  0  0  0  0  0  0  0  0  0  0  0
   17.3900  -18.9747    8.2606 C   0  0  0  0  0  0  0  0  0  0  0  0
   16.4405  -19.6666    7.8159 O   0  0  0  0  0  0  0  0  0  0  0  0
   17.9119  -19.3365    9.4921 O   0  0  0  0  0  0  0  0  0  0  0  0
  2  1  1  6
  3  2  1  0
  4  2  1  0
  4  6  1  0
  4  5  1  6
  6  7  2  0
  8  6  1  0
  8  9  1  0
  9 10  1  1
 10 11  1  0
 11 19  1  0
 12 13  1  0
 12 11  2  0
 13 14  1  0
 14 19  2  0
 14 15  1  0
 15 16  2  0
 16 17  1  0
 18 17  2  0
 19 18  1  0
 20  9  1  0
 20 22  1  0
 21 20  2  0
 23 24  1  0
 23 22  1  0
 24 26  1  0
 25 24  2  0
M  END
$$$$
