TWG.pdb
     RDKit          3D

 26 27  0  0  1  0  0  0  0  0999 V2000
   27.4712  -19.4373  -15.7591 C   0  0  0  0  0  0  0  0  0  0  0  0
   26.7301  -19.6946  -14.4587 C   0  0  1  0  0  0  0  0  0  0  0  0
   25.3799  -19.4767  -14.6677 O   0  0  0  0  0  0  0  0  0  0  0  0
   27.0341  -21.0384  -13.8893 C   0  0  2  0  0  0  0  0  0  0  0  0
   26.5132  -22.0264  -14.8491 N   0  0  0  0  0  0  0  0  0  0  0  0
   26.5316  -21.2908  -12.5401 C   0  0  0  0  0  0  0  0  0  0  0  0
   25.4759  -21.9835  -12.3823 O   0  0  0  0  0  0  0  0  0  0  0  0
   27.1611  -20.8020  -11.3738 N   0  0  0  0  0  0  0  0  0  0  0  0
   26.5593  -20.9824  -10.0748 C   0  0  1  0  0  0  0  0  0  0  0  0
   27.6163  -20.6194   -9.0539 C   0  0  0  0  0  0  0  0  0  0  0  0
   27.0206  -20.6075   -7.6935 C   0  0  0  0  0  0  0  0  0  0  0  0
   25.8130  -21.1220   -7.2725 C   0  0  0  0  0  0  0  0  0  0  0  0
   25.6190  -20.9175   -5.9674 N   0  0  0  0  0  0  0  0  0  0  0  0
   26.7038  -20.2632   -5.5174 C   0  0  0  0  0  0  0  0  0  0  0  0
   27.0035  -19.8139   -4.2305 C   0  0  0  0  0  0  0  0  0  0  0  0
   28.1996  -19.1537   -3.9909 C   0  0  0  0  0  0  0  0  0  0  0  0
   29.0610  -18.9632   -5.0511 C   0  0  0  0  0  0  0  0  0  0  0  0
   28.7785  -19.4012   -6.3283 C   0  0  0  0  0  0  0  0  0  0  0  0
   27.5843  -20.0591   -6.5612 C   0  0  0  0  0  0  0  0  0  0  0  0
   25.3430  -20.1626   -9.9352 C   0  0  0  0  0  0  0  0  0  0  0  0
   25.3362  -18.9121  -10.0928 O   0  0  0  0  0  0  0  0  0  0  0  0
   24.1222  -20.7866   -9.6115 N   0  0  0  0  0  0  0  0  0  0  0  0
   22.8957  -20.0191   -9.6753 C   0  0  0  0  0  0  0  0  0  0  0  0
   21.9193  -20.5609  -10.6242 C   0  0  0  0  0  0  0  0  0  0  0  0
   22.2775  -20.7492  -11.8134 O   0  0  0  0  0  0  0  0  0  0  0  0
   20.6117  -20.8851  -10.3000 O   0  0  0  0  0  0  0  0  0  0  0  0
  2  1  1  6
  3  2  1  0
  4  2  1  0
  4  6  1  0
  4  5  1  6
  6  7  2  0
  8  6  1  0
  8  9  1  0
  9 10  1  1
 10 11  1  0
 11 19  1  0
 12 13  1  0
 12 11  2  0
 13 14  1  0
 14 19  2  0
 14 15  1  0
 15 16  2  0
 16 17  1  0
 18 17  2  0
 19 18  1  0
 20  9  1  0
 20 22  1  0
 21 20  2  0
 23 24  1  0
 23 22  1  0
 24 26  1  0
 25 24  2  0
M  END
$$$$
