TWG.pdb
     RDKit          3D

 26 27  0  0  1  0  0  0  0  0999 V2000
   15.3759  -20.6948    5.5444 C   0  0  0  0  0  0  0  0  0  0  0  0
   15.8698  -20.5854    4.1125 C   0  0  1  0  0  0  0  0  0  0  0  0
   14.9481  -21.1924    3.2783 O   0  0  0  0  0  0  0  0  0  0  0  0
   16.1850  -19.1801    3.7274 C   0  0  2  0  0  0  0  0  0  0  0  0
   16.4733  -19.1972    2.2834 N   0  0  0  0  0  0  0  0  0  0  0  0
   17.2620  -18.5369    4.4776 C   0  0  0  0  0  0  0  0  0  0  0  0
   18.4688  -18.6986    4.1078 O   0  0  0  0  0  0  0  0  0  0  0  0
   17.0399  -17.7274    5.6138 N   0  0  0  0  0  0  0  0  0  0  0  0
   18.1423  -17.1162    6.3163 C   0  0  1  0  0  0  0  0  0  0  0  0
   17.5898  -15.8840    7.0001 C   0  0  0  0  0  0  0  0  0  0  0  0
   17.9291  -14.6735    6.2092 C   0  0  0  0  0  0  0  0  0  0  0  0
   17.2332  -14.0956    5.1692 C   0  0  0  0  0  0  0  0  0  0  0  0
   17.8557  -13.0101    4.7034 N   0  0  0  0  0  0  0  0  0  0  0  0
   18.9723  -12.8650    5.4378 C   0  0  0  0  0  0  0  0  0  0  0  0
   19.9696  -11.8917    5.3606 C   0  0  0  0  0  0  0  0  0  0  0  0
   21.0472  -11.9367    6.2329 C   0  0  0  0  0  0  0  0  0  0  0  0
   21.0925  -12.9584    7.1583 C   0  0  0  0  0  0  0  0  0  0  0  0
   20.1146  -13.9273    7.2465 C   0  0  0  0  0  0  0  0  0  0  0  0
   19.0425  -13.8774    6.3741 C   0  0  0  0  0  0  0  0  0  0  0  0
   18.7512  -18.0591    7.2707 C   0  0  0  0  0  0  0  0  0  0  0  0
   18.0756  -18.8662    7.9642 O   0  0  0  0  0  0  0  0  0  0  0  0
   20.1509  -18.0747    7.4294 N   0  0  0  0  0  0  0  0  0  0  0  0
   20.7468  -19.0015    8.3693 C   0  0  0  0  0  0  0  0  0  0  0  0
   20.4441  -18.6864    9.7680 C   0  0  0  0  0  0  0  0  0  0  0  0
   20.7880  -17.5658   10.2197 O   0  0  0  0  0  0  0  0  0  0  0  0
   19.7967  -19.5468   10.6402 O   0  0  0  0  0  0  0  0  0  0  0  0
  2  1  1  1
  3  2  1  0
  4  2  1  0
  4  6  1  0
  4  5  1  6
  6  7  2  0
  8  6  1  0
  8  9  1  0
  9 10  1  1
 10 11  1  0
 11 19  1  0
 12 13  1  0
 12 11  2  0
 13 14  1  0
 14 19  2  0
 14 15  1  0
 15 16  2  0
 16 17  1  0
 18 17  2  0
 19 18  1  0
 20  9  1  0
 20 22  1  0
 21 20  2  0
 23 24  1  0
 23 22  1  0
 24 26  1  0
 25 24  2  0
M  END
$$$$
