TWG.pdb
     RDKit          3D

 26 27  0  0  1  0  0  0  0  0999 V2000
   29.3413  -20.1070  -15.8010 C   0  0  0  0  0  0  0  0  0  0  0  0
   28.7789  -20.7909  -14.5671 C   0  0  1  0  0  0  0  0  0  0  0  0
   29.6207  -20.5389  -13.4985 O   0  0  0  0  0  0  0  0  0  0  0  0
   27.3599  -20.4145  -14.3076 C   0  0  2  0  0  0  0  0  0  0  0  0
   27.3138  -18.9426  -14.2949 N   0  0  0  0  0  0  0  0  0  0  0  0
   26.7593  -20.9762  -13.0992 C   0  0  0  0  0  0  0  0  0  0  0  0
   26.4735  -22.2154  -13.0574 O   0  0  0  0  0  0  0  0  0  0  0  0
   26.4707  -20.2098  -11.9481 N   0  0  0  0  0  0  0  0  0  0  0  0
   25.5822  -20.7104  -10.9272 C   0  0  1  0  0  0  0  0  0  0  0  0
   25.8819  -19.9238   -9.6691 C   0  0  0  0  0  0  0  0  0  0  0  0
   27.1749  -20.3707   -9.0910 C   0  0  0  0  0  0  0  0  0  0  0  0
   28.1534  -21.1559   -9.6620 C   0  0  0  0  0  0  0  0  0  0  0  0
   29.1795  -21.3467   -8.8294 N   0  0  0  0  0  0  0  0  0  0  0  0
   28.8821  -20.6846   -7.6978 C   0  0  0  0  0  0  0  0  0  0  0  0
   29.6170  -20.5617   -6.5177 C   0  0  0  0  0  0  0  0  0  0  0  0
   29.1097  -19.8174   -5.4629 C   0  0  0  0  0  0  0  0  0  0  0  0
   27.8781  -19.2174   -5.6233 C   0  0  0  0  0  0  0  0  0  0  0  0
   27.1404  -19.3300   -6.7834 C   0  0  0  0  0  0  0  0  0  0  0  0
   27.6513  -20.0735   -7.8319 C   0  0  0  0  0  0  0  0  0  0  0  0
   24.1739  -20.5855  -11.3419 C   0  0  0  0  0  0  0  0  0  0  0  0
   23.7083  -19.5493  -11.8879 O   0  0  0  0  0  0  0  0  0  0  0  0
   23.2920  -21.6629  -11.1271 N   0  0  0  0  0  0  0  0  0  0  0  0
   21.9628  -21.6152  -11.7002 C   0  0  0  0  0  0  0  0  0  0  0  0
   20.9934  -20.9042  -10.8622 C   0  0  0  0  0  0  0  0  0  0  0  0
   21.3957  -20.3705   -9.7985 O   0  0  0  0  0  0  0  0  0  0  0  0
   19.6468  -20.7760  -11.1626 O   0  0  0  0  0  0  0  0  0  0  0  0
  2  1  1  6
  3  2  1  0
  4  2  1  0
  4  6  1  0
  4  5  1  1
  6  7  2  0
  8  6  1  0
  8  9  1  0
  9 10  1  1
 10 11  1  0
 11 19  1  0
 12 13  1  0
 12 11  2  0
 13 14  1  0
 14 19  2  0
 14 15  1  0
 15 16  2  0
 16 17  1  0
 18 17  2  0
 19 18  1  0
 20  9  1  0
 20 22  1  0
 21 20  2  0
 23 24  1  0
 23 22  1  0
 24 26  1  0
 25 24  2  0
M  END
$$$$
