TWG.pdb
     RDKit          3D

 26 27  0  0  1  0  0  0  0  0999 V2000
   27.3748  -19.1543  -16.6752 C   0  0  0  0  0  0  0  0  0  0  0  0
   26.5438  -19.7285  -15.5411 C   0  0  1  0  0  0  0  0  0  0  0  0
   25.4226  -20.3364  -16.0772 O   0  0  0  0  0  0  0  0  0  0  0  0
   27.3386  -20.6246  -14.6534 C   0  0  2  0  0  0  0  0  0  0  0  0
   27.8990  -21.6779  -15.5167 N   0  0  0  0  0  0  0  0  0  0  0  0
   26.6232  -21.1952  -13.5136 C   0  0  0  0  0  0  0  0  0  0  0  0
   26.5200  -22.4589  -13.4054 O   0  0  0  0  0  0  0  0  0  0  0  0
   26.0264  -20.4115  -12.5011 N   0  0  0  0  0  0  0  0  0  0  0  0
   25.4635  -21.0254  -11.3227 C   0  0  1  0  0  0  0  0  0  0  0  0
   25.8415  -20.1430  -10.1525 C   0  0  0  0  0  0  0  0  0  0  0  0
   27.1544  -20.5683   -9.6036 C   0  0  0  0  0  0  0  0  0  0  0  0
   28.1164  -21.3684  -10.1818 C   0  0  0  0  0  0  0  0  0  0  0  0
   29.1700  -21.5306   -9.3778 N   0  0  0  0  0  0  0  0  0  0  0  0
   28.9075  -20.8343   -8.2582 C   0  0  0  0  0  0  0  0  0  0  0  0
   29.6801  -20.6729   -7.1072 C   0  0  0  0  0  0  0  0  0  0  0  0
   29.2051  -19.8974   -6.0599 C   0  0  0  0  0  0  0  0  0  0  0  0
   27.9668  -19.3058   -6.1983 C   0  0  0  0  0  0  0  0  0  0  0  0
   27.1918  -19.4564   -7.3295 C   0  0  0  0  0  0  0  0  0  0  0  0
   27.6707  -20.2308   -8.3707 C   0  0  0  0  0  0  0  0  0  0  0  0
   24.0046  -21.1853  -11.4535 C   0  0  0  0  0  0  0  0  0  0  0  0
   23.2481  -21.4120  -10.4712 O   0  0  0  0  0  0  0  0  0  0  0  0
   23.4094  -21.0834  -12.7262 N   0  0  0  0  0  0  0  0  0  0  0  0
   22.0000  -21.3815  -12.8749 C   0  0  0  0  0  0  0  0  0  0  0  0
   21.1922  -20.2113  -13.2288 C   0  0  0  0  0  0  0  0  0  0  0  0
   21.7629  -19.0974  -13.3372 O   0  0  0  0  0  0  0  0  0  0  0  0
   19.8257  -20.2450  -13.4559 O   0  0  0  0  0  0  0  0  0  0  0  0
  2  1  1  6
  3  2  1  0
  4  2  1  0
  4  6  1  0
  4  5  1  6
  6  7  2  0
  8  6  1  0
  8  9  1  0
  9 10  1  1
 10 11  1  0
 11 19  1  0
 12 13  1  0
 12 11  2  0
 13 14  1  0
 14 19  2  0
 14 15  1  0
 15 16  2  0
 16 17  1  0
 18 17  2  0
 19 18  1  0
 20  9  1  0
 20 22  1  0
 21 20  2  0
 23 24  1  0
 23 22  1  0
 24 26  1  0
 25 24  2  0
M  END
$$$$
