TWG.pdb
     RDKit          3D

 26 27  0  0  1  0  0  0  0  0999 V2000
   21.4988  -22.9226  -14.3340 C   0  0  0  0  0  0  0  0  0  0  0  0
   22.7842  -22.1219  -14.2207 C   0  0  1  0  0  0  0  0  0  0  0  0
   22.8851  -21.2883  -15.3202 O   0  0  0  0  0  0  0  0  0  0  0  0
   22.8920  -21.4041  -12.9186 C   0  0  2  0  0  0  0  0  0  0  0  0
   21.7848  -20.4338  -12.8835 N   0  0  0  0  0  0  0  0  0  0  0  0
   24.1749  -20.7577  -12.6481 C   0  0  0  0  0  0  0  0  0  0  0  0
   24.2891  -19.4997  -12.8012 O   0  0  0  0  0  0  0  0  0  0  0  0
   25.3218  -21.4605  -12.2165 N   0  0  0  0  0  0  0  0  0  0  0  0
   26.6129  -20.8177  -12.1728 C   0  0  1  0  0  0  0  0  0  0  0  0
   27.3453  -21.3982  -10.9821 C   0  0  0  0  0  0  0  0  0  0  0  0
   26.9073  -20.7148   -9.7384 C   0  0  0  0  0  0  0  0  0  0  0  0
   25.6616  -20.2217   -9.4140 C   0  0  0  0  0  0  0  0  0  0  0  0
   25.6522  -19.6686   -8.1988 N   0  0  0  0  0  0  0  0  0  0  0  0
   26.8989  -19.7944   -7.7118 C   0  0  0  0  0  0  0  0  0  0  0  0
   27.4218  -19.3849   -6.4843 C   0  0  0  0  0  0  0  0  0  0  0  0
   28.7557  -19.6230   -6.1881 C   0  0  0  0  0  0  0  0  0  0  0  0
   29.5271  -20.2659   -7.1337 C   0  0  0  0  0  0  0  0  0  0  0  0
   29.0245  -20.6762   -8.3510 C   0  0  0  0  0  0  0  0  0  0  0  0
   27.6936  -20.4361   -8.6408 C   0  0  0  0  0  0  0  0  0  0  0  0
   27.3485  -21.0188  -13.4334 C   0  0  0  0  0  0  0  0  0  0  0  0
   27.2225  -22.0518  -14.1445 O   0  0  0  0  0  0  0  0  0  0  0  0
   28.2378  -20.0223  -13.8814 N   0  0  0  0  0  0  0  0  0  0  0  0
   27.8000  -19.0867  -14.8965 C   0  0  0  0  0  0  0  0  0  0  0  0
   27.8195  -19.6466  -16.2506 C   0  0  0  0  0  0  0  0  0  0  0  0
   28.8104  -20.3338  -16.6026 O   0  0  0  0  0  0  0  0  0  0  0  0
   26.8100  -19.4705  -17.1834 O   0  0  0  0  0  0  0  0  0  0  0  0
  2  1  1  1
  3  2  1  0
  4  2  1  0
  4  6  1  0
  4  5  1  6
  6  7  2  0
  8  6  1  0
  8  9  1  0
  9 10  1  1
 10 11  1  0
 11 19  1  0
 12 13  1  0
 12 11  2  0
 13 14  1  0
 14 19  2  0
 14 15  1  0
 15 16  2  0
 16 17  1  0
 18 17  2  0
 19 18  1  0
 20  9  1  0
 20 22  1  0
 21 20  2  0
 23 24  1  0
 23 22  1  0
 24 26  1  0
 25 24  2  0
M  END
$$$$
