TWG.pdb
     RDKit          3D

 26 27  0  0  1  0  0  0  0  0999 V2000
   27.0176  -18.9135  -15.6360 C   0  0  0  0  0  0  0  0  0  0  0  0
   26.3325  -19.5013  -14.4147 C   0  0  1  0  0  0  0  0  0  0  0  0
   25.2690  -20.2799  -14.8351 O   0  0  0  0  0  0  0  0  0  0  0  0
   27.2842  -20.2258  -13.5247 C   0  0  2  0  0  0  0  0  0  0  0  0
   27.8223  -21.3472  -14.3131 N   0  0  0  0  0  0  0  0  0  0  0  0
   26.7428  -20.6849  -12.2470 C   0  0  0  0  0  0  0  0  0  0  0  0
   26.3543  -21.8906  -12.1261 O   0  0  0  0  0  0  0  0  0  0  0  0
   26.6224  -19.8529  -11.1117 N   0  0  0  0  0  0  0  0  0  0  0  0
   26.0868  -20.3621   -9.8723 C   0  0  1  0  0  0  0  0  0  0  0  0
   26.6293  -19.4773   -8.7705 C   0  0  0  0  0  0  0  0  0  0  0  0
   27.7347  -20.1729   -8.0634 C   0  0  0  0  0  0  0  0  0  0  0  0
   28.6172  -21.1135   -8.5496 C   0  0  0  0  0  0  0  0  0  0  0  0
   29.4770  -21.5139   -7.6099 N   0  0  0  0  0  0  0  0  0  0  0  0
   29.1648  -20.8358   -6.4919 C   0  0  0  0  0  0  0  0  0  0  0  0
   29.7539  -20.8821   -5.2275 C   0  0  0  0  0  0  0  0  0  0  0  0
   29.2618  -20.0820   -4.2068 C   0  0  0  0  0  0  0  0  0  0  0  0
   28.1914  -19.2579   -4.4851 C   0  0  0  0  0  0  0  0  0  0  0  0
   27.5987  -19.2014   -5.7295 C   0  0  0  0  0  0  0  0  0  0  0  0
   28.0937  -20.0015   -6.7434 C   0  0  0  0  0  0  0  0  0  0  0  0
   24.6138  -20.3811   -9.8991 C   0  0  0  0  0  0  0  0  0  0  0  0
   23.9163  -19.3411  -10.0430 O   0  0  0  0  0  0  0  0  0  0  0  0
   23.9357  -21.6079   -9.7595 N   0  0  0  0  0  0  0  0  0  0  0  0
   22.4877  -21.6181   -9.7350 C   0  0  0  0  0  0  0  0  0  0  0  0
   21.8826  -21.4844  -11.0629 C   0  0  0  0  0  0  0  0  0  0  0  0
   21.7958  -22.5055  -11.7894 O   0  0  0  0  0  0  0  0  0  0  0  0
   21.3922  -20.2970  -11.5820 O   0  0  0  0  0  0  0  0  0  0  0  0
  2  1  1  6
  3  2  1  0
  4  2  1  0
  4  6  1  0
  4  5  1  6
  6  7  2  0
  8  6  1  0
  8  9  1  0
  9 10  1  1
 10 11  1  0
 11 19  1  0
 12 13  1  0
 12 11  2  0
 13 14  1  0
 14 19  2  0
 14 15  1  0
 15 16  2  0
 16 17  1  0
 18 17  2  0
 19 18  1  0
 20  9  1  0
 20 22  1  0
 21 20  2  0
 23 24  1  0
 23 22  1  0
 24 26  1  0
 25 24  2  0
M  END
$$$$
