YYG.pdb
     RDKit          3D

 29 30  0  0  1  0  0  0  0  0999 V2000
    6.5068  -14.0461   15.5912 O   0  0  0  0  0  0  0  0  0  0  0  0
    7.2814  -14.0747   16.7616 C   0  0  0  0  0  0  0  0  0  0  0  0
    8.3721  -14.8878   16.8946 C   0  0  0  0  0  0  0  0  0  0  0  0
    9.1032  -14.8881   18.0532 C   0  0  0  0  0  0  0  0  0  0  0  0
    8.7458  -14.0698   19.0937 C   0  0  0  0  0  0  0  0  0  0  0  0
    9.4953  -14.0548   20.3490 C   0  0  0  0  0  0  0  0  0  0  0  0
    9.4685  -15.3270   21.1162 C   0  0  2  0  0  0  0  0  0  0  0  0
    8.1379  -15.8690   21.2735 N   0  0  0  0  0  0  0  0  0  0  0  0
   10.2211  -15.2564   22.3854 C   0  0  0  0  0  0  0  0  0  0  0  0
   11.3921  -14.8323   22.4763 O   0  0  0  0  0  0  0  0  0  0  0  0
    7.6468  -13.2557   18.9484 C   0  0  0  0  0  0  0  0  0  0  0  0
    6.9098  -13.2435   17.8036 C   0  0  0  0  0  0  0  0  0  0  0  0
   10.8707  -15.1927   31.2107 O   0  0  0  0  0  0  0  0  0  0  0  0
   10.4381  -15.2384   29.8843 C   0  0  0  0  0  0  0  0  0  0  0  0
   10.0824  -16.4604   29.3750 C   0  0  0  0  0  0  0  0  0  0  0  0
    9.6496  -16.5462   28.0699 C   0  0  0  0  0  0  0  0  0  0  0  0
    9.5785  -15.3992   27.2880 C   0  0  0  0  0  0  0  0  0  0  0  0
    9.0969  -15.5286   25.9116 C   0  0  0  0  0  0  0  0  0  0  0  0
   10.1664  -15.7217   24.8744 C   0  0  2  0  0  0  0  0  0  0  0  0
    9.5758  -15.7015   23.5725 N   0  0  0  0  0  0  0  0  0  0  0  0
   10.8144  -17.0322   25.1871 C   0  0  0  0  0  0  0  0  0  0  0  0
   10.0967  -17.8528   25.8149 O   0  0  0  0  0  0  0  0  0  0  0  0
    9.9384  -14.1640   27.8025 C   0  0  0  0  0  0  0  0  0  0  0  0
   10.3752  -14.0804   29.1211 C   0  0  0  0  0  0  0  0  0  0  0  0
   12.1211  -17.3794   24.8334 N   0  0  0  0  0  0  0  0  0  0  0  0
   12.7400  -18.5652   25.3896 C   0  0  0  0  0  0  0  0  0  0  0  0
   14.1708  -18.6352   24.9369 C   0  0  0  0  0  0  0  0  0  0  0  0
   14.9395  -17.5080   24.7657 O   0  0  0  0  0  0  0  0  0  0  0  0
   14.6949  -19.7439   24.7041 O   0  0  0  0  0  0  0  0  0  0  0  0
  2  3  2  0
  2  1  1  0
  4  3  1  0
  5  4  2  0
  6  5  1  0
  7  6  1  0
  7  8  1  1
  9  7  1  0
  9 10  2  0
 11  5  1  0
 11 12  2  0
 12  2  1  0
 13 14  1  0
 14 15  2  0
 15 16  1  0
 17 16  2  0
 17 18  1  0
 19 18  1  1
 19 20  1  0
 20  9  1  0
 21 25  1  0
 21 19  1  0
 22 21  2  0
 23 17  1  0
 24 23  2  0
 24 14  1  0
 26 25  1  0
 27 26  1  0
 28 27  1  0
 29 27  2  0
M  END
$$$$
