YYG.pdb
     RDKit          3D

 29 30  0  0  1  0  0  0  0  0999 V2000
    7.2643  -17.2819   15.2493 O   0  0  0  0  0  0  0  0  0  0  0  0
    7.7954  -16.9870   16.5149 C   0  0  0  0  0  0  0  0  0  0  0  0
    7.1357  -17.2939   17.6722 C   0  0  0  0  0  0  0  0  0  0  0  0
    7.6863  -16.9895   18.8891 C   0  0  0  0  0  0  0  0  0  0  0  0
    8.9085  -16.3718   18.9574 C   0  0  0  0  0  0  0  0  0  0  0  0
    9.5190  -16.0204   20.2386 C   0  0  0  0  0  0  0  0  0  0  0  0
    8.8336  -14.9365   20.9891 C   0  0  2  0  0  0  0  0  0  0  0  0
    8.8338  -13.6718   20.2895 N   0  0  0  0  0  0  0  0  0  0  0  0
    9.2846  -14.8253   22.3913 C   0  0  0  0  0  0  0  0  0  0  0  0
    9.9118  -13.8450   22.8440 O   0  0  0  0  0  0  0  0  0  0  0  0
    9.5632  -16.0682   17.7865 C   0  0  0  0  0  0  0  0  0  0  0  0
    9.0298  -16.3640   16.5692 C   0  0  0  0  0  0  0  0  0  0  0  0
    6.4999  -10.5666   26.7749 O   0  0  0  0  0  0  0  0  0  0  0  0
    6.8386  -11.8733   26.4196 C   0  0  0  0  0  0  0  0  0  0  0  0
    8.0384  -12.3618   26.8682 C   0  0  0  0  0  0  0  0  0  0  0  0
    8.4078  -13.6475   26.5390 C   0  0  0  0  0  0  0  0  0  0  0  0
    7.5647  -14.4313   25.7599 C   0  0  0  0  0  0  0  0  0  0  0  0
    7.9845  -15.7982   25.4461 C   0  0  0  0  0  0  0  0  0  0  0  0
    9.2709  -15.9129   24.6787 C   0  0  2  0  0  0  0  0  0  0  0  0
    8.9911  -15.8995   23.2766 N   0  0  0  0  0  0  0  0  0  0  0  0
    9.9049  -17.1921   25.1221 C   0  0  0  0  0  0  0  0  0  0  0  0
    9.4529  -17.6757   26.1919 O   0  0  0  0  0  0  0  0  0  0  0  0
    6.3522  -13.9375   25.3059 C   0  0  0  0  0  0  0  0  0  0  0  0
    5.9817  -12.6385   25.6400 C   0  0  0  0  0  0  0  0  0  0  0  0
   10.9306  -17.8515   24.4394 N   0  0  0  0  0  0  0  0  0  0  0  0
   11.4908  -19.0788   24.9671 C   0  0  0  0  0  0  0  0  0  0  0  0
   12.9862  -19.0405   24.8266 C   0  0  0  0  0  0  0  0  0  0  0  0
   13.7782  -20.1186   25.1442 O   0  0  0  0  0  0  0  0  0  0  0  0
   13.5442  -18.0048   24.4097 O   0  0  0  0  0  0  0  0  0  0  0  0
  2  3  2  0
  2  1  1  0
  4  3  1  0
  5  4  2  0
  6  5  1  0
  7  6  1  0
  7  8  1  6
  9  7  1  0
  9 10  2  0
 11  5  1  0
 11 12  2  0
 12  2  1  0
 13 14  1  0
 14 15  2  0
 15 16  1  0
 17 16  2  0
 17 18  1  0
 19 18  1  1
 19 20  1  0
 20  9  1  0
 21 25  1  0
 21 19  1  0
 22 21  2  0
 23 17  1  0
 24 23  2  0
 24 14  1  0
 26 25  1  0
 27 26  1  0
 28 27  1  0
 29 27  2  0
M  END
$$$$
