YYG.pdb
     RDKit          3D

 29 30  0  0  1  0  0  0  0  0999 V2000
    6.9971  -12.8741   16.1784 O   0  0  0  0  0  0  0  0  0  0  0  0
    7.7152  -13.4941   17.2131 C   0  0  0  0  0  0  0  0  0  0  0  0
    8.5713  -12.8017   18.0232 C   0  0  0  0  0  0  0  0  0  0  0  0
    9.2553  -13.4422   19.0225 C   0  0  0  0  0  0  0  0  0  0  0  0
    9.0869  -14.7886   19.2196 C   0  0  0  0  0  0  0  0  0  0  0  0
    9.8111  -15.5062   20.2676 C   0  0  0  0  0  0  0  0  0  0  0  0
   10.7019  -14.6657   21.1091 C   0  0  2  0  0  0  0  0  0  0  0  0
   11.9979  -14.4354   20.5124 N   0  0  0  0  0  0  0  0  0  0  0  0
   10.7806  -15.1251   22.5108 C   0  0  0  0  0  0  0  0  0  0  0  0
   11.8533  -15.3478   23.1100 O   0  0  0  0  0  0  0  0  0  0  0  0
    8.2227  -15.4748   18.3986 C   0  0  0  0  0  0  0  0  0  0  0  0
    7.5354  -14.8531   17.4011 C   0  0  0  0  0  0  0  0  0  0  0  0
    6.3023  -10.3935   26.3297 O   0  0  0  0  0  0  0  0  0  0  0  0
    6.7522  -11.6833   26.0426 C   0  0  0  0  0  0  0  0  0  0  0  0
    6.2410  -12.3005   24.9304 C   0  0  0  0  0  0  0  0  0  0  0  0
    6.6611  -13.5736   24.6134 C   0  0  0  0  0  0  0  0  0  0  0  0
    7.5937  -14.2152   25.4202 C   0  0  0  0  0  0  0  0  0  0  0  0
    8.0283  -15.5606   25.0404 C   0  0  0  0  0  0  0  0  0  0  0  0
    9.4612  -15.6709   24.6028 C   0  0  2  0  0  0  0  0  0  0  0  0
    9.5634  -15.3299   23.2180 N   0  0  0  0  0  0  0  0  0  0  0  0
    9.8695  -17.0832   24.8745 C   0  0  0  0  0  0  0  0  0  0  0  0
    9.8134  -17.4385   26.0800 O   0  0  0  0  0  0  0  0  0  0  0  0
    8.1102  -13.5917   26.5447 C   0  0  0  0  0  0  0  0  0  0  0  0
    7.6840  -12.3057   26.8624 C   0  0  0  0  0  0  0  0  0  0  0  0
   10.2925  -17.9917   23.9005 N   0  0  0  0  0  0  0  0  0  0  0  0
   10.6320  -19.3519   24.2656 C   0  0  0  0  0  0  0  0  0  0  0  0
   12.1208  -19.5318   24.1743 C   0  0  0  0  0  0  0  0  0  0  0  0
   12.7169  -20.7649   24.2939 O   0  0  0  0  0  0  0  0  0  0  0  0
   12.8553  -18.5406   23.9840 O   0  0  0  0  0  0  0  0  0  0  0  0
  2  3  2  0
  2  1  1  0
  4  3  1  0
  5  4  2  0
  6  5  1  0
  7  6  1  0
  7  8  1  6
  9  7  1  0
  9 10  2  0
 11  5  1  0
 11 12  2  0
 12  2  1  0
 13 14  1  0
 14 15  2  0
 15 16  1  0
 17 16  2  0
 17 18  1  0
 19 18  1  6
 19 20  1  0
 20  9  1  0
 21 25  1  0
 21 19  1  0
 22 21  2  0
 23 17  1  0
 24 23  2  0
 24 14  1  0
 26 25  1  0
 27 26  1  0
 28 27  1  0
 29 27  2  0
M  END
$$$$
