YYG.pdb
     RDKit          3D

 29 30  0  0  1  0  0  0  0  0999 V2000
    7.8798  -15.0264   13.3660 O   0  0  0  0  0  0  0  0  0  0  0  0
    8.1389  -14.6676   14.6983 C   0  0  0  0  0  0  0  0  0  0  0  0
    7.3045  -13.8507   15.4089 C   0  0  0  0  0  0  0  0  0  0  0  0
    7.5915  -13.5224   16.7076 C   0  0  0  0  0  0  0  0  0  0  0  0
    8.7226  -14.0121   17.3084 C   0  0  0  0  0  0  0  0  0  0  0  0
    9.0664  -13.6711   18.6880 C   0  0  0  0  0  0  0  0  0  0  0  0
    9.2007  -14.8284   19.6102 C   0  0  2  0  0  0  0  0  0  0  0  0
    8.1269  -15.7870   19.4808 N   0  0  0  0  0  0  0  0  0  0  0  0
    9.4589  -14.4300   21.0090 C   0  0  0  0  0  0  0  0  0  0  0  0
   10.4364  -13.7400   21.3660 O   0  0  0  0  0  0  0  0  0  0  0  0
    9.5545  -14.8334   16.5837 C   0  0  0  0  0  0  0  0  0  0  0  0
    9.2835  -15.1692   15.2923 C   0  0  0  0  0  0  0  0  0  0  0  0
    6.3889  -11.5482   28.6601 O   0  0  0  0  0  0  0  0  0  0  0  0
    6.5580  -12.2465   27.4633 C   0  0  0  0  0  0  0  0  0  0  0  0
    6.5411  -11.5230   26.2990 C   0  0  0  0  0  0  0  0  0  0  0  0
    6.7054  -12.1764   25.0974 C   0  0  0  0  0  0  0  0  0  0  0  0
    6.8856  -13.5545   25.0785 C   0  0  0  0  0  0  0  0  0  0  0  0
    7.0744  -14.2102   23.7832 C   0  0  0  0  0  0  0  0  0  0  0  0
    8.5041  -14.3810   23.3544 C   0  0  2  0  0  0  0  0  0  0  0  0
    8.5428  -14.8614   22.0083 N   0  0  0  0  0  0  0  0  0  0  0  0
    9.1142  -15.3436   24.3219 C   0  0  0  0  0  0  0  0  0  0  0  0
    9.0453  -15.0085   25.5325 O   0  0  0  0  0  0  0  0  0  0  0  0
    6.9021  -14.2861   26.2552 C   0  0  0  0  0  0  0  0  0  0  0  0
    6.7360  -13.6234   27.4675 C   0  0  0  0  0  0  0  0  0  0  0  0
    9.7314  -16.5462   23.9671 N   0  0  0  0  0  0  0  0  0  0  0  0
   10.3242  -17.3927   24.9824 C   0  0  0  0  0  0  0  0  0  0  0  0
   11.7504  -17.6854   24.6116 C   0  0  0  0  0  0  0  0  0  0  0  0
   12.5730  -18.4432   25.4113 O   0  0  0  0  0  0  0  0  0  0  0  0
   12.2202  -17.2340   23.5469 O   0  0  0  0  0  0  0  0  0  0  0  0
  2  3  2  0
  2  1  1  0
  4  3  1  0
  5  4  2  0
  6  5  1  0
  7  6  1  0
  7  8  1  1
  9  7  1  0
  9 10  2  0
 11  5  1  0
 11 12  2  0
 12  2  1  0
 13 14  1  0
 14 15  2  0
 15 16  1  0
 17 16  2  0
 17 18  1  0
 19 18  1  1
 19 20  1  0
 20  9  1  0
 21 25  1  0
 21 19  1  0
 22 21  2  0
 23 17  1  0
 24 23  2  0
 24 14  1  0
 26 25  1  0
 27 26  1  0
 28 27  1  0
 29 27  2  0
M  END
$$$$
