YYG.pdb
     RDKit          3D

 29 30  0  0  1  0  0  0  0  0999 V2000
    7.6144  -13.8587   16.0244 O   0  0  0  0  0  0  0  0  0  0  0  0
    8.0422  -13.9220   17.3599 C   0  0  0  0  0  0  0  0  0  0  0  0
    9.1211  -14.6676   17.7456 C   0  0  0  0  0  0  0  0  0  0  0  0
    9.5080  -14.7047   19.0592 C   0  0  0  0  0  0  0  0  0  0  0  0
    8.8137  -13.9918   20.0025 C   0  0  0  0  0  0  0  0  0  0  0  0
    9.1907  -14.0196   21.4149 C   0  0  0  0  0  0  0  0  0  0  0  0
    9.2990  -15.3754   22.0134 C   0  0  2  0  0  0  0  0  0  0  0  0
    8.1456  -16.2064   21.7528 N   0  0  0  0  0  0  0  0  0  0  0  0
    9.6890  -15.3524   23.4380 C   0  0  0  0  0  0  0  0  0  0  0  0
   10.6358  -14.6743   23.8885 O   0  0  0  0  0  0  0  0  0  0  0  0
    7.7301  -13.2448   19.6028 C   0  0  0  0  0  0  0  0  0  0  0  0
    7.3328  -13.1972   18.3013 C   0  0  0  0  0  0  0  0  0  0  0  0
    6.0663  -10.5258   26.1965 O   0  0  0  0  0  0  0  0  0  0  0  0
    6.5169  -11.8445   26.2762 C   0  0  0  0  0  0  0  0  0  0  0  0
    5.7907  -12.8037   25.6190 C   0  0  0  0  0  0  0  0  0  0  0  0
    6.2039  -14.1167   25.6735 C   0  0  0  0  0  0  0  0  0  0  0  0
    7.3465  -14.4531   26.3901 C   0  0  0  0  0  0  0  0  0  0  0  0
    7.7633  -15.8563   26.4095 C   0  0  0  0  0  0  0  0  0  0  0  0
    9.0936  -16.1381   25.7711 C   0  0  2  0  0  0  0  0  0  0  0  0
    8.9453  -16.1528   24.3491 N   0  0  0  0  0  0  0  0  0  0  0  0
    9.5411  -17.4580   26.3120 C   0  0  0  0  0  0  0  0  0  0  0  0
    9.8425  -17.4663   27.5334 O   0  0  0  0  0  0  0  0  0  0  0  0
    8.0804  -13.4837   27.0548 C   0  0  0  0  0  0  0  0  0  0  0  0
    7.6606  -12.1583   26.9980 C   0  0  0  0  0  0  0  0  0  0  0  0
    9.6383  -18.6342   25.5636 N   0  0  0  0  0  0  0  0  0  0  0  0
   10.9260  -19.2628   25.3509 C   0  0  0  0  0  0  0  0  0  0  0  0
   11.3354  -19.9873   26.6018 C   0  0  0  0  0  0  0  0  0  0  0  0
   11.9340  -21.2247   26.5674 O   0  0  0  0  0  0  0  0  0  0  0  0
   11.1333  -19.4639   27.7168 O   0  0  0  0  0  0  0  0  0  0  0  0
  2  3  2  0
  2  1  1  0
  4  3  1  0
  5  4  2  0
  6  5  1  0
  7  6  1  0
  7  8  1  1
  9  7  1  0
  9 10  2  0
 11  5  1  0
 11 12  2  0
 12  2  1  0
 13 14  1  0
 14 15  2  0
 15 16  1  0
 17 16  2  0
 17 18  1  0
 19 18  1  1
 19 20  1  0
 20  9  1  0
 21 25  1  0
 21 19  1  0
 22 21  2  0
 23 17  1  0
 24 23  2  0
 24 14  1  0
 26 25  1  0
 27 26  1  0
 28 27  1  0
 29 27  2  0
M  END
$$$$
