YYG.pdb
     RDKit          3D

 29 30  0  0  1  0  0  0  0  0999 V2000
    8.5697  -13.9341   13.5537 O   0  0  0  0  0  0  0  0  0  0  0  0
    8.7358  -14.2436   14.9129 C   0  0  0  0  0  0  0  0  0  0  0  0
    9.4641  -15.3220   15.3315 C   0  0  0  0  0  0  0  0  0  0  0  0
    9.6031  -15.5920   16.6674 C   0  0  0  0  0  0  0  0  0  0  0  0
    9.0107  -14.7800   17.5999 C   0  0  0  0  0  0  0  0  0  0  0  0
    9.1272  -15.0466   19.0328 C   0  0  0  0  0  0  0  0  0  0  0  0
   10.2180  -14.3128   19.7253 C   0  0  2  0  0  0  0  0  0  0  0  0
   11.5043  -14.4680   19.0849 N   0  0  0  0  0  0  0  0  0  0  0  0
   10.2582  -14.5682   21.1797 C   0  0  0  0  0  0  0  0  0  0  0  0
   11.3039  -14.8257   21.8115 O   0  0  0  0  0  0  0  0  0  0  0  0
    8.2807  -13.6976   17.1670 C   0  0  0  0  0  0  0  0  0  0  0  0
    8.1329  -13.4155   15.8432 C   0  0  0  0  0  0  0  0  0  0  0  0
    6.5822  -12.0635   28.8220 O   0  0  0  0  0  0  0  0  0  0  0  0
    6.7878  -12.5249   27.5207 C   0  0  0  0  0  0  0  0  0  0  0  0
    7.3527  -11.6574   26.6221 C   0  0  0  0  0  0  0  0  0  0  0  0
    7.5722  -12.0762   25.3281 C   0  0  0  0  0  0  0  0  0  0  0  0
    7.2206  -13.3667   24.9498 C   0  0  0  0  0  0  0  0  0  0  0  0
    7.4859  -13.7802   23.5707 C   0  0  0  0  0  0  0  0  0  0  0  0
    8.9037  -14.1869   23.2857 C   0  0  2  0  0  0  0  0  0  0  0  0
    9.0333  -14.5226   21.9019 N   0  0  0  0  0  0  0  0  0  0  0  0
    9.1900  -15.3474   24.1838 C   0  0  0  0  0  0  0  0  0  0  0  0
    9.2728  -15.0738   25.4089 O   0  0  0  0  0  0  0  0  0  0  0  0
    6.6490  -14.2435   25.8579 C   0  0  0  0  0  0  0  0  0  0  0  0
    6.4285  -13.8177   27.1642 C   0  0  0  0  0  0  0  0  0  0  0  0
    9.3632  -16.6652   23.7521 N   0  0  0  0  0  0  0  0  0  0  0  0
    9.7305  -17.7024   24.6944 C   0  0  0  0  0  0  0  0  0  0  0  0
    8.5182  -18.5286   25.0181 C   0  0  0  0  0  0  0  0  0  0  0  0
    8.5409  -19.9030   24.9888 O   0  0  0  0  0  0  0  0  0  0  0  0
    7.4473  -17.9657   25.3257 O   0  0  0  0  0  0  0  0  0  0  0  0
  2  3  2  0
  2  1  1  0
  4  3  1  0
  5  4  2  0
  6  5  1  0
  7  6  1  0
  7  8  1  6
  9  7  1  0
  9 10  2  0
 11  5  1  0
 11 12  2  0
 12  2  1  0
 13 14  1  0
 14 15  2  0
 15 16  1  0
 17 16  2  0
 17 18  1  0
 19 18  1  6
 19 20  1  0
 20  9  1  0
 21 25  1  0
 21 19  1  0
 22 21  2  0
 23 17  1  0
 24 23  2  0
 24 14  1  0
 26 25  1  0
 27 26  1  0
 28 27  1  0
 29 27  2  0
M  END
$$$$
