YYG.pdb
     RDKit          3D

 29 30  0  0  1  0  0  0  0  0999 V2000
    7.6229  -14.1571   14.4687 O   0  0  0  0  0  0  0  0  0  0  0  0
    7.7800  -14.6194   15.7848 C   0  0  0  0  0  0  0  0  0  0  0  0
    7.7312  -15.9483   16.1017 C   0  0  0  0  0  0  0  0  0  0  0  0
    7.8885  -16.3610   17.3985 C   0  0  0  0  0  0  0  0  0  0  0  0
    8.0969  -15.4415   18.3939 C   0  0  0  0  0  0  0  0  0  0  0  0
    8.2551  -15.8460   19.7900 C   0  0  0  0  0  0  0  0  0  0  0  0
    9.5511  -15.4720   20.4132 C   0  0  2  0  0  0  0  0  0  0  0  0
   10.6612  -16.2669   19.9389 N   0  0  0  0  0  0  0  0  0  0  0  0
    9.4846  -15.3871   21.8865 C   0  0  0  0  0  0  0  0  0  0  0  0
   10.2650  -15.9889   22.6533 O   0  0  0  0  0  0  0  0  0  0  0  0
    8.1446  -14.1072   18.0632 C   0  0  0  0  0  0  0  0  0  0  0  0
    7.9902  -13.6806   16.7794 C   0  0  0  0  0  0  0  0  0  0  0  0
    6.0069  -12.0375   29.3854 O   0  0  0  0  0  0  0  0  0  0  0  0
    6.3261  -12.3753   28.0692 C   0  0  0  0  0  0  0  0  0  0  0  0
    6.4721  -11.3515   27.1693 C   0  0  0  0  0  0  0  0  0  0  0  0
    6.7876  -11.6447   25.8607 C   0  0  0  0  0  0  0  0  0  0  0  0
    6.9539  -12.9680   25.4692 C   0  0  0  0  0  0  0  0  0  0  0  0
    7.3063  -13.2380   24.0741 C   0  0  0  0  0  0  0  0  0  0  0  0
    8.2891  -14.3551   23.8666 C   0  0  2  0  0  0  0  0  0  0  0  0
    8.4694  -14.5759   22.4655 N   0  0  0  0  0  0  0  0  0  0  0  0
    7.7144  -15.5467   24.5630 C   0  0  0  0  0  0  0  0  0  0  0  0
    7.5835  -15.4321   25.8090 O   0  0  0  0  0  0  0  0  0  0  0  0
    6.8060  -14.0030   26.3786 C   0  0  0  0  0  0  0  0  0  0  0  0
    6.4872  -13.7038   27.6996 C   0  0  0  0  0  0  0  0  0  0  0  0
    7.3310  -16.7318   23.9293 N   0  0  0  0  0  0  0  0  0  0  0  0
    6.7546  -17.8183   24.6947 C   0  0  0  0  0  0  0  0  0  0  0  0
    7.8515  -18.7371   25.1528 C   0  0  0  0  0  0  0  0  0  0  0  0
    7.6242  -20.0635   25.4347 O   0  0  0  0  0  0  0  0  0  0  0  0
    9.0126  -18.2990   25.2873 O   0  0  0  0  0  0  0  0  0  0  0  0
  2  3  2  0
  2  1  1  0
  4  3  1  0
  5  4  2  0
  6  5  1  0
  7  6  1  0
  7  8  1  1
  9  7  1  0
  9 10  2  0
 11  5  1  0
 11 12  2  0
 12  2  1  0
 13 14  1  0
 14 15  2  0
 15 16  1  0
 17 16  2  0
 17 18  1  0
 19 18  1  6
 19 20  1  0
 20  9  1  0
 21 25  1  0
 21 19  1  0
 22 21  2  0
 23 17  1  0
 24 23  2  0
 24 14  1  0
 26 25  1  0
 27 26  1  0
 28 27  1  0
 29 27  2  0
M  END
$$$$
