YYG.pdb
     RDKit          3D

 29 30  0  0  1  0  0  0  0  0999 V2000
    6.5766  -19.0369   15.7431 O   0  0  0  0  0  0  0  0  0  0  0  0
    7.1576  -18.6011   16.9445 C   0  0  0  0  0  0  0  0  0  0  0  0
    6.4533  -17.8996   17.8828 C   0  0  0  0  0  0  0  0  0  0  0  0
    7.0555  -17.4907   19.0433 C   0  0  0  0  0  0  0  0  0  0  0  0
    8.3751  -17.7822   19.2747 C   0  0  0  0  0  0  0  0  0  0  0  0
    9.0528  -17.3494   20.4959 C   0  0  0  0  0  0  0  0  0  0  0  0
    9.2965  -15.8872   20.5990 C   0  0  2  0  0  0  0  0  0  0  0  0
    9.8553  -15.3169   19.3943 N   0  0  0  0  0  0  0  0  0  0  0  0
   10.0358  -15.5058   21.8198 C   0  0  0  0  0  0  0  0  0  0  0  0
   11.2429  -15.1867   21.8301 O   0  0  0  0  0  0  0  0  0  0  0  0
    9.0737  -18.4888   18.3237 C   0  0  0  0  0  0  0  0  0  0  0  0
    8.4899  -18.9025   17.1653 C   0  0  0  0  0  0  0  0  0  0  0  0
   10.4742  -14.6445   30.6800 O   0  0  0  0  0  0  0  0  0  0  0  0
   10.0696  -14.7095   29.3457 C   0  0  0  0  0  0  0  0  0  0  0  0
    9.7342  -15.9404   28.8439 C   0  0  0  0  0  0  0  0  0  0  0  0
    9.3293  -16.0453   27.5313 C   0  0  0  0  0  0  0  0  0  0  0  0
    9.2653  -14.9082   26.7343 C   0  0  0  0  0  0  0  0  0  0  0  0
    8.8134  -15.0580   25.3499 C   0  0  0  0  0  0  0  0  0  0  0  0
    9.9076  -15.2146   24.3325 C   0  0  2  0  0  0  0  0  0  0  0  0
    9.3325  -15.5065   23.0564 N   0  0  0  0  0  0  0  0  0  0  0  0
   10.7813  -16.3205   24.8313 C   0  0  0  0  0  0  0  0  0  0  0  0
   11.4430  -16.0591   25.8689 O   0  0  0  0  0  0  0  0  0  0  0  0
    9.6047  -13.6641   27.2412 C   0  0  0  0  0  0  0  0  0  0  0  0
   10.0134  -13.5612   28.5673 C   0  0  0  0  0  0  0  0  0  0  0  0
   10.8970  -17.5771   24.2307 N   0  0  0  0  0  0  0  0  0  0  0  0
   11.7836  -18.5772   24.7896 C   0  0  0  0  0  0  0  0  0  0  0  0
   11.7605  -19.8010   23.9185 C   0  0  0  0  0  0  0  0  0  0  0  0
   12.1794  -21.0295   24.3722 O   0  0  0  0  0  0  0  0  0  0  0  0
   11.3510  -19.7182   22.7422 O   0  0  0  0  0  0  0  0  0  0  0  0
  2  3  2  0
  2  1  1  0
  4  3  1  0
  5  4  2  0
  6  5  1  0
  7  6  1  0
  7  8  1  6
  9  7  1  0
  9 10  2  0
 11  5  1  0
 11 12  2  0
 12  2  1  0
 13 14  1  0
 14 15  2  0
 15 16  1  0
 17 16  2  0
 17 18  1  0
 19 18  1  1
 19 20  1  0
 20  9  1  0
 21 25  1  0
 21 19  1  0
 22 21  2  0
 23 17  1  0
 24 23  2  0
 24 14  1  0
 26 25  1  0
 27 26  1  0
 28 27  1  0
 29 27  2  0
M  END
$$$$
