RDC.pdb
     RDKit          3D

 26 25  0  0  1  0  0  0  0  0999 V2000
    9.3392  -14.4458   16.3096 N   0  0  0  0  0  0  0  0  0  0  0  0
    8.1188  -13.7710   16.5418 C   0  0  0  0  0  0  0  0  0  0  0  0
    7.0821  -13.9122   15.7848 N   0  0  0  0  0  0  0  0  0  0  0  0
    8.0758  -12.8976   17.6848 N   0  0  0  0  0  0  0  0  0  0  0  0
    8.4500  -13.4756   18.9670 C   0  0  0  0  0  0  0  0  0  0  0  0
    7.2665  -14.2652   19.5007 C   0  0  0  0  0  0  0  0  0  0  0  0
    7.5882  -14.8311   20.8443 C   0  0  0  0  0  0  0  0  0  0  0  0
    8.9954  -14.6001   21.3024 C   0  0  2  0  0  0  0  0  0  0  0  0
    9.9723  -14.8497   20.2734 N   0  0  0  0  0  0  0  0  0  0  0  0
    9.2177  -15.4602   22.5013 C   0  0  0  0  0  0  0  0  0  0  0  0
    8.3100  -15.5186   23.3659 O   0  0  0  0  0  0  0  0  0  0  0  0
    6.2115  -13.3959   16.0120 N   0  0  0  0  0  0  0  0  0  0  0  0
   10.3943  -16.2147   22.7200 C   0  0  1  0  0  0  0  0  0  0  0  0
   10.6615  -16.9777   23.9008 C   0  0  0  0  0  0  0  0  0  0  0  0
   11.8354  -17.9182   23.7406 C   0  0  0  0  0  0  0  0  0  0  0  0
   11.5972  -18.9750   22.7281 O   0  0  0  0  0  0  0  0  0  0  0  0
   12.4242  -19.2962   21.8401 C   0  0  0  0  0  0  0  0  0  0  0  0
   10.9864  -16.1005   25.0745 O   0  0  0  0  0  0  0  0  0  0  0  0
   11.9110  -15.2548   24.9795 O   0  0  0  0  0  0  0  0  0  0  0  0
   10.3900  -19.6567   22.7547 N   0  0  0  0  0  0  0  0  0  0  0  0
   10.2836  -16.1973   26.2829 C   0  0  2  0  0  0  0  0  0  0  0  0
   10.2783  -15.2107   27.3272 C   0  0  0  0  0  0  0  0  0  0  0  0
    9.1587  -14.2333   27.2510 S   0  0  0  0  0  0  0  0  0  0  0  0
    9.3739  -13.0517   28.6348 C   0  0  0  0  0  0  0  0  0  0  0  0
   10.2221  -15.9138   28.6338 O   0  0  0  0  0  0  0  0  0  0  0  0
   10.0177  -17.2917   28.7110 O   0  0  0  0  0  0  0  0  0  0  0  0
  2  1  1  0
  2  4  1  0
  3  2  2  0
  4  5  1  0
  5  6  1  0
  6  7  1  0
  7  8  1  0
  8 10  1  0
  8  9  1  6
 10 11  2  0
 12 13  1  0
 12 10  1  0
 13 17  1  0
 13 14  1  1
 15 19  1  0
 15 14  1  0
 16 15  2  0
 17 18  2  0
 17 20  1  0
 20 21  1  0
 21 24  1  0
 22 23  1  0
 21 22  1  6
 24 26  2  0
 24 25  1  0
M  END
$$$$
