RDC.pdb
     RDKit          3D

 26 25  0  0  1  0  0  0  0  0999 V2000
    6.9514  -15.1624   17.1022 N   0  0  0  0  0  0  0  0  0  0  0  0
    7.7033  -13.9714   16.9806 C   0  0  0  0  0  0  0  0  0  0  0  0
    8.3566  -13.6582   15.9114 N   0  0  0  0  0  0  0  0  0  0  0  0
    7.7127  -13.0987   18.1248 N   0  0  0  0  0  0  0  0  0  0  0  0
    8.4559  -13.5531   19.2907 C   0  0  0  0  0  0  0  0  0  0  0  0
    7.4648  -14.0752   20.3176 C   0  0  0  0  0  0  0  0  0  0  0  0
    8.1892  -14.7353   21.4438 C   0  0  0  0  0  0  0  0  0  0  0  0
    8.9106  -15.9948   21.0741 C   0  0  2  0  0  0  0  0  0  0  0  0
    8.0546  -16.9750   20.4561 N   0  0  0  0  0  0  0  0  0  0  0  0
    9.5513  -16.5188   22.3156 C   0  0  0  0  0  0  0  0  0  0  0  0
    8.8368  -17.1525   23.1298 O   0  0  0  0  0  0  0  0  0  0  0  0
    8.8938  -12.7711   15.8843 N   0  0  0  0  0  0  0  0  0  0  0  0
   10.9197  -16.3424   22.6284 C   0  0  2  0  0  0  0  0  0  0  0  0
   11.5484  -16.8232   23.8206 C   0  0  0  0  0  0  0  0  0  0  0  0
   13.0292  -17.0767   23.6440 C   0  0  0  0  0  0  0  0  0  0  0  0
   13.3179  -18.2334   22.7623 O   0  0  0  0  0  0  0  0  0  0  0  0
   12.4700  -19.1025   22.4436 C   0  0  0  0  0  0  0  0  0  0  0  0
   11.4242  -15.8469   24.9537 O   0  0  0  0  0  0  0  0  0  0  0  0
   11.4641  -14.6134   24.7167 O   0  0  0  0  0  0  0  0  0  0  0  0
   14.5999  -18.3733   22.2529 N   0  0  0  0  0  0  0  0  0  0  0  0
   11.2636  -16.2733   26.2789 C   0  0  1  0  0  0  0  0  0  0  0  0
   10.8367  -15.4491   27.3754 C   0  0  0  0  0  0  0  0  0  0  0  0
    9.5696  -14.7063   27.1359 S   0  0  0  0  0  0  0  0  0  0  0  0
    9.6907  -13.1189   28.0430 C   0  0  0  0  0  0  0  0  0  0  0  0
   10.6757  -16.3118   28.5731 O   0  0  0  0  0  0  0  0  0  0  0  0
   10.7133  -15.7812   29.8629 O   0  0  0  0  0  0  0  0  0  0  0  0
  2  1  1  0
  2  4  1  0
  3  2  2  0
  4  5  1  0
  5  6  1  0
  6  7  1  0
  7  8  1  0
  8 10  1  0
  8  9  1  1
 10 11  2  0
 12 13  1  0
 12 10  1  0
 13 17  1  0
 13 14  1  1
 15 19  1  0
 15 14  1  0
 16 15  2  0
 17 18  2  0
 17 20  1  0
 20 21  1  0
 21 24  1  0
 22 23  1  0
 21 22  1  1
 24 26  2  0
 24 25  1  0
M  END
$$$$
