RDC.pdb
     RDKit          3D

 26 25  0  0  1  0  0  0  0  0999 V2000
    8.2149  -13.1190   18.8341 N   0  0  0  0  0  0  0  0  0  0  0  0
    7.4419  -13.1436   17.6506 C   0  0  0  0  0  0  0  0  0  0  0  0
    6.3205  -12.5144   17.5299 N   0  0  0  0  0  0  0  0  0  0  0  0
    7.9672  -13.9174   16.5569 N   0  0  0  0  0  0  0  0  0  0  0  0
    9.2117  -14.6328   16.7972 C   0  0  0  0  0  0  0  0  0  0  0  0
    8.8789  -15.9766   17.4238 C   0  0  0  0  0  0  0  0  0  0  0  0
   10.1309  -16.7447   17.6913 C   0  0  0  0  0  0  0  0  0  0  0  0
   10.2706  -17.2489   19.0947 C   0  0  2  0  0  0  0  0  0  0  0  0
    9.3167  -16.6642   20.0023 N   0  0  0  0  0  0  0  0  0  0  0  0
   11.6766  -16.9884   19.5209 C   0  0  0  0  0  0  0  0  0  0  0  0
   12.6050  -17.4892   18.8412 O   0  0  0  0  0  0  0  0  0  0  0  0
    5.7879  -12.5886   16.6427 N   0  0  0  0  0  0  0  0  0  0  0  0
   12.0241  -16.2081   20.6488 C   0  0  2  0  0  0  0  0  0  0  0  0
   13.3587  -16.0327   21.1344 C   0  0  0  0  0  0  0  0  0  0  0  0
   13.9557  -14.6982   20.7460 C   0  0  0  0  0  0  0  0  0  0  0  0
   14.4150  -14.6570   19.3368 O   0  0  0  0  0  0  0  0  0  0  0  0
   14.0724  -13.7750   18.5119 C   0  0  0  0  0  0  0  0  0  0  0  0
   13.4244  -16.0994   22.6324 O   0  0  0  0  0  0  0  0  0  0  0  0
   13.0192  -15.1251   23.3148 O   0  0  0  0  0  0  0  0  0  0  0  0
   15.2760  -15.6488   18.8922 N   0  0  0  0  0  0  0  0  0  0  0  0
   13.9281  -17.2250   23.2980 C   0  0  1  0  0  0  0  0  0  0  0  0
   13.5584  -17.6482   24.6201 C   0  0  0  0  0  0  0  0  0  0  0  0
   12.1089  -17.9353   24.7965 S   0  0  0  0  0  0  0  0  0  0  0  0
   11.8417  -18.3131   26.5695 C   0  0  0  0  0  0  0  0  0  0  0  0
   14.3397  -18.8651   24.9567 O   0  0  0  0  0  0  0  0  0  0  0  0
   15.0546  -18.9644   26.1506 O   0  0  0  0  0  0  0  0  0  0  0  0
  2  1  1  0
  2  4  1  0
  3  2  2  0
  4  5  1  0
  5  6  1  0
  6  7  1  0
  7  8  1  0
  8 10  1  0
  8  9  1  1
 10 11  2  0
 12 13  1  0
 12 10  1  0
 13 17  1  0
 13 14  1  6
 15 19  1  0
 15 14  1  0
 16 15  2  0
 17 18  2  0
 17 20  1  0
 20 21  1  0
 21 24  1  0
 22 23  1  0
 21 22  1  1
 24 26  2  0
 24 25  1  0
M  END
$$$$
