RDC.pdb
     RDKit          3D

 26 25  0  0  1  0  0  0  0  0999 V2000
    9.0645  -15.0284   17.9647 N   0  0  0  0  0  0  0  0  0  0  0  0
    8.5469  -13.8586   17.3629 C   0  0  0  0  0  0  0  0  0  0  0  0
    8.4444  -13.7120   16.0838 N   0  0  0  0  0  0  0  0  0  0  0  0
    8.1276  -12.8097   18.2546 N   0  0  0  0  0  0  0  0  0  0  0  0
    8.4301  -12.9889   19.6669 C   0  0  0  0  0  0  0  0  0  0  0  0
    7.2804  -13.7453   20.3112 C   0  0  0  0  0  0  0  0  0  0  0  0
    7.7200  -14.3465   21.6052 C   0  0  0  0  0  0  0  0  0  0  0  0
    8.4723  -15.6351   21.4756 C   0  0  2  0  0  0  0  0  0  0  0  0
    7.9910  -16.4641   20.4001 N   0  0  0  0  0  0  0  0  0  0  0  0
    8.3908  -16.3300   22.7934 C   0  0  0  0  0  0  0  0  0  0  0  0
    7.6481  -17.3372   22.8880 O   0  0  0  0  0  0  0  0  0  0  0  0
    8.1036  -12.8104   15.7002 N   0  0  0  0  0  0  0  0  0  0  0  0
    9.1032  -15.9184   23.9443 C   0  0  2  0  0  0  0  0  0  0  0  0
    9.7307  -16.8091   24.8722 C   0  0  0  0  0  0  0  0  0  0  0  0
   10.7519  -17.7146   24.2201 C   0  0  0  0  0  0  0  0  0  0  0  0
   11.4295  -18.6135   25.1852 O   0  0  0  0  0  0  0  0  0  0  0  0
   10.9264  -18.9814   26.2749 C   0  0  0  0  0  0  0  0  0  0  0  0
   10.4601  -16.0690   25.9552 O   0  0  0  0  0  0  0  0  0  0  0  0
   11.2333  -16.6958   26.7222 O   0  0  0  0  0  0  0  0  0  0  0  0
   12.6970  -19.0824   24.8752 N   0  0  0  0  0  0  0  0  0  0  0  0
   10.3031  -14.6885   26.1380 C   0  0  2  0  0  0  0  0  0  0  0  0
    9.6655  -14.0624   27.2629 C   0  0  0  0  0  0  0  0  0  0  0  0
    8.1834  -13.9724   27.1645 S   0  0  0  0  0  0  0  0  0  0  0  0
    7.7988  -12.6946   25.9088 C   0  0  0  0  0  0  0  0  0  0  0  0
   10.0265  -14.8217   28.4867 O   0  0  0  0  0  0  0  0  0  0  0  0
   10.4341  -14.1728   29.6525 O   0  0  0  0  0  0  0  0  0  0  0  0
  2  1  1  0
  2  4  1  0
  3  2  2  0
  4  5  1  0
  5  6  1  0
  6  7  1  0
  7  8  1  0
  8 10  1  0
  8  9  1  6
 10 11  2  0
 12 13  1  0
 12 10  1  0
 13 17  1  0
 13 14  1  6
 15 19  1  0
 15 14  1  0
 16 15  2  0
 17 18  2  0
 17 20  1  0
 20 21  1  0
 21 24  1  0
 22 23  1  0
 21 22  1  6
 24 26  2  0
 24 25  1  0
M  END
$$$$
