RDC.pdb
     RDKit          3D

 26 25  0  0  1  0  0  0  0  0999 V2000
    7.5390  -15.2430   16.3266 N   0  0  0  0  0  0  0  0  0  0  0  0
    8.0892  -14.0038   15.9263 C   0  0  0  0  0  0  0  0  0  0  0  0
    8.1834  -13.6427   14.6899 N   0  0  0  0  0  0  0  0  0  0  0  0
    8.5525  -13.1376   16.9779 N   0  0  0  0  0  0  0  0  0  0  0  0
    8.8692  -13.7643   18.2527 C   0  0  0  0  0  0  0  0  0  0  0  0
    7.6065  -13.7977   19.0975 C   0  0  0  0  0  0  0  0  0  0  0  0
    7.8466  -14.5691   20.3529 C   0  0  0  0  0  0  0  0  0  0  0  0
    9.0908  -14.1891   21.0953 C   0  0  2  0  0  0  0  0  0  0  0  0
   10.2409  -14.0546   20.2381 N   0  0  0  0  0  0  0  0  0  0  0  0
    9.3045  -15.2162   22.1563 C   0  0  0  0  0  0  0  0  0  0  0  0
    8.3123  -15.5919   22.8267 O   0  0  0  0  0  0  0  0  0  0  0  0
    8.5595  -12.7034   14.4608 N   0  0  0  0  0  0  0  0  0  0  0  0
   10.5629  -15.7918   22.4509 C   0  0  1  0  0  0  0  0  0  0  0  0
   10.8219  -16.6497   23.5666 C   0  0  0  0  0  0  0  0  0  0  0  0
   12.0453  -17.5174   23.3702 C   0  0  0  0  0  0  0  0  0  0  0  0
   11.8710  -18.5317   22.3027 O   0  0  0  0  0  0  0  0  0  0  0  0
   10.7988  -18.7146   21.6759 C   0  0  0  0  0  0  0  0  0  0  0  0
   11.0591  -15.8731   24.8288 O   0  0  0  0  0  0  0  0  0  0  0  0
   11.6770  -14.7801   24.7775 O   0  0  0  0  0  0  0  0  0  0  0  0
   12.9521  -19.3328   21.9683 N   0  0  0  0  0  0  0  0  0  0  0  0
   10.6082  -16.3343   26.0728 C   0  0  1  0  0  0  0  0  0  0  0  0
   10.5327  -15.5527   27.2758 C   0  0  0  0  0  0  0  0  0  0  0  0
    9.5013  -14.4802   27.2545 S   0  0  0  0  0  0  0  0  0  0  0  0
    9.6677  -13.5351   28.8154 C   0  0  0  0  0  0  0  0  0  0  0  0
   10.2583  -16.4687   28.4117 O   0  0  0  0  0  0  0  0  0  0  0  0
   10.7564  -16.2136   29.6896 O   0  0  0  0  0  0  0  0  0  0  0  0
  2  1  1  0
  2  4  1  0
  3  2  2  0
  4  5  1  0
  5  6  1  0
  6  7  1  0
  7  8  1  0
  8 10  1  0
  8  9  1  6
 10 11  2  0
 12 13  1  0
 12 10  1  0
 13 17  1  0
 13 14  1  1
 15 19  1  0
 15 14  1  0
 16 15  2  0
 17 18  2  0
 17 20  1  0
 20 21  1  0
 21 24  1  0
 22 23  1  0
 21 22  1  1
 24 26  2  0
 24 25  1  0
M  END
$$$$
