RDC.pdb
     RDKit          3D

 26 25  0  0  1  0  0  0  0  0999 V2000
    7.5311  -11.5429   21.8442 N   0  0  0  0  0  0  0  0  0  0  0  0
    7.5170  -12.4345   20.7472 C   0  0  0  0  0  0  0  0  0  0  0  0
    7.4194  -12.0398   19.5214 N   0  0  0  0  0  0  0  0  0  0  0  0
    7.6183  -13.8360   21.0579 N   0  0  0  0  0  0  0  0  0  0  0  0
    7.2733  -14.7701   19.9966 C   0  0  0  0  0  0  0  0  0  0  0  0
    8.5362  -15.5004   19.5713 C   0  0  0  0  0  0  0  0  0  0  0  0
    9.1619  -16.1754   20.7468 C   0  0  0  0  0  0  0  0  0  0  0  0
    9.7637  -17.5155   20.4546 C   0  0  2  0  0  0  0  0  0  0  0  0
    8.7865  -18.5013   20.0689 N   0  0  0  0  0  0  0  0  0  0  0  0
   10.5262  -17.9324   21.6674 C   0  0  0  0  0  0  0  0  0  0  0  0
   10.0006  -18.7706   22.4395 O   0  0  0  0  0  0  0  0  0  0  0  0
    7.4358  -12.7416   18.7576 N   0  0  0  0  0  0  0  0  0  0  0  0
   11.8094  -17.4368   21.9979 C   0  0  2  0  0  0  0  0  0  0  0  0
   12.5751  -17.8577   23.1313 C   0  0  0  0  0  0  0  0  0  0  0  0
   14.0587  -17.6158   22.9619 C   0  0  0  0  0  0  0  0  0  0  0  0
   14.8717  -18.2203   24.0446 O   0  0  0  0  0  0  0  0  0  0  0  0
   14.4922  -19.1848   24.7529 C   0  0  0  0  0  0  0  0  0  0  0  0
   12.1736  -17.1308   24.3814 O   0  0  0  0  0  0  0  0  0  0  0  0
   12.6092  -15.9710   24.5914 O   0  0  0  0  0  0  0  0  0  0  0  0
   16.1298  -17.6959   24.2989 N   0  0  0  0  0  0  0  0  0  0  0  0
   11.3203  -17.7118   25.3291 C   0  0  1  0  0  0  0  0  0  0  0  0
   10.8728  -17.0879   26.5433 C   0  0  0  0  0  0  0  0  0  0  0  0
    9.4277  -16.7329   26.5618 S   0  0  0  0  0  0  0  0  0  0  0  0
    9.1352  -15.5738   25.1732 C   0  0  0  0  0  0  0  0  0  0  0  0
   11.1627  -18.0053   27.6743 O   0  0  0  0  0  0  0  0  0  0  0  0
   10.9631  -17.6143   28.9985 O   0  0  0  0  0  0  0  0  0  0  0  0
  2  1  1  0
  2  4  1  0
  3  2  2  0
  4  5  1  0
  5  6  1  0
  6  7  1  0
  7  8  1  0
  8 10  1  0
  8  9  1  1
 10 11  2  0
 12 13  1  0
 12 10  1  0
 13 17  1  0
 13 14  1  6
 15 19  1  0
 15 14  1  0
 16 15  2  0
 17 18  2  0
 17 20  1  0
 20 21  1  0
 21 24  1  0
 22 23  1  0
 21 22  1  1
 24 26  2  0
 24 25  1  0
M  END
$$$$
