ASK.pdb
     RDKit          3D

 21 20  0  0  1  0  0  0  0  0999 V2000
   16.8002  -13.9557  -14.3622 C   0  0  0  0  0  0  0  0  0  0  0  0
   15.7760  -13.2215  -15.2247 C   0  0  2  0  0  0  0  0  0  0  0  0
   15.3274  -14.1353  -16.2359 N   0  0  0  0  0  0  0  0  0  0  0  0
   16.4746  -12.0427  -15.7927 C   0  0  0  0  0  0  0  0  0  0  0  0
   17.2552  -12.2204  -16.7506 O   0  0  0  0  0  0  0  0  0  0  0  0
   15.7240   -8.3101  -14.1979 O   0  0  0  0  0  0  0  0  0  0  0  0
   16.0417   -8.3770  -15.5518 C   0  0  0  0  0  0  0  0  0  0  0  0
   16.9151   -9.5648  -15.8747 C   0  0  2  0  0  0  0  0  0  0  0  0
   16.2887  -10.7346  -15.2908 N   0  0  0  0  0  0  0  0  0  0  0  0
   18.2465   -9.3136  -15.2174 C   0  0  0  0  0  0  0  0  0  0  0  0
   18.4666   -9.7673  -14.0731 O   0  0  0  0  0  0  0  0  0  0  0  0
   19.2285   -8.5728  -15.8942 N   0  0  0  0  0  0  0  0  0  0  0  0
   20.6058   -8.3888  -15.2710 C   0  0  1  0  0  0  0  0  0  0  0  0
   21.4812   -8.3357  -16.4595 C   0  0  0  0  0  0  0  0  0  0  0  0
   22.7586   -9.0048  -16.5795 C   0  0  0  0  0  0  0  0  0  0  0  0
   23.4559   -8.8874  -17.8893 C   0  0  0  0  0  0  0  0  0  0  0  0
   24.8200   -9.6173  -17.8331 C   0  0  0  0  0  0  0  0  0  0  0  0
   25.3613   -9.6533  -19.1657 N   0  0  0  0  0  0  0  0  0  0  0  0
   20.4230   -7.1551  -14.4860 C   0  0  0  0  0  0  0  0  0  0  0  0
   19.4612   -6.3721  -14.8106 O   0  0  0  0  0  0  0  0  0  0  0  0
   21.1572   -6.7138  -13.4171 O   0  0  0  0  0  0  0  0  0  0  0  0
  2  1  1  1
  2  4  1  0
  3  2  1  0
  4  5  2  0
  8  7  1  1
  7  6  1  0
  8 10  1  0
  9  4  1  0
  9  8  1  0
 10 11  2  0
 12 10  1  0
 12 13  1  0
 13 19  1  0
 14 15  1  0
 13 14  1  6
 16 15  1  0
 17 18  1  0
 17 16  1  0
 19 21  1  0
 20 19  2  0
M  END
$$$$
