ASK.pdb
     RDKit          3D

 21 20  0  0  1  0  0  0  0  0999 V2000
   28.2327  -22.5684  -20.7902 C   0  0  0  0  0  0  0  0  0  0  0  0
   27.5150  -23.9121  -20.8948 C   0  0  2  0  0  0  0  0  0  0  0  0
   26.1223  -23.6799  -20.6393 N   0  0  0  0  0  0  0  0  0  0  0  0
   28.1385  -24.8001  -19.8832 C   0  0  0  0  0  0  0  0  0  0  0  0
   29.3481  -25.0828  -20.0072 O   0  0  0  0  0  0  0  0  0  0  0  0
   27.8553  -26.7168  -15.4557 O   0  0  0  0  0  0  0  0  0  0  0  0
   27.3583  -25.9152  -16.4798 C   0  0  0  0  0  0  0  0  0  0  0  0
   28.0054  -26.2209  -17.8086 C   0  0  2  0  0  0  0  0  0  0  0  0
   27.4161  -25.3333  -18.7918 N   0  0  0  0  0  0  0  0  0  0  0  0
   27.6636  -27.6501  -18.1371 C   0  0  0  0  0  0  0  0  0  0  0  0
   26.5855  -27.9111  -18.7146 O   0  0  0  0  0  0  0  0  0  0  0  0
   28.5572  -28.6768  -17.7926 N   0  0  0  0  0  0  0  0  0  0  0  0
   28.2268  -30.1215  -18.1432 C   0  0  1  0  0  0  0  0  0  0  0  0
   29.5494  -30.7733  -18.0579 C   0  0  0  0  0  0  0  0  0  0  0  0
   29.8470  -32.1102  -18.5247 C   0  0  0  0  0  0  0  0  0  0  0  0
   31.2428  -32.5911  -18.3341 C   0  0  0  0  0  0  0  0  0  0  0  0
   31.3994  -34.0155  -18.9200 C   0  0  0  0  0  0  0  0  0  0  0  0
   32.7625  -34.4313  -18.7222 N   0  0  0  0  0  0  0  0  0  0  0  0
   27.2177  -30.4595  -17.1239 C   0  0  0  0  0  0  0  0  0  0  0  0
   27.3370  -29.9333  -15.9610 O   0  0  0  0  0  0  0  0  0  0  0  0
   26.1282  -31.2804  -17.2489 O   0  0  0  0  0  0  0  0  0  0  0  0
  2  1  1  1
  2  4  1  0
  3  2  1  0
  4  5  2  0
  8  7  1  1
  7  6  1  0
  8 10  1  0
  9  4  1  0
  9  8  1  0
 10 11  2  0
 12 10  1  0
 12 13  1  0
 13 19  1  0
 14 15  1  0
 13 14  1  1
 16 15  1  0
 17 18  1  0
 17 16  1  0
 19 21  1  0
 20 19  2  0
M  END
$$$$
