ASK.pdb
     RDKit          3D

 21 20  0  0  1  0  0  0  0  0999 V2000
   19.1759  -11.3224  -18.8231 C   0  0  0  0  0  0  0  0  0  0  0  0
   20.3248  -11.1948  -17.8254 C   0  0  2  0  0  0  0  0  0  0  0  0
   20.6516  -12.5158  -17.3704 N   0  0  0  0  0  0  0  0  0  0  0  0
   19.8345  -10.3214  -16.7312 C   0  0  0  0  0  0  0  0  0  0  0  0
   18.7637  -10.6239  -16.1654 O   0  0  0  0  0  0  0  0  0  0  0  0
   21.3534   -8.6203  -13.2432 O   0  0  0  0  0  0  0  0  0  0  0  0
   21.2606   -7.8955  -14.4283 C   0  0  0  0  0  0  0  0  0  0  0  0
   20.0603   -8.2975  -15.2502 C   0  0  2  0  0  0  0  0  0  0  0  0
   20.5324   -9.1668  -16.3100 N   0  0  0  0  0  0  0  0  0  0  0  0
   19.4957   -7.0314  -15.8382 C   0  0  0  0  0  0  0  0  0  0  0  0
   19.9932   -6.5598  -16.8842 O   0  0  0  0  0  0  0  0  0  0  0  0
   18.4165   -6.3916  -15.2080 N   0  0  0  0  0  0  0  0  0  0  0  0
   17.8699   -5.0878  -15.7742 C   0  0  1  0  0  0  0  0  0  0  0  0
   16.4901   -5.0734  -15.2474 C   0  0  0  0  0  0  0  0  0  0  0  0
   15.6069   -3.9273  -15.2662 C   0  0  0  0  0  0  0  0  0  0  0  0
   14.2394   -4.1263  -14.7128 C   0  0  0  0  0  0  0  0  0  0  0  0
   13.4186   -2.8199  -14.8404 C   0  0  0  0  0  0  0  0  0  0  0  0
   12.1432   -3.0315  -14.2091 N   0  0  0  0  0  0  0  0  0  0  0  0
   18.8270   -4.1004  -15.2447 C   0  0  0  0  0  0  0  0  0  0  0  0
   18.8616   -2.9418  -15.7924 O   0  0  0  0  0  0  0  0  0  0  0  0
   19.7120   -4.2480  -14.2096 O   0  0  0  0  0  0  0  0  0  0  0  0
  2  1  1  6
  2  4  1  0
  3  2  1  0
  4  5  2  0
  8  7  1  1
  7  6  1  0
  8 10  1  0
  9  4  1  0
  9  8  1  0
 10 11  2  0
 12 10  1  0
 12 13  1  0
 13 19  1  0
 14 15  1  0
 13 14  1  1
 16 15  1  0
 17 18  1  0
 17 16  1  0
 19 21  1  0
 20 19  2  0
M  END
$$$$
