ASK.pdb
     RDKit          3D

 21 20  0  0  1  0  0  0  0  0999 V2000
   19.0920  -11.5122  -18.5923 C   0  0  0  0  0  0  0  0  0  0  0  0
   20.3557  -12.0838  -17.9535 C   0  0  2  0  0  0  0  0  0  0  0  0
   20.1076  -13.4675  -17.6662 N   0  0  0  0  0  0  0  0  0  0  0  0
   20.6045  -11.2844  -16.7289 C   0  0  0  0  0  0  0  0  0  0  0  0
   19.6491  -11.0742  -15.9535 O   0  0  0  0  0  0  0  0  0  0  0  0
   24.4569  -10.1071  -15.8015 O   0  0  0  0  0  0  0  0  0  0  0  0
   23.5171  -10.1865  -14.7774 C   0  0  0  0  0  0  0  0  0  0  0  0
   22.1172   -9.9028  -15.2647 C   0  0  2  0  0  0  0  0  0  0  0  0
   21.8765  -10.7562  -16.4117 N   0  0  0  0  0  0  0  0  0  0  0  0
   22.0908   -8.4573  -15.6859 C   0  0  0  0  0  0  0  0  0  0  0  0
   22.4773   -8.1401  -16.8322 O   0  0  0  0  0  0  0  0  0  0  0  0
   21.6332   -7.4788  -14.7891 N   0  0  0  0  0  0  0  0  0  0  0  0
   21.6337   -6.0122  -15.1991 C   0  0  1  0  0  0  0  0  0  0  0  0
   20.2006   -5.7582  -15.4504 C   0  0  0  0  0  0  0  0  0  0  0  0
   19.6797   -4.9195  -16.5083 C   0  0  0  0  0  0  0  0  0  0  0  0
   18.1987   -4.8512  -16.6413 C   0  0  0  0  0  0  0  0  0  0  0  0
   17.8144   -4.0118  -17.8840 C   0  0  0  0  0  0  0  0  0  0  0  0
   16.3844   -4.0666  -18.0339 N   0  0  0  0  0  0  0  0  0  0  0  0
   22.2597   -5.3691  -14.0304 C   0  0  0  0  0  0  0  0  0  0  0  0
   22.2828   -6.0195  -12.9259 O   0  0  0  0  0  0  0  0  0  0  0  0
   22.8468   -4.1337  -13.9556 O   0  0  0  0  0  0  0  0  0  0  0  0
  2  1  1  1
  2  4  1  0
  3  2  1  0
  4  5  2  0
  8  7  1  6
  7  6  1  0
  8 10  1  0
  9  4  1  0
  9  8  1  0
 10 11  2  0
 12 10  1  0
 12 13  1  0
 13 19  1  0
 14 15  1  0
 13 14  1  1
 16 15  1  0
 17 18  1  0
 17 16  1  0
 19 21  1  0
 20 19  2  0
M  END
$$$$
