ASK.pdb
     RDKit          3D

 21 20  0  0  1  0  0  0  0  0999 V2000
   18.3449  -10.5310  -18.0888 C   0  0  0  0  0  0  0  0  0  0  0  0
   19.1984  -11.4052  -17.1727 C   0  0  2  0  0  0  0  0  0  0  0  0
   18.3564  -12.4495  -16.6635 N   0  0  0  0  0  0  0  0  0  0  0  0
   19.7110  -10.5151  -16.1025 C   0  0  0  0  0  0  0  0  0  0  0  0
   18.8899   -9.8378  -15.4504 O   0  0  0  0  0  0  0  0  0  0  0  0
   23.7784  -10.2819  -15.4770 O   0  0  0  0  0  0  0  0  0  0  0  0
   22.9652  -10.0804  -14.3650 C   0  0  0  0  0  0  0  0  0  0  0  0
   21.6014   -9.5561  -14.7433 C   0  0  2  0  0  0  0  0  0  0  0  0
   21.0869  -10.4080  -15.7975 N   0  0  0  0  0  0  0  0  0  0  0  0
   21.8055   -8.1588  -15.2663 C   0  0  0  0  0  0  0  0  0  0  0  0
   22.0185   -7.9798  -16.4855 O   0  0  0  0  0  0  0  0  0  0  0  0
   21.7548   -7.0697  -14.3816 N   0  0  0  0  0  0  0  0  0  0  0  0
   21.8787   -5.6494  -14.9167 C   0  0  1  0  0  0  0  0  0  0  0  0
   20.4911   -5.3469  -15.3222 C   0  0  0  0  0  0  0  0  0  0  0  0
   20.0441   -4.0860  -15.8740 C   0  0  0  0  0  0  0  0  0  0  0  0
   18.6033   -3.9854  -16.2338 C   0  0  0  0  0  0  0  0  0  0  0  0
   18.3226   -2.6326  -16.9323 C   0  0  0  0  0  0  0  0  0  0  0  0
   16.9307   -2.5988  -17.2952 N   0  0  0  0  0  0  0  0  0  0  0  0
   22.4358   -4.9335  -13.7554 C   0  0  0  0  0  0  0  0  0  0  0  0
   22.3705   -5.5034  -12.6089 O   0  0  0  0  0  0  0  0  0  0  0  0
   23.0405   -3.7047  -13.7271 O   0  0  0  0  0  0  0  0  0  0  0  0
  2  1  1  6
  2  4  1  0
  3  2  1  0
  4  5  2  0
  8  7  1  6
  7  6  1  0
  8 10  1  0
  9  4  1  0
  9  8  1  0
 10 11  2  0
 12 10  1  0
 12 13  1  0
 13 19  1  0
 14 15  1  0
 13 14  1  1
 16 15  1  0
 17 18  1  0
 17 16  1  0
 19 21  1  0
 20 19  2  0
M  END
$$$$
