ASK.pdb
     RDKit          3D

 21 20  0  0  1  0  0  0  0  0999 V2000
   27.6268  -18.9472  -15.4636 C   0  0  0  0  0  0  0  0  0  0  0  0
   28.0055  -20.2215  -14.7122 C   0  0  2  0  0  0  0  0  0  0  0  0
   28.6479  -21.1004  -15.6469 N   0  0  0  0  0  0  0  0  0  0  0  0
   26.7412  -20.7845  -14.1784 C   0  0  0  0  0  0  0  0  0  0  0  0
   25.9022  -21.2308  -14.9879 O   0  0  0  0  0  0  0  0  0  0  0  0
   25.6669  -20.1564  -10.2372 O   0  0  0  0  0  0  0  0  0  0  0  0
   25.3666  -21.4137  -10.7544 C   0  0  0  0  0  0  0  0  0  0  0  0
   25.2318  -21.3948  -12.2575 C   0  0  2  0  0  0  0  0  0  0  0  0
   26.4554  -20.8331  -12.7951 N   0  0  0  0  0  0  0  0  0  0  0  0
   24.0694  -20.4921  -12.5759 C   0  0  0  0  0  0  0  0  0  0  0  0
   24.2336  -19.2524  -12.5853 O   0  0  0  0  0  0  0  0  0  0  0  0
   22.8121  -21.0491  -12.8592 N   0  0  0  0  0  0  0  0  0  0  0  0
   21.6406  -20.1420  -13.2107 C   0  0  1  0  0  0  0  0  0  0  0  0
   21.4280  -20.4470  -14.6401 C   0  0  0  0  0  0  0  0  0  0  0  0
   20.3108  -19.9779  -15.4312 C   0  0  0  0  0  0  0  0  0  0  0  0
   20.5451  -18.7727  -16.2727 C   0  0  0  0  0  0  0  0  0  0  0  0
   19.2218  -18.3235  -16.9388 C   0  0  0  0  0  0  0  0  0  0  0  0
   19.4634  -17.0758  -17.6132 N   0  0  0  0  0  0  0  0  0  0  0  0
   20.6160  -20.5796  -12.2461 C   0  0  0  0  0  0  0  0  0  0  0  0
   20.6986  -21.7706  -11.7790 O   0  0  0  0  0  0  0  0  0  0  0  0
   19.5538  -19.8670  -11.7558 O   0  0  0  0  0  0  0  0  0  0  0  0
  2  1  1  6
  2  4  1  0
  3  2  1  0
  4  5  2  0
  8  7  1  1
  7  6  1  0
  8 10  1  0
  9  4  1  0
  9  8  1  0
 10 11  2  0
 12 10  1  0
 12 13  1  0
 13 19  1  0
 14 15  1  0
 13 14  1  6
 16 15  1  0
 17 18  1  0
 17 16  1  0
 19 21  1  0
 20 19  2  0
M  END
$$$$
