ASK.pdb
     RDKit          3D

 21 20  0  0  1  0  0  0  0  0999 V2000
   19.0600  -14.6163  -15.4389 C   0  0  0  0  0  0  0  0  0  0  0  0
   17.7018  -14.0161  -15.7946 C   0  0  2  0  0  0  0  0  0  0  0  0
   17.1376  -14.8143  -16.8450 N   0  0  0  0  0  0  0  0  0  0  0  0
   17.9596  -12.6181  -16.2185 C   0  0  0  0  0  0  0  0  0  0  0  0
   18.6984  -12.4243  -17.2058 O   0  0  0  0  0  0  0  0  0  0  0  0
   16.5499   -9.4666  -13.9263 O   0  0  0  0  0  0  0  0  0  0  0  0
   16.5279   -9.2999  -15.3084 C   0  0  0  0  0  0  0  0  0  0  0  0
   17.5737  -10.1393  -16.0009 C   0  0  2  0  0  0  0  0  0  0  0  0
   17.4018  -11.5058  -15.5482 N   0  0  0  0  0  0  0  0  0  0  0  0
   18.9132   -9.6155  -15.5547 C   0  0  0  0  0  0  0  0  0  0  0  0
   19.4831  -10.1341  -14.5697 O   0  0  0  0  0  0  0  0  0  0  0  0
   19.5104   -8.5503  -16.2475 N   0  0  0  0  0  0  0  0  0  0  0  0
   20.9348   -8.1289  -15.9121 C   0  0  1  0  0  0  0  0  0  0  0  0
   21.4209   -7.6138  -17.2081 C   0  0  0  0  0  0  0  0  0  0  0  0
   22.6769   -6.9236  -17.4082 C   0  0  0  0  0  0  0  0  0  0  0  0
   23.0598   -6.6235  -18.8149 C   0  0  0  0  0  0  0  0  0  0  0  0
   24.5094   -6.0828  -18.8680 C   0  0  0  0  0  0  0  0  0  0  0  0
   24.7470   -5.5738  -20.1926 N   0  0  0  0  0  0  0  0  0  0  0  0
   20.7182   -7.1659  -14.8178 C   0  0  0  0  0  0  0  0  0  0  0  0
   19.5860   -6.5676  -14.7578 O   0  0  0  0  0  0  0  0  0  0  0  0
   21.5834   -6.8115  -13.8167 O   0  0  0  0  0  0  0  0  0  0  0  0
  2  1  1  6
  2  4  1  0
  3  2  1  0
  4  5  2  0
  8  7  1  1
  7  6  1  0
  8 10  1  0
  9  4  1  0
  9  8  1  0
 10 11  2  0
 12 10  1  0
 12 13  1  0
 13 19  1  0
 14 15  1  0
 13 14  1  6
 16 15  1  0
 17 18  1  0
 17 16  1  0
 19 21  1  0
 20 19  2  0
M  END
$$$$
