ASK.pdb
     RDKit          3D

 21 20  0  0  1  0  0  0  0  0999 V2000
   11.5980  -11.7789  -11.9414 C   0  0  0  0  0  0  0  0  0  0  0  0
   12.6052  -11.6010  -13.0753 C   0  0  2  0  0  0  0  0  0  0  0  0
   13.3427  -12.8259  -13.1952 N   0  0  0  0  0  0  0  0  0  0  0  0
   13.4656  -10.4539  -12.6953 C   0  0  0  0  0  0  0  0  0  0  0  0
   12.9299   -9.3377  -12.5361 O   0  0  0  0  0  0  0  0  0  0  0  0
   16.9643  -10.5117  -10.4038 O   0  0  0  0  0  0  0  0  0  0  0  0
   17.0377  -10.0267  -11.7067 C   0  0  0  0  0  0  0  0  0  0  0  0
   15.7210   -9.4602  -12.1794 C   0  0  2  0  0  0  0  0  0  0  0  0
   14.8609  -10.5798  -12.5086 N   0  0  0  0  0  0  0  0  0  0  0  0
   16.0160   -8.6577  -13.4190 C   0  0  0  0  0  0  0  0  0  0  0  0
   16.2098   -9.2464  -14.5051 O   0  0  0  0  0  0  0  0  0  0  0  0
   16.0708   -7.2567  -13.3450 N   0  0  0  0  0  0  0  0  0  0  0  0
   16.3357   -6.4390  -14.6021 C   0  0  1  0  0  0  0  0  0  0  0  0
   15.3758   -5.3258  -14.4580 C   0  0  0  0  0  0  0  0  0  0  0  0
   15.4060   -4.0996  -15.2258 C   0  0  0  0  0  0  0  0  0  0  0  0
   14.3745   -3.0780  -14.8973 C   0  0  0  0  0  0  0  0  0  0  0  0
   14.5146   -1.8583  -15.8404 C   0  0  0  0  0  0  0  0  0  0  0  0
   13.4869   -0.9108  -15.4991 N   0  0  0  0  0  0  0  0  0  0  0  0
   17.7729   -6.1394  -14.4738 C   0  0  0  0  0  0  0  0  0  0  0  0
   18.3698   -5.6121  -15.4783 O   0  0  0  0  0  0  0  0  0  0  0  0
   18.5888   -6.3459  -13.3931 O   0  0  0  0  0  0  0  0  0  0  0  0
  2  1  1  1
  2  4  1  0
  3  2  1  0
  4  5  2  0
  8  7  1  6
  7  6  1  0
  8 10  1  0
  9  4  1  0
  9  8  1  0
 10 11  2  0
 12 10  1  0
 12 13  1  0
 13 19  1  0
 14 15  1  0
 13 14  1  1
 16 15  1  0
 17 18  1  0
 17 16  1  0
 19 21  1  0
 20 19  2  0
M  END
$$$$
