ASK.pdb
     RDKit          3D

 21 20  0  0  1  0  0  0  0  0999 V2000
   23.7678  -35.3319   -4.8298 C   0  0  0  0  0  0  0  0  0  0  0  0
   24.1056  -33.8428   -4.8183 C   0  0  2  0  0  0  0  0  0  0  0  0
   22.8881  -33.1248   -4.5712 N   0  0  0  0  0  0  0  0  0  0  0  0
   24.6878  -33.5349   -6.1475 C   0  0  0  0  0  0  0  0  0  0  0  0
   23.9124  -33.2450   -7.0819 O   0  0  0  0  0  0  0  0  0  0  0  0
   28.6561  -34.4932   -7.1914 O   0  0  0  0  0  0  0  0  0  0  0  0
   28.1649  -33.2276   -7.5001 C   0  0  0  0  0  0  0  0  0  0  0  0
   26.6658  -33.2245   -7.6744 C   0  0  2  0  0  0  0  0  0  0  0  0
   26.0797  -33.5581   -6.3911 N   0  0  0  0  0  0  0  0  0  0  0  0
   26.3454  -34.2989   -8.6798 C   0  0  0  0  0  0  0  0  0  0  0  0
   26.0981  -35.4599   -8.2864 O   0  0  0  0  0  0  0  0  0  0  0  0
   26.3272  -33.9886  -10.0489 N   0  0  0  0  0  0  0  0  0  0  0  0
   26.0215  -35.0755  -11.0707 C   0  0  1  0  0  0  0  0  0  0  0  0
   25.7759  -34.2903  -12.2973 C   0  0  0  0  0  0  0  0  0  0  0  0
   25.3451  -34.8425  -13.5635 C   0  0  0  0  0  0  0  0  0  0  0  0
   25.1324  -33.8781  -14.6773 C   0  0  0  0  0  0  0  0  0  0  0  0
   24.7651  -34.6373  -15.9755 C   0  0  0  0  0  0  0  0  0  0  0  0
   24.6773  -33.6772  -17.0435 N   0  0  0  0  0  0  0  0  0  0  0  0
   27.2381  -35.9046  -11.0073 C   0  0  0  0  0  0  0  0  0  0  0  0
   27.2290  -37.0342  -11.6133 O   0  0  0  0  0  0  0  0  0  0  0  0
   28.4214  -35.6268  -10.3756 O   0  0  0  0  0  0  0  0  0  0  0  0
  2  1  1  6
  2  4  1  0
  3  2  1  0
  4  5  2  0
  8  7  1  1
  7  6  1  0
  8 10  1  0
  9  4  1  0
  9  8  1  0
 10 11  2  0
 12 10  1  0
 12 13  1  0
 13 19  1  0
 14 15  1  0
 13 14  1  6
 16 15  1  0
 17 18  1  0
 17 16  1  0
 19 21  1  0
 20 19  2  0
M  END
$$$$
