ASK.pdb
     RDKit          3D

 21 20  0  0  1  0  0  0  0  0999 V2000
   24.1954  -21.2087   -9.5670 C   0  0  0  0  0  0  0  0  0  0  0  0
   25.6795  -20.9131   -9.7717 C   0  0  2  0  0  0  0  0  0  0  0  0
   26.1155  -20.1037   -8.6700 N   0  0  0  0  0  0  0  0  0  0  0  0
   25.7911  -20.2101  -11.0732 C   0  0  0  0  0  0  0  0  0  0  0  0
   25.4933  -18.9988  -11.1205 O   0  0  0  0  0  0  0  0  0  0  0  0
   27.3534  -22.1429  -14.4876 O   0  0  0  0  0  0  0  0  0  0  0  0
   27.4825  -20.7732  -14.2743 C   0  0  0  0  0  0  0  0  0  0  0  0
   26.2970  -20.1961  -13.5398 C   0  0  2  0  0  0  0  0  0  0  0  0
   26.2199  -20.8594  -12.2531 N   0  0  0  0  0  0  0  0  0  0  0  0
   25.0782  -20.5250  -14.3607 C   0  0  0  0  0  0  0  0  0  0  0  0
   24.5236  -21.6377  -14.2258 O   0  0  0  0  0  0  0  0  0  0  0  0
   24.5751  -19.5806  -15.2697 N   0  0  0  0  0  0  0  0  0  0  0  0
   23.3190  -19.8922  -16.0723 C   0  0  1  0  0  0  0  0  0  0  0  0
   22.5742  -18.6193  -15.9926 C   0  0  0  0  0  0  0  0  0  0  0  0
   21.2465  -18.4002  -16.5248 C   0  0  0  0  0  0  0  0  0  0  0  0
   20.1552  -18.1858  -15.5354 C   0  0  0  0  0  0  0  0  0  0  0  0
   18.7898  -18.0993  -16.2598 C   0  0  0  0  0  0  0  0  0  0  0  0
   17.7526  -18.1620  -15.2647 N   0  0  0  0  0  0  0  0  0  0  0  0
   23.8806  -20.2892  -17.3756 C   0  0  0  0  0  0  0  0  0  0  0  0
   23.1426  -20.9805  -18.1637 O   0  0  0  0  0  0  0  0  0  0  0  0
   25.1209  -20.0092  -17.8851 O   0  0  0  0  0  0  0  0  0  0  0  0
  2  1  1  1
  2  4  1  0
  3  2  1  0
  4  5  2  0
  8  7  1  6
  7  6  1  0
  8 10  1  0
  9  4  1  0
  9  8  1  0
 10 11  2  0
 12 10  1  0
 12 13  1  0
 13 19  1  0
 14 15  1  0
 13 14  1  6
 16 15  1  0
 17 18  1  0
 17 16  1  0
 19 21  1  0
 20 19  2  0
M  END
$$$$
