ASK.pdb
     RDKit          3D

 21 20  0  0  1  0  0  0  0  0999 V2000
   16.4390  -14.1313  -14.9764 C   0  0  0  0  0  0  0  0  0  0  0  0
   16.8175  -12.8193  -15.6600 C   0  0  2  0  0  0  0  0  0  0  0  0
   18.0756  -13.0222  -16.3194 N   0  0  0  0  0  0  0  0  0  0  0  0
   16.8952  -11.7960  -14.5888 C   0  0  0  0  0  0  0  0  0  0  0  0
   16.3353  -12.0346  -13.4989 O   0  0  0  0  0  0  0  0  0  0  0  0
   18.6859   -7.4382  -13.2758 O   0  0  0  0  0  0  0  0  0  0  0  0
   18.5744   -8.4778  -14.1950 C   0  0  0  0  0  0  0  0  0  0  0  0
   17.5587   -9.5096  -13.7688 C   0  0  2  0  0  0  0  0  0  0  0  0
   17.5761  -10.5692  -14.7581 N   0  0  0  0  0  0  0  0  0  0  0  0
   16.2179   -8.8241  -13.7744 C   0  0  0  0  0  0  0  0  0  0  0  0
   15.6325   -8.6197  -14.8604 O   0  0  0  0  0  0  0  0  0  0  0  0
   15.6369   -8.4207  -12.5617 N   0  0  0  0  0  0  0  0  0  0  0  0
   14.3356   -7.6296  -12.5683 C   0  0  1  0  0  0  0  0  0  0  0  0
   13.6599   -8.1307  -11.3543 C   0  0  0  0  0  0  0  0  0  0  0  0
   12.3685   -7.6830  -10.8790 C   0  0  0  0  0  0  0  0  0  0  0  0
   11.8842   -8.2720   -9.6006 C   0  0  0  0  0  0  0  0  0  0  0  0
   10.5656   -7.5875   -9.1655 C   0  0  0  0  0  0  0  0  0  0  0  0
   10.1547   -8.1668   -7.9142 N   0  0  0  0  0  0  0  0  0  0  0  0
   14.8239   -6.2392  -12.5690 C   0  0  0  0  0  0  0  0  0  0  0  0
   15.9958   -6.0126  -12.1012 O   0  0  0  0  0  0  0  0  0  0  0  0
   14.1832   -5.1158  -13.0203 O   0  0  0  0  0  0  0  0  0  0  0  0
  2  1  1  1
  2  4  1  0
  3  2  1  0
  4  5  2  0
  8  7  1  6
  7  6  1  0
  8 10  1  0
  9  4  1  0
  9  8  1  0
 10 11  2  0
 12 10  1  0
 12 13  1  0
 13 19  1  0
 14 15  1  0
 13 14  1  1
 16 15  1  0
 17 18  1  0
 17 16  1  0
 19 21  1  0
 20 19  2  0
M  END
$$$$
