CKH.pdb
     RDKit          3D

 26 26  0  0  1  0  0  0  0  0999 V2000
   17.1577  -12.2819    5.8577 N   0  0  0  0  0  0  0  0  0  0  0  0
   18.1457  -13.2931    5.5483 C   0  0  1  0  0  0  0  0  0  0  0  0
   19.5465  -12.7238    5.6812 C   0  0  0  0  0  0  0  0  0  0  0  0
   19.9906  -11.8755    4.1442 S   0  0  0  0  0  0  0  0  0  0  0  0
   17.9871  -14.4912    6.4087 C   0  0  0  0  0  0  0  0  0  0  0  0
   17.7003  -14.3352    7.6126 O   0  0  0  0  0  0  0  0  0  0  0  0
   18.1486  -15.7919    5.9152 N   0  0  0  0  0  0  0  0  0  0  0  0
   18.0165  -17.0026    6.6984 C   0  0  1  0  0  0  0  0  0  0  0  0
   17.4362  -18.1219    5.9221 C   0  0  0  0  0  0  0  0  0  0  0  0
   16.0618  -18.5172    6.3502 C   0  0  0  0  0  0  0  0  0  0  0  0
   15.5619  -19.7254    5.5309 C   0  0  0  0  0  0  0  0  0  0  0  0
   14.2580  -20.2306    6.0701 C   0  0  0  0  0  0  0  0  0  0  0  0
   13.8824  -21.4548    5.3456 N   0  0  0  0  0  0  0  0  0  0  0  0
   19.2918  -17.2482    7.3746 C   0  0  0  0  0  0  0  0  0  0  0  0
   20.4331  -17.1783    6.8181 O   0  0  0  0  0  0  0  0  0  0  0  0
   19.3111  -17.5913    8.7466 N   0  0  0  0  0  0  0  0  0  0  0  0
   20.5596  -17.7798    9.4475 C   0  0  1  0  0  0  0  0  0  0  0  0
   20.7349  -16.7313   10.5267 C   0  0  0  0  0  0  0  0  0  0  0  0
   21.2234  -15.4499    9.9854 C   0  0  0  0  0  0  0  0  0  0  0  0
   22.2723  -15.2637    9.1148 C   0  0  0  0  0  0  0  0  0  0  0  0
   22.3774  -13.9251    8.8775 N   0  0  0  0  0  0  0  0  0  0  0  0
   21.4279  -13.2917    9.5744 C   0  0  0  0  0  0  0  0  0  0  0  0
   20.7364  -14.2109   10.2389 N   0  0  0  0  0  0  0  0  0  0  0  0
   20.6785  -19.1377   10.0216 C   0  0  0  0  0  0  0  0  0  0  0  0
   21.8288  -19.5867   10.6339 O   0  0  0  0  0  0  0  0  0  0  0  0
   19.6949  -19.9149    9.9502 O   0  0  0  0  0  0  0  0  0  0  0  0
  2  1  1  1
  2  5  1  0
  3  2  1  0
  4  3  1  0
  5  6  2  0
  7  5  1  0
  7  8  1  0
  8 14  1  0
  8  9  1  6
 10  9  1  0
 11 10  1  0
 12 11  1  0
 13 12  1  0
 14 15  2  0
 16 17  1  0
 16 14  1  0
 17 24  1  0
 17 18  1  1
 19 23  1  0
 19 18  1  0
 20 19  2  0
 21 20  1  0
 21 22  1  0
 22 23  2  0
 24 26  2  0
 24 25  1  0
M  END
$$$$
