CKH.pdb
     RDKit          3D

 26 26  0  0  1  0  0  0  0  0999 V2000
   26.0034  -33.0017   -3.9218 N   0  0  0  0  0  0  0  0  0  0  0  0
   26.5654  -33.8475   -2.8906 C   0  0  1  0  0  0  0  0  0  0  0  0
   27.8724  -34.4596   -3.3609 C   0  0  0  0  0  0  0  0  0  0  0  0
   28.5216  -35.5423   -2.0626 S   0  0  0  0  0  0  0  0  0  0  0  0
   26.7661  -33.1020   -1.6238 C   0  0  0  0  0  0  0  0  0  0  0  0
   27.3533  -32.0020   -1.6580 O   0  0  0  0  0  0  0  0  0  0  0  0
   26.3186  -33.5914   -0.3902 N   0  0  0  0  0  0  0  0  0  0  0  0
   26.4290  -32.8925    0.8731 C   0  0  1  0  0  0  0  0  0  0  0  0
   25.1097  -32.5959    1.4764 C   0  0  0  0  0  0  0  0  0  0  0  0
   25.1682  -31.6972    2.6669 C   0  0  0  0  0  0  0  0  0  0  0  0
   23.7522  -31.4318    3.2196 C   0  0  0  0  0  0  0  0  0  0  0  0
   23.8153  -30.6078    4.4699 C   0  0  0  0  0  0  0  0  0  0  0  0
   22.4455  -30.3052    4.9135 N   0  0  0  0  0  0  0  0  0  0  0  0
   27.3993  -33.6069    1.7049 C   0  0  0  0  0  0  0  0  0  0  0  0
   27.3445  -34.8473    1.9802 O   0  0  0  0  0  0  0  0  0  0  0  0
   28.4962  -32.9135    2.2674 N   0  0  0  0  0  0  0  0  0  0  0  0
   29.4659  -33.5989    3.0890 C   0  0  1  0  0  0  0  0  0  0  0  0
   30.6402  -32.6951    3.4035 C   0  0  0  0  0  0  0  0  0  0  0  0
   31.6658  -33.3750    4.2156 C   0  0  0  0  0  0  0  0  0  0  0  0
   32.3033  -34.5589    3.9244 C   0  0  0  0  0  0  0  0  0  0  0  0
   33.1722  -34.8196    4.9423 N   0  0  0  0  0  0  0  0  0  0  0  0
   33.0841  -33.8343    5.8422 C   0  0  0  0  0  0  0  0  0  0  0  0
   32.1781  -32.9681    5.4024 N   0  0  0  0  0  0  0  0  0  0  0  0
   28.8696  -34.1249    4.3361 C   0  0  0  0  0  0  0  0  0  0  0  0
   29.3042  -35.2883    4.9337 O   0  0  0  0  0  0  0  0  0  0  0  0
   27.9303  -33.4891    4.8746 O   0  0  0  0  0  0  0  0  0  0  0  0
  2  1  1  6
  2  5  1  0
  3  2  1  0
  4  3  1  0
  5  6  2  0
  7  5  1  0
  7  8  1  0
  8 14  1  0
  8  9  1  1
 10  9  1  0
 11 10  1  0
 12 11  1  0
 13 12  1  0
 14 15  2  0
 16 17  1  0
 16 14  1  0
 17 24  1  0
 17 18  1  1
 19 23  1  0
 19 18  1  0
 20 19  2  0
 21 20  1  0
 21 22  1  0
 22 23  2  0
 24 26  2  0
 24 25  1  0
M  END
$$$$
