CKH.pdb
     RDKit          3D

 26 26  0  0  1  0  0  0  0  0999 V2000
   29.8919  -17.5812  -18.2674 N   0  0  0  0  0  0  0  0  0  0  0  0
   28.6330  -17.6159  -18.9805 C   0  0  1  0  0  0  0  0  0  0  0  0
   28.8660  -17.4780  -20.4741 C   0  0  0  0  0  0  0  0  0  0  0  0
   30.5698  -17.9585  -20.8557 S   0  0  0  0  0  0  0  0  0  0  0  0
   27.8730  -18.8551  -18.6846 C   0  0  0  0  0  0  0  0  0  0  0  0
   26.7632  -19.0260  -19.2278 O   0  0  0  0  0  0  0  0  0  0  0  0
   28.3594  -19.8401  -17.8159 N   0  0  0  0  0  0  0  0  0  0  0  0
   27.6917  -21.0891  -17.5150 C   0  0  1  0  0  0  0  0  0  0  0  0
   28.6414  -22.1799  -17.1974 C   0  0  0  0  0  0  0  0  0  0  0  0
   27.9903  -23.4641  -16.8034 C   0  0  0  0  0  0  0  0  0  0  0  0
   29.0487  -24.5053  -16.3830 C   0  0  0  0  0  0  0  0  0  0  0  0
   28.4206  -25.8516  -16.1846 C   0  0  0  0  0  0  0  0  0  0  0  0
   29.4764  -26.8344  -15.8944 N   0  0  0  0  0  0  0  0  0  0  0  0
   26.6356  -20.8165  -16.5382 C   0  0  0  0  0  0  0  0  0  0  0  0
   26.8268  -20.3218  -15.3824 O   0  0  0  0  0  0  0  0  0  0  0  0
   25.2876  -21.1062  -16.8535 N   0  0  0  0  0  0  0  0  0  0  0  0
   24.2317  -20.8568  -15.9004 C   0  0  1  0  0  0  0  0  0  0  0  0
   23.7553  -19.4214  -15.9877 C   0  0  0  0  0  0  0  0  0  0  0  0
   22.6266  -19.1519  -15.0785 C   0  0  0  0  0  0  0  0  0  0  0  0
   22.0260  -20.0402  -14.2165 C   0  0  0  0  0  0  0  0  0  0  0  0
   21.0277  -19.3744  -13.5691 N   0  0  0  0  0  0  0  0  0  0  0  0
   21.0012  -18.1116  -14.0086 C   0  0  0  0  0  0  0  0  0  0  0  0
   21.9632  -17.9815  -14.9154 N   0  0  0  0  0  0  0  0  0  0  0  0
   23.0963  -21.7896  -16.0675 C   0  0  0  0  0  0  0  0  0  0  0  0
   22.5091  -22.4423  -15.0051 O   0  0  0  0  0  0  0  0  0  0  0  0
   22.6468  -21.9976  -17.2214 O   0  0  0  0  0  0  0  0  0  0  0  0
  2  1  1  1
  2  5  1  0
  3  2  1  0
  4  3  1  0
  5  6  2  0
  7  5  1  0
  7  8  1  0
  8 14  1  0
  8  9  1  1
 10  9  1  0
 11 10  1  0
 12 11  1  0
 13 12  1  0
 14 15  2  0
 16 17  1  0
 16 14  1  0
 17 24  1  0
 17 18  1  6
 19 23  1  0
 19 18  1  0
 20 19  2  0
 21 20  1  0
 21 22  1  0
 22 23  2  0
 24 26  2  0
 24 25  1  0
M  END
$$$$
