CKH.pdb
     RDKit          3D

 26 26  0  0  1  0  0  0  0  0999 V2000
   30.0152  -23.2969  -18.2015 N   0  0  0  0  0  0  0  0  0  0  0  0
   28.9849  -23.9111  -17.3918 C   0  0  1  0  0  0  0  0  0  0  0  0
   27.6983  -23.1098  -17.4739 C   0  0  0  0  0  0  0  0  0  0  0  0
   26.5133  -23.7654  -16.2717 S   0  0  0  0  0  0  0  0  0  0  0  0
   28.7466  -25.3202  -17.7898 C   0  0  0  0  0  0  0  0  0  0  0  0
   28.6288  -25.5929  -19.0013 O   0  0  0  0  0  0  0  0  0  0  0  0
   28.6492  -26.3552  -16.8512 N   0  0  0  0  0  0  0  0  0  0  0  0
   28.3410  -27.7353  -17.1619 C   0  0  1  0  0  0  0  0  0  0  0  0
   29.3716  -28.6745  -16.6635 C   0  0  0  0  0  0  0  0  0  0  0  0
   29.0733  -30.1119  -16.9343 C   0  0  0  0  0  0  0  0  0  0  0  0
   30.2502  -31.0058  -16.4904 C   0  0  0  0  0  0  0  0  0  0  0  0
   30.0086  -32.4336  -16.8771 C   0  0  0  0  0  0  0  0  0  0  0  0
   31.1209  -33.2588  -16.3806 N   0  0  0  0  0  0  0  0  0  0  0  0
   26.9549  -27.9921  -16.7661 C   0  0  0  0  0  0  0  0  0  0  0  0
   26.4939  -27.8296  -15.5922 O   0  0  0  0  0  0  0  0  0  0  0  0
   26.0202  -28.4556  -17.7210 N   0  0  0  0  0  0  0  0  0  0  0  0
   24.6551  -28.7410  -17.3463 C   0  0  1  0  0  0  0  0  0  0  0  0
   23.6882  -28.1916  -18.3750 C   0  0  0  0  0  0  0  0  0  0  0  0
   22.2816  -28.4019  -17.9867 C   0  0  0  0  0  0  0  0  0  0  0  0
   21.6524  -27.9253  -16.8599 C   0  0  0  0  0  0  0  0  0  0  0  0
   20.3590  -28.3551  -16.8979 N   0  0  0  0  0  0  0  0  0  0  0  0
   20.1810  -29.0767  -18.0096 C   0  0  0  0  0  0  0  0  0  0  0  0
   21.3382  -29.1028  -18.6615 N   0  0  0  0  0  0  0  0  0  0  0  0
   24.4232  -30.1869  -17.1391 C   0  0  0  0  0  0  0  0  0  0  0  0
   23.7039  -30.6778  -16.0707 O   0  0  0  0  0  0  0  0  0  0  0  0
   24.8988  -31.0024  -17.9669 O   0  0  0  0  0  0  0  0  0  0  0  0
  2  1  1  6
  2  5  1  0
  3  2  1  0
  4  3  1  0
  5  6  2  0
  7  5  1  0
  7  8  1  0
  8 14  1  0
  8  9  1  1
 10  9  1  0
 11 10  1  0
 12 11  1  0
 13 12  1  0
 14 15  2  0
 16 17  1  0
 16 14  1  0
 17 24  1  0
 17 18  1  6
 19 23  1  0
 19 18  1  0
 20 19  2  0
 21 20  1  0
 21 22  1  0
 22 23  2  0
 24 26  2  0
 24 25  1  0
M  END
$$$$
