CKH.pdb
     RDKit          3D

 26 26  0  0  1  0  0  0  0  0999 V2000
   16.5347  -13.0318    4.3769 N   0  0  0  0  0  0  0  0  0  0  0  0
   17.6844  -13.8956    4.5387 C   0  0  1  0  0  0  0  0  0  0  0  0
   18.7903  -13.1719    5.2852 C   0  0  0  0  0  0  0  0  0  0  0  0
   19.5410  -11.9424    4.1878 S   0  0  0  0  0  0  0  0  0  0  0  0
   17.3256  -15.1559    5.2342 C   0  0  0  0  0  0  0  0  0  0  0  0
   16.5115  -15.1129    6.1783 O   0  0  0  0  0  0  0  0  0  0  0  0
   17.8699  -16.3930    4.8666 N   0  0  0  0  0  0  0  0  0  0  0  0
   17.5541  -17.6607    5.4908 C   0  0  1  0  0  0  0  0  0  0  0  0
   17.5180  -18.7790    4.5210 C   0  0  0  0  0  0  0  0  0  0  0  0
   16.2887  -18.8172    3.6749 C   0  0  0  0  0  0  0  0  0  0  0  0
   16.4074  -19.9081    2.5900 C   0  0  0  0  0  0  0  0  0  0  0  0
   15.2232  -19.8758    1.6719 C   0  0  0  0  0  0  0  0  0  0  0  0
   15.3463  -20.9675    0.6933 N   0  0  0  0  0  0  0  0  0  0  0  0
   18.4186  -17.8188    6.6619 C   0  0  0  0  0  0  0  0  0  0  0  0
   18.3730  -18.7998    7.4698 O   0  0  0  0  0  0  0  0  0  0  0  0
   19.3919  -16.8373    6.9613 N   0  0  0  0  0  0  0  0  0  0  0  0
   20.3122  -17.0147    8.0600 C   0  0  1  0  0  0  0  0  0  0  0  0
   21.7463  -16.9641    7.5748 C   0  0  0  0  0  0  0  0  0  0  0  0
   22.7137  -17.0325    8.6851 C   0  0  0  0  0  0  0  0  0  0  0  0
   22.9548  -16.0672    9.6353 C   0  0  0  0  0  0  0  0  0  0  0  0
   23.9237  -16.5427   10.4684 N   0  0  0  0  0  0  0  0  0  0  0  0
   24.2796  -17.7642   10.0566 C   0  0  0  0  0  0  0  0  0  0  0  0
   23.5506  -18.0554    8.9849 N   0  0  0  0  0  0  0  0  0  0  0  0
   20.0951  -16.0237    9.1362 C   0  0  0  0  0  0  0  0  0  0  0  0
   20.4909  -16.2429   10.4381 O   0  0  0  0  0  0  0  0  0  0  0  0
   19.5281  -14.9389    8.8566 O   0  0  0  0  0  0  0  0  0  0  0  0
  2  1  1  1
  2  5  1  0
  3  2  1  0
  4  3  1  0
  5  6  2  0
  7  5  1  0
  7  8  1  0
  8 14  1  0
  8  9  1  6
 10  9  1  0
 11 10  1  0
 12 11  1  0
 13 12  1  0
 14 15  2  0
 16 17  1  0
 16 14  1  0
 17 24  1  0
 17 18  1  6
 19 23  1  0
 19 18  1  0
 20 19  2  0
 21 20  1  0
 21 22  1  0
 22 23  2  0
 24 26  2  0
 24 25  1  0
M  END
$$$$
