CKH.pdb
     RDKit          3D

 26 26  0  0  1  0  0  0  0  0999 V2000
   27.7430  -19.1756  -16.8168 N   0  0  0  0  0  0  0  0  0  0  0  0
   27.1345  -18.5319  -15.6723 C   0  0  1  0  0  0  0  0  0  0  0  0
   26.6473  -17.1427  -16.0423 C   0  0  0  0  0  0  0  0  0  0  0  0
   28.0773  -16.0660  -16.3167 S   0  0  0  0  0  0  0  0  0  0  0  0
   26.0226  -19.3428  -15.1183 C   0  0  0  0  0  0  0  0  0  0  0  0
   25.4233  -20.1377  -15.8700 O   0  0  0  0  0  0  0  0  0  0  0  0
   25.6225  -19.2461  -13.7796 N   0  0  0  0  0  0  0  0  0  0  0  0
   24.5448  -20.0011  -13.1755 C   0  0  1  0  0  0  0  0  0  0  0  0
   24.6501  -20.0618  -11.6998 C   0  0  0  0  0  0  0  0  0  0  0  0
   23.5396  -20.8066  -11.0361 C   0  0  0  0  0  0  0  0  0  0  0  0
   23.7275  -20.8146   -9.5045 C   0  0  0  0  0  0  0  0  0  0  0  0
   22.6649  -21.6387   -8.8428 C   0  0  0  0  0  0  0  0  0  0  0  0
   22.7931  -21.5028   -7.3834 N   0  0  0  0  0  0  0  0  0  0  0  0
   23.2813  -19.5186  -13.7364 C   0  0  0  0  0  0  0  0  0  0  0  0
   22.9373  -18.2961  -13.8033 O   0  0  0  0  0  0  0  0  0  0  0  0
   22.3398  -20.4379  -14.2550 N   0  0  0  0  0  0  0  0  0  0  0  0
   21.0744  -19.9863  -14.7842 C   0  0  1  0  0  0  0  0  0  0  0  0
   20.8962  -20.4431  -16.2175 C   0  0  0  0  0  0  0  0  0  0  0  0
   21.7114  -19.6549  -17.1596 C   0  0  0  0  0  0  0  0  0  0  0  0
   22.5439  -18.6025  -16.8562 C   0  0  0  0  0  0  0  0  0  0  0  0
   23.0996  -18.1677  -18.0229 N   0  0  0  0  0  0  0  0  0  0  0  0
   22.6329  -18.9203  -19.0250 C   0  0  0  0  0  0  0  0  0  0  0  0
   21.7991  -19.8129  -18.5027 N   0  0  0  0  0  0  0  0  0  0  0  0
   19.9323  -20.4280  -13.9548 C   0  0  0  0  0  0  0  0  0  0  0  0
   18.6699  -19.8897  -14.0825 O   0  0  0  0  0  0  0  0  0  0  0  0
   20.1161  -21.3288  -13.0996 O   0  0  0  0  0  0  0  0  0  0  0  0
  2  1  1  6
  2  5  1  0
  3  2  1  0
  4  3  1  0
  5  6  2  0
  7  5  1  0
  7  8  1  0
  8 14  1  0
  8  9  1  1
 10  9  1  0
 11 10  1  0
 12 11  1  0
 13 12  1  0
 14 15  2  0
 16 17  1  0
 16 14  1  0
 17 24  1  0
 17 18  1  6
 19 23  1  0
 19 18  1  0
 20 19  2  0
 21 20  1  0
 21 22  1  0
 22 23  2  0
 24 26  2  0
 24 25  1  0
M  END
$$$$
