CKH.pdb
     RDKit          3D

 26 26  0  0  1  0  0  0  0  0999 V2000
   28.3291  -19.9982  -16.9292 N   0  0  0  0  0  0  0  0  0  0  0  0
   27.8901  -19.2594  -15.7649 C   0  0  1  0  0  0  0  0  0  0  0  0
   27.3452  -17.9025  -16.1725 C   0  0  0  0  0  0  0  0  0  0  0  0
   28.6754  -16.9304  -16.9241 S   0  0  0  0  0  0  0  0  0  0  0  0
   26.8761  -20.0158  -14.9899 C   0  0  0  0  0  0  0  0  0  0  0  0
   26.1321  -20.8166  -15.5908 O   0  0  0  0  0  0  0  0  0  0  0  0
   26.7258  -19.8613  -13.6060 N   0  0  0  0  0  0  0  0  0  0  0  0
   25.6121  -20.3620  -12.8279 C   0  0  1  0  0  0  0  0  0  0  0  0
   25.8712  -20.3190  -11.3707 C   0  0  0  0  0  0  0  0  0  0  0  0
   24.7327  -20.7961  -10.5313 C   0  0  0  0  0  0  0  0  0  0  0  0
   25.0985  -20.7393   -9.0334 C   0  0  0  0  0  0  0  0  0  0  0  0
   24.0144  -21.3499   -8.1978 C   0  0  0  0  0  0  0  0  0  0  0  0
   24.4054  -21.2805   -6.7811 N   0  0  0  0  0  0  0  0  0  0  0  0
   24.3918  -19.7118  -13.3096 C   0  0  0  0  0  0  0  0  0  0  0  0
   24.3475  -18.5605  -13.8478 O   0  0  0  0  0  0  0  0  0  0  0  0
   23.1452  -20.3694  -13.1916 N   0  0  0  0  0  0  0  0  0  0  0  0
   22.0031  -19.9404  -13.9641 C   0  0  1  0  0  0  0  0  0  0  0  0
   22.3232  -19.9415  -15.4448 C   0  0  0  0  0  0  0  0  0  0  0  0
   21.1655  -19.5437  -16.2662 C   0  0  0  0  0  0  0  0  0  0  0  0
   19.9708  -19.0273  -15.8203 C   0  0  0  0  0  0  0  0  0  0  0  0
   19.1866  -18.8018  -16.9126 N   0  0  0  0  0  0  0  0  0  0  0  0
   19.8644  -19.1636  -18.0072 C   0  0  0  0  0  0  0  0  0  0  0  0
   21.0530  -19.6089  -17.6152 N   0  0  0  0  0  0  0  0  0  0  0  0
   20.8045  -20.7636  -13.6936 C   0  0  0  0  0  0  0  0  0  0  0  0
   19.5447  -20.2202  -13.5627 O   0  0  0  0  0  0  0  0  0  0  0  0
   20.9359  -22.0070  -13.5781 O   0  0  0  0  0  0  0  0  0  0  0  0
  2  1  1  6
  2  5  1  0
  3  2  1  0
  4  3  1  0
  5  6  2  0
  7  5  1  0
  7  8  1  0
  8 14  1  0
  8  9  1  1
 10  9  1  0
 11 10  1  0
 12 11  1  0
 13 12  1  0
 14 15  2  0
 16 17  1  0
 16 14  1  0
 17 24  1  0
 17 18  1  6
 19 23  1  0
 19 18  1  0
 20 19  2  0
 21 20  1  0
 21 22  1  0
 22 23  2  0
 24 26  2  0
 24 25  1  0
M  END
$$$$
