CKH.pdb
     RDKit          3D

 26 26  0  0  1  0  0  0  0  0999 V2000
   23.2845  -14.6525  -19.9604 N   0  0  0  0  0  0  0  0  0  0  0  0
   22.0109  -13.9766  -20.0855 C   0  0  1  0  0  0  0  0  0  0  0  0
   21.0354  -14.4862  -19.0401 C   0  0  0  0  0  0  0  0  0  0  0  0
   20.9107  -16.2879  -19.1734 S   0  0  0  0  0  0  0  0  0  0  0  0
   22.1628  -12.5045  -19.9816 C   0  0  0  0  0  0  0  0  0  0  0  0
   23.0393  -12.0406  -19.2250 O   0  0  0  0  0  0  0  0  0  0  0  0
   21.3551  -11.6174  -20.7044 N   0  0  0  0  0  0  0  0  0  0  0  0
   21.4728  -10.1746  -20.6797 C   0  0  1  0  0  0  0  0  0  0  0  0
   20.8682   -9.5338  -21.8698 C   0  0  0  0  0  0  0  0  0  0  0  0
   21.6100   -9.7798  -23.1417 C   0  0  0  0  0  0  0  0  0  0  0  0
   20.8997   -9.0950  -24.3281 C   0  0  0  0  0  0  0  0  0  0  0  0
   21.5790   -9.4321  -25.6208 C   0  0  0  0  0  0  0  0  0  0  0  0
   20.8740   -8.7577  -26.7222 N   0  0  0  0  0  0  0  0  0  0  0  0
   21.0255   -9.7042  -19.3672 C   0  0  0  0  0  0  0  0  0  0  0  0
   19.8741   -9.9208  -18.8729 O   0  0  0  0  0  0  0  0  0  0  0  0
   21.8992   -8.9498  -18.5499 N   0  0  0  0  0  0  0  0  0  0  0  0
   21.4813   -8.4828  -17.2489 C   0  0  1  0  0  0  0  0  0  0  0  0
   21.8907   -9.4621  -16.1681 C   0  0  0  0  0  0  0  0  0  0  0  0
   21.5230   -8.9915  -14.8203 C   0  0  0  0  0  0  0  0  0  0  0  0
   20.9237   -7.7968  -14.4941 C   0  0  0  0  0  0  0  0  0  0  0  0
   20.7657   -7.7718  -13.1401 N   0  0  0  0  0  0  0  0  0  0  0  0
   21.2486   -8.9108  -12.6324 C   0  0  0  0  0  0  0  0  0  0  0  0
   21.7028   -9.6414  -13.6447 N   0  0  0  0  0  0  0  0  0  0  0  0
   22.0015   -7.1317  -16.9465 C   0  0  0  0  0  0  0  0  0  0  0  0
   21.4419   -6.3190  -15.9843 O   0  0  0  0  0  0  0  0  0  0  0  0
   22.9918   -6.7049  -17.5897 O   0  0  0  0  0  0  0  0  0  0  0  0
  2  1  1  1
  2  5  1  0
  3  2  1  0
  4  3  1  0
  5  6  2  0
  7  5  1  0
  7  8  1  0
  8 14  1  0
  8  9  1  6
 10  9  1  0
 11 10  1  0
 12 11  1  0
 13 12  1  0
 14 15  2  0
 16 17  1  0
 16 14  1  0
 17 24  1  0
 17 18  1  1
 19 23  1  0
 19 18  1  0
 20 19  2  0
 21 20  1  0
 21 22  1  0
 22 23  2  0
 24 26  2  0
 24 25  1  0
M  END
$$$$
