CKH.pdb
     RDKit          3D

 26 26  0  0  1  0  0  0  0  0999 V2000
   43.6717   -4.7374   -5.3192 N   0  0  0  0  0  0  0  0  0  0  0  0
   42.7237   -5.8306   -5.2898 C   0  0  1  0  0  0  0  0  0  0  0  0
   41.3056   -5.3062   -5.4252 C   0  0  0  0  0  0  0  0  0  0  0  0
   40.8644   -4.3943   -3.9241 S   0  0  0  0  0  0  0  0  0  0  0  0
   43.0119   -6.8304   -6.3472 C   0  0  0  0  0  0  0  0  0  0  0  0
   43.2540   -6.4317   -7.5041 O   0  0  0  0  0  0  0  0  0  0  0  0
   43.0214   -8.2072   -6.0907 N   0  0  0  0  0  0  0  0  0  0  0  0
   43.2435   -9.2381   -7.0829 C   0  0  1  0  0  0  0  0  0  0  0  0
   43.9425  -10.4199   -6.5288 C   0  0  0  0  0  0  0  0  0  0  0  0
   44.3546  -11.4244   -7.5532 C   0  0  0  0  0  0  0  0  0  0  0  0
   45.1801  -12.5561   -6.9059 C   0  0  0  0  0  0  0  0  0  0  0  0
   45.7335  -13.4757   -7.9519 C   0  0  0  0  0  0  0  0  0  0  0  0
   46.5111  -14.5371   -7.2934 N   0  0  0  0  0  0  0  0  0  0  0  0
   41.9794   -9.4759   -7.7825 C   0  0  0  0  0  0  0  0  0  0  0  0
   40.8897   -9.8094   -7.2181 O   0  0  0  0  0  0  0  0  0  0  0  0
   41.9114   -9.3381   -9.1884 N   0  0  0  0  0  0  0  0  0  0  0  0
   40.6885   -9.6176   -9.9039 C   0  0  1  0  0  0  0  0  0  0  0  0
   40.1757   -8.3739  -10.6003 C   0  0  0  0  0  0  0  0  0  0  0  0
   39.3877   -7.5143   -9.6983 C   0  0  0  0  0  0  0  0  0  0  0  0
   39.1414   -7.7216   -8.3607 C   0  0  0  0  0  0  0  0  0  0  0  0
   38.3727   -6.6859   -7.9185 N   0  0  0  0  0  0  0  0  0  0  0  0
   38.1435   -5.8564   -8.9420 C   0  0  0  0  0  0  0  0  0  0  0  0
   38.7548   -6.3571  -10.0099 N   0  0  0  0  0  0  0  0  0  0  0  0
   40.8482  -10.7239  -10.8723 C   0  0  0  0  0  0  0  0  0  0  0  0
   39.7920  -11.2370  -11.5941 O   0  0  0  0  0  0  0  0  0  0  0  0
   41.9894  -11.2178  -11.0466 O   0  0  0  0  0  0  0  0  0  0  0  0
  2  1  1  6
  2  5  1  0
  3  2  1  0
  4  3  1  0
  5  6  2  0
  7  5  1  0
  7  8  1  0
  8 14  1  0
  8  9  1  1
 10  9  1  0
 11 10  1  0
 12 11  1  0
 13 12  1  0
 14 15  2  0
 16 17  1  0
 16 14  1  0
 17 24  1  0
 17 18  1  6
 19 23  1  0
 19 18  1  0
 20 19  2  0
 21 20  1  0
 21 22  1  0
 22 23  2  0
 24 26  2  0
 24 25  1  0
M  END
$$$$
