AIM.pdb
     RDKit          3D

 22 21  0  0  1  0  0  0  0  0999 V2000
   29.3985  -22.2521  -15.4490 C   0  0  0  0  0  0  0  0  0  0  0  0
   27.9984  -21.8978  -15.8770 C   0  0  2  0  0  0  0  0  0  0  0  0
   28.0448  -21.2804  -17.1684 N   0  0  0  0  0  0  0  0  0  0  0  0
   27.2827  -21.0756  -14.8771 C   0  0  0  0  0  0  0  0  0  0  0  0
   27.5449  -19.8825  -14.6871 O   0  0  0  0  0  0  0  0  0  0  0  0
   21.8505  -19.2980  -13.2572 C   0  0  0  0  0  0  0  0  0  0  0  0
   23.2200  -19.6087  -12.6708 C   0  0  0  0  0  0  0  0  0  0  0  0
   24.0278  -20.4803  -13.5768 C   0  0  2  0  0  0  0  0  0  0  0  0
   23.2622  -21.7466  -13.9039 C   0  0  0  0  0  0  0  0  0  0  0  0
   25.4013  -20.8028  -13.2147 C   0  0  2  0  0  0  0  0  0  0  0  0
   26.2400  -21.5557  -14.0449 N   0  0  0  0  0  0  0  0  0  0  0  0
   25.5983  -21.2810  -11.8209 C   0  0  0  0  0  0  0  0  0  0  0  0
   25.6339  -22.5178  -11.6151 O   0  0  0  0  0  0  0  0  0  0  0  0
   29.5230  -19.4438   -6.8785 C   0  0  0  0  0  0  0  0  0  0  0  0
   27.8526  -19.0648   -6.3086 S   0  0  0  0  0  0  0  0  0  0  0  0
   26.7134  -20.2637   -7.0805 C   0  0  0  0  0  0  0  0  0  0  0  0
   26.6680  -19.9354   -8.5424 C   0  0  0  0  0  0  0  0  0  0  0  0
   25.8545  -20.8982   -9.3486 C   0  0  2  0  0  0  0  0  0  0  0  0
   25.7470  -20.4076  -10.7186 N   0  0  0  0  0  0  0  0  0  0  0  0
   24.4809  -21.0958   -8.8398 C   0  0  0  0  0  0  0  0  0  0  0  0
   24.2528  -21.8708   -7.8598 O   0  0  0  0  0  0  0  0  0  0  0  0
   23.4062  -20.4398   -9.4175 O   0  0  0  0  0  0  0  0  0  0  0  0
  2  1  1  1
  2  4  1  0
  3  2  1  0
  4 11  1  0
  5  4  2  0
  6  7  1  0
  8  9  1  1
  8  7  1  0
 10  8  1  0
 10 12  1  0
 10 11  1  6
 12 13  2  0
 12 19  1  0
 15 14  1  0
 16 15  1  0
 17 16  1  0
 18 17  1  1
 18 20  1  0
 19 18  1  0
 20 22  1  0
 21 20  2  0
M  END
$$$$
