AIM.pdb
     RDKit          3D

 22 21  0  0  1  0  0  0  0  0999 V2000
   26.8452  -20.3523  -17.2459 C   0  0  0  0  0  0  0  0  0  0  0  0
   27.5449  -21.0723  -16.1229 C   0  0  2  0  0  0  0  0  0  0  0  0
   28.3493  -22.1238  -16.6692 N   0  0  0  0  0  0  0  0  0  0  0  0
   26.6132  -21.5510  -15.0785 C   0  0  0  0  0  0  0  0  0  0  0  0
   26.1399  -22.6930  -15.0827 O   0  0  0  0  0  0  0  0  0  0  0  0
   25.4570  -21.2308   -9.0552 C   0  0  0  0  0  0  0  0  0  0  0  0
   24.8793  -21.5105  -10.4350 C   0  0  0  0  0  0  0  0  0  0  0  0
   25.7446  -20.9601  -11.5219 C   0  0  2  0  0  0  0  0  0  0  0  0
   26.0113  -19.4875  -11.2831 C   0  0  0  0  0  0  0  0  0  0  0  0
   25.3695  -21.1840  -12.9114 C   0  0  2  0  0  0  0  0  0  0  0  0
   26.1703  -20.7689  -13.9819 N   0  0  0  0  0  0  0  0  0  0  0  0
   23.9587  -20.8613  -13.2514 C   0  0  0  0  0  0  0  0  0  0  0  0
   23.6552  -19.6618  -13.4577 O   0  0  0  0  0  0  0  0  0  0  0  0
   20.0477  -25.0472  -15.7645 C   0  0  0  0  0  0  0  0  0  0  0  0
   18.7166  -24.0929  -15.0052 S   0  0  0  0  0  0  0  0  0  0  0  0
   19.4073  -22.4852  -14.4866 C   0  0  0  0  0  0  0  0  0  0  0  0
   20.8384  -22.7308  -14.1140 C   0  0  0  0  0  0  0  0  0  0  0  0
   21.5621  -21.4996  -13.6678 C   0  0  2  0  0  0  0  0  0  0  0  0
   22.9451  -21.8422  -13.3528 N   0  0  0  0  0  0  0  0  0  0  0  0
   20.9792  -20.8628  -12.4681 C   0  0  0  0  0  0  0  0  0  0  0  0
   21.2370  -21.3028  -11.3048 O   0  0  0  0  0  0  0  0  0  0  0  0
   20.1375  -19.7684  -12.5806 O   0  0  0  0  0  0  0  0  0  0  0  0
  2  1  1  6
  2  4  1  0
  3  2  1  0
  4 11  1  0
  5  4  2  0
  6  7  1  0
  8  9  1  1
  8  7  1  0
 10  8  1  0
 10 12  1  0
 10 11  1  6
 12 13  2  0
 12 19  1  0
 15 14  1  0
 16 15  1  0
 17 16  1  0
 18 17  1  1
 18 20  1  0
 19 18  1  0
 20 22  1  0
 21 20  2  0
M  END
$$$$
