AIM.pdb
     RDKit          3D

 22 21  0  0  1  0  0  0  0  0999 V2000
   18.5229  -11.1846  -20.2139 C   0  0  0  0  0  0  0  0  0  0  0  0
   18.9799  -12.0439  -19.0642 C   0  0  2  0  0  0  0  0  0  0  0  0
   17.8955  -12.8791  -18.6429 N   0  0  0  0  0  0  0  0  0  0  0  0
   19.5586  -11.2570  -17.9534 C   0  0  0  0  0  0  0  0  0  0  0  0
   18.8659  -10.7683  -17.0536 O   0  0  0  0  0  0  0  0  0  0  0  0
   24.4166  -12.3959  -15.2519 C   0  0  0  0  0  0  0  0  0  0  0  0
   23.0112  -12.1300  -15.7714 C   0  0  0  0  0  0  0  0  0  0  0  0
   22.8314  -10.7050  -16.1836 C   0  0  2  0  0  0  0  0  0  0  0  0
   23.2237   -9.7790  -15.0500 C   0  0  0  0  0  0  0  0  0  0  0  0
   21.5599  -10.2860  -16.7577 C   0  0  2  0  0  0  0  0  0  0  0  0
   20.9415  -10.9829  -17.8025 N   0  0  0  0  0  0  0  0  0  0  0  0
   21.4398   -8.8335  -17.0506 C   0  0  0  0  0  0  0  0  0  0  0  0
   21.9942   -8.3863  -18.0832 O   0  0  0  0  0  0  0  0  0  0  0  0
   17.1457   -2.6785  -18.0484 C   0  0  0  0  0  0  0  0  0  0  0  0
   17.3951   -4.4376  -17.7290 S   0  0  0  0  0  0  0  0  0  0  0  0
   19.1175   -4.6654  -17.1699 C   0  0  0  0  0  0  0  0  0  0  0  0
   19.3253   -6.1406  -17.0040 C   0  0  0  0  0  0  0  0  0  0  0  0
   20.6837   -6.5012  -16.4907 C   0  0  2  0  0  0  0  0  0  0  0  0
   20.7308   -7.9344  -16.2206 N   0  0  0  0  0  0  0  0  0  0  0  0
   21.0585   -5.8027  -15.2432 C   0  0  0  0  0  0  0  0  0  0  0  0
   20.9162   -6.3638  -14.1127 O   0  0  0  0  0  0  0  0  0  0  0  0
   21.5761   -4.5182  -15.2742 O   0  0  0  0  0  0  0  0  0  0  0  0
  2  1  1  6
  2  4  1  0
  3  2  1  0
  4 11  1  0
  5  4  2  0
  6  7  1  0
  8  9  1  1
  8  7  1  0
 10  8  1  0
 10 12  1  0
 10 11  1  6
 12 13  2  0
 12 19  1  0
 15 14  1  0
 16 15  1  0
 17 16  1  0
 18 17  1  1
 18 20  1  0
 19 18  1  0
 20 22  1  0
 21 20  2  0
M  END
$$$$
