AIM.pdb
     RDKit          3D

 22 21  0  0  1  0  0  0  0  0999 V2000
   27.8329  -19.5007  -15.3506 C   0  0  0  0  0  0  0  0  0  0  0  0
   28.1887  -20.6376  -14.4286 C   0  0  2  0  0  0  0  0  0  0  0  0
   28.6322  -21.7534  -15.2093 N   0  0  0  0  0  0  0  0  0  0  0  0
   27.0913  -20.9905  -13.5016 C   0  0  0  0  0  0  0  0  0  0  0  0
   26.2738  -21.8841  -13.7489 O   0  0  0  0  0  0  0  0  0  0  0  0
   27.3431  -20.0936   -7.8492 C   0  0  0  0  0  0  0  0  0  0  0  0
   27.2054  -20.7770   -9.2019 C   0  0  0  0  0  0  0  0  0  0  0  0
   25.9649  -20.3492   -9.9170 C   0  0  2  0  0  0  0  0  0  0  0  0
   24.7379  -20.8412   -9.1760 C   0  0  0  0  0  0  0  0  0  0  0  0
   25.8352  -20.6235  -11.3417 C   0  0  2  0  0  0  0  0  0  0  0  0
   26.8620  -20.3557  -12.2547 N   0  0  0  0  0  0  0  0  0  0  0  0
   24.5556  -20.1890  -11.9612 C   0  0  0  0  0  0  0  0  0  0  0  0
   24.4117  -18.9748  -12.2414 O   0  0  0  0  0  0  0  0  0  0  0  0
   21.9085  -23.5456  -16.0614 C   0  0  0  0  0  0  0  0  0  0  0  0
   20.6745  -22.2485  -16.2921 S   0  0  0  0  0  0  0  0  0  0  0  0
   20.7811  -21.1155  -14.8652 C   0  0  0  0  0  0  0  0  0  0  0  0
   22.0398  -21.4656  -14.1301 C   0  0  0  0  0  0  0  0  0  0  0  0
   22.2680  -20.6392  -12.9038 C   0  0  2  0  0  0  0  0  0  0  0  0
   23.4953  -21.0795  -12.2488 N   0  0  0  0  0  0  0  0  0  0  0  0
   21.1784  -20.7284  -11.9091 C   0  0  0  0  0  0  0  0  0  0  0  0
   21.3068  -21.4352  -10.8616 O   0  0  0  0  0  0  0  0  0  0  0  0
   19.9890  -20.0424  -12.0922 O   0  0  0  0  0  0  0  0  0  0  0  0
  2  1  1  6
  2  4  1  0
  3  2  1  0
  4 11  1  0
  5  4  2  0
  6  7  1  0
  8  9  1  1
  8  7  1  0
 10  8  1  0
 10 12  1  0
 10 11  1  6
 12 13  2  0
 12 19  1  0
 15 14  1  0
 16 15  1  0
 17 16  1  0
 18 17  1  6
 18 20  1  0
 19 18  1  0
 20 22  1  0
 21 20  2  0
M  END
$$$$
