AIM.pdb
     RDKit          3D

 22 21  0  0  1  0  0  0  0  0999 V2000
   26.3335  -25.1550  -17.3086 C   0  0  0  0  0  0  0  0  0  0  0  0
   27.6041  -24.3462  -17.2822 C   0  0  2  0  0  0  0  0  0  0  0  0
   28.7179  -25.2284  -17.1023 N   0  0  0  0  0  0  0  0  0  0  0  0
   27.5715  -23.2574  -16.2815 C   0  0  0  0  0  0  0  0  0  0  0  0
   28.0404  -23.3851  -15.1448 O   0  0  0  0  0  0  0  0  0  0  0  0
   28.2198  -17.6826  -17.3927 C   0  0  0  0  0  0  0  0  0  0  0  0
   28.2807  -19.1405  -16.9605 C   0  0  0  0  0  0  0  0  0  0  0  0
   27.1250  -19.5104  -16.0885 C   0  0  2  0  0  0  0  0  0  0  0  0
   27.0305  -18.5582  -14.9134 C   0  0  0  0  0  0  0  0  0  0  0  0
   26.9910  -20.8871  -15.6317 C   0  0  2  0  0  0  0  0  0  0  0  0
   27.0107  -21.9757  -16.5116 N   0  0  0  0  0  0  0  0  0  0  0  0
   25.9103  -21.1280  -14.6397 C   0  0  0  0  0  0  0  0  0  0  0  0
   24.7933  -21.5159  -15.0583 O   0  0  0  0  0  0  0  0  0  0  0  0
   26.8964  -20.0610   -8.5719 C   0  0  0  0  0  0  0  0  0  0  0  0
   25.3042  -20.8454   -8.2429 S   0  0  0  0  0  0  0  0  0  0  0  0
   24.4727  -21.1156   -9.8449 C   0  0  0  0  0  0  0  0  0  0  0  0
   25.5220  -20.9689  -10.9053 C   0  0  0  0  0  0  0  0  0  0  0  0
   25.0043  -21.1733  -12.2941 C   0  0  2  0  0  0  0  0  0  0  0  0
   26.0831  -20.9404  -13.2487 N   0  0  0  0  0  0  0  0  0  0  0  0
   23.8895  -20.2733  -12.6573 C   0  0  0  0  0  0  0  0  0  0  0  0
   24.1121  -19.1243  -13.1507 O   0  0  0  0  0  0  0  0  0  0  0  0
   22.5724  -20.6597  -12.4704 O   0  0  0  0  0  0  0  0  0  0  0  0
  2  1  1  1
  2  4  1  0
  3  2  1  0
  4 11  1  0
  5  4  2  0
  6  7  1  0
  8  9  1  1
  8  7  1  0
 10  8  1  0
 10 12  1  0
 10 11  1  6
 12 13  2  0
 12 19  1  0
 15 14  1  0
 16 15  1  0
 17 16  1  0
 18 17  1  1
 18 20  1  0
 19 18  1  0
 20 22  1  0
 21 20  2  0
M  END
$$$$
