AIM.pdb
     RDKit          3D

 22 21  0  0  1  0  0  0  0  0999 V2000
   27.9796  -19.5693  -15.4168 C   0  0  0  0  0  0  0  0  0  0  0  0
   28.1795  -20.7364  -14.4856 C   0  0  2  0  0  0  0  0  0  0  0  0
   28.6298  -21.8670  -15.2406 N   0  0  0  0  0  0  0  0  0  0  0  0
   26.9804  -21.0346  -13.6724 C   0  0  0  0  0  0  0  0  0  0  0  0
   26.0633  -21.7562  -14.0803 O   0  0  0  0  0  0  0  0  0  0  0  0
   27.2409  -20.4269   -8.0763 C   0  0  0  0  0  0  0  0  0  0  0  0
   26.9516  -21.2104   -9.3485 C   0  0  0  0  0  0  0  0  0  0  0  0
   25.7588  -20.6748  -10.0719 C   0  0  2  0  0  0  0  0  0  0  0  0
   24.4846  -21.1770   -9.4232 C   0  0  0  0  0  0  0  0  0  0  0  0
   25.6787  -20.8237  -11.5186 C   0  0  2  0  0  0  0  0  0  0  0  0
   26.7566  -20.5358  -12.3642 N   0  0  0  0  0  0  0  0  0  0  0  0
   24.4503  -20.2734  -12.1498 C   0  0  0  0  0  0  0  0  0  0  0  0
   24.3365  -19.0278  -12.2448 O   0  0  0  0  0  0  0  0  0  0  0  0
   22.5924  -21.9114  -17.3460 C   0  0  0  0  0  0  0  0  0  0  0  0
   20.8988  -21.3669  -17.0393 S   0  0  0  0  0  0  0  0  0  0  0  0
   20.8418  -20.6324  -15.3695 C   0  0  0  0  0  0  0  0  0  0  0  0
   22.1048  -21.0433  -14.6745 C   0  0  0  0  0  0  0  0  0  0  0  0
   22.2155  -20.5252  -13.2752 C   0  0  2  0  0  0  0  0  0  0  0  0
   23.4064  -21.0876  -12.6470 N   0  0  0  0  0  0  0  0  0  0  0  0
   21.0605  -20.8635  -12.4172 C   0  0  0  0  0  0  0  0  0  0  0  0
   20.9900  -21.9877  -11.8305 O   0  0  0  0  0  0  0  0  0  0  0  0
   20.0249  -19.9627  -12.2294 O   0  0  0  0  0  0  0  0  0  0  0  0
  2  1  1  6
  2  4  1  0
  3  2  1  0
  4 11  1  0
  5  4  2  0
  6  7  1  0
  8  9  1  1
  8  7  1  0
 10  8  1  0
 10 12  1  0
 10 11  1  6
 12 13  2  0
 12 19  1  0
 15 14  1  0
 16 15  1  0
 17 16  1  0
 18 17  1  6
 18 20  1  0
 19 18  1  0
 20 22  1  0
 21 20  2  0
M  END
$$$$
