AIM.pdb
     RDKit          3D

 22 21  0  0  1  0  0  0  0  0999 V2000
   21.1396   -9.9959  -21.8996 C   0  0  0  0  0  0  0  0  0  0  0  0
   21.6547  -10.9210  -20.8281 C   0  0  2  0  0  0  0  0  0  0  0  0
   21.0690  -12.2159  -21.0051 N   0  0  0  0  0  0  0  0  0  0  0  0
   21.4554  -10.3867  -19.4633 C   0  0  0  0  0  0  0  0  0  0  0  0
   20.3468  -10.0397  -19.0406 O   0  0  0  0  0  0  0  0  0  0  0  0
   24.5314  -12.1144  -14.9905 C   0  0  0  0  0  0  0  0  0  0  0  0
   23.4410  -11.7844  -15.9995 C   0  0  0  0  0  0  0  0  0  0  0  0
   23.2199  -10.3112  -16.1170 C   0  0  2  0  0  0  0  0  0  0  0  0
   22.7908   -9.7384  -14.7812 C   0  0  0  0  0  0  0  0  0  0  0  0
   22.3632   -9.8034  -17.1800 C   0  0  2  0  0  0  0  0  0  0  0  0
   22.4922  -10.2175  -18.5110 N   0  0  0  0  0  0  0  0  0  0  0  0
   22.1548   -8.3315  -17.1834 C   0  0  0  0  0  0  0  0  0  0  0  0
   23.0786   -7.6003  -17.6141 O   0  0  0  0  0  0  0  0  0  0  0  0
   17.2616   -2.5472  -18.5353 C   0  0  0  0  0  0  0  0  0  0  0  0
   17.8237   -4.2570  -18.6746 S   0  0  0  0  0  0  0  0  0  0  0  0
   19.2463   -4.4708  -17.5515 C   0  0  0  0  0  0  0  0  0  0  0  0
   19.6169   -5.9226  -17.5969 C   0  0  0  0  0  0  0  0  0  0  0  0
   20.7863   -6.2707  -16.7308 C   0  0  2  0  0  0  0  0  0  0  0  0
   20.9658   -7.7188  -16.7245 N   0  0  0  0  0  0  0  0  0  0  0  0
   20.6424   -5.8360  -15.3255 C   0  0  0  0  0  0  0  0  0  0  0  0
   20.8435   -4.6270  -14.9922 O   0  0  0  0  0  0  0  0  0  0  0  0
   20.2830   -6.7354  -14.3351 O   0  0  0  0  0  0  0  0  0  0  0  0
  2  1  1  6
  2  4  1  0
  3  2  1  0
  4 11  1  0
  5  4  2  0
  6  7  1  0
  8  9  1  1
  8  7  1  0
 10  8  1  0
 10 12  1  0
 10 11  1  6
 12 13  2  0
 12 19  1  0
 15 14  1  0
 16 15  1  0
 17 16  1  0
 18 17  1  6
 18 20  1  0
 19 18  1  0
 20 22  1  0
 21 20  2  0
M  END
$$$$
