AIM.pdb
     RDKit          3D

 22 21  0  0  1  0  0  0  0  0999 V2000
   26.8296  -20.4948  -16.7504 C   0  0  0  0  0  0  0  0  0  0  0  0
   27.3288  -20.9278  -15.3967 C   0  0  2  0  0  0  0  0  0  0  0  0
   28.2851  -21.9806  -15.5642 N   0  0  0  0  0  0  0  0  0  0  0  0
   26.2346  -21.2931  -14.4708 C   0  0  0  0  0  0  0  0  0  0  0  0
   25.5684  -22.3259  -14.6036 O   0  0  0  0  0  0  0  0  0  0  0  0
   26.5569  -20.3463   -8.9275 C   0  0  0  0  0  0  0  0  0  0  0  0
   26.3742  -21.0008  -10.2892 C   0  0  0  0  0  0  0  0  0  0  0  0
   25.1147  -20.5524  -10.9568 C   0  0  2  0  0  0  0  0  0  0  0  0
   23.9100  -20.9852  -10.1456 C   0  0  0  0  0  0  0  0  0  0  0  0
   24.9085  -20.8597  -12.3657 C   0  0  2  0  0  0  0  0  0  0  0  0
   25.8387  -20.5151  -13.3535 N   0  0  0  0  0  0  0  0  0  0  0  0
   23.5536  -20.5520  -12.8944 C   0  0  0  0  0  0  0  0  0  0  0  0
   23.2528  -19.3515  -13.0991 O   0  0  0  0  0  0  0  0  0  0  0  0
   20.4593  -23.7317  -17.2794 C   0  0  0  0  0  0  0  0  0  0  0  0
   19.0276  -23.5016  -16.2042 S   0  0  0  0  0  0  0  0  0  0  0  0
   19.3874  -22.1049  -15.0858 C   0  0  0  0  0  0  0  0  0  0  0  0
   20.7715  -22.3245  -14.5536 C   0  0  0  0  0  0  0  0  0  0  0  0
   21.2558  -21.2203  -13.6677 C   0  0  2  0  0  0  0  0  0  0  0  0
   22.5902  -21.5480  -13.1765 N   0  0  0  0  0  0  0  0  0  0  0  0
   20.3976  -20.9763  -12.4893 C   0  0  0  0  0  0  0  0  0  0  0  0
   20.5749  -21.6189  -11.4082 O   0  0  0  0  0  0  0  0  0  0  0  0
   19.3781  -20.0394  -12.5325 O   0  0  0  0  0  0  0  0  0  0  0  0
  2  1  1  6
  2  4  1  0
  3  2  1  0
  4 11  1  0
  5  4  2  0
  6  7  1  0
  8  9  1  1
  8  7  1  0
 10  8  1  0
 10 12  1  0
 10 11  1  6
 12 13  2  0
 12 19  1  0
 15 14  1  0
 16 15  1  0
 17 16  1  0
 18 17  1  1
 18 20  1  0
 19 18  1  0
 20 22  1  0
 21 20  2  0
M  END
$$$$
