AIM.pdb
     RDKit          3D

 22 21  0  0  1  0  0  0  0  0999 V2000
   27.1265  -18.1901  -15.8718 C   0  0  0  0  0  0  0  0  0  0  0  0
   27.7133  -19.2470  -14.9731 C   0  0  2  0  0  0  0  0  0  0  0  0
   28.6083  -20.0659  -15.7343 N   0  0  0  0  0  0  0  0  0  0  0  0
   26.6820  -20.0357  -14.2643 C   0  0  0  0  0  0  0  0  0  0  0  0
   26.2267  -21.0927  -14.7156 O   0  0  0  0  0  0  0  0  0  0  0  0
   26.8977  -20.2344   -8.7836 C   0  0  0  0  0  0  0  0  0  0  0  0
   26.6772  -20.8965  -10.1360 C   0  0  0  0  0  0  0  0  0  0  0  0
   25.3863  -20.4729  -10.7582 C   0  0  2  0  0  0  0  0  0  0  0  0
   24.2348  -21.2532  -10.1567 C   0  0  0  0  0  0  0  0  0  0  0  0
   25.2716  -20.4469  -12.2101 C   0  0  2  0  0  0  0  0  0  0  0  0
   26.1148  -19.6732  -13.0164 N   0  0  0  0  0  0  0  0  0  0  0  0
   23.8892  -20.3081  -12.7387 C   0  0  0  0  0  0  0  0  0  0  0  0
   23.3413  -19.1809  -12.6844 O   0  0  0  0  0  0  0  0  0  0  0  0
   21.2302  -23.5191  -17.6348 C   0  0  0  0  0  0  0  0  0  0  0  0
   19.9014  -23.6761  -16.4230 S   0  0  0  0  0  0  0  0  0  0  0  0
   20.0620  -22.2990  -15.2361 C   0  0  0  0  0  0  0  0  0  0  0  0
   21.4527  -22.3685  -14.6808 C   0  0  0  0  0  0  0  0  0  0  0  0
   21.7871  -21.2399  -13.7573 C   0  0  2  0  0  0  0  0  0  0  0  0
   23.1647  -21.3857  -13.2988 N   0  0  0  0  0  0  0  0  0  0  0  0
   20.9260  -21.1709  -12.5579 C   0  0  0  0  0  0  0  0  0  0  0  0
   21.2007  -21.8452  -11.5172 O   0  0  0  0  0  0  0  0  0  0  0  0
   19.7974  -20.3680  -12.5368 O   0  0  0  0  0  0  0  0  0  0  0  0
  2  1  1  6
  2  4  1  0
  3  2  1  0
  4 11  1  0
  5  4  2  0
  6  7  1  0
  8  9  1  1
  8  7  1  0
 10  8  1  0
 10 12  1  0
 10 11  1  1
 12 13  2  0
 12 19  1  0
 15 14  1  0
 16 15  1  0
 17 16  1  0
 18 17  1  6
 18 20  1  0
 19 18  1  0
 20 22  1  0
 21 20  2  0
M  END
$$$$
