AIM.pdb
     RDKit          3D

 22 21  0  0  1  0  0  0  0  0999 V2000
   18.0094  -21.1551  -14.6922 C   0  0  0  0  0  0  0  0  0  0  0  0
   19.4898  -21.0117  -14.4538 C   0  0  2  0  0  0  0  0  0  0  0  0
   20.1954  -21.4025  -15.6373 N   0  0  0  0  0  0  0  0  0  0  0  0
   19.9507  -21.7365  -13.2496 C   0  0  0  0  0  0  0  0  0  0  0  0
   20.3523  -22.9049  -13.2900 O   0  0  0  0  0  0  0  0  0  0  0  0
   23.2005  -21.0211   -8.1236 C   0  0  0  0  0  0  0  0  0  0  0  0
   22.0531  -21.7917   -8.7604 C   0  0  0  0  0  0  0  0  0  0  0  0
   21.5273  -21.1010   -9.9767 C   0  0  2  0  0  0  0  0  0  0  0  0
   21.0816  -19.6951   -9.6284 C   0  0  0  0  0  0  0  0  0  0  0  0
   20.5145  -21.7627  -10.7880 C   0  0  2  0  0  0  0  0  0  0  0  0
   19.9816  -21.1821  -11.9450 N   0  0  0  0  0  0  0  0  0  0  0  0
   19.3907  -22.3750  -10.0315 C   0  0  0  0  0  0  0  0  0  0  0  0
   18.3007  -21.7563   -9.9797 O   0  0  0  0  0  0  0  0  0  0  0  0
   17.9005  -28.2112  -10.5752 C   0  0  0  0  0  0  0  0  0  0  0  0
   17.2910  -28.1568   -8.8769 S   0  0  0  0  0  0  0  0  0  0  0  0
   17.1460  -26.4035   -8.3912 C   0  0  0  0  0  0  0  0  0  0  0  0
   18.2947  -25.6829   -9.0301 C   0  0  0  0  0  0  0  0  0  0  0  0
   18.3599  -24.2294   -8.6812 C   0  0  2  0  0  0  0  0  0  0  0  0
   19.4935  -23.6201   -9.3689 N   0  0  0  0  0  0  0  0  0  0  0  0
   18.5249  -23.9661   -7.2362 C   0  0  0  0  0  0  0  0  0  0  0  0
   19.6720  -23.7387   -6.7407 O   0  0  0  0  0  0  0  0  0  0  0  0
   17.4325  -23.9590   -6.3844 O   0  0  0  0  0  0  0  0  0  0  0  0
  2  1  1  6
  2  4  1  0
  3  2  1  0
  4 11  1  0
  5  4  2  0
  6  7  1  0
  8  9  1  1
  8  7  1  0
 10  8  1  0
 10 12  1  0
 10 11  1  6
 12 13  2  0
 12 19  1  0
 15 14  1  0
 16 15  1  0
 17 16  1  0
 18 17  1  1
 18 20  1  0
 19 18  1  0
 20 22  1  0
 21 20  2  0
M  END
$$$$
