AIM.pdb
     RDKit          3D

 22 21  0  0  1  0  0  0  0  0999 V2000
   29.2772  -20.8639  -15.4246 C   0  0  0  0  0  0  0  0  0  0  0  0
   27.8017  -21.1342  -15.5622 C   0  0  2  0  0  0  0  0  0  0  0  0
   27.3667  -20.7121  -16.8598 N   0  0  0  0  0  0  0  0  0  0  0  0
   27.0036  -20.5353  -14.4703 C   0  0  0  0  0  0  0  0  0  0  0  0
   26.9492  -19.3152  -14.2788 O   0  0  0  0  0  0  0  0  0  0  0  0
   22.3829  -18.8082  -12.5883 C   0  0  0  0  0  0  0  0  0  0  0  0
   22.8270  -20.1868  -12.1215 C   0  0  0  0  0  0  0  0  0  0  0  0
   23.8226  -20.7955  -13.0549 C   0  0  2  0  0  0  0  0  0  0  0  0
   23.3846  -22.1917  -13.4492 C   0  0  0  0  0  0  0  0  0  0  0  0
   25.2326  -20.7958  -12.6889 C   0  0  2  0  0  0  0  0  0  0  0  0
   26.2303  -21.2792  -13.5436 N   0  0  0  0  0  0  0  0  0  0  0  0
   25.5360  -21.2852  -11.3184 C   0  0  0  0  0  0  0  0  0  0  0  0
   25.6341  -22.5224  -11.1360 O   0  0  0  0  0  0  0  0  0  0  0  0
   29.3169  -18.8428   -7.1843 C   0  0  0  0  0  0  0  0  0  0  0  0
   28.0996  -19.2172   -5.9050 S   0  0  0  0  0  0  0  0  0  0  0  0
   26.8655  -20.3537   -6.6235 C   0  0  0  0  0  0  0  0  0  0  0  0
   26.7289  -19.9834   -8.0697 C   0  0  0  0  0  0  0  0  0  0  0  0
   25.8693  -20.9257   -8.8518 C   0  0  2  0  0  0  0  0  0  0  0  0
   25.7189  -20.4223  -10.2131 N   0  0  0  0  0  0  0  0  0  0  0  0
   24.5126  -21.1043   -8.2931 C   0  0  0  0  0  0  0  0  0  0  0  0
   23.5290  -20.4373   -8.7411 O   0  0  0  0  0  0  0  0  0  0  0  0
   24.2778  -22.0049   -7.2670 O   0  0  0  0  0  0  0  0  0  0  0  0
  2  1  1  1
  2  4  1  0
  3  2  1  0
  4 11  1  0
  5  4  2  0
  6  7  1  0
  8  9  1  1
  8  7  1  0
 10  8  1  0
 10 12  1  0
 10 11  1  6
 12 13  2  0
 12 19  1  0
 15 14  1  0
 16 15  1  0
 17 16  1  0
 18 17  1  1
 18 20  1  0
 19 18  1  0
 20 22  1  0
 21 20  2  0
M  END
$$$$
