AIM.pdb
     RDKit          3D

 22 21  0  0  1  0  0  0  0  0999 V2000
   11.5692   -8.5465  -13.6867 C   0  0  0  0  0  0  0  0  0  0  0  0
   12.4247   -9.7539  -13.4046 C   0  0  2  0  0  0  0  0  0  0  0  0
   11.5779  -10.8662  -13.0934 N   0  0  0  0  0  0  0  0  0  0  0  0
   13.4447   -9.5046  -12.3628 C   0  0  0  0  0  0  0  0  0  0  0  0
   13.2573   -9.7744  -11.1710 O   0  0  0  0  0  0  0  0  0  0  0  0
   18.7950  -10.8565  -12.8822 C   0  0  0  0  0  0  0  0  0  0  0  0
   17.3230  -10.5660  -12.6277 C   0  0  0  0  0  0  0  0  0  0  0  0
   17.1239   -9.2383  -11.9715 C   0  0  2  0  0  0  0  0  0  0  0  0
   17.9718   -9.1413  -10.7192 C   0  0  0  0  0  0  0  0  0  0  0  0
   15.7698   -8.7761  -11.6986 C   0  0  2  0  0  0  0  0  0  0  0  0
   14.7215   -8.9408  -12.6118 N   0  0  0  0  0  0  0  0  0  0  0  0
   15.6651   -7.4050  -11.1337 C   0  0  0  0  0  0  0  0  0  0  0  0
   15.6701   -6.4326  -11.9261 O   0  0  0  0  0  0  0  0  0  0  0  0
   10.0179   -5.9867   -8.0287 C   0  0  0  0  0  0  0  0  0  0  0  0
   11.6947   -5.9306   -7.3626 S   0  0  0  0  0  0  0  0  0  0  0  0
   12.8536   -5.8648   -8.7711 C   0  0  0  0  0  0  0  0  0  0  0  0
   14.2362   -5.8683   -8.1921 C   0  0  0  0  0  0  0  0  0  0  0  0
   15.3187   -5.8067   -9.2233 C   0  0  2  0  0  0  0  0  0  0  0  0
   15.5605   -7.1470   -9.7473 N   0  0  0  0  0  0  0  0  0  0  0  0
   16.6063   -5.2922   -8.7114 C   0  0  0  0  0  0  0  0  0  0  0  0
   17.5317   -6.0862   -8.3559 O   0  0  0  0  0  0  0  0  0  0  0  0
   16.8382   -3.9305   -8.6071 O   0  0  0  0  0  0  0  0  0  0  0  0
  2  1  1  1
  2  4  1  0
  3  2  1  0
  4 11  1  0
  5  4  2  0
  6  7  1  0
  8  9  1  1
  8  7  1  0
 10  8  1  0
 10 12  1  0
 10 11  1  6
 12 13  2  0
 12 19  1  0
 15 14  1  0
 16 15  1  0
 17 16  1  0
 18 17  1  1
 18 20  1  0
 19 18  1  0
 20 22  1  0
 21 20  2  0
M  END
$$$$
