SWE.pdb
     RDKit          3D

 30 31  0  0  1  0  0  0  0  0999 V2000
   26.7326  -19.2467  -15.5441 O   0  0  0  0  0  0  0  0  0  0  0  0
   27.9633  -19.0152  -14.9529 C   0  0  0  0  0  0  0  0  0  0  0  0
   28.5334  -20.3625  -14.5202 C   0  0  2  0  0  0  0  0  0  0  0  0
   28.4426  -21.2844  -15.6153 N   0  0  0  0  0  0  0  0  0  0  0  0
   27.7356  -20.7934  -13.3421 C   0  0  0  0  0  0  0  0  0  0  0  0
   27.0812  -21.8602  -13.4640 O   0  0  0  0  0  0  0  0  0  0  0  0
   27.7532  -19.9946  -12.1626 N   0  0  0  0  0  0  0  0  0  0  0  0
   27.1247  -20.5418  -10.9826 C   0  0  1  0  0  0  0  0  0  0  0  0
   27.6351  -19.8200   -9.7835 C   0  0  0  0  0  0  0  0  0  0  0  0
   26.9915  -20.3044   -8.5409 C   0  0  0  0  0  0  0  0  0  0  0  0
   25.8906  -21.1177   -8.4358 C   0  0  0  0  0  0  0  0  0  0  0  0
   25.6037  -21.3386   -7.1412 N   0  0  0  0  0  0  0  0  0  0  0  0
   26.5228  -20.6657   -6.3897 C   0  0  0  0  0  0  0  0  0  0  0  0
   26.7062  -20.5392   -5.0210 C   0  0  0  0  0  0  0  0  0  0  0  0
   27.7407  -19.7784   -4.5193 C   0  0  0  0  0  0  0  0  0  0  0  0
   28.6060  -19.1337   -5.3870 C   0  0  0  0  0  0  0  0  0  0  0  0
   28.4394  -19.2479   -6.7405 C   0  0  0  0  0  0  0  0  0  0  0  0
   27.3888  -20.0204   -7.2522 C   0  0  0  0  0  0  0  0  0  0  0  0
   25.6771  -20.5253  -11.1654 C   0  0  0  0  0  0  0  0  0  0  0  0
   25.1796  -19.5076  -11.7423 O   0  0  0  0  0  0  0  0  0  0  0  0
   24.7809  -21.5218  -10.7674 N   0  0  0  0  0  0  0  0  0  0  0  0
   23.3960  -21.5077  -11.1583 C   0  0  1  0  0  0  0  0  0  0  0  0
   22.7076  -20.2309  -10.7653 C   0  0  0  0  0  0  0  0  0  0  0  0
   21.2868  -20.0975  -11.1488 C   0  0  0  0  0  0  0  0  0  0  0  0
   20.6731  -18.7917  -10.8030 C   0  0  0  0  0  0  0  0  0  0  0  0
   20.2977  -17.9309  -11.6354 O   0  0  0  0  0  0  0  0  0  0  0  0
   23.2163  -21.8316  -12.5951 C   0  0  0  0  0  0  0  0  0  0  0  0
   22.0709  -21.9589  -13.1255 O   0  0  0  0  0  0  0  0  0  0  0  0
   20.4656  -18.4230   -9.4585 O   0  0  0  0  0  0  0  0  0  0  0  0
   24.2924  -22.0156  -13.4501 O   0  0  0  0  0  0  0  0  0  0  0  0
  2  3  1  0
  2  1  1  0
  3  4  1  6
  5  6  2  0
  5  3  1  0
  7  5  1  0
  8  7  1  0
  9 10  1  0
  8  9  1  1
 10 18  1  0
 10 11  2  0
 11 12  1  0
 13 12  1  0
 13 14  2  0
 15 14  1  0
 16 15  2  0
 17 18  2  0
 17 16  1  0
 18 13  1  0
 19 20  2  0
 19  8  1  0
 21 19  1  0
 22 23  1  6
 22 21  1  0
 24 25  1  0
 24 23  1  0
 25 29  1  0
 26 25  2  0
 27 22  1  0
 28 27  2  0
 30 27  1  0
M  END
$$$$
