SWE.pdb
     RDKit          3D

 30 31  0  0  1  0  0  0  0  0999 V2000
   21.8851   -9.3779  -21.2768 O   0  0  0  0  0  0  0  0  0  0  0  0
   23.2266   -9.0971  -21.0783 C   0  0  0  0  0  0  0  0  0  0  0  0
   23.6883   -9.8728  -19.8485 C   0  0  2  0  0  0  0  0  0  0  0  0
   23.1554  -11.2033  -19.9051 N   0  0  0  0  0  0  0  0  0  0  0  0
   23.2009   -9.1111  -18.6685 C   0  0  0  0  0  0  0  0  0  0  0  0
   22.2265   -9.6023  -18.0436 O   0  0  0  0  0  0  0  0  0  0  0  0
   23.8481   -7.8925  -18.3139 N   0  0  0  0  0  0  0  0  0  0  0  0
   23.3345   -7.1789  -17.1677 C   0  0  1  0  0  0  0  0  0  0  0  0
   24.4484   -6.9382  -16.2083 C   0  0  0  0  0  0  0  0  0  0  0  0
   24.9082   -8.1976  -15.5798 C   0  0  0  0  0  0  0  0  0  0  0  0
   24.2587   -8.9357  -14.6217 C   0  0  0  0  0  0  0  0  0  0  0  0
   24.9905  -10.0160  -14.2985 N   0  0  0  0  0  0  0  0  0  0  0  0
   26.1295   -9.9881  -15.0497 C   0  0  0  0  0  0  0  0  0  0  0  0
   27.2239  -10.8359  -15.1288 C   0  0  0  0  0  0  0  0  0  0  0  0
   28.2619  -10.5626  -15.9942 C   0  0  0  0  0  0  0  0  0  0  0  0
   28.2140   -9.4324  -16.7927 C   0  0  0  0  0  0  0  0  0  0  0  0
   27.1415   -8.5851  -16.7273 C   0  0  0  0  0  0  0  0  0  0  0  0
   26.0859   -8.8610  -15.8487 C   0  0  0  0  0  0  0  0  0  0  0  0
   22.6248   -5.9900  -17.6282 C   0  0  0  0  0  0  0  0  0  0  0  0
   22.8854   -5.5810  -18.8032 O   0  0  0  0  0  0  0  0  0  0  0  0
   21.6834   -5.2544  -16.9019 N   0  0  0  0  0  0  0  0  0  0  0  0
   20.8536   -4.2524  -17.5170 C   0  0  1  0  0  0  0  0  0  0  0  0
   20.1936   -4.7528  -18.7710 C   0  0  0  0  0  0  0  0  0  0  0  0
   19.2693   -3.8221  -19.4515 C   0  0  0  0  0  0  0  0  0  0  0  0
   18.3628   -4.4613  -20.4369 C   0  0  0  0  0  0  0  0  0  0  0  0
   17.2901   -3.9628  -20.8560 O   0  0  0  0  0  0  0  0  0  0  0  0
   19.8842   -3.6636  -16.5604 C   0  0  0  0  0  0  0  0  0  0  0  0
   19.4224   -4.3134  -15.5736 O   0  0  0  0  0  0  0  0  0  0  0  0
   18.6657   -5.7234  -20.9863 O   0  0  0  0  0  0  0  0  0  0  0  0
   19.4214   -2.3624  -16.6858 O   0  0  0  0  0  0  0  0  0  0  0  0
  2  3  1  0
  2  1  1  0
  3  4  1  6
  5  6  2  0
  5  3  1  0
  7  5  1  0
  8  7  1  0
  9 10  1  0
  8  9  1  1
 10 18  1  0
 10 11  2  0
 11 12  1  0
 13 12  1  0
 13 14  2  0
 15 14  1  0
 16 15  2  0
 17 18  2  0
 17 16  1  0
 18 13  1  0
 19 20  2  0
 19  8  1  0
 21 19  1  0
 22 23  1  6
 22 21  1  0
 24 25  1  0
 24 23  1  0
 25 29  1  0
 26 25  2  0
 27 22  1  0
 28 27  2  0
 30 27  1  0
M  END
$$$$
