SWE.pdb
     RDKit          3D

 30 31  0  0  1  0  0  0  0  0999 V2000
   26.8254  -19.1825  -15.3644 O   0  0  0  0  0  0  0  0  0  0  0  0
   28.1382  -19.2396  -14.9273 C   0  0  0  0  0  0  0  0  0  0  0  0
   28.4194  -20.6712  -14.4818 C   0  0  2  0  0  0  0  0  0  0  0  0
   28.1240  -21.5662  -15.5631 N   0  0  0  0  0  0  0  0  0  0  0  0
   27.5640  -20.9122  -13.2900 C   0  0  0  0  0  0  0  0  0  0  0  0
   26.6294  -21.7424  -13.4254 O   0  0  0  0  0  0  0  0  0  0  0  0
   27.8410  -20.2072  -12.0834 N   0  0  0  0  0  0  0  0  0  0  0  0
   27.0821  -20.5769  -10.9111 C   0  0  1  0  0  0  0  0  0  0  0  0
   27.7408  -19.9994   -9.7061 C   0  0  0  0  0  0  0  0  0  0  0  0
   27.0218  -20.3648   -8.4643 C   0  0  0  0  0  0  0  0  0  0  0  0
   25.7788  -20.9379   -8.3596 C   0  0  0  0  0  0  0  0  0  0  0  0
   25.4632  -21.1193   -7.0655 N   0  0  0  0  0  0  0  0  0  0  0  0
   26.5064  -20.6620   -6.3139 C   0  0  0  0  0  0  0  0  0  0  0  0
   26.7228  -20.6007   -4.9455 C   0  0  0  0  0  0  0  0  0  0  0  0
   27.8950  -20.0765   -4.4436 C   0  0  0  0  0  0  0  0  0  0  0  0
   28.8667  -19.6063   -5.3106 C   0  0  0  0  0  0  0  0  0  0  0  0
   28.6694  -19.6593   -6.6637 C   0  0  0  0  0  0  0  0  0  0  0  0
   27.4791  -20.1915   -7.1758 C   0  0  0  0  0  0  0  0  0  0  0  0
   25.6861  -20.2029  -11.1125 C   0  0  0  0  0  0  0  0  0  0  0  0
   25.4605  -19.0373  -11.5668 O   0  0  0  0  0  0  0  0  0  0  0  0
   24.5690  -21.0030  -10.8541 N   0  0  0  0  0  0  0  0  0  0  0  0
   23.2661  -20.6933  -11.3810 C   0  0  1  0  0  0  0  0  0  0  0  0
   22.9029  -21.5673  -12.5483 C   0  0  0  0  0  0  0  0  0  0  0  0
   21.5559  -21.3779  -13.1256 C   0  0  0  0  0  0  0  0  0  0  0  0
   21.2505  -22.2544  -14.2831 C   0  0  0  0  0  0  0  0  0  0  0  0
   22.0363  -23.1038  -14.7687 O   0  0  0  0  0  0  0  0  0  0  0  0
   22.2221  -20.6898  -10.3268 C   0  0  0  0  0  0  0  0  0  0  0  0
   22.3300  -21.3684   -9.2604 O   0  0  0  0  0  0  0  0  0  0  0  0
   20.0035  -22.1825  -14.9361 O   0  0  0  0  0  0  0  0  0  0  0  0
   21.0599  -19.9420  -10.4418 O   0  0  0  0  0  0  0  0  0  0  0  0
  2  3  1  0
  2  1  1  0
  3  4  1  6
  5  6  2  0
  5  3  1  0
  7  5  1  0
  8  7  1  0
  9 10  1  0
  8  9  1  1
 10 18  1  0
 10 11  2  0
 11 12  1  0
 13 12  1  0
 13 14  2  0
 15 14  1  0
 16 15  2  0
 17 18  2  0
 17 16  1  0
 18 13  1  0
 19 20  2  0
 19  8  1  0
 21 19  1  0
 22 23  1  6
 22 21  1  0
 24 25  1  0
 24 23  1  0
 25 29  1  0
 26 25  2  0
 27 22  1  0
 28 27  2  0
 30 27  1  0
M  END
$$$$
