SWE.pdb
     RDKit          3D

 30 31  0  0  1  0  0  0  0  0999 V2000
   28.7112  -18.1343  -14.4377 O   0  0  0  0  0  0  0  0  0  0  0  0
   27.8048  -19.1811  -14.4568 C   0  0  0  0  0  0  0  0  0  0  0  0
   28.5210  -20.4274  -13.9458 C   0  0  2  0  0  0  0  0  0  0  0  0
   28.8646  -21.2619  -15.0607 N   0  0  0  0  0  0  0  0  0  0  0  0
   27.5820  -21.0903  -13.0030 C   0  0  0  0  0  0  0  0  0  0  0  0
   26.7385  -21.8754  -13.5062 O   0  0  0  0  0  0  0  0  0  0  0  0
   27.6840  -20.8093  -11.6101 N   0  0  0  0  0  0  0  0  0  0  0  0
   26.6916  -21.3983  -10.7412 C   0  0  1  0  0  0  0  0  0  0  0  0
   27.3285  -21.7353   -9.4374 C   0  0  0  0  0  0  0  0  0  0  0  0
   27.2866  -20.5910   -8.4984 C   0  0  0  0  0  0  0  0  0  0  0  0
   26.5009  -19.4688   -8.5878 C   0  0  0  0  0  0  0  0  0  0  0  0
   26.7445  -18.6526   -7.5478 N   0  0  0  0  0  0  0  0  0  0  0  0
   27.6973  -19.2425   -6.7690 C   0  0  0  0  0  0  0  0  0  0  0  0
   28.3194  -18.8565   -5.5913 C   0  0  0  0  0  0  0  0  0  0  0  0
   29.2709  -19.6629   -5.0037 C   0  0  0  0  0  0  0  0  0  0  0  0
   29.6106  -20.8694   -5.5922 C   0  0  0  0  0  0  0  0  0  0  0  0
   29.0064  -21.2655   -6.7544 C   0  0  0  0  0  0  0  0  0  0  0  0
   28.0394  -20.4476   -7.3530 C   0  0  0  0  0  0  0  0  0  0  0  0
   25.5349  -20.5113  -10.6726 C   0  0  0  0  0  0  0  0  0  0  0  0
   25.7556  -19.2648  -10.7890 O   0  0  0  0  0  0  0  0  0  0  0  0
   24.2039  -20.8988  -10.4909 N   0  0  0  0  0  0  0  0  0  0  0  0
   23.1480  -20.4431  -11.3560 C   0  0  1  0  0  0  0  0  0  0  0  0
   23.4910  -20.6134  -12.8093 C   0  0  0  0  0  0  0  0  0  0  0  0
   22.4536  -20.2224  -13.7863 C   0  0  0  0  0  0  0  0  0  0  0  0
   22.3200  -21.1382  -14.9459 C   0  0  0  0  0  0  0  0  0  0  0  0
   21.2315  -21.4970  -15.4569 O   0  0  0  0  0  0  0  0  0  0  0  0
   21.8382  -21.0460  -11.0065 C   0  0  0  0  0  0  0  0  0  0  0  0
   21.7008  -22.2851  -10.7717 O   0  0  0  0  0  0  0  0  0  0  0  0
   23.4587  -21.6846  -15.5714 O   0  0  0  0  0  0  0  0  0  0  0  0
   20.6791  -20.2902  -10.9142 O   0  0  0  0  0  0  0  0  0  0  0  0
  2  3  1  0
  2  1  1  0
  3  4  1  6
  5  6  2  0
  5  3  1  0
  7  5  1  0
  8  7  1  0
  9 10  1  0
  8  9  1  1
 10 18  1  0
 10 11  2  0
 11 12  1  0
 13 12  1  0
 13 14  2  0
 15 14  1  0
 16 15  2  0
 17 18  2  0
 17 16  1  0
 18 13  1  0
 19 20  2  0
 19  8  1  0
 21 19  1  0
 22 23  1  6
 22 21  1  0
 24 25  1  0
 24 23  1  0
 25 29  1  0
 26 25  2  0
 27 22  1  0
 28 27  2  0
 30 27  1  0
M  END
$$$$
