SWE.pdb
     RDKit          3D

 30 31  0  0  1  0  0  0  0  0999 V2000
   26.7587  -19.8166  -15.7111 O   0  0  0  0  0  0  0  0  0  0  0  0
   27.6327  -19.4195  -14.7131 C   0  0  0  0  0  0  0  0  0  0  0  0
   28.1199  -20.6736  -13.9939 C   0  0  2  0  0  0  0  0  0  0  0  0
   28.3963  -21.6936  -14.9638 N   0  0  0  0  0  0  0  0  0  0  0  0
   27.0379  -21.0597  -13.0504 C   0  0  0  0  0  0  0  0  0  0  0  0
   26.3395  -22.0552  -13.3703 O   0  0  0  0  0  0  0  0  0  0  0  0
   26.8523  -20.3001  -11.8595 N   0  0  0  0  0  0  0  0  0  0  0  0
   25.7715  -20.6927  -10.9852 C   0  0  1  0  0  0  0  0  0  0  0  0
   26.0070  -20.1122   -9.6336 C   0  0  0  0  0  0  0  0  0  0  0  0
   27.2791  -20.5932   -9.0479 C   0  0  0  0  0  0  0  0  0  0  0  0
   28.1760  -21.4679   -9.6091 C   0  0  0  0  0  0  0  0  0  0  0  0
   29.2116  -21.6636   -8.7746 N   0  0  0  0  0  0  0  0  0  0  0  0
   28.9939  -20.9120   -7.6565 C   0  0  0  0  0  0  0  0  0  0  0  0
   29.7210  -20.7312   -6.4897 C   0  0  0  0  0  0  0  0  0  0  0  0
   29.2575  -19.8942   -5.4970 C   0  0  0  0  0  0  0  0  0  0  0  0
   28.0558  -19.2268   -5.6635 C   0  0  0  0  0  0  0  0  0  0  0  0
   27.3257  -19.3938   -6.8088 C   0  0  0  0  0  0  0  0  0  0  0  0
   27.7949  -20.2438   -7.8186 C   0  0  0  0  0  0  0  0  0  0  0  0
   24.5020  -20.3433  -11.6141 C   0  0  0  0  0  0  0  0  0  0  0  0
   24.4582  -19.2470  -12.2560 O   0  0  0  0  0  0  0  0  0  0  0  0
   23.3256  -21.0981  -11.5800 N   0  0  0  0  0  0  0  0  0  0  0  0
   22.1432  -20.7076  -12.3014 C   0  0  1  0  0  0  0  0  0  0  0  0
   21.8754  -21.6015  -13.4794 C   0  0  0  0  0  0  0  0  0  0  0  0
   21.4533  -22.9856  -13.1799 C   0  0  0  0  0  0  0  0  0  0  0  0
   20.3670  -23.5023  -14.0485 C   0  0  0  0  0  0  0  0  0  0  0  0
   20.4402  -23.6249  -15.2953 O   0  0  0  0  0  0  0  0  0  0  0  0
   20.9638  -20.5708  -11.4117 C   0  0  0  0  0  0  0  0  0  0  0  0
   20.9862  -20.9243  -10.1935 O   0  0  0  0  0  0  0  0  0  0  0  0
   19.1321  -23.9046  -13.5009 O   0  0  0  0  0  0  0  0  0  0  0  0
   19.7600  -20.0463  -11.8576 O   0  0  0  0  0  0  0  0  0  0  0  0
  2  3  1  0
  2  1  1  0
  3  4  1  6
  5  6  2  0
  5  3  1  0
  7  5  1  0
  8  7  1  0
  9 10  1  0
  8  9  1  1
 10 18  1  0
 10 11  2  0
 11 12  1  0
 13 12  1  0
 13 14  2  0
 15 14  1  0
 16 15  2  0
 17 18  2  0
 17 16  1  0
 18 13  1  0
 19 20  2  0
 19  8  1  0
 21 19  1  0
 22 23  1  6
 22 21  1  0
 24 25  1  0
 24 23  1  0
 25 29  1  0
 26 25  2  0
 27 22  1  0
 28 27  2  0
 30 27  1  0
M  END
$$$$
