SWE.pdb
     RDKit          3D

 30 31  0  0  1  0  0  0  0  0999 V2000
   26.8475  -19.0809  -15.1732 O   0  0  0  0  0  0  0  0  0  0  0  0
   28.1722  -19.4083  -14.9375 C   0  0  0  0  0  0  0  0  0  0  0  0
   28.2429  -20.9106  -14.6819 C   0  0  2  0  0  0  0  0  0  0  0  0
   27.6987  -21.6054  -15.8126 N   0  0  0  0  0  0  0  0  0  0  0  0
   27.4733  -21.1576  -13.4342 C   0  0  0  0  0  0  0  0  0  0  0  0
   26.4217  -21.8379  -13.5457 O   0  0  0  0  0  0  0  0  0  0  0  0
   27.9557  -20.6238  -12.2046 N   0  0  0  0  0  0  0  0  0  0  0  0
   27.1887  -20.9064  -11.0135 C   0  0  1  0  0  0  0  0  0  0  0  0
   27.9837  -20.5054   -9.8192 C   0  0  0  0  0  0  0  0  0  0  0  0
   27.1824  -20.5917   -8.5770 C   0  0  0  0  0  0  0  0  0  0  0  0
   25.8744  -20.9906   -8.4558 C   0  0  0  0  0  0  0  0  0  0  0  0
   25.4943  -20.9364   -7.1675 N   0  0  0  0  0  0  0  0  0  0  0  0
   26.5602  -20.4986   -6.4364 C   0  0  0  0  0  0  0  0  0  0  0  0
   26.7354  -20.2583   -5.0819 C   0  0  0  0  0  0  0  0  0  0  0  0
   27.9462  -19.8077   -4.6004 C   0  0  0  0  0  0  0  0  0  0  0  0
   28.9984  -19.5922   -5.4742 C   0  0  0  0  0  0  0  0  0  0  0  0
   28.8426  -19.8243   -6.8138 C   0  0  0  0  0  0  0  0  0  0  0  0
   27.6133  -20.2821   -7.3051 C   0  0  0  0  0  0  0  0  0  0  0  0
   25.8735  -20.2867  -11.1383 C   0  0  0  0  0  0  0  0  0  0  0  0
   25.8341  -19.0164  -11.1652 O   0  0  0  0  0  0  0  0  0  0  0  0
   24.6488  -20.9547  -11.2316 N   0  0  0  0  0  0  0  0  0  0  0  0
   23.4025  -20.2522  -11.3872 C   0  0  1  0  0  0  0  0  0  0  0  0
   22.8635  -20.3545  -12.7863 C   0  0  0  0  0  0  0  0  0  0  0  0
   23.6102  -19.6356  -13.8395 C   0  0  0  0  0  0  0  0  0  0  0  0
   23.2204  -19.9916  -15.2261 C   0  0  0  0  0  0  0  0  0  0  0  0
   22.3324  -20.8237  -15.5322 O   0  0  0  0  0  0  0  0  0  0  0  0
   22.4047  -20.6485  -10.3631 C   0  0  0  0  0  0  0  0  0  0  0  0
   22.4908  -21.7353   -9.7143 O   0  0  0  0  0  0  0  0  0  0  0  0
   23.8525  -19.3894  -16.3327 O   0  0  0  0  0  0  0  0  0  0  0  0
   21.3127  -19.8530  -10.0502 O   0  0  0  0  0  0  0  0  0  0  0  0
  2  3  1  0
  2  1  1  0
  3  4  1  6
  5  6  2  0
  5  3  1  0
  7  5  1  0
  8  7  1  0
  9 10  1  0
  8  9  1  1
 10 18  1  0
 10 11  2  0
 11 12  1  0
 13 12  1  0
 13 14  2  0
 15 14  1  0
 16 15  2  0
 17 18  2  0
 17 16  1  0
 18 13  1  0
 19 20  2  0
 19  8  1  0
 21 19  1  0
 22 23  1  6
 22 21  1  0
 24 25  1  0
 24 23  1  0
 25 29  1  0
 26 25  2  0
 27 22  1  0
 28 27  2  0
 30 27  1  0
M  END
$$$$
