ICW.pdb
     RDKit          3D

 29 30  0  0  1  0  0  0  0  0999 V2000
    7.8013  -11.8110   18.6627 C   0  0  0  0  0  0  0  0  0  0  0  0
    8.3296  -13.1343   18.1663 C   0  0  0  0  0  0  0  0  0  0  0  0
    8.4245  -14.1565   19.2785 C   0  0  2  0  0  0  0  0  0  0  0  0
    9.4381  -13.6136   20.2816 C   0  0  0  0  0  0  0  0  0  0  0  0
    8.8991  -15.4802   18.7526 C   0  0  2  0  0  0  0  0  0  0  0  0
    8.0591  -15.8735   17.6554 N   0  0  0  0  0  0  0  0  0  0  0  0
    9.0136  -16.5108   19.7948 C   0  0  0  0  0  0  0  0  0  0  0  0
    8.3265  -17.5714   19.7971 O   0  0  0  0  0  0  0  0  0  0  0  0
    9.9251  -16.3970   20.9084 N   0  0  0  0  0  0  0  0  0  0  0  0
   10.1096  -17.4379   21.8697 C   0  0  1  0  0  0  0  0  0  0  0  0
   10.5621  -18.7085   21.2086 C   0  0  0  0  0  0  0  0  0  0  0  0
   10.8748  -20.0491   22.3505 S   0  0  0  0  0  0  0  0  0  0  0  0
   10.9729  -17.0425   23.0100 C   0  0  0  0  0  0  0  0  0  0  0  0
   12.0814  -16.5032   22.7616 O   0  0  0  0  0  0  0  0  0  0  0  0
   10.6426  -17.2270   24.3663 N   0  0  0  0  0  0  0  0  0  0  0  0
   10.2002  -16.1676   25.2542 C   0  0  1  0  0  0  0  0  0  0  0  0
    9.2435  -15.3165   24.4475 C   0  0  0  0  0  0  0  0  0  0  0  0
    8.0185  -14.9824   25.1811 C   0  0  0  0  0  0  0  0  0  0  0  0
    6.9670  -15.8111   25.5053 C   0  0  0  0  0  0  0  0  0  0  0  0
    6.0322  -15.1244   26.1835 N   0  0  0  0  0  0  0  0  0  0  0  0
    6.4249  -13.8315   26.3319 C   0  0  0  0  0  0  0  0  0  0  0  0
    5.8524  -12.7322   26.9332 C   0  0  0  0  0  0  0  0  0  0  0  0
    6.4858  -11.5159   26.9344 C   0  0  0  0  0  0  0  0  0  0  0  0
    7.7150  -11.4224   26.3156 C   0  0  0  0  0  0  0  0  0  0  0  0
    8.2987  -12.5146   25.7103 C   0  0  0  0  0  0  0  0  0  0  0  0
    7.6637  -13.7586   25.7024 C   0  0  0  0  0  0  0  0  0  0  0  0
    9.5762  -16.7573   26.4400 C   0  0  0  0  0  0  0  0  0  0  0  0
    9.6649  -16.1370   27.6741 O   0  0  0  0  0  0  0  0  0  0  0  0
    8.9517  -17.8372   26.3475 O   0  0  0  0  0  0  0  0  0  0  0  0
  2  1  1  0
  3  4  1  1
  3  2  1  0
  5  6  1  6
  5  3  1  0
  7  5  1  0
  8  7  2  0
  9  7  1  0
 10  9  1  0
 10 11  1  6
 12 11  1  0
 13 10  1  0
 13 14  2  0
 15 13  1  0
 16 15  1  0
 16 17  1  6
 17 18  1  0
 18 26  1  0
 18 19  2  0
 19 20  1  0
 21 22  2  0
 21 20  1  0
 23 22  1  0
 24 23  2  0
 25 24  1  0
 25 26  2  0
 26 21  1  0
 27 16  1  0
 28 27  1  0
 29 27  2  0
M  END
$$$$
