ICW.pdb
     RDKit          3D

 29 30  0  0  1  0  0  0  0  0999 V2000
    7.8478  -11.4510   18.7361 C   0  0  0  0  0  0  0  0  0  0  0  0
    8.3631  -12.8337   18.4215 C   0  0  0  0  0  0  0  0  0  0  0  0
    8.0432  -13.8192   19.5250 C   0  0  2  0  0  0  0  0  0  0  0  0
    8.8017  -13.3469   20.7619 C   0  0  0  0  0  0  0  0  0  0  0  0
    8.4954  -15.2028   19.1575 C   0  0  2  0  0  0  0  0  0  0  0  0
    7.8347  -15.6021   17.9458 N   0  0  0  0  0  0  0  0  0  0  0  0
    8.3396  -16.1732   20.2507 C   0  0  0  0  0  0  0  0  0  0  0  0
    7.4982  -17.1157   20.2243 O   0  0  0  0  0  0  0  0  0  0  0  0
    9.1388  -16.1306   21.4522 N   0  0  0  0  0  0  0  0  0  0  0  0
    9.0374  -17.1107   22.4869 C   0  0  1  0  0  0  0  0  0  0  0  0
    9.1960  -18.4980   21.9330 C   0  0  0  0  0  0  0  0  0  0  0  0
    9.2978  -19.7717   23.1843 S   0  0  0  0  0  0  0  0  0  0  0  0
    9.9311  -16.8456   23.6413 C   0  0  0  0  0  0  0  0  0  0  0  0
   11.1743  -16.8767   23.4543 O   0  0  0  0  0  0  0  0  0  0  0  0
    9.4892  -16.5582   24.9470 N   0  0  0  0  0  0  0  0  0  0  0  0
   10.3546  -16.4940   26.1103 C   0  0  1  0  0  0  0  0  0  0  0  0
    9.7429  -15.4611   27.0317 C   0  0  0  0  0  0  0  0  0  0  0  0
    8.3449  -15.1616   26.7060 C   0  0  0  0  0  0  0  0  0  0  0  0
    7.3109  -16.0470   26.4950 C   0  0  0  0  0  0  0  0  0  0  0  0
    6.1796  -15.3763   26.2201 N   0  0  0  0  0  0  0  0  0  0  0  0
    6.4191  -14.0383   26.2385 C   0  0  0  0  0  0  0  0  0  0  0  0
    5.6251  -12.9323   26.0285 C   0  0  0  0  0  0  0  0  0  0  0  0
    6.1411  -11.6645   26.1115 C   0  0  0  0  0  0  0  0  0  0  0  0
    7.4801  -11.5259   26.4119 C   0  0  0  0  0  0  0  0  0  0  0  0
    8.2854  -12.6242   26.6243 C   0  0  0  0  0  0  0  0  0  0  0  0
    7.7719  -13.9205   26.5425 C   0  0  0  0  0  0  0  0  0  0  0  0
   10.4440  -17.8210   26.7223 C   0  0  0  0  0  0  0  0  0  0  0  0
   11.4019  -18.0994   27.6818 O   0  0  0  0  0  0  0  0  0  0  0  0
    9.6482  -18.7234   26.3800 O   0  0  0  0  0  0  0  0  0  0  0  0
  2  1  1  0
  3  4  1  1
  3  2  1  0
  5  6  1  6
  5  3  1  0
  7  5  1  0
  8  7  2  0
  9  7  1  0
 10  9  1  0
 10 11  1  6
 12 11  1  0
 13 10  1  0
 13 14  2  0
 15 13  1  0
 16 15  1  0
 16 17  1  1
 17 18  1  0
 18 26  1  0
 18 19  2  0
 19 20  1  0
 21 22  2  0
 21 20  1  0
 23 22  1  0
 24 23  2  0
 25 24  1  0
 25 26  2  0
 26 21  1  0
 27 16  1  0
 28 27  1  0
 29 27  2  0
M  END
$$$$
