ICW.pdb
     RDKit          3D

 29 30  0  0  1  0  0  0  0  0999 V2000
    8.0541  -11.8007   18.7702 C   0  0  0  0  0  0  0  0  0  0  0  0
    8.1536  -13.2872   18.5314 C   0  0  0  0  0  0  0  0  0  0  0  0
    8.2891  -14.0584   19.8268 C   0  0  2  0  0  0  0  0  0  0  0  0
    9.6120  -13.6265   20.4527 C   0  0  0  0  0  0  0  0  0  0  0  0
    8.3148  -15.5376   19.5712 C   0  0  2  0  0  0  0  0  0  0  0  0
    7.1611  -15.8958   18.7934 N   0  0  0  0  0  0  0  0  0  0  0  0
    8.4589  -16.3355   20.7976 C   0  0  0  0  0  0  0  0  0  0  0  0
    7.5179  -16.5116   21.6226 O   0  0  0  0  0  0  0  0  0  0  0  0
    9.6935  -16.9877   21.1640 N   0  0  0  0  0  0  0  0  0  0  0  0
    9.8396  -17.7572   22.3591 C   0  0  1  0  0  0  0  0  0  0  0  0
   10.6938  -18.9692   22.1190 C   0  0  0  0  0  0  0  0  0  0  0  0
   12.1330  -18.6535   21.1053 S   0  0  0  0  0  0  0  0  0  0  0  0
   10.2890  -16.9573   23.5253 C   0  0  0  0  0  0  0  0  0  0  0  0
   11.1600  -16.0691   23.3410 O   0  0  0  0  0  0  0  0  0  0  0  0
    9.8096  -17.1181   24.8394 N   0  0  0  0  0  0  0  0  0  0  0  0
   10.4473  -16.5624   26.0189 C   0  0  1  0  0  0  0  0  0  0  0  0
    9.9793  -15.1263   26.1115 C   0  0  0  0  0  0  0  0  0  0  0  0
    8.5236  -15.0072   26.2424 C   0  0  0  0  0  0  0  0  0  0  0  0
    7.5793  -16.0090   26.1957 C   0  0  0  0  0  0  0  0  0  0  0  0
    6.3502  -15.4908   26.3574 N   0  0  0  0  0  0  0  0  0  0  0  0
    6.4336  -14.1433   26.5153 C   0  0  0  0  0  0  0  0  0  0  0  0
    5.4951  -13.1540   26.7112 C   0  0  0  0  0  0  0  0  0  0  0  0
    5.8676  -11.8407   26.8417 C   0  0  0  0  0  0  0  0  0  0  0  0
    7.2110  -11.5359   26.7714 C   0  0  0  0  0  0  0  0  0  0  0  0
    8.1600  -12.5161   26.5757 C   0  0  0  0  0  0  0  0  0  0  0  0
    7.7934  -13.8571   26.4413 C   0  0  0  0  0  0  0  0  0  0  0  0
   10.0777  -17.3584   27.1907 C   0  0  0  0  0  0  0  0  0  0  0  0
   10.6029  -17.0736   28.4392 O   0  0  0  0  0  0  0  0  0  0  0  0
    9.2766  -18.3119   27.0728 O   0  0  0  0  0  0  0  0  0  0  0  0
  2  1  1  0
  3  4  1  6
  3  2  1  0
  5  6  1  1
  5  3  1  0
  7  5  1  0
  8  7  2  0
  9  7  1  0
 10  9  1  0
 10 11  1  6
 12 11  1  0
 13 10  1  0
 13 14  2  0
 15 13  1  0
 16 15  1  0
 16 17  1  1
 17 18  1  0
 18 26  1  0
 18 19  2  0
 19 20  1  0
 21 22  2  0
 21 20  1  0
 23 22  1  0
 24 23  2  0
 25 24  1  0
 25 26  2  0
 26 21  1  0
 27 16  1  0
 28 27  1  0
 29 27  2  0
M  END
$$$$
