ICW.pdb
     RDKit          3D

 29 30  0  0  1  0  0  0  0  0999 V2000
    7.0880  -11.9140   19.4156 C   0  0  0  0  0  0  0  0  0  0  0  0
    7.8045  -13.1992   19.0817 C   0  0  0  0  0  0  0  0  0  0  0  0
    7.8547  -14.1407   20.2658 C   0  0  2  0  0  0  0  0  0  0  0  0
    8.6621  -13.4323   21.3496 C   0  0  0  0  0  0  0  0  0  0  0  0
    8.5309  -15.4299   19.8989 C   0  0  2  0  0  0  0  0  0  0  0  0
    7.8627  -15.9988   18.7613 N   0  0  0  0  0  0  0  0  0  0  0  0
    8.6515  -16.3633   21.0282 C   0  0  0  0  0  0  0  0  0  0  0  0
    7.6912  -17.0701   21.4469 O   0  0  0  0  0  0  0  0  0  0  0  0
    9.8831  -16.5515   21.7574 N   0  0  0  0  0  0  0  0  0  0  0  0
    9.9979  -17.4399   22.8706 C   0  0  1  0  0  0  0  0  0  0  0  0
   10.9461  -18.5647   22.5673 C   0  0  0  0  0  0  0  0  0  0  0  0
   11.0968  -19.7625   23.8869 S   0  0  0  0  0  0  0  0  0  0  0  0
   10.3112  -16.7504   24.1466 C   0  0  0  0  0  0  0  0  0  0  0  0
   11.1725  -15.8340   24.1351 O   0  0  0  0  0  0  0  0  0  0  0  0
    9.7111  -17.0466   25.3854 N   0  0  0  0  0  0  0  0  0  0  0  0
   10.1056  -16.4544   26.6504 C   0  0  1  0  0  0  0  0  0  0  0  0
    8.8399  -16.3374   27.4716 C   0  0  0  0  0  0  0  0  0  0  0  0
    7.7963  -15.5527   26.8041 C   0  0  0  0  0  0  0  0  0  0  0  0
    6.6608  -16.0089   26.1718 C   0  0  0  0  0  0  0  0  0  0  0  0
    5.9571  -14.9727   25.6855 N   0  0  0  0  0  0  0  0  0  0  0  0
    6.5925  -13.8061   25.9740 C   0  0  0  0  0  0  0  0  0  0  0  0
    6.3075  -12.4839   25.7124 C   0  0  0  0  0  0  0  0  0  0  0  0
    7.1456  -11.4828   26.1315 C   0  0  0  0  0  0  0  0  0  0  0  0
    8.2850  -11.8360   26.8240 C   0  0  0  0  0  0  0  0  0  0  0  0
    8.5818  -13.1550   27.0923 C   0  0  0  0  0  0  0  0  0  0  0  0
    7.7362  -14.1837   26.6709 C   0  0  0  0  0  0  0  0  0  0  0  0
   11.1203  -17.2974   27.2852 C   0  0  0  0  0  0  0  0  0  0  0  0
   11.8231  -16.8543   28.3922 O   0  0  0  0  0  0  0  0  0  0  0  0
   11.3634  -18.4363   26.8285 O   0  0  0  0  0  0  0  0  0  0  0  0
  2  1  1  0
  3  4  1  1
  3  2  1  0
  5  6  1  6
  5  3  1  0
  7  5  1  0
  8  7  2  0
  9  7  1  0
 10  9  1  0
 10 11  1  6
 12 11  1  0
 13 10  1  0
 13 14  2  0
 15 13  1  0
 16 15  1  0
 16 17  1  1
 17 18  1  0
 18 26  1  0
 18 19  2  0
 19 20  1  0
 21 22  2  0
 21 20  1  0
 23 22  1  0
 24 23  2  0
 25 24  1  0
 25 26  2  0
 26 21  1  0
 27 16  1  0
 28 27  1  0
 29 27  2  0
M  END
$$$$
