ICW.pdb
     RDKit          3D

 29 30  0  0  1  0  0  0  0  0999 V2000
    7.4121  -11.8612   18.3429 C   0  0  0  0  0  0  0  0  0  0  0  0
    8.1268  -13.1292   17.9460 C   0  0  0  0  0  0  0  0  0  0  0  0
    8.6400  -13.8880   19.1509 C   0  0  2  0  0  0  0  0  0  0  0  0
    9.6574  -12.9793   19.8350 C   0  0  0  0  0  0  0  0  0  0  0  0
    9.3089  -15.1664   18.7360 C   0  0  2  0  0  0  0  0  0  0  0  0
    8.4243  -15.8947   17.8693 N   0  0  0  0  0  0  0  0  0  0  0  0
    9.7938  -15.9626   19.8728 C   0  0  0  0  0  0  0  0  0  0  0  0
    9.0329  -16.6547   20.6070 O   0  0  0  0  0  0  0  0  0  0  0  0
   11.1867  -16.0206   20.2476 N   0  0  0  0  0  0  0  0  0  0  0  0
   11.6398  -16.6298   21.4580 C   0  0  1  0  0  0  0  0  0  0  0  0
   13.1293  -16.8235   21.4395 C   0  0  0  0  0  0  0  0  0  0  0  0
   13.8464  -16.7805   19.8016 S   0  0  0  0  0  0  0  0  0  0  0  0
   11.1639  -15.9382   22.6815 C   0  0  0  0  0  0  0  0  0  0  0  0
   11.0150  -14.6900   22.6430 O   0  0  0  0  0  0  0  0  0  0  0  0
   10.8622  -16.5796   23.8981 N   0  0  0  0  0  0  0  0  0  0  0  0
    9.9768  -16.0386   24.9130 C   0  0  1  0  0  0  0  0  0  0  0  0
    8.6511  -15.7935   24.2256 C   0  0  0  0  0  0  0  0  0  0  0  0
    7.6337  -15.2425   25.1265 C   0  0  0  0  0  0  0  0  0  0  0  0
    6.5498  -15.8856   25.6824 C   0  0  0  0  0  0  0  0  0  0  0  0
    5.8550  -15.0330   26.4543 N   0  0  0  0  0  0  0  0  0  0  0  0
    6.4455  -13.8088   26.4385 C   0  0  0  0  0  0  0  0  0  0  0  0
    6.1483  -12.6073   27.0436 C   0  0  0  0  0  0  0  0  0  0  0  0
    6.9366  -11.5024   26.8486 C   0  0  0  0  0  0  0  0  0  0  0  0
    8.0383  -11.6263   26.0281 C   0  0  0  0  0  0  0  0  0  0  0  0
    8.3469  -12.8226   25.4167 C   0  0  0  0  0  0  0  0  0  0  0  0
    7.5519  -13.9550   25.6074 C   0  0  0  0  0  0  0  0  0  0  0  0
    9.8754  -16.9868   26.0238 C   0  0  0  0  0  0  0  0  0  0  0  0
    9.5997  -16.5516   27.3084 O   0  0  0  0  0  0  0  0  0  0  0  0
   10.0387  -18.2102   25.8199 O   0  0  0  0  0  0  0  0  0  0  0  0
  2  1  1  0
  3  4  1  6
  3  2  1  0
  5  6  1  1
  5  3  1  0
  7  5  1  0
  8  7  2  0
  9  7  1  0
 10  9  1  0
 10 11  1  6
 12 11  1  0
 13 10  1  0
 13 14  2  0
 15 13  1  0
 16 15  1  0
 16 17  1  6
 17 18  1  0
 18 26  1  0
 18 19  2  0
 19 20  1  0
 21 22  2  0
 21 20  1  0
 23 22  1  0
 24 23  2  0
 25 24  1  0
 25 26  2  0
 26 21  1  0
 27 16  1  0
 28 27  1  0
 29 27  2  0
M  END
$$$$
