ICW.pdb
     RDKit          3D

 29 30  0  0  1  0  0  0  0  0999 V2000
    6.9928  -12.2459   17.7854 C   0  0  0  0  0  0  0  0  0  0  0  0
    8.1372  -13.2059   17.9978 C   0  0  0  0  0  0  0  0  0  0  0  0
    8.0749  -13.8652   19.3589 C   0  0  2  0  0  0  0  0  0  0  0  0
    8.2667  -12.7550   20.3881 C   0  0  0  0  0  0  0  0  0  0  0  0
    9.1659  -14.8851   19.5124 C   0  0  2  0  0  0  0  0  0  0  0  0
    9.2515  -15.6604   18.3058 N   0  0  0  0  0  0  0  0  0  0  0  0
    9.0245  -15.7077   20.7225 C   0  0  0  0  0  0  0  0  0  0  0  0
    8.7519  -15.2256   21.8585 O   0  0  0  0  0  0  0  0  0  0  0  0
    9.1860  -17.1422   20.7147 N   0  0  0  0  0  0  0  0  0  0  0  0
    9.1213  -17.9369   21.9004 C   0  0  1  0  0  0  0  0  0  0  0  0
    9.4895  -19.3646   21.6134 C   0  0  0  0  0  0  0  0  0  0  0  0
    9.6821  -20.3728   23.0781 S   0  0  0  0  0  0  0  0  0  0  0  0
    9.8816  -17.3632   23.0382 C   0  0  0  0  0  0  0  0  0  0  0  0
   11.0688  -16.9984   22.8404 O   0  0  0  0  0  0  0  0  0  0  0  0
    9.3702  -17.1936   24.3390 N   0  0  0  0  0  0  0  0  0  0  0  0
   10.1403  -16.6980   25.4650 C   0  0  1  0  0  0  0  0  0  0  0  0
    9.8299  -15.2204   25.5676 C   0  0  0  0  0  0  0  0  0  0  0  0
    8.4038  -14.9494   25.7754 C   0  0  0  0  0  0  0  0  0  0  0  0
    7.3400  -15.8075   25.6047 C   0  0  0  0  0  0  0  0  0  0  0  0
    6.1896  -15.1785   25.8987 N   0  0  0  0  0  0  0  0  0  0  0  0
    6.4456  -13.8963   26.2703 C   0  0  0  0  0  0  0  0  0  0  0  0
    5.6436  -12.8472   26.6629 C   0  0  0  0  0  0  0  0  0  0  0  0
    6.1814  -11.6289   26.9902 C   0  0  0  0  0  0  0  0  0  0  0  0
    7.5508  -11.4816   26.9157 C   0  0  0  0  0  0  0  0  0  0  0  0
    8.3644  -12.5232   26.5244 C   0  0  0  0  0  0  0  0  0  0  0  0
    7.8288  -13.7686   26.1886 C   0  0  0  0  0  0  0  0  0  0  0  0
    9.7713  -17.4423   26.6704 C   0  0  0  0  0  0  0  0  0  0  0  0
    8.8765  -18.4966   26.6101 O   0  0  0  0  0  0  0  0  0  0  0  0
   10.2658  -17.1290   27.7759 O   0  0  0  0  0  0  0  0  0  0  0  0
  2  1  1  0
  3  4  1  1
  3  2  1  0
  5  6  1  6
  5  3  1  0
  7  5  1  0
  8  7  2  0
  9  7  1  0
 10  9  1  0
 10 11  1  6
 12 11  1  0
 13 10  1  0
 13 14  2  0
 15 13  1  0
 16 15  1  0
 16 17  1  1
 17 18  1  0
 18 26  1  0
 18 19  2  0
 19 20  1  0
 21 22  2  0
 21 20  1  0
 23 22  1  0
 24 23  2  0
 25 24  1  0
 25 26  2  0
 26 21  1  0
 27 16  1  0
 28 27  1  0
 29 27  2  0
M  END
$$$$
