ICW.pdb
     RDKit          3D

 29 30  0  0  1  0  0  0  0  0999 V2000
    8.3867  -12.0573   19.0916 C   0  0  0  0  0  0  0  0  0  0  0  0
    7.1180  -12.8486   19.2935 C   0  0  0  0  0  0  0  0  0  0  0  0
    7.2688  -13.8871   20.3843 C   0  0  2  0  0  0  0  0  0  0  0  0
    7.8363  -13.1602   21.6001 C   0  0  0  0  0  0  0  0  0  0  0  0
    8.2146  -14.9746   19.9638 C   0  0  2  0  0  0  0  0  0  0  0  0
    7.7791  -15.5086   18.7031 N   0  0  0  0  0  0  0  0  0  0  0  0
    8.4092  -16.0044   20.9947 C   0  0  0  0  0  0  0  0  0  0  0  0
    7.4577  -16.6638   21.5017 O   0  0  0  0  0  0  0  0  0  0  0  0
    9.7097  -16.3505   21.5168 N   0  0  0  0  0  0  0  0  0  0  0  0
    9.8947  -17.2827   22.5838 C   0  0  1  0  0  0  0  0  0  0  0  0
   10.9088  -18.3282   22.2168 C   0  0  0  0  0  0  0  0  0  0  0  0
   11.0970  -19.6181   23.4413 S   0  0  0  0  0  0  0  0  0  0  0  0
   10.1790  -16.6373   23.8894 C   0  0  0  0  0  0  0  0  0  0  0  0
   10.9585  -15.6506   23.9112 O   0  0  0  0  0  0  0  0  0  0  0  0
    9.6367  -17.0495   25.1217 N   0  0  0  0  0  0  0  0  0  0  0  0
   10.0487  -16.5317   26.4134 C   0  0  1  0  0  0  0  0  0  0  0  0
    8.7880  -16.4238   27.2435 C   0  0  0  0  0  0  0  0  0  0  0  0
    7.7863  -15.5337   26.6480 C   0  0  0  0  0  0  0  0  0  0  0  0
    6.6520  -15.8767   25.9457 C   0  0  0  0  0  0  0  0  0  0  0  0
    5.9937  -14.7689   25.5653 N   0  0  0  0  0  0  0  0  0  0  0  0
    6.6592  -13.6647   25.9961 C   0  0  0  0  0  0  0  0  0  0  0  0
    6.4231  -12.3124   25.8795 C   0  0  0  0  0  0  0  0  0  0  0  0
    7.2827  -11.3940   26.4254 C   0  0  0  0  0  0  0  0  0  0  0  0
    8.3934  -11.8617   27.0963 C   0  0  0  0  0  0  0  0  0  0  0  0
    8.6413  -13.2120   27.2201 C   0  0  0  0  0  0  0  0  0  0  0  0
    7.7734  -14.1572   26.6687 C   0  0  0  0  0  0  0  0  0  0  0  0
   11.0427  -17.4310   27.0020 C   0  0  0  0  0  0  0  0  0  0  0  0
   11.7130  -17.0889   28.1636 O   0  0  0  0  0  0  0  0  0  0  0  0
   11.2975  -18.5269   26.4551 O   0  0  0  0  0  0  0  0  0  0  0  0
  2  1  1  0
  3  4  1  1
  3  2  1  0
  5  6  1  6
  5  3  1  0
  7  5  1  0
  8  7  2  0
  9  7  1  0
 10  9  1  0
 10 11  1  6
 12 11  1  0
 13 10  1  0
 13 14  2  0
 15 13  1  0
 16 15  1  0
 16 17  1  1
 17 18  1  0
 18 26  1  0
 18 19  2  0
 19 20  1  0
 21 22  2  0
 21 20  1  0
 23 22  1  0
 24 23  2  0
 25 24  1  0
 25 26  2  0
 26 21  1  0
 27 16  1  0
 28 27  1  0
 29 27  2  0
M  END
$$$$
