KQV.pdb
     RDKit          3D

 26 25  0  0  1  0  0  0  0  0999 V2000
   28.3778  -21.3455  -14.9999 N   0  0  0  0  0  0  0  0  0  0  0  0
   28.1194  -19.9401  -15.1154 C   0  0  1  0  0  0  0  0  0  0  0  0
   27.6742  -19.5197  -16.4738 C   0  0  0  0  0  0  0  0  0  0  0  0
   27.1010  -20.5756  -17.3391 C   0  0  0  0  0  0  0  0  0  0  0  0
   25.8847  -21.2762  -16.8708 C   0  0  0  0  0  0  0  0  0  0  0  0
   25.4356  -22.4355  -17.7088 C   0  0  0  0  0  0  0  0  0  0  0  0
   24.9651  -22.0987  -19.0077 N   0  0  0  0  0  0  0  0  0  0  0  0
   27.1434  -19.5518  -14.0544 C   0  0  0  0  0  0  0  0  0  0  0  0
   26.8150  -18.3192  -13.9108 O   0  0  0  0  0  0  0  0  0  0  0  0
   21.7307  -21.5379  -13.8593 N   0  0  0  0  0  0  0  0  0  0  0  0
   21.7205  -20.9494  -12.5786 C   0  0  0  0  0  0  0  0  0  0  0  0
   20.6538  -20.8573  -11.9473 O   0  0  0  0  0  0  0  0  0  0  0  0
   22.9804  -20.4468  -11.9986 C   0  0  0  0  0  0  0  0  0  0  0  0
   24.1838  -20.6544  -12.8315 C   0  0  0  0  0  0  0  0  0  0  0  0
   25.4633  -20.1446  -12.2518 C   0  0  2  0  0  0  0  0  0  0  0  0
   26.5559  -20.4957  -13.1856 N   0  0  0  0  0  0  0  0  0  0  0  0
   25.7854  -20.8607  -10.9988 C   0  0  0  0  0  0  0  0  0  0  0  0
   25.9671  -22.1294  -10.9776 O   0  0  0  0  0  0  0  0  0  0  0  0
   26.6108  -18.8634   -7.4612 C   0  0  0  0  0  0  0  0  0  0  0  0
   27.0220  -20.3198   -7.6240 C   0  0  2  0  0  0  0  0  0  0  0  0
   28.3792  -20.2865   -8.3375 C   0  0  0  0  0  0  0  0  0  0  0  0
   26.0163  -21.0282   -8.5219 C   0  0  2  0  0  0  0  0  0  0  0  0
   25.9255  -20.2315   -9.7352 N   0  0  0  0  0  0  0  0  0  0  0  0
   24.7380  -21.0689   -7.7856 C   0  0  0  0  0  0  0  0  0  0  0  0
   24.6312  -21.9424   -6.7130 O   0  0  0  0  0  0  0  0  0  0  0  0
   23.7286  -20.3693   -8.0546 O   0  0  0  0  0  0  0  0  0  0  0  0
  2  1  1  6
  3  2  1  0
  4  3  1  0
  5  4  1  0
  5  6  1  0
  7  6  1  0
  8  9  2  0
  8  2  1  0
 10 11  1  0
 11 12  2  0
 11 13  1  0
 13 14  1  0
 15 14  1  6
 15 16  1  0
 16  8  1  0
 17 15  1  0
 18 17  2  0
 20 19  1  6
 20 22  1  0
 21 20  1  0
 22 23  1  6
 22 24  1  0
 23 17  1  0
 24 25  1  0
 26 24  2  0
M  END
$$$$
