KQV.pdb
     RDKit          3D

 26 25  0  0  1  0  0  0  0  0999 V2000
   26.4571  -22.7034  -13.3496 N   0  0  0  0  0  0  0  0  0  0  0  0
   25.5391  -21.9528  -12.5438 C   0  0  1  0  0  0  0  0  0  0  0  0
   26.1302  -20.7231  -11.9449 C   0  0  0  0  0  0  0  0  0  0  0  0
   27.2688  -20.9190  -11.0189 C   0  0  0  0  0  0  0  0  0  0  0  0
   28.6332  -20.9574  -11.5905 C   0  0  0  0  0  0  0  0  0  0  0  0
   29.7429  -21.2101  -10.6146 C   0  0  0  0  0  0  0  0  0  0  0  0
   31.0561  -21.1180  -11.1523 N   0  0  0  0  0  0  0  0  0  0  0  0
   24.3264  -21.6570  -13.3628 C   0  0  0  0  0  0  0  0  0  0  0  0
   24.4046  -21.6671  -14.6440 O   0  0  0  0  0  0  0  0  0  0  0  0
   18.5810  -22.8973  -11.2633 N   0  0  0  0  0  0  0  0  0  0  0  0
   18.2767  -22.2814  -12.4941 C   0  0  0  0  0  0  0  0  0  0  0  0
   17.0938  -22.1856  -12.8636 O   0  0  0  0  0  0  0  0  0  0  0  0
   19.3692  -21.7552  -13.3343 C   0  0  0  0  0  0  0  0  0  0  0  0
   20.7114  -21.7891  -12.7158 C   0  0  0  0  0  0  0  0  0  0  0  0
   21.8278  -21.2877  -13.5733 C   0  0  2  0  0  0  0  0  0  0  0  0
   23.0754  -21.3601  -12.7814 N   0  0  0  0  0  0  0  0  0  0  0  0
   21.6462  -19.8507  -13.8714 C   0  0  0  0  0  0  0  0  0  0  0  0
   21.6703  -18.9642  -12.9460 O   0  0  0  0  0  0  0  0  0  0  0  0
   21.6599  -18.4264  -17.7256 C   0  0  0  0  0  0  0  0  0  0  0  0
   21.8929  -17.4576  -16.5750 C   0  0  2  0  0  0  0  0  0  0  0  0
   23.3899  -17.5512  -16.2554 C   0  0  0  0  0  0  0  0  0  0  0  0
   21.1044  -17.9241  -15.3583 C   0  0  2  0  0  0  0  0  0  0  0  0
   21.4385  -19.3275  -15.1734 N   0  0  0  0  0  0  0  0  0  0  0  0
   19.6758  -17.7285  -15.6721 C   0  0  0  0  0  0  0  0  0  0  0  0
   19.1826  -16.4317  -15.6834 O   0  0  0  0  0  0  0  0  0  0  0  0
   18.8621  -18.6509  -15.9325 O   0  0  0  0  0  0  0  0  0  0  0  0
  2  1  1  6
  3  2  1  0
  4  3  1  0
  5  4  1  0
  5  6  1  0
  7  6  1  0
  8  9  2  0
  8  2  1  0
 10 11  1  0
 11 12  2  0
 11 13  1  0
 13 14  1  0
 15 14  1  1
 15 16  1  0
 16  8  1  0
 17 15  1  0
 18 17  2  0
 20 19  1  6
 20 22  1  0
 21 20  1  0
 22 23  1  6
 22 24  1  0
 23 17  1  0
 24 25  1  0
 26 24  2  0
M  END
$$$$
