KQV.pdb
     RDKit          3D

 26 25  0  0  1  0  0  0  0  0999 V2000
   22.8410  -21.0127  -15.5929 N   0  0  0  0  0  0  0  0  0  0  0  0
   22.8518  -19.9039  -14.6842 C   0  0  1  0  0  0  0  0  0  0  0  0
   23.0033  -18.5802  -15.3514 C   0  0  0  0  0  0  0  0  0  0  0  0
   24.3011  -18.3173  -16.0137 C   0  0  0  0  0  0  0  0  0  0  0  0
   24.8187  -19.3307  -16.9596 C   0  0  0  0  0  0  0  0  0  0  0  0
   26.1280  -19.0050  -17.6134 C   0  0  0  0  0  0  0  0  0  0  0  0
   26.6198  -19.9921  -18.5110 N   0  0  0  0  0  0  0  0  0  0  0  0
   21.6225  -19.9749  -13.8398 C   0  0  0  0  0  0  0  0  0  0  0  0
   21.3691  -19.0352  -13.0028 O   0  0  0  0  0  0  0  0  0  0  0  0
   16.1643  -21.8025  -15.8214 N   0  0  0  0  0  0  0  0  0  0  0  0
   15.8876  -21.6989  -14.4432 C   0  0  0  0  0  0  0  0  0  0  0  0
   14.7135  -21.7626  -14.0403 O   0  0  0  0  0  0  0  0  0  0  0  0
   16.9981  -21.5148  -13.4897 C   0  0  0  0  0  0  0  0  0  0  0  0
   18.3312  -21.3357  -14.1029 C   0  0  0  0  0  0  0  0  0  0  0  0
   19.4506  -21.0818  -13.1460 C   0  0  2  0  0  0  0  0  0  0  0  0
   20.7106  -21.0486  -13.9208 N   0  0  0  0  0  0  0  0  0  0  0  0
   19.6036  -22.2201  -12.2146 C   0  0  0  0  0  0  0  0  0  0  0  0
   20.1641  -23.3144  -12.5771 O   0  0  0  0  0  0  0  0  0  0  0  0
   18.7503  -21.8949   -8.1437 C   0  0  0  0  0  0  0  0  0  0  0  0
   19.7451  -22.9198   -8.6698 C   0  0  2  0  0  0  0  0  0  0  0  0
   21.0696  -22.1633   -8.8287 C   0  0  0  0  0  0  0  0  0  0  0  0
   19.2912  -23.4018  -10.0415 C   0  0  2  0  0  0  0  0  0  0  0  0
   19.1623  -22.2110  -10.8666 N   0  0  0  0  0  0  0  0  0  0  0  0
   17.9993  -24.0884   -9.8491 C   0  0  0  0  0  0  0  0  0  0  0  0
   16.8541  -23.4689  -10.3284 O   0  0  0  0  0  0  0  0  0  0  0  0
   17.8514  -25.2000   -9.2805 O   0  0  0  0  0  0  0  0  0  0  0  0
  2  1  1  6
  3  2  1  0
  4  3  1  0
  5  4  1  0
  5  6  1  0
  7  6  1  0
  8  9  2  0
  8  2  1  0
 10 11  1  0
 11 12  2  0
 11 13  1  0
 13 14  1  0
 15 14  1  6
 15 16  1  0
 16  8  1  0
 17 15  1  0
 18 17  2  0
 20 19  1  6
 20 22  1  0
 21 20  1  0
 22 23  1  6
 22 24  1  0
 23 17  1  0
 24 25  1  0
 26 24  2  0
M  END
$$$$
