KQV.pdb
     RDKit          3D

 26 25  0  0  1  0  0  0  0  0999 V2000
   18.5820  -14.6975  -19.6479 N   0  0  0  0  0  0  0  0  0  0  0  0
   19.2603  -14.2683  -18.4600 C   0  0  1  0  0  0  0  0  0  0  0  0
   20.6817  -14.7090  -18.3858 C   0  0  0  0  0  0  0  0  0  0  0  0
   20.9293  -16.1655  -18.4848 C   0  0  0  0  0  0  0  0  0  0  0  0
   20.6287  -17.0052  -17.3041 C   0  0  0  0  0  0  0  0  0  0  0  0
   20.7789  -18.4841  -17.4994 C   0  0  0  0  0  0  0  0  0  0  0  0
   20.4956  -19.2789  -16.3549 N   0  0  0  0  0  0  0  0  0  0  0  0
   19.1206  -12.7860  -18.3474 C   0  0  0  0  0  0  0  0  0  0  0  0
   19.4527  -12.0377  -19.3361 O   0  0  0  0  0  0  0  0  0  0  0  0
   14.4836   -9.7418  -15.8667 N   0  0  0  0  0  0  0  0  0  0  0  0
   15.3876   -8.6760  -16.0502 C   0  0  0  0  0  0  0  0  0  0  0  0
   15.0179   -7.5073  -15.8442 O   0  0  0  0  0  0  0  0  0  0  0  0
   16.7679   -8.9594  -16.4868 C   0  0  0  0  0  0  0  0  0  0  0  0
   17.0791  -10.3883  -16.7027 C   0  0  0  0  0  0  0  0  0  0  0  0
   18.4968  -10.6903  -17.0658 C   0  0  2  0  0  0  0  0  0  0  0  0
   18.6323  -12.1591  -17.1815 N   0  0  0  0  0  0  0  0  0  0  0  0
   19.4060  -10.3074  -15.9643 C   0  0  0  0  0  0  0  0  0  0  0  0
   19.3495  -10.8771  -14.8174 O   0  0  0  0  0  0  0  0  0  0  0  0
   22.8404   -8.2540  -16.6597 C   0  0  0  0  0  0  0  0  0  0  0  0
   22.6681   -9.0529  -15.3756 C   0  0  2  0  0  0  0  0  0  0  0  0
   22.9668  -10.5088  -15.7539 C   0  0  0  0  0  0  0  0  0  0  0  0
   21.2196   -8.9562  -14.9147 C   0  0  2  0  0  0  0  0  0  0  0  0
   20.4041   -9.3047  -16.0674 N   0  0  0  0  0  0  0  0  0  0  0  0
   21.0005   -7.5637  -14.4781 C   0  0  0  0  0  0  0  0  0  0  0  0
   21.5281   -7.1732  -13.2558 O   0  0  0  0  0  0  0  0  0  0  0  0
   20.3682   -6.6947  -15.1307 O   0  0  0  0  0  0  0  0  0  0  0  0
  2  1  1  6
  3  2  1  0
  4  3  1  0
  5  4  1  0
  5  6  1  0
  7  6  1  0
  8  9  2  0
  8  2  1  0
 10 11  1  0
 11 12  2  0
 11 13  1  0
 13 14  1  0
 15 14  1  1
 15 16  1  0
 16  8  1  0
 17 15  1  0
 18 17  2  0
 20 19  1  6
 20 22  1  0
 21 20  1  0
 22 23  1  6
 22 24  1  0
 23 17  1  0
 24 25  1  0
 26 24  2  0
M  END
$$$$
