KQV.pdb
     RDKit          3D

 26 25  0  0  1  0  0  0  0  0999 V2000
   27.8762  -20.5909  -18.3796 N   0  0  0  0  0  0  0  0  0  0  0  0
   27.3532  -21.2429  -17.2149 C   0  0  1  0  0  0  0  0  0  0  0  0
   28.4006  -21.8266  -16.3304 C   0  0  0  0  0  0  0  0  0  0  0  0
   28.4527  -23.3043  -16.2519 C   0  0  0  0  0  0  0  0  0  0  0  0
   28.1687  -24.0778  -17.4810 C   0  0  0  0  0  0  0  0  0  0  0  0
   28.2304  -25.5694  -17.3425 C   0  0  0  0  0  0  0  0  0  0  0  0
   29.2942  -26.0601  -16.5367 N   0  0  0  0  0  0  0  0  0  0  0  0
   26.4735  -20.2783  -16.4902 C   0  0  0  0  0  0  0  0  0  0  0  0
   26.8787  -19.0781  -16.2829 O   0  0  0  0  0  0  0  0  0  0  0  0
   20.8264  -18.6744  -17.4321 N   0  0  0  0  0  0  0  0  0  0  0  0
   21.9558  -17.8405  -17.5577 C   0  0  0  0  0  0  0  0  0  0  0  0
   21.9207  -16.8604  -18.3213 O   0  0  0  0  0  0  0  0  0  0  0  0
   23.1725  -18.1408  -16.7793 C   0  0  0  0  0  0  0  0  0  0  0  0
   23.1307  -19.4005  -16.0069 C   0  0  0  0  0  0  0  0  0  0  0  0
   24.3589  -19.7099  -15.2139 C   0  0  2  0  0  0  0  0  0  0  0  0
   25.1939  -20.6334  -16.0132 N   0  0  0  0  0  0  0  0  0  0  0  0
   24.0096  -20.4684  -13.9935 C   0  0  0  0  0  0  0  0  0  0  0  0
   23.4195  -21.6046  -14.0544 O   0  0  0  0  0  0  0  0  0  0  0  0
   26.1401  -20.5231  -10.5672 C   0  0  0  0  0  0  0  0  0  0  0  0
   24.6541  -20.2880  -10.3364 C   0  0  2  0  0  0  0  0  0  0  0  0
   24.2931  -21.1213   -9.1005 C   0  0  0  0  0  0  0  0  0  0  0  0
   23.8704  -20.8200  -11.5291 C   0  0  2  0  0  0  0  0  0  0  0  0
   24.2897  -20.0279  -12.6746 N   0  0  0  0  0  0  0  0  0  0  0  0
   22.4395  -20.6362  -11.2187 C   0  0  0  0  0  0  0  0  0  0  0  0
   21.7437  -21.7136  -10.6898 O   0  0  0  0  0  0  0  0  0  0  0  0
   21.7943  -19.5718  -11.3966 O   0  0  0  0  0  0  0  0  0  0  0  0
  2  1  1  6
  3  2  1  0
  4  3  1  0
  5  4  1  0
  5  6  1  0
  7  6  1  0
  8  9  2  0
  8  2  1  0
 10 11  1  0
 11 12  2  0
 11 13  1  0
 13 14  1  0
 15 14  1  6
 15 16  1  0
 16  8  1  0
 17 15  1  0
 18 17  2  0
 20 19  1  6
 20 22  1  0
 21 20  1  0
 22 23  1  6
 22 24  1  0
 23 17  1  0
 24 25  1  0
 26 24  2  0
M  END
$$$$
