KQV.pdb
     RDKit          3D

 26 25  0  0  1  0  0  0  0  0999 V2000
   29.5816  -23.2150  -17.3737 N   0  0  0  0  0  0  0  0  0  0  0  0
   28.1880  -23.0533  -17.6689 C   0  0  1  0  0  0  0  0  0  0  0  0
   27.4336  -24.3367  -17.7338 C   0  0  0  0  0  0  0  0  0  0  0  0
   27.3631  -25.1271  -16.4837 C   0  0  0  0  0  0  0  0  0  0  0  0
   28.0052  -26.4601  -16.4651 C   0  0  0  0  0  0  0  0  0  0  0  0
   27.1395  -27.6077  -16.8914 C   0  0  0  0  0  0  0  0  0  0  0  0
   27.7842  -28.8747  -16.9227 N   0  0  0  0  0  0  0  0  0  0  0  0
   27.6035  -22.1026  -16.6771 C   0  0  0  0  0  0  0  0  0  0  0  0
   28.2086  -21.8898  -15.5652 O   0  0  0  0  0  0  0  0  0  0  0  0
   22.6914  -18.2908  -18.0183 N   0  0  0  0  0  0  0  0  0  0  0  0
   23.1095  -17.7977  -16.7658 C   0  0  0  0  0  0  0  0  0  0  0  0
   22.5359  -16.8162  -16.2633 O   0  0  0  0  0  0  0  0  0  0  0  0
   24.2276  -18.4537  -16.0617 C   0  0  0  0  0  0  0  0  0  0  0  0
   24.8909  -19.5422  -16.8103 C   0  0  0  0  0  0  0  0  0  0  0  0
   25.9352  -20.2988  -16.0552 C   0  0  2  0  0  0  0  0  0  0  0  0
   26.3933  -21.4157  -16.9106 N   0  0  0  0  0  0  0  0  0  0  0  0
   25.3454  -20.9459  -14.8636 C   0  0  0  0  0  0  0  0  0  0  0  0
   24.5734  -21.9642  -14.9648 O   0  0  0  0  0  0  0  0  0  0  0  0
   26.9572  -21.3858  -11.1702 C   0  0  0  0  0  0  0  0  0  0  0  0
   25.5826  -20.7323  -11.1593 C   0  0  2  0  0  0  0  0  0  0  0  0
   24.8494  -21.3371   -9.9557 C   0  0  0  0  0  0  0  0  0  0  0  0
   24.8343  -21.1157  -12.4292 C   0  0  2  0  0  0  0  0  0  0  0  0
   25.5733  -20.5187  -13.5303 N   0  0  0  0  0  0  0  0  0  0  0  0
   23.4718  -20.5620  -12.3080 C   0  0  0  0  0  0  0  0  0  0  0  0
   22.5028  -21.3434  -11.6955 O   0  0  0  0  0  0  0  0  0  0  0  0
   23.1152  -19.4285  -12.7189 O   0  0  0  0  0  0  0  0  0  0  0  0
  2  1  1  1
  3  2  1  0
  4  3  1  0
  5  4  1  0
  5  6  1  0
  7  6  1  0
  8  9  2  0
  8  2  1  0
 10 11  1  0
 11 12  2  0
 11 13  1  0
 13 14  1  0
 15 14  1  6
 15 16  1  0
 16  8  1  0
 17 15  1  0
 18 17  2  0
 20 19  1  6
 20 22  1  0
 21 20  1  0
 22 23  1  6
 22 24  1  0
 23 17  1  0
 24 25  1  0
 26 24  2  0
M  END
$$$$
