CRS.pdb
     RDKit          3D

 24 23  0  0  1  0  0  0  0  0999 V2000
    4.7401  -22.1938   21.1761 N   0  0  0  0  0  0  0  0  0  0  0  0
    4.8315  -21.3614   22.3993 C   0  0  1  0  0  0  0  0  0  0  0  0
    5.0846  -22.2479   23.5697 C   0  0  0  0  0  0  0  0  0  0  0  0
    5.4338  -21.2684   25.0367 S   0  0  0  0  0  0  0  0  0  0  0  0
    5.8381  -20.3042   22.1683 C   0  0  0  0  0  0  0  0  0  0  0  0
    6.9685  -20.6306   21.6349 O   0  0  0  0  0  0  0  0  0  0  0  0
    8.5317  -12.1744   21.0461 N   0  0  0  0  0  0  0  0  0  0  0  0
    8.2597  -12.8779   19.8462 C   0  0  0  0  0  0  0  0  0  0  0  0
    8.7943  -12.5481   18.7210 N   0  0  0  0  0  0  0  0  0  0  0  0
    7.3623  -14.0076   19.8292 N   0  0  0  0  0  0  0  0  0  0  0  0
    6.6653  -14.4208   21.0126 C   0  0  0  0  0  0  0  0  0  0  0  0
    7.3701  -15.6515   21.5905 C   0  0  0  0  0  0  0  0  0  0  0  0
    6.3163  -16.6804   21.7869 C   0  0  0  0  0  0  0  0  0  0  0  0
    6.8507  -18.0027   22.2918 C   0  0  2  0  0  0  0  0  0  0  0  0
    5.7149  -18.9326   22.4630 N   0  0  0  0  0  0  0  0  0  0  0  0
    7.6051  -17.8019   23.5177 C   0  0  0  0  0  0  0  0  0  0  0  0
    7.0388  -17.4356   24.5646 O   0  0  0  0  0  0  0  0  0  0  0  0
    8.5771  -13.0527   17.8407 O   0  0  0  0  0  0  0  0  0  0  0  0
   11.3280  -19.4726   24.0518 C   0  0  0  0  0  0  0  0  0  0  0  0
   10.5841  -19.0144   25.1492 C   0  0  1  0  0  0  0  0  0  0  0  0
    9.7203  -17.8440   24.7927 N   0  0  0  0  0  0  0  0  0  0  0  0
    8.9947  -18.0144   23.5608 C   0  0  0  0  0  0  0  0  0  0  0  0
   10.6009  -16.6502   24.6902 O   0  0  0  0  0  0  0  0  0  0  0  0
   10.6854  -15.9896   23.6231 O   0  0  0  0  0  0  0  0  0  0  0  0
  2  5  1  0
  2  1  1  6
  3  2  1  0
  4  3  1  0
  5  6  2  0
  7  8  1  0
  8  9  2  0
  8 10  1  0
 10 11  1  0
 11 12  1  0
 12 13  1  0
 14 13  1  1
 15 14  1  0
 15  5  1  0
 16 17  2  0
 16 14  1  0
 18 19  1  0
 20 19  1  1
 20 22  1  0
 20 21  1  0
 21 16  1  0
 22 24  1  0
 23 22  2  0
M  END
$$$$
