CRS.pdb
     RDKit          3D

 24 23  0  0  1  0  0  0  0  0999 V2000
    5.2661  -13.4277   26.3587 N   0  0  0  0  0  0  0  0  0  0  0  0
    6.6056  -13.0461   25.8511 C   0  0  1  0  0  0  0  0  0  0  0  0
    7.3612  -12.3687   26.9420 C   0  0  0  0  0  0  0  0  0  0  0  0
    6.8632  -10.6461   27.0763 S   0  0  0  0  0  0  0  0  0  0  0  0
    7.2469  -14.2492   25.2806 C   0  0  0  0  0  0  0  0  0  0  0  0
    7.1952  -15.3544   25.9477 O   0  0  0  0  0  0  0  0  0  0  0  0
    6.7497  -13.3705   18.8092 N   0  0  0  0  0  0  0  0  0  0  0  0
    8.1648  -13.4034   18.8806 C   0  0  0  0  0  0  0  0  0  0  0  0
    8.8915  -12.3851   18.5713 N   0  0  0  0  0  0  0  0  0  0  0  0
    8.8642  -14.5910   19.3074 N   0  0  0  0  0  0  0  0  0  0  0  0
    8.1582  -15.7124   19.8561 C   0  0  0  0  0  0  0  0  0  0  0  0
    7.6982  -15.3552   21.2723 C   0  0  0  0  0  0  0  0  0  0  0  0
    8.8900  -15.5046   22.1470 C   0  0  0  0  0  0  0  0  0  0  0  0
    8.5496  -15.6174   23.6167 C   0  0  2  0  0  0  0  0  0  0  0  0
    7.9296  -14.3488   24.0530 N   0  0  0  0  0  0  0  0  0  0  0  0
    9.7386  -15.9562   24.3809 C   0  0  0  0  0  0  0  0  0  0  0  0
   10.5475  -15.0757   24.7293 O   0  0  0  0  0  0  0  0  0  0  0  0
    9.9283  -12.4248   18.5874 O   0  0  0  0  0  0  0  0  0  0  0  0
    9.8457  -19.2671   26.4347 C   0  0  0  0  0  0  0  0  0  0  0  0
   11.1312  -18.7059   26.4177 C   0  0  1  0  0  0  0  0  0  0  0  0
   11.2569  -17.6215   25.3923 N   0  0  0  0  0  0  0  0  0  0  0  0
   10.0127  -17.2852   24.7504 C   0  0  0  0  0  0  0  0  0  0  0  0
   12.2355  -18.0800   24.3710 O   0  0  0  0  0  0  0  0  0  0  0  0
   13.4024  -18.4237   24.6913 O   0  0  0  0  0  0  0  0  0  0  0  0
  2  5  1  0
  2  1  1  1
  3  2  1  0
  4  3  1  0
  5  6  2  0
  7  8  1  0
  8  9  2  0
  8 10  1  0
 10 11  1  0
 11 12  1  0
 12 13  1  0
 14 13  1  6
 15 14  1  0
 15  5  1  0
 16 17  2  0
 16 14  1  0
 18 19  1  0
 20 19  1  1
 20 22  1  0
 20 21  1  0
 21 16  1  0
 22 24  1  0
 23 22  2  0
M  END
$$$$
