CRS.pdb
     RDKit          3D

 24 23  0  0  1  0  0  0  0  0999 V2000
    5.4241  -14.3646   26.7674 N   0  0  0  0  0  0  0  0  0  0  0  0
    6.4077  -13.5742   25.9894 C   0  0  1  0  0  0  0  0  0  0  0  0
    7.2547  -12.7922   26.9332 C   0  0  0  0  0  0  0  0  0  0  0  0
    6.7519  -11.0658   26.9471 S   0  0  0  0  0  0  0  0  0  0  0  0
    7.1348  -14.4931   25.0888 C   0  0  0  0  0  0  0  0  0  0  0  0
    7.5014  -15.6455   25.5435 O   0  0  0  0  0  0  0  0  0  0  0  0
    7.2781  -14.9011   16.6813 N   0  0  0  0  0  0  0  0  0  0  0  0
    8.1033  -14.0131   17.4154 C   0  0  0  0  0  0  0  0  0  0  0  0
    8.4222  -12.8463   16.9708 N   0  0  0  0  0  0  0  0  0  0  0  0
    8.6299  -14.3784   18.7082 N   0  0  0  0  0  0  0  0  0  0  0  0
    8.3684  -15.6675   19.2798 C   0  0  0  0  0  0  0  0  0  0  0  0
    9.0579  -15.7459   20.6449 C   0  0  0  0  0  0  0  0  0  0  0  0
    8.3313  -14.8018   21.5329 C   0  0  0  0  0  0  0  0  0  0  0  0
    8.2680  -15.2565   22.9744 C   0  0  2  0  0  0  0  0  0  0  0  0
    7.4884  -14.2652   23.7449 N   0  0  0  0  0  0  0  0  0  0  0  0
    9.6103  -15.4486   23.4976 C   0  0  0  0  0  0  0  0  0  0  0  0
   10.3303  -14.4740   23.7851 O   0  0  0  0  0  0  0  0  0  0  0  0
    9.0458  -12.2080   17.5004 O   0  0  0  0  0  0  0  0  0  0  0  0
   10.7504  -19.1902   24.6304 C   0  0  0  0  0  0  0  0  0  0  0  0
   11.5603  -18.1532   25.1168 C   0  0  1  0  0  0  0  0  0  0  0  0
   11.4369  -16.9100   24.2908 N   0  0  0  0  0  0  0  0  0  0  0  0
   10.1373  -16.7373   23.6957 C   0  0  0  0  0  0  0  0  0  0  0  0
   12.4686  -16.9762   23.2221 O   0  0  0  0  0  0  0  0  0  0  0  0
   12.1592  -16.8735   22.0072 O   0  0  0  0  0  0  0  0  0  0  0  0
  2  5  1  0
  2  1  1  1
  3  2  1  0
  4  3  1  0
  5  6  2  0
  7  8  1  0
  8  9  2  0
  8 10  1  0
 10 11  1  0
 11 12  1  0
 12 13  1  0
 14 13  1  6
 15 14  1  0
 15  5  1  0
 16 17  2  0
 16 14  1  0
 18 19  1  0
 20 19  1  1
 20 22  1  0
 20 21  1  0
 21 16  1  0
 22 24  1  0
 23 22  2  0
M  END
$$$$
