CRS.pdb
     RDKit          3D

 24 23  0  0  1  0  0  0  0  0999 V2000
    7.3539  -17.4575   27.4229 N   0  0  0  0  0  0  0  0  0  0  0  0
    7.5248  -16.1009   26.8504 C   0  0  1  0  0  0  0  0  0  0  0  0
    8.5243  -15.3546   27.6650 C   0  0  0  0  0  0  0  0  0  0  0  0
    8.7262  -13.6823   27.0358 S   0  0  0  0  0  0  0  0  0  0  0  0
    7.8452  -16.2390   25.4142 C   0  0  0  0  0  0  0  0  0  0  0  0
    8.3079  -17.3675   24.9883 O   0  0  0  0  0  0  0  0  0  0  0  0
    9.7097  -14.0451   18.1517 N   0  0  0  0  0  0  0  0  0  0  0  0
    8.3979  -13.7325   17.7157 C   0  0  0  0  0  0  0  0  0  0  0  0
    8.1119  -13.5556   16.4717 N   0  0  0  0  0  0  0  0  0  0  0  0
    7.3107  -13.5968   18.6547 N   0  0  0  0  0  0  0  0  0  0  0  0
    7.5507  -13.2403   20.0229 C   0  0  0  0  0  0  0  0  0  0  0  0
    8.1390  -14.4538   20.7485 C   0  0  0  0  0  0  0  0  0  0  0  0
    7.6956  -14.3482   22.1627 C   0  0  0  0  0  0  0  0  0  0  0  0
    8.1475  -15.5063   23.0249 C   0  0  2  0  0  0  0  0  0  0  0  0
    7.7002  -15.2607   24.4118 N   0  0  0  0  0  0  0  0  0  0  0  0
    9.5869  -15.6774   22.9182 C   0  0  0  0  0  0  0  0  0  0  0  0
   10.3685  -14.8593   23.4383 O   0  0  0  0  0  0  0  0  0  0  0  0
    7.1518  -13.3193   16.1569 O   0  0  0  0  0  0  0  0  0  0  0  0
   11.1382  -18.9788   23.3079 C   0  0  0  0  0  0  0  0  0  0  0  0
   12.0502  -18.2977   22.4880 C   0  0  2  0  0  0  0  0  0  0  0  0
   11.5697  -16.9242   22.1338 N   0  0  0  0  0  0  0  0  0  0  0  0
   10.1412  -16.7692   22.2264 C   0  0  0  0  0  0  0  0  0  0  0  0
   12.0120  -16.6380   20.7433 O   0  0  0  0  0  0  0  0  0  0  0  0
   11.1878  -16.3228   19.8468 O   0  0  0  0  0  0  0  0  0  0  0  0
  2  5  1  0
  2  1  1  1
  3  2  1  0
  4  3  1  0
  5  6  2  0
  7  8  1  0
  8  9  2  0
  8 10  1  0
 10 11  1  0
 11 12  1  0
 12 13  1  0
 14 13  1  6
 15 14  1  0
 15  5  1  0
 16 17  2  0
 16 14  1  0
 18 19  1  0
 20 19  1  1
 20 22  1  0
 20 21  1  0
 21 16  1  0
 22 24  1  0
 23 22  2  0
M  END
$$$$
