CRS.pdb
     RDKit          3D

 24 23  0  0  1  0  0  0  0  0999 V2000
    3.5141  -20.3523   21.0693 N   0  0  0  0  0  0  0  0  0  0  0  0
    3.3751  -19.1306   21.8973 C   0  0  1  0  0  0  0  0  0  0  0  0
    2.4458  -19.4148   23.0266 C   0  0  0  0  0  0  0  0  0  0  0  0
    0.7368  -19.2851   22.4827 S   0  0  0  0  0  0  0  0  0  0  0  0
    4.7268  -18.6727   22.2813 C   0  0  0  0  0  0  0  0  0  0  0  0
    5.6065  -19.5552   22.6226 O   0  0  0  0  0  0  0  0  0  0  0  0
   10.3309  -13.3764   19.3666 N   0  0  0  0  0  0  0  0  0  0  0  0
    9.0964  -12.7726   19.7134 C   0  0  0  0  0  0  0  0  0  0  0  0
    8.8910  -11.5070   19.5840 N   0  0  0  0  0  0  0  0  0  0  0  0
    8.0013  -13.5556   20.2326 N   0  0  0  0  0  0  0  0  0  0  0  0
    7.9889  -14.9850   20.1160 C   0  0  0  0  0  0  0  0  0  0  0  0
    6.6875  -15.5140   20.7256 C   0  0  0  0  0  0  0  0  0  0  0  0
    6.9408  -15.6628   22.1822 C   0  0  0  0  0  0  0  0  0  0  0  0
    6.5846  -17.0314   22.7199 C   0  0  2  0  0  0  0  0  0  0  0  0
    5.1973  -17.3459   22.3194 N   0  0  0  0  0  0  0  0  0  0  0  0
    6.7785  -17.0690   24.1598 C   0  0  0  0  0  0  0  0  0  0  0  0
    5.8795  -16.6950   24.9362 O   0  0  0  0  0  0  0  0  0  0  0  0
    8.0052  -11.0603   19.8882 O   0  0  0  0  0  0  0  0  0  0  0  0
    7.2162  -19.5728   27.6970 C   0  0  0  0  0  0  0  0  0  0  0  0
    7.1489  -19.1631   26.3571 C   0  0  2  0  0  0  0  0  0  0  0  0
    8.0265  -17.9800   26.0869 N   0  0  0  0  0  0  0  0  0  0  0  0
    7.9838  -17.5278   24.7206 C   0  0  0  0  0  0  0  0  0  0  0  0
    9.4189  -18.3631   26.4409 O   0  0  0  0  0  0  0  0  0  0  0  0
   10.2790  -18.5955   25.5528 O   0  0  0  0  0  0  0  0  0  0  0  0
  2  5  1  0
  2  1  1  1
  3  2  1  0
  4  3  1  0
  5  6  2  0
  7  8  1  0
  8  9  2  0
  8 10  1  0
 10 11  1  0
 11 12  1  0
 12 13  1  0
 14 13  1  1
 15 14  1  0
 15  5  1  0
 16 17  2  0
 16 14  1  0
 18 19  1  0
 20 19  1  1
 20 22  1  0
 20 21  1  0
 21 16  1  0
 22 24  1  0
 23 22  2  0
M  END
$$$$
