CRS.pdb
     RDKit          3D

 24 23  0  0  1  0  0  0  0  0999 V2000
    5.6656  -19.2771   23.1127 N   0  0  0  0  0  0  0  0  0  0  0  0
    6.0114  -17.9783   23.7379 C   0  0  1  0  0  0  0  0  0  0  0  0
    6.2213  -18.1852   25.1984 C   0  0  0  0  0  0  0  0  0  0  0  0
    6.4358  -16.6070   26.0329 S   0  0  0  0  0  0  0  0  0  0  0  0
    7.1552  -17.3984   23.0033 C   0  0  0  0  0  0  0  0  0  0  0  0
    8.1196  -18.1785   22.6422 O   0  0  0  0  0  0  0  0  0  0  0  0
    8.4173  -15.5838   17.2464 N   0  0  0  0  0  0  0  0  0  0  0  0
    7.8596  -14.2810   17.2632 C   0  0  0  0  0  0  0  0  0  0  0  0
    8.1754  -13.3878   16.3897 N   0  0  0  0  0  0  0  0  0  0  0  0
    6.9022  -13.8908   18.2698 N   0  0  0  0  0  0  0  0  0  0  0  0
    7.3234  -13.2974   19.5057 C   0  0  0  0  0  0  0  0  0  0  0  0
    8.5485  -14.0582   20.0208 C   0  0  0  0  0  0  0  0  0  0  0  0
    8.3752  -14.1789   21.4916 C   0  0  0  0  0  0  0  0  0  0  0  0
    8.5902  -15.5834   22.0113 C   0  0  2  0  0  0  0  0  0  0  0  0
    7.3320  -16.0525   22.6286 N   0  0  0  0  0  0  0  0  0  0  0  0
    9.7143  -15.6092   22.9322 C   0  0  0  0  0  0  0  0  0  0  0  0
    9.6861  -14.9597   23.9944 O   0  0  0  0  0  0  0  0  0  0  0  0
    7.7987  -12.4218   16.4307 O   0  0  0  0  0  0  0  0  0  0  0  0
   11.7995  -18.7246   23.6438 C   0  0  0  0  0  0  0  0  0  0  0  0
   12.1605  -17.5746   24.3615 C   0  0  1  0  0  0  0  0  0  0  0  0
   11.9960  -16.3292   23.5460 N   0  0  0  0  0  0  0  0  0  0  0  0
   10.8663  -16.3665   22.6541 C   0  0  0  0  0  0  0  0  0  0  0  0
   13.2440  -16.1384   22.7603 O   0  0  0  0  0  0  0  0  0  0  0  0
   13.2310  -16.1375   21.5025 O   0  0  0  0  0  0  0  0  0  0  0  0
  2  5  1  0
  2  1  1  6
  3  2  1  0
  4  3  1  0
  5  6  2  0
  7  8  1  0
  8  9  2  0
  8 10  1  0
 10 11  1  0
 11 12  1  0
 12 13  1  0
 14 13  1  1
 15 14  1  0
 15  5  1  0
 16 17  2  0
 16 14  1  0
 18 19  1  0
 20 19  1  1
 20 22  1  0
 20 21  1  0
 21 16  1  0
 22 24  1  0
 23 22  2  0
M  END
$$$$
