YRP.pdb
     RDKit          3D

 31 32  0  0  1  0  0  0  0  0999 V2000
    6.2392  -10.3234   27.2321 O   0  0  0  0  0  0  0  0  0  0  0  0
    6.6397  -11.6299   26.9773 C   0  0  0  0  0  0  0  0  0  0  0  0
    7.0416  -12.4648   27.9929 C   0  0  0  0  0  0  0  0  0  0  0  0
    7.4365  -13.7713   27.6951 C   0  0  0  0  0  0  0  0  0  0  0  0
    7.4338  -14.2500   26.4051 C   0  0  0  0  0  0  0  0  0  0  0  0
    7.8612  -15.6446   26.1334 C   0  0  0  0  0  0  0  0  0  0  0  0
    6.7521  -16.2856   25.3241 C   0  0  2  0  0  0  0  0  0  0  0  0
    6.2740  -17.4987   25.9013 N   0  0  0  0  0  0  0  0  0  0  0  0
    7.2129  -16.4751   23.9328 C   0  0  0  0  0  0  0  0  0  0  0  0
    7.8591  -17.5049   23.5713 O   0  0  0  0  0  0  0  0  0  0  0  0
    7.0304  -13.4106   25.3854 C   0  0  0  0  0  0  0  0  0  0  0  0
    6.6421  -12.1187   25.6926 C   0  0  0  0  0  0  0  0  0  0  0  0
    8.4359  -13.1029   15.9958 N   0  0  0  0  0  0  0  0  0  0  0  0
    8.3161  -14.4969   16.2426 C   0  0  0  0  0  0  0  0  0  0  0  0
    8.6730  -15.3217   15.3551 N   0  0  0  0  0  0  0  0  0  0  0  0
    7.7842  -14.8818   17.5162 N   0  0  0  0  0  0  0  0  0  0  0  0
    7.6274  -13.7970   18.4985 C   0  0  0  0  0  0  0  0  0  0  0  0
    8.4295  -14.0851   19.7172 C   0  0  0  0  0  0  0  0  0  0  0  0
    7.6305  -14.2766   20.9326 C   0  0  0  0  0  0  0  0  0  0  0  0
    7.7492  -15.5659   21.6956 C   0  0  2  0  0  0  0  0  0  0  0  0
    6.9678  -15.5160   22.8837 N   0  0  0  0  0  0  0  0  0  0  0  0
    9.1957  -15.7576   21.9842 C   0  0  0  0  0  0  0  0  0  0  0  0
    9.6944  -15.1970   22.9626 O   0  0  0  0  0  0  0  0  0  0  0  0
    8.6966  -16.3471   15.3810 N   0  0  0  0  0  0  0  0  0  0  0  0
    9.9735  -16.5742   21.1449 C   0  0  0  0  0  0  0  0  0  0  0  0
    9.4570  -17.2611   19.9422 C   0  0  0  0  0  0  0  0  0  0  0  0
   10.1552  -18.5941   20.0038 C   0  0  0  0  0  0  0  0  0  0  0  0
   11.1911  -18.4871   21.1338 C   0  0  2  0  0  0  0  0  0  0  0  0
   11.3725  -16.9692   21.1953 C   0  0  0  0  0  0  0  0  0  0  0  0
   12.1721  -16.4640   20.0698 O   0  0  0  0  0  0  0  0  0  0  0  0
   13.5524  -16.4394   20.2119 O   0  0  0  0  0  0  0  0  0  0  0  0
  2  1  1  0
  2  3  2  0
  4  3  1  0
  5  4  2  0
  6  5  1  0
  7  6  1  0
  7  8  1  1
  9  7  1  0
  9 10  2  0
 11 12  2  0
 11  5  1  0
 12  2  1  0
 14 13  1  0
 15 14  2  0
 16 14  1  0
 17 16  1  0
 18 19  1  0
 18 17  1  0
 20 19  1  1
 20 21  1  0
 21  9  1  0
 22 20  1  0
 23 22  2  0
 24 28  1  0
 24 22  1  0
 25 24  1  0
 26 25  1  0
 26 27  1  0
 27 28  1  0
 28 29  1  6
 29 31  2  0
 29 30  1  0
M  END
$$$$
