YRP.pdb
     RDKit          3D

 31 32  0  0  1  0  0  0  0  0999 V2000
    5.6853  -10.3548   28.1631 O   0  0  0  0  0  0  0  0  0  0  0  0
    6.2803  -11.3655   27.4170 C   0  0  0  0  0  0  0  0  0  0  0  0
    7.3212  -12.1080   27.9221 C   0  0  0  0  0  0  0  0  0  0  0  0
    7.8919  -13.1153   27.1403 C   0  0  0  0  0  0  0  0  0  0  0  0
    7.4380  -13.3880   25.8702 C   0  0  0  0  0  0  0  0  0  0  0  0
    8.0732  -14.4668   25.0740 C   0  0  0  0  0  0  0  0  0  0  0  0
    7.0624  -15.5925   24.9894 C   0  0  2  0  0  0  0  0  0  0  0  0
    6.7559  -16.1598   26.2613 N   0  0  0  0  0  0  0  0  0  0  0  0
    7.5445  -16.6072   24.0292 C   0  0  0  0  0  0  0  0  0  0  0  0
    8.3867  -17.4976   24.3556 O   0  0  0  0  0  0  0  0  0  0  0  0
    6.3926  -12.6413   25.3634 C   0  0  0  0  0  0  0  0  0  0  0  0
    5.8360  -11.6461   26.1469 C   0  0  0  0  0  0  0  0  0  0  0  0
    7.4536  -15.2556   15.7325 N   0  0  0  0  0  0  0  0  0  0  0  0
    8.1627  -14.1770   16.3261 C   0  0  0  0  0  0  0  0  0  0  0  0
    8.2819  -13.0870   15.6991 N   0  0  0  0  0  0  0  0  0  0  0  0
    8.7087  -14.4061   17.6309 N   0  0  0  0  0  0  0  0  0  0  0  0
    7.7746  -14.2320   18.7550 C   0  0  0  0  0  0  0  0  0  0  0  0
    8.5006  -14.3330   20.0490 C   0  0  0  0  0  0  0  0  0  0  0  0
    7.7054  -14.9013   21.1430 C   0  0  0  0  0  0  0  0  0  0  0  0
    7.9977  -16.2971   21.6172 C   0  0  2  0  0  0  0  0  0  0  0  0
    7.1011  -16.6681   22.6578 N   0  0  0  0  0  0  0  0  0  0  0  0
    9.4147  -16.3045   22.0695 C   0  0  0  0  0  0  0  0  0  0  0  0
    9.7348  -15.6422   23.0589 O   0  0  0  0  0  0  0  0  0  0  0  0
    8.7665  -12.2233   15.9671 N   0  0  0  0  0  0  0  0  0  0  0  0
   10.3676  -17.0652   21.3697 C   0  0  0  0  0  0  0  0  0  0  0  0
   10.0565  -17.9179   20.2030 C   0  0  0  0  0  0  0  0  0  0  0  0
   10.9260  -19.1244   20.4408 C   0  0  0  0  0  0  0  0  0  0  0  0
   11.8365  -18.7733   21.6279 C   0  0  2  0  0  0  0  0  0  0  0  0
   11.7984  -17.2453   21.5587 C   0  0  0  0  0  0  0  0  0  0  0  0
   12.6130  -16.7237   20.4515 O   0  0  0  0  0  0  0  0  0  0  0  0
   13.7930  -16.0646   20.7666 O   0  0  0  0  0  0  0  0  0  0  0  0
  2  1  1  0
  2  3  2  0
  4  3  1  0
  5  4  2  0
  6  5  1  0
  7  6  1  0
  7  8  1  1
  9  7  1  0
  9 10  2  0
 11 12  2  0
 11  5  1  0
 12  2  1  0
 14 13  1  0
 15 14  2  0
 16 14  1  0
 17 16  1  0
 18 19  1  0
 18 17  1  0
 20 19  1  1
 20 21  1  0
 21  9  1  0
 22 20  1  0
 23 22  2  0
 24 28  1  0
 24 22  1  0
 25 24  1  0
 26 25  1  0
 26 27  1  0
 27 28  1  0
 28 29  1  6
 29 31  2  0
 29 30  1  0
M  END
$$$$
