YRP.pdb
     RDKit          3D

 31 32  0  0  1  0  0  0  0  0999 V2000
    8.1606  -24.0745   28.1307 O   0  0  0  0  0  0  0  0  0  0  0  0
    8.4515  -22.7223   27.9915 C   0  0  0  0  0  0  0  0  0  0  0  0
    9.5678  -22.1684   28.5720 C   0  0  0  0  0  0  0  0  0  0  0  0
    9.8249  -20.8051   28.4082 C   0  0  0  0  0  0  0  0  0  0  0  0
    8.9871  -19.9952   27.6763 C   0  0  0  0  0  0  0  0  0  0  0  0
    9.2978  -18.5521   27.5278 C   0  0  0  0  0  0  0  0  0  0  0  0
    9.9990  -18.3970   26.1935 C   0  0  2  0  0  0  0  0  0  0  0  0
   11.3650  -18.8039   26.2340 N   0  0  0  0  0  0  0  0  0  0  0  0
    9.8469  -17.0042   25.7237 C   0  0  0  0  0  0  0  0  0  0  0  0
   10.4122  -16.0304   26.3077 O   0  0  0  0  0  0  0  0  0  0  0  0
    7.8657  -20.5524   27.0939 C   0  0  0  0  0  0  0  0  0  0  0  0
    7.6213  -21.9036   27.2636 C   0  0  0  0  0  0  0  0  0  0  0  0
    7.1293  -13.1869   18.4775 N   0  0  0  0  0  0  0  0  0  0  0  0
    8.4630  -13.2804   18.9583 C   0  0  0  0  0  0  0  0  0  0  0  0
    9.4275  -13.1867   18.1481 N   0  0  0  0  0  0  0  0  0  0  0  0
    8.6267  -13.4799   20.3677 N   0  0  0  0  0  0  0  0  0  0  0  0
    7.3830  -13.6003   21.1456 C   0  0  0  0  0  0  0  0  0  0  0  0
    7.6920  -13.7397   22.5936 C   0  0  0  0  0  0  0  0  0  0  0  0
    8.2459  -15.0455   22.9682 C   0  0  0  0  0  0  0  0  0  0  0  0
    8.6734  -15.2833   24.3893 C   0  0  2  0  0  0  0  0  0  0  0  0
    9.0529  -16.6419   24.5751 N   0  0  0  0  0  0  0  0  0  0  0  0
    7.5217  -14.9007   25.2494 C   0  0  0  0  0  0  0  0  0  0  0  0
    6.7410  -15.7738   25.6343 O   0  0  0  0  0  0  0  0  0  0  0  0
   10.4335  -13.3125   18.3053 N   0  0  0  0  0  0  0  0  0  0  0  0
    7.3391  -13.5555   25.6149 C   0  0  0  0  0  0  0  0  0  0  0  0
    8.0492  -12.4202   24.9890 C   0  0  0  0  0  0  0  0  0  0  0  0
    8.3363  -11.5267   26.1668 C   0  0  0  0  0  0  0  0  0  0  0  0
    7.5733  -12.1254   27.3589 C   0  0  1  0  0  0  0  0  0  0  0  0
    6.4984  -12.9259   26.6211 C   0  0  0  0  0  0  0  0  0  0  0  0
    5.4525  -12.0577   26.0609 O   0  0  0  0  0  0  0  0  0  0  0  0
    4.4759  -11.5772   26.9220 O   0  0  0  0  0  0  0  0  0  0  0  0
  2  1  1  0
  2  3  2  0
  4  3  1  0
  5  4  2  0
  6  5  1  0
  7  6  1  0
  7  8  1  1
  9  7  1  0
  9 10  2  0
 11 12  2  0
 11  5  1  0
 12  2  1  0
 14 13  1  0
 15 14  2  0
 16 14  1  0
 17 16  1  0
 18 19  1  0
 18 17  1  0
 20 19  1  6
 20 21  1  0
 21  9  1  0
 22 20  1  0
 23 22  2  0
 24 28  1  0
 24 22  1  0
 25 24  1  0
 26 25  1  0
 26 27  1  0
 27 28  1  0
 28 29  1  6
 29 31  2  0
 29 30  1  0
M  END
$$$$
