YRP.pdb
     RDKit          3D

 31 32  0  0  1  0  0  0  0  0999 V2000
   12.5054  -23.6535   23.0767 O   0  0  0  0  0  0  0  0  0  0  0  0
   12.2332  -22.3295   23.4011 C   0  0  0  0  0  0  0  0  0  0  0  0
   13.1636  -21.5448   24.0402 C   0  0  0  0  0  0  0  0  0  0  0  0
   12.8512  -20.2185   24.3485 C   0  0  0  0  0  0  0  0  0  0  0  0
   11.6304  -19.6711   24.0276 C   0  0  0  0  0  0  0  0  0  0  0  0
   11.3400  -18.2579   24.3738 C   0  0  0  0  0  0  0  0  0  0  0  0
   11.2754  -17.4977   23.0645 C   0  0  2  0  0  0  0  0  0  0  0  0
   12.5431  -17.3938   22.4201 N   0  0  0  0  0  0  0  0  0  0  0  0
   10.6612  -16.1745   23.3008 C   0  0  0  0  0  0  0  0  0  0  0  0
   11.2466  -15.2694   23.9693 O   0  0  0  0  0  0  0  0  0  0  0  0
   10.6961  -20.4601   23.3859 C   0  0  0  0  0  0  0  0  0  0  0  0
   11.0168  -21.7722   23.0863 C   0  0  0  0  0  0  0  0  0  0  0  0
    8.0742  -12.3010   18.1326 N   0  0  0  0  0  0  0  0  0  0  0  0
    8.0989  -13.6999   17.8854 C   0  0  0  0  0  0  0  0  0  0  0  0
    8.4955  -14.1298   16.7658 N   0  0  0  0  0  0  0  0  0  0  0  0
    7.6603  -14.5500   18.9521 N   0  0  0  0  0  0  0  0  0  0  0  0
    7.6900  -13.9549   20.2980 C   0  0  0  0  0  0  0  0  0  0  0  0
    7.1869  -14.9284   21.3034 C   0  0  0  0  0  0  0  0  0  0  0  0
    7.3489  -14.4946   22.6954 C   0  0  0  0  0  0  0  0  0  0  0  0
    8.6645  -14.7168   23.3871 C   0  0  2  0  0  0  0  0  0  0  0  0
    9.3608  -15.8075   22.7956 N   0  0  0  0  0  0  0  0  0  0  0  0
    8.3548  -14.9614   24.8212 C   0  0  0  0  0  0  0  0  0  0  0  0
    8.7410  -16.0053   25.3515 O   0  0  0  0  0  0  0  0  0  0  0  0
    8.6864  -15.0903   16.4599 N   0  0  0  0  0  0  0  0  0  0  0  0
    7.6322  -14.0032   25.5534 C   0  0  0  0  0  0  0  0  0  0  0  0
    6.9111  -12.8641   24.9471 C   0  0  0  0  0  0  0  0  0  0  0  0
    7.1895  -11.7482   25.9194 C   0  0  0  0  0  0  0  0  0  0  0  0
    7.8801  -12.3935   27.1311 C   0  0  1  0  0  0  0  0  0  0  0  0
    7.4020  -13.8390   26.9801 C   0  0  0  0  0  0  0  0  0  0  0  0
    5.9951  -13.9979   27.3759 O   0  0  0  0  0  0  0  0  0  0  0  0
    5.7160  -14.1934   28.7212 O   0  0  0  0  0  0  0  0  0  0  0  0
  2  1  1  0
  2  3  2  0
  4  3  1  0
  5  4  2  0
  6  5  1  0
  7  6  1  0
  7  8  1  1
  9  7  1  0
  9 10  2  0
 11 12  2  0
 11  5  1  0
 12  2  1  0
 14 13  1  0
 15 14  2  0
 16 14  1  0
 17 16  1  0
 18 19  1  0
 18 17  1  0
 20 19  1  6
 20 21  1  0
 21  9  1  0
 22 20  1  0
 23 22  2  0
 24 28  1  0
 24 22  1  0
 25 24  1  0
 26 25  1  0
 26 27  1  0
 27 28  1  0
 28 29  1  1
 29 31  2  0
 29 30  1  0
M  END
$$$$
