YRP.pdb
     RDKit          3D

 31 32  0  0  1  0  0  0  0  0999 V2000
   10.7448  -20.2759   30.0203 O   0  0  0  0  0  0  0  0  0  0  0  0
    9.7371  -20.1192   29.0757 C   0  0  0  0  0  0  0  0  0  0  0  0
    9.0707  -18.9253   28.9335 C   0  0  0  0  0  0  0  0  0  0  0  0
    8.0641  -18.8083   27.9719 C   0  0  0  0  0  0  0  0  0  0  0  0
    7.7189  -19.8615   27.1565 C   0  0  0  0  0  0  0  0  0  0  0  0
    6.6434  -19.6940   26.1482 C   0  0  0  0  0  0  0  0  0  0  0  0
    7.3314  -19.4916   24.8134 C   0  0  2  0  0  0  0  0  0  0  0  0
    8.4245  -20.3847   24.6115 N   0  0  0  0  0  0  0  0  0  0  0  0
    7.7381  -18.0765   24.6861 C   0  0  0  0  0  0  0  0  0  0  0  0
    8.5578  -17.5361   25.4892 O   0  0  0  0  0  0  0  0  0  0  0  0
    8.3885  -21.0608   27.3002 C   0  0  0  0  0  0  0  0  0  0  0  0
    9.3831  -21.1645   28.2564 C   0  0  0  0  0  0  0  0  0  0  0  0
    9.4552  -13.6896   18.5104 N   0  0  0  0  0  0  0  0  0  0  0  0
    8.6708  -12.8973   19.3911 C   0  0  0  0  0  0  0  0  0  0  0  0
    8.8735  -11.6524   19.4599 N   0  0  0  0  0  0  0  0  0  0  0  0
    7.6766  -13.5836   20.1615 N   0  0  0  0  0  0  0  0  0  0  0  0
    8.0200  -14.9541   20.5739 C   0  0  0  0  0  0  0  0  0  0  0  0
    6.8799  -15.5753   21.2990 C   0  0  0  0  0  0  0  0  0  0  0  0
    6.6940  -15.0792   22.6671 C   0  0  0  0  0  0  0  0  0  0  0  0
    7.3630  -15.7951   23.8067 C   0  0  2  0  0  0  0  0  0  0  0  0
    7.2428  -17.2041   23.6497 N   0  0  0  0  0  0  0  0  0  0  0  0
    6.7107  -15.3127   25.0534 C   0  0  0  0  0  0  0  0  0  0  0  0
    5.9496  -16.0653   25.6652 O   0  0  0  0  0  0  0  0  0  0  0  0
    8.4269  -10.9449   20.0537 N   0  0  0  0  0  0  0  0  0  0  0  0
    6.9705  -14.0121   25.5197 C   0  0  0  0  0  0  0  0  0  0  0  0
    7.8528  -13.0441   24.8346 C   0  0  0  0  0  0  0  0  0  0  0  0
    8.5669  -12.3843   25.9847 C   0  0  0  0  0  0  0  0  0  0  0  0
    7.8769  -12.8823   27.2643 C   0  0  2  0  0  0  0  0  0  0  0  0
    6.5156  -13.2920   26.6988 C   0  0  0  0  0  0  0  0  0  0  0  0
    5.6728  -12.1268   26.3934 O   0  0  0  0  0  0  0  0  0  0  0  0
    4.9010  -11.5960   27.4174 O   0  0  0  0  0  0  0  0  0  0  0  0
  2  1  1  0
  2  3  2  0
  4  3  1  0
  5  4  2  0
  6  5  1  0
  7  6  1  0
  7  8  1  1
  9  7  1  0
  9 10  2  0
 11 12  2  0
 11  5  1  0
 12  2  1  0
 14 13  1  0
 15 14  2  0
 16 14  1  0
 17 16  1  0
 18 19  1  0
 18 17  1  0
 20 19  1  6
 20 21  1  0
 21  9  1  0
 22 20  1  0
 23 22  2  0
 24 28  1  0
 24 22  1  0
 25 24  1  0
 26 25  1  0
 26 27  1  0
 27 28  1  0
 28 29  1  1
 29 31  2  0
 29 30  1  0
M  END
$$$$
