NIN.pdb
     RDKit          3D

 25 24  0  0  1  0  0  0  0  0999 V2000
   27.9441  -21.2965  -20.9543 N   0  0  0  0  0  0  0  0  0  0  0  0
   27.2992  -20.5890  -19.9064 C   0  0  0  0  0  0  0  0  0  0  0  0
   27.2605  -19.3307  -20.0132 O   0  0  0  0  0  0  0  0  0  0  0  0
   26.6989  -21.2754  -18.7421 C   0  0  0  0  0  0  0  0  0  0  0  0
   27.0547  -20.5830  -17.4415 C   0  0  2  0  0  0  0  0  0  0  0  0
   28.4913  -20.8096  -17.2495 N   0  0  0  0  0  0  0  0  0  0  0  0
   26.3257  -21.2593  -16.3370 C   0  0  0  0  0  0  0  0  0  0  0  0
   25.9510  -22.4669  -16.5025 O   0  0  0  0  0  0  0  0  0  0  0  0
   27.9950  -20.9296  -11.2913 C   0  0  0  0  0  0  0  0  0  0  0  0
   27.4926  -21.4231  -12.6499 C   0  0  0  0  0  0  0  0  0  0  0  0
   26.0273  -21.1336  -12.7029 C   0  0  2  0  0  0  0  0  0  0  0  0
   25.2432  -21.7954  -11.5912 C   0  0  0  0  0  0  0  0  0  0  0  0
   25.3994  -21.3933  -14.0509 C   0  0  2  0  0  0  0  0  0  0  0  0
   26.0209  -20.6376  -15.1042 N   0  0  0  0  0  0  0  0  0  0  0  0
   23.9308  -21.1519  -13.9871 C   0  0  0  0  0  0  0  0  0  0  0  0
   23.4566  -19.9658  -14.0493 O   0  0  0  0  0  0  0  0  0  0  0  0
   21.5749  -24.9250  -15.7100 N   0  0  0  0  0  0  0  0  0  0  0  0
   21.1167  -23.5890  -15.5186 C   0  0  0  0  0  0  0  0  0  0  0  0
   21.0241  -22.7678  -16.4644 O   0  0  0  0  0  0  0  0  0  0  0  0
   20.7420  -23.1863  -14.1314 C   0  0  0  0  0  0  0  0  0  0  0  0
   21.5403  -21.9380  -13.8244 C   0  0  2  0  0  0  0  0  0  0  0  0
   22.9671  -22.1869  -13.8555 N   0  0  0  0  0  0  0  0  0  0  0  0
   21.1069  -21.3259  -12.5417 C   0  0  0  0  0  0  0  0  0  0  0  0
   21.7541  -21.6125  -11.5067 O   0  0  0  0  0  0  0  0  0  0  0  0
   20.0371  -20.4749  -12.4787 O   0  0  0  0  0  0  0  0  0  0  0  0
  1  2  1  0
  2  3  2  0
  4  5  1  0
  4  2  1  0
  5  6  1  1
  7  5  1  0
  8  7  2  0
  9 10  1  0
 10 11  1  0
 11 12  1  1
 13 11  1  0
 13 14  1  6
 14  7  1  0
 15 22  1  0
 15 13  1  0
 16 15  2  0
 18 17  1  0
 19 18  2  0
 20 18  1  0
 21 20  1  1
 21 22  1  0
 23 25  1  0
 23 21  1  0
 24 23  2  0
M  END
$$$$
