NIN.pdb
     RDKit          3D

 25 24  0  0  1  0  0  0  0  0999 V2000
   17.7162  -25.4359  -11.2645 N   0  0  0  0  0  0  0  0  0  0  0  0
   17.3198  -24.4965  -12.2519 C   0  0  0  0  0  0  0  0  0  0  0  0
   16.3941  -24.8540  -13.0340 O   0  0  0  0  0  0  0  0  0  0  0  0
   17.9490  -23.1636  -12.3722 C   0  0  0  0  0  0  0  0  0  0  0  0
   19.0323  -22.9618  -11.3312 C   0  0  2  0  0  0  0  0  0  0  0  0
   18.3396  -22.5200  -10.1158 N   0  0  0  0  0  0  0  0  0  0  0  0
   19.9195  -21.8602  -11.7871 C   0  0  0  0  0  0  0  0  0  0  0  0
   19.4841  -20.6629  -11.7313 O   0  0  0  0  0  0  0  0  0  0  0  0
   25.1213  -21.4499  -10.4715 C   0  0  0  0  0  0  0  0  0  0  0  0
   23.6254  -21.2737  -10.7409 C   0  0  0  0  0  0  0  0  0  0  0  0
   23.4698  -21.0722  -12.2137 C   0  0  2  0  0  0  0  0  0  0  0  0
   24.3295  -19.9543  -12.7616 C   0  0  0  0  0  0  0  0  0  0  0  0
   22.0358  -20.9373  -12.6658 C   0  0  2  0  0  0  0  0  0  0  0  0
   21.2281  -22.0632  -12.2830 N   0  0  0  0  0  0  0  0  0  0  0  0
   21.9826  -20.6900  -14.1339 C   0  0  0  0  0  0  0  0  0  0  0  0
   22.3282  -21.5977  -14.9660 O   0  0  0  0  0  0  0  0  0  0  0  0
   21.1875  -19.0572  -18.6950 N   0  0  0  0  0  0  0  0  0  0  0  0
   20.3514  -18.1561  -17.9736 C   0  0  0  0  0  0  0  0  0  0  0  0
   19.5735  -17.3544  -18.5478 O   0  0  0  0  0  0  0  0  0  0  0  0
   20.4290  -18.1946  -16.4838 C   0  0  0  0  0  0  0  0  0  0  0  0
   21.4453  -19.2622  -16.1418 C   0  0  2  0  0  0  0  0  0  0  0  0
   21.5574  -19.4642  -14.7117 N   0  0  0  0  0  0  0  0  0  0  0  0
   22.7600  -18.9727  -16.7709 C   0  0  0  0  0  0  0  0  0  0  0  0
   23.4902  -18.1075  -16.2321 O   0  0  0  0  0  0  0  0  0  0  0  0
   23.1721  -19.6229  -17.9023 O   0  0  0  0  0  0  0  0  0  0  0  0
  1  2  1  0
  2  3  2  0
  4  5  1  0
  4  2  1  0
  5  6  1  1
  7  5  1  0
  8  7  2  0
  9 10  1  0
 10 11  1  0
 11 12  1  1
 13 11  1  0
 13 14  1  6
 14  7  1  0
 15 22  1  0
 15 13  1  0
 16 15  2  0
 18 17  1  0
 19 18  2  0
 20 18  1  0
 21 20  1  1
 21 22  1  0
 23 25  1  0
 23 21  1  0
 24 23  2  0
M  END
$$$$
