NIN.pdb
     RDKit          3D

 25 24  0  0  1  0  0  0  0  0999 V2000
   22.0126  -22.2521   -7.6180 N   0  0  0  0  0  0  0  0  0  0  0  0
   21.6282  -21.7530   -8.8899 C   0  0  0  0  0  0  0  0  0  0  0  0
   20.4237  -21.9308   -9.2272 O   0  0  0  0  0  0  0  0  0  0  0  0
   22.5778  -21.0586   -9.7861 C   0  0  0  0  0  0  0  0  0  0  0  0
   24.0088  -21.2125   -9.3102 C   0  0  2  0  0  0  0  0  0  0  0  0
   24.0756  -20.5205   -8.0184 N   0  0  0  0  0  0  0  0  0  0  0  0
   24.8981  -20.5014  -10.2652 C   0  0  0  0  0  0  0  0  0  0  0  0
   25.0577  -19.2435  -10.1298 O   0  0  0  0  0  0  0  0  0  0  0  0
   29.8835  -21.6527  -11.1042 C   0  0  0  0  0  0  0  0  0  0  0  0
   28.5320  -20.9655  -10.8975 C   0  0  0  0  0  0  0  0  0  0  0  0
   27.8523  -20.9340  -12.2282 C   0  0  2  0  0  0  0  0  0  0  0  0
   28.6751  -20.2659  -13.3078 C   0  0  0  0  0  0  0  0  0  0  0  0
   26.4471  -20.3840  -12.1859 C   0  0  2  0  0  0  0  0  0  0  0  0
   25.5831  -21.1426  -11.3230 N   0  0  0  0  0  0  0  0  0  0  0  0
   25.8972  -20.2767  -13.5663 C   0  0  0  0  0  0  0  0  0  0  0  0
   25.6821  -21.3221  -14.2709 O   0  0  0  0  0  0  0  0  0  0  0  0
   22.5488  -18.1279  -17.3327 N   0  0  0  0  0  0  0  0  0  0  0  0
   23.8746  -17.6280  -17.1785 C   0  0  0  0  0  0  0  0  0  0  0  0
   24.5647  -17.2400  -18.1537 O   0  0  0  0  0  0  0  0  0  0  0  0
   24.4303  -17.5780  -15.7945 C   0  0  0  0  0  0  0  0  0  0  0  0
   24.9817  -18.9584  -15.5112 C   0  0  2  0  0  0  0  0  0  0  0  0
   25.5772  -19.0431  -14.1933 N   0  0  0  0  0  0  0  0  0  0  0  0
   25.9208  -19.3905  -16.5785 C   0  0  0  0  0  0  0  0  0  0  0  0
   27.0808  -18.9146  -16.5671 O   0  0  0  0  0  0  0  0  0  0  0  0
   25.5439  -20.2790  -17.5487 O   0  0  0  0  0  0  0  0  0  0  0  0
  1  2  1  0
  2  3  2  0
  4  5  1  0
  4  2  1  0
  5  6  1  1
  7  5  1  0
  8  7  2  0
  9 10  1  0
 10 11  1  0
 11 12  1  6
 13 11  1  0
 13 14  1  1
 14  7  1  0
 15 22  1  0
 15 13  1  0
 16 15  2  0
 18 17  1  0
 19 18  2  0
 20 18  1  0
 21 20  1  6
 21 22  1  0
 23 25  1  0
 23 21  1  0
 24 23  2  0
M  END
$$$$
