NIN.pdb
     RDKit          3D

 25 24  0  0  1  0  0  0  0  0999 V2000
   30.1860  -25.9796  -19.3988 N   0  0  0  0  0  0  0  0  0  0  0  0
   28.7892  -26.1056  -19.1811 C   0  0  0  0  0  0  0  0  0  0  0  0
   28.1799  -26.9544  -19.8914 O   0  0  0  0  0  0  0  0  0  0  0  0
   28.0692  -25.2916  -18.1779 C   0  0  0  0  0  0  0  0  0  0  0  0
   28.9977  -24.3191  -17.4778 C   0  0  2  0  0  0  0  0  0  0  0  0
   29.7502  -25.1177  -16.5040 N   0  0  0  0  0  0  0  0  0  0  0  0
   28.1693  -23.3362  -16.7321 C   0  0  0  0  0  0  0  0  0  0  0  0
   27.7020  -23.6708  -15.5937 O   0  0  0  0  0  0  0  0  0  0  0  0
   29.3134  -18.3504  -17.5569 C   0  0  0  0  0  0  0  0  0  0  0  0
   28.9765  -19.4332  -16.5295 C   0  0  0  0  0  0  0  0  0  0  0  0
   27.5072  -19.6874  -16.6318 C   0  0  2  0  0  0  0  0  0  0  0  0
   26.6741  -18.7450  -15.7912 C   0  0  0  0  0  0  0  0  0  0  0  0
   27.1163  -21.1267  -16.3981 C   0  0  2  0  0  0  0  0  0  0  0  0
   27.8665  -22.0419  -17.2143 N   0  0  0  0  0  0  0  0  0  0  0  0
   25.6477  -21.2951  -16.5821 C   0  0  0  0  0  0  0  0  0  0  0  0
   25.0586  -20.8355  -17.6201 O   0  0  0  0  0  0  0  0  0  0  0  0
   21.5027  -18.9401  -13.9659 N   0  0  0  0  0  0  0  0  0  0  0  0
   21.9451  -20.2950  -13.9648 C   0  0  0  0  0  0  0  0  0  0  0  0
   21.1654  -21.2568  -13.7535 O   0  0  0  0  0  0  0  0  0  0  0  0
   23.3929  -20.5422  -14.2282 C   0  0  0  0  0  0  0  0  0  0  0  0
   23.4507  -21.5359  -15.3679 C   0  0  2  0  0  0  0  0  0  0  0  0
   24.8075  -21.9587  -15.6488 N   0  0  0  0  0  0  0  0  0  0  0  0
   22.7679  -21.0063  -16.5767 C   0  0  0  0  0  0  0  0  0  0  0  0
   23.1570  -19.9062  -17.0355 O   0  0  0  0  0  0  0  0  0  0  0  0
   21.7457  -21.6880  -17.1793 O   0  0  0  0  0  0  0  0  0  0  0  0
  1  2  1  0
  2  3  2  0
  4  5  1  0
  4  2  1  0
  5  6  1  1
  7  5  1  0
  8  7  2  0
  9 10  1  0
 10 11  1  0
 11 12  1  1
 13 11  1  0
 13 14  1  6
 14  7  1  0
 15 22  1  0
 15 13  1  0
 16 15  2  0
 18 17  1  0
 19 18  2  0
 20 18  1  0
 21 20  1  1
 21 22  1  0
 23 25  1  0
 23 21  1  0
 24 23  2  0
M  END
$$$$
