NIN.pdb
     RDKit          3D

 25 24  0  0  1  0  0  0  0  0999 V2000
   22.7988  -16.0274  -21.6104 N   0  0  0  0  0  0  0  0  0  0  0  0
   22.1211  -16.6923  -20.5554 C   0  0  0  0  0  0  0  0  0  0  0  0
   20.9044  -16.3957  -20.3885 O   0  0  0  0  0  0  0  0  0  0  0  0
   22.7915  -17.6839  -19.6867 C   0  0  0  0  0  0  0  0  0  0  0  0
   22.2898  -17.6043  -18.2585 C   0  0  2  0  0  0  0  0  0  0  0  0
   22.5186  -16.2192  -17.8325 N   0  0  0  0  0  0  0  0  0  0  0  0
   23.1312  -18.4945  -17.4170 C   0  0  0  0  0  0  0  0  0  0  0  0
   23.2317  -19.7241  -17.7401 O   0  0  0  0  0  0  0  0  0  0  0  0
   26.5692  -16.0798  -15.1721 C   0  0  0  0  0  0  0  0  0  0  0  0
   26.6958  -17.5575  -15.5488 C   0  0  0  0  0  0  0  0  0  0  0  0
   25.7088  -18.3055  -14.7122 C   0  0  2  0  0  0  0  0  0  0  0  0
   26.3534  -19.2598  -13.7311 C   0  0  0  0  0  0  0  0  0  0  0  0
   24.6205  -18.9846  -15.5080 C   0  0  2  0  0  0  0  0  0  0  0  0
   23.8323  -18.0550  -16.2704 N   0  0  0  0  0  0  0  0  0  0  0  0
   23.7764  -19.8223  -14.6108 C   0  0  0  0  0  0  0  0  0  0  0  0
   24.1889  -20.9582  -14.1925 O   0  0  0  0  0  0  0  0  0  0  0  0
   20.1016  -20.5236  -10.0220 N   0  0  0  0  0  0  0  0  0  0  0  0
   20.7120  -20.9183  -11.2480 C   0  0  0  0  0  0  0  0  0  0  0  0
   20.5289  -22.0524  -11.7558 O   0  0  0  0  0  0  0  0  0  0  0  0
   21.5938  -19.9228  -11.9249 C   0  0  0  0  0  0  0  0  0  0  0  0
   21.6276  -20.3142  -13.3863 C   0  0  2  0  0  0  0  0  0  0  0  0
   22.4847  -19.4400  -14.1608 N   0  0  0  0  0  0  0  0  0  0  0  0
   20.2559  -20.3974  -13.9513 C   0  0  0  0  0  0  0  0  0  0  0  0
   19.7747  -19.3661  -14.4776 O   0  0  0  0  0  0  0  0  0  0  0  0
   19.5305  -21.5568  -13.9050 O   0  0  0  0  0  0  0  0  0  0  0  0
  1  2  1  0
  2  3  2  0
  4  5  1  0
  4  2  1  0
  5  6  1  1
  7  5  1  0
  8  7  2  0
  9 10  1  0
 10 11  1  0
 11 12  1  6
 13 11  1  0
 13 14  1  1
 14  7  1  0
 15 22  1  0
 15 13  1  0
 16 15  2  0
 18 17  1  0
 19 18  2  0
 20 18  1  0
 21 20  1  1
 21 22  1  0
 23 25  1  0
 23 21  1  0
 24 23  2  0
M  END
$$$$
