NIN.pdb
     RDKit          3D

 25 24  0  0  1  0  0  0  0  0999 V2000
   22.2710  -15.2290  -17.6537 N   0  0  0  0  0  0  0  0  0  0  0  0
   21.3172  -14.7073  -16.7412 C   0  0  0  0  0  0  0  0  0  0  0  0
   20.9628  -15.4677  -15.7966 O   0  0  0  0  0  0  0  0  0  0  0  0
   20.7574  -13.3451  -16.8762 C   0  0  0  0  0  0  0  0  0  0  0  0
   19.2419  -13.3650  -16.9061 C   0  0  2  0  0  0  0  0  0  0  0  0
   18.8764  -13.8883  -18.2270 N   0  0  0  0  0  0  0  0  0  0  0  0
   18.7539  -11.9646  -16.8095 C   0  0  0  0  0  0  0  0  0  0  0  0
   18.8643  -11.2079  -17.8301 O   0  0  0  0  0  0  0  0  0  0  0  0
   14.5974  -11.8360  -15.2336 C   0  0  0  0  0  0  0  0  0  0  0  0
   15.2129  -10.6869  -16.0351 C   0  0  0  0  0  0  0  0  0  0  0  0
   16.2148  -10.0243  -15.1458 C   0  0  2  0  0  0  0  0  0  0  0  0
   15.8305   -8.6148  -14.7528 C   0  0  0  0  0  0  0  0  0  0  0  0
   17.6308  -10.0853  -15.6654 C   0  0  2  0  0  0  0  0  0  0  0  0
   18.1699  -11.4178  -15.6437 N   0  0  0  0  0  0  0  0  0  0  0  0
   18.4922   -9.1262  -14.9188 C   0  0  0  0  0  0  0  0  0  0  0  0
   19.1998   -9.5137  -13.9264 O   0  0  0  0  0  0  0  0  0  0  0  0
   21.3870   -5.2932  -13.6985 N   0  0  0  0  0  0  0  0  0  0  0  0
   21.9536   -6.4343  -14.3376 C   0  0  0  0  0  0  0  0  0  0  0  0
   23.1940   -6.6188  -14.4082 O   0  0  0  0  0  0  0  0  0  0  0  0
   21.0092   -7.4245  -14.9329 C   0  0  0  0  0  0  0  0  0  0  0  0
   19.6183   -6.8819  -14.6860 C   0  0  2  0  0  0  0  0  0  0  0  0
   18.5947   -7.7460  -15.2377 N   0  0  0  0  0  0  0  0  0  0  0  0
   19.4933   -5.4840  -15.1738 C   0  0  0  0  0  0  0  0  0  0  0  0
   19.7775   -4.5575  -14.3783 O   0  0  0  0  0  0  0  0  0  0  0  0
   19.0819   -5.2035  -16.4485 O   0  0  0  0  0  0  0  0  0  0  0  0
  1  2  1  0
  2  3  2  0
  4  5  1  0
  4  2  1  0
  5  6  1  6
  7  5  1  0
  8  7  2  0
  9 10  1  0
 10 11  1  0
 11 12  1  6
 13 11  1  0
 13 14  1  1
 14  7  1  0
 15 22  1  0
 15 13  1  0
 16 15  2  0
 18 17  1  0
 19 18  2  0
 20 18  1  0
 21 20  1  6
 21 22  1  0
 23 25  1  0
 23 21  1  0
 24 23  2  0
M  END
$$$$
