NGA.pdb
     RDKit          3D

 18 17  0  0  1  0  0  0  0  0999 V2000
    7.9020  -12.3293   18.4730 N   0  0  0  0  0  0  0  0  0  0  0  0
    7.6800  -13.6540   18.9495 C   0  0  0  0  0  0  0  0  0  0  0  0
    7.9106  -14.5902   18.1452 O   0  0  0  0  0  0  0  0  0  0  0  0
    7.2007  -13.9554   20.3200 C   0  0  0  0  0  0  0  0  0  0  0  0
    8.3667  -14.0074   21.2479 C   0  0  2  0  0  0  0  0  0  0  0  0
    9.4218  -14.7671   20.6030 N   0  0  0  0  0  0  0  0  0  0  0  0
    8.0565  -14.6206   22.5526 C   0  0  0  0  0  0  0  0  0  0  0  0
    7.2141  -14.1149   23.3435 O   0  0  0  0  0  0  0  0  0  0  0  0
    8.6848  -15.8156   22.9996 N   0  0  0  0  0  0  0  0  0  0  0  0
    8.5125  -16.3368   24.3147 C   0  0  0  0  0  0  0  0  0  0  0  0
    9.4370  -15.8153   25.3107 C   0  0  0  0  0  0  0  0  0  0  0  0
   10.5805  -16.3104   25.4201 O   0  0  0  0  0  0  0  0  0  0  0  0
    9.3084  -13.1119   27.9733 C   0  0  0  0  0  0  0  0  0  0  0  0
    9.9643  -14.2929   27.2446 C   0  0  2  0  0  0  0  0  0  0  0  0
    9.0843  -14.7521   26.1736 N   0  0  0  0  0  0  0  0  0  0  0  0
   10.1473  -15.3553   28.2328 C   0  0  0  0  0  0  0  0  0  0  0  0
    9.3739  -16.3345   28.2644 O   0  0  0  0  0  0  0  0  0  0  0  0
   11.1799  -15.2852   29.1427 O   0  0  0  0  0  0  0  0  0  0  0  0
  2  1  1  0
  3  2  2  0
  4  2  1  0
  5  4  1  0
  5  6  1  6
  7  5  1  0
  7  8  2  0
  9  7  1  0
 10  9  1  0
 11 10  1  0
 12 11  2  0
 14 13  1  1
 14 15  1  0
 14 16  1  0
 15 11  1  0
 16 18  1  0
 17 16  2  0
M  END
$$$$
