NGA.pdb
     RDKit          3D

 18 17  0  0  1  0  0  0  0  0999 V2000
    0.9038  -21.7117   20.2333 N   0  0  0  0  0  0  0  0  0  0  0  0
    1.6927  -20.6510   19.7006 C   0  0  0  0  0  0  0  0  0  0  0  0
    2.1725  -20.8243   18.5533 O   0  0  0  0  0  0  0  0  0  0  0  0
    1.9583  -19.3887   20.4322 C   0  0  0  0  0  0  0  0  0  0  0  0
    3.4310  -19.1754   20.5253 C   0  0  2  0  0  0  0  0  0  0  0  0
    3.9997  -20.2805   21.2747 N   0  0  0  0  0  0  0  0  0  0  0  0
    3.8041  -17.9060   21.1764 C   0  0  0  0  0  0  0  0  0  0  0  0
    3.5687  -17.6881   22.3963 O   0  0  0  0  0  0  0  0  0  0  0  0
    4.4499  -16.8519   20.4733 N   0  0  0  0  0  0  0  0  0  0  0  0
    4.8188  -15.6211   21.0894 C   0  0  0  0  0  0  0  0  0  0  0  0
    6.2499  -15.4270   21.2712 C   0  0  0  0  0  0  0  0  0  0  0  0
    7.0448  -16.3532   20.9973 O   0  0  0  0  0  0  0  0  0  0  0  0
    8.4765  -12.4662   22.0242 C   0  0  0  0  0  0  0  0  0  0  0  0
    8.2213  -13.9683   21.8380 C   0  0  2  0  0  0  0  0  0  0  0  0
    6.7837  -14.2099   21.7540 N   0  0  0  0  0  0  0  0  0  0  0  0
    8.7751  -14.6436   23.0110 C   0  0  0  0  0  0  0  0  0  0  0  0
   10.0082  -14.7903   23.1371 O   0  0  0  0  0  0  0  0  0  0  0  0
    7.9372  -15.1265   23.9927 O   0  0  0  0  0  0  0  0  0  0  0  0
  2  1  1  0
  3  2  2  0
  4  2  1  0
  5  4  1  0
  5  6  1  1
  7  5  1  0
  7  8  2  0
  9  7  1  0
 10  9  1  0
 11 10  1  0
 12 11  2  0
 14 13  1  1
 14 15  1  0
 14 16  1  0
 15 11  1  0
 16 18  1  0
 17 16  2  0
M  END
$$$$
