NGA.pdb
     RDKit          3D

 18 17  0  0  1  0  0  0  0  0999 V2000
   12.6781  -19.1479   18.8189 N   0  0  0  0  0  0  0  0  0  0  0  0
   11.9655  -19.1398   20.0531 C   0  0  0  0  0  0  0  0  0  0  0  0
   12.0968  -20.1492   20.7884 O   0  0  0  0  0  0  0  0  0  0  0  0
   11.1011  -18.0152   20.4854 C   0  0  0  0  0  0  0  0  0  0  0  0
   11.8165  -17.2155   21.5207 C   0  0  2  0  0  0  0  0  0  0  0  0
   12.6614  -18.1171   22.2820 N   0  0  0  0  0  0  0  0  0  0  0  0
   10.9146  -16.5020   22.4437 C   0  0  0  0  0  0  0  0  0  0  0  0
   10.6827  -15.2675   22.3279 O   0  0  0  0  0  0  0  0  0  0  0  0
   10.2521  -17.1575   23.5179 N   0  0  0  0  0  0  0  0  0  0  0  0
    9.3756  -16.4822   24.4157 C   0  0  0  0  0  0  0  0  0  0  0  0
   10.0289  -15.8268   25.5393 C   0  0  0  0  0  0  0  0  0  0  0  0
   11.2650  -15.9391   25.6942 O   0  0  0  0  0  0  0  0  0  0  0  0
    9.0076  -13.2678   28.1199 C   0  0  0  0  0  0  0  0  0  0  0  0
    9.9619  -14.3344   27.5651 C   0  0  2  0  0  0  0  0  0  0  0  0
    9.3057  -15.0550   26.4778 N   0  0  0  0  0  0  0  0  0  0  0  0
   10.2622  -15.2511   28.6642 C   0  0  0  0  0  0  0  0  0  0  0  0
   10.9114  -14.8626   29.6570 O   0  0  0  0  0  0  0  0  0  0  0  0
    9.8294  -16.5585   28.6142 O   0  0  0  0  0  0  0  0  0  0  0  0
  2  1  1  0
  3  2  2  0
  4  2  1  0
  5  4  1  0
  5  6  1  1
  7  5  1  0
  7  8  2  0
  9  7  1  0
 10  9  1  0
 11 10  1  0
 12 11  2  0
 14 13  1  1
 14 15  1  0
 14 16  1  0
 15 11  1  0
 16 18  1  0
 17 16  2  0
M  END
$$$$
