NGA.pdb
     RDKit          3D

 18 17  0  0  1  0  0  0  0  0999 V2000
    8.3576  -12.5432   18.1683 N   0  0  0  0  0  0  0  0  0  0  0  0
    7.7917  -13.7665   18.6316 C   0  0  0  0  0  0  0  0  0  0  0  0
    7.7278  -14.7089   17.8044 O   0  0  0  0  0  0  0  0  0  0  0  0
    7.2912  -13.9586   20.0141 C   0  0  0  0  0  0  0  0  0  0  0  0
    8.3933  -14.4899   20.8663 C   0  0  2  0  0  0  0  0  0  0  0  0
    8.6309  -15.8703   20.4863 N   0  0  0  0  0  0  0  0  0  0  0  0
    8.1053  -14.4280   22.3112 C   0  0  0  0  0  0  0  0  0  0  0  0
    7.9094  -13.3329   22.9056 O   0  0  0  0  0  0  0  0  0  0  0  0
    8.0305  -15.5939   23.1221 N   0  0  0  0  0  0  0  0  0  0  0  0
    7.7399  -15.5510   24.5165 C   0  0  0  0  0  0  0  0  0  0  0  0
    8.8756  -15.2448   25.3739 C   0  0  0  0  0  0  0  0  0  0  0  0
   10.0399  -15.4400   24.9605 O   0  0  0  0  0  0  0  0  0  0  0  0
    9.4294  -13.3697   28.5812 C   0  0  0  0  0  0  0  0  0  0  0  0
    9.8417  -14.4298   27.5507 C   0  0  2  0  0  0  0  0  0  0  0  0
    8.7085  -14.7263   26.6788 N   0  0  0  0  0  0  0  0  0  0  0  0
   10.2243  -15.6263   28.2994 C   0  0  0  0  0  0  0  0  0  0  0  0
    9.5115  -16.6505   28.2689 O   0  0  0  0  0  0  0  0  0  0  0  0
   11.3805  -15.6347   29.0491 O   0  0  0  0  0  0  0  0  0  0  0  0
  2  1  1  0
  3  2  2  0
  4  2  1  0
  5  4  1  0
  5  6  1  6
  7  5  1  0
  7  8  2  0
  9  7  1  0
 10  9  1  0
 11 10  1  0
 12 11  2  0
 14 13  1  1
 14 15  1  0
 14 16  1  0
 15 11  1  0
 16 18  1  0
 17 16  2  0
M  END
$$$$
