NGA.pdb
     RDKit          3D

 18 17  0  0  1  0  0  0  0  0999 V2000
    4.2345  -19.6650   19.0508 N   0  0  0  0  0  0  0  0  0  0  0  0
    5.1622  -18.5843   19.0002 C   0  0  0  0  0  0  0  0  0  0  0  0
    5.5934  -18.1574   20.0996 O   0  0  0  0  0  0  0  0  0  0  0  0
    5.6216  -17.9658   17.7332 C   0  0  0  0  0  0  0  0  0  0  0  0
    6.8853  -18.6246   17.2948 C   0  0  2  0  0  0  0  0  0  0  0  0
    6.6012  -20.0268   17.0512 N   0  0  0  0  0  0  0  0  0  0  0  0
    7.9799  -18.5158   18.2770 C   0  0  0  0  0  0  0  0  0  0  0  0
    8.5512  -17.4178   18.5197 O   0  0  0  0  0  0  0  0  0  0  0  0
    8.4583  -19.6371   19.0095 N   0  0  0  0  0  0  0  0  0  0  0  0
    9.5160  -19.5479   19.9602 C   0  0  0  0  0  0  0  0  0  0  0  0
    9.3361  -18.5349   20.9898 C   0  0  0  0  0  0  0  0  0  0  0  0
    8.5134  -17.6087   20.8166 O   0  0  0  0  0  0  0  0  0  0  0  0
   10.4119  -18.0988   24.5756 C   0  0  0  0  0  0  0  0  0  0  0  0
    9.8890  -17.5520   23.2401 C   0  0  2  0  0  0  0  0  0  0  0  0
   10.0691  -18.5596   22.1987 N   0  0  0  0  0  0  0  0  0  0  0  0
   10.6794  -16.3619   22.9277 C   0  0  0  0  0  0  0  0  0  0  0  0
   10.5618  -15.3233   23.6100 O   0  0  0  0  0  0  0  0  0  0  0  0
   11.5656  -16.3757   21.8725 O   0  0  0  0  0  0  0  0  0  0  0  0
  2  1  1  0
  3  2  2  0
  4  2  1  0
  5  4  1  0
  5  6  1  1
  7  5  1  0
  7  8  2  0
  9  7  1  0
 10  9  1  0
 11 10  1  0
 12 11  2  0
 14 13  1  1
 14 15  1  0
 14 16  1  0
 15 11  1  0
 16 18  1  0
 17 16  2  0
M  END
$$$$
