NGA.pdb
     RDKit          3D

 18 17  0  0  1  0  0  0  0  0999 V2000
    8.3463  -12.6451   16.6369 N   0  0  0  0  0  0  0  0  0  0  0  0
    7.5222  -13.5878   17.3176 C   0  0  0  0  0  0  0  0  0  0  0  0
    7.0199  -14.5052   16.6227 O   0  0  0  0  0  0  0  0  0  0  0  0
    7.2461  -13.5246   18.7731 C   0  0  0  0  0  0  0  0  0  0  0  0
    8.2247  -14.3860   19.4967 C   0  0  2  0  0  0  0  0  0  0  0  0
    7.8699  -15.7723   19.2541 N   0  0  0  0  0  0  0  0  0  0  0  0
    8.2633  -14.1434   20.9507 C   0  0  0  0  0  0  0  0  0  0  0  0
    8.7794  -13.1013   21.4392 O   0  0  0  0  0  0  0  0  0  0  0  0
    7.7236  -15.0649   21.8899 N   0  0  0  0  0  0  0  0  0  0  0  0
    7.7572  -14.8462   23.2976 C   0  0  0  0  0  0  0  0  0  0  0  0
    8.8729  -15.4718   23.9924 C   0  0  0  0  0  0  0  0  0  0  0  0
    8.9102  -15.4681   25.2427 O   0  0  0  0  0  0  0  0  0  0  0  0
   11.1172  -18.1940   23.7046 C   0  0  0  0  0  0  0  0  0  0  0  0
   11.0783  -16.6849   23.9822 C   0  0  2  0  0  0  0  0  0  0  0  0
    9.9338  -16.0938   23.2945 N   0  0  0  0  0  0  0  0  0  0  0  0
   12.3225  -16.1227   23.4584 C   0  0  0  0  0  0  0  0  0  0  0  0
   12.3463  -15.5580   22.3455 O   0  0  0  0  0  0  0  0  0  0  0  0
   13.4859  -16.2113   24.1917 O   0  0  0  0  0  0  0  0  0  0  0  0
  2  1  1  0
  3  2  2  0
  4  2  1  0
  5  4  1  0
  5  6  1  1
  7  5  1  0
  7  8  2  0
  9  7  1  0
 10  9  1  0
 11 10  1  0
 12 11  2  0
 14 13  1  6
 14 15  1  0
 14 16  1  0
 15 11  1  0
 16 18  1  0
 17 16  2  0
M  END
$$$$
