NGA.pdb
     RDKit          3D

 18 17  0  0  1  0  0  0  0  0999 V2000
    7.1435  -12.2878   18.8824 N   0  0  0  0  0  0  0  0  0  0  0  0
    8.1026  -13.2521   19.3084 C   0  0  0  0  0  0  0  0  0  0  0  0
    8.7521  -13.8393   18.4084 O   0  0  0  0  0  0  0  0  0  0  0  0
    8.3522  -13.5757   20.7338 C   0  0  0  0  0  0  0  0  0  0  0  0
    8.0291  -15.0111   20.9757 C   0  0  2  0  0  0  0  0  0  0  0  0
    6.5852  -15.1564   20.9606 N   0  0  0  0  0  0  0  0  0  0  0  0
    8.5546  -15.5279   22.2529 C   0  0  0  0  0  0  0  0  0  0  0  0
    9.7802  -15.7763   22.4178 O   0  0  0  0  0  0  0  0  0  0  0  0
    7.7165  -15.7778   23.3743 N   0  0  0  0  0  0  0  0  0  0  0  0
    8.1818  -16.4084   24.5645 C   0  0  0  0  0  0  0  0  0  0  0  0
    9.1443  -15.6357   25.3360 C   0  0  0  0  0  0  0  0  0  0  0  0
   10.2571  -15.3518   24.8403 O   0  0  0  0  0  0  0  0  0  0  0  0
    9.1031  -13.2898   28.1714 C   0  0  0  0  0  0  0  0  0  0  0  0
    9.8284  -14.4233   27.4331 C   0  0  2  0  0  0  0  0  0  0  0  0
    8.8632  -15.1866   26.6470 N   0  0  0  0  0  0  0  0  0  0  0  0
   10.4320  -15.2793   28.4537 C   0  0  0  0  0  0  0  0  0  0  0  0
   11.3271  -14.8395   29.2043 O   0  0  0  0  0  0  0  0  0  0  0  0
   10.0165  -16.5853   28.5972 O   0  0  0  0  0  0  0  0  0  0  0  0
  2  1  1  0
  3  2  2  0
  4  2  1  0
  5  4  1  0
  5  6  1  1
  7  5  1  0
  7  8  2  0
  9  7  1  0
 10  9  1  0
 11 10  1  0
 12 11  2  0
 14 13  1  1
 14 15  1  0
 14 16  1  0
 15 11  1  0
 16 18  1  0
 17 16  2  0
M  END
$$$$
