FAL.pdb
     RDKit          3D

 25 25  0  0  1  0  0  0  0  0999 V2000
    6.9952  -18.2576   20.2269 N   0  0  0  0  0  0  0  0  0  0  0  0
    7.4871  -16.9990   20.6897 C   0  0  1  0  0  0  0  0  0  0  0  0
    6.3877  -15.9877   20.9047 C   0  0  0  0  0  0  0  0  0  0  0  0
    6.8687  -14.6497   21.2358 C   0  0  0  0  0  0  0  0  0  0  0  0
    7.7264  -14.0148   20.3642 C   0  0  0  0  0  0  0  0  0  0  0  0
    8.2295  -12.7517   20.5955 C   0  0  0  0  0  0  0  0  0  0  0  0
    7.8616  -12.0941   21.7448 C   0  0  0  0  0  0  0  0  0  0  0  0
    7.0100  -12.6979   22.6320 C   0  0  0  0  0  0  0  0  0  0  0  0
    6.5180  -13.9678   22.3768 C   0  0  0  0  0  0  0  0  0  0  0  0
    8.1745  -17.1690   21.9927 C   0  0  0  0  0  0  0  0  0  0  0  0
    7.5016  -17.5565   22.9772 O   0  0  0  0  0  0  0  0  0  0  0  0
   11.7212  -17.4471   23.2330 C   0  0  0  0  0  0  0  0  0  0  0  0
   10.2501  -17.1796   23.4254 C   0  0  2  0  0  0  0  0  0  0  0  0
    9.5563  -16.9192   22.1988 N   0  0  0  0  0  0  0  0  0  0  0  0
   10.1314  -16.0682   24.4023 C   0  0  0  0  0  0  0  0  0  0  0  0
   11.0633  -15.2011   24.3678 O   0  0  0  0  0  0  0  0  0  0  0  0
    6.7761  -12.0199   26.5134 C   0  0  0  0  0  0  0  0  0  0  0  0
    8.0930  -12.7702   26.3464 C   0  0  2  0  0  0  0  0  0  0  0  0
    8.7942  -12.4040   25.0818 C   0  0  0  0  0  0  0  0  0  0  0  0
    7.9460  -14.2206   26.6135 C   0  0  0  0  0  0  0  0  0  0  0  0
    9.1673  -15.0682   26.4441 C   0  0  2  0  0  0  0  0  0  0  0  0
    9.0569  -15.9699   25.3169 N   0  0  0  0  0  0  0  0  0  0  0  0
    9.6510  -15.7358   27.6528 C   0  0  0  0  0  0  0  0  0  0  0  0
    9.3259  -16.9087   27.9269 O   0  0  0  0  0  0  0  0  0  0  0  0
   10.4883  -15.0641   28.5211 O   0  0  0  0  0  0  0  0  0  0  0  0
  2  3  1  0
  2  1  1  1
  2 10  1  0
  4  3  1  0
  4  9  2  0
  5  4  1  0
  6  5  2  0
  6  7  1  0
  7  8  2  0
  8  9  1  0
 10 14  1  0
 11 10  2  0
 13 12  1  6
 14 13  1  0
 15 16  2  0
 15 13  1  0
 18 20  1  0
 18 17  1  6
 18 19  1  0
 21 22  1  0
 21 20  1  1
 22 15  1  0
 23 21  1  0
 24 23  2  0
 25 23  1  0
M  END
$$$$
