FAL.pdb
     RDKit          3D

 25 25  0  0  1  0  0  0  0  0999 V2000
    9.8899  -18.3553   27.6810 N   0  0  0  0  0  0  0  0  0  0  0  0
    9.1532  -17.4885   26.8173 C   0  0  1  0  0  0  0  0  0  0  0  0
    9.9629  -16.3018   26.3548 C   0  0  0  0  0  0  0  0  0  0  0  0
    9.7846  -15.1064   27.1734 C   0  0  0  0  0  0  0  0  0  0  0  0
    8.8377  -14.1776   26.8000 C   0  0  0  0  0  0  0  0  0  0  0  0
    8.6012  -13.0211   27.5131 C   0  0  0  0  0  0  0  0  0  0  0  0
    9.3405  -12.7806   28.6463 C   0  0  0  0  0  0  0  0  0  0  0  0
   10.2899  -13.6845   29.0447 C   0  0  0  0  0  0  0  0  0  0  0  0
   10.5087  -14.8393   28.3111 C   0  0  0  0  0  0  0  0  0  0  0  0
    8.7319  -18.2216   25.5990 C   0  0  0  0  0  0  0  0  0  0  0  0
    9.4830  -19.1215   25.1534 O   0  0  0  0  0  0  0  0  0  0  0  0
    5.7770  -18.3632   23.2172 C   0  0  0  0  0  0  0  0  0  0  0  0
    7.2377  -18.4501   23.5801 C   0  0  2  0  0  0  0  0  0  0  0  0
    7.5235  -17.9683   24.8992 N   0  0  0  0  0  0  0  0  0  0  0  0
    7.9942  -17.7289   22.5260 C   0  0  0  0  0  0  0  0  0  0  0  0
    7.9932  -18.2740   21.3752 O   0  0  0  0  0  0  0  0  0  0  0  0
    6.8814  -14.7503   20.2961 C   0  0  0  0  0  0  0  0  0  0  0  0
    7.5334  -14.0637   21.4914 C   0  0  2  0  0  0  0  0  0  0  0  0
    7.1797  -12.6169   21.5727 C   0  0  0  0  0  0  0  0  0  0  0  0
    8.9749  -14.3894   21.6034 C   0  0  0  0  0  0  0  0  0  0  0  0
    9.3385  -15.8388   21.6783 C   0  0  2  0  0  0  0  0  0  0  0  0
    8.6756  -16.5145   22.7738 N   0  0  0  0  0  0  0  0  0  0  0  0
   10.7689  -16.1400   21.6151 C   0  0  0  0  0  0  0  0  0  0  0  0
   11.3458  -16.7689   22.5252 O   0  0  0  0  0  0  0  0  0  0  0  0
   11.5118  -15.7244   20.5282 O   0  0  0  0  0  0  0  0  0  0  0  0
  2  3  1  0
  2  1  1  1
  2 10  1  0
  4  3  1  0
  4  9  2  0
  5  4  1  0
  6  5  2  0
  6  7  1  0
  7  8  2  0
  8  9  1  0
 10 14  1  0
 11 10  2  0
 13 12  1  6
 14 13  1  0
 15 16  2  0
 15 13  1  0
 18 20  1  0
 18 17  1  6
 18 19  1  0
 21 22  1  0
 21 20  1  1
 22 15  1  0
 23 21  1  0
 24 23  2  0
 25 23  1  0
M  END
$$$$
