FAL.pdb
     RDKit          3D

 25 25  0  0  1  0  0  0  0  0999 V2000
    6.0829  -18.0403   23.0169 N   0  0  0  0  0  0  0  0  0  0  0  0
    6.8429  -16.9330   23.5034 C   0  0  1  0  0  0  0  0  0  0  0  0
    6.3351  -16.4149   24.8268 C   0  0  0  0  0  0  0  0  0  0  0  0
    6.5161  -14.9780   25.0104 C   0  0  0  0  0  0  0  0  0  0  0  0
    7.2806  -14.2806   24.1005 C   0  0  0  0  0  0  0  0  0  0  0  0
    7.5044  -12.9230   24.1951 C   0  0  0  0  0  0  0  0  0  0  0  0
    6.9420  -12.2319   25.2413 C   0  0  0  0  0  0  0  0  0  0  0  0
    6.1764  -12.8960   26.1631 C   0  0  0  0  0  0  0  0  0  0  0  0
    5.9662  -14.2605   26.0461 C   0  0  0  0  0  0  0  0  0  0  0  0
    8.2540  -17.3373   23.7138 C   0  0  0  0  0  0  0  0  0  0  0  0
    8.4851  -18.3839   24.3647 O   0  0  0  0  0  0  0  0  0  0  0  0
   11.7073  -16.1782   22.6043 C   0  0  0  0  0  0  0  0  0  0  0  0
   10.7352  -16.9982   23.4138 C   0  0  2  0  0  0  0  0  0  0  0  0
    9.3691  -16.6101   23.2219 N   0  0  0  0  0  0  0  0  0  0  0  0
   11.1653  -16.9128   24.8320 C   0  0  0  0  0  0  0  0  0  0  0  0
   12.3320  -17.3571   25.0826 O   0  0  0  0  0  0  0  0  0  0  0  0
   11.1400  -13.4396   27.6801 C   0  0  0  0  0  0  0  0  0  0  0  0
    9.7914  -14.1442   27.7798 C   0  0  2  0  0  0  0  0  0  0  0  0
    8.8101  -13.3709   28.5947 C   0  0  0  0  0  0  0  0  0  0  0  0
    9.9359  -15.5788   28.1225 C   0  0  0  0  0  0  0  0  0  0  0  0
   10.7952  -16.4078   27.2208 C   0  0  2  0  0  0  0  0  0  0  0  0
   10.3400  -16.3747   25.8469 N   0  0  0  0  0  0  0  0  0  0  0  0
   11.0812  -17.7653   27.6857 C   0  0  0  0  0  0  0  0  0  0  0  0
   12.1071  -18.0284   28.3450 O   0  0  0  0  0  0  0  0  0  0  0  0
   10.2037  -18.7908   27.3953 O   0  0  0  0  0  0  0  0  0  0  0  0
  2  3  1  0
  2  1  1  1
  2 10  1  0
  4  3  1  0
  4  9  2  0
  5  4  1  0
  6  5  2  0
  6  7  1  0
  7  8  2  0
  8  9  1  0
 10 14  1  0
 11 10  2  0
 13 12  1  6
 14 13  1  0
 15 16  2  0
 15 13  1  0
 18 20  1  0
 18 17  1  1
 18 19  1  0
 21 22  1  0
 21 20  1  1
 22 15  1  0
 23 21  1  0
 24 23  2  0
 25 23  1  0
M  END
$$$$
