FAL.pdb
     RDKit          3D

 25 25  0  0  1  0  0  0  0  0999 V2000
    6.3548  -18.1095   22.5769 N   0  0  0  0  0  0  0  0  0  0  0  0
    6.9188  -16.9658   23.2204 C   0  0  1  0  0  0  0  0  0  0  0  0
    6.2242  -16.6251   24.5161 C   0  0  0  0  0  0  0  0  0  0  0  0
    6.7710  -15.4525   25.1922 C   0  0  0  0  0  0  0  0  0  0  0  0
    7.6212  -15.6352   26.2611 C   0  0  0  0  0  0  0  0  0  0  0  0
    8.1842  -14.5865   26.9578 C   0  0  0  0  0  0  0  0  0  0  0  0
    7.8867  -13.3015   26.5722 C   0  0  0  0  0  0  0  0  0  0  0  0
    7.0447  -13.0859   25.5131 C   0  0  0  0  0  0  0  0  0  0  0  0
    6.4916  -14.1564   24.8291 C   0  0  0  0  0  0  0  0  0  0  0  0
    8.3426  -17.2177   23.5501 C   0  0  0  0  0  0  0  0  0  0  0  0
    8.6398  -18.2831   24.1408 O   0  0  0  0  0  0  0  0  0  0  0  0
   11.7109  -15.6254   22.7860 C   0  0  0  0  0  0  0  0  0  0  0  0
   10.7859  -16.5968   23.4741 C   0  0  2  0  0  0  0  0  0  0  0  0
    9.3992  -16.3231   23.2377 N   0  0  0  0  0  0  0  0  0  0  0  0
   11.1377  -16.5895   24.9162 C   0  0  0  0  0  0  0  0  0  0  0  0
   12.3579  -16.8320   25.1879 O   0  0  0  0  0  0  0  0  0  0  0  0
   11.1991  -13.4075   27.7340 C   0  0  0  0  0  0  0  0  0  0  0  0
    9.7946  -13.9997   27.7766 C   0  0  2  0  0  0  0  0  0  0  0  0
    8.8353  -13.1238   28.5099 C   0  0  0  0  0  0  0  0  0  0  0  0
    9.8037  -15.4286   28.1699 C   0  0  0  0  0  0  0  0  0  0  0  0
   10.6041  -16.3613   27.3165 C   0  0  2  0  0  0  0  0  0  0  0  0
   10.1864  -16.3314   25.9307 N   0  0  0  0  0  0  0  0  0  0  0  0
   10.7529  -17.7235   27.8295 C   0  0  0  0  0  0  0  0  0  0  0  0
   11.2524  -17.9494   28.9503 O   0  0  0  0  0  0  0  0  0  0  0  0
   10.3353  -18.7952   27.0661 O   0  0  0  0  0  0  0  0  0  0  0  0
  2  3  1  0
  2  1  1  1
  2 10  1  0
  4  3  1  0
  4  9  2  0
  5  4  1  0
  6  5  2  0
  6  7  1  0
  7  8  2  0
  8  9  1  0
 10 14  1  0
 11 10  2  0
 13 12  1  6
 14 13  1  0
 15 16  2  0
 15 13  1  0
 18 20  1  0
 18 17  1  1
 18 19  1  0
 21 22  1  0
 21 20  1  1
 22 15  1  0
 23 21  1  0
 24 23  2  0
 25 23  1  0
M  END
$$$$
