FAL.pdb
     RDKit          3D

 25 25  0  0  1  0  0  0  0  0999 V2000
    5.5333  -15.8920   22.2591 N   0  0  0  0  0  0  0  0  0  0  0  0
    6.9308  -16.0610   22.5017 C   0  0  1  0  0  0  0  0  0  0  0  0
    7.6742  -14.7490   22.5607 C   0  0  0  0  0  0  0  0  0  0  0  0
    7.9392  -14.1576   21.2526 C   0  0  0  0  0  0  0  0  0  0  0  0
    7.6687  -12.8205   21.0582 C   0  0  0  0  0  0  0  0  0  0  0  0
    7.8881  -12.1791   19.8572 C   0  0  0  0  0  0  0  0  0  0  0  0
    8.3987  -12.9017   18.8057 C   0  0  0  0  0  0  0  0  0  0  0  0
    8.6785  -14.2332   18.9665 C   0  0  0  0  0  0  0  0  0  0  0  0
    8.4493  -14.8549   20.1833 C   0  0  0  0  0  0  0  0  0  0  0  0
    7.1433  -16.7337   23.8061 C   0  0  0  0  0  0  0  0  0  0  0  0
    6.6084  -16.2403   24.8272 O   0  0  0  0  0  0  0  0  0  0  0  0
    8.5896  -19.9582   25.1538 C   0  0  0  0  0  0  0  0  0  0  0  0
    8.2326  -18.4963   25.2442 C   0  0  2  0  0  0  0  0  0  0  0  0
    7.9197  -17.9098   23.9746 N   0  0  0  0  0  0  0  0  0  0  0  0
    9.3557  -17.8133   25.9340 C   0  0  0  0  0  0  0  0  0  0  0  0
   10.3747  -17.5614   25.2132 O   0  0  0  0  0  0  0  0  0  0  0  0
   10.6242  -14.3654   26.4436 C   0  0  0  0  0  0  0  0  0  0  0  0
    9.7772  -14.5610   27.6964 C   0  0  2  0  0  0  0  0  0  0  0  0
    9.4526  -13.2677   28.3652 C   0  0  0  0  0  0  0  0  0  0  0  0
   10.3142  -15.6301   28.5712 C   0  0  0  0  0  0  0  0  0  0  0  0
   10.5076  -16.9787   27.9526 C   0  0  2  0  0  0  0  0  0  0  0  0
    9.3071  -17.4611   27.3030 N   0  0  0  0  0  0  0  0  0  0  0  0
   11.1275  -17.9890   28.8103 C   0  0  0  0  0  0  0  0  0  0  0  0
   10.5140  -19.0186   29.1568 O   0  0  0  0  0  0  0  0  0  0  0  0
   12.4225  -17.8125   29.2552 O   0  0  0  0  0  0  0  0  0  0  0  0
  2  3  1  0
  2  1  1  1
  2 10  1  0
  4  3  1  0
  4  9  2  0
  5  4  1  0
  6  5  2  0
  6  7  1  0
  7  8  2  0
  8  9  1  0
 10 14  1  0
 11 10  2  0
 13 12  1  6
 14 13  1  0
 15 16  2  0
 15 13  1  0
 18 20  1  0
 18 17  1  6
 18 19  1  0
 21 22  1  0
 21 20  1  1
 22 15  1  0
 23 21  1  0
 24 23  2  0
 25 23  1  0
M  END
$$$$
