FAL.pdb
     RDKit          3D

 25 25  0  0  1  0  0  0  0  0999 V2000
    5.6907  -17.7920   23.5509 N   0  0  0  0  0  0  0  0  0  0  0  0
    6.5061  -16.6931   23.9604 C   0  0  1  0  0  0  0  0  0  0  0  0
    6.2942  -16.3182   25.4068 C   0  0  0  0  0  0  0  0  0  0  0  0
    6.7229  -14.9624   25.7374 C   0  0  0  0  0  0  0  0  0  0  0  0
    8.0345  -14.6045   25.5131 C   0  0  0  0  0  0  0  0  0  0  0  0
    8.5262  -13.3472   25.7947 C   0  0  0  0  0  0  0  0  0  0  0  0
    7.6739  -12.4072   26.3223 C   0  0  0  0  0  0  0  0  0  0  0  0
    6.3637  -12.7314   26.5572 C   0  0  0  0  0  0  0  0  0  0  0  0
    5.8936  -14.0017   26.2657 C   0  0  0  0  0  0  0  0  0  0  0  0
    7.9402  -17.0405   23.8128 C   0  0  0  0  0  0  0  0  0  0  0  0
    8.3399  -18.1367   24.2721 O   0  0  0  0  0  0  0  0  0  0  0  0
   11.0623  -15.5257   22.2383 C   0  0  0  0  0  0  0  0  0  0  0  0
   10.2981  -16.4976   23.1010 C   0  0  2  0  0  0  0  0  0  0  0  0
    8.8974  -16.2052   23.1800 N   0  0  0  0  0  0  0  0  0  0  0  0
   10.9593  -16.5167   24.4300 C   0  0  0  0  0  0  0  0  0  0  0  0
   12.1850  -16.8619   24.4317 O   0  0  0  0  0  0  0  0  0  0  0  0
   11.5172  -13.2332   27.0146 C   0  0  0  0  0  0  0  0  0  0  0  0
   10.2189  -13.8905   27.4699 C   0  0  2  0  0  0  0  0  0  0  0  0
    9.4474  -13.0248   28.4083 C   0  0  0  0  0  0  0  0  0  0  0  0
   10.4250  -15.2942   27.8985 C   0  0  0  0  0  0  0  0  0  0  0  0
   10.9904  -16.2367   26.8833 C   0  0  2  0  0  0  0  0  0  0  0  0
   10.2805  -16.1755   25.6230 N   0  0  0  0  0  0  0  0  0  0  0  0
   11.2065  -17.6096   27.3407 C   0  0  0  0  0  0  0  0  0  0  0  0
   11.9157  -17.8638   28.3352 O   0  0  0  0  0  0  0  0  0  0  0  0
   10.6180  -18.6601   26.6653 O   0  0  0  0  0  0  0  0  0  0  0  0
  2  3  1  0
  2  1  1  1
  2 10  1  0
  4  3  1  0
  4  9  2  0
  5  4  1  0
  6  5  2  0
  6  7  1  0
  7  8  2  0
  8  9  1  0
 10 14  1  0
 11 10  2  0
 13 12  1  6
 14 13  1  0
 15 16  2  0
 15 13  1  0
 18 20  1  0
 18 17  1  1
 18 19  1  0
 21 22  1  0
 21 20  1  1
 22 15  1  0
 23 21  1  0
 24 23  2  0
 25 23  1  0
M  END
$$$$
