FAL.pdb
     RDKit          3D

 25 25  0  0  1  0  0  0  0  0999 V2000
    6.6896  -18.5471   22.3568 N   0  0  0  0  0  0  0  0  0  0  0  0
    7.1217  -17.3178   22.9418 C   0  0  1  0  0  0  0  0  0  0  0  0
    6.2821  -16.9105   24.1278 C   0  0  0  0  0  0  0  0  0  0  0  0
    6.4922  -15.5315   24.5581 C   0  0  0  0  0  0  0  0  0  0  0  0
    6.1434  -15.1732   25.8421 C   0  0  0  0  0  0  0  0  0  0  0  0
    6.3068  -13.8950   26.3334 C   0  0  0  0  0  0  0  0  0  0  0  0
    6.8407  -12.9335   25.5094 C   0  0  0  0  0  0  0  0  0  0  0  0
    7.1980  -13.2575   24.2271 C   0  0  0  0  0  0  0  0  0  0  0  0
    7.0238  -14.5491   23.7568 C   0  0  0  0  0  0  0  0  0  0  0  0
    8.5166  -17.4482   23.4281 C   0  0  0  0  0  0  0  0  0  0  0  0
    8.7994  -18.4097   24.1817 O   0  0  0  0  0  0  0  0  0  0  0  0
   11.8707  -15.7838   22.7516 C   0  0  0  0  0  0  0  0  0  0  0  0
   10.9343  -16.7303   23.4587 C   0  0  2  0  0  0  0  0  0  0  0  0
    9.5608  -16.5473   23.0928 N   0  0  0  0  0  0  0  0  0  0  0  0
   11.1692  -16.5715   24.9158 C   0  0  0  0  0  0  0  0  0  0  0  0
   12.3476  -16.8392   25.3172 O   0  0  0  0  0  0  0  0  0  0  0  0
   11.2561  -13.2500   27.7609 C   0  0  0  0  0  0  0  0  0  0  0  0
    9.8093  -13.6926   27.5717 C   0  0  2  0  0  0  0  0  0  0  0  0
    8.8406  -12.7145   28.1462 C   0  0  0  0  0  0  0  0  0  0  0  0
    9.6059  -15.1107   27.9514 C   0  0  0  0  0  0  0  0  0  0  0  0
   10.4300  -16.1303   27.2303 C   0  0  2  0  0  0  0  0  0  0  0  0
   10.1562  -16.1508   25.8089 N   0  0  0  0  0  0  0  0  0  0  0  0
   10.4439  -17.4695   27.8196 C   0  0  0  0  0  0  0  0  0  0  0  0
   10.9605  -17.6885   28.9339 O   0  0  0  0  0  0  0  0  0  0  0  0
    9.8753  -18.5267   27.1377 O   0  0  0  0  0  0  0  0  0  0  0  0
  2  3  1  0
  2  1  1  1
  2 10  1  0
  4  3  1  0
  4  9  2  0
  5  4  1  0
  6  5  2  0
  6  7  1  0
  7  8  2  0
  8  9  1  0
 10 14  1  0
 11 10  2  0
 13 12  1  6
 14 13  1  0
 15 16  2  0
 15 13  1  0
 18 20  1  0
 18 17  1  1
 18 19  1  0
 21 22  1  0
 21 20  1  1
 22 15  1  0
 23 21  1  0
 24 23  2  0
 25 23  1  0
M  END
$$$$
