FAL.pdb
     RDKit          3D

 25 25  0  0  1  0  0  0  0  0999 V2000
    5.6288  -18.2754   23.8637 N   0  0  0  0  0  0  0  0  0  0  0  0
    6.1640  -16.9599   24.0164 C   0  0  1  0  0  0  0  0  0  0  0  0
    5.9770  -16.4135   25.4107 C   0  0  0  0  0  0  0  0  0  0  0  0
    6.2909  -14.9935   25.5386 C   0  0  0  0  0  0  0  0  0  0  0  0
    5.2754  -14.0716   25.4059 C   0  0  0  0  0  0  0  0  0  0  0  0
    5.4799  -12.7119   25.5120 C   0  0  0  0  0  0  0  0  0  0  0  0
    6.7508  -12.2522   25.7609 C   0  0  0  0  0  0  0  0  0  0  0  0
    7.7826  -13.1431   25.8982 C   0  0  0  0  0  0  0  0  0  0  0  0
    7.5514  -14.5047   25.7873 C   0  0  0  0  0  0  0  0  0  0  0  0
    7.6231  -16.9701   23.7517 C   0  0  0  0  0  0  0  0  0  0  0  0
    8.3314  -17.8211   24.3404 O   0  0  0  0  0  0  0  0  0  0  0  0
   10.1215  -14.9830   21.6672 C   0  0  0  0  0  0  0  0  0  0  0  0
    9.6752  -16.1090   22.5649 C   0  0  2  0  0  0  0  0  0  0  0  0
    8.2750  -16.0713   22.8676 N   0  0  0  0  0  0  0  0  0  0  0  0
   10.5291  -16.0659   23.7784 C   0  0  0  0  0  0  0  0  0  0  0  0
   11.7828  -16.1558   23.5746 O   0  0  0  0  0  0  0  0  0  0  0  0
   10.1699  -14.7869   29.8235 C   0  0  0  0  0  0  0  0  0  0  0  0
   11.0371  -14.8433   28.5706 C   0  0  2  0  0  0  0  0  0  0  0  0
   12.0411  -13.7408   28.5296 C   0  0  0  0  0  0  0  0  0  0  0  0
   10.2303  -15.0358   27.3424 C   0  0  0  0  0  0  0  0  0  0  0  0
   10.8937  -15.7357   26.1984 C   0  0  2  0  0  0  0  0  0  0  0  0
    9.9945  -15.9343   25.0813 N   0  0  0  0  0  0  0  0  0  0  0  0
   11.6413  -16.9460   26.5404 C   0  0  0  0  0  0  0  0  0  0  0  0
   12.8217  -16.8944   26.9413 O   0  0  0  0  0  0  0  0  0  0  0  0
   11.0394  -18.1827   26.4214 O   0  0  0  0  0  0  0  0  0  0  0  0
  2  3  1  0
  2  1  1  1
  2 10  1  0
  4  3  1  0
  4  9  2  0
  5  4  1  0
  6  5  2  0
  6  7  1  0
  7  8  2  0
  8  9  1  0
 10 14  1  0
 11 10  2  0
 13 12  1  6
 14 13  1  0
 15 16  2  0
 15 13  1  0
 18 20  1  0
 18 17  1  1
 18 19  1  0
 21 22  1  0
 21 20  1  1
 22 15  1  0
 23 21  1  0
 24 23  2  0
 25 23  1  0
M  END
$$$$
