FAL.pdb
     RDKit          3D

 25 25  0  0  1  0  0  0  0  0999 V2000
    5.5033  -18.1842   24.1786 N   0  0  0  0  0  0  0  0  0  0  0  0
    5.9926  -16.8428   24.2162 C   0  0  1  0  0  0  0  0  0  0  0  0
    5.8629  -16.2139   25.5819 C   0  0  0  0  0  0  0  0  0  0  0  0
    6.0868  -14.7713   25.5946 C   0  0  0  0  0  0  0  0  0  0  0  0
    4.9984  -13.9273   25.5538 C   0  0  0  0  0  0  0  0  0  0  0  0
    5.1157  -12.5532   25.5626 C   0  0  0  0  0  0  0  0  0  0  0  0
    6.3715  -11.9974   25.6143 C   0  0  0  0  0  0  0  0  0  0  0  0
    7.4743  -12.8093   25.6559 C   0  0  0  0  0  0  0  0  0  0  0  0
    7.3302  -14.1873   25.6460 C   0  0  0  0  0  0  0  0  0  0  0  0
    7.4336  -16.8166   23.8668 C   0  0  0  0  0  0  0  0  0  0  0  0
    8.1948  -17.6540   24.4067 O   0  0  0  0  0  0  0  0  0  0  0  0
    9.7567  -14.7686   21.6432 C   0  0  0  0  0  0  0  0  0  0  0  0
    9.3866  -15.9144   22.5504 C   0  0  2  0  0  0  0  0  0  0  0  0
    8.0113  -15.8970   22.9531 N   0  0  0  0  0  0  0  0  0  0  0  0
   10.3249  -15.8829   23.7003 C   0  0  0  0  0  0  0  0  0  0  0  0
   11.5623  -15.9352   23.4045 O   0  0  0  0  0  0  0  0  0  0  0  0
   10.3969  -14.7101   29.8141 C   0  0  0  0  0  0  0  0  0  0  0  0
   11.1632  -14.9303   28.5144 C   0  0  2  0  0  0  0  0  0  0  0  0
   12.2685  -13.9444   28.3374 C   0  0  0  0  0  0  0  0  0  0  0  0
   10.2563  -15.1075   27.3556 C   0  0  0  0  0  0  0  0  0  0  0  0
   10.8594  -15.6545   26.1004 C   0  0  2  0  0  0  0  0  0  0  0  0
    9.8830  -15.8006   25.0414 N   0  0  0  0  0  0  0  0  0  0  0  0
   11.6954  -16.8443   26.2622 C   0  0  0  0  0  0  0  0  0  0  0  0
   12.7983  -16.7947   26.8435 O   0  0  0  0  0  0  0  0  0  0  0  0
   11.2669  -18.0587   25.7646 O   0  0  0  0  0  0  0  0  0  0  0  0
  2  3  1  0
  2  1  1  1
  2 10  1  0
  4  3  1  0
  4  9  2  0
  5  4  1  0
  6  5  2  0
  6  7  1  0
  7  8  2  0
  8  9  1  0
 10 14  1  0
 11 10  2  0
 13 12  1  6
 14 13  1  0
 15 16  2  0
 15 13  1  0
 18 20  1  0
 18 17  1  1
 18 19  1  0
 21 22  1  0
 21 20  1  1
 22 15  1  0
 23 21  1  0
 24 23  2  0
 25 23  1  0
M  END
$$$$
