VSW.pdb
     RDKit          3D

 28 29  0  0  1  0  0  0  0  0999 V2000
   24.5888  -24.5096  -15.1677 C   0  0  0  0  0  0  0  0  0  0  0  0
   25.1145  -24.3274  -16.5658 C   0  0  1  0  0  0  0  0  0  0  0  0
   23.9947  -24.6612  -17.5249 C   0  0  0  0  0  0  0  0  0  0  0  0
   25.6242  -22.9322  -16.8176 C   0  0  2  0  0  0  0  0  0  0  0  0
   26.1032  -22.8086  -18.1709 N   0  0  0  0  0  0  0  0  0  0  0  0
   26.6435  -22.5053  -15.8224 C   0  0  0  0  0  0  0  0  0  0  0  0
   27.5876  -23.2581  -15.5115 O   0  0  0  0  0  0  0  0  0  0  0  0
   26.5726  -18.5774  -14.4152 O   0  0  0  0  0  0  0  0  0  0  0  0
   27.7648  -19.3125  -14.2343 C   0  0  0  0  0  0  0  0  0  0  0  0
   27.4765  -20.7853  -14.1804 C   0  0  2  0  0  0  0  0  0  0  0  0
   26.5811  -21.2419  -15.1975 N   0  0  0  0  0  0  0  0  0  0  0  0
   26.8206  -21.0285  -12.8560 C   0  0  0  0  0  0  0  0  0  0  0  0
   25.5793  -21.2518  -12.7632 O   0  0  0  0  0  0  0  0  0  0  0  0
   27.5592  -21.0200  -11.6420 N   0  0  0  0  0  0  0  0  0  0  0  0
   26.8850  -21.0900  -10.3688 C   0  0  1  0  0  0  0  0  0  0  0  0
   27.7971  -20.7817   -9.2019 C   0  0  0  0  0  0  0  0  0  0  0  0
   27.0985  -20.5465   -7.9334 C   0  0  0  0  0  0  0  0  0  0  0  0
   25.7577  -20.7578   -7.6370 C   0  0  0  0  0  0  0  0  0  0  0  0
   25.5510  -20.4474   -6.3553 N   0  0  0  0  0  0  0  0  0  0  0  0
   26.7110  -20.0284   -5.7632 C   0  0  0  0  0  0  0  0  0  0  0  0
   26.9804  -19.6056   -4.4791 C   0  0  0  0  0  0  0  0  0  0  0  0
   28.2562  -19.2212   -4.1355 C   0  0  0  0  0  0  0  0  0  0  0  0
   29.2308  -19.2732   -5.1006 C   0  0  0  0  0  0  0  0  0  0  0  0
   28.9436  -19.6965   -6.3717 C   0  0  0  0  0  0  0  0  0  0  0  0
   27.6624  -20.0992   -6.7715 C   0  0  0  0  0  0  0  0  0  0  0  0
   25.7706  -20.1082  -10.3265 C   0  0  0  0  0  0  0  0  0  0  0  0
   26.0127  -18.9255  -10.6787 O   0  0  0  0  0  0  0  0  0  0  0  0
   24.4887  -20.4659   -9.9125 O   0  0  0  0  0  0  0  0  0  0  0  0
  2  1  1  1
  2  3  1  0
  2  4  1  0
  4  5  1  6
  6 11  1  0
  6  4  1  0
  7  6  2  0
  9  8  1  0
 10 11  1  0
 10  9  1  6
 12 10  1  0
 13 12  2  0
 14 12  1  0
 15 16  1  1
 15 14  1  0
 17 16  1  0
 18 17  2  0
 19 20  1  0
 19 18  1  0
 20 25  2  0
 21 20  1  0
 21 22  2  0
 22 23  1  0
 23 24  2  0
 25 17  1  0
 25 24  1  0
 26 15  1  0
 27 26  2  0
 28 26  1  0
M  END
$$$$
