VSW.pdb
     RDKit          3D

 28 29  0  0  1  0  0  0  0  0999 V2000
   23.0229  -16.6941  -17.7374 C   0  0  0  0  0  0  0  0  0  0  0  0
   23.3630  -18.0286  -17.1311 C   0  0  1  0  0  0  0  0  0  0  0  0
   23.1076  -19.0878  -18.1788 C   0  0  0  0  0  0  0  0  0  0  0  0
   24.7880  -18.1006  -16.6471 C   0  0  2  0  0  0  0  0  0  0  0  0
   25.7017  -17.8888  -17.7409 N   0  0  0  0  0  0  0  0  0  0  0  0
   25.0806  -19.3584  -15.9095 C   0  0  0  0  0  0  0  0  0  0  0  0
   24.3375  -20.3532  -16.0226 O   0  0  0  0  0  0  0  0  0  0  0  0
   28.5756  -19.6397  -13.5262 O   0  0  0  0  0  0  0  0  0  0  0  0
   27.9947  -20.8172  -14.0465 C   0  0  0  0  0  0  0  0  0  0  0  0
   26.5234  -20.6250  -14.2778 C   0  0  2  0  0  0  0  0  0  0  0  0
   26.2017  -19.4724  -15.0606 N   0  0  0  0  0  0  0  0  0  0  0  0
   25.9144  -20.4372  -12.9223 C   0  0  0  0  0  0  0  0  0  0  0  0
   25.5443  -19.2986  -12.5150 O   0  0  0  0  0  0  0  0  0  0  0  0
   25.7234  -21.5265  -12.0300 N   0  0  0  0  0  0  0  0  0  0  0  0
   25.1814  -21.3119  -10.7106 C   0  0  1  0  0  0  0  0  0  0  0  0
   25.8721  -20.1911   -9.9654 C   0  0  0  0  0  0  0  0  0  0  0  0
   27.2294  -20.5130   -9.5110 C   0  0  0  0  0  0  0  0  0  0  0  0
   28.2065  -21.2481  -10.1707 C   0  0  0  0  0  0  0  0  0  0  0  0
   29.3072  -21.2673   -9.4158 N   0  0  0  0  0  0  0  0  0  0  0  0
   29.1139  -20.5673   -8.2564 C   0  0  0  0  0  0  0  0  0  0  0  0
   29.9487  -20.3221   -7.1871 C   0  0  0  0  0  0  0  0  0  0  0  0
   29.4977  -19.5815   -6.1187 C   0  0  0  0  0  0  0  0  0  0  0  0
   28.2107  -19.1058   -6.1569 C   0  0  0  0  0  0  0  0  0  0  0  0
   27.3959  -19.3599   -7.2289 C   0  0  0  0  0  0  0  0  0  0  0  0
   27.8071  -20.1068   -8.3408 C   0  0  0  0  0  0  0  0  0  0  0  0
   23.7415  -20.9567  -10.8018 C   0  0  0  0  0  0  0  0  0  0  0  0
   23.2335  -20.8424  -11.9464 O   0  0  0  0  0  0  0  0  0  0  0  0
   22.9597  -20.7521   -9.6662 O   0  0  0  0  0  0  0  0  0  0  0  0
  2  1  1  6
  2  3  1  0
  2  4  1  0
  4  5  1  6
  6 11  1  0
  6  4  1  0
  7  6  2  0
  9  8  1  0
 10 11  1  0
 10  9  1  1
 12 10  1  0
 13 12  2  0
 14 12  1  0
 15 16  1  6
 15 14  1  0
 17 16  1  0
 18 17  2  0
 19 20  1  0
 19 18  1  0
 20 25  2  0
 21 20  1  0
 21 22  2  0
 22 23  1  0
 23 24  2  0
 25 17  1  0
 25 24  1  0
 26 15  1  0
 27 26  2  0
 28 26  1  0
M  END
$$$$
