VSW.pdb
     RDKit          3D

 28 29  0  0  1  0  0  0  0  0999 V2000
   20.5541  -21.7496  -18.5102 C   0  0  0  0  0  0  0  0  0  0  0  0
   21.5118  -22.1377  -17.4165 C   0  0  1  0  0  0  0  0  0  0  0  0
   20.6974  -22.6742  -16.2615 C   0  0  0  0  0  0  0  0  0  0  0  0
   22.5236  -23.1596  -17.8659 C   0  0  2  0  0  0  0  0  0  0  0  0
   21.8609  -24.3425  -18.3535 N   0  0  0  0  0  0  0  0  0  0  0  0
   23.5272  -23.4742  -16.8145 C   0  0  0  0  0  0  0  0  0  0  0  0
   23.4899  -24.5579  -16.1990 O   0  0  0  0  0  0  0  0  0  0  0  0
   26.8688  -20.8705  -16.0462 O   0  0  0  0  0  0  0  0  0  0  0  0
   26.9081  -22.2665  -15.8361 C   0  0  0  0  0  0  0  0  0  0  0  0
   25.5468  -22.7867  -15.4738 C   0  0  2  0  0  0  0  0  0  0  0  0
   24.5517  -22.5649  -16.4766 N   0  0  0  0  0  0  0  0  0  0  0  0
   25.1310  -22.0335  -14.2477 C   0  0  0  0  0  0  0  0  0  0  0  0
   24.2250  -21.1521  -14.2878 O   0  0  0  0  0  0  0  0  0  0  0  0
   25.7328  -22.2719  -12.9827 N   0  0  0  0  0  0  0  0  0  0  0  0
   25.6319  -21.2980  -11.9235 C   0  0  1  0  0  0  0  0  0  0  0  0
   26.8560  -21.2655  -11.0350 C   0  0  0  0  0  0  0  0  0  0  0  0
   26.8197  -20.2341   -9.9923 C   0  0  0  0  0  0  0  0  0  0  0  0
   27.1000  -18.8786  -10.1121 C   0  0  0  0  0  0  0  0  0  0  0  0
   26.9088  -18.2978   -8.9255 N   0  0  0  0  0  0  0  0  0  0  0  0
   26.5059  -19.2155   -7.9943 C   0  0  0  0  0  0  0  0  0  0  0  0
   26.2007  -19.0858   -6.6562 C   0  0  0  0  0  0  0  0  0  0  0  0
   25.8232  -20.1901   -5.9271 C   0  0  0  0  0  0  0  0  0  0  0  0
   25.7637  -21.4015   -6.5697 C   0  0  0  0  0  0  0  0  0  0  0  0
   26.0707  -21.5105   -7.9006 C   0  0  0  0  0  0  0  0  0  0  0  0
   26.4589  -20.4176   -8.6868 C   0  0  0  0  0  0  0  0  0  0  0  0
   25.4682  -19.9366  -12.4955 C   0  0  0  0  0  0  0  0  0  0  0  0
   26.2793  -19.5682  -13.3830 O   0  0  0  0  0  0  0  0  0  0  0  0
   24.4537  -19.0780  -12.0758 O   0  0  0  0  0  0  0  0  0  0  0  0
  2  1  1  6
  2  3  1  0
  2  4  1  0
  4  5  1  1
  6 11  1  0
  6  4  1  0
  7  6  2  0
  9  8  1  0
 10 11  1  0
 10  9  1  6
 12 10  1  0
 13 12  2  0
 14 12  1  0
 15 16  1  6
 15 14  1  0
 17 16  1  0
 18 17  2  0
 19 20  1  0
 19 18  1  0
 20 25  2  0
 21 20  1  0
 21 22  2  0
 22 23  1  0
 23 24  2  0
 25 17  1  0
 25 24  1  0
 26 15  1  0
 27 26  2  0
 28 26  1  0
M  END
$$$$
