VSW.pdb
     RDKit          3D

 28 29  0  0  1  0  0  0  0  0999 V2000
   24.2854  -22.7935  -15.7513 C   0  0  0  0  0  0  0  0  0  0  0  0
   25.1936  -22.7819  -16.9509 C   0  0  1  0  0  0  0  0  0  0  0  0
   24.3227  -22.7706  -18.1865 C   0  0  0  0  0  0  0  0  0  0  0  0
   26.1317  -21.6030  -16.9581 C   0  0  2  0  0  0  0  0  0  0  0  0
   26.9164  -21.5923  -18.1665 N   0  0  0  0  0  0  0  0  0  0  0  0
   26.9812  -21.5384  -15.7391 C   0  0  0  0  0  0  0  0  0  0  0  0
   27.8892  -22.3713  -15.5480 O   0  0  0  0  0  0  0  0  0  0  0  0
   27.0860  -18.0658  -13.5551 O   0  0  0  0  0  0  0  0  0  0  0  0
   28.0840  -19.0334  -13.3057 C   0  0  0  0  0  0  0  0  0  0  0  0
   27.5561  -20.4166  -13.5574 C   0  0  2  0  0  0  0  0  0  0  0  0
   26.7931  -20.5396  -14.7606 N   0  0  0  0  0  0  0  0  0  0  0  0
   26.6455  -20.7253  -12.4091 C   0  0  0  0  0  0  0  0  0  0  0  0
   25.3909  -20.5999  -12.5069 O   0  0  0  0  0  0  0  0  0  0  0  0
   27.1456  -21.1728  -11.1565 N   0  0  0  0  0  0  0  0  0  0  0  0
   26.2798  -21.2598  -10.0060 C   0  0  1  0  0  0  0  0  0  0  0  0
   27.0209  -21.6212   -8.7375 C   0  0  0  0  0  0  0  0  0  0  0  0
   27.3364  -20.4776   -7.8744 C   0  0  0  0  0  0  0  0  0  0  0  0
   27.0181  -19.1392   -8.0680 C   0  0  0  0  0  0  0  0  0  0  0  0
   27.4637  -18.4399   -7.0219 N   0  0  0  0  0  0  0  0  0  0  0  0
   28.0793  -19.2595   -6.1158 C   0  0  0  0  0  0  0  0  0  0  0  0
   28.6884  -18.9923   -4.9084 C   0  0  0  0  0  0  0  0  0  0  0  0
   29.2513  -20.0158   -4.1810 C   0  0  0  0  0  0  0  0  0  0  0  0
   29.1851  -21.2875   -4.6932 C   0  0  0  0  0  0  0  0  0  0  0  0
   28.5752  -21.5334   -5.8954 C   0  0  0  0  0  0  0  0  0  0  0  0
   27.9866  -20.5274   -6.6731 C   0  0  0  0  0  0  0  0  0  0  0  0
   25.6137  -19.9532   -9.7684 C   0  0  0  0  0  0  0  0  0  0  0  0
   24.4544  -19.9620   -9.2811 O   0  0  0  0  0  0  0  0  0  0  0  0
   26.2364  -18.7431  -10.0692 O   0  0  0  0  0  0  0  0  0  0  0  0
  2  1  1  1
  2  3  1  0
  2  4  1  0
  4  5  1  6
  6 11  1  0
  6  4  1  0
  7  6  2  0
  9  8  1  0
 10 11  1  0
 10  9  1  1
 12 10  1  0
 13 12  2  0
 14 12  1  0
 15 16  1  1
 15 14  1  0
 17 16  1  0
 18 17  2  0
 19 20  1  0
 19 18  1  0
 20 25  2  0
 21 20  1  0
 21 22  2  0
 22 23  1  0
 23 24  2  0
 25 17  1  0
 25 24  1  0
 26 15  1  0
 27 26  2  0
 28 26  1  0
M  END
$$$$
