VSW.pdb
     RDKit          3D

 28 29  0  0  1  0  0  0  0  0999 V2000
   22.4060  -26.6895  -17.1784 C   0  0  0  0  0  0  0  0  0  0  0  0
   22.2957  -28.1901  -17.1682 C   0  0  1  0  0  0  0  0  0  0  0  0
   23.5318  -28.7463  -17.8375 C   0  0  0  0  0  0  0  0  0  0  0  0
   22.1523  -28.7527  -15.7779 C   0  0  2  0  0  0  0  0  0  0  0  0
   22.2113  -30.1921  -15.8095 N   0  0  0  0  0  0  0  0  0  0  0  0
   20.9349  -28.2581  -15.0815 C   0  0  0  0  0  0  0  0  0  0  0  0
   20.7598  -27.0387  -14.8888 O   0  0  0  0  0  0  0  0  0  0  0  0
   16.7432  -29.5568  -14.9107 O   0  0  0  0  0  0  0  0  0  0  0  0
   17.6835  -29.7958  -13.8844 C   0  0  0  0  0  0  0  0  0  0  0  0
   18.7640  -28.7530  -13.9021 C   0  0  2  0  0  0  0  0  0  0  0  0
   19.9397  -29.1435  -14.6164 N   0  0  0  0  0  0  0  0  0  0  0  0
   19.1525  -28.5382  -12.4717 C   0  0  0  0  0  0  0  0  0  0  0  0
   20.0301  -29.2544  -11.9094 O   0  0  0  0  0  0  0  0  0  0  0  0
   18.5555  -27.5215  -11.6784 N   0  0  0  0  0  0  0  0  0  0  0  0
   19.0068  -27.2786  -10.3300 C   0  0  1  0  0  0  0  0  0  0  0  0
   19.5681  -25.8869  -10.1388 C   0  0  0  0  0  0  0  0  0  0  0  0
   18.6623  -24.8076  -10.5473 C   0  0  0  0  0  0  0  0  0  0  0  0
   17.6336  -24.2247   -9.8178 C   0  0  0  0  0  0  0  0  0  0  0  0
   17.0867  -23.2543  -10.5535 N   0  0  0  0  0  0  0  0  0  0  0  0
   17.7097  -23.1546  -11.7674 C   0  0  0  0  0  0  0  0  0  0  0  0
   17.4902  -22.3183  -12.8410 C   0  0  0  0  0  0  0  0  0  0  0  0
   18.2671  -22.4321  -13.9710 C   0  0  0  0  0  0  0  0  0  0  0  0
   19.2490  -23.3910  -13.9885 C   0  0  0  0  0  0  0  0  0  0  0  0
   19.4521  -24.2131  -12.9112 C   0  0  0  0  0  0  0  0  0  0  0  0
   18.6900  -24.1369  -11.7380 C   0  0  0  0  0  0  0  0  0  0  0  0
   17.8763  -27.4309   -9.3781 C   0  0  0  0  0  0  0  0  0  0  0  0
   18.1383  -27.4433   -8.1482 O   0  0  0  0  0  0  0  0  0  0  0  0
   16.5584  -27.5577   -9.8134 O   0  0  0  0  0  0  0  0  0  0  0  0
  2  1  1  1
  2  3  1  0
  2  4  1  0
  4  5  1  6
  6 11  1  0
  6  4  1  0
  7  6  2  0
  9  8  1  0
 10 11  1  0
 10  9  1  1
 12 10  1  0
 13 12  2  0
 14 12  1  0
 15 16  1  6
 15 14  1  0
 17 16  1  0
 18 17  2  0
 19 20  1  0
 19 18  1  0
 20 25  2  0
 21 20  1  0
 21 22  2  0
 22 23  1  0
 23 24  2  0
 25 17  1  0
 25 24  1  0
 26 15  1  0
 27 26  2  0
 28 26  1  0
M  END
$$$$
