VSW.pdb
     RDKit          3D

 28 29  0  0  1  0  0  0  0  0999 V2000
   22.2548  -12.0526  -18.5132 C   0  0  0  0  0  0  0  0  0  0  0  0
   21.4152  -10.8878  -18.0633 C   0  0  1  0  0  0  0  0  0  0  0  0
   20.4742  -10.5361  -19.1928 C   0  0  0  0  0  0  0  0  0  0  0  0
   20.6401  -11.1820  -16.8053 C   0  0  2  0  0  0  0  0  0  0  0  0
   19.8538  -12.3785  -16.9675 N   0  0  0  0  0  0  0  0  0  0  0  0
   19.8163  -10.0282  -16.3558 C   0  0  0  0  0  0  0  0  0  0  0  0
   18.6475   -9.8800  -16.7638 O   0  0  0  0  0  0  0  0  0  0  0  0
   21.1932   -7.6899  -13.2077 O   0  0  0  0  0  0  0  0  0  0  0  0
   19.8194   -7.6240  -13.5286 C   0  0  0  0  0  0  0  0  0  0  0  0
   19.5997   -7.9265  -14.9830 C   0  0  2  0  0  0  0  0  0  0  0  0
   20.3228   -9.0653  -15.4576 N   0  0  0  0  0  0  0  0  0  0  0  0
   20.0968   -6.7288  -15.7325 C   0  0  0  0  0  0  0  0  0  0  0  0
   21.2898   -6.6547  -16.1455 O   0  0  0  0  0  0  0  0  0  0  0  0
   19.2544   -5.6200  -16.0154 N   0  0  0  0  0  0  0  0  0  0  0  0
   19.7909   -4.4191  -16.6076 C   0  0  1  0  0  0  0  0  0  0  0  0
   19.5302   -4.3290  -18.0950 C   0  0  0  0  0  0  0  0  0  0  0  0
   20.0995   -3.1396  -18.7382 C   0  0  0  0  0  0  0  0  0  0  0  0
   21.4374   -2.8389  -18.9615 C   0  0  0  0  0  0  0  0  0  0  0  0
   21.5095   -1.6738  -19.6090 N   0  0  0  0  0  0  0  0  0  0  0  0
   20.2599   -1.1656  -19.8363 C   0  0  0  0  0  0  0  0  0  0  0  0
   19.8437   -0.0049  -20.4526 C   0  0  0  0  0  0  0  0  0  0  0  0
   18.5010    0.2818  -20.5435 C   0  0  0  0  0  0  0  0  0  0  0  0
   17.6094   -0.6137  -20.0077 C   0  0  0  0  0  0  0  0  0  0  0  0
   18.0423   -1.7624  -19.3989 C   0  0  0  0  0  0  0  0  0  0  0  0
   19.3969   -2.1007  -19.2815 C   0  0  0  0  0  0  0  0  0  0  0  0
   19.1749   -3.2213  -15.9804 C   0  0  0  0  0  0  0  0  0  0  0  0
   17.9914   -3.3153  -15.5658 O   0  0  0  0  0  0  0  0  0  0  0  0
   19.8695   -2.0205  -15.8457 O   0  0  0  0  0  0  0  0  0  0  0  0
  2  1  1  6
  2  3  1  0
  2  4  1  0
  4  5  1  6
  6 11  1  0
  6  4  1  0
  7  6  2  0
  9  8  1  0
 10 11  1  0
 10  9  1  1
 12 10  1  0
 13 12  2  0
 14 12  1  0
 15 16  1  6
 15 14  1  0
 17 16  1  0
 18 17  2  0
 19 20  1  0
 19 18  1  0
 20 25  2  0
 21 20  1  0
 21 22  2  0
 22 23  1  0
 23 24  2  0
 25 17  1  0
 25 24  1  0
 26 15  1  0
 27 26  2  0
 28 26  1  0
M  END
$$$$
