VSW.pdb
     RDKit          3D

 28 29  0  0  1  0  0  0  0  0999 V2000
   24.5682  -21.4273  -19.8170 C   0  0  0  0  0  0  0  0  0  0  0  0
   25.2802  -21.7107  -18.5220 C   0  0  1  0  0  0  0  0  0  0  0  0
   25.3842  -23.2115  -18.3737 C   0  0  0  0  0  0  0  0  0  0  0  0
   26.6472  -21.0803  -18.4605 C   0  0  2  0  0  0  0  0  0  0  0  0
   27.4730  -21.5645  -19.5374 N   0  0  0  0  0  0  0  0  0  0  0  0
   27.2992  -21.2522  -17.1350 C   0  0  0  0  0  0  0  0  0  0  0  0
   27.9497  -22.2827  -16.8715 O   0  0  0  0  0  0  0  0  0  0  0  0
   27.4642  -17.9676  -14.6473 O   0  0  0  0  0  0  0  0  0  0  0  0
   28.3848  -19.0042  -14.3782 C   0  0  0  0  0  0  0  0  0  0  0  0
   27.8529  -20.3237  -14.8590 C   0  0  2  0  0  0  0  0  0  0  0  0
   27.2069  -20.2628  -16.1333 N   0  0  0  0  0  0  0  0  0  0  0  0
   26.8290  -20.7469  -13.8511 C   0  0  0  0  0  0  0  0  0  0  0  0
   25.5900  -20.6519  -14.0862 O   0  0  0  0  0  0  0  0  0  0  0  0
   27.1987  -21.2745  -12.5845 N   0  0  0  0  0  0  0  0  0  0  0  0
   26.1932  -21.6593  -11.6245 C   0  0  1  0  0  0  0  0  0  0  0  0
   26.7759  -22.0328  -10.2793 C   0  0  0  0  0  0  0  0  0  0  0  0
   26.6431  -20.9933   -9.2526 C   0  0  0  0  0  0  0  0  0  0  0  0
   25.5617  -20.1553   -9.0107 C   0  0  0  0  0  0  0  0  0  0  0  0
   25.8473  -19.3842   -7.9592 N   0  0  0  0  0  0  0  0  0  0  0  0
   27.0940  -19.6681   -7.4724 C   0  0  0  0  0  0  0  0  0  0  0  0
   27.8079  -19.1336   -6.4213 C   0  0  0  0  0  0  0  0  0  0  0  0
   29.0722  -19.5994   -6.1417 C   0  0  0  0  0  0  0  0  0  0  0  0
   29.5854  -20.5962   -6.9335 C   0  0  0  0  0  0  0  0  0  0  0  0
   28.8603  -21.1150   -7.9740 C   0  0  0  0  0  0  0  0  0  0  0  0
   27.5698  -20.6766   -8.2991 C   0  0  0  0  0  0  0  0  0  0  0  0
   25.2480  -20.5357  -11.3971 C   0  0  0  0  0  0  0  0  0  0  0  0
   25.7042  -19.3645  -11.4334 O   0  0  0  0  0  0  0  0  0  0  0  0
   23.8934  -20.7510  -11.1493 O   0  0  0  0  0  0  0  0  0  0  0  0
  2  1  1  6
  2  3  1  0
  2  4  1  0
  4  5  1  6
  6 11  1  0
  6  4  1  0
  7  6  2  0
  9  8  1  0
 10 11  1  0
 10  9  1  1
 12 10  1  0
 13 12  2  0
 14 12  1  0
 15 16  1  1
 15 14  1  0
 17 16  1  0
 18 17  2  0
 19 20  1  0
 19 18  1  0
 20 25  2  0
 21 20  1  0
 21 22  2  0
 22 23  1  0
 23 24  2  0
 25 17  1  0
 25 24  1  0
 26 15  1  0
 27 26  2  0
 28 26  1  0
M  END
$$$$
