VSW.pdb
     RDKit          3D

 28 29  0  0  1  0  0  0  0  0999 V2000
   28.8998  -22.3597  -18.4016 C   0  0  0  0  0  0  0  0  0  0  0  0
   28.5835  -21.4470  -17.2479 C   0  0  1  0  0  0  0  0  0  0  0  0
   28.0183  -20.1658  -17.8170 C   0  0  0  0  0  0  0  0  0  0  0  0
   27.6150  -22.0605  -16.2704 C   0  0  2  0  0  0  0  0  0  0  0  0
   26.3569  -22.3374  -16.9158 N   0  0  0  0  0  0  0  0  0  0  0  0
   27.4444  -21.2413  -15.0409 C   0  0  0  0  0  0  0  0  0  0  0  0
   28.4193  -20.9727  -14.3115 O   0  0  0  0  0  0  0  0  0  0  0  0
   23.5651  -20.2750  -13.6716 O   0  0  0  0  0  0  0  0  0  0  0  0
   24.5761  -19.3115  -13.4617 C   0  0  0  0  0  0  0  0  0  0  0  0
   25.9337  -19.9528  -13.4897 C   0  0  2  0  0  0  0  0  0  0  0  0
   26.1824  -20.7410  -14.6567 N   0  0  0  0  0  0  0  0  0  0  0  0
   25.9813  -20.8684  -12.3053 C   0  0  0  0  0  0  0  0  0  0  0  0
   25.7530  -22.1072  -12.4167 O   0  0  0  0  0  0  0  0  0  0  0  0
   26.2844  -20.3908  -11.0017 N   0  0  0  0  0  0  0  0  0  0  0  0
   26.2607  -21.2809   -9.8668 C   0  0  1  0  0  0  0  0  0  0  0  0
   27.5466  -21.2538   -9.0704 C   0  0  0  0  0  0  0  0  0  0  0  0
   27.6023  -20.2045   -8.0466 C   0  0  0  0  0  0  0  0  0  0  0  0
   26.9478  -18.9790   -8.0334 C   0  0  0  0  0  0  0  0  0  0  0  0
   27.2496  -18.3473   -6.8969 N   0  0  0  0  0  0  0  0  0  0  0  0
   28.0930  -19.1033   -6.1295 C   0  0  0  0  0  0  0  0  0  0  0  0
   28.6693  -18.8659   -4.9000 C   0  0  0  0  0  0  0  0  0  0  0  0
   29.5050  -19.8046   -4.3398 C   0  0  0  0  0  0  0  0  0  0  0  0
   29.7387  -20.9631   -5.0378 C   0  0  0  0  0  0  0  0  0  0  0  0
   29.1565  -21.1812   -6.2588 C   0  0  0  0  0  0  0  0  0  0  0  0
   28.2980  -20.2586   -6.8714 C   0  0  0  0  0  0  0  0  0  0  0  0
   25.1627  -20.8992   -8.9414 C   0  0  0  0  0  0  0  0  0  0  0  0
   24.9133  -21.6640   -7.9748 O   0  0  0  0  0  0  0  0  0  0  0  0
   24.4195  -19.7339   -9.1208 O   0  0  0  0  0  0  0  0  0  0  0  0
  2  1  1  6
  2  3  1  0
  2  4  1  0
  4  5  1  6
  6 11  1  0
  6  4  1  0
  7  6  2  0
  9  8  1  0
 10 11  1  0
 10  9  1  6
 12 10  1  0
 13 12  2  0
 14 12  1  0
 15 16  1  1
 15 14  1  0
 17 16  1  0
 18 17  2  0
 19 20  1  0
 19 18  1  0
 20 25  2  0
 21 20  1  0
 21 22  2  0
 22 23  1  0
 23 24  2  0
 25 17  1  0
 25 24  1  0
 26 15  1  0
 27 26  2  0
 28 26  1  0
M  END
$$$$
