WTT.pdb
     RDKit          3D

 29 30  0  0  1  0  0  0  0  0999 V2000
    6.2924  -18.2989   24.8825 N   0  0  0  0  0  0  0  0  0  0  0  0
    6.9673  -17.0967   24.4909 C   0  0  1  0  0  0  0  0  0  0  0  0
    7.6437  -16.4900   25.6948 C   0  0  0  0  0  0  0  0  0  0  0  0
    6.8702  -15.3101   26.1450 C   0  0  0  0  0  0  0  0  0  0  0  0
    5.5558  -15.3482   26.6000 C   0  0  0  0  0  0  0  0  0  0  0  0
    5.1500  -14.1278   26.9271 N   0  0  0  0  0  0  0  0  0  0  0  0
    6.1661  -13.2674   26.7012 C   0  0  0  0  0  0  0  0  0  0  0  0
    6.2823  -11.8935   26.8690 C   0  0  0  0  0  0  0  0  0  0  0  0
    7.4591  -11.2250   26.5579 C   0  0  0  0  0  0  0  0  0  0  0  0
    8.5214  -11.9713   26.0724 C   0  0  0  0  0  0  0  0  0  0  0  0
    8.4187  -13.3538   25.8987 C   0  0  0  0  0  0  0  0  0  0  0  0
    7.2515  -13.9902   26.2112 C   0  0  0  0  0  0  0  0  0  0  0  0
    7.9117  -17.3038   23.3657 C   0  0  0  0  0  0  0  0  0  0  0  0
    8.5475  -18.3806   23.2246 O   0  0  0  0  0  0  0  0  0  0  0  0
    7.4280  -15.2994   19.8465 C   0  0  0  0  0  0  0  0  0  0  0  0
    8.8652  -15.6139   20.1173 C   0  0  1  0  0  0  0  0  0  0  0  0
    9.4826  -14.3888   20.4741 O   0  0  0  0  0  0  0  0  0  0  0  0
    9.0722  -16.5338   21.2918 C   0  0  2  0  0  0  0  0  0  0  0  0
    8.1722  -16.3251   22.3744 N   0  0  0  0  0  0  0  0  0  0  0  0
   10.5043  -16.5502   21.7228 C   0  0  0  0  0  0  0  0  0  0  0  0
   10.9392  -15.6941   22.5372 O   0  0  0  0  0  0  0  0  0  0  0  0
   12.5617  -18.9472   23.7424 C   0  0  0  0  0  0  0  0  0  0  0  0
   13.1632  -18.8298   22.3762 C   0  0  1  0  0  0  0  0  0  0  0  0
   12.7427  -19.9217   21.6170 O   0  0  0  0  0  0  0  0  0  0  0  0
   12.7910  -17.5192   21.7008 C   0  0  2  0  0  0  0  0  0  0  0  0
   11.4338  -17.5148   21.2459 N   0  0  0  0  0  0  0  0  0  0  0  0
   13.7655  -17.1633   20.6603 C   0  0  0  0  0  0  0  0  0  0  0  0
   14.9701  -16.9657   20.9221 O   0  0  0  0  0  0  0  0  0  0  0  0
   13.3425  -17.0426   19.3537 O   0  0  0  0  0  0  0  0  0  0  0  0
  2 13  1  0
  2  1  1  1
  3  2  1  0
  3  4  1  0
  4  5  2  0
  4 12  1  0
  5  6  1  0
  6  7  1  0
  7  8  2  0
  8  9  1  0
 10  9  2  0
 11 10  1  0
 12 11  2  0
 12  7  1  0
 13 19  1  0
 14 13  2  0
 16 17  1  0
 16 15  1  1
 18 19  1  1
 18 16  1  0
 20 21  2  0
 20 18  1  0
 23 22  1  1
 23 25  1  0
 24 23  1  0
 25 26  1  6
 25 27  1  0
 26 20  1  0
 27 28  2  0
 27 29  1  0
M  END
$$$$
