WTT.pdb
     RDKit          3D

 29 30  0  0  1  0  0  0  0  0999 V2000
    6.6700  -17.7181   24.8317 N   0  0  0  0  0  0  0  0  0  0  0  0
    7.4618  -16.7085   24.1930 C   0  0  1  0  0  0  0  0  0  0  0  0
    8.1987  -15.9146   25.2428 C   0  0  0  0  0  0  0  0  0  0  0  0
    7.2798  -14.9125   25.8297 C   0  0  0  0  0  0  0  0  0  0  0  0
    6.0311  -15.2009   26.3716 C   0  0  0  0  0  0  0  0  0  0  0  0
    5.4569  -14.0890   26.8134 N   0  0  0  0  0  0  0  0  0  0  0  0
    6.2951  -13.0562   26.5796 C   0  0  0  0  0  0  0  0  0  0  0  0
    6.1958  -11.6950   26.8374 C   0  0  0  0  0  0  0  0  0  0  0  0
    7.2168  -10.8186   26.4938 C   0  0  0  0  0  0  0  0  0  0  0  0
    8.3449  -11.3429   25.8827 C   0  0  0  0  0  0  0  0  0  0  0  0
    8.4584  -12.7099   25.6174 C   0  0  0  0  0  0  0  0  0  0  0  0
    7.4417  -13.5532   25.9640 C   0  0  0  0  0  0  0  0  0  0  0  0
    8.3780  -17.2572   23.1632 C   0  0  0  0  0  0  0  0  0  0  0  0
    8.8712  -18.4107   23.2630 O   0  0  0  0  0  0  0  0  0  0  0  0
    8.1172  -16.4762   19.2386 C   0  0  0  0  0  0  0  0  0  0  0  0
    9.5495  -16.5450   19.6647 C   0  0  1  0  0  0  0  0  0  0  0  0
   10.0385  -15.2148   19.6409 O   0  0  0  0  0  0  0  0  0  0  0  0
    9.7370  -17.0247   21.0801 C   0  0  2  0  0  0  0  0  0  0  0  0
    8.7671  -16.5422   22.0032 N   0  0  0  0  0  0  0  0  0  0  0  0
   11.1411  -16.8053   21.5462 C   0  0  0  0  0  0  0  0  0  0  0  0
   11.5149  -15.6712   21.9455 O   0  0  0  0  0  0  0  0  0  0  0  0
   13.0932  -18.3714   24.4444 C   0  0  0  0  0  0  0  0  0  0  0  0
   13.8013  -18.6325   23.1511 C   0  0  1  0  0  0  0  0  0  0  0  0
   13.4979  -19.9303   22.7398 O   0  0  0  0  0  0  0  0  0  0  0  0
   13.4259  -17.6188   22.0815 C   0  0  2  0  0  0  0  0  0  0  0  0
   12.1107  -17.8452   21.5637 N   0  0  0  0  0  0  0  0  0  0  0  0
   14.4637  -17.5325   21.0451 C   0  0  0  0  0  0  0  0  0  0  0  0
   15.6261  -17.1566   21.3027 O   0  0  0  0  0  0  0  0  0  0  0  0
   14.1501  -17.8755   19.7471 O   0  0  0  0  0  0  0  0  0  0  0  0
  2 13  1  0
  2  1  1  1
  3  2  1  0
  3  4  1  0
  4  5  2  0
  4 12  1  0
  5  6  1  0
  6  7  1  0
  7  8  2  0
  8  9  1  0
 10  9  2  0
 11 10  1  0
 12 11  2  0
 12  7  1  0
 13 19  1  0
 14 13  2  0
 16 17  1  0
 16 15  1  1
 18 19  1  1
 18 16  1  0
 20 21  2  0
 20 18  1  0
 23 22  1  1
 23 25  1  0
 24 23  1  0
 25 26  1  6
 25 27  1  0
 26 20  1  0
 27 28  2  0
 27 29  1  0
M  END
$$$$
