WTT.pdb
     RDKit          3D

 29 30  0  0  1  0  0  0  0  0999 V2000
    6.2504  -17.8490   24.9227 N   0  0  0  0  0  0  0  0  0  0  0  0
    6.8294  -16.6383   24.4197 C   0  0  1  0  0  0  0  0  0  0  0  0
    7.6208  -15.9708   25.5167 C   0  0  0  0  0  0  0  0  0  0  0  0
    6.8124  -14.8781   26.1046 C   0  0  0  0  0  0  0  0  0  0  0  0
    5.5808  -15.0486   26.7292 C   0  0  0  0  0  0  0  0  0  0  0  0
    5.1148  -13.8787   27.1476 N   0  0  0  0  0  0  0  0  0  0  0  0
    6.0093  -12.9223   26.8170 C   0  0  0  0  0  0  0  0  0  0  0  0
    6.0229  -11.5473   27.0132 C   0  0  0  0  0  0  0  0  0  0  0  0
    7.0817  -10.7652   26.5705 C   0  0  0  0  0  0  0  0  0  0  0  0
    8.1311  -11.3986   25.9234 C   0  0  0  0  0  0  0  0  0  0  0  0
    8.1307  -12.7807   25.7192 C   0  0  0  0  0  0  0  0  0  0  0  0
    7.0788  -13.5300   26.1631 C   0  0  0  0  0  0  0  0  0  0  0  0
    7.6410  -16.8501   23.1960 C   0  0  0  0  0  0  0  0  0  0  0  0
    8.2796  -17.9169   23.0015 O   0  0  0  0  0  0  0  0  0  0  0  0
    7.9756  -13.7358   20.3629 C   0  0  0  0  0  0  0  0  0  0  0  0
    8.2254  -15.1240   19.8646 C   0  0  1  0  0  0  0  0  0  0  0  0
    9.4191  -15.0667   19.1021 O   0  0  0  0  0  0  0  0  0  0  0  0
    8.4880  -16.1224   20.9614 C   0  0  2  0  0  0  0  0  0  0  0  0
    7.7630  -15.8873   22.1633 N   0  0  0  0  0  0  0  0  0  0  0  0
    9.9547  -16.3003   21.1939 C   0  0  0  0  0  0  0  0  0  0  0  0
   10.5753  -15.5436   21.9861 O   0  0  0  0  0  0  0  0  0  0  0  0
   12.1214  -19.1729   22.5638 C   0  0  0  0  0  0  0  0  0  0  0  0
   12.5209  -18.8482   21.1577 C   0  0  1  0  0  0  0  0  0  0  0  0
   11.9370  -19.7879   20.3083 O   0  0  0  0  0  0  0  0  0  0  0  0
   12.1221  -17.4344   20.7644 C   0  0  2  0  0  0  0  0  0  0  0  0
   10.7126  -17.3140   20.5459 N   0  0  0  0  0  0  0  0  0  0  0  0
   12.9388  -16.9450   19.6454 C   0  0  0  0  0  0  0  0  0  0  0  0
   12.4344  -16.6219   18.5501 O   0  0  0  0  0  0  0  0  0  0  0  0
   14.3041  -16.8372   19.8040 O   0  0  0  0  0  0  0  0  0  0  0  0
  2 13  1  0
  2  1  1  1
  3  2  1  0
  3  4  1  0
  4  5  2  0
  4 12  1  0
  5  6  1  0
  6  7  1  0
  7  8  2  0
  8  9  1  0
 10  9  2  0
 11 10  1  0
 12 11  2  0
 12  7  1  0
 13 19  1  0
 14 13  2  0
 16 17  1  0
 16 15  1  1
 18 19  1  1
 18 16  1  0
 20 21  2  0
 20 18  1  0
 23 22  1  1
 23 25  1  0
 24 23  1  0
 25 26  1  6
 25 27  1  0
 26 20  1  0
 27 28  2  0
 27 29  1  0
M  END
$$$$
