WTT.pdb
     RDKit          3D

 29 30  0  0  1  0  0  0  0  0999 V2000
    6.9473  -17.2447   23.8947 N   0  0  0  0  0  0  0  0  0  0  0  0
    8.1347  -16.4467   23.8085 C   0  0  1  0  0  0  0  0  0  0  0  0
    8.5220  -15.9786   25.1891 C   0  0  0  0  0  0  0  0  0  0  0  0
    7.4286  -15.1502   25.7471 C   0  0  0  0  0  0  0  0  0  0  0  0
    6.2296  -15.6491   26.2467 C   0  0  0  0  0  0  0  0  0  0  0  0
    5.4619  -14.6533   26.6712 N   0  0  0  0  0  0  0  0  0  0  0  0
    6.1209  -13.4922   26.4673 C   0  0  0  0  0  0  0  0  0  0  0  0
    5.7848  -12.1692   26.7242 C   0  0  0  0  0  0  0  0  0  0  0  0
    6.6538  -11.1306   26.4164 C   0  0  0  0  0  0  0  0  0  0  0  0
    7.8735  -11.4526   25.8421 C   0  0  0  0  0  0  0  0  0  0  0  0
    8.2247  -12.7789   25.5781 C   0  0  0  0  0  0  0  0  0  0  0  0
    7.3543  -13.7842   25.8892 C   0  0  0  0  0  0  0  0  0  0  0  0
    9.2507  -17.1424   23.1218 C   0  0  0  0  0  0  0  0  0  0  0  0
    9.4920  -18.3616   23.3190 O   0  0  0  0  0  0  0  0  0  0  0  0
   10.2832  -16.8491   19.3234 C   0  0  0  0  0  0  0  0  0  0  0  0
   11.5059  -16.7917   20.1834 C   0  0  1  0  0  0  0  0  0  0  0  0
   11.9259  -15.4379   20.1921 O   0  0  0  0  0  0  0  0  0  0  0  0
   11.2498  -17.1500   21.6237 C   0  0  2  0  0  0  0  0  0  0  0  0
   10.1218  -16.5045   22.2038 N   0  0  0  0  0  0  0  0  0  0  0  0
   12.4891  -17.0044   22.4481 C   0  0  0  0  0  0  0  0  0  0  0  0
   12.7632  -15.9099   23.0070 O   0  0  0  0  0  0  0  0  0  0  0  0
   16.2878  -19.0775   24.8511 C   0  0  0  0  0  0  0  0  0  0  0  0
   14.9600  -19.1931   24.1688 C   0  0  1  0  0  0  0  0  0  0  0  0
   14.0060  -19.5450   25.1234 O   0  0  0  0  0  0  0  0  0  0  0  0
   14.5716  -17.9066   23.4570 C   0  0  2  0  0  0  0  0  0  0  0  0
   13.4067  -18.0732   22.6420 N   0  0  0  0  0  0  0  0  0  0  0  0
   15.7178  -17.3298   22.7411 C   0  0  0  0  0  0  0  0  0  0  0  0
   15.7674  -17.2912   21.4942 O   0  0  0  0  0  0  0  0  0  0  0  0
   16.7732  -16.8143   23.4629 O   0  0  0  0  0  0  0  0  0  0  0  0
  2 13  1  0
  2  1  1  1
  3  2  1  0
  3  4  1  0
  4  5  2  0
  4 12  1  0
  5  6  1  0
  6  7  1  0
  7  8  2  0
  8  9  1  0
 10  9  2  0
 11 10  1  0
 12 11  2  0
 12  7  1  0
 13 19  1  0
 14 13  2  0
 16 17  1  0
 16 15  1  6
 18 19  1  1
 18 16  1  0
 20 21  2  0
 20 18  1  0
 23 22  1  1
 23 25  1  0
 24 23  1  0
 25 26  1  6
 25 27  1  0
 26 20  1  0
 27 28  2  0
 27 29  1  0
M  END
$$$$
