WTT.pdb
     RDKit          3D

 29 30  0  0  1  0  0  0  0  0999 V2000
    6.2391  -18.1685   24.8665 N   0  0  0  0  0  0  0  0  0  0  0  0
    6.9220  -16.9928   24.4133 C   0  0  1  0  0  0  0  0  0  0  0  0
    7.7461  -16.4282   25.5434 C   0  0  0  0  0  0  0  0  0  0  0  0
    7.0354  -15.2706   26.1334 C   0  0  0  0  0  0  0  0  0  0  0  0
    5.8144  -15.3422   26.7970 C   0  0  0  0  0  0  0  0  0  0  0  0
    5.4453  -14.1349   27.2061 N   0  0  0  0  0  0  0  0  0  0  0  0
    6.3946  -13.2506   26.8308 C   0  0  0  0  0  0  0  0  0  0  0  0
    6.5113  -11.8768   26.9997 C   0  0  0  0  0  0  0  0  0  0  0  0
    7.6087  -11.1799   26.5111 C   0  0  0  0  0  0  0  0  0  0  0  0
    8.5904  -11.8975   25.8460 C   0  0  0  0  0  0  0  0  0  0  0  0
    8.4861  -13.2794   25.6688 C   0  0  0  0  0  0  0  0  0  0  0  0
    7.3980  -13.9441   26.1578 C   0  0  0  0  0  0  0  0  0  0  0  0
    7.7343  -17.2293   23.1945 C   0  0  0  0  0  0  0  0  0  0  0  0
    8.3229  -18.3232   22.9933 O   0  0  0  0  0  0  0  0  0  0  0  0
    7.0050  -15.0043   19.8548 C   0  0  0  0  0  0  0  0  0  0  0  0
    8.4011  -15.5416   19.8673 C   0  0  1  0  0  0  0  0  0  0  0  0
    9.2543  -14.4334   20.0980 O   0  0  0  0  0  0  0  0  0  0  0  0
    8.6683  -16.5052   20.9937 C   0  0  2  0  0  0  0  0  0  0  0  0
    7.9120  -16.2617   22.1744 N   0  0  0  0  0  0  0  0  0  0  0  0
   10.1341  -16.6359   21.2602 C   0  0  0  0  0  0  0  0  0  0  0  0
   10.7236  -15.8220   22.0188 O   0  0  0  0  0  0  0  0  0  0  0  0
   12.2870  -19.5732   22.6495 C   0  0  0  0  0  0  0  0  0  0  0  0
   12.7678  -19.1608   21.2927 C   0  0  1  0  0  0  0  0  0  0  0  0
   12.2891  -20.0807   20.3599 O   0  0  0  0  0  0  0  0  0  0  0  0
   12.3319  -17.7475   20.9393 C   0  0  2  0  0  0  0  0  0  0  0  0
   10.9259  -17.6663   20.6830 N   0  0  0  0  0  0  0  0  0  0  0  0
   13.1630  -17.1895   19.8638 C   0  0  0  0  0  0  0  0  0  0  0  0
   12.6740  -16.8068   18.7807 O   0  0  0  0  0  0  0  0  0  0  0  0
   14.5248  -17.0828   20.0508 O   0  0  0  0  0  0  0  0  0  0  0  0
  2 13  1  0
  2  1  1  1
  3  2  1  0
  3  4  1  0
  4  5  2  0
  4 12  1  0
  5  6  1  0
  6  7  1  0
  7  8  2  0
  8  9  1  0
 10  9  2  0
 11 10  1  0
 12 11  2  0
 12  7  1  0
 13 19  1  0
 14 13  2  0
 16 17  1  0
 16 15  1  1
 18 19  1  1
 18 16  1  0
 20 21  2  0
 20 18  1  0
 23 22  1  1
 23 25  1  0
 24 23  1  0
 25 26  1  6
 25 27  1  0
 26 20  1  0
 27 28  2  0
 27 29  1  0
M  END
$$$$
