WTT.pdb
     RDKit          3D

 29 30  0  0  1  0  0  0  0  0999 V2000
    6.1476  -17.4547   24.0179 N   0  0  0  0  0  0  0  0  0  0  0  0
    6.8399  -16.2869   23.5585 C   0  0  1  0  0  0  0  0  0  0  0  0
    7.8496  -15.8653   24.5966 C   0  0  0  0  0  0  0  0  0  0  0  0
    7.1757  -15.0386   25.6240 C   0  0  0  0  0  0  0  0  0  0  0  0
    6.3538  -15.5363   26.6305 C   0  0  0  0  0  0  0  0  0  0  0  0
    5.9050  -14.5426   27.3869 N   0  0  0  0  0  0  0  0  0  0  0  0
    6.4089  -13.3841   26.9094 C   0  0  0  0  0  0  0  0  0  0  0  0
    6.2647  -12.0640   27.3165 C   0  0  0  0  0  0  0  0  0  0  0  0
    6.9004  -11.0278   26.6451 C   0  0  0  0  0  0  0  0  0  0  0  0
    7.6876  -11.3492   25.5506 C   0  0  0  0  0  0  0  0  0  0  0  0
    7.8416  -12.6726   25.1299 C   0  0  0  0  0  0  0  0  0  0  0  0
    7.2070  -13.6756   25.8054 C   0  0  0  0  0  0  0  0  0  0  0  0
    7.4568  -16.4687   22.2216 C   0  0  0  0  0  0  0  0  0  0  0  0
    7.6563  -17.6117   21.7344 O   0  0  0  0  0  0  0  0  0  0  0  0
    7.1486  -13.4094   19.5667 C   0  0  0  0  0  0  0  0  0  0  0  0
    8.2738  -14.3282   19.2096 C   0  0  1  0  0  0  0  0  0  0  0  0
    9.4708  -13.6152   19.4702 O   0  0  0  0  0  0  0  0  0  0  0  0
    8.3396  -15.5653   20.0664 C   0  0  2  0  0  0  0  0  0  0  0  0
    7.8654  -15.3911   21.3969 N   0  0  0  0  0  0  0  0  0  0  0  0
    9.6963  -16.1923   20.0113 C   0  0  0  0  0  0  0  0  0  0  0  0
   10.5536  -15.9460   20.9000 O   0  0  0  0  0  0  0  0  0  0  0  0
   12.7211  -19.6430   18.1408 C   0  0  0  0  0  0  0  0  0  0  0  0
   11.4448  -18.8724   18.0013 C   0  0  1  0  0  0  0  0  0  0  0  0
   10.3790  -19.7537   18.1824 O   0  0  0  0  0  0  0  0  0  0  0  0
   11.3686  -17.7141   18.9837 C   0  0  2  0  0  0  0  0  0  0  0  0
   10.0837  -17.0832   18.9731 N   0  0  0  0  0  0  0  0  0  0  0  0
   12.4878  -16.7816   18.7919 C   0  0  0  0  0  0  0  0  0  0  0  0
   12.3245  -15.6435   18.3055 O   0  0  0  0  0  0  0  0  0  0  0  0
   13.7589  -17.1700   19.1583 O   0  0  0  0  0  0  0  0  0  0  0  0
  2 13  1  0
  2  1  1  1
  3  2  1  0
  3  4  1  0
  4  5  2  0
  4 12  1  0
  5  6  1  0
  6  7  1  0
  7  8  2  0
  8  9  1  0
 10  9  2  0
 11 10  1  0
 12 11  2  0
 12  7  1  0
 13 19  1  0
 14 13  2  0
 16 17  1  0
 16 15  1  1
 18 19  1  1
 18 16  1  0
 20 21  2  0
 20 18  1  0
 23 22  1  1
 23 25  1  0
 24 23  1  0
 25 26  1  6
 25 27  1  0
 26 20  1  0
 27 28  2  0
 27 29  1  0
M  END
$$$$
