WTT.pdb
     RDKit          3D

 29 30  0  0  1  0  0  0  0  0999 V2000
    6.6870  -17.7220   25.3348 N   0  0  0  0  0  0  0  0  0  0  0  0
    6.8212  -17.2087   24.0035 C   0  0  1  0  0  0  0  0  0  0  0  0
    6.4005  -15.7603   23.9828 C   0  0  0  0  0  0  0  0  0  0  0  0
    6.7365  -15.1370   25.2835 C   0  0  0  0  0  0  0  0  0  0  0  0
    6.6726  -15.7831   26.5142 C   0  0  0  0  0  0  0  0  0  0  0  0
    7.0356  -14.9541   27.4848 N   0  0  0  0  0  0  0  0  0  0  0  0
    7.3431  -13.7610   26.9316 C   0  0  0  0  0  0  0  0  0  0  0  0
    7.7747  -12.5601   27.4799 C   0  0  0  0  0  0  0  0  0  0  0  0
    8.0293  -11.4522   26.6822 C   0  0  0  0  0  0  0  0  0  0  0  0
    7.8396  -11.5787   25.3150 C   0  0  0  0  0  0  0  0  0  0  0  0
    7.4058  -12.7805   24.7498 C   0  0  0  0  0  0  0  0  0  0  0  0
    7.1616  -13.8571   25.5538 C   0  0  0  0  0  0  0  0  0  0  0  0
    8.1810  -17.4027   23.4430 C   0  0  0  0  0  0  0  0  0  0  0  0
    8.9294  -18.3376   23.8300 O   0  0  0  0  0  0  0  0  0  0  0  0
    8.7621  -16.7511   19.5599 C   0  0  0  0  0  0  0  0  0  0  0  0
   10.0021  -16.4239   20.3301 C   0  0  1  0  0  0  0  0  0  0  0  0
   10.0883  -15.0095   20.3678 O   0  0  0  0  0  0  0  0  0  0  0  0
    9.9562  -16.8695   21.7682 C   0  0  2  0  0  0  0  0  0  0  0  0
    8.7406  -16.5677   22.4440 N   0  0  0  0  0  0  0  0  0  0  0  0
   11.1662  -16.4104   22.5177 C   0  0  0  0  0  0  0  0  0  0  0  0
   11.2396  -15.2333   22.9588 O   0  0  0  0  0  0  0  0  0  0  0  0
   13.1226  -18.1185   25.6059 C   0  0  0  0  0  0  0  0  0  0  0  0
   13.9893  -17.8704   24.4103 C   0  0  1  0  0  0  0  0  0  0  0  0
   14.1439  -19.0746   23.7238 O   0  0  0  0  0  0  0  0  0  0  0  0
   13.4135  -16.7945   23.5029 C   0  0  2  0  0  0  0  0  0  0  0  0
   12.2772  -17.2616   22.7683 N   0  0  0  0  0  0  0  0  0  0  0  0
   14.4582  -16.1963   22.6606 C   0  0  0  0  0  0  0  0  0  0  0  0
   14.4126  -16.2475   21.4140 O   0  0  0  0  0  0  0  0  0  0  0  0
   15.5234  -15.5579   23.2594 O   0  0  0  0  0  0  0  0  0  0  0  0
  2 13  1  0
  2  1  1  1
  3  2  1  0
  3  4  1  0
  4  5  2  0
  4 12  1  0
  5  6  1  0
  6  7  1  0
  7  8  2  0
  8  9  1  0
 10  9  2  0
 11 10  1  0
 12 11  2  0
 12  7  1  0
 13 19  1  0
 14 13  2  0
 16 17  1  0
 16 15  1  6
 18 19  1  1
 18 16  1  0
 20 21  2  0
 20 18  1  0
 23 22  1  1
 23 25  1  0
 24 23  1  0
 25 26  1  6
 25 27  1  0
 26 20  1  0
 27 28  2  0
 27 29  1  0
M  END
$$$$
