WTT.pdb
     RDKit          3D

 29 30  0  0  1  0  0  0  0  0999 V2000
    6.6333  -16.9617   23.7520 N   0  0  0  0  0  0  0  0  0  0  0  0
    7.8770  -16.4367   24.2332 C   0  0  1  0  0  0  0  0  0  0  0  0
    7.7294  -16.0573   25.6856 C   0  0  0  0  0  0  0  0  0  0  0  0
    6.7916  -14.9166   25.7981 C   0  0  0  0  0  0  0  0  0  0  0  0
    5.4086  -15.0322   25.8987 C   0  0  0  0  0  0  0  0  0  0  0  0
    4.8547  -13.8293   25.9842 N   0  0  0  0  0  0  0  0  0  0  0  0
    5.8383  -12.9047   25.9430 C   0  0  0  0  0  0  0  0  0  0  0  0
    5.8193  -11.5169   25.9950 C   0  0  0  0  0  0  0  0  0  0  0  0
    6.9921  -10.7758   25.9333 C   0  0  0  0  0  0  0  0  0  0  0  0
    8.1899  -11.4636   25.8176 C   0  0  0  0  0  0  0  0  0  0  0  0
    8.2240  -12.8593   25.7642 C   0  0  0  0  0  0  0  0  0  0  0  0
    7.0580  -13.5676   25.8266 C   0  0  0  0  0  0  0  0  0  0  0  0
    9.0186  -17.3577   24.0105 C   0  0  0  0  0  0  0  0  0  0  0  0
    8.8632  -18.6057   23.9655 O   0  0  0  0  0  0  0  0  0  0  0  0
   11.9900  -18.1873   21.7121 C   0  0  0  0  0  0  0  0  0  0  0  0
   12.5286  -17.7721   23.0446 C   0  0  1  0  0  0  0  0  0  0  0  0
   12.9856  -16.4388   22.8937 O   0  0  0  0  0  0  0  0  0  0  0  0
   11.4863  -17.7270   24.1309 C   0  0  2  0  0  0  0  0  0  0  0  0
   10.3540  -16.9178   23.8331 N   0  0  0  0  0  0  0  0  0  0  0  0
   12.0978  -17.4038   25.4570 C   0  0  0  0  0  0  0  0  0  0  0  0
   12.8885  -16.4316   25.5792 O   0  0  0  0  0  0  0  0  0  0  0  0
   10.8751  -15.8750   28.2779 C   0  0  0  0  0  0  0  0  0  0  0  0
   11.4038  -17.1645   28.8255 C   0  0  1  0  0  0  0  0  0  0  0  0
   10.3239  -18.0141   29.0652 O   0  0  0  0  0  0  0  0  0  0  0  0
   12.4101  -17.8118   27.8869 C   0  0  2  0  0  0  0  0  0  0  0  0
   11.8244  -18.1618   26.6285 N   0  0  0  0  0  0  0  0  0  0  0  0
   13.1092  -18.9243   28.5446 C   0  0  0  0  0  0  0  0  0  0  0  0
   13.0497  -20.0928   28.1090 O   0  0  0  0  0  0  0  0  0  0  0  0
   13.8549  -18.6761   29.6773 O   0  0  0  0  0  0  0  0  0  0  0  0
  2 13  1  0
  2  1  1  1
  3  2  1  0
  3  4  1  0
  4  5  2  0
  4 12  1  0
  5  6  1  0
  6  7  1  0
  7  8  2  0
  8  9  1  0
 10  9  2  0
 11 10  1  0
 12 11  2  0
 12  7  1  0
 13 19  1  0
 14 13  2  0
 16 17  1  0
 16 15  1  6
 18 19  1  6
 18 16  1  0
 20 21  2  0
 20 18  1  0
 23 22  1  6
 23 25  1  0
 24 23  1  0
 25 26  1  6
 25 27  1  0
 26 20  1  0
 27 28  2  0
 27 29  1  0
M  END
$$$$
