WTT.pdb
     RDKit          3D

 29 30  0  0  1  0  0  0  0  0999 V2000
    6.0957  -17.4967   24.3201 N   0  0  0  0  0  0  0  0  0  0  0  0
    7.1497  -16.6447   23.8541 C   0  0  1  0  0  0  0  0  0  0  0  0
    7.9446  -16.1441   25.0341 C   0  0  0  0  0  0  0  0  0  0  0  0
    7.1601  -15.1094   25.7463 C   0  0  0  0  0  0  0  0  0  0  0  0
    6.0377  -15.3621   26.5289 C   0  0  0  0  0  0  0  0  0  0  0  0
    5.5639  -14.2274   27.0281 N   0  0  0  0  0  0  0  0  0  0  0  0
    6.3460  -13.2143   26.5968 C   0  0  0  0  0  0  0  0  0  0  0  0
    6.3038  -11.8432   26.8145 C   0  0  0  0  0  0  0  0  0  0  0  0
    7.2434  -10.9926   26.2468 C   0  0  0  0  0  0  0  0  0  0  0  0
    8.2307  -11.5533   25.4518 C   0  0  0  0  0  0  0  0  0  0  0  0
    8.2853  -12.9307   25.2242 C   0  0  0  0  0  0  0  0  0  0  0  0
    7.3506  -13.7481   25.7928 C   0  0  0  0  0  0  0  0  0  0  0  0
    8.0114  -17.2945   22.8362 C   0  0  0  0  0  0  0  0  0  0  0  0
    8.3705  -18.4960   22.9423 O   0  0  0  0  0  0  0  0  0  0  0  0
    8.1862  -16.3194   18.8856 C   0  0  0  0  0  0  0  0  0  0  0  0
    9.5437  -16.5946   19.4505 C   0  0  1  0  0  0  0  0  0  0  0  0
   10.1941  -15.3398   19.5587 O   0  0  0  0  0  0  0  0  0  0  0  0
    9.5148  -17.1621   20.8455 C   0  0  2  0  0  0  0  0  0  0  0  0
    8.4932  -16.6295   21.6812 N   0  0  0  0  0  0  0  0  0  0  0  0
   10.8681  -17.1125   21.4801 C   0  0  0  0  0  0  0  0  0  0  0  0
   11.2843  -16.0551   22.0224 O   0  0  0  0  0  0  0  0  0  0  0  0
   12.8494  -19.5969   24.0326 C   0  0  0  0  0  0  0  0  0  0  0  0
   13.5252  -19.4011   22.7108 C   0  0  1  0  0  0  0  0  0  0  0  0
   13.2653  -20.5176   21.9163 O   0  0  0  0  0  0  0  0  0  0  0  0
   13.0708  -18.1235   22.0226 C   0  0  2  0  0  0  0  0  0  0  0  0
   11.7408  -18.2347   21.5051 N   0  0  0  0  0  0  0  0  0  0  0  0
   14.0572  -17.6764   21.0296 C   0  0  0  0  0  0  0  0  0  0  0  0
   13.7707  -17.5560   19.8205 O   0  0  0  0  0  0  0  0  0  0  0  0
   15.3396  -17.3796   21.4399 O   0  0  0  0  0  0  0  0  0  0  0  0
  2 13  1  0
  2  1  1  1
  3  2  1  0
  3  4  1  0
  4  5  2  0
  4 12  1  0
  5  6  1  0
  6  7  1  0
  7  8  2  0
  8  9  1  0
 10  9  2  0
 11 10  1  0
 12 11  2  0
 12  7  1  0
 13 19  1  0
 14 13  2  0
 16 17  1  0
 16 15  1  1
 18 19  1  1
 18 16  1  0
 20 21  2  0
 20 18  1  0
 23 22  1  1
 23 25  1  0
 24 23  1  0
 25 26  1  6
 25 27  1  0
 26 20  1  0
 27 28  2  0
 27 29  1  0
M  END
$$$$
