WTT.pdb
     RDKit          3D

 29 30  0  0  1  0  0  0  0  0999 V2000
    6.7072  -17.3891   23.8966 N   0  0  0  0  0  0  0  0  0  0  0  0
    7.8781  -16.5738   23.7613 C   0  0  1  0  0  0  0  0  0  0  0  0
    8.3396  -16.1335   25.1282 C   0  0  0  0  0  0  0  0  0  0  0  0
    7.3608  -15.1726   25.6866 C   0  0  0  0  0  0  0  0  0  0  0  0
    6.1277  -15.5199   26.2297 C   0  0  0  0  0  0  0  0  0  0  0  0
    5.4875  -14.4330   26.6419 N   0  0  0  0  0  0  0  0  0  0  0  0
    6.2660  -13.3592   26.3870 C   0  0  0  0  0  0  0  0  0  0  0  0
    6.0865  -12.0002   26.6114 C   0  0  0  0  0  0  0  0  0  0  0  0
    7.0571  -11.0745   26.2515 C   0  0  0  0  0  0  0  0  0  0  0  0
    8.2173  -11.5470   25.6583 C   0  0  0  0  0  0  0  0  0  0  0  0
    8.4113  -12.9111   25.4266 C   0  0  0  0  0  0  0  0  0  0  0  0
    7.4431  -13.8034   25.7888 C   0  0  0  0  0  0  0  0  0  0  0  0
    8.9602  -17.2382   22.9943 C   0  0  0  0  0  0  0  0  0  0  0  0
    9.2301  -18.4574   23.1507 O   0  0  0  0  0  0  0  0  0  0  0  0
    9.9153  -16.7130   19.1627 C   0  0  0  0  0  0  0  0  0  0  0  0
   11.1507  -16.7324   20.0061 C   0  0  1  0  0  0  0  0  0  0  0  0
   11.6044  -15.3916   20.0822 O   0  0  0  0  0  0  0  0  0  0  0  0
   10.9053  -17.1627   21.4285 C   0  0  2  0  0  0  0  0  0  0  0  0
    9.7654  -16.5685   22.0396 N   0  0  0  0  0  0  0  0  0  0  0  0
   12.1432  -17.0299   22.2572 C   0  0  0  0  0  0  0  0  0  0  0  0
   12.4266  -15.9384   22.8172 O   0  0  0  0  0  0  0  0  0  0  0  0
   13.3446  -19.1447   25.3289 C   0  0  0  0  0  0  0  0  0  0  0  0
   14.3699  -19.1435   24.2376 C   0  0  1  0  0  0  0  0  0  0  0  0
   14.2767  -20.3520   23.5475 O   0  0  0  0  0  0  0  0  0  0  0  0
   14.1977  -17.9621   23.2957 C   0  0  2  0  0  0  0  0  0  0  0  0
   13.0491  -18.1081   22.4540 N   0  0  0  0  0  0  0  0  0  0  0  0
   15.4392  -17.6847   22.5605 C   0  0  0  0  0  0  0  0  0  0  0  0
   15.4764  -17.6538   21.3130 O   0  0  0  0  0  0  0  0  0  0  0  0
   16.6014  -17.4507   23.2644 O   0  0  0  0  0  0  0  0  0  0  0  0
  2 13  1  0
  2  1  1  1
  3  2  1  0
  3  4  1  0
  4  5  2  0
  4 12  1  0
  5  6  1  0
  6  7  1  0
  7  8  2  0
  8  9  1  0
 10  9  2  0
 11 10  1  0
 12 11  2  0
 12  7  1  0
 13 19  1  0
 14 13  2  0
 16 17  1  0
 16 15  1  6
 18 19  1  1
 18 16  1  0
 20 21  2  0
 20 18  1  0
 23 22  1  1
 23 25  1  0
 24 23  1  0
 25 26  1  6
 25 27  1  0
 26 20  1  0
 27 28  2  0
 27 29  1  0
M  END
$$$$
