WTT.pdb
     RDKit          3D

 29 30  0  0  1  0  0  0  0  0999 V2000
    6.1602  -17.8422   24.6128 N   0  0  0  0  0  0  0  0  0  0  0  0
    6.6366  -16.5683   24.1607 C   0  0  1  0  0  0  0  0  0  0  0  0
    7.5517  -15.9791   25.2051 C   0  0  0  0  0  0  0  0  0  0  0  0
    6.8447  -14.8862   25.9114 C   0  0  0  0  0  0  0  0  0  0  0  0
    5.5730  -14.9909   26.4662 C   0  0  0  0  0  0  0  0  0  0  0  0
    5.2227  -13.8401   27.0265 N   0  0  0  0  0  0  0  0  0  0  0  0
    6.2345  -12.9612   26.8599 C   0  0  0  0  0  0  0  0  0  0  0  0
    6.3942  -11.6359   27.2440 C   0  0  0  0  0  0  0  0  0  0  0  0
    7.5547  -10.9331   26.9479 C   0  0  0  0  0  0  0  0  0  0  0  0
    8.5557  -11.5947   26.2541 C   0  0  0  0  0  0  0  0  0  0  0  0
    8.4088  -12.9275   25.8615 C   0  0  0  0  0  0  0  0  0  0  0  0
    7.2587  -13.5990   26.1636 C   0  0  0  0  0  0  0  0  0  0  0  0
    7.2812  -16.6321   22.8261 C   0  0  0  0  0  0  0  0  0  0  0  0
    7.8430  -17.6791   22.4117 O   0  0  0  0  0  0  0  0  0  0  0  0
    8.0843  -13.1313   20.2239 C   0  0  0  0  0  0  0  0  0  0  0  0
    7.6155  -14.4618   19.7259 C   0  0  1  0  0  0  0  0  0  0  0  0
    8.3289  -14.7145   18.5274 O   0  0  0  0  0  0  0  0  0  0  0  0
    7.9481  -15.6046   20.6489 C   0  0  2  0  0  0  0  0  0  0  0  0
    7.3178  -15.5402   21.9234 N   0  0  0  0  0  0  0  0  0  0  0  0
    9.4259  -15.8146   20.7424 C   0  0  0  0  0  0  0  0  0  0  0  0
   10.1200  -15.1413   21.5488 O   0  0  0  0  0  0  0  0  0  0  0  0
   11.4939  -18.8737   21.6854 C   0  0  0  0  0  0  0  0  0  0  0  0
   11.8838  -18.4185   20.3132 C   0  0  1  0  0  0  0  0  0  0  0  0
   11.2577  -19.2472   19.3823 O   0  0  0  0  0  0  0  0  0  0  0  0
   11.5258  -16.9601   20.0739 C   0  0  2  0  0  0  0  0  0  0  0  0
   10.1135  -16.7674   19.9418 N   0  0  0  0  0  0  0  0  0  0  0  0
   12.3066  -16.3976   18.9636 C   0  0  0  0  0  0  0  0  0  0  0  0
   11.7630  -15.9501   17.9327 O   0  0  0  0  0  0  0  0  0  0  0  0
   13.6816  -16.3604   19.0576 O   0  0  0  0  0  0  0  0  0  0  0  0
  2 13  1  0
  2  1  1  1
  3  2  1  0
  3  4  1  0
  4  5  2  0
  4 12  1  0
  5  6  1  0
  6  7  1  0
  7  8  2  0
  8  9  1  0
 10  9  2  0
 11 10  1  0
 12 11  2  0
 12  7  1  0
 13 19  1  0
 14 13  2  0
 16 17  1  0
 16 15  1  1
 18 19  1  1
 18 16  1  0
 20 21  2  0
 20 18  1  0
 23 22  1  1
 23 25  1  0
 24 23  1  0
 25 26  1  6
 25 27  1  0
 26 20  1  0
 27 28  2  0
 27 29  1  0
M  END
$$$$
