WTT.pdb
     RDKit          3D

 29 30  0  0  1  0  0  0  0  0999 V2000
    6.1878  -17.9284   24.6530 N   0  0  0  0  0  0  0  0  0  0  0  0
    6.7148  -16.6458   24.2908 C   0  0  1  0  0  0  0  0  0  0  0  0
    7.5909  -16.1336   25.4067 C   0  0  0  0  0  0  0  0  0  0  0  0
    6.9096  -15.0054   26.0821 C   0  0  0  0  0  0  0  0  0  0  0  0
    5.6861  -15.0946   26.7387 C   0  0  0  0  0  0  0  0  0  0  0  0
    5.3480  -13.9122   27.2374 N   0  0  0  0  0  0  0  0  0  0  0  0
    6.3206  -13.0273   26.9294 C   0  0  0  0  0  0  0  0  0  0  0  0
    6.4729  -11.6736   27.2009 C   0  0  0  0  0  0  0  0  0  0  0  0
    7.5889  -10.9710   26.7657 C   0  0  0  0  0  0  0  0  0  0  0  0
    8.5527  -11.6620   26.0483 C   0  0  0  0  0  0  0  0  0  0  0  0
    8.4127  -13.0236   25.7679 C   0  0  0  0  0  0  0  0  0  0  0  0
    7.3067  -13.6944   26.2060 C   0  0  0  0  0  0  0  0  0  0  0  0
    7.4224  -16.6583   22.9869 C   0  0  0  0  0  0  0  0  0  0  0  0
    8.1208  -17.6395   22.6222 O   0  0  0  0  0  0  0  0  0  0  0  0
    8.3581  -13.1435   20.4293 C   0  0  0  0  0  0  0  0  0  0  0  0
    7.7676  -14.4216   19.9238 C   0  0  1  0  0  0  0  0  0  0  0  0
    8.4104  -14.6995   18.6913 O   0  0  0  0  0  0  0  0  0  0  0  0
    8.0472  -15.6085   20.8079 C   0  0  2  0  0  0  0  0  0  0  0  0
    7.3720  -15.5869   22.0606 N   0  0  0  0  0  0  0  0  0  0  0  0
    9.5169  -15.8492   20.9450 C   0  0  0  0  0  0  0  0  0  0  0  0
   10.2013  -15.1884   21.7698 O   0  0  0  0  0  0  0  0  0  0  0  0
   11.6790  -18.5523   22.2359 C   0  0  0  0  0  0  0  0  0  0  0  0
   11.9954  -18.3745   20.7831 C   0  0  1  0  0  0  0  0  0  0  0  0
   11.3216  -19.3616   20.0640 O   0  0  0  0  0  0  0  0  0  0  0  0
   11.6239  -16.9865   20.2851 C   0  0  2  0  0  0  0  0  0  0  0  0
   10.2073  -16.8186   20.1668 N   0  0  0  0  0  0  0  0  0  0  0  0
   12.3648  -16.6459   19.0628 C   0  0  0  0  0  0  0  0  0  0  0  0
   11.7870  -16.4333   17.9768 O   0  0  0  0  0  0  0  0  0  0  0  0
   13.7398  -16.5569   19.1109 O   0  0  0  0  0  0  0  0  0  0  0  0
  2 13  1  0
  2  1  1  1
  3  2  1  0
  3  4  1  0
  4  5  2  0
  4 12  1  0
  5  6  1  0
  6  7  1  0
  7  8  2  0
  8  9  1  0
 10  9  2  0
 11 10  1  0
 12 11  2  0
 12  7  1  0
 13 19  1  0
 14 13  2  0
 16 17  1  0
 16 15  1  1
 18 19  1  1
 18 16  1  0
 20 21  2  0
 20 18  1  0
 23 22  1  1
 23 25  1  0
 24 23  1  0
 25 26  1  6
 25 27  1  0
 26 20  1  0
 27 28  2  0
 27 29  1  0
M  END
$$$$
