WTT.pdb
     RDKit          3D

 29 30  0  0  1  0  0  0  0  0999 V2000
    5.2503  -17.4795   24.8187 N   0  0  0  0  0  0  0  0  0  0  0  0
    6.3881  -16.6088   24.8552 C   0  0  1  0  0  0  0  0  0  0  0  0
    6.9911  -16.6343   26.2376 C   0  0  0  0  0  0  0  0  0  0  0  0
    7.6790  -15.3478   26.4927 C   0  0  0  0  0  0  0  0  0  0  0  0
    9.0545  -15.1979   26.6392 C   0  0  0  0  0  0  0  0  0  0  0  0
    9.3545  -13.9238   26.8577 N   0  0  0  0  0  0  0  0  0  0  0  0
    8.2070  -13.2117   26.8612 C   0  0  0  0  0  0  0  0  0  0  0  0
    7.9469  -11.8592   27.0406 C   0  0  0  0  0  0  0  0  0  0  0  0
    6.6512  -11.3612   26.9982 C   0  0  0  0  0  0  0  0  0  0  0  0
    5.6181  -12.2568   26.7706 C   0  0  0  0  0  0  0  0  0  0  0  0
    5.8651  -13.6198   26.5885 C   0  0  0  0  0  0  0  0  0  0  0  0
    7.1474  -14.0872   26.6342 C   0  0  0  0  0  0  0  0  0  0  0  0
    7.3883  -16.9195   23.8045 C   0  0  0  0  0  0  0  0  0  0  0  0
    7.9421  -18.0472   23.7305 O   0  0  0  0  0  0  0  0  0  0  0  0
    7.1479  -15.0059   20.2795 C   0  0  0  0  0  0  0  0  0  0  0  0
    8.5476  -15.4738   20.5241 C   0  0  1  0  0  0  0  0  0  0  0  0
    9.3234  -14.3106   20.7574 O   0  0  0  0  0  0  0  0  0  0  0  0
    8.6951  -16.3191   21.7619 C   0  0  2  0  0  0  0  0  0  0  0  0
    7.7961  -15.9905   22.8151 N   0  0  0  0  0  0  0  0  0  0  0  0
   10.1200  -16.3780   22.2125 C   0  0  0  0  0  0  0  0  0  0  0  0
   10.5930  -15.4849   22.9635 O   0  0  0  0  0  0  0  0  0  0  0  0
   12.2143  -19.4998   23.6919 C   0  0  0  0  0  0  0  0  0  0  0  0
   12.8636  -18.8632   22.5022 C   0  0  1  0  0  0  0  0  0  0  0  0
   12.6249  -19.6692   21.3892 O   0  0  0  0  0  0  0  0  0  0  0  0
   12.3611  -17.4471   22.2688 C   0  0  2  0  0  0  0  0  0  0  0  0
   11.0003  -17.4253   21.8252 N   0  0  0  0  0  0  0  0  0  0  0  0
   13.2786  -16.6948   21.4021 C   0  0  0  0  0  0  0  0  0  0  0  0
   12.9096  -16.2064   20.3141 O   0  0  0  0  0  0  0  0  0  0  0  0
   14.5878  -16.5200   21.7974 O   0  0  0  0  0  0  0  0  0  0  0  0
  2 13  1  0
  2  1  1  1
  3  2  1  0
  3  4  1  0
  4  5  2  0
  4 12  1  0
  5  6  1  0
  6  7  1  0
  7  8  2  0
  8  9  1  0
 10  9  2  0
 11 10  1  0
 12 11  2  0
 12  7  1  0
 13 19  1  0
 14 13  2  0
 16 17  1  0
 16 15  1  1
 18 19  1  1
 18 16  1  0
 20 21  2  0
 20 18  1  0
 23 22  1  1
 23 25  1  0
 24 23  1  0
 25 26  1  6
 25 27  1  0
 26 20  1  0
 27 28  2  0
 27 29  1  0
M  END
$$$$
