VLE.pdb
     RDKit          3D

 25 24  0  0  1  0  0  0  0  0999 V2000
   27.8433  -22.1664  -17.7048 C   0  0  0  0  0  0  0  0  0  0  0  0
   26.5368  -21.9260  -16.9251 C   0  0  2  0  0  0  0  0  0  0  0  0
   26.3409  -20.4283  -16.9127 C   0  0  0  0  0  0  0  0  0  0  0  0
   26.8093  -22.5016  -15.5442 C   0  0  2  0  0  0  0  0  0  0  0  0
   26.8990  -23.9683  -15.6698 N   0  0  0  0  0  0  0  0  0  0  0  0
   25.7188  -22.2434  -14.5754 C   0  0  0  0  0  0  0  0  0  0  0  0
   24.6117  -22.8913  -14.6433 O   0  0  0  0  0  0  0  0  0  0  0  0
   26.3898  -20.1507   -9.2331 C   0  0  0  0  0  0  0  0  0  0  0  0
   25.8425  -20.9593  -10.3757 C   0  0  1  0  0  0  0  0  0  0  0  0
   24.7770  -21.8755   -9.7452 C   0  0  0  0  0  0  0  0  0  0  0  0
   25.1468  -20.1933  -11.4398 C   0  0  0  0  0  0  0  0  0  0  0  0
   24.7172  -20.9457  -12.6484 C   0  0  2  0  0  0  0  0  0  0  0  0
   25.8222  -21.2828  -13.5263 N   0  0  0  0  0  0  0  0  0  0  0  0
   23.6017  -20.2580  -13.3259 C   0  0  0  0  0  0  0  0  0  0  0  0
   23.7978  -19.1531  -13.9379 O   0  0  0  0  0  0  0  0  0  0  0  0
   22.2725  -20.7449  -13.3586 N   0  0  0  0  0  0  0  0  0  0  0  0
   21.2022  -20.0755  -14.0700 C   0  0  1  0  0  0  0  0  0  0  0  0
   21.2477  -20.4347  -15.5575 C   0  0  0  0  0  0  0  0  0  0  0  0
   21.1074  -21.9121  -15.7685 C   0  0  0  0  0  0  0  0  0  0  0  0
   21.1002  -22.1561  -17.2338 C   0  0  0  0  0  0  0  0  0  0  0  0
   22.0733  -22.7601  -17.7791 O   0  0  0  0  0  0  0  0  0  0  0  0
   19.9184  -20.5934  -13.5738 C   0  0  0  0  0  0  0  0  0  0  0  0
   18.7406  -19.9951  -13.9758 O   0  0  0  0  0  0  0  0  0  0  0  0
   20.0691  -21.7546  -18.0659 O   0  0  0  0  0  0  0  0  0  0  0  0
   19.8350  -21.5789  -12.7799 O   0  0  0  0  0  0  0  0  0  0  0  0
  2  1  1  6
  2  4  1  0
  2  3  1  0
  4  6  1  0
  4  5  1  6
  6  7  2  0
  9  8  1  1
 10  9  1  0
 11  9  1  0
 12 11  1  1
 13  6  1  0
 13 12  1  0
 14 12  1  0
 14 15  2  0
 16 14  1  0
 17 18  1  6
 17 16  1  0
 19 18  1  0
 19 20  1  0
 20 21  2  0
 22 17  1  0
 23 22  1  0
 24 20  1  0
 25 22  2  0
M  END
$$$$
