VLE.pdb
     RDKit          3D

 25 24  0  0  1  0  0  0  0  0999 V2000
   26.2628  -18.5453  -16.6618 C   0  0  0  0  0  0  0  0  0  0  0  0
   27.0541  -18.0323  -15.4439 C   0  0  2  0  0  0  0  0  0  0  0  0
   28.2085  -17.2418  -16.0132 C   0  0  0  0  0  0  0  0  0  0  0  0
   27.4968  -19.2950  -14.7215 C   0  0  2  0  0  0  0  0  0  0  0  0
   28.1410  -20.1835  -15.7068 N   0  0  0  0  0  0  0  0  0  0  0  0
   26.3706  -20.0703  -14.1516 C   0  0  0  0  0  0  0  0  0  0  0  0
   25.8023  -21.0007  -14.8309 O   0  0  0  0  0  0  0  0  0  0  0  0
   26.0551  -20.5677   -8.5817 C   0  0  0  0  0  0  0  0  0  0  0  0
   26.0891  -20.7066  -10.0778 C   0  0  1  0  0  0  0  0  0  0  0  0
   26.5831  -22.1424  -10.3366 C   0  0  0  0  0  0  0  0  0  0  0  0
   24.7819  -20.5916  -10.7714 C   0  0  0  0  0  0  0  0  0  0  0  0
   24.7942  -20.6431  -12.2575 C   0  0  2  0  0  0  0  0  0  0  0  0
   25.8545  -19.8432  -12.8416 N   0  0  0  0  0  0  0  0  0  0  0  0
   23.4548  -20.3539  -12.8039 C   0  0  0  0  0  0  0  0  0  0  0  0
   22.9807  -19.1676  -12.7628 O   0  0  0  0  0  0  0  0  0  0  0  0
   22.6149  -21.3253  -13.4005 N   0  0  0  0  0  0  0  0  0  0  0  0
   21.2959  -21.0204  -13.9171 C   0  0  1  0  0  0  0  0  0  0  0  0
   20.7831  -22.1771  -14.7790 C   0  0  0  0  0  0  0  0  0  0  0  0
   19.4339  -21.8730  -15.3569 C   0  0  0  0  0  0  0  0  0  0  0  0
   19.0309  -23.0359  -16.1887 C   0  0  0  0  0  0  0  0  0  0  0  0
   19.9114  -23.7019  -16.8134 O   0  0  0  0  0  0  0  0  0  0  0  0
   20.3633  -20.9234  -12.7842 C   0  0  0  0  0  0  0  0  0  0  0  0
   19.2284  -20.1454  -12.9000 O   0  0  0  0  0  0  0  0  0  0  0  0
   17.7176  -23.4508  -16.3292 O   0  0  0  0  0  0  0  0  0  0  0  0
   20.5512  -21.5276  -11.6851 O   0  0  0  0  0  0  0  0  0  0  0  0
  2  1  1  6
  2  4  1  0
  2  3  1  0
  4  6  1  0
  4  5  1  6
  6  7  2  0
  9  8  1  1
 10  9  1  0
 11  9  1  0
 12 11  1  1
 13  6  1  0
 13 12  1  0
 14 12  1  0
 14 15  2  0
 16 14  1  0
 17 18  1  6
 17 16  1  0
 19 18  1  0
 19 20  1  0
 20 21  2  0
 22 17  1  0
 23 22  1  0
 24 20  1  0
 25 22  2  0
M  END
$$$$
