VLE.pdb
     RDKit          3D

 25 24  0  0  1  0  0  0  0  0999 V2000
   23.6052  -18.7430  -17.4479 C   0  0  0  0  0  0  0  0  0  0  0  0
   24.4858  -17.8828  -16.5220 C   0  0  2  0  0  0  0  0  0  0  0  0
   25.1877  -16.8989  -17.4280 C   0  0  0  0  0  0  0  0  0  0  0  0
   25.4364  -18.8770  -15.8736 C   0  0  2  0  0  0  0  0  0  0  0  0
   26.1311  -19.6121  -16.9470 N   0  0  0  0  0  0  0  0  0  0  0  0
   24.7455  -19.9040  -15.0600 C   0  0  0  0  0  0  0  0  0  0  0  0
   24.2898  -20.9756  -15.6023 O   0  0  0  0  0  0  0  0  0  0  0  0
   26.0474  -20.6052   -9.6438 C   0  0  0  0  0  0  0  0  0  0  0  0
   25.6941  -20.7240  -11.0998 C   0  0  1  0  0  0  0  0  0  0  0  0
   26.2317  -22.1010  -11.5325 C   0  0  0  0  0  0  0  0  0  0  0  0
   24.2444  -20.7313  -11.4186 C   0  0  0  0  0  0  0  0  0  0  0  0
   23.8649  -20.7794  -12.8556 C   0  0  2  0  0  0  0  0  0  0  0  0
   24.5458  -19.7769  -13.6536 N   0  0  0  0  0  0  0  0  0  0  0  0
   22.3980  -20.7746  -13.0116 C   0  0  0  0  0  0  0  0  0  0  0  0
   21.7297  -19.7019  -12.8207 O   0  0  0  0  0  0  0  0  0  0  0  0
   21.6354  -21.9108  -13.3754 N   0  0  0  0  0  0  0  0  0  0  0  0
   20.2078  -21.8604  -13.6188 C   0  0  1  0  0  0  0  0  0  0  0  0
   19.7234  -23.1861  -14.2118 C   0  0  0  0  0  0  0  0  0  0  0  0
   18.2542  -23.1497  -14.5065 C   0  0  0  0  0  0  0  0  0  0  0  0
   17.8830  -24.4624  -15.0944 C   0  0  0  0  0  0  0  0  0  0  0  0
   18.7684  -25.3568  -15.2541 O   0  0  0  0  0  0  0  0  0  0  0  0
   19.5196  -21.7268  -12.3261 C   0  0  0  0  0  0  0  0  0  0  0  0
   18.3084  -21.0667  -12.2635 O   0  0  0  0  0  0  0  0  0  0  0  0
   16.5952  -24.7808  -15.4905 O   0  0  0  0  0  0  0  0  0  0  0  0
   19.9901  -22.1940  -11.2450 O   0  0  0  0  0  0  0  0  0  0  0  0
  2  1  1  6
  2  4  1  0
  2  3  1  0
  4  6  1  0
  4  5  1  6
  6  7  2  0
  9  8  1  1
 10  9  1  0
 11  9  1  0
 12 11  1  1
 13  6  1  0
 13 12  1  0
 14 12  1  0
 14 15  2  0
 16 14  1  0
 17 18  1  1
 17 16  1  0
 19 18  1  0
 19 20  1  0
 20 21  2  0
 22 17  1  0
 23 22  1  0
 24 20  1  0
 25 22  2  0
M  END
$$$$
