VLE.pdb
     RDKit          3D

 25 24  0  0  1  0  0  0  0  0999 V2000
   26.8617  -34.2450   -9.2002 C   0  0  0  0  0  0  0  0  0  0  0  0
   25.6085  -34.2067   -8.3054 C   0  0  2  0  0  0  0  0  0  0  0  0
   24.6178  -33.3275   -9.0314 C   0  0  0  0  0  0  0  0  0  0  0  0
   26.0955  -33.6004   -6.9985 C   0  0  2  0  0  0  0  0  0  0  0  0
   26.6453  -32.2636   -7.2915 N   0  0  0  0  0  0  0  0  0  0  0  0
   27.1993  -34.3648   -6.3728 C   0  0  0  0  0  0  0  0  0  0  0  0
   27.0434  -35.5974   -6.0464 O   0  0  0  0  0  0  0  0  0  0  0  0
   32.6827  -35.5839   -5.6063 C   0  0  0  0  0  0  0  0  0  0  0  0
   31.9771  -34.5389   -4.7884 C   0  0  1  0  0  0  0  0  0  0  0  0
   33.0361  -33.4517   -4.5259 C   0  0  0  0  0  0  0  0  0  0  0  0
   30.8404  -33.8523   -5.4514 C   0  0  0  0  0  0  0  0  0  0  0  0
   29.4991  -34.4819   -5.3249 C   0  0  2  0  0  0  0  0  0  0  0  0
   28.4792  -33.7986   -6.0985 N   0  0  0  0  0  0  0  0  0  0  0  0
   29.1437  -34.6798   -3.9069 C   0  0  0  0  0  0  0  0  0  0  0  0
   28.9681  -33.6750   -3.1367 O   0  0  0  0  0  0  0  0  0  0  0  0
   28.9696  -35.9484   -3.3026 N   0  0  0  0  0  0  0  0  0  0  0  0
   28.6248  -36.1183   -1.9054 C   0  0  1  0  0  0  0  0  0  0  0  0
   28.3065  -37.5868   -1.6121 C   0  0  0  0  0  0  0  0  0  0  0  0
   27.9443  -37.7914   -0.1720 C   0  0  0  0  0  0  0  0  0  0  0  0
   27.6926  -39.2422    0.0243 C   0  0  0  0  0  0  0  0  0  0  0  0
   27.3908  -39.6815    1.1754 O   0  0  0  0  0  0  0  0  0  0  0  0
   29.8067  -35.7963   -1.0918 C   0  0  0  0  0  0  0  0  0  0  0  0
   29.6521  -35.0960    0.0881 O   0  0  0  0  0  0  0  0  0  0  0  0
   27.7686  -40.1718   -0.9988 O   0  0  0  0  0  0  0  0  0  0  0  0
   30.9832  -36.1337   -1.4244 O   0  0  0  0  0  0  0  0  0  0  0  0
  2  1  1  6
  2  4  1  0
  2  3  1  0
  4  6  1  0
  4  5  1  6
  6  7  2  0
  9  8  1  6
 10  9  1  0
 11  9  1  0
 12 11  1  1
 13  6  1  0
 13 12  1  0
 14 12  1  0
 14 15  2  0
 16 14  1  0
 17 18  1  6
 17 16  1  0
 19 18  1  0
 19 20  1  0
 20 21  2  0
 22 17  1  0
 23 22  1  0
 24 20  1  0
 25 22  2  0
M  END
$$$$
