VLE.pdb
     RDKit          3D

 25 24  0  0  1  0  0  0  0  0999 V2000
   28.0048  -32.5890  -22.0632 C   0  0  0  0  0  0  0  0  0  0  0  0
   27.0896  -32.1322  -20.9115 C   0  0  2  0  0  0  0  0  0  0  0  0
   25.9967  -31.3162  -21.5605 C   0  0  0  0  0  0  0  0  0  0  0  0
   27.9962  -31.3048  -20.0137 C   0  0  2  0  0  0  0  0  0  0  0  0
   28.8769  -32.2298  -19.2762 N   0  0  0  0  0  0  0  0  0  0  0  0
   27.2592  -30.5378  -18.9828 C   0  0  0  0  0  0  0  0  0  0  0  0
   26.7463  -31.1293  -17.9644 O   0  0  0  0  0  0  0  0  0  0  0  0
   28.8078  -25.5500  -17.1802 C   0  0  0  0  0  0  0  0  0  0  0  0
   28.2205  -26.9308  -17.2660 C   0  0  1  0  0  0  0  0  0  0  0  0
   28.1244  -27.4176  -15.8079 C   0  0  0  0  0  0  0  0  0  0  0  0
   26.8460  -27.0196  -17.8192 C   0  0  0  0  0  0  0  0  0  0  0  0
   26.3020  -28.3801  -18.0724 C   0  0  2  0  0  0  0  0  0  0  0  0
   27.0752  -29.1250  -19.0484 N   0  0  0  0  0  0  0  0  0  0  0  0
   24.8583  -28.3212  -18.3701 C   0  0  0  0  0  0  0  0  0  0  0  0
   24.4508  -28.1201  -19.5648 O   0  0  0  0  0  0  0  0  0  0  0  0
   23.8410  -28.4799  -17.3981 N   0  0  0  0  0  0  0  0  0  0  0  0
   22.4285  -28.4592  -17.7209 C   0  0  1  0  0  0  0  0  0  0  0  0
   21.6058  -28.9739  -16.5368 C   0  0  0  0  0  0  0  0  0  0  0  0
   20.1395  -28.9744  -16.8478 C   0  0  0  0  0  0  0  0  0  0  0  0
   19.4285  -29.4938  -15.6514 C   0  0  0  0  0  0  0  0  0  0  0  0
   20.0490  -30.2108  -14.8088 O   0  0  0  0  0  0  0  0  0  0  0  0
   22.0159  -27.0612  -17.9153 C   0  0  0  0  0  0  0  0  0  0  0  0
   21.0223  -26.7639  -18.8269 O   0  0  0  0  0  0  0  0  0  0  0  0
   18.0933  -29.2375  -15.3903 O   0  0  0  0  0  0  0  0  0  0  0  0
   22.5359  -26.0957  -17.2782 O   0  0  0  0  0  0  0  0  0  0  0  0
  2  1  1  6
  2  4  1  0
  2  3  1  0
  4  6  1  0
  4  5  1  1
  6  7  2  0
  9  8  1  1
 10  9  1  0
 11  9  1  0
 12 11  1  6
 13  6  1  0
 13 12  1  0
 14 12  1  0
 14 15  2  0
 16 14  1  0
 17 18  1  1
 17 16  1  0
 19 18  1  0
 19 20  1  0
 20 21  2  0
 22 17  1  0
 23 22  1  0
 24 20  1  0
 25 22  2  0
M  END
$$$$
