VLE.pdb
     RDKit          3D

 25 24  0  0  1  0  0  0  0  0999 V2000
   29.0340  -20.1587  -13.4677 C   0  0  0  0  0  0  0  0  0  0  0  0
   28.2053  -19.7757  -14.7083 C   0  0  2  0  0  0  0  0  0  0  0  0
   29.0728  -18.8244  -15.4984 C   0  0  0  0  0  0  0  0  0  0  0  0
   26.9597  -19.1130  -14.1411 C   0  0  2  0  0  0  0  0  0  0  0  0
   27.3875  -17.9792  -13.3005 N   0  0  0  0  0  0  0  0  0  0  0  0
   26.1747  -20.0022  -13.2538 C   0  0  0  0  0  0  0  0  0  0  0  0
   25.6595  -21.0902  -13.7020 O   0  0  0  0  0  0  0  0  0  0  0  0
   26.7071  -19.8930   -7.6218 C   0  0  0  0  0  0  0  0  0  0  0  0
   26.5440  -20.2844   -9.0637 C   0  0  1  0  0  0  0  0  0  0  0  0
   26.9433  -21.7708   -9.1240 C   0  0  0  0  0  0  0  0  0  0  0  0
   25.1645  -20.2081   -9.6062 C   0  0  0  0  0  0  0  0  0  0  0  0
   24.9926  -20.4528  -11.0628 C   0  0  2  0  0  0  0  0  0  0  0  0
   25.9447  -19.7186  -11.8751 N   0  0  0  0  0  0  0  0  0  0  0  0
   23.5866  -20.2594  -11.4653 C   0  0  0  0  0  0  0  0  0  0  0  0
   23.0483  -19.1017  -11.4029 O   0  0  0  0  0  0  0  0  0  0  0  0
   22.7476  -21.2965  -11.9400 N   0  0  0  0  0  0  0  0  0  0  0  0
   21.4240  -21.0587  -12.4795 C   0  0  1  0  0  0  0  0  0  0  0  0
   21.0804  -22.1188  -13.5292 C   0  0  0  0  0  0  0  0  0  0  0  0
   19.6916  -21.9323  -14.0615 C   0  0  0  0  0  0  0  0  0  0  0  0
   19.4886  -22.9313  -15.1420 C   0  0  0  0  0  0  0  0  0  0  0  0
   18.7094  -22.6685  -16.1079 O   0  0  0  0  0  0  0  0  0  0  0  0
   20.4423  -21.2348  -11.3988 C   0  0  0  0  0  0  0  0  0  0  0  0
   19.1547  -20.7642  -11.5639 O   0  0  0  0  0  0  0  0  0  0  0  0
   20.1137  -24.1664  -15.1621 O   0  0  0  0  0  0  0  0  0  0  0  0
   20.7223  -21.8063  -10.3018 O   0  0  0  0  0  0  0  0  0  0  0  0
  2  1  1  1
  2  4  1  0
  2  3  1  0
  4  6  1  0
  4  5  1  1
  6  7  2  0
  9  8  1  1
 10  9  1  0
 11  9  1  0
 12 11  1  1
 13  6  1  0
 13 12  1  0
 14 12  1  0
 14 15  2  0
 16 14  1  0
 17 18  1  6
 17 16  1  0
 19 18  1  0
 19 20  1  0
 20 21  2  0
 22 17  1  0
 23 22  1  0
 24 20  1  0
 25 22  2  0
M  END
$$$$
