VLE.pdb
     RDKit          3D

 25 24  0  0  1  0  0  0  0  0999 V2000
   18.5989  -12.0456  -16.8986 C   0  0  0  0  0  0  0  0  0  0  0  0
   17.4453  -11.1568  -17.4004 C   0  0  2  0  0  0  0  0  0  0  0  0
   16.8010  -11.9263  -18.5291 C   0  0  0  0  0  0  0  0  0  0  0  0
   18.1270   -9.8791  -17.8647 C   0  0  2  0  0  0  0  0  0  0  0  0
   19.0651  -10.2290  -18.9476 N   0  0  0  0  0  0  0  0  0  0  0  0
   18.9453   -9.2348  -16.8114 C   0  0  0  0  0  0  0  0  0  0  0  0
   18.3901   -8.6790  -15.7951 O   0  0  0  0  0  0  0  0  0  0  0  0
   23.7874  -11.3469  -14.8565 C   0  0  0  0  0  0  0  0  0  0  0  0
   22.4512  -10.6894  -15.0597 C   0  0  1  0  0  0  0  0  0  0  0  0
   21.8470  -10.5632  -13.6485 C   0  0  0  0  0  0  0  0  0  0  0  0
   22.4812   -9.3142  -15.6173 C   0  0  0  0  0  0  0  0  0  0  0  0
   21.1765   -8.6216  -15.7884 C   0  0  2  0  0  0  0  0  0  0  0  0
   20.3702   -9.1906  -16.8522 N   0  0  0  0  0  0  0  0  0  0  0  0
   21.3667   -7.1626  -15.8954 C   0  0  0  0  0  0  0  0  0  0  0  0
   21.8760   -6.6513  -16.9504 O   0  0  0  0  0  0  0  0  0  0  0  0
   21.0122   -6.2401  -14.8814 N   0  0  0  0  0  0  0  0  0  0  0  0
   21.2288   -4.8123  -15.0002 C   0  0  1  0  0  0  0  0  0  0  0  0
   19.9394   -4.0514  -14.6804 C   0  0  0  0  0  0  0  0  0  0  0  0
   18.9359   -4.1859  -15.7857 C   0  0  0  0  0  0  0  0  0  0  0  0
   17.6546   -3.6131  -15.2990 C   0  0  0  0  0  0  0  0  0  0  0  0
   16.6079   -4.3295  -15.2817 O   0  0  0  0  0  0  0  0  0  0  0  0
   22.1989   -4.4018  -13.9740 C   0  0  0  0  0  0  0  0  0  0  0  0
   22.7300   -3.1277  -14.0086 O   0  0  0  0  0  0  0  0  0  0  0  0
   17.5269   -2.3097  -14.8502 O   0  0  0  0  0  0  0  0  0  0  0  0
   22.5814   -5.1721  -13.0419 O   0  0  0  0  0  0  0  0  0  0  0  0
  2  1  1  6
  2  4  1  0
  2  3  1  0
  4  6  1  0
  4  5  1  6
  6  7  2  0
  9  8  1  1
 10  9  1  0
 11  9  1  0
 12 11  1  6
 13  6  1  0
 13 12  1  0
 14 12  1  0
 14 15  2  0
 16 14  1  0
 17 18  1  1
 17 16  1  0
 19 18  1  0
 19 20  1  0
 20 21  2  0
 22 17  1  0
 23 22  1  0
 24 20  1  0
 25 22  2  0
M  END
$$$$
