GML.pdb
     RDKit          3D

 21 20  0  0  1  0  0  0  0  0999 V2000
    6.6753  -19.9611   22.8123 N   0  0  0  0  0  0  0  0  0  0  0  0
    6.3163  -18.9375   23.7394 C   0  0  0  0  0  0  0  0  0  0  0  0
    7.1031  -17.6914   23.4448 C   0  0  0  0  0  0  0  0  0  0  0  0
    8.0873  -17.8693   22.6939 O   0  0  0  0  0  0  0  0  0  0  0  0
    5.4754  -11.9848   26.5223 C   0  0  0  0  0  0  0  0  0  0  0  0
    6.4177  -11.4073   25.0603 S   0  0  0  0  0  0  0  0  0  0  0  0
    7.3982  -12.8211   24.4403 C   0  0  0  0  0  0  0  0  0  0  0  0
    6.6055  -14.0994   24.5326 C   0  0  0  0  0  0  0  0  0  0  0  0
    7.4329  -15.2796   24.0588 C   0  0  2  0  0  0  0  0  0  0  0  0
    6.6960  -16.4820   24.0055 N   0  0  0  0  0  0  0  0  0  0  0  0
    8.7603  -15.3699   24.6755 C   0  0  0  0  0  0  0  0  0  0  0  0
    9.6705  -14.6102   24.2756 O   0  0  0  0  0  0  0  0  0  0  0  0
   10.3377  -15.0823   30.2869 C   0  0  0  0  0  0  0  0  0  0  0  0
   10.8701  -15.4527   28.9000 C   0  0  2  0  0  0  0  0  0  0  0  0
   11.7549  -14.3320   28.4341 C   0  0  0  0  0  0  0  0  0  0  0  0
    9.7148  -15.7015   27.9726 C   0  0  0  0  0  0  0  0  0  0  0  0
   10.1955  -16.1260   26.6253 C   0  0  2  0  0  0  0  0  0  0  0  0
    9.0420  -16.2899   25.7087 N   0  0  0  0  0  0  0  0  0  0  0  0
   10.9982  -17.3451   26.6157 C   0  0  0  0  0  0  0  0  0  0  0  0
   12.2293  -17.3798   26.6776 O   0  0  0  0  0  0  0  0  0  0  0  0
   10.3489  -18.5878   26.5304 O   0  0  0  0  0  0  0  0  0  0  0  0
  2  1  1  0
  2  3  1  0
  3  4  2  0
  5  6  1  0
  7  6  1  0
  8  7  1  0
  9  8  1  1
 10  3  1  0
 10  9  1  0
 11  9  1  0
 12 11  2  0
 14 13  1  1
 14 15  1  0
 17 16  1  1
 16 14  1  0
 17 18  1  0
 18 11  1  0
 19 17  1  0
 20 19  2  0
 21 19  1  0
M  END
$$$$
