GML.pdb
     RDKit          3D

 21 20  0  0  1  0  0  0  0  0999 V2000
    6.1634  -20.0578   23.7942 N   0  0  0  0  0  0  0  0  0  0  0  0
    6.0838  -18.9281   24.6624 C   0  0  0  0  0  0  0  0  0  0  0  0
    6.9485  -17.8205   24.1296 C   0  0  0  0  0  0  0  0  0  0  0  0
    7.7496  -18.1763   23.2375 O   0  0  0  0  0  0  0  0  0  0  0  0
    7.0221  -11.0902   25.2975 C   0  0  0  0  0  0  0  0  0  0  0  0
    5.9989  -12.1863   26.3513 S   0  0  0  0  0  0  0  0  0  0  0  0
    6.5046  -13.9105   26.0110 C   0  0  0  0  0  0  0  0  0  0  0  0
    6.8165  -14.0944   24.5482 C   0  0  0  0  0  0  0  0  0  0  0  0
    7.5648  -15.3941   24.3181 C   0  0  2  0  0  0  0  0  0  0  0  0
    6.8006  -16.5344   24.6461 N   0  0  0  0  0  0  0  0  0  0  0  0
    8.9467  -15.3876   24.8088 C   0  0  0  0  0  0  0  0  0  0  0  0
    9.8048  -14.7077   24.2031 O   0  0  0  0  0  0  0  0  0  0  0  0
   10.7406  -13.5627   27.6419 C   0  0  0  0  0  0  0  0  0  0  0  0
   10.0896  -14.7457   28.3637 C   0  0  2  0  0  0  0  0  0  0  0  0
   10.2153  -14.5067   29.8412 C   0  0  0  0  0  0  0  0  0  0  0  0
   10.7503  -16.0217   27.9258 C   0  0  0  0  0  0  0  0  0  0  0  0
   10.7361  -16.1454   26.4388 C   0  0  2  0  0  0  0  0  0  0  0  0
    9.3381  -16.1269   25.9462 N   0  0  0  0  0  0  0  0  0  0  0  0
   11.4183  -17.3244   25.9143 C   0  0  0  0  0  0  0  0  0  0  0  0
   12.6337  -17.5235   25.9790 O   0  0  0  0  0  0  0  0  0  0  0  0
   10.6614  -18.3251   25.2829 O   0  0  0  0  0  0  0  0  0  0  0  0
  2  1  1  0
  2  3  1  0
  3  4  2  0
  5  6  1  0
  7  6  1  0
  8  7  1  0
  9  8  1  1
 10  3  1  0
 10  9  1  0
 11  9  1  0
 12 11  2  0
 14 13  1  6
 14 15  1  0
 17 16  1  1
 16 14  1  0
 17 18  1  0
 18 11  1  0
 19 17  1  0
 20 19  2  0
 21 19  1  0
M  END
$$$$
