GML.pdb
     RDKit          3D

 21 20  0  0  1  0  0  0  0  0999 V2000
   10.1927  -17.2654   19.8591 N   0  0  0  0  0  0  0  0  0  0  0  0
    9.1115  -17.2922   20.7901 C   0  0  0  0  0  0  0  0  0  0  0  0
    9.4339  -16.4102   21.9633 C   0  0  0  0  0  0  0  0  0  0  0  0
   10.6562  -16.2077   22.1349 O   0  0  0  0  0  0  0  0  0  0  0  0
    6.4486  -11.3102   27.1495 C   0  0  0  0  0  0  0  0  0  0  0  0
    6.0032  -12.5253   25.8519 S   0  0  0  0  0  0  0  0  0  0  0  0
    7.5013  -13.5028   25.4716 C   0  0  0  0  0  0  0  0  0  0  0  0
    7.2422  -14.4503   24.3287 C   0  0  0  0  0  0  0  0  0  0  0  0
    8.5056  -15.2058   23.9608 C   0  0  2  0  0  0  0  0  0  0  0  0
    8.3928  -15.9046   22.7399 N   0  0  0  0  0  0  0  0  0  0  0  0
    9.1055  -15.9517   25.0716 C   0  0  0  0  0  0  0  0  0  0  0  0
    8.6158  -17.0557   25.3986 O   0  0  0  0  0  0  0  0  0  0  0  0
   10.7958  -14.0264   29.8112 C   0  0  0  0  0  0  0  0  0  0  0  0
   10.6954  -14.3691   28.3223 C   0  0  2  0  0  0  0  0  0  0  0  0
    9.5229  -13.6195   27.7573 C   0  0  0  0  0  0  0  0  0  0  0  0
   10.5632  -15.8567   28.1610 C   0  0  0  0  0  0  0  0  0  0  0  0
   10.9488  -16.2792   26.7828 C   0  0  2  0  0  0  0  0  0  0  0  0
   10.2211  -15.4605   25.7840 N   0  0  0  0  0  0  0  0  0  0  0  0
   10.7395  -17.6945   26.4933 C   0  0  0  0  0  0  0  0  0  0  0  0
   11.6393  -18.5220   26.3310 O   0  0  0  0  0  0  0  0  0  0  0  0
    9.4262  -18.1809   26.3853 O   0  0  0  0  0  0  0  0  0  0  0  0
  2  1  1  0
  2  3  1  0
  3  4  2  0
  5  6  1  0
  7  6  1  0
  8  7  1  0
  9  8  1  1
 10  3  1  0
 10  9  1  0
 11  9  1  0
 12 11  2  0
 14 13  1  1
 14 15  1  0
 17 16  1  1
 16 14  1  0
 17 18  1  0
 18 11  1  0
 19 17  1  0
 20 19  2  0
 21 19  1  0
M  END
$$$$
