GML.pdb
     RDKit          3D

 21 20  0  0  1  0  0  0  0  0999 V2000
   11.2119  -16.4772   20.0909 N   0  0  0  0  0  0  0  0  0  0  0  0
   10.1408  -17.0249   20.8584 C   0  0  0  0  0  0  0  0  0  0  0  0
   10.0650  -16.3281   22.1878 C   0  0  0  0  0  0  0  0  0  0  0  0
   11.1767  -16.0298   22.6770 O   0  0  0  0  0  0  0  0  0  0  0  0
    6.0045  -11.9114   26.3635 C   0  0  0  0  0  0  0  0  0  0  0  0
    7.3153  -12.8560   25.4984 S   0  0  0  0  0  0  0  0  0  0  0  0
    6.8953  -14.6312   25.6285 C   0  0  0  0  0  0  0  0  0  0  0  0
    7.0862  -15.3214   24.3025 C   0  0  0  0  0  0  0  0  0  0  0  0
    8.5515  -15.6381   24.0682 C   0  0  2  0  0  0  0  0  0  0  0  0
    8.8160  -16.0765   22.7531 N   0  0  0  0  0  0  0  0  0  0  0  0
    9.1773  -16.4183   25.1404 C   0  0  0  0  0  0  0  0  0  0  0  0
    9.2536  -17.6617   25.0239 O   0  0  0  0  0  0  0  0  0  0  0  0
   11.1884  -13.6405   27.6478 C   0  0  0  0  0  0  0  0  0  0  0  0
   10.1160  -14.4052   28.4285 C   0  0  2  0  0  0  0  0  0  0  0  0
    9.9255  -13.7106   29.7465 C   0  0  0  0  0  0  0  0  0  0  0  0
   10.5400  -15.8377   28.5853 C   0  0  0  0  0  0  0  0  0  0  0  0
   10.5553  -16.5359   27.2666 C   0  0  2  0  0  0  0  0  0  0  0  0
    9.6974  -15.8071   26.3021 N   0  0  0  0  0  0  0  0  0  0  0  0
   10.1520  -17.9380   27.3095 C   0  0  0  0  0  0  0  0  0  0  0  0
   10.7187  -18.8155   27.9651 O   0  0  0  0  0  0  0  0  0  0  0  0
    9.0388  -18.3501   26.5585 O   0  0  0  0  0  0  0  0  0  0  0  0
  2  1  1  0
  2  3  1  0
  3  4  2  0
  5  6  1  0
  7  6  1  0
  8  7  1  0
  9  8  1  1
 10  3  1  0
 10  9  1  0
 11  9  1  0
 12 11  2  0
 14 13  1  6
 14 15  1  0
 17 16  1  1
 16 14  1  0
 17 18  1  0
 18 11  1  0
 19 17  1  0
 20 19  2  0
 21 19  1  0
M  END
$$$$
