GML.pdb
     RDKit          3D

 21 20  0  0  1  0  0  0  0  0999 V2000
    9.2431  -16.9568   19.5585 N   0  0  0  0  0  0  0  0  0  0  0  0
    8.4248  -17.1673   20.7085 C   0  0  0  0  0  0  0  0  0  0  0  0
    8.9034  -16.2951   21.8347 C   0  0  0  0  0  0  0  0  0  0  0  0
   10.1352  -16.0784   21.8307 O   0  0  0  0  0  0  0  0  0  0  0  0
    6.6468  -10.7471   25.9624 C   0  0  0  0  0  0  0  0  0  0  0  0
    6.1257  -12.4766   26.2723 S   0  0  0  0  0  0  0  0  0  0  0  0
    7.4876  -13.5703   25.7304 C   0  0  0  0  0  0  0  0  0  0  0  0
    7.0977  -14.3299   24.4887 C   0  0  0  0  0  0  0  0  0  0  0  0
    8.2609  -15.1610   23.9804 C   0  0  2  0  0  0  0  0  0  0  0  0
    7.9799  -15.8126   22.7605 N   0  0  0  0  0  0  0  0  0  0  0  0
    8.9091  -15.9810   25.0088 C   0  0  0  0  0  0  0  0  0  0  0  0
    8.2825  -16.9440   25.5043 O   0  0  0  0  0  0  0  0  0  0  0  0
   10.6701  -14.5641   29.9544 C   0  0  0  0  0  0  0  0  0  0  0  0
   10.6767  -14.5131   28.4242 C   0  0  2  0  0  0  0  0  0  0  0  0
    9.9851  -13.2476   28.0046 C   0  0  0  0  0  0  0  0  0  0  0  0
   10.0092  -15.7445   27.8814 C   0  0  0  0  0  0  0  0  0  0  0  0
   10.7623  -16.2874   26.7133 C   0  0  2  0  0  0  0  0  0  0  0  0
   10.2215  -15.7158   25.4569 N   0  0  0  0  0  0  0  0  0  0  0  0
   10.7771  -17.7437   26.6153 C   0  0  0  0  0  0  0  0  0  0  0  0
    9.8162  -18.4770   26.8593 O   0  0  0  0  0  0  0  0  0  0  0  0
   11.9597  -18.3877   26.2157 O   0  0  0  0  0  0  0  0  0  0  0  0
  2  1  1  0
  2  3  1  0
  3  4  2  0
  5  6  1  0
  7  6  1  0
  8  7  1  0
  9  8  1  1
 10  3  1  0
 10  9  1  0
 11  9  1  0
 12 11  2  0
 14 13  1  1
 14 15  1  0
 17 16  1  1
 16 14  1  0
 17 18  1  0
 18 11  1  0
 19 17  1  0
 20 19  2  0
 21 19  1  0
M  END
$$$$
