GML.pdb
     RDKit          3D

 21 20  0  0  1  0  0  0  0  0999 V2000
    5.8263  -18.7012   22.5541 N   0  0  0  0  0  0  0  0  0  0  0  0
    5.7667  -18.1259   23.8587 C   0  0  0  0  0  0  0  0  0  0  0  0
    6.7108  -16.9595   23.9393 C   0  0  0  0  0  0  0  0  0  0  0  0
    7.6069  -16.9610   23.0667 O   0  0  0  0  0  0  0  0  0  0  0  0
    4.5155  -10.6699   24.8459 C   0  0  0  0  0  0  0  0  0  0  0  0
    5.9128  -11.4384   25.7490 S   0  0  0  0  0  0  0  0  0  0  0  0
    5.9093  -13.2247   25.3570 C   0  0  0  0  0  0  0  0  0  0  0  0
    6.8997  -13.9609   26.2220 C   0  0  0  0  0  0  0  0  0  0  0  0
    7.5013  -15.1336   25.4703 C   0  0  2  0  0  0  0  0  0  0  0  0
    6.5265  -16.0034   24.9366 N   0  0  0  0  0  0  0  0  0  0  0  0
    8.6244  -15.7773   26.1591 C   0  0  0  0  0  0  0  0  0  0  0  0
    8.5358  -16.0065   27.3859 O   0  0  0  0  0  0  0  0  0  0  0  0
   11.0288  -13.9274   28.2181 C   0  0  0  0  0  0  0  0  0  0  0  0
   10.5877  -15.3901   28.3186 C   0  0  2  0  0  0  0  0  0  0  0  0
   10.7888  -15.8331   29.7396 C   0  0  0  0  0  0  0  0  0  0  0  0
   11.3719  -16.2157   27.3388 C   0  0  0  0  0  0  0  0  0  0  0  0
   11.1513  -15.7371   25.9427 C   0  0  2  0  0  0  0  0  0  0  0  0
    9.8047  -16.1468   25.4778 N   0  0  0  0  0  0  0  0  0  0  0  0
   12.1521  -16.1795   24.9767 C   0  0  0  0  0  0  0  0  0  0  0  0
   11.9136  -16.8554   23.9731 O   0  0  0  0  0  0  0  0  0  0  0  0
   13.4963  -15.8250   25.1773 O   0  0  0  0  0  0  0  0  0  0  0  0
  2  1  1  0
  2  3  1  0
  3  4  2  0
  5  6  1  0
  7  6  1  0
  8  7  1  0
  9  8  1  1
 10  3  1  0
 10  9  1  0
 11  9  1  0
 12 11  2  0
 14 13  1  1
 14 15  1  0
 17 16  1  1
 16 14  1  0
 17 18  1  0
 18 11  1  0
 19 17  1  0
 20 19  2  0
 21 19  1  0
M  END
$$$$
