GML.pdb
     RDKit          3D

 21 20  0  0  1  0  0  0  0  0999 V2000
    7.3657  -15.7361   18.4854 N   0  0  0  0  0  0  0  0  0  0  0  0
    8.1625  -15.0204   19.4284 C   0  0  0  0  0  0  0  0  0  0  0  0
    7.9563  -15.5945   20.8018 C   0  0  0  0  0  0  0  0  0  0  0  0
    6.7683  -15.8824   21.0666 O   0  0  0  0  0  0  0  0  0  0  0  0
   12.4317  -19.3416   24.3486 C   0  0  0  0  0  0  0  0  0  0  0  0
   10.6714  -19.8500   24.3912 S   0  0  0  0  0  0  0  0  0  0  0  0
    9.6549  -18.3325   24.2989 C   0  0  0  0  0  0  0  0  0  0  0  0
    9.8738  -17.6247   22.9866 C   0  0  0  0  0  0  0  0  0  0  0  0
    9.0644  -16.3427   22.9266 C   0  0  2  0  0  0  0  0  0  0  0  0
    9.0560  -15.7571   21.6426 N   0  0  0  0  0  0  0  0  0  0  0  0
    9.3051  -15.4264   24.0458 C   0  0  0  0  0  0  0  0  0  0  0  0
   10.4026  -14.8301   24.1195 O   0  0  0  0  0  0  0  0  0  0  0  0
    7.7007  -11.7472   25.2348 C   0  0  0  0  0  0  0  0  0  0  0  0
    6.7301  -12.8719   25.6055 C   0  0  2  0  0  0  0  0  0  0  0  0
    5.4309  -12.2398   26.0159 C   0  0  0  0  0  0  0  0  0  0  0  0
    7.3338  -13.7126   26.6942 C   0  0  0  0  0  0  0  0  0  0  0  0
    8.6007  -14.3518   26.2327 C   0  0  2  0  0  0  0  0  0  0  0  0
    8.3336  -15.1966   25.0443 N   0  0  0  0  0  0  0  0  0  0  0  0
    9.2924  -15.1447   27.2444 C   0  0  0  0  0  0  0  0  0  0  0  0
    9.7867  -14.6918   28.2794 O   0  0  0  0  0  0  0  0  0  0  0  0
    9.4209  -16.5304   27.0536 O   0  0  0  0  0  0  0  0  0  0  0  0
  2  1  1  0
  2  3  1  0
  3  4  2  0
  5  6  1  0
  7  6  1  0
  8  7  1  0
  9  8  1  6
 10  3  1  0
 10  9  1  0
 11  9  1  0
 12 11  2  0
 14 13  1  1
 14 15  1  0
 17 16  1  1
 16 14  1  0
 17 18  1  0
 18 11  1  0
 19 17  1  0
 20 19  2  0
 21 19  1  0
M  END
$$$$
