SDR.pdb
     RDKit          3D

 26 25  0  0  1  0  0  0  0  0999 V2000
    8.7745  -14.8614   16.9499 O   0  0  0  0  0  0  0  0  0  0  0  0
    7.5478  -14.6926   17.5655 C   0  0  0  0  0  0  0  0  0  0  0  0
    7.6633  -13.6671   18.6837 C   0  0  2  0  0  0  0  0  0  0  0  0
    7.9897  -12.3972   18.0887 N   0  0  0  0  0  0  0  0  0  0  0  0
    8.6864  -14.0879   19.6624 C   0  0  0  0  0  0  0  0  0  0  0  0
    9.8392  -13.5783   19.7048 O   0  0  0  0  0  0  0  0  0  0  0  0
    8.4415  -15.1156   20.6444 N   0  0  0  0  0  0  0  0  0  0  0  0
    9.4269  -15.4326   21.6568 C   0  0  1  0  0  0  0  0  0  0  0  0
    8.8286  -16.5183   22.5288 C   0  0  0  0  0  0  0  0  0  0  0  0
    9.7046  -16.8679   23.6593 C   0  0  0  0  0  0  0  0  0  0  0  0
    9.3648  -17.7948   24.4534 O   0  0  0  0  0  0  0  0  0  0  0  0
   10.7099  -15.8785   21.0505 C   0  0  0  0  0  0  0  0  0  0  0  0
   10.8001  -16.8314   20.2615 O   0  0  0  0  0  0  0  0  0  0  0  0
   10.9167  -16.2450   23.9397 O   0  0  0  0  0  0  0  0  0  0  0  0
   16.8606  -12.3891   16.3240 N   0  0  0  0  0  0  0  0  0  0  0  0
   17.4609  -13.6382   16.6549 C   0  0  0  0  0  0  0  0  0  0  0  0
   18.5095  -14.0618   16.0488 N   0  0  0  0  0  0  0  0  0  0  0  0
   16.8407  -14.4107   17.6969 N   0  0  0  0  0  0  0  0  0  0  0  0
   15.6181  -13.9691   18.2883 C   0  0  0  0  0  0  0  0  0  0  0  0
   15.1204  -14.7754   19.4427 C   0  0  0  0  0  0  0  0  0  0  0  0
   13.7786  -14.4238   19.9899 C   0  0  0  0  0  0  0  0  0  0  0  0
   13.2043  -15.4752   20.8359 C   0  0  2  0  0  0  0  0  0  0  0  0
   11.8966  -15.1922   21.3800 N   0  0  0  0  0  0  0  0  0  0  0  0
   14.0657  -16.0593   21.8550 C   0  0  0  0  0  0  0  0  0  0  0  0
   15.2235  -16.7752   21.4942 O   0  0  0  0  0  0  0  0  0  0  0  0
   13.8347  -15.9608   23.0856 O   0  0  0  0  0  0  0  0  0  0  0  0
  1  2  1  0
  3  2  1  0
  3  4  1  6
  5  6  2  0
  5  3  1  0
  7  5  1  0
  8  7  1  0
  9 10  1  0
  8  9  1  1
 10 14  1  0
 10 11  2  0
 12 23  1  0
 12  8  1  0
 13 12  2  0
 16 15  1  0
 17 16  2  0
 18 16  1  0
 19 18  1  0
 20 19  1  0
 21 20  1  0
 22 21  1  1
 22 23  1  0
 24 22  1  0
 25 24  1  0
 26 24  2  0
M  END
$$$$
