SDR.pdb
     RDKit          3D

 26 25  0  0  1  0  0  0  0  0999 V2000
    9.7786  -19.4555   18.5388 O   0  0  0  0  0  0  0  0  0  0  0  0
    8.4638  -19.7518   18.8483 C   0  0  0  0  0  0  0  0  0  0  0  0
    7.6263  -18.4815   18.8321 C   0  0  2  0  0  0  0  0  0  0  0  0
    7.6360  -17.9611   17.4897 N   0  0  0  0  0  0  0  0  0  0  0  0
    8.1615  -17.5015   19.7990 C   0  0  0  0  0  0  0  0  0  0  0  0
    8.6075  -16.3744   19.4507 O   0  0  0  0  0  0  0  0  0  0  0  0
    8.2137  -17.7622   21.2167 N   0  0  0  0  0  0  0  0  0  0  0  0
    8.7023  -16.7628   22.1433 C   0  0  1  0  0  0  0  0  0  0  0  0
    8.4389  -17.2907   23.5394 C   0  0  0  0  0  0  0  0  0  0  0  0
    7.0047  -17.5128   23.7874 C   0  0  0  0  0  0  0  0  0  0  0  0
    6.5973  -18.6636   24.1263 O   0  0  0  0  0  0  0  0  0  0  0  0
   10.1498  -16.4882   21.9385 C   0  0  0  0  0  0  0  0  0  0  0  0
   10.6112  -15.9799   20.9054 O   0  0  0  0  0  0  0  0  0  0  0  0
    6.0243  -16.5318   23.6775 O   0  0  0  0  0  0  0  0  0  0  0  0
   15.9312  -13.4634   19.4769 N   0  0  0  0  0  0  0  0  0  0  0  0
   15.4506  -14.3725   18.4907 C   0  0  0  0  0  0  0  0  0  0  0  0
   16.1472  -14.6717   17.4555 N   0  0  0  0  0  0  0  0  0  0  0  0
   14.1468  -14.9414   18.6999 N   0  0  0  0  0  0  0  0  0  0  0  0
   13.4220  -14.6565   19.8971 C   0  0  0  0  0  0  0  0  0  0  0  0
   13.7305  -15.5257   21.0717 C   0  0  0  0  0  0  0  0  0  0  0  0
   12.9056  -15.3296   22.2984 C   0  0  0  0  0  0  0  0  0  0  0  0
   12.4853  -16.5890   22.9214 C   0  0  2  0  0  0  0  0  0  0  0  0
   11.0598  -16.8177   22.9638 N   0  0  0  0  0  0  0  0  0  0  0  0
   13.0972  -16.9425   24.1951 C   0  0  0  0  0  0  0  0  0  0  0  0
   14.4723  -17.2350   24.2760 O   0  0  0  0  0  0  0  0  0  0  0  0
   12.4521  -17.0045   25.2710 O   0  0  0  0  0  0  0  0  0  0  0  0
  1  2  1  0
  3  2  1  0
  3  4  1  6
  5  6  2  0
  5  3  1  0
  7  5  1  0
  8  7  1  0
  9 10  1  0
  8  9  1  1
 10 14  1  0
 10 11  2  0
 12 23  1  0
 12  8  1  0
 13 12  2  0
 16 15  1  0
 17 16  2  0
 18 16  1  0
 19 18  1  0
 20 19  1  0
 21 20  1  0
 22 21  1  1
 22 23  1  0
 24 22  1  0
 25 24  1  0
 26 24  2  0
M  END
$$$$
