SDR.pdb
     RDKit          3D

 26 25  0  0  1  0  0  0  0  0999 V2000
    7.9128  -14.9593   22.2750 O   0  0  0  0  0  0  0  0  0  0  0  0
    7.9896  -14.9368   20.8945 C   0  0  0  0  0  0  0  0  0  0  0  0
    7.9397  -16.3557   20.3472 C   0  0  2  0  0  0  0  0  0  0  0  0
    6.7056  -16.9559   20.7831 N   0  0  0  0  0  0  0  0  0  0  0  0
    9.1120  -17.1259   20.8100 C   0  0  0  0  0  0  0  0  0  0  0  0
    9.0225  -18.0682   21.6433 O   0  0  0  0  0  0  0  0  0  0  0  0
   10.4492  -16.8561   20.3415 N   0  0  0  0  0  0  0  0  0  0  0  0
   11.5976  -17.4951   20.9491 C   0  0  1  0  0  0  0  0  0  0  0  0
   12.7780  -17.2427   20.0326 C   0  0  0  0  0  0  0  0  0  0  0  0
   13.9302  -18.0976   20.3633 C   0  0  0  0  0  0  0  0  0  0  0  0
   13.8210  -18.9743   21.2713 O   0  0  0  0  0  0  0  0  0  0  0  0
   11.8577  -16.9676   22.3154 C   0  0  0  0  0  0  0  0  0  0  0  0
   11.4714  -15.8553   22.7054 O   0  0  0  0  0  0  0  0  0  0  0  0
   15.1725  -18.0219   19.7415 O   0  0  0  0  0  0  0  0  0  0  0  0
    8.4454  -14.3762   27.7629 N   0  0  0  0  0  0  0  0  0  0  0  0
    9.4732  -14.6128   28.7210 C   0  0  0  0  0  0  0  0  0  0  0  0
    9.3090  -14.3411   29.9642 N   0  0  0  0  0  0  0  0  0  0  0  0
   10.7085  -15.1671   28.2372 N   0  0  0  0  0  0  0  0  0  0  0  0
   10.9439  -15.2818   26.8333 C   0  0  0  0  0  0  0  0  0  0  0  0
   12.2338  -15.9209   26.4357 C   0  0  0  0  0  0  0  0  0  0  0  0
   12.5185  -16.0278   24.9759 C   0  0  0  0  0  0  0  0  0  0  0  0
   12.9536  -17.3674   24.5670 C   0  0  2  0  0  0  0  0  0  0  0  0
   12.5808  -17.7621   23.2286 N   0  0  0  0  0  0  0  0  0  0  0  0
   12.7261  -18.4598   25.5034 C   0  0  0  0  0  0  0  0  0  0  0  0
   12.2423  -19.7036   25.0538 O   0  0  0  0  0  0  0  0  0  0  0  0
   12.9436  -18.3614   26.7364 O   0  0  0  0  0  0  0  0  0  0  0  0
  1  2  1  0
  3  2  1  0
  3  4  1  1
  5  6  2  0
  5  3  1  0
  7  5  1  0
  8  7  1  0
  9 10  1  0
  8  9  1  6
 10 14  1  0
 10 11  2  0
 12 23  1  0
 12  8  1  0
 13 12  2  0
 16 15  1  0
 17 16  2  0
 18 16  1  0
 19 18  1  0
 20 19  1  0
 21 20  1  0
 22 21  1  1
 22 23  1  0
 24 22  1  0
 25 24  1  0
 26 24  2  0
M  END
$$$$
