SDR.pdb
     RDKit          3D

 26 25  0  0  1  0  0  0  0  0999 V2000
    7.9481  -12.9796   20.3603 O   0  0  0  0  0  0  0  0  0  0  0  0
    8.3902  -12.3394   19.2172 C   0  0  0  0  0  0  0  0  0  0  0  0
    8.7519  -13.3651   18.1530 C   0  0  2  0  0  0  0  0  0  0  0  0
    7.5358  -14.0035   17.7209 N   0  0  0  0  0  0  0  0  0  0  0  0
    9.7182  -14.3441   18.6912 C   0  0  0  0  0  0  0  0  0  0  0  0
    9.3880  -15.5143   19.0256 O   0  0  0  0  0  0  0  0  0  0  0  0
   11.1146  -14.0327   18.8743 N   0  0  0  0  0  0  0  0  0  0  0  0
   12.0332  -15.0093   19.4210 C   0  0  1  0  0  0  0  0  0  0  0  0
   13.3835  -14.7485   18.7842 C   0  0  0  0  0  0  0  0  0  0  0  0
   14.4109  -15.6919   19.2555 C   0  0  0  0  0  0  0  0  0  0  0  0
   14.0697  -16.8479   19.6460 O   0  0  0  0  0  0  0  0  0  0  0  0
   12.1128  -14.9154   20.9035 C   0  0  0  0  0  0  0  0  0  0  0  0
   12.4962  -13.9012   21.5060 O   0  0  0  0  0  0  0  0  0  0  0  0
   15.7727  -15.4121   19.3105 O   0  0  0  0  0  0  0  0  0  0  0  0
    5.6789  -12.7918   25.3060 N   0  0  0  0  0  0  0  0  0  0  0  0
    6.7658  -12.8567   26.2251 C   0  0  0  0  0  0  0  0  0  0  0  0
    6.8089  -12.1121   27.2691 N   0  0  0  0  0  0  0  0  0  0  0  0
    7.8191  -13.7910   25.9335 N   0  0  0  0  0  0  0  0  0  0  0  0
    8.2373  -14.0046   24.5848 C   0  0  0  0  0  0  0  0  0  0  0  0
    9.2703  -15.0635   24.3795 C   0  0  0  0  0  0  0  0  0  0  0  0
    9.8273  -15.2132   23.0044 C   0  0  0  0  0  0  0  0  0  0  0  0
   11.0831  -15.9698   22.9671 C   0  0  2  0  0  0  0  0  0  0  0  0
   11.7361  -16.0301   21.6802 N   0  0  0  0  0  0  0  0  0  0  0  0
   11.0956  -17.2778   23.6078 C   0  0  0  0  0  0  0  0  0  0  0  0
   11.0890  -17.3914   25.0114 O   0  0  0  0  0  0  0  0  0  0  0  0
   11.1110  -18.3558   22.9635 O   0  0  0  0  0  0  0  0  0  0  0  0
  1  2  1  0
  3  2  1  0
  3  4  1  1
  5  6  2  0
  5  3  1  0
  7  5  1  0
  8  7  1  0
  9 10  1  0
  8  9  1  6
 10 14  1  0
 10 11  2  0
 12 23  1  0
 12  8  1  0
 13 12  2  0
 16 15  1  0
 17 16  2  0
 18 16  1  0
 19 18  1  0
 20 19  1  0
 21 20  1  0
 22 21  1  6
 22 23  1  0
 24 22  1  0
 25 24  1  0
 26 24  2  0
M  END
$$$$
