SDR.pdb
     RDKit          3D

 26 25  0  0  1  0  0  0  0  0999 V2000
    7.9509  -20.1219   22.4115 O   0  0  0  0  0  0  0  0  0  0  0  0
    8.2781  -20.1742   21.0689 C   0  0  0  0  0  0  0  0  0  0  0  0
    8.9456  -21.5032   20.7473 C   0  0  2  0  0  0  0  0  0  0  0  0
    7.9809  -22.5490   20.9688 N   0  0  0  0  0  0  0  0  0  0  0  0
   10.1496  -21.6884   21.5827 C   0  0  0  0  0  0  0  0  0  0  0  0
   10.1306  -22.3178   22.6753 O   0  0  0  0  0  0  0  0  0  0  0  0
   11.4392  -21.1615   21.2090 N   0  0  0  0  0  0  0  0  0  0  0  0
   12.6094  -21.3976   22.0283 C   0  0  1  0  0  0  0  0  0  0  0  0
   13.8170  -21.0438   21.1835 C   0  0  0  0  0  0  0  0  0  0  0  0
   14.1301  -22.0908   20.1968 C   0  0  0  0  0  0  0  0  0  0  0  0
   14.2895  -21.7783   18.9794 O   0  0  0  0  0  0  0  0  0  0  0  0
   12.5744  -20.5907   23.2774 C   0  0  0  0  0  0  0  0  0  0  0  0
   12.2387  -19.3971   23.3128 O   0  0  0  0  0  0  0  0  0  0  0  0
   14.2708  -23.4417   20.4983 O   0  0  0  0  0  0  0  0  0  0  0  0
   11.3262  -22.9003   31.7266 N   0  0  0  0  0  0  0  0  0  0  0  0
   12.4104  -21.9863   31.8648 C   0  0  0  0  0  0  0  0  0  0  0  0
   12.9182  -21.7139   33.0112 N   0  0  0  0  0  0  0  0  0  0  0  0
   12.9131  -21.3755   30.6643 N   0  0  0  0  0  0  0  0  0  0  0  0
   12.3207  -21.6792   29.4008 C   0  0  0  0  0  0  0  0  0  0  0  0
   12.9108  -20.9856   28.2172 C   0  0  0  0  0  0  0  0  0  0  0  0
   12.3374  -21.3141   26.8804 C   0  0  0  0  0  0  0  0  0  0  0  0
   12.9458  -20.5511   25.7856 C   0  0  2  0  0  0  0  0  0  0  0  0
   12.9395  -21.2001   24.4953 N   0  0  0  0  0  0  0  0  0  0  0  0
   14.2397  -19.9323   26.0395 C   0  0  0  0  0  0  0  0  0  0  0  0
   15.4296  -20.6748   25.9126 O   0  0  0  0  0  0  0  0  0  0  0  0
   14.3692  -18.7294   26.3767 O   0  0  0  0  0  0  0  0  0  0  0  0
  1  2  1  0
  3  2  1  0
  3  4  1  1
  5  6  2  0
  5  3  1  0
  7  5  1  0
  8  7  1  0
  9 10  1  0
  8  9  1  6
 10 14  1  0
 10 11  2  0
 12 23  1  0
 12  8  1  0
 13 12  2  0
 16 15  1  0
 17 16  2  0
 18 16  1  0
 19 18  1  0
 20 19  1  0
 21 20  1  0
 22 21  1  1
 22 23  1  0
 24 22  1  0
 25 24  1  0
 26 24  2  0
M  END
$$$$
