SDR.pdb
     RDKit          3D

 26 25  0  0  1  0  0  0  0  0999 V2000
    4.6797  -20.5001   20.3822 O   0  0  0  0  0  0  0  0  0  0  0  0
    5.7018  -20.2074   19.4980 C   0  0  0  0  0  0  0  0  0  0  0  0
    6.6416  -21.3979   19.3763 C   0  0  2  0  0  0  0  0  0  0  0  0
    5.8588  -22.5432   18.9903 N   0  0  0  0  0  0  0  0  0  0  0  0
    7.3475  -21.6274   20.6533 C   0  0  0  0  0  0  0  0  0  0  0  0
    7.0669  -22.5848   21.4246 O   0  0  0  0  0  0  0  0  0  0  0  0
    8.4127  -20.7706   21.1135 N   0  0  0  0  0  0  0  0  0  0  0  0
    9.1049  -21.0398   22.3564 C   0  0  1  0  0  0  0  0  0  0  0  0
   10.5544  -20.6501   22.1464 C   0  0  0  0  0  0  0  0  0  0  0  0
   11.4127  -21.0829   23.2616 C   0  0  0  0  0  0  0  0  0  0  0  0
   10.9145  -21.7564   24.2122 O   0  0  0  0  0  0  0  0  0  0  0  0
    8.5062  -20.2857   23.4903 C   0  0  0  0  0  0  0  0  0  0  0  0
    8.1816  -19.0905   23.4228 O   0  0  0  0  0  0  0  0  0  0  0  0
   12.7721  -20.8055   23.3642 O   0  0  0  0  0  0  0  0  0  0  0  0
    4.1424  -24.8004   29.2596 N   0  0  0  0  0  0  0  0  0  0  0  0
    3.5405  -24.5788   27.9873 C   0  0  0  0  0  0  0  0  0  0  0  0
    2.5218  -25.2550   27.5984 N   0  0  0  0  0  0  0  0  0  0  0  0
    4.1245  -23.5657   27.1508 N   0  0  0  0  0  0  0  0  0  0  0  0
    5.3859  -22.9901   27.4930 C   0  0  0  0  0  0  0  0  0  0  0  0
    5.9077  -21.9516   26.5552 C   0  0  0  0  0  0  0  0  0  0  0  0
    7.2137  -21.3190   26.8990 C   0  0  0  0  0  0  0  0  0  0  0  0
    7.6802  -20.3660   25.8865 C   0  0  2  0  0  0  0  0  0  0  0  0
    8.2895  -20.9505   24.7147 N   0  0  0  0  0  0  0  0  0  0  0  0
    8.4566  -19.2240   26.3498 C   0  0  0  0  0  0  0  0  0  0  0  0
    7.9291  -18.3364   27.3074 O   0  0  0  0  0  0  0  0  0  0  0  0
    9.6144  -18.9694   25.9350 O   0  0  0  0  0  0  0  0  0  0  0  0
  1  2  1  0
  3  2  1  0
  3  4  1  1
  5  6  2  0
  5  3  1  0
  7  5  1  0
  8  7  1  0
  9 10  1  0
  8  9  1  6
 10 14  1  0
 10 11  2  0
 12 23  1  0
 12  8  1  0
 13 12  2  0
 16 15  1  0
 17 16  2  0
 18 16  1  0
 19 18  1  0
 20 19  1  0
 21 20  1  0
 22 21  1  1
 22 23  1  0
 24 22  1  0
 25 24  1  0
 26 24  2  0
M  END
$$$$
