SDR.pdb
     RDKit          3D

 26 25  0  0  1  0  0  0  0  0999 V2000
   10.0097  -17.0512   15.4201 O   0  0  0  0  0  0  0  0  0  0  0  0
    9.1448  -17.1316   16.4961 C   0  0  0  0  0  0  0  0  0  0  0  0
    9.4524  -16.0256   17.4948 C   0  0  2  0  0  0  0  0  0  0  0  0
    9.6417  -14.8029   16.7582 N   0  0  0  0  0  0  0  0  0  0  0  0
   10.6475  -16.3709   18.2913 C   0  0  0  0  0  0  0  0  0  0  0  0
   10.7387  -17.4394   18.9549 O   0  0  0  0  0  0  0  0  0  0  0  0
   11.8014  -15.5089   18.3687 N   0  0  0  0  0  0  0  0  0  0  0  0
   12.9262  -15.8396   19.2183 C   0  0  1  0  0  0  0  0  0  0  0  0
   14.0919  -14.9882   18.7566 C   0  0  0  0  0  0  0  0  0  0  0  0
   15.3344  -15.3103   19.4778 C   0  0  0  0  0  0  0  0  0  0  0  0
   15.4610  -16.4406   20.0361 O   0  0  0  0  0  0  0  0  0  0  0  0
   12.6187  -15.5946   20.6529 C   0  0  0  0  0  0  0  0  0  0  0  0
   13.0495  -14.6209   21.2892 O   0  0  0  0  0  0  0  0  0  0  0  0
   16.4197  -14.4489   19.6027 O   0  0  0  0  0  0  0  0  0  0  0  0
    6.9640  -14.2308   18.9359 N   0  0  0  0  0  0  0  0  0  0  0  0
    8.0192  -13.3069   19.1869 C   0  0  0  0  0  0  0  0  0  0  0  0
    8.1759  -12.2542   18.4702 N   0  0  0  0  0  0  0  0  0  0  0  0
    8.9080  -13.6036   20.2774 N   0  0  0  0  0  0  0  0  0  0  0  0
    8.5018  -14.5001   21.3122 C   0  0  0  0  0  0  0  0  0  0  0  0
    9.4671  -14.6820   22.4371 C   0  0  0  0  0  0  0  0  0  0  0  0
    9.8481  -16.0806   22.7871 C   0  0  0  0  0  0  0  0  0  0  0  0
   11.2892  -16.3320   22.6825 C   0  0  2  0  0  0  0  0  0  0  0  0
   11.7950  -16.5087   21.3412 N   0  0  0  0  0  0  0  0  0  0  0  0
   11.8619  -17.3267   23.5792 C   0  0  0  0  0  0  0  0  0  0  0  0
   11.7679  -17.1749   24.9761 O   0  0  0  0  0  0  0  0  0  0  0  0
   12.4574  -18.3545   23.1712 O   0  0  0  0  0  0  0  0  0  0  0  0
  1  2  1  0
  3  2  1  0
  3  4  1  6
  5  6  2  0
  5  3  1  0
  7  5  1  0
  8  7  1  0
  9 10  1  0
  8  9  1  6
 10 14  1  0
 10 11  2  0
 12 23  1  0
 12  8  1  0
 13 12  2  0
 16 15  1  0
 17 16  2  0
 18 16  1  0
 19 18  1  0
 20 19  1  0
 21 20  1  0
 22 21  1  6
 22 23  1  0
 24 22  1  0
 25 24  1  0
 26 24  2  0
M  END
$$$$
