SDR.pdb
     RDKit          3D

 26 25  0  0  1  0  0  0  0  0999 V2000
   15.2551  -21.0002   23.4531 O   0  0  0  0  0  0  0  0  0  0  0  0
   14.5868  -22.0374   22.8286 C   0  0  0  0  0  0  0  0  0  0  0  0
   13.1713  -21.6060   22.4744 C   0  0  2  0  0  0  0  0  0  0  0  0
   13.2608  -20.5300   21.5218 N   0  0  0  0  0  0  0  0  0  0  0  0
   12.4402  -21.1958   23.6906 C   0  0  0  0  0  0  0  0  0  0  0  0
   11.8586  -20.0816   23.7928 O   0  0  0  0  0  0  0  0  0  0  0  0
   12.3376  -22.0420   24.8542 N   0  0  0  0  0  0  0  0  0  0  0  0
   11.7127  -21.5677   26.0711 C   0  0  1  0  0  0  0  0  0  0  0  0
   10.4458  -22.3779   26.2601 C   0  0  0  0  0  0  0  0  0  0  0  0
    9.7311  -22.0108   27.4938 C   0  0  0  0  0  0  0  0  0  0  0  0
    9.7313  -20.8055   27.8843 O   0  0  0  0  0  0  0  0  0  0  0  0
   12.6188  -21.7089   27.2423 C   0  0  0  0  0  0  0  0  0  0  0  0
   13.3743  -22.6781   27.4109 O   0  0  0  0  0  0  0  0  0  0  0  0
    9.0307  -22.9064   28.2956 O   0  0  0  0  0  0  0  0  0  0  0  0
   16.5515  -23.3587   32.2748 N   0  0  0  0  0  0  0  0  0  0  0  0
   16.0157  -23.1321   33.5754 C   0  0  0  0  0  0  0  0  0  0  0  0
   16.7703  -23.0622   34.6107 N   0  0  0  0  0  0  0  0  0  0  0  0
   14.5892  -22.9880   33.6834 N   0  0  0  0  0  0  0  0  0  0  0  0
   13.7741  -23.0072   32.5108 C   0  0  0  0  0  0  0  0  0  0  0  0
   13.9773  -21.8789   31.5537 C   0  0  0  0  0  0  0  0  0  0  0  0
   13.0784  -21.8249   30.3650 C   0  0  0  0  0  0  0  0  0  0  0  0
   13.3977  -20.7269   29.4467 C   0  0  2  0  0  0  0  0  0  0  0  0
   12.6316  -20.6957   28.2227 N   0  0  0  0  0  0  0  0  0  0  0  0
   14.8054  -20.4700   29.1745 C   0  0  0  0  0  0  0  0  0  0  0  0
   15.5005  -21.2232   28.2087 O   0  0  0  0  0  0  0  0  0  0  0  0
   15.4670  -19.5828   29.7683 O   0  0  0  0  0  0  0  0  0  0  0  0
  1  2  1  0
  3  2  1  0
  3  4  1  6
  5  6  2  0
  5  3  1  0
  7  5  1  0
  8  7  1  0
  9 10  1  0
  8  9  1  1
 10 14  1  0
 10 11  2  0
 12 23  1  0
 12  8  1  0
 13 12  2  0
 16 15  1  0
 17 16  2  0
 18 16  1  0
 19 18  1  0
 20 19  1  0
 21 20  1  0
 22 21  1  6
 22 23  1  0
 24 22  1  0
 25 24  1  0
 26 24  2  0
M  END
$$$$
