PGH.pdb
     RDKit          3D

 22 23  0  0  1  0  0  0  0  0999 V2000
   25.0395  -34.0722   -8.7948 N   0  0  0  0  0  0  0  0  0  0  0  0
   25.2922  -32.8962   -9.5689 C   0  0  0  0  0  0  0  0  0  0  0  0
   25.6870  -31.7927   -8.6106 C   0  0  0  0  0  0  0  0  0  0  0  0
   24.9860  -32.2130   -7.3360 C   0  0  0  0  0  0  0  0  0  0  0  0
   25.1440  -33.7351   -7.4109 C   0  0  1  0  0  0  0  0  0  0  0  0
   24.1266  -34.4207   -6.5714 C   0  0  0  0  0  0  0  0  0  0  0  0
   23.0073  -34.6644   -7.0494 O   0  0  0  0  0  0  0  0  0  0  0  0
   24.4720  -34.7768   -5.2396 N   0  0  0  0  0  0  0  0  0  0  0  0
   23.5392  -35.4840   -4.4088 C   0  0  0  0  0  0  0  0  0  0  0  0
   23.0089  -34.6063   -3.3334 C   0  0  0  0  0  0  0  0  0  0  0  0
   23.4377  -33.4252   -3.2508 O   0  0  0  0  0  0  0  0  0  0  0  0
   22.0430  -35.0400   -2.3984 N   0  0  0  0  0  0  0  0  0  0  0  0
   21.5070  -34.1006   -1.3642 C   0  0  1  0  0  0  0  0  0  0  0  0
   20.0324  -34.2022   -1.3951 C   0  0  0  0  0  0  0  0  0  0  0  0
   19.3190  -33.3911   -2.3822 C   0  0  0  0  0  0  0  0  0  0  0  0
   19.7288  -32.4166   -3.2470 C   0  0  0  0  0  0  0  0  0  0  0  0
   18.6960  -31.9837   -4.0245 N   0  0  0  0  0  0  0  0  0  0  0  0
   17.6497  -32.7045   -3.6275 C   0  0  0  0  0  0  0  0  0  0  0  0
   17.9886  -33.5510   -2.6517 N   0  0  0  0  0  0  0  0  0  0  0  0
   22.1148  -34.5919   -0.1011 C   0  0  0  0  0  0  0  0  0  0  0  0
   21.8249  -34.0321    0.9983 O   0  0  0  0  0  0  0  0  0  0  0  0
   22.9948  -35.6380   -0.0338 O   0  0  0  0  0  0  0  0  0  0  0  0
  1  2  1  0
  1  5  1  0
  2  3  1  0
  3  4  1  0
  5  4  1  0
  5  6  1  1
  6  7  2  0
  8  9  1  0
  8  6  1  0
  9 10  1  0
 10 12  1  0
 10 11  2  0
 12 13  1  0
 13 14  1  1
 14 15  1  0
 15 16  2  0
 16 17  1  0
 18 17  1  0
 19 15  1  0
 19 18  2  0
 20 13  1  0
 20 22  1  0
 21 20  2  0
M  END
$$$$
