PGH.pdb
     RDKit          3D

 22 23  0  0  1  0  0  0  0  0999 V2000
   26.2027  -16.5840  -17.0686 N   0  0  0  0  0  0  0  0  0  0  0  0
   26.5400  -15.3117  -17.6286 C   0  0  0  0  0  0  0  0  0  0  0  0
   26.8755  -14.3809  -16.4827 C   0  0  0  0  0  0  0  0  0  0  0  0
   26.0645  -14.9695  -15.3475 C   0  0  0  0  0  0  0  0  0  0  0  0
   26.1996  -16.4663  -15.6452 C   0  0  1  0  0  0  0  0  0  0  0  0
   25.1041  -17.2404  -15.0044 C   0  0  0  0  0  0  0  0  0  0  0  0
   24.9204  -17.1364  -13.7813 O   0  0  0  0  0  0  0  0  0  0  0  0
   24.2977  -18.0799  -15.8198 N   0  0  0  0  0  0  0  0  0  0  0  0
   23.1436  -18.7359  -15.2737 C   0  0  0  0  0  0  0  0  0  0  0  0
   21.8949  -18.2317  -15.9020 C   0  0  0  0  0  0  0  0  0  0  0  0
   21.9772  -17.3083  -16.7540 O   0  0  0  0  0  0  0  0  0  0  0  0
   20.6176  -18.7443  -15.5842 N   0  0  0  0  0  0  0  0  0  0  0  0
   19.3971  -18.2417  -16.2894 C   0  0  1  0  0  0  0  0  0  0  0  0
   19.1227  -19.1638  -17.4120 C   0  0  0  0  0  0  0  0  0  0  0  0
   18.8070  -20.5543  -17.0834 C   0  0  0  0  0  0  0  0  0  0  0  0
   17.7186  -21.1425  -16.5048 C   0  0  0  0  0  0  0  0  0  0  0  0
   17.8598  -22.4977  -16.4573 N   0  0  0  0  0  0  0  0  0  0  0  0
   19.0458  -22.7330  -17.0142 C   0  0  0  0  0  0  0  0  0  0  0  0
   19.6336  -21.5966  -17.3971 N   0  0  0  0  0  0  0  0  0  0  0  0
   18.3541  -18.2584  -15.2320 C   0  0  0  0  0  0  0  0  0  0  0  0
   18.5519  -18.9057  -14.1606 O   0  0  0  0  0  0  0  0  0  0  0  0
   17.1549  -17.6062  -15.3322 O   0  0  0  0  0  0  0  0  0  0  0  0
  1  2  1  0
  1  5  1  0
  2  3  1  0
  3  4  1  0
  5  4  1  0
  5  6  1  1
  6  7  2  0
  8  9  1  0
  8  6  1  0
  9 10  1  0
 10 12  1  0
 10 11  2  0
 12 13  1  0
 13 14  1  6
 14 15  1  0
 15 16  2  0
 16 17  1  0
 18 17  1  0
 19 15  1  0
 19 18  2  0
 20 13  1  0
 20 22  1  0
 21 20  2  0
M  END
$$$$
