PGH.pdb
     RDKit          3D

 22 23  0  0  1  0  0  0  0  0999 V2000
   24.0862  -13.2947  -19.6942 N   0  0  0  0  0  0  0  0  0  0  0  0
   25.4394  -13.7095  -19.9014 C   0  0  0  0  0  0  0  0  0  0  0  0
   25.6178  -15.0492  -19.2192 C   0  0  0  0  0  0  0  0  0  0  0  0
   24.5807  -14.9853  -18.1178 C   0  0  0  0  0  0  0  0  0  0  0  0
   23.4495  -14.2391  -18.8327 C   0  0  1  0  0  0  0  0  0  0  0  0
   22.5289  -13.6002  -17.8558 C   0  0  0  0  0  0  0  0  0  0  0  0
   22.0094  -14.2928  -16.9664 O   0  0  0  0  0  0  0  0  0  0  0  0
   22.2725  -12.2073  -17.9738 N   0  0  0  0  0  0  0  0  0  0  0  0
   21.4132  -11.5422  -17.0358 C   0  0  0  0  0  0  0  0  0  0  0  0
   22.1861  -10.6209  -16.1629 C   0  0  0  0  0  0  0  0  0  0  0  0
   21.5626   -9.9138  -15.3283 O   0  0  0  0  0  0  0  0  0  0  0  0
   23.5923  -10.5040  -16.2290 N   0  0  0  0  0  0  0  0  0  0  0  0
   24.3103   -9.4694  -15.4207 C   0  0  1  0  0  0  0  0  0  0  0  0
   25.3860  -10.1573  -14.6755 C   0  0  0  0  0  0  0  0  0  0  0  0
   26.3581  -10.9296  -15.4499 C   0  0  0  0  0  0  0  0  0  0  0  0
   26.4985  -11.1608  -16.7886 C   0  0  0  0  0  0  0  0  0  0  0  0
   27.6094  -11.9086  -17.0442 N   0  0  0  0  0  0  0  0  0  0  0  0
   28.1484  -12.1318  -15.8477 C   0  0  0  0  0  0  0  0  0  0  0  0
   27.4270  -11.5619  -14.8790 N   0  0  0  0  0  0  0  0  0  0  0  0
   24.8069   -8.5135  -16.4433 C   0  0  0  0  0  0  0  0  0  0  0  0
   25.4228   -7.4664  -16.0823 O   0  0  0  0  0  0  0  0  0  0  0  0
   24.6426   -8.6842  -17.7914 O   0  0  0  0  0  0  0  0  0  0  0  0
  1  2  1  0
  1  5  1  0
  2  3  1  0
  3  4  1  0
  5  4  1  0
  5  6  1  1
  6  7  2  0
  8  9  1  0
  8  6  1  0
  9 10  1  0
 10 12  1  0
 10 11  2  0
 12 13  1  0
 13 14  1  6
 14 15  1  0
 15 16  2  0
 16 17  1  0
 18 17  1  0
 19 15  1  0
 19 18  2  0
 20 13  1  0
 20 22  1  0
 21 20  2  0
M  END
$$$$
