PGH.pdb
     RDKit          3D

 22 23  0  0  1  0  0  0  0  0999 V2000
   27.0473  -19.9991  -14.4894 N   0  0  0  0  0  0  0  0  0  0  0  0
   28.4734  -20.1077  -14.4728 C   0  0  0  0  0  0  0  0  0  0  0  0
   29.0345  -18.8835  -15.1647 C   0  0  0  0  0  0  0  0  0  0  0  0
   27.9113  -18.5096  -16.1088 C   0  0  0  0  0  0  0  0  0  0  0  0
   26.6895  -18.8420  -15.2461 C   0  0  1  0  0  0  0  0  0  0  0  0
   25.4820  -19.0529  -16.0872 C   0  0  0  0  0  0  0  0  0  0  0  0
   25.0232  -18.1035  -16.7419 O   0  0  0  0  0  0  0  0  0  0  0  0
   24.8890  -20.3442  -16.1137 N   0  0  0  0  0  0  0  0  0  0  0  0
   23.6953  -20.5828  -16.8745 C   0  0  0  0  0  0  0  0  0  0  0  0
   22.4955  -20.5911  -15.9978 C   0  0  0  0  0  0  0  0  0  0  0  0
   21.4373  -21.1219  -16.4266 O   0  0  0  0  0  0  0  0  0  0  0  0
   22.4907  -20.0283  -14.7022 N   0  0  0  0  0  0  0  0  0  0  0  0
   21.4291  -20.3977  -13.7143 C   0  0  1  0  0  0  0  0  0  0  0  0
   21.9638  -20.1192  -12.3644 C   0  0  0  0  0  0  0  0  0  0  0  0
   23.2480  -20.7231  -12.0077 C   0  0  0  0  0  0  0  0  0  0  0  0
   24.0767  -21.5872  -12.6649 C   0  0  0  0  0  0  0  0  0  0  0  0
   25.2093  -21.8256  -11.9442 N   0  0  0  0  0  0  0  0  0  0  0  0
   25.0656  -21.0972  -10.8394 C   0  0  0  0  0  0  0  0  0  0  0  0
   23.9090  -20.4297  -10.8478 N   0  0  0  0  0  0  0  0  0  0  0  0
   20.2842  -19.5316  -14.0954 C   0  0  0  0  0  0  0  0  0  0  0  0
   19.1459  -19.7241  -13.5729 O   0  0  0  0  0  0  0  0  0  0  0  0
   20.3694  -18.5078  -14.9999 O   0  0  0  0  0  0  0  0  0  0  0  0
  1  2  1  0
  1  5  1  0
  2  3  1  0
  3  4  1  0
  5  4  1  0
  5  6  1  6
  6  7  2  0
  8  9  1  0
  8  6  1  0
  9 10  1  0
 10 12  1  0
 10 11  2  0
 12 13  1  0
 13 14  1  1
 14 15  1  0
 15 16  2  0
 16 17  1  0
 18 17  1  0
 19 15  1  0
 19 18  2  0
 20 13  1  0
 20 22  1  0
 21 20  2  0
M  END
$$$$
