PGH.pdb
     RDKit          3D

 22 23  0  0  1  0  0  0  0  0999 V2000
   26.9019  -22.4067  -14.5466 N   0  0  0  0  0  0  0  0  0  0  0  0
   26.9785  -22.6541  -15.9533 C   0  0  0  0  0  0  0  0  0  0  0  0
   27.3095  -21.3420  -16.6322 C   0  0  0  0  0  0  0  0  0  0  0  0
   26.7369  -20.3296  -15.6627 C   0  0  0  0  0  0  0  0  0  0  0  0
   27.0535  -21.0042  -14.3240 C   0  0  1  0  0  0  0  0  0  0  0  0
   26.1690  -20.4921  -13.2444 C   0  0  0  0  0  0  0  0  0  0  0  0
   26.0418  -19.2669  -13.0919 O   0  0  0  0  0  0  0  0  0  0  0  0
   25.4936  -21.4296  -12.4169 N   0  0  0  0  0  0  0  0  0  0  0  0
   24.5705  -20.9831  -11.4124 C   0  0  0  0  0  0  0  0  0  0  0  0
   23.2016  -20.8363  -11.9717 C   0  0  0  0  0  0  0  0  0  0  0  0
   22.2957  -20.3634  -11.2361 O   0  0  0  0  0  0  0  0  0  0  0  0
   22.8722  -21.2050  -13.2949 N   0  0  0  0  0  0  0  0  0  0  0  0
   21.4974  -20.9630  -13.8342 C   0  0  1  0  0  0  0  0  0  0  0  0
   21.6342  -20.6519  -15.2730 C   0  0  0  0  0  0  0  0  0  0  0  0
   22.0151  -19.2866  -15.6366 C   0  0  0  0  0  0  0  0  0  0  0  0
   21.7023  -18.0679  -15.1055 C   0  0  0  0  0  0  0  0  0  0  0  0
   22.3532  -17.0648  -15.7605 N   0  0  0  0  0  0  0  0  0  0  0  0
   23.0689  -17.6827  -16.6975 C   0  0  0  0  0  0  0  0  0  0  0  0
   22.8891  -19.0051  -16.6490 N   0  0  0  0  0  0  0  0  0  0  0  0
   20.7886  -22.2396  -13.5622 C   0  0  0  0  0  0  0  0  0  0  0  0
   21.4119  -23.3393  -13.6528 O   0  0  0  0  0  0  0  0  0  0  0  0
   19.4682  -22.3198  -13.2106 O   0  0  0  0  0  0  0  0  0  0  0  0
  1  2  1  0
  1  5  1  0
  2  3  1  0
  3  4  1  0
  5  4  1  0
  5  6  1  1
  6  7  2  0
  8  9  1  0
  8  6  1  0
  9 10  1  0
 10 12  1  0
 10 11  2  0
 12 13  1  0
 13 14  1  6
 14 15  1  0
 15 16  2  0
 16 17  1  0
 18 17  1  0
 19 15  1  0
 19 18  2  0
 20 13  1  0
 20 22  1  0
 21 20  2  0
M  END
$$$$
