PGH.pdb
     RDKit          3D

 22 23  0  0  1  0  0  0  0  0999 V2000
   26.3651  -16.1776  -17.4272 N   0  0  0  0  0  0  0  0  0  0  0  0
   27.2219  -15.2750  -16.7222 C   0  0  0  0  0  0  0  0  0  0  0  0
   27.7277  -15.9922  -15.4886 C   0  0  0  0  0  0  0  0  0  0  0  0
   26.6154  -16.9835  -15.2192 C   0  0  0  0  0  0  0  0  0  0  0  0
   26.2207  -17.3666  -16.6492 C   0  0  1  0  0  0  0  0  0  0  0  0
   24.8421  -17.9214  -16.6934 C   0  0  0  0  0  0  0  0  0  0  0  0
   24.5598  -18.9059  -15.9922 O   0  0  0  0  0  0  0  0  0  0  0  0
   23.8866  -17.3014  -17.5433 N   0  0  0  0  0  0  0  0  0  0  0  0
   22.5603  -17.8373  -17.6622 C   0  0  0  0  0  0  0  0  0  0  0  0
   21.6915  -17.3648  -16.5531 C   0  0  0  0  0  0  0  0  0  0  0  0
   22.2252  -16.7777  -15.5754 O   0  0  0  0  0  0  0  0  0  0  0  0
   20.2906  -17.5459  -16.5482 N   0  0  0  0  0  0  0  0  0  0  0  0
   19.4427  -16.9068  -15.4938 C   0  0  1  0  0  0  0  0  0  0  0  0
   19.0029  -15.5946  -16.0139 C   0  0  0  0  0  0  0  0  0  0  0  0
   19.9509  -14.4829  -15.9336 C   0  0  0  0  0  0  0  0  0  0  0  0
   20.3830  -13.7107  -14.8932 C   0  0  0  0  0  0  0  0  0  0  0  0
   21.3312  -12.8207  -15.3026 N   0  0  0  0  0  0  0  0  0  0  0  0
   21.4760  -13.0572  -16.6046 C   0  0  0  0  0  0  0  0  0  0  0  0
   20.6685  -14.0408  -17.0096 N   0  0  0  0  0  0  0  0  0  0  0  0
   18.3347  -17.8777  -15.3042 C   0  0  0  0  0  0  0  0  0  0  0  0
   18.0348  -18.6829  -16.2357 O   0  0  0  0  0  0  0  0  0  0  0  0
   17.5879  -17.9700  -14.1609 O   0  0  0  0  0  0  0  0  0  0  0  0
  1  2  1  0
  1  5  1  0
  2  3  1  0
  3  4  1  0
  5  4  1  0
  5  6  1  1
  6  7  2  0
  8  9  1  0
  8  6  1  0
  9 10  1  0
 10 12  1  0
 10 11  2  0
 12 13  1  0
 13 14  1  6
 14 15  1  0
 15 16  2  0
 16 17  1  0
 18 17  1  0
 19 15  1  0
 19 18  2  0
 20 13  1  0
 20 22  1  0
 21 20  2  0
M  END
$$$$
