PGH.pdb
     RDKit          3D

 22 23  0  0  1  0  0  0  0  0999 V2000
   23.3390  -13.7115  -18.9546 N   0  0  0  0  0  0  0  0  0  0  0  0
   23.4982  -15.0462  -19.4439 C   0  0  0  0  0  0  0  0  0  0  0  0
   22.2942  -15.3656  -20.3044 C   0  0  0  0  0  0  0  0  0  0  0  0
   21.2301  -14.4691  -19.7071 C   0  0  0  0  0  0  0  0  0  0  0  0
   22.0602  -13.2271  -19.3666 C   0  0  1  0  0  0  0  0  0  0  0  0
   21.3909  -12.4056  -18.3239 C   0  0  0  0  0  0  0  0  0  0  0  0
   20.2639  -11.9370  -18.5492 O   0  0  0  0  0  0  0  0  0  0  0  0
   22.0690  -12.1825  -17.0950 N   0  0  0  0  0  0  0  0  0  0  0  0
   21.4255  -11.4735  -16.0255 C   0  0  0  0  0  0  0  0  0  0  0  0
   21.6091  -10.0061  -16.1704 C   0  0  0  0  0  0  0  0  0  0  0  0
   22.7645   -9.5249  -16.0319 O   0  0  0  0  0  0  0  0  0  0  0  0
   20.5421   -9.1261  -16.4573 N   0  0  0  0  0  0  0  0  0  0  0  0
   20.7939   -7.6668  -16.6729 C   0  0  1  0  0  0  0  0  0  0  0  0
   19.7016   -7.1496  -17.5245 C   0  0  0  0  0  0  0  0  0  0  0  0
   19.7024   -5.7187  -17.8307 C   0  0  0  0  0  0  0  0  0  0  0  0
   20.6121   -4.7258  -17.6030 C   0  0  0  0  0  0  0  0  0  0  0  0
   20.1887   -3.5415  -18.1291 N   0  0  0  0  0  0  0  0  0  0  0  0
   19.0106   -3.8202  -18.6825 C   0  0  0  0  0  0  0  0  0  0  0  0
   18.6939   -5.1076  -18.5217 N   0  0  0  0  0  0  0  0  0  0  0  0
   20.7960   -7.1082  -15.2966 C   0  0  0  0  0  0  0  0  0  0  0  0
   20.0851   -7.6465  -14.3960 O   0  0  0  0  0  0  0  0  0  0  0  0
   21.5318   -6.0187  -14.9160 O   0  0  0  0  0  0  0  0  0  0  0  0
  1  2  1  0
  1  5  1  0
  2  3  1  0
  3  4  1  0
  5  4  1  0
  5  6  1  1
  6  7  2  0
  8  9  1  0
  8  6  1  0
  9 10  1  0
 10 12  1  0
 10 11  2  0
 12 13  1  0
 13 14  1  6
 14 15  1  0
 15 16  2  0
 16 17  1  0
 18 17  1  0
 19 15  1  0
 19 18  2  0
 20 13  1  0
 20 22  1  0
 21 20  2  0
M  END
$$$$
