PGH.pdb
     RDKit          3D

 22 23  0  0  1  0  0  0  0  0999 V2000
   25.1416  -21.5546  -19.5050 N   0  0  0  0  0  0  0  0  0  0  0  0
   23.8317  -21.9823  -19.8886 C   0  0  0  0  0  0  0  0  0  0  0  0
   22.8944  -20.8071  -19.7079 C   0  0  0  0  0  0  0  0  0  0  0  0
   23.5821  -20.0178  -18.6140 C   0  0  0  0  0  0  0  0  0  0  0  0
   25.0522  -20.2245  -18.9927 C   0  0  1  0  0  0  0  0  0  0  0  0
   25.9430  -19.9947  -17.8249 C   0  0  0  0  0  0  0  0  0  0  0  0
   25.9413  -18.8858  -17.2672 O   0  0  0  0  0  0  0  0  0  0  0  0
   26.7730  -21.0603  -17.3827 N   0  0  0  0  0  0  0  0  0  0  0  0
   27.6088  -20.9018  -16.2265 C   0  0  0  0  0  0  0  0  0  0  0  0
   26.8819  -21.2771  -14.9860 C   0  0  0  0  0  0  0  0  0  0  0  0
   26.6138  -22.4911  -14.7863 O   0  0  0  0  0  0  0  0  0  0  0  0
   26.4779  -20.3294  -14.0196 N   0  0  0  0  0  0  0  0  0  0  0  0
   25.7837  -20.7654  -12.7676 C   0  0  1  0  0  0  0  0  0  0  0  0
   26.5202  -20.1816  -11.6263 C   0  0  0  0  0  0  0  0  0  0  0  0
   25.9288  -20.3246  -10.2955 C   0  0  0  0  0  0  0  0  0  0  0  0
   24.8519  -21.0262   -9.8337 C   0  0  0  0  0  0  0  0  0  0  0  0
   24.7225  -20.8948   -8.4829 N   0  0  0  0  0  0  0  0  0  0  0  0
   25.7325  -20.1062   -8.1224 C   0  0  0  0  0  0  0  0  0  0  0  0
   26.4684  -19.7505   -9.1785 N   0  0  0  0  0  0  0  0  0  0  0  0
   24.4079  -20.2296  -12.9295 C   0  0  0  0  0  0  0  0  0  0  0  0
   24.2069  -19.2186  -13.6667 O   0  0  0  0  0  0  0  0  0  0  0  0
   23.3042  -20.7634  -12.3208 O   0  0  0  0  0  0  0  0  0  0  0  0
  1  2  1  0
  1  5  1  0
  2  3  1  0
  3  4  1  0
  5  4  1  0
  5  6  1  1
  6  7  2  0
  8  9  1  0
  8  6  1  0
  9 10  1  0
 10 12  1  0
 10 11  2  0
 12 13  1  0
 13 14  1  1
 14 15  1  0
 15 16  2  0
 16 17  1  0
 18 17  1  0
 19 15  1  0
 19 18  2  0
 20 13  1  0
 20 22  1  0
 21 20  2  0
M  END
$$$$
