PGH.pdb
     RDKit          3D

 22 23  0  0  1  0  0  0  0  0999 V2000
   26.5496    1.3826   -7.6049 N   0  0  0  0  0  0  0  0  0  0  0  0
   26.1470    0.7823   -8.8392 C   0  0  0  0  0  0  0  0  0  0  0  0
   24.6856    1.1137   -9.0550 C   0  0  0  0  0  0  0  0  0  0  0  0
   24.1877    1.2925   -7.6362 C   0  0  0  0  0  0  0  0  0  0  0  0
   25.4014    1.9683   -6.9899 C   0  0  1  0  0  0  0  0  0  0  0  0
   25.3864    1.7960   -5.5133 C   0  0  0  0  0  0  0  0  0  0  0  0
   24.4917    2.3395   -4.8464 O   0  0  0  0  0  0  0  0  0  0  0  0
   26.4046    1.0090   -4.9103 N   0  0  0  0  0  0  0  0  0  0  0  0
   26.4894    0.8969   -3.4817 C   0  0  0  0  0  0  0  0  0  0  0  0
   27.7007    1.5834   -2.9625 C   0  0  0  0  0  0  0  0  0  0  0  0
   27.9382    1.5380   -1.7268 O   0  0  0  0  0  0  0  0  0  0  0  0
   28.5987    2.2857   -3.7966 N   0  0  0  0  0  0  0  0  0  0  0  0
   29.7749    3.0057   -3.2156 C   0  0  1  0  0  0  0  0  0  0  0  0
   30.9951    2.3643   -3.7497 C   0  0  0  0  0  0  0  0  0  0  0  0
   31.5083    1.1914   -3.0411 C   0  0  0  0  0  0  0  0  0  0  0  0
   31.0660    0.5081   -1.9444 C   0  0  0  0  0  0  0  0  0  0  0  0
   31.8570   -0.5720   -1.6866 N   0  0  0  0  0  0  0  0  0  0  0  0
   32.7877   -0.5433   -2.6379 C   0  0  0  0  0  0  0  0  0  0  0  0
   32.6069    0.4940   -3.4593 N   0  0  0  0  0  0  0  0  0  0  0  0
   29.5850    4.4060   -3.6732 C   0  0  0  0  0  0  0  0  0  0  0  0
   30.4387    5.2912   -3.3672 O   0  0  0  0  0  0  0  0  0  0  0  0
   28.5208    4.8259   -4.4246 O   0  0  0  0  0  0  0  0  0  0  0  0
  1  2  1  0
  1  5  1  0
  2  3  1  0
  3  4  1  0
  5  4  1  0
  5  6  1  1
  6  7  2  0
  8  9  1  0
  8  6  1  0
  9 10  1  0
 10 12  1  0
 10 11  2  0
 12 13  1  0
 13 14  1  6
 14 15  1  0
 15 16  2  0
 16 17  1  0
 18 17  1  0
 19 15  1  0
 19 18  2  0
 20 13  1  0
 20 22  1  0
 21 20  2  0
M  END
$$$$
