KMD.pdb
     RDKit          3D

 26 25  0  0  1  0  0  0  0  0999 V2000
   28.5188  -22.4513  -16.2327 N   0  0  0  0  0  0  0  0  0  0  0  0
   27.8865  -21.2837  -15.6752 C   0  0  1  0  0  0  0  0  0  0  0  0
   27.1860  -20.4538  -16.7271 C   0  0  0  0  0  0  0  0  0  0  0  0
   28.1449  -19.8799  -17.7328 C   0  0  0  0  0  0  0  0  0  0  0  0
   28.6861  -18.5352  -17.3082 C   0  0  0  0  0  0  0  0  0  0  0  0
   28.3842  -17.5406  -18.4144 C   0  0  0  0  0  0  0  0  0  0  0  0
   29.0013  -16.2752  -18.0714 N   0  0  0  0  0  0  0  0  0  0  0  0
   26.8529  -21.6841  -14.6754 C   0  0  0  0  0  0  0  0  0  0  0  0
   26.1553  -22.7370  -14.8395 O   0  0  0  0  0  0  0  0  0  0  0  0
   27.2086  -20.4423   -8.3157 C   0  0  0  0  0  0  0  0  0  0  0  0
   25.4309  -20.2904   -8.5432 S   0  0  0  0  0  0  0  0  0  0  0  0
   24.8894  -21.0093  -10.1296 C   0  0  0  0  0  0  0  0  0  0  0  0
   25.8910  -20.7436  -11.2116 C   0  0  0  0  0  0  0  0  0  0  0  0
   25.5825  -21.3412  -12.5418 C   0  0  2  0  0  0  0  0  0  0  0  0
   26.6007  -20.9293  -13.5180 N   0  0  0  0  0  0  0  0  0  0  0  0
   24.2522  -20.9153  -13.0230 C   0  0  0  0  0  0  0  0  0  0  0  0
   24.1127  -19.7207  -13.4755 O   0  0  0  0  0  0  0  0  0  0  0  0
   23.0844  -21.6939  -13.0511 N   0  0  0  0  0  0  0  0  0  0  0  0
   21.8202  -21.1541  -13.6130 C   0  0  1  0  0  0  0  0  0  0  0  0
   21.0908  -22.4002  -14.0916 C   0  0  0  0  0  0  0  0  0  0  0  0
   19.7837  -22.0722  -14.6589 C   0  0  0  0  0  0  0  0  0  0  0  0
   19.2851  -20.9344  -14.7219 O   0  0  0  0  0  0  0  0  0  0  0  0
   21.1105  -20.5177  -12.4805 C   0  0  0  0  0  0  0  0  0  0  0  0
   20.2496  -19.4238  -12.6464 O   0  0  0  0  0  0  0  0  0  0  0  0
   18.9837  -23.1102  -15.1938 O   0  0  0  0  0  0  0  0  0  0  0  0
   21.2393  -20.9242  -11.2854 O   0  0  0  0  0  0  0  0  0  0  0  0
  2  1  1  6
  2  3  1  0
  4  3  1  0
  5  4  1  0
  6  5  1  0
  7  6  1  0
  8  2  1  0
  9  8  2  0
 10 11  1  0
 11 12  1  0
 12 13  1  0
 14 13  1  1
 14 15  1  0
 15  8  1  0
 16 14  1  0
 16 17  2  0
 18 16  1  0
 19 20  1  1
 19 18  1  0
 20 21  1  0
 21 25  1  0
 21 22  2  0
 23 19  1  0
 24 23  1  0
 26 23  2  0
M  END
$$$$
