KMD.pdb
     RDKit          3D

 26 25  0  0  1  0  0  0  0  0999 V2000
   21.3439  -20.5377  -11.3531 N   0  0  0  0  0  0  0  0  0  0  0  0
   21.8609  -20.2258  -12.6606 C   0  0  1  0  0  0  0  0  0  0  0  0
   21.4199  -18.8617  -13.1409 C   0  0  0  0  0  0  0  0  0  0  0  0
   19.9523  -18.8177  -13.4642 C   0  0  0  0  0  0  0  0  0  0  0  0
   19.5157  -19.9883  -14.3129 C   0  0  0  0  0  0  0  0  0  0  0  0
   18.0287  -19.8418  -14.5799 C   0  0  0  0  0  0  0  0  0  0  0  0
   17.5759  -21.0164  -15.2976 N   0  0  0  0  0  0  0  0  0  0  0  0
   23.3533  -20.2190  -12.6374 C   0  0  0  0  0  0  0  0  0  0  0  0
   24.0224  -19.7741  -13.6257 O   0  0  0  0  0  0  0  0  0  0  0  0
   28.0412  -19.7349   -7.3621 C   0  0  0  0  0  0  0  0  0  0  0  0
   26.2591  -19.7976   -7.5974 S   0  0  0  0  0  0  0  0  0  0  0  0
   25.7991  -19.5383   -9.3432 C   0  0  0  0  0  0  0  0  0  0  0  0
   26.0749  -20.7630  -10.1609 C   0  0  0  0  0  0  0  0  0  0  0  0
   25.5546  -20.7409  -11.5575 C   0  0  2  0  0  0  0  0  0  0  0  0
   24.0859  -20.6971  -11.5384 N   0  0  0  0  0  0  0  0  0  0  0  0
   25.9921  -21.9350  -12.3093 C   0  0  0  0  0  0  0  0  0  0  0  0
   25.4756  -23.0739  -12.0141 O   0  0  0  0  0  0  0  0  0  0  0  0
   26.9339  -21.9694  -13.3499 N   0  0  0  0  0  0  0  0  0  0  0  0
   26.8987  -23.0419  -14.3764 C   0  0  1  0  0  0  0  0  0  0  0  0
   25.4661  -22.9916  -14.8849 C   0  0  0  0  0  0  0  0  0  0  0  0
   25.2357  -23.9787  -15.9388 C   0  0  0  0  0  0  0  0  0  0  0  0
   24.2749  -23.9855  -16.7288 O   0  0  0  0  0  0  0  0  0  0  0  0
   27.8568  -22.6309  -15.4273 C   0  0  0  0  0  0  0  0  0  0  0  0
   28.5321  -23.5542  -16.2379 O   0  0  0  0  0  0  0  0  0  0  0  0
   26.1624  -25.0350  -16.1091 O   0  0  0  0  0  0  0  0  0  0  0  0
   28.1273  -21.4131  -15.6591 O   0  0  0  0  0  0  0  0  0  0  0  0
  2  1  1  1
  2  3  1  0
  4  3  1  0
  5  4  1  0
  6  5  1  0
  7  6  1  0
  8  2  1  0
  9  8  2  0
 10 11  1  0
 11 12  1  0
 12 13  1  0
 14 13  1  1
 14 15  1  0
 15  8  1  0
 16 14  1  0
 16 17  2  0
 18 16  1  0
 19 20  1  6
 19 18  1  0
 20 21  1  0
 21 25  1  0
 21 22  2  0
 23 19  1  0
 24 23  1  0
 26 23  2  0
M  END
$$$$
