KMD.pdb
     RDKit          3D

 26 25  0  0  1  0  0  0  0  0999 V2000
   21.1595  -19.0350  -17.5172 N   0  0  0  0  0  0  0  0  0  0  0  0
   20.3399  -18.4470  -16.4893 C   0  0  1  0  0  0  0  0  0  0  0  0
   20.0308  -19.4215  -15.3753 C   0  0  0  0  0  0  0  0  0  0  0  0
   19.8066  -20.8180  -15.8848 C   0  0  0  0  0  0  0  0  0  0  0  0
   19.2378  -21.7317  -14.8252 C   0  0  0  0  0  0  0  0  0  0  0  0
   18.9637  -23.0786  -15.4690 C   0  0  0  0  0  0  0  0  0  0  0  0
   18.3420  -23.9383  -14.4819 N   0  0  0  0  0  0  0  0  0  0  0  0
   21.0429  -17.2849  -15.8703 C   0  0  0  0  0  0  0  0  0  0  0  0
   20.5144  -16.6337  -14.9118 O   0  0  0  0  0  0  0  0  0  0  0  0
   27.8395  -13.1025  -15.6632 C   0  0  0  0  0  0  0  0  0  0  0  0
   26.9064  -14.5645  -16.1394 S   0  0  0  0  0  0  0  0  0  0  0  0
   25.1599  -14.4471  -15.6273 C   0  0  0  0  0  0  0  0  0  0  0  0
   24.4015  -15.6808  -16.0111 C   0  0  0  0  0  0  0  0  0  0  0  0
   22.9308  -15.6386  -15.7722 C   0  0  2  0  0  0  0  0  0  0  0  0
   22.3068  -16.8562  -16.3084 N   0  0  0  0  0  0  0  0  0  0  0  0
   22.3187  -14.4586  -16.4169 C   0  0  0  0  0  0  0  0  0  0  0  0
   22.1135  -14.4849  -17.6851 O   0  0  0  0  0  0  0  0  0  0  0  0
   21.9146  -13.2740  -15.7811 N   0  0  0  0  0  0  0  0  0  0  0  0
   21.2449  -12.1891  -16.5424 C   0  0  1  0  0  0  0  0  0  0  0  0
   20.3656  -11.5203  -15.4968 C   0  0  0  0  0  0  0  0  0  0  0  0
   19.6822  -10.3477  -16.0408 C   0  0  0  0  0  0  0  0  0  0  0  0
   19.7642   -9.9391  -17.2129 O   0  0  0  0  0  0  0  0  0  0  0  0
   22.3246  -11.2834  -16.9954 C   0  0  0  0  0  0  0  0  0  0  0  0
   22.1564  -10.3739  -18.0489 O   0  0  0  0  0  0  0  0  0  0  0  0
   18.8447   -9.5827  -15.1941 O   0  0  0  0  0  0  0  0  0  0  0  0
   23.4734  -11.2755  -16.4565 O   0  0  0  0  0  0  0  0  0  0  0  0
  2  1  1  6
  2  3  1  0
  4  3  1  0
  5  4  1  0
  6  5  1  0
  7  6  1  0
  8  2  1  0
  9  8  2  0
 10 11  1  0
 11 12  1  0
 12 13  1  0
 14 13  1  6
 14 15  1  0
 15  8  1  0
 16 14  1  0
 16 17  2  0
 18 16  1  0
 19 20  1  1
 19 18  1  0
 20 21  1  0
 21 25  1  0
 21 22  2  0
 23 19  1  0
 24 23  1  0
 26 23  2  0
M  END
$$$$
