KMD.pdb
     RDKit          3D

 26 25  0  0  1  0  0  0  0  0999 V2000
   27.8440  -21.3657  -16.0204 N   0  0  0  0  0  0  0  0  0  0  0  0
   27.6596  -20.3937  -14.9738 C   0  0  1  0  0  0  0  0  0  0  0  0
   26.9306  -19.1609  -15.4585 C   0  0  0  0  0  0  0  0  0  0  0  0
   27.4545  -18.6708  -16.7796 C   0  0  0  0  0  0  0  0  0  0  0  0
   28.9077  -18.2656  -16.7067 C   0  0  0  0  0  0  0  0  0  0  0  0
   29.3344  -17.8086  -18.0898 C   0  0  0  0  0  0  0  0  0  0  0  0
   30.7688  -17.6030  -18.0803 N   0  0  0  0  0  0  0  0  0  0  0  0
   26.8451  -20.9755  -13.8666 C   0  0  0  0  0  0  0  0  0  0  0  0
   25.9790  -21.8809  -14.0957 O   0  0  0  0  0  0  0  0  0  0  0  0
   28.0499  -20.2159   -7.4118 C   0  0  0  0  0  0  0  0  0  0  0  0
   26.2563  -20.0907   -7.4588 S   0  0  0  0  0  0  0  0  0  0  0  0
   25.5739  -20.7531   -9.0151 C   0  0  0  0  0  0  0  0  0  0  0  0
   26.4456  -20.3974  -10.1805 C   0  0  0  0  0  0  0  0  0  0  0  0
   26.0182  -20.9425  -11.5003 C   0  0  2  0  0  0  0  0  0  0  0  0
   26.9907  -20.5590  -12.5331 N   0  0  0  0  0  0  0  0  0  0  0  0
   24.6842  -20.4346  -11.8812 C   0  0  0  0  0  0  0  0  0  0  0  0
   24.5853  -19.2342  -12.3288 O   0  0  0  0  0  0  0  0  0  0  0  0
   23.4714  -21.1385  -11.8154 N   0  0  0  0  0  0  0  0  0  0  0  0
   22.2245  -20.5659  -12.3835 C   0  0  1  0  0  0  0  0  0  0  0  0
   22.0368  -21.3494  -13.6737 C   0  0  0  0  0  0  0  0  0  0  0  0
   20.7501  -21.0504  -14.3008 C   0  0  0  0  0  0  0  0  0  0  0  0
   19.8779  -20.2922  -13.8409 O   0  0  0  0  0  0  0  0  0  0  0  0
   21.1544  -20.8729  -11.4079 C   0  0  0  0  0  0  0  0  0  0  0  0
   19.9099  -20.2276  -11.4227 O   0  0  0  0  0  0  0  0  0  0  0  0
   20.4293  -21.6554  -15.5395 O   0  0  0  0  0  0  0  0  0  0  0  0
   21.2988  -21.7415  -10.4943 O   0  0  0  0  0  0  0  0  0  0  0  0
  2  1  1  6
  2  3  1  0
  4  3  1  0
  5  4  1  0
  6  5  1  0
  7  6  1  0
  8  2  1  0
  9  8  2  0
 10 11  1  0
 11 12  1  0
 12 13  1  0
 14 13  1  1
 14 15  1  0
 15  8  1  0
 16 14  1  0
 16 17  2  0
 18 16  1  0
 19 20  1  6
 19 18  1  0
 20 21  1  0
 21 25  1  0
 21 22  2  0
 23 19  1  0
 24 23  1  0
 26 23  2  0
M  END
$$$$
