KMD.pdb
     RDKit          3D

 26 25  0  0  1  0  0  0  0  0999 V2000
   27.6492  -20.7875  -16.2726 N   0  0  0  0  0  0  0  0  0  0  0  0
   26.3872  -20.1479  -16.0039 C   0  0  1  0  0  0  0  0  0  0  0  0
   25.4577  -20.1909  -17.1956 C   0  0  0  0  0  0  0  0  0  0  0  0
   26.0799  -19.5921  -18.4263 C   0  0  0  0  0  0  0  0  0  0  0  0
   25.4899  -18.2452  -18.7710 C   0  0  0  0  0  0  0  0  0  0  0  0
   26.1450  -17.7633  -20.0527 C   0  0  0  0  0  0  0  0  0  0  0  0
   25.5742  -16.4780  -20.4018 N   0  0  0  0  0  0  0  0  0  0  0  0
   25.6880  -20.8376  -14.8798 C   0  0  0  0  0  0  0  0  0  0  0  0
   24.8967  -21.8113  -15.0989 O   0  0  0  0  0  0  0  0  0  0  0  0
   27.2558  -20.9725   -8.1983 C   0  0  0  0  0  0  0  0  0  0  0  0
   25.5471  -20.4488   -8.4005 S   0  0  0  0  0  0  0  0  0  0  0  0
   24.8222  -21.0920   -9.9456 C   0  0  0  0  0  0  0  0  0  0  0  0
   25.5561  -20.5708  -11.1432 C   0  0  0  0  0  0  0  0  0  0  0  0
   25.0272  -21.0049  -12.4675 C   0  0  2  0  0  0  0  0  0  0  0  0
   25.8650  -20.4522  -13.5408 N   0  0  0  0  0  0  0  0  0  0  0  0
   23.6343  -20.5519  -12.6607 C   0  0  0  0  0  0  0  0  0  0  0  0
   23.4173  -19.3086  -12.9023 O   0  0  0  0  0  0  0  0  0  0  0  0
   22.4813  -21.3515  -12.6169 N   0  0  0  0  0  0  0  0  0  0  0  0
   21.1312  -20.7539  -12.7764 C   0  0  1  0  0  0  0  0  0  0  0  0
   20.3867  -21.7896  -13.6050 C   0  0  0  0  0  0  0  0  0  0  0  0
   20.4238  -21.4644  -15.0301 C   0  0  0  0  0  0  0  0  0  0  0  0
   20.9400  -20.4485  -15.5290 O   0  0  0  0  0  0  0  0  0  0  0  0
   20.5676  -20.6516  -11.4115 C   0  0  0  0  0  0  0  0  0  0  0  0
   21.2094  -21.1877  -10.2862 O   0  0  0  0  0  0  0  0  0  0  0  0
   19.8326  -22.3560  -15.9569 O   0  0  0  0  0  0  0  0  0  0  0  0
   19.4642  -20.0712  -11.1754 O   0  0  0  0  0  0  0  0  0  0  0  0
  2  1  1  6
  2  3  1  0
  4  3  1  0
  5  4  1  0
  6  5  1  0
  7  6  1  0
  8  2  1  0
  9  8  2  0
 10 11  1  0
 11 12  1  0
 12 13  1  0
 14 13  1  1
 14 15  1  0
 15  8  1  0
 16 14  1  0
 16 17  2  0
 18 16  1  0
 19 20  1  6
 19 18  1  0
 20 21  1  0
 21 25  1  0
 21 22  2  0
 23 19  1  0
 24 23  1  0
 26 23  2  0
M  END
$$$$
