KMD.pdb
     RDKit          3D

 26 25  0  0  1  0  0  0  0  0999 V2000
   28.2276  -19.9309  -16.0496 N   0  0  0  0  0  0  0  0  0  0  0  0
   27.6870  -21.2336  -16.3408 C   0  0  1  0  0  0  0  0  0  0  0  0
   28.7579  -22.2995  -16.3947 C   0  0  0  0  0  0  0  0  0  0  0  0
   29.4549  -22.3411  -17.7261 C   0  0  0  0  0  0  0  0  0  0  0  0
   28.4836  -22.3725  -18.8823 C   0  0  0  0  0  0  0  0  0  0  0  0
   29.2883  -22.4836  -20.1645 C   0  0  0  0  0  0  0  0  0  0  0  0
   28.3712  -22.4291  -21.2851 N   0  0  0  0  0  0  0  0  0  0  0  0
   26.7196  -21.6400  -15.2792 C   0  0  0  0  0  0  0  0  0  0  0  0
   25.9483  -22.6403  -15.4433 O   0  0  0  0  0  0  0  0  0  0  0  0
   24.7607  -20.8554   -7.5984 C   0  0  0  0  0  0  0  0  0  0  0  0
   25.8177  -20.4543   -8.9973 S   0  0  0  0  0  0  0  0  0  0  0  0
   25.1679  -21.1462  -10.5547 C   0  0  0  0  0  0  0  0  0  0  0  0
   26.0815  -20.8419  -11.7024 C   0  0  0  0  0  0  0  0  0  0  0  0
   25.6457  -21.3555  -13.0321 C   0  0  2  0  0  0  0  0  0  0  0  0
   26.6122  -20.9485  -14.0614 N   0  0  0  0  0  0  0  0  0  0  0  0
   24.3098  -20.8378  -13.3928 C   0  0  0  0  0  0  0  0  0  0  0  0
   24.1908  -19.5951  -13.6971 O   0  0  0  0  0  0  0  0  0  0  0  0
   23.1156  -21.5735  -13.4509 N   0  0  0  0  0  0  0  0  0  0  0  0
   21.8442  -20.9334  -13.8742 C   0  0  1  0  0  0  0  0  0  0  0  0
   21.3761  -21.8132  -15.0233 C   0  0  0  0  0  0  0  0  0  0  0  0
   20.0797  -21.3765  -15.5398 C   0  0  0  0  0  0  0  0  0  0  0  0
   19.4459  -20.3768  -15.1575 O   0  0  0  0  0  0  0  0  0  0  0  0
   20.9314  -21.0347  -12.7133 C   0  0  0  0  0  0  0  0  0  0  0  0
   19.9972  -20.0385  -12.3968 O   0  0  0  0  0  0  0  0  0  0  0  0
   19.4567  -22.1282  -16.5646 O   0  0  0  0  0  0  0  0  0  0  0  0
   20.9391  -22.0329  -11.9300 O   0  0  0  0  0  0  0  0  0  0  0  0
  2  1  1  1
  2  3  1  0
  4  3  1  0
  5  4  1  0
  6  5  1  0
  7  6  1  0
  8  2  1  0
  9  8  2  0
 10 11  1  0
 11 12  1  0
 12 13  1  0
 14 13  1  1
 14 15  1  0
 15  8  1  0
 16 14  1  0
 16 17  2  0
 18 16  1  0
 19 20  1  6
 19 18  1  0
 20 21  1  0
 21 25  1  0
 21 22  2  0
 23 19  1  0
 24 23  1  0
 26 23  2  0
M  END
$$$$
