KMD.pdb
     RDKit          3D

 26 25  0  0  1  0  0  0  0  0999 V2000
   27.5652  -21.8951  -16.2534 N   0  0  0  0  0  0  0  0  0  0  0  0
   26.5317  -22.8976  -16.2250 C   0  0  1  0  0  0  0  0  0  0  0  0
   27.0946  -24.3006  -16.2026 C   0  0  0  0  0  0  0  0  0  0  0  0
   26.9080  -25.0112  -17.5143 C   0  0  0  0  0  0  0  0  0  0  0  0
   28.1489  -24.9653  -18.3741 C   0  0  0  0  0  0  0  0  0  0  0  0
   27.7898  -25.5187  -19.7411 C   0  0  0  0  0  0  0  0  0  0  0  0
   28.8743  -25.2190  -20.6542 N   0  0  0  0  0  0  0  0  0  0  0  0
   25.6960  -22.7428  -14.9979 C   0  0  0  0  0  0  0  0  0  0  0  0
   24.6075  -23.3896  -14.8601 O   0  0  0  0  0  0  0  0  0  0  0  0
   25.5331  -19.9534   -7.5315 C   0  0  0  0  0  0  0  0  0  0  0  0
   26.4227  -20.4010   -9.0292 S   0  0  0  0  0  0  0  0  0  0  0  0
   25.2868  -20.9070  -10.3635 C   0  0  0  0  0  0  0  0  0  0  0  0
   26.0408  -21.2548  -11.6104 C   0  0  0  0  0  0  0  0  0  0  0  0
   25.2143  -21.7252  -12.7582 C   0  0  2  0  0  0  0  0  0  0  0  0
   26.0633  -21.8867  -13.9467 N   0  0  0  0  0  0  0  0  0  0  0  0
   24.1319  -20.7676  -13.0647 C   0  0  0  0  0  0  0  0  0  0  0  0
   24.4456  -19.5990  -13.4972 O   0  0  0  0  0  0  0  0  0  0  0  0
   22.7525  -20.9972  -12.9410 N   0  0  0  0  0  0  0  0  0  0  0  0
   21.7723  -19.9091  -13.1873 C   0  0  1  0  0  0  0  0  0  0  0  0
   21.4608  -20.0488  -14.6696 C   0  0  0  0  0  0  0  0  0  0  0  0
   20.9662  -21.3869  -14.9903 C   0  0  0  0  0  0  0  0  0  0  0  0
   20.5744  -21.7668  -16.1081 O   0  0  0  0  0  0  0  0  0  0  0  0
   20.5898  -20.2310  -12.3571 C   0  0  0  0  0  0  0  0  0  0  0  0
   20.5224  -21.3741  -11.5482 O   0  0  0  0  0  0  0  0  0  0  0  0
   20.9121  -22.3655  -13.9691 O   0  0  0  0  0  0  0  0  0  0  0  0
   19.5603  -19.4898  -12.3273 O   0  0  0  0  0  0  0  0  0  0  0  0
  2  1  1  1
  2  3  1  0
  4  3  1  0
  5  4  1  0
  6  5  1  0
  7  6  1  0
  8  2  1  0
  9  8  2  0
 10 11  1  0
 11 12  1  0
 12 13  1  0
 14 13  1  1
 14 15  1  0
 15  8  1  0
 16 14  1  0
 16 17  2  0
 18 16  1  0
 19 20  1  6
 19 18  1  0
 20 21  1  0
 21 25  1  0
 21 22  2  0
 23 19  1  0
 24 23  1  0
 26 23  2  0
M  END
$$$$
