KMD.pdb
     RDKit          3D

 26 25  0  0  1  0  0  0  0  0999 V2000
   21.0612  -13.4065  -15.8801 N   0  0  0  0  0  0  0  0  0  0  0  0
   20.5384  -12.1856  -16.4370 C   0  0  1  0  0  0  0  0  0  0  0  0
   19.1856  -11.8277  -15.8644 C   0  0  0  0  0  0  0  0  0  0  0  0
   18.1473  -12.8750  -16.1565 C   0  0  0  0  0  0  0  0  0  0  0  0
   17.4469  -12.6379  -17.4735 C   0  0  0  0  0  0  0  0  0  0  0  0
   16.4448  -13.7596  -17.6773 C   0  0  0  0  0  0  0  0  0  0  0  0
   15.9244  -13.6672  -19.0266 N   0  0  0  0  0  0  0  0  0  0  0  0
   21.4551  -11.0468  -16.1358 C   0  0  0  0  0  0  0  0  0  0  0  0
   21.8468  -10.8175  -14.9458 O   0  0  0  0  0  0  0  0  0  0  0  0
   27.1133   -6.3875  -19.1120 C   0  0  0  0  0  0  0  0  0  0  0  0
   25.8628   -7.6660  -19.3024 S   0  0  0  0  0  0  0  0  0  0  0  0
   24.8498   -7.8492  -17.7969 C   0  0  0  0  0  0  0  0  0  0  0  0
   23.8165   -8.9203  -17.9694 C   0  0  0  0  0  0  0  0  0  0  0  0
   22.8707   -9.0983  -16.8312 C   0  0  2  0  0  0  0  0  0  0  0  0
   21.9258  -10.1814  -17.1370 N   0  0  0  0  0  0  0  0  0  0  0  0
   22.1135   -7.8575  -16.5670 C   0  0  0  0  0  0  0  0  0  0  0  0
   21.1978   -7.5046  -17.3964 O   0  0  0  0  0  0  0  0  0  0  0  0
   22.2794   -6.9936  -15.4729 N   0  0  0  0  0  0  0  0  0  0  0  0
   21.4104   -5.8015  -15.3027 C   0  0  1  0  0  0  0  0  0  0  0  0
   20.0344   -6.4040  -15.0632 C   0  0  0  0  0  0  0  0  0  0  0  0
   19.0637   -5.3846  -14.6675 C   0  0  0  0  0  0  0  0  0  0  0  0
   19.1372   -4.1714  -14.9322 O   0  0  0  0  0  0  0  0  0  0  0  0
   21.9088   -5.1035  -14.0963 C   0  0  0  0  0  0  0  0  0  0  0  0
   21.3764   -3.8843  -13.6541 O   0  0  0  0  0  0  0  0  0  0  0  0
   17.9268   -5.7690  -13.9170 O   0  0  0  0  0  0  0  0  0  0  0  0
   22.8528   -5.5670  -13.3864 O   0  0  0  0  0  0  0  0  0  0  0  0
  2  1  1  1
  2  3  1  0
  4  3  1  0
  5  4  1  0
  6  5  1  0
  7  6  1  0
  8  2  1  0
  9  8  2  0
 10 11  1  0
 11 12  1  0
 12 13  1  0
 14 13  1  6
 14 15  1  0
 15  8  1  0
 16 14  1  0
 16 17  2  0
 18 16  1  0
 19 20  1  1
 19 18  1  0
 20 21  1  0
 21 25  1  0
 21 22  2  0
 23 19  1  0
 24 23  1  0
 26 23  2  0
M  END
$$$$
