AFI.pdb
     RDKit          3D

 25 25  0  0  1  0  0  0  0  0999 V2000
   10.9173  -19.0636   21.2225 C   0  0  0  0  0  0  0  0  0  0  0  0
   10.2744  -17.8404   20.6025 C   0  0  2  0  0  0  0  0  0  0  0  0
   11.1110  -17.3970   19.5305 N   0  0  0  0  0  0  0  0  0  0  0  0
   10.0935  -16.7872   21.6486 C   0  0  0  0  0  0  0  0  0  0  0  0
   11.0754  -16.0457   21.9109 O   0  0  0  0  0  0  0  0  0  0  0  0
    8.8992  -16.5770   22.3522 N   0  0  0  0  0  0  0  0  0  0  0  0
    8.7189  -15.6091   23.4102 C   0  0  1  0  0  0  0  0  0  0  0  0
    7.2346  -15.3193   23.4936 C   0  0  0  0  0  0  0  0  0  0  0  0
    6.9085  -14.2709   24.4591 C   0  0  0  0  0  0  0  0  0  0  0  0
    7.3783  -12.9919   24.2486 C   0  0  0  0  0  0  0  0  0  0  0  0
    7.1075  -11.9531   25.1216 C   0  0  0  0  0  0  0  0  0  0  0  0
    6.3484  -12.1913   26.2353 C   0  0  0  0  0  0  0  0  0  0  0  0
    5.8701  -13.4603   26.4637 C   0  0  0  0  0  0  0  0  0  0  0  0
    6.1482  -14.4874   25.5841 C   0  0  0  0  0  0  0  0  0  0  0  0
    9.1087  -16.2339   24.6955 C   0  0  0  0  0  0  0  0  0  0  0  0
    8.9776  -17.4887   24.8038 O   0  0  0  0  0  0  0  0  0  0  0  0
   10.6191  -13.9977   29.6596 C   0  0  0  0  0  0  0  0  0  0  0  0
   10.4456  -14.1311   28.1463 C   0  0  0  0  0  0  0  0  0  0  0  0
   11.2049  -15.3133   27.6153 C   0  0  2  0  0  0  0  0  0  0  0  0
   12.4227  -14.8125   26.8915 C   0  0  0  0  0  0  0  0  0  0  0  0
   10.3099  -16.2114   26.8421 C   0  0  2  0  0  0  0  0  0  0  0  0
    9.6152  -15.4774   25.7867 N   0  0  0  0  0  0  0  0  0  0  0  0
    9.2511  -16.7694   27.7116 C   0  0  0  0  0  0  0  0  0  0  0  0
    9.5713  -17.6909   28.6937 O   0  0  0  0  0  0  0  0  0  0  0  0
    8.0551  -16.3936   27.5390 O   0  0  0  0  0  0  0  0  0  0  0  0
  2  1  1  1
  2  3  1  0
  4  2  1  0
  4  5  2  0
  6  4  1  0
  7  6  1  0
  7  8  1  1
  8  9  1  0
  9 10  2  0
  9 14  1  0
 10 11  1  0
 11 12  2  0
 13 12  1  0
 14 13  2  0
 15  7  1  0
 16 15  2  0
 18 17  1  0
 19 18  1  0
 19 20  1  6
 21 19  1  0
 21 22  1  6
 22 15  1  0
 23 24  1  0
 23 21  1  0
 25 23  2  0
M  END
$$$$
