AFI.pdb
     RDKit          3D

 25 25  0  0  1  0  0  0  0  0999 V2000
   11.2387  -18.7699   20.9174 C   0  0  0  0  0  0  0  0  0  0  0  0
   10.5930  -17.4970   20.4107 C   0  0  2  0  0  0  0  0  0  0  0  0
   11.4590  -16.9233   19.4276 N   0  0  0  0  0  0  0  0  0  0  0  0
   10.3506  -16.5692   21.5582 C   0  0  0  0  0  0  0  0  0  0  0  0
   11.2916  -15.8117   21.9094 O   0  0  0  0  0  0  0  0  0  0  0  0
    9.1415  -16.4930   22.2638 N   0  0  0  0  0  0  0  0  0  0  0  0
    8.8810  -15.5995   23.3694 C   0  0  1  0  0  0  0  0  0  0  0  0
    7.3841  -15.3716   23.4082 C   0  0  0  0  0  0  0  0  0  0  0  0
    6.9767  -14.4112   24.4325 C   0  0  0  0  0  0  0  0  0  0  0  0
    7.2941  -13.0792   24.2709 C   0  0  0  0  0  0  0  0  0  0  0  0
    6.9395  -12.1180   25.2008 C   0  0  0  0  0  0  0  0  0  0  0  0
    6.2500  -12.4900   26.3230 C   0  0  0  0  0  0  0  0  0  0  0  0
    5.9236  -13.8138   26.5032 C   0  0  0  0  0  0  0  0  0  0  0  0
    6.2839  -14.7623   25.5671 C   0  0  0  0  0  0  0  0  0  0  0  0
    9.2450  -16.2868   24.6301 C   0  0  0  0  0  0  0  0  0  0  0  0
    9.1837  -17.5515   24.6499 O   0  0  0  0  0  0  0  0  0  0  0  0
   10.4499  -13.7501   29.6544 C   0  0  0  0  0  0  0  0  0  0  0  0
    9.8236  -14.6723   28.6079 C   0  0  0  0  0  0  0  0  0  0  0  0
   10.8743  -15.4694   27.8888 C   0  0  2  0  0  0  0  0  0  0  0  0
   11.9306  -14.5252   27.3884 C   0  0  0  0  0  0  0  0  0  0  0  0
   10.2580  -16.3576   26.8706 C   0  0  2  0  0  0  0  0  0  0  0  0
    9.6524  -15.5786   25.7928 N   0  0  0  0  0  0  0  0  0  0  0  0
    9.1589  -17.1499   27.4644 C   0  0  0  0  0  0  0  0  0  0  0  0
    9.4398  -18.1659   28.3618 O   0  0  0  0  0  0  0  0  0  0  0  0
    7.9659  -16.8854   27.1357 O   0  0  0  0  0  0  0  0  0  0  0  0
  2  1  1  1
  2  3  1  0
  4  2  1  0
  4  5  2  0
  6  4  1  0
  7  6  1  0
  7  8  1  1
  8  9  1  0
  9 10  2  0
  9 14  1  0
 10 11  1  0
 11 12  2  0
 13 12  1  0
 14 13  2  0
 15  7  1  0
 16 15  2  0
 18 17  1  0
 19 18  1  0
 19 20  1  6
 21 19  1  0
 21 22  1  6
 22 15  1  0
 23 24  1  0
 23 21  1  0
 25 23  2  0
M  END
$$$$
