AFI.pdb
     RDKit          3D

 25 25  0  0  1  0  0  0  0  0999 V2000
   11.0316  -19.0153   21.0596 C   0  0  0  0  0  0  0  0  0  0  0  0
   10.4066  -17.7597   20.4879 C   0  0  2  0  0  0  0  0  0  0  0  0
   11.2662  -17.2690   19.4555 N   0  0  0  0  0  0  0  0  0  0  0  0
   10.2097  -16.7580   21.5806 C   0  0  0  0  0  0  0  0  0  0  0  0
   11.1670  -15.9875   21.8500 O   0  0  0  0  0  0  0  0  0  0  0  0
    9.0261  -16.6262   22.3204 N   0  0  0  0  0  0  0  0  0  0  0  0
    8.8243  -15.6903   23.4030 C   0  0  1  0  0  0  0  0  0  0  0  0
    7.3331  -15.4429   23.4990 C   0  0  0  0  0  0  0  0  0  0  0  0
    6.9889  -14.3670   24.4273 C   0  0  0  0  0  0  0  0  0  0  0  0
    6.2446  -14.6594   25.5505 C   0  0  0  0  0  0  0  0  0  0  0  0
    5.8840  -13.6900   26.4697 C   0  0  0  0  0  0  0  0  0  0  0  0
    6.2737  -12.3937   26.2678 C   0  0  0  0  0  0  0  0  0  0  0  0
    7.0167  -12.0811   25.1535 C   0  0  0  0  0  0  0  0  0  0  0  0
    7.3694  -13.0585   24.2445 C   0  0  0  0  0  0  0  0  0  0  0  0
    9.2363  -16.3362   24.6708 C   0  0  0  0  0  0  0  0  0  0  0  0
    9.2660  -17.6017   24.7042 O   0  0  0  0  0  0  0  0  0  0  0  0
   10.0008  -13.8015   29.7458 C   0  0  0  0  0  0  0  0  0  0  0  0
    9.5760  -14.7415   28.6171 C   0  0  0  0  0  0  0  0  0  0  0  0
   10.7706  -15.3445   27.9348 C   0  0  2  0  0  0  0  0  0  0  0  0
   11.6910  -14.2340   27.5138 C   0  0  0  0  0  0  0  0  0  0  0  0
   10.3487  -16.2833   26.8642 C   0  0  2  0  0  0  0  0  0  0  0  0
    9.5914  -15.5881   25.8258 N   0  0  0  0  0  0  0  0  0  0  0  0
    9.4397  -17.3179   27.4043 C   0  0  0  0  0  0  0  0  0  0  0  0
    8.1127  -17.3515   27.0119 O   0  0  0  0  0  0  0  0  0  0  0  0
    9.8945  -18.1633   28.2288 O   0  0  0  0  0  0  0  0  0  0  0  0
  2  1  1  1
  2  3  1  0
  4  2  1  0
  4  5  2  0
  6  4  1  0
  7  6  1  0
  7  8  1  1
  8  9  1  0
  9 10  2  0
  9 14  1  0
 10 11  1  0
 11 12  2  0
 13 12  1  0
 14 13  2  0
 15  7  1  0
 16 15  2  0
 18 17  1  0
 19 18  1  0
 19 20  1  6
 21 19  1  0
 21 22  1  6
 22 15  1  0
 23 24  1  0
 23 21  1  0
 25 23  2  0
M  END
$$$$
