AFI.pdb
     RDKit          3D

 25 25  0  0  1  0  0  0  0  0999 V2000
   10.7022  -18.7501   20.7240 C   0  0  0  0  0  0  0  0  0  0  0  0
   10.4466  -17.3016   20.3631 C   0  0  2  0  0  0  0  0  0  0  0  0
   11.5474  -16.8421   19.5739 N   0  0  0  0  0  0  0  0  0  0  0  0
   10.2753  -16.4984   21.6128 C   0  0  0  0  0  0  0  0  0  0  0  0
   11.3072  -16.0145   22.1455 O   0  0  0  0  0  0  0  0  0  0  0  0
    9.0379  -16.2530   22.2244 N   0  0  0  0  0  0  0  0  0  0  0  0
    8.8277  -15.3634   23.3438 C   0  0  1  0  0  0  0  0  0  0  0  0
    7.3584  -14.9955   23.3440 C   0  0  0  0  0  0  0  0  0  0  0  0
    6.9966  -14.0803   24.4253 C   0  0  0  0  0  0  0  0  0  0  0  0
    7.4627  -12.7831   24.3936 C   0  0  0  0  0  0  0  0  0  0  0  0
    7.1589  -11.8654   25.3836 C   0  0  0  0  0  0  0  0  0  0  0  0
    6.3698  -12.2467   26.4347 C   0  0  0  0  0  0  0  0  0  0  0  0
    5.8945  -13.5362   26.4852 C   0  0  0  0  0  0  0  0  0  0  0  0
    6.2057  -14.4415   25.4903 C   0  0  0  0  0  0  0  0  0  0  0  0
    9.0850  -16.1098   24.5972 C   0  0  0  0  0  0  0  0  0  0  0  0
    8.9292  -17.3663   24.5766 O   0  0  0  0  0  0  0  0  0  0  0  0
   10.5476  -13.7543   29.6265 C   0  0  0  0  0  0  0  0  0  0  0  0
    9.8717  -14.5870   28.5366 C   0  0  0  0  0  0  0  0  0  0  0  0
   10.8734  -15.4247   27.7944 C   0  0  2  0  0  0  0  0  0  0  0  0
   11.9607  -14.5244   27.2796 C   0  0  0  0  0  0  0  0  0  0  0  0
   10.2007  -16.2792   26.7830 C   0  0  2  0  0  0  0  0  0  0  0  0
    9.4936  -15.4658   25.7963 N   0  0  0  0  0  0  0  0  0  0  0  0
    9.1714  -17.1302   27.4189 C   0  0  0  0  0  0  0  0  0  0  0  0
    7.8378  -16.9800   27.0795 O   0  0  0  0  0  0  0  0  0  0  0  0
    9.5305  -17.9895   28.2757 O   0  0  0  0  0  0  0  0  0  0  0  0
  2  1  1  1
  2  3  1  0
  4  2  1  0
  4  5  2  0
  6  4  1  0
  7  6  1  0
  7  8  1  1
  8  9  1  0
  9 10  2  0
  9 14  1  0
 10 11  1  0
 11 12  2  0
 13 12  1  0
 14 13  2  0
 15  7  1  0
 16 15  2  0
 18 17  1  0
 19 18  1  0
 19 20  1  6
 21 19  1  0
 21 22  1  6
 22 15  1  0
 23 24  1  0
 23 21  1  0
 25 23  2  0
M  END
$$$$
