AFI.pdb
     RDKit          3D

 25 25  0  0  1  0  0  0  0  0999 V2000
   11.1878  -18.7391   20.8717 C   0  0  0  0  0  0  0  0  0  0  0  0
   10.6900  -17.3793   20.4282 C   0  0  2  0  0  0  0  0  0  0  0  0
   11.6669  -16.8166   19.5481 N   0  0  0  0  0  0  0  0  0  0  0  0
   10.4510  -16.5194   21.6281 C   0  0  0  0  0  0  0  0  0  0  0  0
   11.4059  -15.8139   22.0442 O   0  0  0  0  0  0  0  0  0  0  0  0
    9.2307  -16.4524   22.3150 N   0  0  0  0  0  0  0  0  0  0  0  0
    8.9467  -15.5614   23.4169 C   0  0  1  0  0  0  0  0  0  0  0  0
    7.4456  -15.3613   23.4458 C   0  0  0  0  0  0  0  0  0  0  0  0
    7.0194  -14.3597   24.4218 C   0  0  0  0  0  0  0  0  0  0  0  0
    7.4439  -13.0558   24.2778 C   0  0  0  0  0  0  0  0  0  0  0  0
    7.0784  -12.0585   25.1645 C   0  0  0  0  0  0  0  0  0  0  0  0
    6.2684  -12.3647   26.2243 C   0  0  0  0  0  0  0  0  0  0  0  0
    5.8339  -13.6594   26.3860 C   0  0  0  0  0  0  0  0  0  0  0  0
    6.2065  -14.6446   25.4935 C   0  0  0  0  0  0  0  0  0  0  0  0
    9.3153  -16.2391   24.6814 C   0  0  0  0  0  0  0  0  0  0  0  0
    9.3784  -17.5038   24.6748 O   0  0  0  0  0  0  0  0  0  0  0  0
   10.0835  -13.1445   29.0955 C   0  0  0  0  0  0  0  0  0  0  0  0
   10.6370  -14.0651   28.0072 C   0  0  0  0  0  0  0  0  0  0  0  0
   10.2034  -15.4863   28.2268 C   0  0  2  0  0  0  0  0  0  0  0  0
   10.9932  -16.0549   29.3716 C   0  0  0  0  0  0  0  0  0  0  0  0
   10.2505  -16.2545   26.9566 C   0  0  2  0  0  0  0  0  0  0  0  0
    9.5941  -15.5218   25.8761 N   0  0  0  0  0  0  0  0  0  0  0  0
    9.5115  -17.5291   27.0888 C   0  0  0  0  0  0  0  0  0  0  0  0
    8.1936  -17.6154   26.6743 O   0  0  0  0  0  0  0  0  0  0  0  0
   10.1020  -18.5309   27.5879 O   0  0  0  0  0  0  0  0  0  0  0  0
  2  1  1  1
  2  3  1  0
  4  2  1  0
  4  5  2  0
  6  4  1  0
  7  6  1  0
  7  8  1  1
  8  9  1  0
  9 10  2  0
  9 14  1  0
 10 11  1  0
 11 12  2  0
 13 12  1  0
 14 13  2  0
 15  7  1  0
 16 15  2  0
 18 17  1  0
 19 18  1  0
 19 20  1  1
 21 19  1  0
 21 22  1  6
 22 15  1  0
 23 24  1  0
 23 21  1  0
 25 23  2  0
M  END
$$$$
