AFI.pdb
     RDKit          3D

 25 25  0  0  1  0  0  0  0  0999 V2000
    9.4847  -18.7415   20.9083 C   0  0  0  0  0  0  0  0  0  0  0  0
    9.1558  -17.3345   20.4546 C   0  0  2  0  0  0  0  0  0  0  0  0
   10.0033  -17.0181   19.3468 N   0  0  0  0  0  0  0  0  0  0  0  0
    9.3421  -16.3857   21.5954 C   0  0  0  0  0  0  0  0  0  0  0  0
   10.4814  -15.8765   21.7552 O   0  0  0  0  0  0  0  0  0  0  0  0
    8.3267  -16.0306   22.4945 N   0  0  0  0  0  0  0  0  0  0  0  0
    8.4913  -15.1436   23.6236 C   0  0  1  0  0  0  0  0  0  0  0  0
    7.1058  -14.6842   24.0282 C   0  0  0  0  0  0  0  0  0  0  0  0
    7.1104  -13.8159   25.2045 C   0  0  0  0  0  0  0  0  0  0  0  0
    7.5672  -12.5206   25.0835 C   0  0  0  0  0  0  0  0  0  0  0  0
    7.5989  -11.6461   26.1552 C   0  0  0  0  0  0  0  0  0  0  0  0
    7.1647  -12.0699   27.3820 C   0  0  0  0  0  0  0  0  0  0  0  0
    6.7051  -13.3584   27.5240 C   0  0  0  0  0  0  0  0  0  0  0  0
    6.6792  -14.2202   26.4459 C   0  0  0  0  0  0  0  0  0  0  0  0
    9.0368  -15.9203   24.7609 C   0  0  0  0  0  0  0  0  0  0  0  0
    8.5515  -17.0702   24.9750 O   0  0  0  0  0  0  0  0  0  0  0  0
   14.2111  -15.9973   24.7950 C   0  0  0  0  0  0  0  0  0  0  0  0
   12.7347  -16.3716   24.9294 C   0  0  0  0  0  0  0  0  0  0  0  0
   12.2528  -16.1805   26.3392 C   0  0  2  0  0  0  0  0  0  0  0  0
   13.0945  -17.0284   27.2505 C   0  0  0  0  0  0  0  0  0  0  0  0
   10.7848  -16.3867   26.4276 C   0  0  2  0  0  0  0  0  0  0  0  0
   10.0686  -15.4189   25.5997 N   0  0  0  0  0  0  0  0  0  0  0  0
   10.3083  -16.1675   27.8108 C   0  0  0  0  0  0  0  0  0  0  0  0
    9.9701  -14.8945   28.2365 O   0  0  0  0  0  0  0  0  0  0  0  0
   10.2200  -17.1585   28.5928 O   0  0  0  0  0  0  0  0  0  0  0  0
  2  1  1  1
  2  3  1  0
  4  2  1  0
  4  5  2  0
  6  4  1  0
  7  6  1  0
  7  8  1  1
  8  9  1  0
  9 10  2  0
  9 14  1  0
 10 11  1  0
 11 12  2  0
 13 12  1  0
 14 13  2  0
 15  7  1  0
 16 15  2  0
 18 17  1  0
 19 18  1  0
 19 20  1  1
 21 19  1  0
 21 22  1  6
 22 15  1  0
 23 24  1  0
 23 21  1  0
 25 23  2  0
M  END
$$$$
