AFI.pdb
     RDKit          3D

 25 25  0  0  1  0  0  0  0  0999 V2000
    9.7440  -18.8648   20.9200 C   0  0  0  0  0  0  0  0  0  0  0  0
    9.4835  -17.4568   20.4266 C   0  0  2  0  0  0  0  0  0  0  0  0
   10.4585  -17.1521   19.4255 N   0  0  0  0  0  0  0  0  0  0  0  0
    9.5424  -16.5052   21.5786 C   0  0  0  0  0  0  0  0  0  0  0  0
   10.6542  -15.9849   21.8538 O   0  0  0  0  0  0  0  0  0  0  0  0
    8.4365  -16.1590   22.3678 N   0  0  0  0  0  0  0  0  0  0  0  0
    8.4752  -15.2678   23.5049 C   0  0  1  0  0  0  0  0  0  0  0  0
    7.0766  -14.7122   23.6766 C   0  0  0  0  0  0  0  0  0  0  0  0
    6.9675  -13.7669   24.7866 C   0  0  0  0  0  0  0  0  0  0  0  0
    6.3293  -14.1586   25.9443 C   0  0  0  0  0  0  0  0  0  0  0  0
    6.1908  -13.3150   27.0323 C   0  0  0  0  0  0  0  0  0  0  0  0
    6.7004  -12.0464   26.9687 C   0  0  0  0  0  0  0  0  0  0  0  0
    7.3407  -11.6360   25.8229 C   0  0  0  0  0  0  0  0  0  0  0  0
    7.4717  -12.4885   24.7448 C   0  0  0  0  0  0  0  0  0  0  0  0
    8.7755  -16.0614   24.7190 C   0  0  0  0  0  0  0  0  0  0  0  0
    8.2755  -17.2218   24.8024 O   0  0  0  0  0  0  0  0  0  0  0  0
   13.7475  -16.6492   28.1908 C   0  0  0  0  0  0  0  0  0  0  0  0
   12.3208  -17.0882   27.8592 C   0  0  0  0  0  0  0  0  0  0  0  0
   11.6409  -16.0919   26.9641 C   0  0  2  0  0  0  0  0  0  0  0  0
   11.7381  -14.7342   27.6004 C   0  0  0  0  0  0  0  0  0  0  0  0
   10.2735  -16.5492   26.6083 C   0  0  2  0  0  0  0  0  0  0  0  0
    9.5929  -15.5647   25.7700 N   0  0  0  0  0  0  0  0  0  0  0  0
    9.4388  -16.6948   27.8209 C   0  0  0  0  0  0  0  0  0  0  0  0
    8.3306  -15.8857   28.0039 O   0  0  0  0  0  0  0  0  0  0  0  0
    9.7572  -17.5645   28.6832 O   0  0  0  0  0  0  0  0  0  0  0  0
  2  1  1  1
  2  3  1  0
  4  2  1  0
  4  5  2  0
  6  4  1  0
  7  6  1  0
  7  8  1  1
  8  9  1  0
  9 10  2  0
  9 14  1  0
 10 11  1  0
 11 12  2  0
 13 12  1  0
 14 13  2  0
 15  7  1  0
 16 15  2  0
 18 17  1  0
 19 18  1  0
 19 20  1  1
 21 19  1  0
 21 22  1  6
 22 15  1  0
 23 24  1  0
 23 21  1  0
 25 23  2  0
M  END
$$$$
