AFI.pdb
     RDKit          3D

 25 25  0  0  1  0  0  0  0  0999 V2000
   10.9990  -18.8343   20.8433 C   0  0  0  0  0  0  0  0  0  0  0  0
   10.4924  -17.5011   20.3334 C   0  0  2  0  0  0  0  0  0  0  0  0
   11.4403  -17.0014   19.3861 N   0  0  0  0  0  0  0  0  0  0  0  0
   10.3005  -16.5665   21.4849 C   0  0  0  0  0  0  0  0  0  0  0  0
   11.2942  -15.8979   21.8701 O   0  0  0  0  0  0  0  0  0  0  0  0
    9.0837  -16.3911   22.1587 N   0  0  0  0  0  0  0  0  0  0  0  0
    8.8254  -15.3755   23.1540 C   0  0  1  0  0  0  0  0  0  0  0  0
    7.3221  -15.2083   23.2327 C   0  0  0  0  0  0  0  0  0  0  0  0
    6.9133  -14.0860   24.0760 C   0  0  0  0  0  0  0  0  0  0  0  0
    7.2866  -12.8069   23.7218 C   0  0  0  0  0  0  0  0  0  0  0  0
    6.9341  -11.7003   24.4740 C   0  0  0  0  0  0  0  0  0  0  0  0
    6.1898  -11.8689   25.6101 C   0  0  0  0  0  0  0  0  0  0  0  0
    5.8072  -13.1367   25.9809 C   0  0  0  0  0  0  0  0  0  0  0  0
    6.1660  -14.2319   25.2208 C   0  0  0  0  0  0  0  0  0  0  0  0
    9.2724  -15.8801   24.4730 C   0  0  0  0  0  0  0  0  0  0  0  0
    9.3687  -17.1339   24.6218 O   0  0  0  0  0  0  0  0  0  0  0  0
   10.8668  -14.3578   30.2503 C   0  0  0  0  0  0  0  0  0  0  0  0
   11.0570  -15.2264   29.0063 C   0  0  0  0  0  0  0  0  0  0  0  0
   10.3970  -14.6081   27.8070 C   0  0  2  0  0  0  0  0  0  0  0  0
    9.1423  -13.9148   28.2569 C   0  0  0  0  0  0  0  0  0  0  0  0
   10.2363  -15.6069   26.7197 C   0  0  2  0  0  0  0  0  0  0  0  0
    9.5890  -15.0118   25.5526 N   0  0  0  0  0  0  0  0  0  0  0  0
    9.3543  -16.7130   27.1519 C   0  0  0  0  0  0  0  0  0  0  0  0
    9.8644  -17.7551   27.9069 O   0  0  0  0  0  0  0  0  0  0  0  0
    8.1341  -16.6903   26.8172 O   0  0  0  0  0  0  0  0  0  0  0  0
  2  1  1  1
  2  3  1  0
  4  2  1  0
  4  5  2  0
  6  4  1  0
  7  6  1  0
  7  8  1  1
  8  9  1  0
  9 10  2  0
  9 14  1  0
 10 11  1  0
 11 12  2  0
 13 12  1  0
 14 13  2  0
 15  7  1  0
 16 15  2  0
 18 17  1  0
 19 18  1  0
 19 20  1  1
 21 19  1  0
 21 22  1  6
 22 15  1  0
 23 24  1  0
 23 21  1  0
 25 23  2  0
M  END
$$$$
