CIN.pdb
     RDKit          3D

 23 22  0  0  1  0  0  0  0  0999 V2000
   19.9628  -13.6572  -16.9547 N   0  0  0  0  0  0  0  0  0  0  0  0
   20.5538  -12.5046  -17.5756 C   0  0  1  0  0  0  0  0  0  0  0  0
   19.5525  -11.6961  -18.3473 C   0  0  0  0  0  0  0  0  0  0  0  0
   18.9528  -12.7295  -19.7182 S   0  0  0  0  0  0  0  0  0  0  0  0
   21.3099  -11.6757  -16.5902 C   0  0  0  0  0  0  0  0  0  0  0  0
   20.7660  -11.4237  -15.5042 O   0  0  0  0  0  0  0  0  0  0  0  0
   26.5331  -12.4270  -15.7222 C   0  0  0  0  0  0  0  0  0  0  0  0
   25.0453  -12.1702  -15.5974 C   0  0  0  0  0  0  0  0  0  0  0  0
   24.8082  -10.7252  -15.9437 C   0  0  2  0  0  0  0  0  0  0  0  0
   25.5785   -9.8035  -15.0610 C   0  0  0  0  0  0  0  0  0  0  0  0
   23.3401  -10.3579  -15.9219 C   0  0  2  0  0  0  0  0  0  0  0  0
   22.6100  -11.1868  -16.8770 N   0  0  0  0  0  0  0  0  0  0  0  0
   23.1332   -8.9247  -16.2301 C   0  0  0  0  0  0  0  0  0  0  0  0
   23.3370   -8.5305  -17.4020 O   0  0  0  0  0  0  0  0  0  0  0  0
   21.2968   -4.0500  -16.1716 N   0  0  0  0  0  0  0  0  0  0  0  0
   20.5634   -5.1912  -16.5883 C   0  0  0  0  0  0  0  0  0  0  0  0
   19.4916   -5.0032  -17.2124 O   0  0  0  0  0  0  0  0  0  0  0  0
   21.0642   -6.5317  -16.2864 C   0  0  0  0  0  0  0  0  0  0  0  0
   22.4138   -6.5731  -15.6493 C   0  0  2  0  0  0  0  0  0  0  0  0
   22.7157   -7.9623  -15.2752 N   0  0  0  0  0  0  0  0  0  0  0  0
   22.3528   -5.7687  -14.4123 C   0  0  0  0  0  0  0  0  0  0  0  0
   22.3173   -6.4581  -13.1983 O   0  0  0  0  0  0  0  0  0  0  0  0
   22.3352   -4.5189  -14.4938 O   0  0  0  0  0  0  0  0  0  0  0  0
  2  3  1  0
  2  1  1  1
  3  4  1  0
  5  2  1  0
  5  6  2  0
  7  8  1  0
  8  9  1  0
  9 11  1  0
  9 10  1  1
 11 12  1  6
 11 13  1  0
 12  5  1  0
 13 20  1  0
 14 13  2  0
 15 16  1  0
 16 17  2  0
 18 16  1  0
 19 18  1  1
 19 21  1  0
 20 19  1  0
 21 23  2  0
 21 22  1  0
M  END
$$$$
