CIN.pdb
     RDKit          3D

 23 22  0  0  1  0  0  0  0  0999 V2000
   18.8236  -15.8946  -16.2071 N   0  0  0  0  0  0  0  0  0  0  0  0
   18.5804  -14.5320  -16.5909 C   0  0  1  0  0  0  0  0  0  0  0  0
   17.1188  -14.1916  -16.5904 C   0  0  0  0  0  0  0  0  0  0  0  0
   16.3534  -15.0583  -17.9939 S   0  0  0  0  0  0  0  0  0  0  0  0
   19.3828  -13.5773  -15.7696 C   0  0  0  0  0  0  0  0  0  0  0  0
   19.2608  -13.6270  -14.5362 O   0  0  0  0  0  0  0  0  0  0  0  0
   24.8764  -11.5831  -15.2647 C   0  0  0  0  0  0  0  0  0  0  0  0
   23.4512  -11.1489  -14.9901 C   0  0  0  0  0  0  0  0  0  0  0  0
   22.5463  -12.0450  -15.7914 C   0  0  2  0  0  0  0  0  0  0  0  0
   22.8594  -12.0000  -17.2481 C   0  0  0  0  0  0  0  0  0  0  0  0
   21.0812  -11.7392  -15.5661 C   0  0  2  0  0  0  0  0  0  0  0  0
   20.2600  -12.6391  -16.3711 N   0  0  0  0  0  0  0  0  0  0  0  0
   20.7628  -10.3308  -15.8932 C   0  0  0  0  0  0  0  0  0  0  0  0
   20.6451  -10.0098  -17.0987 O   0  0  0  0  0  0  0  0  0  0  0  0
   19.2656   -5.3242  -15.6269 N   0  0  0  0  0  0  0  0  0  0  0  0
   18.3590   -6.3062  -15.1498 C   0  0  0  0  0  0  0  0  0  0  0  0
   17.1807   -5.9488  -14.9105 O   0  0  0  0  0  0  0  0  0  0  0  0
   18.8108   -7.6831  -14.9527 C   0  0  0  0  0  0  0  0  0  0  0  0
   20.2434   -7.9324  -15.2911 C   0  0  2  0  0  0  0  0  0  0  0  0
   20.5814   -9.3143  -14.9206 N   0  0  0  0  0  0  0  0  0  0  0  0
   21.0655   -7.0233  -14.4673 C   0  0  0  0  0  0  0  0  0  0  0  0
   21.1101   -5.6789  -14.8427 O   0  0  0  0  0  0  0  0  0  0  0  0
   21.6829   -7.4816  -13.4785 O   0  0  0  0  0  0  0  0  0  0  0  0
  2  3  1  0
  2  1  1  1
  3  4  1  0
  5  2  1  0
  5  6  2  0
  7  8  1  0
  8  9  1  0
  9 11  1  0
  9 10  1  6
 11 12  1  6
 11 13  1  0
 12  5  1  0
 13 20  1  0
 14 13  2  0
 15 16  1  0
 16 17  2  0
 18 16  1  0
 19 18  1  1
 19 21  1  0
 20 19  1  0
 21 23  2  0
 21 22  1  0
M  END
$$$$
