CIN.pdb
     RDKit          3D

 23 22  0  0  1  0  0  0  0  0999 V2000
   22.6268  -15.7497  -17.9435 N   0  0  0  0  0  0  0  0  0  0  0  0
   22.8975  -14.4157  -18.4019 C   0  0  1  0  0  0  0  0  0  0  0  0
   21.8354  -13.9054  -19.3312 C   0  0  0  0  0  0  0  0  0  0  0  0
   21.6067  -15.1490  -20.6382 S   0  0  0  0  0  0  0  0  0  0  0  0
   23.1473  -13.4825  -17.2632 C   0  0  0  0  0  0  0  0  0  0  0  0
   22.4011  -13.5585  -16.2752 O   0  0  0  0  0  0  0  0  0  0  0  0
   28.1310  -12.0929  -15.7659 C   0  0  0  0  0  0  0  0  0  0  0  0
   26.6679  -12.4826  -15.7129 C   0  0  0  0  0  0  0  0  0  0  0  0
   25.8644  -11.2599  -16.0644 C   0  0  2  0  0  0  0  0  0  0  0  0
   26.0540  -10.1610  -15.0751 C   0  0  0  0  0  0  0  0  0  0  0  0
   24.3905  -11.5627  -16.2271 C   0  0  2  0  0  0  0  0  0  0  0  0
   24.2022  -12.5352  -17.3000 N   0  0  0  0  0  0  0  0  0  0  0  0
   23.6110  -10.3362  -16.5100 C   0  0  0  0  0  0  0  0  0  0  0  0
   23.8621   -9.6978  -17.5586 O   0  0  0  0  0  0  0  0  0  0  0  0
   20.0868   -6.5025  -16.5730 N   0  0  0  0  0  0  0  0  0  0  0  0
   19.5467   -7.8128  -16.4989 C   0  0  0  0  0  0  0  0  0  0  0  0
   18.3093   -7.9462  -16.6554 O   0  0  0  0  0  0  0  0  0  0  0  0
   20.4275   -8.9528  -16.2471 C   0  0  0  0  0  0  0  0  0  0  0  0
   21.8530   -8.6017  -15.9754 C   0  0  2  0  0  0  0  0  0  0  0  0
   22.5903   -9.8344  -15.6623 N   0  0  0  0  0  0  0  0  0  0  0  0
   21.8832   -7.7340  -14.7807 C   0  0  0  0  0  0  0  0  0  0  0  0
   21.5444   -6.3902  -14.9533 O   0  0  0  0  0  0  0  0  0  0  0  0
   22.2059   -8.2249  -13.6745 O   0  0  0  0  0  0  0  0  0  0  0  0
  2  3  1  0
  2  1  1  1
  3  4  1  0
  5  2  1  0
  5  6  2  0
  7  8  1  0
  8  9  1  0
  9 11  1  0
  9 10  1  1
 11 12  1  6
 11 13  1  0
 12  5  1  0
 13 20  1  0
 14 13  2  0
 15 16  1  0
 16 17  2  0
 18 16  1  0
 19 18  1  1
 19 21  1  0
 20 19  1  0
 21 23  2  0
 21 22  1  0
M  END
$$$$
