CIN.pdb
     RDKit          3D

 23 22  0  0  1  0  0  0  0  0999 V2000
   34.4898  -28.5305    2.8454 N   0  0  0  0  0  0  0  0  0  0  0  0
   34.3300  -27.9821    4.1632 C   0  0  1  0  0  0  0  0  0  0  0  0
   34.8249  -28.9121    5.2319 C   0  0  0  0  0  0  0  0  0  0  0  0
   33.7655  -30.3900    5.2063 S   0  0  0  0  0  0  0  0  0  0  0  0
   34.9388  -26.6229    4.2712 C   0  0  0  0  0  0  0  0  0  0  0  0
   35.9639  -26.3913    3.6124 O   0  0  0  0  0  0  0  0  0  0  0  0
   31.7283  -22.2000    4.5894 C   0  0  0  0  0  0  0  0  0  0  0  0
   32.7673  -23.2461    4.2411 C   0  0  0  0  0  0  0  0  0  0  0  0
   33.7654  -23.2802    5.3666 C   0  0  2  0  0  0  0  0  0  0  0  0
   34.3185  -21.9288    5.6664 C   0  0  0  0  0  0  0  0  0  0  0  0
   34.8928  -24.2571    5.1113 C   0  0  2  0  0  0  0  0  0  0  0  0
   34.3706  -25.6207    5.0985 N   0  0  0  0  0  0  0  0  0  0  0  0
   35.9620  -24.1316    6.1277 C   0  0  0  0  0  0  0  0  0  0  0  0
   35.7663  -24.6227    7.2638 O   0  0  0  0  0  0  0  0  0  0  0  0
   40.6383  -23.4249    8.4202 N   0  0  0  0  0  0  0  0  0  0  0  0
   40.7124  -22.9305    7.0920 C   0  0  0  0  0  0  0  0  0  0  0  0
   41.8137  -22.4798    6.6951 O   0  0  0  0  0  0  0  0  0  0  0  0
   39.5275  -22.9578    6.2353 C   0  0  0  0  0  0  0  0  0  0  0  0
   38.3074  -23.5462    6.8633 C   0  0  2  0  0  0  0  0  0  0  0  0
   37.2032  -23.4857    5.8947 N   0  0  0  0  0  0  0  0  0  0  0  0
   37.9468  -22.7044    8.0219 C   0  0  0  0  0  0  0  0  0  0  0  0
   38.4099  -23.1055    9.2769 O   0  0  0  0  0  0  0  0  0  0  0  0
   37.2508  -21.6787    7.8417 O   0  0  0  0  0  0  0  0  0  0  0  0
  2  3  1  0
  2  1  1  6
  3  4  1  0
  5  2  1  0
  5  6  2  0
  7  8  1  0
  8  9  1  0
  9 11  1  0
  9 10  1  6
 11 12  1  1
 11 13  1  0
 12  5  1  0
 13 20  1  0
 14 13  2  0
 15 16  1  0
 16 17  2  0
 18 16  1  0
 19 18  1  6
 19 21  1  0
 20 19  1  0
 21 23  2  0
 21 22  1  0
M  END
$$$$
