CIN.pdb
     RDKit          3D

 23 22  0  0  1  0  0  0  0  0999 V2000
   17.6564  -12.3416  -14.8983 N   0  0  0  0  0  0  0  0  0  0  0  0
   17.6401  -11.2000  -15.7697 C   0  0  1  0  0  0  0  0  0  0  0  0
   16.2898  -10.9695  -16.3826 C   0  0  0  0  0  0  0  0  0  0  0  0
   16.0814  -12.1820  -17.7219 S   0  0  0  0  0  0  0  0  0  0  0  0
   18.1664   -9.9799  -15.0883 C   0  0  0  0  0  0  0  0  0  0  0  0
   17.8286   -9.7802  -13.9116 O   0  0  0  0  0  0  0  0  0  0  0  0
   23.1834   -6.7759  -14.7070 C   0  0  0  0  0  0  0  0  0  0  0  0
   21.6793   -6.6457  -14.5808 C   0  0  0  0  0  0  0  0  0  0  0  0
   21.0693   -7.8833  -15.1810 C   0  0  2  0  0  0  0  0  0  0  0  0
   21.4900   -8.0857  -16.5967 C   0  0  0  0  0  0  0  0  0  0  0  0
   19.5590   -7.8906  -15.0827 C   0  0  2  0  0  0  0  0  0  0  0  0
   19.0265   -9.0715  -15.7566 N   0  0  0  0  0  0  0  0  0  0  0  0
   18.9699   -6.6637  -15.6654 C   0  0  0  0  0  0  0  0  0  0  0  0
   18.8986   -6.5699  -16.9129 O   0  0  0  0  0  0  0  0  0  0  0  0
   15.2010   -2.0780  -14.4604 N   0  0  0  0  0  0  0  0  0  0  0  0
   15.7955   -3.0011  -15.3595 C   0  0  0  0  0  0  0  0  0  0  0  0
   15.6541   -2.7955  -16.5888 O   0  0  0  0  0  0  0  0  0  0  0  0
   16.5435   -4.1463  -14.8420 C   0  0  0  0  0  0  0  0  0  0  0  0
   17.8512   -4.4030  -15.5151 C   0  0  2  0  0  0  0  0  0  0  0  0
   18.4774   -5.5794  -14.8946 N   0  0  0  0  0  0  0  0  0  0  0  0
   18.7220   -3.2363  -15.2669 C   0  0  0  0  0  0  0  0  0  0  0  0
   18.5312   -2.1093  -16.0692 O   0  0  0  0  0  0  0  0  0  0  0  0
   19.5857   -3.2974  -14.3618 O   0  0  0  0  0  0  0  0  0  0  0  0
  2  3  1  0
  2  1  1  1
  3  4  1  0
  5  2  1  0
  5  6  2  0
  7  8  1  0
  8  9  1  0
  9 11  1  0
  9 10  1  6
 11 12  1  6
 11 13  1  0
 12  5  1  0
 13 20  1  0
 14 13  2  0
 15 16  1  0
 16 17  2  0
 18 16  1  0
 19 18  1  1
 19 21  1  0
 20 19  1  0
 21 23  2  0
 21 22  1  0
M  END
$$$$
