CIN.pdb
     RDKit          3D

 23 22  0  0  1  0  0  0  0  0999 V2000
   16.3165  -13.0823  -16.6189 N   0  0  0  0  0  0  0  0  0  0  0  0
   16.7726  -11.7394  -16.8456 C   0  0  1  0  0  0  0  0  0  0  0  0
   15.6822  -10.7265  -16.6526 C   0  0  0  0  0  0  0  0  0  0  0  0
   14.4303  -11.0167  -17.9393 S   0  0  0  0  0  0  0  0  0  0  0  0
   17.9852  -11.4253  -16.0327 C   0  0  0  0  0  0  0  0  0  0  0  0
   17.9832  -11.7519  -14.8361 O   0  0  0  0  0  0  0  0  0  0  0  0
   22.7737  -11.9695  -18.2865 C   0  0  0  0  0  0  0  0  0  0  0  0
   21.5318  -11.9488  -17.4191 C   0  0  0  0  0  0  0  0  0  0  0  0
   21.5382  -10.6520  -16.6561 C   0  0  2  0  0  0  0  0  0  0  0  0
   22.7590  -10.5032  -15.8137 C   0  0  0  0  0  0  0  0  0  0  0  0
   20.2977  -10.4732  -15.8077 C   0  0  2  0  0  0  0  0  0  0  0  0
   19.1096  -10.7742  -16.6014 N   0  0  0  0  0  0  0  0  0  0  0  0
   20.2077   -9.1016  -15.2576 C   0  0  0  0  0  0  0  0  0  0  0  0
   19.2149   -8.8048  -14.5531 O   0  0  0  0  0  0  0  0  0  0  0  0
   21.4581   -4.8484  -12.3445 N   0  0  0  0  0  0  0  0  0  0  0  0
   22.3421   -5.2030  -13.3966 C   0  0  0  0  0  0  0  0  0  0  0  0
   23.1750   -4.3452  -13.7762 O   0  0  0  0  0  0  0  0  0  0  0  0
   22.2627   -6.5325  -14.0005 C   0  0  0  0  0  0  0  0  0  0  0  0
   21.0742   -6.7590  -14.8752 C   0  0  2  0  0  0  0  0  0  0  0  0
   21.1819   -8.0947  -15.4797 N   0  0  0  0  0  0  0  0  0  0  0  0
   21.1178   -5.7598  -15.9618 C   0  0  0  0  0  0  0  0  0  0  0  0
   21.5848   -6.1846  -17.2075 O   0  0  0  0  0  0  0  0  0  0  0  0
   20.7413   -4.5875  -15.7322 O   0  0  0  0  0  0  0  0  0  0  0  0
  2  3  1  0
  2  1  1  1
  3  4  1  0
  5  2  1  0
  5  6  2  0
  7  8  1  0
  8  9  1  0
  9 11  1  0
  9 10  1  1
 11 12  1  6
 11 13  1  0
 12  5  1  0
 13 20  1  0
 14 13  2  0
 15 16  1  0
 16 17  2  0
 18 16  1  0
 19 18  1  1
 19 21  1  0
 20 19  1  0
 21 23  2  0
 21 22  1  0
M  END
$$$$
