CIN.pdb
     RDKit          3D

 23 22  0  0  1  0  0  0  0  0999 V2000
   23.1502  -13.9457  -19.0566 N   0  0  0  0  0  0  0  0  0  0  0  0
   22.1913  -13.8991  -17.9884 C   0  0  1  0  0  0  0  0  0  0  0  0
   21.9421  -15.2509  -17.3863 C   0  0  0  0  0  0  0  0  0  0  0  0
   21.3872  -16.3525  -18.7226 S   0  0  0  0  0  0  0  0  0  0  0  0
   22.5624  -12.8825  -16.9595 C   0  0  0  0  0  0  0  0  0  0  0  0
   21.8332  -12.7721  -15.9621 O   0  0  0  0  0  0  0  0  0  0  0  0
   27.7502  -11.8015  -15.8260 C   0  0  0  0  0  0  0  0  0  0  0  0
   26.2674  -12.0824  -15.6927 C   0  0  0  0  0  0  0  0  0  0  0  0
   25.5356  -10.8263  -16.0809 C   0  0  2  0  0  0  0  0  0  0  0  0
   25.8677   -9.6836  -15.1831 C   0  0  0  0  0  0  0  0  0  0  0  0
   24.0360  -11.0236  -16.1363 C   0  0  2  0  0  0  0  0  0  0  0  0
   23.7108  -12.0635  -17.1084 N   0  0  0  0  0  0  0  0  0  0  0  0
   23.3343   -9.7667  -16.4824 C   0  0  0  0  0  0  0  0  0  0  0  0
   23.6143   -9.2059  -17.5675 O   0  0  0  0  0  0  0  0  0  0  0  0
   19.0977   -6.6453  -17.9487 N   0  0  0  0  0  0  0  0  0  0  0  0
   19.4497   -6.9965  -16.6195 C   0  0  0  0  0  0  0  0  0  0  0  0
   19.0311   -6.2656  -15.6899 O   0  0  0  0  0  0  0  0  0  0  0  0
   20.2752   -8.1777  -16.3703 C   0  0  0  0  0  0  0  0  0  0  0  0
   21.7010   -7.8920  -16.0320 C   0  0  2  0  0  0  0  0  0  0  0  0
   22.3578   -9.1526  -15.6568 N   0  0  0  0  0  0  0  0  0  0  0  0
   21.7146   -7.0005  -14.8547 C   0  0  0  0  0  0  0  0  0  0  0  0
   21.6458   -5.6254  -15.0887 O   0  0  0  0  0  0  0  0  0  0  0  0
   21.7860   -7.4999  -13.7082 O   0  0  0  0  0  0  0  0  0  0  0  0
  2  3  1  0
  2  1  1  6
  3  4  1  0
  5  2  1  0
  5  6  2  0
  7  8  1  0
  8  9  1  0
  9 11  1  0
  9 10  1  1
 11 12  1  6
 11 13  1  0
 12  5  1  0
 13 20  1  0
 14 13  2  0
 15 16  1  0
 16 17  2  0
 18 16  1  0
 19 18  1  1
 19 21  1  0
 20 19  1  0
 21 23  2  0
 21 22  1  0
M  END
$$$$
