HKV.pdb
     RDKit          3D

 27 27  0  0  1  0  0  0  0  0999 V2000
    8.9116  -15.9556   19.9915 N   0  0  0  0  0  0  0  0  0  0  0  0
    8.0058  -14.8951   20.3475 C   0  0  1  0  0  0  0  0  0  0  0  0
    6.8398  -14.8197   19.3654 C   0  0  0  0  0  0  0  0  0  0  0  0
    7.3746  -14.4563   18.0258 C   0  0  0  0  0  0  0  0  0  0  0  0
    8.7040  -14.2893   17.7164 C   0  0  0  0  0  0  0  0  0  0  0  0
    8.8388  -13.9636   16.4187 N   0  0  0  0  0  0  0  0  0  0  0  0
    7.5676  -13.9316   15.9283 C   0  0  0  0  0  0  0  0  0  0  0  0
    6.6987  -14.2296   16.9049 N   0  0  0  0  0  0  0  0  0  0  0  0
    7.4185  -15.1362   21.6830 C   0  0  0  0  0  0  0  0  0  0  0  0
    6.5190  -14.3714   22.0926 O   0  0  0  0  0  0  0  0  0  0  0  0
    7.8903  -16.2273   22.4633 N   0  0  0  0  0  0  0  0  0  0  0  0
    7.4516  -16.4417   23.7967 C   0  0  1  0  0  0  0  0  0  0  0  0
    7.6883  -17.8324   24.2784 C   0  0  0  0  0  0  0  0  0  0  0  0
    7.4165  -18.1589   25.6870 C   0  0  0  0  0  0  0  0  0  0  0  0
    7.7455  -19.5648   26.0896 C   0  0  0  0  0  0  0  0  0  0  0  0
    7.4403  -19.7817   27.5770 C   0  0  0  0  0  0  0  0  0  0  0  0
    7.9077  -21.0943   27.9219 N   0  0  0  0  0  0  0  0  0  0  0  0
    8.1741  -15.4738   24.7112 C   0  0  0  0  0  0  0  0  0  0  0  0
    9.4299  -15.3403   24.6366 O   0  0  0  0  0  0  0  0  0  0  0  0
    7.2688  -11.7769   25.5125 C   0  0  0  0  0  0  0  0  0  0  0  0
    7.3829  -12.5542   26.8071 C   0  0  1  0  0  0  0  0  0  0  0  0
    6.0193  -12.8831   27.3665 C   0  0  0  0  0  0  0  0  0  0  0  0
    8.2075  -13.7963   26.5463 C   0  0  2  0  0  0  0  0  0  0  0  0
    7.4795  -14.7024   25.6606 N   0  0  0  0  0  0  0  0  0  0  0  0
    8.4630  -14.4320   27.8648 C   0  0  0  0  0  0  0  0  0  0  0  0
    8.0263  -15.5389   28.1982 O   0  0  0  0  0  0  0  0  0  0  0  0
    9.2413  -13.7351   28.7759 O   0  0  0  0  0  0  0  0  0  0  0  0
  2  1  1  6
  2  3  1  0
  4  5  2  0
  4  3  1  0
  6  5  1  0
  7  8  2  0
  7  6  1  0
  8  4  1  0
  9  2  1  0
  9 11  1  0
 10  9  2  0
 12 11  1  0
 12 13  1  1
 13 14  1  0
 14 15  1  0
 16 15  1  0
 16 17  1  0
 18 12  1  0
 19 18  2  0
 21 20  1  6
 21 23  1  0
 22 21  1  0
 23 25  1  0
 23 24  1  6
 24 18  1  0
 25 27  1  0
 26 25  2  0
M  END
$$$$
