HKV.pdb
     RDKit          3D

 27 27  0  0  1  0  0  0  0  0999 V2000
    9.6301  -18.1407   21.0368 N   0  0  0  0  0  0  0  0  0  0  0  0
   10.4937  -17.0147   20.7959 C   0  0  1  0  0  0  0  0  0  0  0  0
   10.1634  -16.3480   19.4632 C   0  0  0  0  0  0  0  0  0  0  0  0
   10.3568  -17.3451   18.3766 C   0  0  0  0  0  0  0  0  0  0  0  0
   11.5663  -17.8598   17.9726 C   0  0  0  0  0  0  0  0  0  0  0  0
   11.3834  -18.7354   16.9685 N   0  0  0  0  0  0  0  0  0  0  0  0
   10.0373  -18.7544   16.7567 C   0  0  0  0  0  0  0  0  0  0  0  0
    9.4335  -17.9144   17.6097 N   0  0  0  0  0  0  0  0  0  0  0  0
   10.3120  -15.9841   21.8405 C   0  0  0  0  0  0  0  0  0  0  0  0
   10.9465  -14.9117   21.7459 O   0  0  0  0  0  0  0  0  0  0  0  0
    9.4236  -16.2387   22.9213 N   0  0  0  0  0  0  0  0  0  0  0  0
    9.3094  -15.3515   24.0241 C   0  0  1  0  0  0  0  0  0  0  0  0
    7.9012  -14.9695   24.3295 C   0  0  0  0  0  0  0  0  0  0  0  0
    7.6413  -13.9666   25.3742 C   0  0  0  0  0  0  0  0  0  0  0  0
    6.1933  -13.6810   25.6364 C   0  0  0  0  0  0  0  0  0  0  0  0
    6.0473  -12.5567   26.6694 C   0  0  0  0  0  0  0  0  0  0  0  0
    4.6461  -12.2729   26.7965 N   0  0  0  0  0  0  0  0  0  0  0  0
    9.9176  -16.0088   25.2460 C   0  0  0  0  0  0  0  0  0  0  0  0
   10.0545  -17.2656   25.2943 O   0  0  0  0  0  0  0  0  0  0  0  0
   11.5767  -13.6716   28.3059 C   0  0  0  0  0  0  0  0  0  0  0  0
   10.9487  -14.9925   28.6985 C   0  0  1  0  0  0  0  0  0  0  0  0
    9.5501  -14.7930   29.2322 C   0  0  0  0  0  0  0  0  0  0  0  0
   10.9747  -15.9092   27.4944 C   0  0  2  0  0  0  0  0  0  0  0  0
   10.3444  -15.2513   26.3519 N   0  0  0  0  0  0  0  0  0  0  0  0
   10.2368  -17.1423   27.8723 C   0  0  0  0  0  0  0  0  0  0  0  0
    9.1078  -17.4297   27.4601 O   0  0  0  0  0  0  0  0  0  0  0  0
   10.8584  -18.0237   28.7431 O   0  0  0  0  0  0  0  0  0  0  0  0
  2  1  1  1
  2  3  1  0
  4  5  2  0
  4  3  1  0
  6  5  1  0
  7  8  2  0
  7  6  1  0
  8  4  1  0
  9  2  1  0
  9 11  1  0
 10  9  2  0
 12 11  1  0
 12 13  1  1
 13 14  1  0
 14 15  1  0
 16 15  1  0
 16 17  1  0
 18 12  1  0
 19 18  2  0
 21 20  1  6
 21 23  1  0
 22 21  1  0
 23 25  1  0
 23 24  1  6
 24 18  1  0
 25 27  1  0
 26 25  2  0
M  END
$$$$
