HKV.pdb
     RDKit          3D

 27 27  0  0  1  0  0  0  0  0999 V2000
    6.3666  -16.3760   19.6273 N   0  0  0  0  0  0  0  0  0  0  0  0
    7.2872  -15.7062   20.5081 C   0  0  1  0  0  0  0  0  0  0  0  0
    7.3243  -14.2073   20.2225 C   0  0  0  0  0  0  0  0  0  0  0  0
    7.9905  -13.9939   18.9099 C   0  0  0  0  0  0  0  0  0  0  0  0
    7.4339  -13.3529   17.8280 C   0  0  0  0  0  0  0  0  0  0  0  0
    8.3051  -13.3344   16.8038 N   0  0  0  0  0  0  0  0  0  0  0  0
    9.4132  -13.9760   17.2704 C   0  0  0  0  0  0  0  0  0  0  0  0
    9.2097  -14.3666   18.5368 N   0  0  0  0  0  0  0  0  0  0  0  0
    6.8657  -15.8576   21.9173 C   0  0  0  0  0  0  0  0  0  0  0  0
    5.7645  -15.3845   22.2711 O   0  0  0  0  0  0  0  0  0  0  0  0
    7.7207  -16.5348   22.8298 N   0  0  0  0  0  0  0  0  0  0  0  0
    7.3795  -16.6973   24.1986 C   0  0  1  0  0  0  0  0  0  0  0  0
    7.7096  -18.0499   24.7314 C   0  0  0  0  0  0  0  0  0  0  0  0
    7.4810  -18.3340   26.1568 C   0  0  0  0  0  0  0  0  0  0  0  0
    7.9102  -19.6964   26.6112 C   0  0  0  0  0  0  0  0  0  0  0  0
    7.7879  -19.8162   28.1355 C   0  0  0  0  0  0  0  0  0  0  0  0
    9.0742  -19.5077   28.6927 N   0  0  0  0  0  0  0  0  0  0  0  0
    8.1154  -15.6537   25.0136 C   0  0  0  0  0  0  0  0  0  0  0  0
    9.3757  -15.5635   24.9484 O   0  0  0  0  0  0  0  0  0  0  0  0
    6.8905  -11.9198   25.7804 C   0  0  0  0  0  0  0  0  0  0  0  0
    7.2818  -12.6432   27.0520 C   0  0  1  0  0  0  0  0  0  0  0  0
    6.0616  -13.0800   27.8271 C   0  0  0  0  0  0  0  0  0  0  0  0
    8.1710  -13.8108   26.6819 C   0  0  2  0  0  0  0  0  0  0  0  0
    7.4287  -14.7626   25.8582 N   0  0  0  0  0  0  0  0  0  0  0  0
    8.6133  -14.4391   27.9537 C   0  0  0  0  0  0  0  0  0  0  0  0
    8.2527  -15.5569   28.3381 O   0  0  0  0  0  0  0  0  0  0  0  0
    9.4861  -13.7219   28.7570 O   0  0  0  0  0  0  0  0  0  0  0  0
  2  1  1  6
  2  3  1  0
  4  5  2  0
  4  3  1  0
  6  5  1  0
  7  8  2  0
  7  6  1  0
  8  4  1  0
  9  2  1  0
  9 11  1  0
 10  9  2  0
 12 11  1  0
 12 13  1  1
 13 14  1  0
 14 15  1  0
 16 15  1  0
 16 17  1  0
 18 12  1  0
 19 18  2  0
 21 20  1  6
 21 23  1  0
 22 21  1  0
 23 25  1  0
 23 24  1  6
 24 18  1  0
 25 27  1  0
 26 25  2  0
M  END
$$$$
