HKV.pdb
     RDKit          3D

 27 27  0  0  1  0  0  0  0  0999 V2000
    8.8461  -16.1609   20.0676 N   0  0  0  0  0  0  0  0  0  0  0  0
    8.0988  -15.0179   20.5227 C   0  0  1  0  0  0  0  0  0  0  0  0
    6.9687  -14.6826   19.5531 C   0  0  0  0  0  0  0  0  0  0  0  0
    7.5575  -14.4397   18.2089 C   0  0  0  0  0  0  0  0  0  0  0  0
    8.2457  -13.3104   17.8320 C   0  0  0  0  0  0  0  0  0  0  0  0
    8.6405  -13.4162   16.5509 N   0  0  0  0  0  0  0  0  0  0  0  0
    8.1842  -14.6327   16.1396 C   0  0  0  0  0  0  0  0  0  0  0  0
    7.5355  -15.2362   17.1460 N   0  0  0  0  0  0  0  0  0  0  0  0
    7.4658  -15.2946   21.8301 C   0  0  0  0  0  0  0  0  0  0  0  0
    6.5628  -14.5319   22.2358 O   0  0  0  0  0  0  0  0  0  0  0  0
    7.8990  -16.4166   22.5888 N   0  0  0  0  0  0  0  0  0  0  0  0
    7.4783  -16.6241   23.9291 C   0  0  1  0  0  0  0  0  0  0  0  0
    7.8758  -17.9543   24.4720 C   0  0  0  0  0  0  0  0  0  0  0  0
    7.5775  -18.2729   25.8771 C   0  0  0  0  0  0  0  0  0  0  0  0
    7.9352  -19.6646   26.3041 C   0  0  0  0  0  0  0  0  0  0  0  0
    7.5411  -19.8939   27.7685 C   0  0  0  0  0  0  0  0  0  0  0  0
    7.7569  -21.2833   28.0564 N   0  0  0  0  0  0  0  0  0  0  0  0
    8.0725  -15.5380   24.8022 C   0  0  0  0  0  0  0  0  0  0  0  0
    9.3197  -15.3258   24.7985 O   0  0  0  0  0  0  0  0  0  0  0  0
    5.6446  -13.1773   27.3535 C   0  0  0  0  0  0  0  0  0  0  0  0
    6.7789  -12.5456   26.5740 C   0  0  1  0  0  0  0  0  0  0  0  0
    7.3252  -11.3350   27.2926 C   0  0  0  0  0  0  0  0  0  0  0  0
    7.8411  -13.5983   26.3406 C   0  0  2  0  0  0  0  0  0  0  0  0
    7.2656  -14.7408   25.6343 N   0  0  0  0  0  0  0  0  0  0  0  0
    8.3532  -14.0010   27.6761 C   0  0  0  0  0  0  0  0  0  0  0  0
    9.0041  -13.2614   28.4220 O   0  0  0  0  0  0  0  0  0  0  0  0
    8.0811  -15.2896   28.1086 O   0  0  0  0  0  0  0  0  0  0  0  0
  2  1  1  6
  2  3  1  0
  4  5  2  0
  4  3  1  0
  6  5  1  0
  7  8  2  0
  7  6  1  0
  8  4  1  0
  9  2  1  0
  9 11  1  0
 10  9  2  0
 12 11  1  0
 12 13  1  1
 13 14  1  0
 14 15  1  0
 16 15  1  0
 16 17  1  0
 18 12  1  0
 19 18  2  0
 21 20  1  1
 21 23  1  0
 22 21  1  0
 23 25  1  0
 23 24  1  1
 24 18  1  0
 25 27  1  0
 26 25  2  0
M  END
$$$$
