HKV.pdb
     RDKit          3D

 27 27  0  0  1  0  0  0  0  0999 V2000
    8.9631  -15.6642   20.0517 N   0  0  0  0  0  0  0  0  0  0  0  0
    8.0051  -14.6723   20.4644 C   0  0  1  0  0  0  0  0  0  0  0  0
    6.8537  -14.5764   19.4671 C   0  0  0  0  0  0  0  0  0  0  0  0
    7.4235  -14.3946   18.1052 C   0  0  0  0  0  0  0  0  0  0  0  0
    8.2036  -13.3363   17.7019 C   0  0  0  0  0  0  0  0  0  0  0  0
    8.5495  -13.4833   16.4108 N   0  0  0  0  0  0  0  0  0  0  0  0
    7.9694  -14.6529   16.0201 C   0  0  0  0  0  0  0  0  0  0  0  0
    7.2963  -15.1892   17.0483 N   0  0  0  0  0  0  0  0  0  0  0  0
    7.4067  -15.0343   21.7672 C   0  0  0  0  0  0  0  0  0  0  0  0
    6.4582  -14.3490   22.2059 O   0  0  0  0  0  0  0  0  0  0  0  0
    7.9238  -16.1481   22.4843 N   0  0  0  0  0  0  0  0  0  0  0  0
    7.4871  -16.4632   23.7983 C   0  0  1  0  0  0  0  0  0  0  0  0
    7.7081  -17.8908   24.1660 C   0  0  0  0  0  0  0  0  0  0  0  0
    7.3583  -18.3441   25.5214 C   0  0  0  0  0  0  0  0  0  0  0  0
    7.6288  -19.7922   25.7980 C   0  0  0  0  0  0  0  0  0  0  0  0
    7.2150  -20.1506   27.2308 C   0  0  0  0  0  0  0  0  0  0  0  0
    7.4802  -21.5492   27.4147 N   0  0  0  0  0  0  0  0  0  0  0  0
    8.2250  -15.5806   24.7840 C   0  0  0  0  0  0  0  0  0  0  0  0
    9.4770  -15.4250   24.6898 O   0  0  0  0  0  0  0  0  0  0  0  0
    7.1722  -12.0093   25.8417 C   0  0  0  0  0  0  0  0  0  0  0  0
    7.4082  -12.8365   27.0880 C   0  0  1  0  0  0  0  0  0  0  0  0
    6.1017  -13.2645   27.7127 C   0  0  0  0  0  0  0  0  0  0  0  0
    8.2781  -14.0186   26.7179 C   0  0  2  0  0  0  0  0  0  0  0  0
    7.5492  -14.9142   25.8223 N   0  0  0  0  0  0  0  0  0  0  0  0
    8.6352  -14.7076   27.9850 C   0  0  0  0  0  0  0  0  0  0  0  0
    8.2565  -15.8443   28.2878 O   0  0  0  0  0  0  0  0  0  0  0  0
    9.4452  -14.0282   28.8815 O   0  0  0  0  0  0  0  0  0  0  0  0
  2  1  1  6
  2  3  1  0
  4  5  2  0
  4  3  1  0
  6  5  1  0
  7  8  2  0
  7  6  1  0
  8  4  1  0
  9  2  1  0
  9 11  1  0
 10  9  2  0
 12 11  1  0
 12 13  1  1
 13 14  1  0
 14 15  1  0
 16 15  1  0
 16 17  1  0
 18 12  1  0
 19 18  2  0
 21 20  1  6
 21 23  1  0
 22 21  1  0
 23 25  1  0
 23 24  1  6
 24 18  1  0
 25 27  1  0
 26 25  2  0
M  END
$$$$
