HKV.pdb
     RDKit          3D

 27 27  0  0  1  0  0  0  0  0999 V2000
    6.0164  -16.3395   19.7429 N   0  0  0  0  0  0  0  0  0  0  0  0
    7.0729  -15.8609   20.5954 C   0  0  1  0  0  0  0  0  0  0  0  0
    7.2962  -14.3636   20.4008 C   0  0  0  0  0  0  0  0  0  0  0  0
    8.0131  -14.1572   19.1140 C   0  0  0  0  0  0  0  0  0  0  0  0
    7.6117  -13.3152   18.1036 C   0  0  0  0  0  0  0  0  0  0  0  0
    8.4865  -13.3678   17.0837 N   0  0  0  0  0  0  0  0  0  0  0  0
    9.4387  -14.2586   17.4801 C   0  0  0  0  0  0  0  0  0  0  0  0
    9.1412  -14.7246   18.7016 N   0  0  0  0  0  0  0  0  0  0  0  0
    6.7236  -16.0546   22.0191 C   0  0  0  0  0  0  0  0  0  0  0  0
    5.5963  -15.6914   22.4177 O   0  0  0  0  0  0  0  0  0  0  0  0
    7.6754  -16.6467   22.8942 N   0  0  0  0  0  0  0  0  0  0  0  0
    7.4299  -16.7874   24.2857 C   0  0  1  0  0  0  0  0  0  0  0  0
    7.8404  -18.1152   24.8249 C   0  0  0  0  0  0  0  0  0  0  0  0
    7.7077  -18.3751   26.2670 C   0  0  0  0  0  0  0  0  0  0  0  0
    8.1310  -19.7434   26.7089 C   0  0  0  0  0  0  0  0  0  0  0  0
    8.0322  -19.8685   28.2344 C   0  0  0  0  0  0  0  0  0  0  0  0
    8.5599  -21.1543   28.5926 N   0  0  0  0  0  0  0  0  0  0  0  0
    8.1810  -15.7008   25.0275 C   0  0  0  0  0  0  0  0  0  0  0  0
    9.4334  -15.5830   24.8922 O   0  0  0  0  0  0  0  0  0  0  0  0
    7.2436  -11.9187   25.3028 C   0  0  0  0  0  0  0  0  0  0  0  0
    7.4245  -12.5026   26.6883 C   0  0  1  0  0  0  0  0  0  0  0  0
    6.0909  -12.7735   27.3432 C   0  0  0  0  0  0  0  0  0  0  0  0
    8.2678  -13.7541   26.5719 C   0  0  2  0  0  0  0  0  0  0  0  0
    7.5173  -14.7996   25.8796 N   0  0  0  0  0  0  0  0  0  0  0  0
    8.6138  -14.1739   27.9545 C   0  0  0  0  0  0  0  0  0  0  0  0
    8.1838  -15.1974   28.4976 O   0  0  0  0  0  0  0  0  0  0  0  0
    9.4743  -13.3627   28.6777 O   0  0  0  0  0  0  0  0  0  0  0  0
  2  1  1  6
  2  3  1  0
  4  5  2  0
  4  3  1  0
  6  5  1  0
  7  8  2  0
  7  6  1  0
  8  4  1  0
  9  2  1  0
  9 11  1  0
 10  9  2  0
 12 11  1  0
 12 13  1  1
 13 14  1  0
 14 15  1  0
 16 15  1  0
 16 17  1  0
 18 12  1  0
 19 18  2  0
 21 20  1  6
 21 23  1  0
 22 21  1  0
 23 25  1  0
 23 24  1  1
 24 18  1  0
 25 27  1  0
 26 25  2  0
M  END
$$$$
