HKV.pdb
     RDKit          3D

 27 27  0  0  1  0  0  0  0  0999 V2000
    6.9398  -16.9535   19.6370 N   0  0  0  0  0  0  0  0  0  0  0  0
    7.4063  -15.8738   20.4667 C   0  0  1  0  0  0  0  0  0  0  0  0
    6.7862  -14.5470   20.0368 C   0  0  0  0  0  0  0  0  0  0  0  0
    7.4717  -14.0850   18.8003 C   0  0  0  0  0  0  0  0  0  0  0  0
    8.3795  -13.0545   18.7294 C   0  0  0  0  0  0  0  0  0  0  0  0
    8.8054  -12.9005   17.4632 N   0  0  0  0  0  0  0  0  0  0  0  0
    8.1447  -13.8550   16.7493 C   0  0  0  0  0  0  0  0  0  0  0  0
    7.3472  -14.5589   17.5656 N   0  0  0  0  0  0  0  0  0  0  0  0
    7.0105  -16.0886   21.8751 C   0  0  0  0  0  0  0  0  0  0  0  0
    5.7970  -16.0553   22.1717 O   0  0  0  0  0  0  0  0  0  0  0  0
    8.0166  -16.3265   22.8515 N   0  0  0  0  0  0  0  0  0  0  0  0
    7.6990  -16.5502   24.2174 C   0  0  1  0  0  0  0  0  0  0  0  0
    8.1591  -17.8762   24.7196 C   0  0  0  0  0  0  0  0  0  0  0  0
    7.9606  -18.2135   26.1379 C   0  0  0  0  0  0  0  0  0  0  0  0
    8.5250  -19.5354   26.5630 C   0  0  0  0  0  0  0  0  0  0  0  0
    8.1141  -19.8547   28.0059 C   0  0  0  0  0  0  0  0  0  0  0  0
    8.7586  -21.0839   28.3714 N   0  0  0  0  0  0  0  0  0  0  0  0
    8.3360  -15.4588   25.0529 C   0  0  0  0  0  0  0  0  0  0  0  0
    9.5709  -15.2072   24.9419 O   0  0  0  0  0  0  0  0  0  0  0  0
    6.9034  -11.8736   25.6183 C   0  0  0  0  0  0  0  0  0  0  0  0
    7.2300  -12.5012   26.9572 C   0  0  1  0  0  0  0  0  0  0  0  0
    5.9781  -12.9759   27.6557 C   0  0  0  0  0  0  0  0  0  0  0  0
    8.2172  -13.6255   26.7285 C   0  0  2  0  0  0  0  0  0  0  0  0
    7.5832  -14.6999   25.9674 N   0  0  0  0  0  0  0  0  0  0  0  0
    8.6473  -14.1040   28.0679 C   0  0  0  0  0  0  0  0  0  0  0  0
    8.3254  -15.1945   28.5519 O   0  0  0  0  0  0  0  0  0  0  0  0
    9.4615  -13.2705   28.8188 O   0  0  0  0  0  0  0  0  0  0  0  0
  2  1  1  6
  2  3  1  0
  4  5  2  0
  4  3  1  0
  6  5  1  0
  7  8  2  0
  7  6  1  0
  8  4  1  0
  9  2  1  0
  9 11  1  0
 10  9  2  0
 12 11  1  0
 12 13  1  1
 13 14  1  0
 14 15  1  0
 16 15  1  0
 16 17  1  0
 18 12  1  0
 19 18  2  0
 21 20  1  6
 21 23  1  0
 22 21  1  0
 23 25  1  0
 23 24  1  1
 24 18  1  0
 25 27  1  0
 26 25  2  0
M  END
$$$$
