DMN.pdb
     RDKit          3D

 25 24  0  0  1  0  0  0  0  0999 V2000
   32.5181  -28.0036  -19.7675 N   0  0  0  0  0  0  0  0  0  0  0  0
   31.9521  -28.0206  -18.4365 C   0  0  1  0  0  0  0  0  0  0  0  0
   32.2046  -26.6936  -17.7442 C   0  0  0  0  0  0  0  0  0  0  0  0
   33.6483  -26.5905  -17.4543 C   0  0  0  0  0  0  0  0  0  0  0  0
   34.0683  -25.6325  -16.7664 O   0  0  0  0  0  0  0  0  0  0  0  0
   30.4976  -28.2794  -18.5489 C   0  0  0  0  0  0  0  0  0  0  0  0
   29.8399  -27.6850  -19.4234 O   0  0  0  0  0  0  0  0  0  0  0  0
   34.5776  -27.5147  -17.9119 O   0  0  0  0  0  0  0  0  0  0  0  0
   28.1845  -33.9645  -16.7595 C   0  0  0  0  0  0  0  0  0  0  0  0
   26.7085  -33.0089  -16.3137 S   0  0  0  0  0  0  0  0  0  0  0  0
   26.8287  -31.3732  -17.0349 C   0  0  0  0  0  0  0  0  0  0  0  0
   28.1806  -30.8140  -17.1625 C   0  0  0  0  0  0  0  0  0  0  0  0
   28.3909  -29.4829  -17.7955 C   0  0  2  0  0  0  0  0  0  0  0  0
   29.8636  -29.1831  -17.6817 N   0  0  0  0  0  0  0  0  0  0  0  0
   27.7045  -28.4030  -17.1128 C   0  0  0  0  0  0  0  0  0  0  0  0
   28.2400  -27.9155  -16.0651 O   0  0  0  0  0  0  0  0  0  0  0  0
   26.4605  -23.1285  -16.9704 N   0  0  0  0  0  0  0  0  0  0  0  0
   26.5288  -24.3429  -16.2339 C   0  0  0  0  0  0  0  0  0  0  0  0
   26.2018  -24.2795  -15.0211 O   0  0  0  0  0  0  0  0  0  0  0  0
   26.9639  -25.5873  -16.8926 C   0  0  0  0  0  0  0  0  0  0  0  0
   25.8828  -26.6990  -16.7917 C   0  0  2  0  0  0  0  0  0  0  0  0
   26.4834  -27.8144  -17.5042 N   0  0  0  0  0  0  0  0  0  0  0  0
   24.6121  -26.2309  -17.2924 C   0  0  0  0  0  0  0  0  0  0  0  0
   24.2480  -26.2762  -18.4862 O   0  0  0  0  0  0  0  0  0  0  0  0
   23.6997  -25.6825  -16.4016 O   0  0  0  0  0  0  0  0  0  0  0  0
  2  1  1  6
  2  6  1  0
  2  3  1  0
  3  4  1  0
  4  5  2  0
  4  8  1  0
  6  7  2  0
  9 10  1  0
 10 11  1  0
 11 12  1  0
 13 12  1  1
 13 14  1  0
 14  6  1  0
 15 13  1  0
 16 15  2  0
 17 18  1  0
 18 20  1  0
 19 18  2  0
 21 20  1  6
 21 22  1  0
 21 23  1  0
 22 15  1  0
 23 25  1  0
 24 23  2  0
M  END
$$$$
