DMN.pdb
     RDKit          3D

 25 24  0  0  1  0  0  0  0  0999 V2000
   28.4268  -18.6644  -16.3259 N   0  0  0  0  0  0  0  0  0  0  0  0
   27.9834  -19.9763  -16.7437 C   0  0  1  0  0  0  0  0  0  0  0  0
   29.0785  -20.6718  -17.5316 C   0  0  0  0  0  0  0  0  0  0  0  0
   29.2238  -19.9828  -18.8290 C   0  0  0  0  0  0  0  0  0  0  0  0
   28.9580  -18.7619  -18.9075 O   0  0  0  0  0  0  0  0  0  0  0  0
   27.6350  -20.7600  -15.5354 C   0  0  0  0  0  0  0  0  0  0  0  0
   27.0418  -21.8471  -15.6658 O   0  0  0  0  0  0  0  0  0  0  0  0
   29.6460  -20.6285  -19.9830 O   0  0  0  0  0  0  0  0  0  0  0  0
   29.2904  -21.1634   -7.7778 C   0  0  0  0  0  0  0  0  0  0  0  0
   29.7679  -20.6894   -9.4624 S   0  0  0  0  0  0  0  0  0  0  0  0
   28.4381  -21.1066  -10.5884 C   0  0  0  0  0  0  0  0  0  0  0  0
   28.6378  -20.7434  -11.9972 C   0  0  0  0  0  0  0  0  0  0  0  0
   27.5921  -21.0494  -13.0118 C   0  0  2  0  0  0  0  0  0  0  0  0
   27.9676  -20.2866  -14.2564 N   0  0  0  0  0  0  0  0  0  0  0  0
   26.2698  -20.5861  -12.6372 C   0  0  0  0  0  0  0  0  0  0  0  0
   26.0329  -19.3358  -12.6861 O   0  0  0  0  0  0  0  0  0  0  0  0
   22.1108  -19.5072  -13.3514 N   0  0  0  0  0  0  0  0  0  0  0  0
   21.9702  -20.9214  -13.3030 C   0  0  0  0  0  0  0  0  0  0  0  0
   21.0577  -21.4164  -14.0130 O   0  0  0  0  0  0  0  0  0  0  0  0
   22.8655  -21.7278  -12.4545 C   0  0  0  0  0  0  0  0  0  0  0  0
   23.9325  -20.8477  -11.7462 C   0  0  2  0  0  0  0  0  0  0  0  0
   25.1899  -21.3961  -12.2265 N   0  0  0  0  0  0  0  0  0  0  0  0
   23.7388  -20.8519  -10.3154 C   0  0  0  0  0  0  0  0  0  0  0  0
   24.2974  -21.6319   -9.5158 O   0  0  0  0  0  0  0  0  0  0  0  0
   22.8698  -19.9276   -9.7524 O   0  0  0  0  0  0  0  0  0  0  0  0
  2  1  1  1
  2  6  1  0
  2  3  1  0
  3  4  1  0
  4  5  2  0
  4  8  1  0
  6  7  2  0
  9 10  1  0
 10 11  1  0
 11 12  1  0
 13 12  1  1
 13 14  1  0
 14  6  1  0
 15 13  1  0
 16 15  2  0
 17 18  1  0
 18 20  1  0
 19 18  2  0
 21 20  1  6
 21 22  1  0
 21 23  1  0
 22 15  1  0
 23 25  1  0
 24 23  2  0
M  END
$$$$
