DMN.pdb
     RDKit          3D

 25 24  0  0  1  0  0  0  0  0999 V2000
   19.4350  -11.8470  -17.1980 N   0  0  0  0  0  0  0  0  0  0  0  0
   18.7164  -11.0612  -16.2190 C   0  0  1  0  0  0  0  0  0  0  0  0
   17.9178  -11.9706  -15.3030 C   0  0  0  0  0  0  0  0  0  0  0  0
   16.8695  -12.6306  -16.1057 C   0  0  0  0  0  0  0  0  0  0  0  0
   16.3803  -12.0287  -17.0885 O   0  0  0  0  0  0  0  0  0  0  0  0
   19.6985  -10.2715  -15.4396 C   0  0  0  0  0  0  0  0  0  0  0  0
   19.3002   -9.5749  -14.4874 O   0  0  0  0  0  0  0  0  0  0  0  0
   16.3913  -13.9027  -15.8228 O   0  0  0  0  0  0  0  0  0  0  0  0
   26.2690  -10.5747  -16.9664 C   0  0  0  0  0  0  0  0  0  0  0  0
   26.1714  -10.3458  -15.1696 S   0  0  0  0  0  0  0  0  0  0  0  0
   24.6387   -9.5097  -14.7671 C   0  0  0  0  0  0  0  0  0  0  0  0
   23.4071  -10.1205  -15.2834 C   0  0  0  0  0  0  0  0  0  0  0  0
   22.0805   -9.5139  -14.9853 C   0  0  2  0  0  0  0  0  0  0  0  0
   21.0631  -10.3049  -15.7670 N   0  0  0  0  0  0  0  0  0  0  0  0
   21.9581   -8.1408  -15.4359 C   0  0  0  0  0  0  0  0  0  0  0  0
   22.1268   -7.8955  -16.6742 O   0  0  0  0  0  0  0  0  0  0  0  0
   21.2807   -3.0253  -15.8606 N   0  0  0  0  0  0  0  0  0  0  0  0
   20.1206   -3.8065  -15.6039 C   0  0  0  0  0  0  0  0  0  0  0  0
   19.0149   -3.2174  -15.7148 O   0  0  0  0  0  0  0  0  0  0  0  0
   20.2493   -5.2265  -15.2311 C   0  0  0  0  0  0  0  0  0  0  0  0
   21.7378   -5.6565  -15.1123 C   0  0  2  0  0  0  0  0  0  0  0  0
   21.6526   -7.0245  -14.6288 N   0  0  0  0  0  0  0  0  0  0  0  0
   22.4784   -4.7322  -14.2867 C   0  0  0  0  0  0  0  0  0  0  0  0
   23.0668   -3.7107  -14.6994 O   0  0  0  0  0  0  0  0  0  0  0  0
   22.5615   -4.9687  -12.9214 O   0  0  0  0  0  0  0  0  0  0  0  0
  2  1  1  6
  2  6  1  0
  2  3  1  0
  3  4  1  0
  4  5  2  0
  4  8  1  0
  6  7  2  0
  9 10  1  0
 10 11  1  0
 11 12  1  0
 13 12  1  6
 13 14  1  0
 14  6  1  0
 15 13  1  0
 16 15  2  0
 17 18  1  0
 18 20  1  0
 19 18  2  0
 21 20  1  1
 21 22  1  0
 21 23  1  0
 22 15  1  0
 23 25  1  0
 24 23  2  0
M  END
$$$$
