DMN.pdb
     RDKit          3D

 25 24  0  0  1  0  0  0  0  0999 V2000
   27.9509  -18.2402  -16.4241 N   0  0  0  0  0  0  0  0  0  0  0  0
   26.7240  -17.7612  -15.8261 C   0  0  1  0  0  0  0  0  0  0  0  0
   26.0911  -16.7014  -16.7093 C   0  0  0  0  0  0  0  0  0  0  0  0
   27.1714  -15.9633  -17.3927 C   0  0  0  0  0  0  0  0  0  0  0  0
   28.3548  -16.3514  -17.2646 O   0  0  0  0  0  0  0  0  0  0  0  0
   25.8057  -18.9114  -15.6555 C   0  0  0  0  0  0  0  0  0  0  0  0
   25.8197  -19.8307  -16.4954 O   0  0  0  0  0  0  0  0  0  0  0  0
   26.9392  -14.8448  -18.1814 O   0  0  0  0  0  0  0  0  0  0  0  0
   28.6740  -23.3655  -13.7276 C   0  0  0  0  0  0  0  0  0  0  0  0
   27.2929  -22.6313  -12.8091 S   0  0  0  0  0  0  0  0  0  0  0  0
   26.2574  -21.7096  -13.9442 C   0  0  0  0  0  0  0  0  0  0  0  0
   25.0850  -21.0428  -13.3634 C   0  0  0  0  0  0  0  0  0  0  0  0
   24.1772  -20.2298  -14.2188 C   0  0  2  0  0  0  0  0  0  0  0  0
   24.9280  -18.9686  -14.5614 N   0  0  0  0  0  0  0  0  0  0  0  0
   22.9668  -19.8081  -13.5401 C   0  0  0  0  0  0  0  0  0  0  0  0
   22.9905  -18.7131  -12.8903 O   0  0  0  0  0  0  0  0  0  0  0  0
   18.5785  -17.6528  -15.7414 N   0  0  0  0  0  0  0  0  0  0  0  0
   19.3186  -17.8890  -14.5504 C   0  0  0  0  0  0  0  0  0  0  0  0
   18.9080  -17.3078  -13.5134 O   0  0  0  0  0  0  0  0  0  0  0  0
   20.4968  -18.7740  -14.5717 C   0  0  0  0  0  0  0  0  0  0  0  0
   20.4548  -19.8141  -13.4179 C   0  0  2  0  0  0  0  0  0  0  0  0
   21.7339  -20.4943  -13.5347 N   0  0  0  0  0  0  0  0  0  0  0  0
   19.2782  -20.6453  -13.5139 C   0  0  0  0  0  0  0  0  0  0  0  0
   18.2873  -20.5804  -12.7564 O   0  0  0  0  0  0  0  0  0  0  0  0
   19.2114  -21.6017  -14.5177 O   0  0  0  0  0  0  0  0  0  0  0  0
  2  1  1  6
  2  6  1  0
  2  3  1  0
  3  4  1  0
  4  5  2  0
  4  8  1  0
  6  7  2  0
  9 10  1  0
 10 11  1  0
 11 12  1  0
 13 12  1  1
 13 14  1  0
 14  6  1  0
 15 13  1  0
 16 15  2  0
 17 18  1  0
 18 20  1  0
 19 18  2  0
 21 20  1  6
 21 22  1  0
 21 23  1  0
 22 15  1  0
 23 25  1  0
 24 23  2  0
M  END
$$$$
