DMN.pdb
     RDKit          3D

 25 24  0  0  1  0  0  0  0  0999 V2000
   20.2007  -11.3236  -16.7037 N   0  0  0  0  0  0  0  0  0  0  0  0
   20.1247   -9.8808  -16.7731 C   0  0  1  0  0  0  0  0  0  0  0  0
   19.3187   -9.4577  -17.9878 C   0  0  0  0  0  0  0  0  0  0  0  0
   20.1146   -9.7504  -19.1959 C   0  0  0  0  0  0  0  0  0  0  0  0
   20.9802  -10.6540  -19.1554 O   0  0  0  0  0  0  0  0  0  0  0  0
   19.4897   -9.3845  -15.5298 C   0  0  0  0  0  0  0  0  0  0  0  0
   18.5814  -10.0531  -15.0021 O   0  0  0  0  0  0  0  0  0  0  0  0
   19.9503   -9.0653  -20.3920 O   0  0  0  0  0  0  0  0  0  0  0  0
   21.2661   -5.9987   -8.7819 C   0  0  0  0  0  0  0  0  0  0  0  0
   21.7541   -6.4964  -10.4566 S   0  0  0  0  0  0  0  0  0  0  0  0
   20.2814   -6.8054  -11.4293 C   0  0  0  0  0  0  0  0  0  0  0  0
   20.4867   -7.4211  -12.7466 C   0  0  0  0  0  0  0  0  0  0  0  0
   19.3291   -7.6905  -13.6433 C   0  0  2  0  0  0  0  0  0  0  0  0
   19.9037   -8.1751  -14.9497 N   0  0  0  0  0  0  0  0  0  0  0  0
   18.5530   -6.5062  -13.9575 C   0  0  0  0  0  0  0  0  0  0  0  0
   19.0708   -5.6328  -14.7262 O   0  0  0  0  0  0  0  0  0  0  0  0
   15.8075   -5.1077  -16.4754 N   0  0  0  0  0  0  0  0  0  0  0  0
   14.8316   -5.5325  -15.5324 C   0  0  0  0  0  0  0  0  0  0  0  0
   13.7564   -5.9819  -16.0056 O   0  0  0  0  0  0  0  0  0  0  0  0
   15.1039   -5.4354  -14.0874 C   0  0  0  0  0  0  0  0  0  0  0  0
   16.5620   -4.9771  -13.8071 C   0  0  2  0  0  0  0  0  0  0  0  0
   17.2496   -6.2201  -13.4994 N   0  0  0  0  0  0  0  0  0  0  0  0
   16.5960   -3.9582  -12.7846 C   0  0  0  0  0  0  0  0  0  0  0  0
   16.4850   -4.1655  -11.5580 O   0  0  0  0  0  0  0  0  0  0  0  0
   16.7650   -2.6331  -13.1619 O   0  0  0  0  0  0  0  0  0  0  0  0
  2  1  1  1
  2  6  1  0
  2  3  1  0
  3  4  1  0
  4  5  2  0
  4  8  1  0
  6  7  2  0
  9 10  1  0
 10 11  1  0
 11 12  1  0
 13 12  1  1
 13 14  1  0
 14  6  1  0
 15 13  1  0
 16 15  2  0
 17 18  1  0
 18 20  1  0
 19 18  2  0
 21 20  1  1
 21 22  1  0
 21 23  1  0
 22 15  1  0
 23 25  1  0
 24 23  2  0
M  END
$$$$
