DMN.pdb
     RDKit          3D

 25 24  0  0  1  0  0  0  0  0999 V2000
   27.4036  -19.6000  -15.8537 N   0  0  0  0  0  0  0  0  0  0  0  0
   27.0053  -20.9512  -16.1823 C   0  0  1  0  0  0  0  0  0  0  0  0
   28.2314  -21.8225  -16.3860 C   0  0  0  0  0  0  0  0  0  0  0  0
   28.9667  -21.3185  -17.5625 C   0  0  0  0  0  0  0  0  0  0  0  0
   29.9658  -21.9490  -17.9770 O   0  0  0  0  0  0  0  0  0  0  0  0
   26.1726  -21.4767  -15.0752 C   0  0  0  0  0  0  0  0  0  0  0  0
   25.7507  -22.6468  -15.1341 O   0  0  0  0  0  0  0  0  0  0  0  0
   28.6021  -20.1646  -18.2427 O   0  0  0  0  0  0  0  0  0  0  0  0
   25.0636  -20.7288   -7.3406 C   0  0  0  0  0  0  0  0  0  0  0  0
   26.0486  -20.4571   -8.8393 S   0  0  0  0  0  0  0  0  0  0  0  0
   25.0838  -20.9376  -10.2706 C   0  0  0  0  0  0  0  0  0  0  0  0
   25.7409  -20.7997  -11.5767 C   0  0  0  0  0  0  0  0  0  0  0  0
   25.0286  -21.1872  -12.8254 C   0  0  2  0  0  0  0  0  0  0  0  0
   25.8601  -20.6687  -13.9706 N   0  0  0  0  0  0  0  0  0  0  0  0
   23.7232  -20.5700  -12.9618 C   0  0  0  0  0  0  0  0  0  0  0  0
   23.6603  -19.3934  -13.4449 O   0  0  0  0  0  0  0  0  0  0  0  0
   18.9108  -21.1312  -14.4583 N   0  0  0  0  0  0  0  0  0  0  0  0
   20.0346  -20.6950  -15.2124 C   0  0  0  0  0  0  0  0  0  0  0  0
   19.8529  -20.5420  -16.4475 O   0  0  0  0  0  0  0  0  0  0  0  0
   21.3251  -20.4464  -14.5455 C   0  0  0  0  0  0  0  0  0  0  0  0
   21.2086  -20.5784  -13.0016 C   0  0  2  0  0  0  0  0  0  0  0  0
   22.4862  -21.1556  -12.6184 N   0  0  0  0  0  0  0  0  0  0  0  0
   20.0320  -21.3305  -12.6346 C   0  0  0  0  0  0  0  0  0  0  0  0
   18.8541  -20.9466  -12.7924 O   0  0  0  0  0  0  0  0  0  0  0  0
   20.1883  -22.5839  -12.0590 O   0  0  0  0  0  0  0  0  0  0  0  0
  2  1  1  1
  2  6  1  0
  2  3  1  0
  3  4  1  0
  4  5  2  0
  4  8  1  0
  6  7  2  0
  9 10  1  0
 10 11  1  0
 11 12  1  0
 13 12  1  1
 13 14  1  0
 14  6  1  0
 15 13  1  0
 16 15  2  0
 17 18  1  0
 18 20  1  0
 19 18  2  0
 21 20  1  6
 21 22  1  0
 21 23  1  0
 22 15  1  0
 23 25  1  0
 24 23  2  0
M  END
$$$$
