YSS.pdb
     RDKit          3D

 25 25  0  0  1  0  0  0  0  0999 V2000
   20.3848  -15.1420  -19.7362 O   0  0  0  0  0  0  0  0  0  0  0  0
   20.2175  -13.9103  -19.1376 C   0  0  0  0  0  0  0  0  0  0  0  0
   21.1658  -13.3254  -18.3269 C   0  0  0  0  0  0  0  0  0  0  0  0
   20.9759  -12.0948  -17.7404 C   0  0  0  0  0  0  0  0  0  0  0  0
   19.7996  -11.4009  -17.9575 C   0  0  0  0  0  0  0  0  0  0  0  0
   19.5343  -10.0898  -17.3652 C   0  0  0  0  0  0  0  0  0  0  0  0
   19.3028  -10.1025  -15.8916 C   0  0  2  0  0  0  0  0  0  0  0  0
   18.1047  -10.8381  -15.5475 N   0  0  0  0  0  0  0  0  0  0  0  0
   19.1805   -8.6651  -15.4559 C   0  0  0  0  0  0  0  0  0  0  0  0
   18.0770   -8.0669  -15.5091 O   0  0  0  0  0  0  0  0  0  0  0  0
   18.8287  -11.9656  -18.7685 C   0  0  0  0  0  0  0  0  0  0  0  0
   19.0529  -13.2113  -19.3458 C   0  0  0  0  0  0  0  0  0  0  0  0
   22.6048   -6.5226  -14.3133 O   0  0  0  0  0  0  0  0  0  0  0  0
   21.4471   -6.3426  -13.6029 C   0  0  0  0  0  0  0  0  0  0  0  0
   20.2036   -6.5837  -14.4679 C   0  0  2  0  0  0  0  0  0  0  0  0
   20.2958   -7.9298  -14.9705 N   0  0  0  0  0  0  0  0  0  0  0  0
   20.1074   -5.5753  -15.5482 C   0  0  0  0  0  0  0  0  0  0  0  0
   20.6564   -5.7665  -16.6641 O   0  0  0  0  0  0  0  0  0  0  0  0
   17.6987   -2.3034  -17.9038 O   0  0  0  0  0  0  0  0  0  0  0  0
   17.8404   -3.2297  -16.8725 C   0  0  0  0  0  0  0  0  0  0  0  0
   19.2876   -3.3647  -16.4474 C   0  0  2  0  0  0  0  0  0  0  0  0
   19.3992   -4.3443  -15.3964 N   0  0  0  0  0  0  0  0  0  0  0  0
   19.9028   -2.0811  -16.1141 C   0  0  0  0  0  0  0  0  0  0  0  0
   20.2412   -1.1313  -17.0525 O   0  0  0  0  0  0  0  0  0  0  0  0
   20.1556   -1.7882  -14.8965 O   0  0  0  0  0  0  0  0  0  0  0  0
  1  2  1  0
  2 12  2  0
  3  4  2  0
  3  2  1  0
  4  5  1  0
  5 11  2  0
  6  5  1  0
  7  8  1  6
  7  9  1  0
  7  6  1  0
  9 10  2  0
 12 11  1  0
 13 14  1  0
 15 14  1  6
 15 17  1  0
 16  9  1  0
 16 15  1  0
 17 18  2  0
 17 22  1  0
 19 20  1  0
 21 20  1  1
 22 21  1  0
 23 21  1  0
 23 24  1  0
 25 23  2  0
M  END
$$$$
