YSS.pdb
     RDKit          3D

 25 25  0  0  1  0  0  0  0  0999 V2000
   29.7651  -25.6368  -23.1651 O   0  0  0  0  0  0  0  0  0  0  0  0
   29.2976  -25.2787  -21.9175 C   0  0  0  0  0  0  0  0  0  0  0  0
   29.2806  -26.1358  -20.8386 C   0  0  0  0  0  0  0  0  0  0  0  0
   28.8090  -25.7554  -19.6028 C   0  0  0  0  0  0  0  0  0  0  0  0
   28.3297  -24.4724  -19.4120 C   0  0  0  0  0  0  0  0  0  0  0  0
   27.8149  -24.0040  -18.1252 C   0  0  0  0  0  0  0  0  0  0  0  0
   28.7179  -23.0715  -17.3903 C   0  0  2  0  0  0  0  0  0  0  0  0
   29.9081  -23.7458  -16.9172 N   0  0  0  0  0  0  0  0  0  0  0  0
   27.9286  -22.5222  -16.2301 C   0  0  0  0  0  0  0  0  0  0  0  0
   27.9470  -23.0918  -15.1105 O   0  0  0  0  0  0  0  0  0  0  0  0
   28.3350  -23.5897  -20.4796 C   0  0  0  0  0  0  0  0  0  0  0  0
   28.8188  -24.0067  -21.7156 C   0  0  0  0  0  0  0  0  0  0  0  0
   26.3424  -18.6638  -16.4622 O   0  0  0  0  0  0  0  0  0  0  0  0
   26.7680  -19.2357  -15.2920 C   0  0  0  0  0  0  0  0  0  0  0  0
   26.4504  -20.7354  -15.2414 C   0  0  2  0  0  0  0  0  0  0  0  0
   27.1367  -21.3480  -16.3491 N   0  0  0  0  0  0  0  0  0  0  0  0
   24.9882  -20.9676  -15.2757 C   0  0  0  0  0  0  0  0  0  0  0  0
   24.3916  -21.1842  -16.3621 O   0  0  0  0  0  0  0  0  0  0  0  0
   22.5141  -20.0890  -12.0100 O   0  0  0  0  0  0  0  0  0  0  0  0
   22.2222  -21.2600  -12.7066 C   0  0  0  0  0  0  0  0  0  0  0  0
   22.7565  -21.2070  -14.1226 C   0  0  2  0  0  0  0  0  0  0  0  0
   24.1762  -20.9608  -14.1007 N   0  0  0  0  0  0  0  0  0  0  0  0
   22.0174  -20.2754  -14.9730 C   0  0  0  0  0  0  0  0  0  0  0  0
   20.7390  -20.5096  -15.4293 O   0  0  0  0  0  0  0  0  0  0  0  0
   22.5534  -19.1732  -15.3335 O   0  0  0  0  0  0  0  0  0  0  0  0
  1  2  1  0
  2 12  2  0
  3  4  2  0
  3  2  1  0
  4  5  1  0
  5 11  2  0
  6  5  1  0
  7  8  1  1
  7  9  1  0
  7  6  1  0
  9 10  2  0
 12 11  1  0
 13 14  1  0
 15 14  1  6
 15 17  1  0
 16  9  1  0
 16 15  1  0
 17 18  2  0
 17 22  1  0
 19 20  1  0
 21 20  1  1
 22 21  1  0
 23 21  1  0
 23 24  1  0
 25 23  2  0
M  END
$$$$
