YSS.pdb
     RDKit          3D

 25 25  0  0  1  0  0  0  0  0999 V2000
   20.7323  -17.9020  -17.8417 O   0  0  0  0  0  0  0  0  0  0  0  0
   20.6270  -16.5371  -17.6699 C   0  0  0  0  0  0  0  0  0  0  0  0
   20.3411  -15.9445  -16.4592 C   0  0  0  0  0  0  0  0  0  0  0  0
   20.2411  -14.5796  -16.3124 C   0  0  0  0  0  0  0  0  0  0  0  0
   20.4303  -13.7524  -17.4043 C   0  0  0  0  0  0  0  0  0  0  0  0
   20.3385  -12.2949  -17.3173 C   0  0  0  0  0  0  0  0  0  0  0  0
   18.9551  -11.7463  -17.4199 C   0  0  2  0  0  0  0  0  0  0  0  0
   18.3588  -12.0438  -18.7048 N   0  0  0  0  0  0  0  0  0  0  0  0
   19.0598  -10.2563  -17.2213 C   0  0  0  0  0  0  0  0  0  0  0  0
   19.3086   -9.4928  -18.1874 O   0  0  0  0  0  0  0  0  0  0  0  0
   20.7191  -14.3215  -18.6339 C   0  0  0  0  0  0  0  0  0  0  0  0
   20.8129  -15.7049  -18.7473 C   0  0  0  0  0  0  0  0  0  0  0  0
   17.8691   -8.5709  -13.5877 O   0  0  0  0  0  0  0  0  0  0  0  0
   17.7674   -7.8942  -14.7748 C   0  0  0  0  0  0  0  0  0  0  0  0
   18.9232   -8.2321  -15.7249 C   0  0  2  0  0  0  0  0  0  0  0  0
   18.8837   -9.6543  -15.9458 N   0  0  0  0  0  0  0  0  0  0  0  0
   20.2168   -7.7758  -15.1668 C   0  0  0  0  0  0  0  0  0  0  0  0
   20.9208   -8.5382  -14.4554 O   0  0  0  0  0  0  0  0  0  0  0  0
   22.8414   -5.5695  -17.0384 O   0  0  0  0  0  0  0  0  0  0  0  0
   22.6348   -5.0133  -15.7776 C   0  0  0  0  0  0  0  0  0  0  0  0
   21.9851   -6.0061  -14.8366 C   0  0  2  0  0  0  0  0  0  0  0  0
   20.7390   -6.4662  -15.3954 N   0  0  0  0  0  0  0  0  0  0  0  0
   21.8577   -5.4951  -13.4728 C   0  0  0  0  0  0  0  0  0  0  0  0
   22.8792   -5.5243  -12.5492 O   0  0  0  0  0  0  0  0  0  0  0  0
   20.7539   -4.9863  -13.0793 O   0  0  0  0  0  0  0  0  0  0  0  0
  1  2  1  0
  2 12  2  0
  3  4  2  0
  3  2  1  0
  4  5  1  0
  5 11  2  0
  6  5  1  0
  7  8  1  6
  7  9  1  0
  7  6  1  0
  9 10  2  0
 12 11  1  0
 13 14  1  0
 15 14  1  1
 15 17  1  0
 16  9  1  0
 16 15  1  0
 17 18  2  0
 17 22  1  0
 19 20  1  0
 21 20  1  6
 22 21  1  0
 23 21  1  0
 23 24  1  0
 25 23  2  0
M  END
$$$$
