YSS.pdb
     RDKit          3D

 25 25  0  0  1  0  0  0  0  0999 V2000
   24.1360  -13.9144  -21.1641 O   0  0  0  0  0  0  0  0  0  0  0  0
   23.5399  -14.8205  -20.3114 C   0  0  0  0  0  0  0  0  0  0  0  0
   23.5010  -16.1767  -20.5520 C   0  0  0  0  0  0  0  0  0  0  0  0
   22.9001  -17.0617  -19.6859 C   0  0  0  0  0  0  0  0  0  0  0  0
   22.3073  -16.5973  -18.5260 C   0  0  0  0  0  0  0  0  0  0  0  0
   21.6522  -17.4832  -17.5635 C   0  0  0  0  0  0  0  0  0  0  0  0
   22.4458  -17.7689  -16.3331 C   0  0  2  0  0  0  0  0  0  0  0  0
   23.6691  -18.4782  -16.6418 N   0  0  0  0  0  0  0  0  0  0  0  0
   21.5698  -18.5994  -15.4311 C   0  0  0  0  0  0  0  0  0  0  0  0
   21.6677  -19.8518  -15.4119 O   0  0  0  0  0  0  0  0  0  0  0  0
   22.3317  -15.2382  -18.2590 C   0  0  0  0  0  0  0  0  0  0  0  0
   22.9476  -14.3711  -19.1559 C   0  0  0  0  0  0  0  0  0  0  0  0
   19.0633  -16.8012  -12.4802 O   0  0  0  0  0  0  0  0  0  0  0  0
   19.7148  -17.9998  -12.3519 C   0  0  0  0  0  0  0  0  0  0  0  0
   19.7648  -18.7669  -13.6792 C   0  0  2  0  0  0  0  0  0  0  0  0
   20.6041  -18.0097  -14.5709 N   0  0  0  0  0  0  0  0  0  0  0  0
   18.4021  -18.9792  -14.2188 C   0  0  0  0  0  0  0  0  0  0  0  0
   17.8581  -18.1213  -14.9612 O   0  0  0  0  0  0  0  0  0  0  0  0
   15.9992  -22.3208  -13.0834 O   0  0  0  0  0  0  0  0  0  0  0  0
   15.9270  -21.8071  -14.3766 C   0  0  0  0  0  0  0  0  0  0  0  0
   16.2823  -20.3352  -14.4059 C   0  0  2  0  0  0  0  0  0  0  0  0
   17.6321  -20.1486  -13.9369 N   0  0  0  0  0  0  0  0  0  0  0  0
   15.3039  -19.5018  -13.7094 C   0  0  0  0  0  0  0  0  0  0  0  0
   13.9709  -19.4431  -14.0518 O   0  0  0  0  0  0  0  0  0  0  0  0
   15.6671  -18.7740  -12.7243 O   0  0  0  0  0  0  0  0  0  0  0  0
  1  2  1  0
  2 12  2  0
  3  4  2  0
  3  2  1  0
  4  5  1  0
  5 11  2  0
  6  5  1  0
  7  8  1  6
  7  9  1  0
  7  6  1  0
  9 10  2  0
 12 11  1  0
 13 14  1  0
 15 14  1  1
 15 17  1  0
 16  9  1  0
 16 15  1  0
 17 18  2  0
 17 22  1  0
 19 20  1  0
 21 20  1  1
 22 21  1  0
 23 21  1  0
 23 24  1  0
 25 23  2  0
M  END
$$$$
