YSS.pdb
     RDKit          3D

 25 25  0  0  1  0  0  0  0  0999 V2000
   20.1940  -21.5704   -9.1580 O   0  0  0  0  0  0  0  0  0  0  0  0
   21.3550  -21.2168   -9.8140 C   0  0  0  0  0  0  0  0  0  0  0  0
   21.5489  -21.4004  -11.1659 C   0  0  0  0  0  0  0  0  0  0  0  0
   22.7168  -21.0393  -11.7984 C   0  0  0  0  0  0  0  0  0  0  0  0
   23.7472  -20.4701  -11.0728 C   0  0  0  0  0  0  0  0  0  0  0  0
   25.0133  -20.0636  -11.6827 C   0  0  0  0  0  0  0  0  0  0  0  0
   25.9757  -21.1761  -11.9306 C   0  0  2  0  0  0  0  0  0  0  0  0
   26.6492  -21.5779  -10.7141 N   0  0  0  0  0  0  0  0  0  0  0  0
   26.9730  -20.6740  -12.9424 C   0  0  0  0  0  0  0  0  0  0  0  0
   27.9476  -19.9639  -12.5898 O   0  0  0  0  0  0  0  0  0  0  0  0
   23.5793  -20.2739   -9.7117 C   0  0  0  0  0  0  0  0  0  0  0  0
   22.3859  -20.6503   -9.1037 C   0  0  0  0  0  0  0  0  0  0  0  0
   27.0166  -22.1288  -16.9635 O   0  0  0  0  0  0  0  0  0  0  0  0
   28.1018  -21.7981  -16.1951 C   0  0  0  0  0  0  0  0  0  0  0  0
   27.8247  -20.5742  -15.3131 C   0  0  2  0  0  0  0  0  0  0  0  0
   26.8573  -20.9779  -14.3261 N   0  0  0  0  0  0  0  0  0  0  0  0
   27.3644  -19.4275  -16.1294 C   0  0  0  0  0  0  0  0  0  0  0  0
   26.1441  -19.1287  -16.1974 O   0  0  0  0  0  0  0  0  0  0  0  0
   30.0339  -17.2514  -18.5948 O   0  0  0  0  0  0  0  0  0  0  0  0
   28.9710  -16.5789  -17.9949 C   0  0  0  0  0  0  0  0  0  0  0  0
   27.8147  -17.5153  -17.7131 C   0  0  2  0  0  0  0  0  0  0  0  0
   28.2584  -18.6027  -16.8779 N   0  0  0  0  0  0  0  0  0  0  0  0
   27.1328  -17.9561  -18.9287 C   0  0  0  0  0  0  0  0  0  0  0  0
   26.4241  -17.1114  -19.7543 O   0  0  0  0  0  0  0  0  0  0  0  0
   27.1737  -19.1845  -19.2773 O   0  0  0  0  0  0  0  0  0  0  0  0
  1  2  1  0
  2 12  2  0
  3  4  2  0
  3  2  1  0
  4  5  1  0
  5 11  2  0
  6  5  1  0
  7  8  1  1
  7  9  1  0
  7  6  1  0
  9 10  2  0
 12 11  1  0
 13 14  1  0
 15 14  1  6
 15 17  1  0
 16  9  1  0
 16 15  1  0
 17 18  2  0
 17 22  1  0
 19 20  1  0
 21 20  1  6
 22 21  1  0
 23 21  1  0
 23 24  1  0
 25 23  2  0
M  END
$$$$
