EVK.pdb
     RDKit          3D

 26 25  0  0  1  0  0  0  0  0999 V2000
   21.4242  -20.8560  -14.8148 N   0  0  0  0  0  0  0  0  0  0  0  0
   20.5063  -20.4876  -13.7985 C   0  0  1  0  0  0  0  0  0  0  0  0
   19.0975  -20.4079  -14.2123 C   0  0  0  0  0  0  0  0  0  0  0  0
   18.9120  -19.5651  -15.4327 C   0  0  0  0  0  0  0  0  0  0  0  0
   17.6806  -18.8004  -15.5550 C   0  0  0  0  0  0  0  0  0  0  0  0
   17.5633  -17.5896  -15.3288 O   0  0  0  0  0  0  0  0  0  0  0  0
   20.7261  -21.3874  -12.6144 C   0  0  0  0  0  0  0  0  0  0  0  0
   21.0145  -22.5661  -12.8763 O   0  0  0  0  0  0  0  0  0  0  0  0
   16.5387  -19.4907  -15.9608 O   0  0  0  0  0  0  0  0  0  0  0  0
   21.1105  -19.5058   -8.8550 C   0  0  0  0  0  0  0  0  0  0  0  0
   21.8363  -20.8167   -9.1961 C   0  0  2  0  0  0  0  0  0  0  0  0
   23.1279  -20.3790   -9.8581 C   0  0  0  0  0  0  0  0  0  0  0  0
   20.9196  -21.6139  -10.0710 C   0  0  2  0  0  0  0  0  0  0  0  0
   20.6152  -20.9340  -11.3083 N   0  0  0  0  0  0  0  0  0  0  0  0
   19.7241  -22.1791   -9.4741 C   0  0  0  0  0  0  0  0  0  0  0  0
   18.6333  -21.5347   -9.6564 O   0  0  0  0  0  0  0  0  0  0  0  0
   19.6662  -23.3575   -8.7288 N   0  0  0  0  0  0  0  0  0  0  0  0
   18.3357  -23.7505   -8.1449 C   0  0  1  0  0  0  0  0  0  0  0  0
   17.9104  -24.9851   -8.8474 C   0  0  0  0  0  0  0  0  0  0  0  0
   16.6612  -25.6719   -8.5993 C   0  0  0  0  0  0  0  0  0  0  0  0
   16.2938  -26.9449   -9.2384 C   0  0  0  0  0  0  0  0  0  0  0  0
   14.9260  -27.4544   -8.9172 C   0  0  0  0  0  0  0  0  0  0  0  0
   14.6370  -28.7303   -9.5302 N   0  0  0  0  0  0  0  0  0  0  0  0
   18.5592  -23.9153   -6.6871 C   0  0  0  0  0  0  0  0  0  0  0  0
   19.6432  -23.9443   -6.0895 O   0  0  0  0  0  0  0  0  0  0  0  0
   17.4322  -24.0599   -5.8381 O   0  0  0  0  0  0  0  0  0  0  0  0
  2  1  1  6
  2  7  1  0
  3  4  1  0
  3  2  1  0
  5  4  1  0
  6  5  2  0
  7  8  2  0
  9  5  1  0
 11 10  1  6
 11 12  1  0
 13 11  1  0
 14  7  1  0
 13 14  1  6
 15 13  1  0
 15 16  2  0
 17 15  1  0
 18 17  1  0
 18 19  1  6
 20 21  1  0
 20 19  1  0
 22 23  1  0
 22 21  1  0
 24 26  1  0
 24 18  1  0
 25 24  2  0
M  END
$$$$
