EVK.pdb
     RDKit          3D

 26 25  0  0  1  0  0  0  0  0999 V2000
   28.3961  -21.2082  -16.2054 N   0  0  0  0  0  0  0  0  0  0  0  0
   27.8179  -20.2516  -15.3326 C   0  0  1  0  0  0  0  0  0  0  0  0
   27.4169  -18.9819  -15.9565 C   0  0  0  0  0  0  0  0  0  0  0  0
   27.7578  -18.9324  -17.4110 C   0  0  0  0  0  0  0  0  0  0  0  0
   28.9297  -18.1702  -17.8133 C   0  0  0  0  0  0  0  0  0  0  0  0
   29.0268  -16.9370  -17.7860 O   0  0  0  0  0  0  0  0  0  0  0  0
   26.7038  -20.9168  -14.5737 C   0  0  0  0  0  0  0  0  0  0  0  0
   26.0010  -21.7062  -15.2249 O   0  0  0  0  0  0  0  0  0  0  0  0
   30.0342  -18.8907  -18.2672 O   0  0  0  0  0  0  0  0  0  0  0  0
   24.7182  -21.8062  -10.1086 C   0  0  0  0  0  0  0  0  0  0  0  0
   25.8798  -21.2159  -10.9234 C   0  0  2  0  0  0  0  0  0  0  0  0
   26.1141  -19.8452  -10.3196 C   0  0  0  0  0  0  0  0  0  0  0  0
   25.4527  -21.2067  -12.3582 C   0  0  2  0  0  0  0  0  0  0  0  0
   26.4710  -20.6681  -13.2291 N   0  0  0  0  0  0  0  0  0  0  0  0
   24.1459  -20.6645  -12.6794 C   0  0  0  0  0  0  0  0  0  0  0  0
   24.0704  -19.3939  -12.8150 O   0  0  0  0  0  0  0  0  0  0  0  0
   22.9776  -21.4074  -12.8548 N   0  0  0  0  0  0  0  0  0  0  0  0
   21.7272  -20.6630  -13.2394 C   0  0  1  0  0  0  0  0  0  0  0  0
   21.1783  -21.3430  -14.4373 C   0  0  0  0  0  0  0  0  0  0  0  0
   19.9844  -20.9195  -15.1365 C   0  0  0  0  0  0  0  0  0  0  0  0
   19.4333  -21.6258  -16.3033 C   0  0  0  0  0  0  0  0  0  0  0  0
   18.2868  -20.9489  -16.9823 C   0  0  0  0  0  0  0  0  0  0  0  0
   17.6506  -21.7756  -17.9818 N   0  0  0  0  0  0  0  0  0  0  0  0
   20.8431  -20.7017  -12.0480 C   0  0  0  0  0  0  0  0  0  0  0  0
   20.8517  -21.5324  -11.1300 O   0  0  0  0  0  0  0  0  0  0  0  0
   19.8584  -19.6917  -11.8985 O   0  0  0  0  0  0  0  0  0  0  0  0
  2  1  1  6
  2  7  1  0
  3  4  1  0
  3  2  1  0
  5  4  1  0
  6  5  2  0
  7  8  2  0
  9  5  1  0
 11 10  1  1
 11 12  1  0
 13 11  1  0
 14  7  1  0
 13 14  1  6
 15 13  1  0
 15 16  2  0
 17 15  1  0
 18 17  1  0
 18 19  1  6
 20 21  1  0
 20 19  1  0
 22 23  1  0
 22 21  1  0
 24 26  1  0
 24 18  1  0
 25 24  2  0
M  END
$$$$
