EVK.pdb
     RDKit          3D

 26 25  0  0  1  0  0  0  0  0999 V2000
   18.7148  -10.6414  -14.4286 N   0  0  0  0  0  0  0  0  0  0  0  0
   17.8598   -9.5315  -14.2090 C   0  0  1  0  0  0  0  0  0  0  0  0
   16.4222   -9.7942  -14.3717 C   0  0  0  0  0  0  0  0  0  0  0  0
   16.0772  -10.2185  -15.7627 C   0  0  0  0  0  0  0  0  0  0  0  0
   14.6724  -10.4004  -16.0938 C   0  0  0  0  0  0  0  0  0  0  0  0
   13.8130   -9.5102  -16.0860 O   0  0  0  0  0  0  0  0  0  0  0  0
   18.2045   -8.9256  -12.8772 C   0  0  0  0  0  0  0  0  0  0  0  0
   18.3616   -9.7270  -11.9422 O   0  0  0  0  0  0  0  0  0  0  0  0
   14.2619  -11.6851  -16.4490 O   0  0  0  0  0  0  0  0  0  0  0  0
   20.0410   -5.2094  -12.6395 C   0  0  0  0  0  0  0  0  0  0  0  0
   19.9719   -6.2112  -11.4763 C   0  0  2  0  0  0  0  0  0  0  0  0
   21.0968   -7.1909  -11.7466 C   0  0  0  0  0  0  0  0  0  0  0  0
   18.5997   -6.8096  -11.4900 C   0  0  2  0  0  0  0  0  0  0  0  0
   18.3404   -7.5568  -12.6984 N   0  0  0  0  0  0  0  0  0  0  0  0
   17.4775   -5.9554  -11.1494 C   0  0  0  0  0  0  0  0  0  0  0  0
   16.7837   -5.5044  -12.1260 O   0  0  0  0  0  0  0  0  0  0  0  0
   17.0943   -5.5925   -9.8575 N   0  0  0  0  0  0  0  0  0  0  0  0
   15.9258   -4.6547   -9.7126 C   0  0  1  0  0  0  0  0  0  0  0  0
   15.1780   -5.0893   -8.5083 C   0  0  0  0  0  0  0  0  0  0  0  0
   14.0260   -4.3963   -7.9731 C   0  0  0  0  0  0  0  0  0  0  0  0
   13.3224   -4.8147   -6.7509 C   0  0  0  0  0  0  0  0  0  0  0  0
   12.1959   -3.9307   -6.3228 C   0  0  0  0  0  0  0  0  0  0  0  0
   11.4981   -4.4240   -5.1579 N   0  0  0  0  0  0  0  0  0  0  0  0
   16.5026   -3.2904   -9.6224 C   0  0  0  0  0  0  0  0  0  0  0  0
   17.6339   -2.9749   -9.2303 O   0  0  0  0  0  0  0  0  0  0  0  0
   15.7050   -2.1869  -10.0201 O   0  0  0  0  0  0  0  0  0  0  0  0
  2  1  1  1
  2  7  1  0
  3  4  1  0
  3  2  1  0
  5  4  1  0
  6  5  2  0
  7  8  2  0
  9  5  1  0
 11 10  1  6
 11 12  1  0
 13 11  1  0
 14  7  1  0
 13 14  1  6
 15 13  1  0
 15 16  2  0
 17 15  1  0
 18 17  1  0
 18 19  1  1
 20 21  1  0
 20 19  1  0
 22 23  1  0
 22 21  1  0
 24 26  1  0
 24 18  1  0
 25 24  2  0
M  END
$$$$
