EVK.pdb
     RDKit          3D

 26 25  0  0  1  0  0  0  0  0999 V2000
   28.2841  -22.0389  -16.0323 N   0  0  0  0  0  0  0  0  0  0  0  0
   27.1818  -21.1736  -15.8140 C   0  0  1  0  0  0  0  0  0  0  0  0
   26.5504  -20.6300  -17.0256 C   0  0  0  0  0  0  0  0  0  0  0  0
   27.4933  -19.7949  -17.8303 C   0  0  0  0  0  0  0  0  0  0  0  0
   27.8566  -18.4840  -17.3148 C   0  0  0  0  0  0  0  0  0  0  0  0
   27.0591  -17.5984  -16.9822 O   0  0  0  0  0  0  0  0  0  0  0  0
   26.2106  -21.8669  -14.8998 C   0  0  0  0  0  0  0  0  0  0  0  0
   26.2034  -23.1070  -14.9576 O   0  0  0  0  0  0  0  0  0  0  0  0
   29.2167  -18.2039  -17.1856 O   0  0  0  0  0  0  0  0  0  0  0  0
   24.7477  -19.8734  -11.4443 C   0  0  0  0  0  0  0  0  0  0  0  0
   24.8711  -21.3896  -11.6620 C   0  0  2  0  0  0  0  0  0  0  0  0
   26.3264  -21.7013  -11.3734 C   0  0  0  0  0  0  0  0  0  0  0  0
   24.4339  -21.6709  -13.0660 C   0  0  2  0  0  0  0  0  0  0  0  0
   25.3725  -21.1695  -14.0424 N   0  0  0  0  0  0  0  0  0  0  0  0
   23.0686  -21.3475  -13.4351 C   0  0  0  0  0  0  0  0  0  0  0  0
   22.8863  -20.2311  -14.0342 O   0  0  0  0  0  0  0  0  0  0  0  0
   21.9503  -22.1475  -13.1966 N   0  0  0  0  0  0  0  0  0  0  0  0
   20.6148  -21.6413  -13.6718 C   0  0  1  0  0  0  0  0  0  0  0  0
   19.7481  -22.8309  -13.8517 C   0  0  0  0  0  0  0  0  0  0  0  0
   18.3528  -22.7701  -14.2301 C   0  0  0  0  0  0  0  0  0  0  0  0
   17.4722  -23.9475  -14.2768 C   0  0  0  0  0  0  0  0  0  0  0  0
   16.1271  -23.7206  -14.8874 C   0  0  0  0  0  0  0  0  0  0  0  0
   15.3430  -24.9289  -14.9985 N   0  0  0  0  0  0  0  0  0  0  0  0
   20.1456  -20.6863  -12.6374 C   0  0  0  0  0  0  0  0  0  0  0  0
   20.4673  -20.6516  -11.4423 O   0  0  0  0  0  0  0  0  0  0  0  0
   19.2212  -19.6776  -13.0120 O   0  0  0  0  0  0  0  0  0  0  0  0
  2  1  1  6
  2  7  1  0
  3  4  1  0
  3  2  1  0
  5  4  1  0
  6  5  2  0
  7  8  2  0
  9  5  1  0
 11 10  1  6
 11 12  1  0
 13 11  1  0
 14  7  1  0
 13 14  1  6
 15 13  1  0
 15 16  2  0
 17 15  1  0
 18 17  1  0
 18 19  1  1
 20 21  1  0
 20 19  1  0
 22 23  1  0
 22 21  1  0
 24 26  1  0
 24 18  1  0
 25 24  2  0
M  END
$$$$
