EVK.pdb
     RDKit          3D

 26 25  0  0  1  0  0  0  0  0999 V2000
   28.1495  -21.9971  -15.9352 N   0  0  0  0  0  0  0  0  0  0  0  0
   27.2638  -20.9631  -15.5383 C   0  0  1  0  0  0  0  0  0  0  0  0
   26.6928  -20.1607  -16.6303 C   0  0  0  0  0  0  0  0  0  0  0  0
   27.7472  -19.5266  -17.4790 C   0  0  0  0  0  0  0  0  0  0  0  0
   27.7424  -18.0776  -17.6070 C   0  0  0  0  0  0  0  0  0  0  0  0
   26.8937  -17.4146  -18.2160 O   0  0  0  0  0  0  0  0  0  0  0  0
   26.2219  -21.5557  -14.6311 C   0  0  0  0  0  0  0  0  0  0  0  0
   25.7683  -22.6588  -14.9755 O   0  0  0  0  0  0  0  0  0  0  0  0
   28.7813  -17.3795  -16.9917 O   0  0  0  0  0  0  0  0  0  0  0  0
   25.2621  -19.6896  -10.7787 C   0  0  0  0  0  0  0  0  0  0  0  0
   25.2195  -21.1873  -11.1201 C   0  0  2  0  0  0  0  0  0  0  0  0
   26.6296  -21.6799  -10.8613 C   0  0  0  0  0  0  0  0  0  0  0  0
   24.7635  -21.3032  -12.5413 C   0  0  2  0  0  0  0  0  0  0  0  0
   25.7907  -20.9146  -13.4792 N   0  0  0  0  0  0  0  0  0  0  0  0
   23.4810  -20.7258  -12.8976 C   0  0  0  0  0  0  0  0  0  0  0  0
   23.4699  -19.4731  -13.1604 O   0  0  0  0  0  0  0  0  0  0  0  0
   22.2722  -21.4181  -12.9801 N   0  0  0  0  0  0  0  0  0  0  0  0
   21.0431  -20.6356  -13.3578 C   0  0  1  0  0  0  0  0  0  0  0  0
   20.6489  -21.0899  -14.7131 C   0  0  0  0  0  0  0  0  0  0  0  0
   19.5227  -20.5611  -15.4519 C   0  0  0  0  0  0  0  0  0  0  0  0
   19.3307  -19.1282  -15.7236 C   0  0  0  0  0  0  0  0  0  0  0  0
   18.1025  -18.7800  -16.5008 C   0  0  0  0  0  0  0  0  0  0  0  0
   17.8788  -17.3562  -16.6013 N   0  0  0  0  0  0  0  0  0  0  0  0
   20.0401  -20.9093  -12.2988 C   0  0  0  0  0  0  0  0  0  0  0  0
   19.9389  -21.9277  -11.6019 O   0  0  0  0  0  0  0  0  0  0  0  0
   19.0635  -19.9205  -12.0148 O   0  0  0  0  0  0  0  0  0  0  0  0
  2  1  1  6
  2  7  1  0
  3  4  1  0
  3  2  1  0
  5  4  1  0
  6  5  2  0
  7  8  2  0
  9  5  1  0
 11 10  1  6
 11 12  1  0
 13 11  1  0
 14  7  1  0
 13 14  1  6
 15 13  1  0
 15 16  2  0
 17 15  1  0
 18 17  1  0
 18 19  1  6
 20 21  1  0
 20 19  1  0
 22 23  1  0
 22 21  1  0
 24 26  1  0
 24 18  1  0
 25 24  2  0
M  END
$$$$
