EVK.pdb
     RDKit          3D

 26 25  0  0  1  0  0  0  0  0999 V2000
   23.7582  -18.7378  -16.1274 N   0  0  0  0  0  0  0  0  0  0  0  0
   22.9044  -19.8482  -15.9054 C   0  0  1  0  0  0  0  0  0  0  0  0
   23.5131  -21.1703  -16.1146 C   0  0  0  0  0  0  0  0  0  0  0  0
   23.8527  -21.4175  -17.5490 C   0  0  0  0  0  0  0  0  0  0  0  0
   24.9474  -20.6583  -18.1333 C   0  0  0  0  0  0  0  0  0  0  0  0
   26.1510  -20.8900  -17.9642 O   0  0  0  0  0  0  0  0  0  0  0  0
   22.2722  -19.6946  -14.5502 C   0  0  0  0  0  0  0  0  0  0  0  0
   23.0568  -19.5299  -13.6023 O   0  0  0  0  0  0  0  0  0  0  0  0
   24.6106  -19.5801  -18.9515 O   0  0  0  0  0  0  0  0  0  0  0  0
   18.3871  -18.1314  -12.0963 C   0  0  0  0  0  0  0  0  0  0  0  0
   19.3960  -18.1590  -13.2551 C   0  0  2  0  0  0  0  0  0  0  0  0
   18.5532  -17.9747  -14.5017 C   0  0  0  0  0  0  0  0  0  0  0  0
   20.1241  -19.4647  -13.1753 C   0  0  2  0  0  0  0  0  0  0  0  0
   20.8982  -19.7333  -14.3645 N   0  0  0  0  0  0  0  0  0  0  0  0
   19.3807  -20.6380  -12.7560 C   0  0  0  0  0  0  0  0  0  0  0  0
   18.7948  -21.3047  -13.6783 O   0  0  0  0  0  0  0  0  0  0  0  0
   19.2569  -21.0964  -11.4438 N   0  0  0  0  0  0  0  0  0  0  0  0
   18.4557  -22.3497  -11.2140 C   0  0  1  0  0  0  0  0  0  0  0  0
   18.7880  -22.8232   -9.8487 C   0  0  0  0  0  0  0  0  0  0  0  0
   18.2343  -24.0159   -9.2450 C   0  0  0  0  0  0  0  0  0  0  0  0
   18.4332  -24.3786   -7.8333 C   0  0  0  0  0  0  0  0  0  0  0  0
   17.6297  -25.5420   -7.3489 C   0  0  0  0  0  0  0  0  0  0  0  0
   17.8811  -25.8685   -5.9642 N   0  0  0  0  0  0  0  0  0  0  0  0
   17.0341  -21.9699  -11.4069 C   0  0  0  0  0  0  0  0  0  0  0  0
   16.5097  -20.8720  -11.1776 O   0  0  0  0  0  0  0  0  0  0  0  0
   16.1324  -22.9422  -11.9103 O   0  0  0  0  0  0  0  0  0  0  0  0
  2  1  1  1
  2  7  1  0
  3  4  1  0
  3  2  1  0
  5  4  1  0
  6  5  2  0
  7  8  2  0
  9  5  1  0
 11 10  1  1
 11 12  1  0
 13 11  1  0
 14  7  1  0
 13 14  1  6
 15 13  1  0
 15 16  2  0
 17 15  1  0
 18 17  1  0
 18 19  1  1
 20 21  1  0
 20 19  1  0
 22 23  1  0
 22 21  1  0
 24 26  1  0
 24 18  1  0
 25 24  2  0
M  END
$$$$
