EVK.pdb
     RDKit          3D

 26 25  0  0  1  0  0  0  0  0999 V2000
   16.1214  -23.0487    2.1276 N   0  0  0  0  0  0  0  0  0  0  0  0
   15.7219  -21.7143    2.3935 C   0  0  1  0  0  0  0  0  0  0  0  0
   14.3519  -21.5498    2.9016 C   0  0  0  0  0  0  0  0  0  0  0  0
   13.3226  -21.9741    1.9044 C   0  0  0  0  0  0  0  0  0  0  0  0
   13.1408  -21.1530    0.7175 C   0  0  0  0  0  0  0  0  0  0  0  0
   13.6698  -20.0522    0.5195 O   0  0  0  0  0  0  0  0  0  0  0  0
   16.7607  -21.0763    3.2730 C   0  0  0  0  0  0  0  0  0  0  0  0
   17.3951  -21.8488    4.0093 O   0  0  0  0  0  0  0  0  0  0  0  0
   12.3001  -21.6491   -0.2787 O   0  0  0  0  0  0  0  0  0  0  0  0
   17.7293  -17.0158    2.5536 C   0  0  0  0  0  0  0  0  0  0  0  0
   18.7314  -17.9886    3.1947 C   0  0  2  0  0  0  0  0  0  0  0  0
   19.4507  -18.6260    2.0223 C   0  0  0  0  0  0  0  0  0  0  0  0
   17.9436  -18.9391    4.0416 C   0  0  2  0  0  0  0  0  0  0  0  0
   17.0001  -19.7101    3.2663 N   0  0  0  0  0  0  0  0  0  0  0  0
   17.3341  -18.4297    5.2557 C   0  0  0  0  0  0  0  0  0  0  0  0
   16.1189  -18.0377    5.1656 O   0  0  0  0  0  0  0  0  0  0  0  0
   17.9565  -18.3369    6.5012 N   0  0  0  0  0  0  0  0  0  0  0  0
   17.1351  -17.8316    7.6570 C   0  0  1  0  0  0  0  0  0  0  0  0
   17.4001  -18.7414    8.7975 C   0  0  0  0  0  0  0  0  0  0  0  0
   17.0452  -20.1440    8.8176 C   0  0  0  0  0  0  0  0  0  0  0  0
   17.2974  -21.0288    9.9655 C   0  0  0  0  0  0  0  0  0  0  0  0
   16.9416  -22.4657    9.7600 C   0  0  0  0  0  0  0  0  0  0  0  0
   17.1988  -23.2859   10.9212 N   0  0  0  0  0  0  0  0  0  0  0  0
   17.5569  -16.4260    7.8775 C   0  0  0  0  0  0  0  0  0  0  0  0
   18.5549  -15.8574    7.4152 O   0  0  0  0  0  0  0  0  0  0  0  0
   16.7571  -15.5976    8.7057 O   0  0  0  0  0  0  0  0  0  0  0  0
  2  1  1  1
  2  7  1  0
  3  4  1  0
  3  2  1  0
  5  4  1  0
  6  5  2  0
  7  8  2  0
  9  5  1  0
 11 10  1  6
 11 12  1  0
 13 11  1  0
 14  7  1  0
 13 14  1  6
 15 13  1  0
 15 16  2  0
 17 15  1  0
 18 17  1  0
 18 19  1  1
 20 21  1  0
 20 19  1  0
 22 23  1  0
 22 21  1  0
 24 26  1  0
 24 18  1  0
 25 24  2  0
M  END
$$$$
