EVK.pdb
     RDKit          3D

 26 25  0  0  1  0  0  0  0  0999 V2000
   26.3700  -21.8783  -11.4895 N   0  0  0  0  0  0  0  0  0  0  0  0
   25.7233  -20.6574  -11.8095 C   0  0  1  0  0  0  0  0  0  0  0  0
   26.3446  -19.8717  -12.8861 C   0  0  0  0  0  0  0  0  0  0  0  0
   26.6534  -20.7032  -14.0891 C   0  0  0  0  0  0  0  0  0  0  0  0
   27.2339  -20.0415  -15.2472 C   0  0  0  0  0  0  0  0  0  0  0  0
   27.5721  -20.6009  -16.2977 O   0  0  0  0  0  0  0  0  0  0  0  0
   24.2669  -20.9426  -12.0489 C   0  0  0  0  0  0  0  0  0  0  0  0
   23.9977  -22.0871  -12.4474 O   0  0  0  0  0  0  0  0  0  0  0  0
   27.4245  -18.6623  -15.1648 O   0  0  0  0  0  0  0  0  0  0  0  0
   21.6470  -20.7336   -9.5514 C   0  0  0  0  0  0  0  0  0  0  0  0
   21.1767  -19.7386  -10.6239 C   0  0  2  0  0  0  0  0  0  0  0  0
   19.6660  -19.8654  -10.6286 C   0  0  0  0  0  0  0  0  0  0  0  0
   21.8444  -20.1246  -11.9071 C   0  0  2  0  0  0  0  0  0  0  0  0
   23.2807  -19.9901  -11.8389 N   0  0  0  0  0  0  0  0  0  0  0  0
   21.3230  -19.5715  -13.1429 C   0  0  0  0  0  0  0  0  0  0  0  0
   21.6232  -18.3534  -13.3970 O   0  0  0  0  0  0  0  0  0  0  0  0
   20.5325  -20.2530  -14.0693 N   0  0  0  0  0  0  0  0  0  0  0  0
   20.1541  -19.5276  -15.3328 C   0  0  1  0  0  0  0  0  0  0  0  0
   20.0930  -20.5476  -16.4073 C   0  0  0  0  0  0  0  0  0  0  0  0
   19.6544  -20.2781  -17.7596 C   0  0  0  0  0  0  0  0  0  0  0  0
   19.4824  -21.3230  -18.7807 C   0  0  0  0  0  0  0  0  0  0  0  0
   19.0149  -20.8450  -20.1174 C   0  0  0  0  0  0  0  0  0  0  0  0
   18.8379  -21.9143  -21.0726 N   0  0  0  0  0  0  0  0  0  0  0  0
   18.8636  -18.8524  -15.0483 C   0  0  0  0  0  0  0  0  0  0  0  0
   18.0552  -19.1201  -14.1495 O   0  0  0  0  0  0  0  0  0  0  0  0
   18.4662  -17.7691  -15.8732 O   0  0  0  0  0  0  0  0  0  0  0  0
  2  1  1  6
  2  7  1  0
  3  4  1  0
  3  2  1  0
  5  4  1  0
  6  5  2  0
  7  8  2  0
  9  5  1  0
 11 10  1  1
 11 12  1  0
 13 11  1  0
 14  7  1  0
 13 14  1  1
 15 13  1  0
 15 16  2  0
 17 15  1  0
 18 17  1  0
 18 19  1  6
 20 21  1  0
 20 19  1  0
 22 23  1  0
 22 21  1  0
 24 26  1  0
 24 18  1  0
 25 24  2  0
M  END
$$$$
