EVK.pdb
     RDKit          3D

 26 25  0  0  1  0  0  0  0  0999 V2000
   22.1442  -20.9495  -14.3408 N   0  0  0  0  0  0  0  0  0  0  0  0
   21.1886  -20.5179  -13.3860 C   0  0  1  0  0  0  0  0  0  0  0  0
   19.7957  -20.4741  -13.8553 C   0  0  0  0  0  0  0  0  0  0  0  0
   19.6406  -19.6531  -15.0946 C   0  0  0  0  0  0  0  0  0  0  0  0
   18.6027  -18.6340  -15.1144 C   0  0  0  0  0  0  0  0  0  0  0  0
   18.2879  -17.9504  -16.0965 O   0  0  0  0  0  0  0  0  0  0  0  0
   21.3675  -21.3339  -12.1362 C   0  0  0  0  0  0  0  0  0  0  0  0
   21.7111  -22.5148  -12.3053 O   0  0  0  0  0  0  0  0  0  0  0  0
   17.9059  -18.4100  -13.9272 O   0  0  0  0  0  0  0  0  0  0  0  0
   23.5516  -20.5233   -9.1642 C   0  0  0  0  0  0  0  0  0  0  0  0
   22.1115  -20.5791   -8.6308 C   0  0  2  0  0  0  0  0  0  0  0  0
   22.2432  -21.1409   -7.2289 C   0  0  0  0  0  0  0  0  0  0  0  0
   21.3228  -21.4292   -9.5776 C   0  0  2  0  0  0  0  0  0  0  0  0
   21.1631  -20.8053  -10.8703 N   0  0  0  0  0  0  0  0  0  0  0  0
   20.0717  -21.9951   -9.1090 C   0  0  0  0  0  0  0  0  0  0  0  0
   19.0218  -21.2827   -9.2784 O   0  0  0  0  0  0  0  0  0  0  0  0
   19.9205  -23.2410   -8.4990 N   0  0  0  0  0  0  0  0  0  0  0  0
   18.5377  -23.6400   -8.0579 C   0  0  1  0  0  0  0  0  0  0  0  0
   18.1830  -24.8608   -8.8211 C   0  0  0  0  0  0  0  0  0  0  0  0
   16.9431  -25.5888   -8.6591 C   0  0  0  0  0  0  0  0  0  0  0  0
   16.8497  -26.8932   -7.9855 C   0  0  0  0  0  0  0  0  0  0  0  0
   15.4885  -27.5099   -7.9643 C   0  0  0  0  0  0  0  0  0  0  0  0
   15.4737  -28.8332   -7.3847 N   0  0  0  0  0  0  0  0  0  0  0  0
   18.6143  -23.8310   -6.5882 C   0  0  0  0  0  0  0  0  0  0  0  0
   19.6340  -23.8984   -5.8892 O   0  0  0  0  0  0  0  0  0  0  0  0
   17.4067  -23.9559   -5.8546 O   0  0  0  0  0  0  0  0  0  0  0  0
  2  1  1  6
  2  7  1  0
  3  4  1  0
  3  2  1  0
  5  4  1  0
  6  5  2  0
  7  8  2  0
  9  5  1  0
 11 10  1  6
 11 12  1  0
 13 11  1  0
 14  7  1  0
 13 14  1  6
 15 13  1  0
 15 16  2  0
 17 15  1  0
 18 17  1  0
 18 19  1  6
 20 21  1  0
 20 19  1  0
 22 23  1  0
 22 21  1  0
 24 26  1  0
 24 18  1  0
 25 24  2  0
M  END
$$$$
