CEN.pdb
     RDKit          3D

 24 23  0  0  1  0  0  0  0  0999 V2000
   28.1869  -10.1734  -16.9282 N   0  0  0  0  0  0  0  0  0  0  0  0
   26.7532  -10.3976  -16.9308 C   0  0  1  0  0  0  0  0  0  0  0  0
   26.4129  -11.4432  -15.8611 C   0  0  0  0  0  0  0  0  0  0  0  0
   26.9921  -13.0655  -16.3725 S   0  0  0  0  0  0  0  0  0  0  0  0
   26.0344   -9.1291  -16.6632 C   0  0  0  0  0  0  0  0  0  0  0  0
   26.3597   -8.4481  -15.6668 O   0  0  0  0  0  0  0  0  0  0  0  0
   24.9929   -8.6786  -17.5120 N   0  0  0  0  0  0  0  0  0  0  0  0
   24.3123   -7.3879  -17.3002 C   0  0  1  0  0  0  0  0  0  0  0  0
   24.2005   -6.7055  -18.6164 C   0  0  0  0  0  0  0  0  0  0  0  0
   23.4386   -5.4482  -18.6881 C   0  0  0  0  0  0  0  0  0  0  0  0
   23.3936   -4.8321  -20.0360 C   0  0  0  0  0  0  0  0  0  0  0  0
   23.9639   -5.3855  -21.0039 O   0  0  0  0  0  0  0  0  0  0  0  0
   23.0330   -7.5810  -16.5946 C   0  0  0  0  0  0  0  0  0  0  0  0
   22.2905   -8.5422  -16.9004 O   0  0  0  0  0  0  0  0  0  0  0  0
   22.7293   -3.6356  -20.2827 O   0  0  0  0  0  0  0  0  0  0  0  0
   19.9950   -8.8660  -11.8678 N   0  0  0  0  0  0  0  0  0  0  0  0
   20.1835   -8.2398  -13.1170 C   0  0  0  0  0  0  0  0  0  0  0  0
   19.1152   -7.8472  -13.6990 O   0  0  0  0  0  0  0  0  0  0  0  0
   21.4445   -7.9921  -13.8089 C   0  0  0  0  0  0  0  0  0  0  0  0
   21.2952   -6.9221  -14.8493 C   0  0  2  0  0  0  0  0  0  0  0  0
   22.5736   -6.7246  -15.5608 N   0  0  0  0  0  0  0  0  0  0  0  0
   21.0474   -5.6181  -14.1717 C   0  0  0  0  0  0  0  0  0  0  0  0
   21.9573   -4.7191  -14.1581 O   0  0  0  0  0  0  0  0  0  0  0  0
   19.8745   -5.2735  -13.5284 O   0  0  0  0  0  0  0  0  0  0  0  0
  2  1  1  1
  3  4  1  0
  3  2  1  0
  5  2  1  0
  6  5  2  0
  7  5  1  0
  8  7  1  0
  8  9  1  6
  9 10  1  0
 10 11  1  0
 11 12  2  0
 11 15  1  0
 13  8  1  0
 14 13  2  0
 16 17  1  0
 17 18  2  0
 19 17  1  0
 20 19  1  1
 20 21  1  0
 21 13  1  0
 22 24  1  0
 22 20  1  0
 23 22  2  0
M  END
$$$$
