CEN.pdb
     RDKit          3D

 24 23  0  0  1  0  0  0  0  0999 V2000
   16.8386  -14.0746  -15.2407 N   0  0  0  0  0  0  0  0  0  0  0  0
   16.2156  -12.7685  -15.3490 C   0  0  1  0  0  0  0  0  0  0  0  0
   14.7671  -12.8676  -14.8537 C   0  0  0  0  0  0  0  0  0  0  0  0
   13.7323  -13.6289  -16.1100 S   0  0  0  0  0  0  0  0  0  0  0  0
   16.9695  -11.7721  -14.5513 C   0  0  0  0  0  0  0  0  0  0  0  0
   17.4351  -12.1123  -13.4423 O   0  0  0  0  0  0  0  0  0  0  0  0
   17.1699  -10.4504  -15.0215 N   0  0  0  0  0  0  0  0  0  0  0  0
   17.8201   -9.4154  -14.1969 C   0  0  1  0  0  0  0  0  0  0  0  0
   18.6116   -8.5383  -15.0995 C   0  0  0  0  0  0  0  0  0  0  0  0
   19.2651   -7.3520  -14.5232 C   0  0  0  0  0  0  0  0  0  0  0  0
   20.5465   -7.6307  -13.8312 C   0  0  0  0  0  0  0  0  0  0  0  0
   20.8407   -7.0238  -12.7761 O   0  0  0  0  0  0  0  0  0  0  0  0
   16.8288   -8.7107  -13.3649 C   0  0  0  0  0  0  0  0  0  0  0  0
   15.7233   -8.3831  -13.8542 O   0  0  0  0  0  0  0  0  0  0  0  0
   21.4620   -8.5605  -14.3120 O   0  0  0  0  0  0  0  0  0  0  0  0
   14.4770   -6.1909   -9.2640 N   0  0  0  0  0  0  0  0  0  0  0  0
   15.3998   -7.1815   -8.8698 C   0  0  0  0  0  0  0  0  0  0  0  0
   15.4486   -7.4152   -7.6140 O   0  0  0  0  0  0  0  0  0  0  0  0
   16.2917   -7.9595   -9.7239 C   0  0  0  0  0  0  0  0  0  0  0  0
   16.0600   -7.6565  -11.1744 C   0  0  2  0  0  0  0  0  0  0  0  0
   17.0505   -8.3689  -12.0058 N   0  0  0  0  0  0  0  0  0  0  0  0
   16.3446   -6.2144  -11.4201 C   0  0  0  0  0  0  0  0  0  0  0  0
   17.5075   -5.8465  -11.8054 O   0  0  0  0  0  0  0  0  0  0  0  0
   15.4290   -5.1918  -11.2640 O   0  0  0  0  0  0  0  0  0  0  0  0
  2  1  1  1
  3  4  1  0
  3  2  1  0
  5  2  1  0
  6  5  2  0
  7  5  1  0
  8  7  1  0
  8  9  1  6
  9 10  1  0
 10 11  1  0
 11 12  2  0
 11 15  1  0
 13  8  1  0
 14 13  2  0
 16 17  1  0
 17 18  2  0
 19 17  1  0
 20 19  1  1
 20 21  1  0
 21 13  1  0
 22 24  1  0
 22 20  1  0
 23 22  2  0
M  END
$$$$
