CEN.pdb
     RDKit          3D

 24 23  0  0  1  0  0  0  0  0999 V2000
   24.3185  -13.7731  -17.5458 N   0  0  0  0  0  0  0  0  0  0  0  0
   24.4601  -12.6973  -16.5822 C   0  0  1  0  0  0  0  0  0  0  0  0
   25.8946  -12.1578  -16.6488 C   0  0  0  0  0  0  0  0  0  0  0  0
   27.0452  -13.3715  -15.9916 S   0  0  0  0  0  0  0  0  0  0  0  0
   23.4861  -11.6178  -16.8710 C   0  0  0  0  0  0  0  0  0  0  0  0
   23.2872  -11.2844  -18.0591 O   0  0  0  0  0  0  0  0  0  0  0  0
   22.7817  -10.9626  -15.8304 N   0  0  0  0  0  0  0  0  0  0  0  0
   21.8069   -9.8894  -16.0987 C   0  0  1  0  0  0  0  0  0  0  0  0
   20.4792  -10.3399  -15.6043 C   0  0  0  0  0  0  0  0  0  0  0  0
   19.3392   -9.4168  -15.7260 C   0  0  0  0  0  0  0  0  0  0  0  0
   18.0444   -9.9742  -15.2662 C   0  0  0  0  0  0  0  0  0  0  0  0
   17.6481  -11.0846  -15.6881 O   0  0  0  0  0  0  0  0  0  0  0  0
   22.2721   -8.6084  -15.5381 C   0  0  0  0  0  0  0  0  0  0  0  0
   22.8926   -8.5920  -14.4502 O   0  0  0  0  0  0  0  0  0  0  0  0
   17.2270   -9.3032  -14.3631 O   0  0  0  0  0  0  0  0  0  0  0  0
   23.2812   -3.4141  -14.7894 N   0  0  0  0  0  0  0  0  0  0  0  0
   22.8256   -3.6967  -16.0935 C   0  0  0  0  0  0  0  0  0  0  0  0
   22.8277   -2.7056  -16.9006 O   0  0  0  0  0  0  0  0  0  0  0  0
   22.3600   -4.9770  -16.6173 C   0  0  0  0  0  0  0  0  0  0  0  0
   22.5206   -6.0719  -15.6048 C   0  0  2  0  0  0  0  0  0  0  0  0
   22.0571   -7.3554  -16.1681 N   0  0  0  0  0  0  0  0  0  0  0  0
   21.5964   -5.8169  -14.4640 C   0  0  0  0  0  0  0  0  0  0  0  0
   21.7918   -4.8167  -13.6910 O   0  0  0  0  0  0  0  0  0  0  0  0
   20.4986   -6.5943  -14.1490 O   0  0  0  0  0  0  0  0  0  0  0  0
  2  1  1  6
  3  4  1  0
  3  2  1  0
  5  2  1  0
  6  5  2  0
  7  5  1  0
  8  7  1  0
  8  9  1  1
  9 10  1  0
 10 11  1  0
 11 12  2  0
 11 15  1  0
 13  8  1  0
 14 13  2  0
 16 17  1  0
 17 18  2  0
 19 17  1  0
 20 19  1  6
 20 21  1  0
 21 13  1  0
 22 24  1  0
 22 20  1  0
 23 22  2  0
M  END
$$$$
