CEN.pdb
     RDKit          3D

 24 23  0  0  1  0  0  0  0  0999 V2000
   18.7294  -15.6330  -17.1311 N   0  0  0  0  0  0  0  0  0  0  0  0
   18.2241  -14.9059  -15.9814 C   0  0  1  0  0  0  0  0  0  0  0  0
   18.9467  -15.4040  -14.7232 C   0  0  0  0  0  0  0  0  0  0  0  0
   18.2424  -16.9654  -14.1802 S   0  0  0  0  0  0  0  0  0  0  0  0
   18.4378  -13.4499  -16.1601 C   0  0  0  0  0  0  0  0  0  0  0  0
   19.5030  -13.0543  -16.6808 O   0  0  0  0  0  0  0  0  0  0  0  0
   17.4619  -12.5062  -15.7537 N   0  0  0  0  0  0  0  0  0  0  0  0
   17.6561  -11.0547  -15.9254 C   0  0  1  0  0  0  0  0  0  0  0  0
   16.3389  -10.3897  -15.7434 C   0  0  0  0  0  0  0  0  0  0  0  0
   16.2834   -8.9205  -15.8122 C   0  0  0  0  0  0  0  0  0  0  0  0
   14.9223   -8.3491  -15.6736 C   0  0  0  0  0  0  0  0  0  0  0  0
   14.3533   -8.3333  -14.5582 O   0  0  0  0  0  0  0  0  0  0  0  0
   18.7242  -10.5616  -15.0378 C   0  0  0  0  0  0  0  0  0  0  0  0
   19.0909  -11.2522  -14.0593 O   0  0  0  0  0  0  0  0  0  0  0  0
   14.2288   -7.8147  -16.7540 O   0  0  0  0  0  0  0  0  0  0  0  0
   23.6849  -10.2156  -13.4934 N   0  0  0  0  0  0  0  0  0  0  0  0
   23.0523   -9.4816  -14.5177 C   0  0  0  0  0  0  0  0  0  0  0  0
   23.6796   -8.4399  -14.9119 O   0  0  0  0  0  0  0  0  0  0  0  0
   21.7800   -9.7754  -15.1696 C   0  0  0  0  0  0  0  0  0  0  0  0
   20.6627   -8.9722  -14.5728 C   0  0  2  0  0  0  0  0  0  0  0  0
   19.3842   -9.3195  -15.2243 N   0  0  0  0  0  0  0  0  0  0  0  0
   20.8662   -7.5344  -14.9079 C   0  0  0  0  0  0  0  0  0  0  0  0
   20.4013   -7.0581  -16.0002 O   0  0  0  0  0  0  0  0  0  0  0  0
   21.5399   -6.6268  -14.1136 O   0  0  0  0  0  0  0  0  0  0  0  0
  2  1  1  6
  3  4  1  0
  3  2  1  0
  5  2  1  0
  6  5  2  0
  7  5  1  0
  8  7  1  0
  8  9  1  1
  9 10  1  0
 10 11  1  0
 11 12  2  0
 11 15  1  0
 13  8  1  0
 14 13  2  0
 16 17  1  0
 17 18  2  0
 19 17  1  0
 20 19  1  6
 20 21  1  0
 21 13  1  0
 22 24  1  0
 22 20  1  0
 23 22  2  0
M  END
$$$$
