CEN.pdb
     RDKit          3D

 24 23  0  0  1  0  0  0  0  0999 V2000
   26.8218  -12.8063  -17.8552 N   0  0  0  0  0  0  0  0  0  0  0  0
   26.4031  -12.0405  -16.6959 C   0  0  1  0  0  0  0  0  0  0  0  0
   27.6020  -11.2402  -16.1711 C   0  0  0  0  0  0  0  0  0  0  0  0
   28.8420  -12.3512  -15.4952 S   0  0  0  0  0  0  0  0  0  0  0  0
   25.2898  -11.1306  -17.0562 C   0  0  0  0  0  0  0  0  0  0  0  0
   25.3236  -10.5396  -18.1571 O   0  0  0  0  0  0  0  0  0  0  0  0
   24.1957  -10.9213  -16.1802 N   0  0  0  0  0  0  0  0  0  0  0  0
   23.0529  -10.0638  -16.5446 C   0  0  1  0  0  0  0  0  0  0  0  0
   21.8042  -10.8316  -16.2960 C   0  0  0  0  0  0  0  0  0  0  0  0
   20.5150  -10.1443  -16.4756 C   0  0  0  0  0  0  0  0  0  0  0  0
   19.3251  -11.0000  -16.2507 C   0  0  0  0  0  0  0  0  0  0  0  0
   18.7667  -11.0251  -15.1301 O   0  0  0  0  0  0  0  0  0  0  0  0
   23.1291   -8.7673  -15.8482 C   0  0  0  0  0  0  0  0  0  0  0  0
   23.5530   -8.7154  -14.6707 O   0  0  0  0  0  0  0  0  0  0  0  0
   18.7851  -11.7977  -17.2536 O   0  0  0  0  0  0  0  0  0  0  0  0
   22.9226   -2.5846  -16.5035 N   0  0  0  0  0  0  0  0  0  0  0  0
   22.5029   -3.8325  -15.9987 C   0  0  0  0  0  0  0  0  0  0  0  0
   22.0616   -3.8171  -14.7991 O   0  0  0  0  0  0  0  0  0  0  0  0
   22.5148   -5.1211  -16.6839 C   0  0  0  0  0  0  0  0  0  0  0  0
   22.7649   -6.2469  -15.7249 C   0  0  2  0  0  0  0  0  0  0  0  0
   22.7428   -7.5376  -16.4413 N   0  0  0  0  0  0  0  0  0  0  0  0
   21.6216   -6.3362  -14.7732 C   0  0  0  0  0  0  0  0  0  0  0  0
   20.5278   -6.8922  -15.1346 O   0  0  0  0  0  0  0  0  0  0  0  0
   21.6329   -5.8534  -13.4789 O   0  0  0  0  0  0  0  0  0  0  0  0
  2  1  1  6
  3  4  1  0
  3  2  1  0
  5  2  1  0
  6  5  2  0
  7  5  1  0
  8  7  1  0
  8  9  1  1
  9 10  1  0
 10 11  1  0
 11 12  2  0
 11 15  1  0
 13  8  1  0
 14 13  2  0
 16 17  1  0
 17 18  2  0
 19 17  1  0
 20 19  1  6
 20 21  1  0
 21 13  1  0
 22 24  1  0
 22 20  1  0
 23 22  2  0
M  END
$$$$
