CEN.pdb
     RDKit          3D

 24 23  0  0  1  0  0  0  0  0999 V2000
   16.1955  -13.6568  -14.9686 N   0  0  0  0  0  0  0  0  0  0  0  0
   16.0023  -12.2288  -15.1402 C   0  0  1  0  0  0  0  0  0  0  0  0
   15.3837  -11.6549  -13.8591 C   0  0  0  0  0  0  0  0  0  0  0  0
   13.6703  -12.1753  -13.7101 S   0  0  0  0  0  0  0  0  0  0  0  0
   17.2959  -11.5670  -15.4331 C   0  0  0  0  0  0  0  0  0  0  0  0
   18.3376  -12.0156  -14.9076 O   0  0  0  0  0  0  0  0  0  0  0  0
   17.3710  -10.4429  -16.2927 N   0  0  0  0  0  0  0  0  0  0  0  0
   18.6521   -9.7900  -16.6190 C   0  0  1  0  0  0  0  0  0  0  0  0
   18.7316   -9.6457  -18.0965 C   0  0  0  0  0  0  0  0  0  0  0  0
   19.9318   -9.0181  -18.6729 C   0  0  0  0  0  0  0  0  0  0  0  0
   20.7560   -9.9215  -19.5113 C   0  0  0  0  0  0  0  0  0  0  0  0
   21.1457   -9.5537  -20.6431 O   0  0  0  0  0  0  0  0  0  0  0  0
   18.8041   -8.5318  -15.8669 C   0  0  0  0  0  0  0  0  0  0  0  0
   17.8122   -7.7884  -15.6873 O   0  0  0  0  0  0  0  0  0  0  0  0
   21.1272  -11.1930  -19.0879 O   0  0  0  0  0  0  0  0  0  0  0  0
   20.8844   -4.4098  -13.1622 N   0  0  0  0  0  0  0  0  0  0  0  0
   21.6581   -5.5848  -13.0682 C   0  0  0  0  0  0  0  0  0  0  0  0
   22.6389   -5.5302  -12.2502 O   0  0  0  0  0  0  0  0  0  0  0  0
   21.4657   -6.8390  -13.7894 C   0  0  0  0  0  0  0  0  0  0  0  0
   20.1938   -6.8220  -14.5841 C   0  0  2  0  0  0  0  0  0  0  0  0
   20.0364   -8.0942  -15.3165 N   0  0  0  0  0  0  0  0  0  0  0  0
   20.3055   -5.7931  -15.6562 C   0  0  0  0  0  0  0  0  0  0  0  0
   20.7726   -6.1104  -16.8040 O   0  0  0  0  0  0  0  0  0  0  0  0
   19.9350   -4.4691  -15.5209 O   0  0  0  0  0  0  0  0  0  0  0  0
  2  1  1  1
  3  4  1  0
  3  2  1  0
  5  2  1  0
  6  5  2  0
  7  5  1  0
  8  7  1  0
  8  9  1  6
  9 10  1  0
 10 11  1  0
 11 12  2  0
 11 15  1  0
 13  8  1  0
 14 13  2  0
 16 17  1  0
 17 18  2  0
 19 17  1  0
 20 19  1  6
 20 21  1  0
 21 13  1  0
 22 24  1  0
 22 20  1  0
 23 22  2  0
M  END
$$$$
