SAC.pdb
     RDKit          3D

 18 17  0  0  1  0  0  0  0  0999 V2000
   -2.6704  -23.5827   26.3826 O   0  0  0  0  0  0  0  0  0  0  0  0
   -4.0483  -23.4340   26.2614 C   0  0  0  0  0  0  0  0  0  0  0  0
   -4.4530  -23.1158   24.8320 C   0  0  2  0  0  0  0  0  0  0  0  0
   -3.5616  -22.1175   24.3009 N   0  0  0  0  0  0  0  0  0  0  0  0
   -5.8572  -22.6200   24.8922 C   0  0  0  0  0  0  0  0  0  0  0  0
   -6.0293  -21.4226   25.2414 O   0  0  0  0  0  0  0  0  0  0  0  0
   -9.2738  -23.7183   23.8338 C   0  0  0  0  0  0  0  0  0  0  0  0
   -8.2961  -22.9095   24.6614 C   0  0  2  0  0  0  0  0  0  0  0  0
   -6.9678  -23.4382   24.5758 N   0  0  0  0  0  0  0  0  0  0  0  0
   -8.7618  -22.7808   26.0733 C   0  0  0  0  0  0  0  0  0  0  0  0
   -9.8433  -22.2131   26.2954 O   0  0  0  0  0  0  0  0  0  0  0  0
   -7.9771  -23.3003   27.1341 N   0  0  0  0  0  0  0  0  0  0  0  0
   -8.4057  -23.2007   28.5320 C   0  0  1  0  0  0  0  0  0  0  0  0
   -8.0763  -24.5113   29.2172 C   0  0  0  0  0  0  0  0  0  0  0  0
   -8.2481  -24.3802   31.0117 S   0  0  0  0  0  0  0  0  0  0  0  0
   -7.7507  -22.0716   29.2111 C   0  0  0  0  0  0  0  0  0  0  0  0
   -6.5614  -21.8147   28.8995 O   0  0  0  0  0  0  0  0  0  0  0  0
   -8.3621  -21.2757   30.1703 O   0  0  0  0  0  0  0  0  0  0  0  0
  2  1  1  0
  3  4  1  1
  3  2  1  0
  5  3  1  0
  6  5  2  0
  8  7  1  6
  8  9  1  0
  9  5  1  0
 10 12  1  0
 10  8  1  0
 11 10  2  0
 13 16  1  0
 13 14  1  1
 13 12  1  0
 14 15  1  0
 16 18  1  0
 17 16  2  0
M  END
$$$$
