SAC.pdb
     RDKit          3D

 18 17  0  0  1  0  0  0  0  0999 V2000
   11.2493  -13.1347   19.2619 O   0  0  0  0  0  0  0  0  0  0  0  0
   10.6779  -14.3616   19.5838 C   0  0  0  0  0  0  0  0  0  0  0  0
    9.1989  -14.3979   19.2383 C   0  0  2  0  0  0  0  0  0  0  0  0
    8.8391  -13.1703   18.5774 N   0  0  0  0  0  0  0  0  0  0  0  0
    8.4689  -14.5602   20.5275 C   0  0  0  0  0  0  0  0  0  0  0  0
    7.8312  -13.5628   20.9562 O   0  0  0  0  0  0  0  0  0  0  0  0
    7.5762  -17.3560   22.8801 C   0  0  0  0  0  0  0  0  0  0  0  0
    7.6457  -15.9152   22.4174 C   0  0  2  0  0  0  0  0  0  0  0  0
    8.4754  -15.7719   21.2588 N   0  0  0  0  0  0  0  0  0  0  0  0
    8.0669  -15.0117   23.5278 C   0  0  0  0  0  0  0  0  0  0  0  0
    9.2610  -14.6809   23.6076 O   0  0  0  0  0  0  0  0  0  0  0  0
    7.1144  -14.5451   24.4691 N   0  0  0  0  0  0  0  0  0  0  0  0
    7.4894  -13.6532   25.5698 C   0  0  1  0  0  0  0  0  0  0  0  0
    6.2561  -12.8770   25.9844 C   0  0  0  0  0  0  0  0  0  0  0  0
    6.5873  -11.8266   27.4176 S   0  0  0  0  0  0  0  0  0  0  0  0
    8.0423  -14.4100   26.7041 C   0  0  0  0  0  0  0  0  0  0  0  0
    7.5927  -15.5649   26.9086 O   0  0  0  0  0  0  0  0  0  0  0  0
    9.0252  -13.9299   27.5588 O   0  0  0  0  0  0  0  0  0  0  0  0
  2  1  1  0
  3  4  1  1
  3  2  1  0
  5  3  1  0
  6  5  2  0
  8  7  1  1
  8  9  1  0
  9  5  1  0
 10 12  1  0
 10  8  1  0
 11 10  2  0
 13 16  1  0
 13 14  1  1
 13 12  1  0
 14 15  1  0
 16 18  1  0
 17 16  2  0
M  END
$$$$
