SAC.pdb
     RDKit          3D

 18 17  0  0  1  0  0  0  0  0999 V2000
    6.9179  -18.2938   22.1046 O   0  0  0  0  0  0  0  0  0  0  0  0
    5.9883  -17.9041   21.1458 C   0  0  0  0  0  0  0  0  0  0  0  0
    6.6645  -17.4418   19.8663 C   0  0  2  0  0  0  0  0  0  0  0  0
    7.3916  -18.5442   19.2925 N   0  0  0  0  0  0  0  0  0  0  0  0
    7.5748  -16.3259   20.2504 C   0  0  0  0  0  0  0  0  0  0  0  0
    8.7667  -16.6251   20.5246 O   0  0  0  0  0  0  0  0  0  0  0  0
    7.5335  -12.5805   20.1076 C   0  0  0  0  0  0  0  0  0  0  0  0
    8.0988  -13.9288   20.5046 C   0  0  2  0  0  0  0  0  0  0  0  0
    7.1443  -14.9791   20.3123 N   0  0  0  0  0  0  0  0  0  0  0  0
    8.6333  -13.9007   21.8976 C   0  0  0  0  0  0  0  0  0  0  0  0
    9.5879  -13.1499   22.1553 O   0  0  0  0  0  0  0  0  0  0  0  0
    8.0553  -14.7196   22.9008 N   0  0  0  0  0  0  0  0  0  0  0  0
    8.4412  -14.6030   24.3097 C   0  0  1  0  0  0  0  0  0  0  0  0
    7.2088  -14.8528   25.1549 C   0  0  0  0  0  0  0  0  0  0  0  0
    6.1522  -13.3884   25.2317 S   0  0  0  0  0  0  0  0  0  0  0  0
    9.5141  -15.5512   24.6486 C   0  0  0  0  0  0  0  0  0  0  0  0
    9.9196  -16.3206   23.7424 O   0  0  0  0  0  0  0  0  0  0  0  0
   10.1039  -15.6484   25.9016 O   0  0  0  0  0  0  0  0  0  0  0  0
  2  1  1  0
  3  4  1  1
  3  2  1  0
  5  3  1  0
  6  5  2  0
  8  7  1  1
  8  9  1  0
  9  5  1  0
 10 12  1  0
 10  8  1  0
 11 10  2  0
 13 16  1  0
 13 14  1  1
 13 12  1  0
 14 15  1  0
 16 18  1  0
 17 16  2  0
M  END
$$$$
