SAC.pdb
     RDKit          3D

 18 17  0  0  1  0  0  0  0  0999 V2000
   10.0255  -12.7362   20.4847 O   0  0  0  0  0  0  0  0  0  0  0  0
    9.7777  -14.0576   20.1270 C   0  0  0  0  0  0  0  0  0  0  0  0
    8.2958  -14.3089   19.9061 C   0  0  2  0  0  0  0  0  0  0  0  0
    7.7193  -13.1714   19.2376 N   0  0  0  0  0  0  0  0  0  0  0  0
    7.6972  -14.5124   21.2558 C   0  0  0  0  0  0  0  0  0  0  0  0
    7.1390  -13.5195   21.7923 O   0  0  0  0  0  0  0  0  0  0  0  0
    7.0761  -17.3198   23.6783 C   0  0  0  0  0  0  0  0  0  0  0  0
    7.2259  -15.8715   23.2597 C   0  0  2  0  0  0  0  0  0  0  0  0
    7.7402  -15.7571   21.9280 N   0  0  0  0  0  0  0  0  0  0  0  0
    8.0422  -15.1063   24.2470 C   0  0  0  0  0  0  0  0  0  0  0  0
    9.2695  -15.0301   24.0751 O   0  0  0  0  0  0  0  0  0  0  0  0
    7.4191  -14.4815   25.3572 N   0  0  0  0  0  0  0  0  0  0  0  0
    8.1924  -13.7585   26.3706 C   0  0  1  0  0  0  0  0  0  0  0  0
    7.2796  -12.7344   27.0136 C   0  0  0  0  0  0  0  0  0  0  0  0
    6.1671  -11.9870   25.8008 S   0  0  0  0  0  0  0  0  0  0  0  0
    8.7437  -14.6792   27.3773 C   0  0  0  0  0  0  0  0  0  0  0  0
    8.3659  -15.8766   27.3409 O   0  0  0  0  0  0  0  0  0  0  0  0
    9.6512  -14.3093   28.3606 O   0  0  0  0  0  0  0  0  0  0  0  0
  2  1  1  0
  3  4  1  1
  3  2  1  0
  5  3  1  0
  6  5  2  0
  8  7  1  1
  8  9  1  0
  9  5  1  0
 10 12  1  0
 10  8  1  0
 11 10  2  0
 13 16  1  0
 13 14  1  1
 13 12  1  0
 14 15  1  0
 16 18  1  0
 17 16  2  0
M  END
$$$$
