SAC.pdb
     RDKit          3D

 18 17  0  0  1  0  0  0  0  0999 V2000
   -2.7418  -21.7694   22.4131 O   0  0  0  0  0  0  0  0  0  0  0  0
   -1.3924  -22.0140   22.1796 C   0  0  0  0  0  0  0  0  0  0  0  0
   -0.7917  -20.9839   21.2381 C   0  0  2  0  0  0  0  0  0  0  0  0
   -1.0425  -21.3853   19.8783 N   0  0  0  0  0  0  0  0  0  0  0  0
    0.6679  -20.9410   21.5363 C   0  0  0  0  0  0  0  0  0  0  0  0
    1.3657  -21.9075   21.1310 O   0  0  0  0  0  0  0  0  0  0  0  0
    3.1669  -18.5171   22.9569 C   0  0  0  0  0  0  0  0  0  0  0  0
    2.6842  -19.8669   22.4669 C   0  0  2  0  0  0  0  0  0  0  0  0
    1.2697  -19.8724   22.2427 N   0  0  0  0  0  0  0  0  0  0  0  0
    3.1134  -20.9601   23.3875 C   0  0  0  0  0  0  0  0  0  0  0  0
    2.3182  -21.3566   24.2546 O   0  0  0  0  0  0  0  0  0  0  0  0
    4.4067  -21.5290   23.2664 N   0  0  0  0  0  0  0  0  0  0  0  0
    4.8766  -22.5788   24.1745 C   0  0  1  0  0  0  0  0  0  0  0  0
    4.6291  -23.9178   23.5102 C   0  0  0  0  0  0  0  0  0  0  0  0
    5.3192  -23.9646   21.8403 S   0  0  0  0  0  0  0  0  0  0  0  0
    6.3017  -22.4056   24.4972 C   0  0  0  0  0  0  0  0  0  0  0  0
    6.9323  -21.5065   23.8875 O   0  0  0  0  0  0  0  0  0  0  0  0
    6.9903  -23.1703   25.4291 O   0  0  0  0  0  0  0  0  0  0  0  0
  2  1  1  0
  3  4  1  6
  3  2  1  0
  5  3  1  0
  6  5  2  0
  8  7  1  1
  8  9  1  0
  9  5  1  0
 10 12  1  0
 10  8  1  0
 11 10  2  0
 13 16  1  0
 13 14  1  6
 13 12  1  0
 14 15  1  0
 16 18  1  0
 17 16  2  0
M  END
$$$$
