SAC.pdb
     RDKit          3D

 18 17  0  0  1  0  0  0  0  0999 V2000
   -3.8986  -28.3510   30.0869 O   0  0  0  0  0  0  0  0  0  0  0  0
   -4.4973  -27.1921   29.6032 C   0  0  0  0  0  0  0  0  0  0  0  0
   -3.8610  -26.7351   28.3015 C   0  0  2  0  0  0  0  0  0  0  0  0
   -2.5514  -26.2044   28.5779 N   0  0  0  0  0  0  0  0  0  0  0  0
   -4.7648  -25.6953   27.7331 C   0  0  0  0  0  0  0  0  0  0  0  0
   -4.6908  -24.5386   28.2250 O   0  0  0  0  0  0  0  0  0  0  0  0
   -6.9159  -25.2356   24.7177 C   0  0  0  0  0  0  0  0  0  0  0  0
   -6.4665  -24.9125   26.1279 C   0  0  2  0  0  0  0  0  0  0  0  0
   -5.6763  -25.9688   26.6855 N   0  0  0  0  0  0  0  0  0  0  0  0
   -7.6273  -24.5581   26.9961 C   0  0  0  0  0  0  0  0  0  0  0  0
   -8.1953  -25.4613   27.6309 O   0  0  0  0  0  0  0  0  0  0  0  0
   -8.0659  -23.2126   27.0878 N   0  0  0  0  0  0  0  0  0  0  0  0
   -9.2328  -22.8338   27.8893 C   0  0  1  0  0  0  0  0  0  0  0  0
   -8.8034  -22.7711   29.3409 C   0  0  0  0  0  0  0  0  0  0  0  0
   -7.4821  -21.5626   29.5876 S   0  0  0  0  0  0  0  0  0  0  0  0
   -9.7871  -21.5445   27.4472 C   0  0  0  0  0  0  0  0  0  0  0  0
   -9.2367  -20.9776   26.4708 O   0  0  0  0  0  0  0  0  0  0  0  0
  -10.8755  -20.9180   28.0389 O   0  0  0  0  0  0  0  0  0  0  0  0
  2  1  1  0
  3  4  1  1
  3  2  1  0
  5  3  1  0
  6  5  2  0
  8  7  1  6
  8  9  1  0
  9  5  1  0
 10 12  1  0
 10  8  1  0
 11 10  2  0
 13 16  1  0
 13 14  1  1
 13 12  1  0
 14 15  1  0
 16 18  1  0
 17 16  2  0
M  END
$$$$
