SAC.pdb
     RDKit          3D

 18 17  0  0  1  0  0  0  0  0999 V2000
    8.7656  -18.0997   19.2352 O   0  0  0  0  0  0  0  0  0  0  0  0
    7.7955  -17.7122   18.3164 C   0  0  0  0  0  0  0  0  0  0  0  0
    8.4025  -16.9539   17.1481 C   0  0  2  0  0  0  0  0  0  0  0  0
    9.2505  -17.8438   16.3982 N   0  0  0  0  0  0  0  0  0  0  0  0
    9.1773  -15.8246   17.7359 C   0  0  0  0  0  0  0  0  0  0  0  0
   10.4169  -15.9918   17.8801 O   0  0  0  0  0  0  0  0  0  0  0  0
    8.6366  -12.2076   18.5603 C   0  0  0  0  0  0  0  0  0  0  0  0
    9.3768  -13.5283   18.6149 C   0  0  2  0  0  0  0  0  0  0  0  0
    8.5713  -14.6059   18.1241 N   0  0  0  0  0  0  0  0  0  0  0  0
    9.9022  -13.7961   19.9857 C   0  0  0  0  0  0  0  0  0  0  0  0
   10.8209  -13.0841   20.4222 O   0  0  0  0  0  0  0  0  0  0  0  0
    9.3562  -14.8459   20.7672 N   0  0  0  0  0  0  0  0  0  0  0  0
    9.7940  -15.0917   22.1440 C   0  0  1  0  0  0  0  0  0  0  0  0
    8.5954  -15.5691   22.9383 C   0  0  0  0  0  0  0  0  0  0  0  0
    7.3080  -14.3029   23.0170 S   0  0  0  0  0  0  0  0  0  0  0  0
   10.8835  -16.0797   22.1884 C   0  0  0  0  0  0  0  0  0  0  0  0
   11.2280  -16.6163   21.1062 O   0  0  0  0  0  0  0  0  0  0  0  0
   11.5517  -16.4544   23.3461 O   0  0  0  0  0  0  0  0  0  0  0  0
  2  1  1  0
  3  4  1  1
  3  2  1  0
  5  3  1  0
  6  5  2  0
  8  7  1  1
  8  9  1  0
  9  5  1  0
 10 12  1  0
 10  8  1  0
 11 10  2  0
 13 16  1  0
 13 14  1  1
 13 12  1  0
 14 15  1  0
 16 18  1  0
 17 16  2  0
M  END
$$$$
