SAC.pdb
     RDKit          3D

 18 17  0  0  1  0  0  0  0  0999 V2000
    9.9578  -12.7102   19.4502 O   0  0  0  0  0  0  0  0  0  0  0  0
    9.7123  -13.9587   20.0128 C   0  0  0  0  0  0  0  0  0  0  0  0
    8.2468  -14.3437   19.9023 C   0  0  2  0  0  0  0  0  0  0  0  0
    7.5365  -13.3010   19.2085 N   0  0  0  0  0  0  0  0  0  0  0  0
    7.7489  -14.5113   21.2970 C   0  0  0  0  0  0  0  0  0  0  0  0
    7.2232  -13.5064   21.8440 O   0  0  0  0  0  0  0  0  0  0  0  0
    7.1765  -17.3132   23.7330 C   0  0  0  0  0  0  0  0  0  0  0  0
    7.2753  -15.8633   23.3052 C   0  0  2  0  0  0  0  0  0  0  0  0
    7.8498  -15.7358   21.9995 N   0  0  0  0  0  0  0  0  0  0  0  0
    8.0020  -15.0490   24.3229 C   0  0  0  0  0  0  0  0  0  0  0  0
    9.2237  -14.8752   24.1864 O   0  0  0  0  0  0  0  0  0  0  0  0
    7.3018  -14.4885   25.4214 N   0  0  0  0  0  0  0  0  0  0  0  0
    8.0006  -13.8199   26.5224 C   0  0  1  0  0  0  0  0  0  0  0  0
    7.0179  -12.8904   27.2049 C   0  0  0  0  0  0  0  0  0  0  0  0
    6.2515  -11.7566   26.0242 S   0  0  0  0  0  0  0  0  0  0  0  0
    8.5516  -14.7965   27.4752 C   0  0  0  0  0  0  0  0  0  0  0  0
    8.2103  -15.9979   27.3410 O   0  0  0  0  0  0  0  0  0  0  0  0
    9.4210  -14.4750   28.5086 O   0  0  0  0  0  0  0  0  0  0  0  0
  2  1  1  0
  3  4  1  1
  3  2  1  0
  5  3  1  0
  6  5  2  0
  8  7  1  1
  8  9  1  0
  9  5  1  0
 10 12  1  0
 10  8  1  0
 11 10  2  0
 13 16  1  0
 13 14  1  1
 13 12  1  0
 14 15  1  0
 16 18  1  0
 17 16  2  0
M  END
$$$$
