SAC.pdb
     RDKit          3D

 18 17  0  0  1  0  0  0  0  0999 V2000
   -2.4524  -27.6137   29.9927 O   0  0  0  0  0  0  0  0  0  0  0  0
   -3.3057  -26.5774   29.6274 C   0  0  0  0  0  0  0  0  0  0  0  0
   -2.8950  -25.9547   28.3038 C   0  0  2  0  0  0  0  0  0  0  0  0
   -1.6065  -25.3305   28.4563 N   0  0  0  0  0  0  0  0  0  0  0  0
   -3.9493  -24.9585   27.9618 C   0  0  0  0  0  0  0  0  0  0  0  0
   -4.0114  -23.9207   28.6721 O   0  0  0  0  0  0  0  0  0  0  0  0
   -6.5165  -24.3750   25.2804 C   0  0  0  0  0  0  0  0  0  0  0  0
   -5.8828  -24.1797   26.6425 C   0  0  2  0  0  0  0  0  0  0  0  0
   -4.8548  -25.1456   26.8902 N   0  0  0  0  0  0  0  0  0  0  0  0
   -6.9146  -24.1654   27.7205 C   0  0  0  0  0  0  0  0  0  0  0  0
   -7.2903  -25.2467   28.2012 O   0  0  0  0  0  0  0  0  0  0  0  0
   -7.4498  -22.9354   28.1804 N   0  0  0  0  0  0  0  0  0  0  0  0
   -8.5117  -22.8843   29.1891 C   0  0  1  0  0  0  0  0  0  0  0  0
   -8.2299  -21.7121   30.1066 C   0  0  0  0  0  0  0  0  0  0  0  0
   -6.7155  -21.9678   31.0595 S   0  0  0  0  0  0  0  0  0  0  0  0
   -9.8366  -22.7567   28.5621 C   0  0  0  0  0  0  0  0  0  0  0  0
  -10.8419  -22.7755   29.3150 O   0  0  0  0  0  0  0  0  0  0  0  0
  -10.0447  -22.6173   27.1966 O   0  0  0  0  0  0  0  0  0  0  0  0
  2  1  1  0
  3  4  1  1
  3  2  1  0
  5  3  1  0
  6  5  2  0
  8  7  1  6
  8  9  1  0
  9  5  1  0
 10 12  1  0
 10  8  1  0
 11 10  2  0
 13 16  1  0
 13 14  1  1
 13 12  1  0
 14 15  1  0
 16 18  1  0
 17 16  2  0
M  END
$$$$
