SAC.pdb
     RDKit          3D

 18 17  0  0  1  0  0  0  0  0999 V2000
    6.1973  -18.3171   20.3387 O   0  0  0  0  0  0  0  0  0  0  0  0
    6.9960  -19.0268   21.2297 C   0  0  0  0  0  0  0  0  0  0  0  0
    6.9437  -18.4296   22.6257 C   0  0  2  0  0  0  0  0  0  0  0  0
    5.5677  -18.2622   23.0155 N   0  0  0  0  0  0  0  0  0  0  0  0
    7.6550  -17.1221   22.5516 C   0  0  0  0  0  0  0  0  0  0  0  0
    8.9038  -17.1555   22.3941 O   0  0  0  0  0  0  0  0  0  0  0  0
    6.8644  -13.5777   21.8608 C   0  0  0  0  0  0  0  0  0  0  0  0
    7.7081  -14.6562   22.5089 C   0  0  2  0  0  0  0  0  0  0  0  0
    6.9807  -15.8817   22.6510 N   0  0  0  0  0  0  0  0  0  0  0  0
    8.2811  -14.1872   23.8044 C   0  0  0  0  0  0  0  0  0  0  0  0
    9.3098  -13.4922   23.7851 O   0  0  0  0  0  0  0  0  0  0  0  0
    7.6556  -14.5337   25.0290 N   0  0  0  0  0  0  0  0  0  0  0  0
    8.1589  -14.0493   26.3173 C   0  0  1  0  0  0  0  0  0  0  0  0
    6.9892  -13.4773   27.0919 C   0  0  0  0  0  0  0  0  0  0  0  0
    6.1566  -12.1702   26.1618 S   0  0  0  0  0  0  0  0  0  0  0  0
    8.8146  -15.1283   27.0730 C   0  0  0  0  0  0  0  0  0  0  0  0
    8.8746  -16.2624   26.5364 O   0  0  0  0  0  0  0  0  0  0  0  0
    9.3688  -14.9722   28.3362 O   0  0  0  0  0  0  0  0  0  0  0  0
  2  1  1  0
  3  4  1  6
  3  2  1  0
  5  3  1  0
  6  5  2  0
  8  7  1  1
  8  9  1  0
  9  5  1  0
 10 12  1  0
 10  8  1  0
 11 10  2  0
 13 16  1  0
 13 14  1  1
 13 12  1  0
 14 15  1  0
 16 18  1  0
 17 16  2  0
M  END
$$$$
