KYL.pdb
     RDKit          3D

 30 30  0  0  1  0  0  0  0  0999 V2000
   27.9329  -23.5142  -17.6088 N   0  0  0  0  0  0  0  0  0  0  0  0
   27.7072  -22.1744  -17.1835 C   0  0  1  0  0  0  0  0  0  0  0  0
   27.2374  -21.1920  -18.1634 C   0  0  0  0  0  0  0  0  0  0  0  0
   28.0658  -20.7670  -19.2949 C   0  0  0  0  0  0  0  0  0  0  0  0
   29.5124  -20.8479  -19.3715 C   0  0  0  0  0  0  0  0  0  0  0  0
   30.2987  -20.3617  -20.5105 C   0  0  0  0  0  0  0  0  0  0  0  0
   31.7279  -20.5920  -20.4110 N   0  0  0  0  0  0  0  0  0  0  0  0
   26.9183  -22.1298  -15.9022 C   0  0  0  0  0  0  0  0  0  0  0  0
   25.9746  -22.9443  -15.7446 O   0  0  0  0  0  0  0  0  0  0  0  0
   24.4035  -20.2845   -7.5685 O   0  0  0  0  0  0  0  0  0  0  0  0
   25.0769  -20.3246   -8.8029 C   0  0  0  0  0  0  0  0  0  0  0  0
   24.8557  -19.3756   -9.7751 C   0  0  0  0  0  0  0  0  0  0  0  0
   25.5207  -19.4115  -10.9996 C   0  0  0  0  0  0  0  0  0  0  0  0
   26.4238  -20.4133  -11.2590 C   0  0  0  0  0  0  0  0  0  0  0  0
   27.1272  -20.4593  -12.5386 C   0  0  0  0  0  0  0  0  0  0  0  0
   26.3902  -21.1460  -13.6405 C   0  0  2  0  0  0  0  0  0  0  0  0
   27.1852  -21.2164  -14.8648 N   0  0  0  0  0  0  0  0  0  0  0  0
   25.0595  -20.5531  -13.9260 C   0  0  0  0  0  0  0  0  0  0  0  0
   24.9133  -19.6842  -14.8535 O   0  0  0  0  0  0  0  0  0  0  0  0
   26.6439  -21.3639  -10.2824 C   0  0  0  0  0  0  0  0  0  0  0  0
   25.9805  -21.3283   -9.0608 C   0  0  0  0  0  0  0  0  0  0  0  0
   22.1708  -21.5869  -17.4865 C   0  0  0  0  0  0  0  0  0  0  0  0
   22.1229  -20.6778  -16.3034 C   0  0  1  0  0  0  0  0  0  0  0  0
   20.7756  -19.9506  -16.2317 C   0  0  0  0  0  0  0  0  0  0  0  0
   22.5007  -21.2937  -15.0360 C   0  0  0  0  0  0  0  0  0  0  0  0
   22.5462  -20.5195  -13.7607 C   0  0  2  0  0  0  0  0  0  0  0  0
   23.8934  -20.9084  -13.2058 N   0  0  0  0  0  0  0  0  0  0  0  0
   21.5283  -20.8197  -12.7728 C   0  0  0  0  0  0  0  0  0  0  0  0
   20.5341  -20.1236  -12.4774 O   0  0  0  0  0  0  0  0  0  0  0  0
   21.6314  -22.0242  -12.0391 O   0  0  0  0  0  0  0  0  0  0  0  0
  2  8  1  0
  2  1  1  6
  3  2  1  0
  4  3  1  0
  5  4  1  0
  6  5  1  0
  6  7  1  0
  8  9  2  0
 10 11  1  0
 11 12  2  0
 12 13  1  0
 14 13  2  0
 14 15  1  0
 16 17  1  0
 16 15  1  1
 17  8  1  0
 18 16  1  0
 19 18  2  0
 20 14  1  0
 21 11  1  0
 21 20  2  0
 23 22  1  6
 23 25  1  0
 24 23  1  0
 26 25  1  6
 26 27  1  0
 27 18  1  0
 28 26  1  0
 28 30  1  0
 29 28  2  0
M  END
$$$$
