KYL.pdb
     RDKit          3D

 30 30  0  0  1  0  0  0  0  0999 V2000
   31.9243  -26.4025  -18.4631 N   0  0  0  0  0  0  0  0  0  0  0  0
   32.4622  -26.9332  -19.6697 C   0  0  1  0  0  0  0  0  0  0  0  0
   32.7005  -26.0267  -20.7955 C   0  0  0  0  0  0  0  0  0  0  0  0
   31.6559  -25.1378  -21.3109 C   0  0  0  0  0  0  0  0  0  0  0  0
   30.3407  -25.5429  -21.7703 C   0  0  0  0  0  0  0  0  0  0  0  0
   29.3211  -24.6072  -22.2570 C   0  0  0  0  0  0  0  0  0  0  0  0
   28.0374  -25.2076  -22.5683 N   0  0  0  0  0  0  0  0  0  0  0  0
   33.6379  -27.8333  -19.3985 C   0  0  0  0  0  0  0  0  0  0  0  0
   34.3801  -28.1639  -20.3570 O   0  0  0  0  0  0  0  0  0  0  0  0
   40.4426  -31.7842  -15.3430 O   0  0  0  0  0  0  0  0  0  0  0  0
   39.2542  -31.0866  -15.6253 C   0  0  0  0  0  0  0  0  0  0  0  0
   38.0202  -31.6096  -15.3113 C   0  0  0  0  0  0  0  0  0  0  0  0
   36.8401  -30.9218  -15.5892 C   0  0  0  0  0  0  0  0  0  0  0  0
   36.8922  -29.6886  -16.1917 C   0  0  0  0  0  0  0  0  0  0  0  0
   35.6613  -28.9588  -16.4860 C   0  0  0  0  0  0  0  0  0  0  0  0
   35.1054  -29.1829  -17.8534 C   0  0  2  0  0  0  0  0  0  0  0  0
   33.9507  -28.3269  -18.1178 N   0  0  0  0  0  0  0  0  0  0  0  0
   34.7676  -30.6011  -18.1332 C   0  0  0  0  0  0  0  0  0  0  0  0
   33.6607  -31.1033  -17.7342 O   0  0  0  0  0  0  0  0  0  0  0  0
   38.1309  -29.1663  -16.5057 C   0  0  0  0  0  0  0  0  0  0  0  0
   39.3082  -29.8523  -16.2285 C   0  0  0  0  0  0  0  0  0  0  0  0
   34.1856  -34.1754  -22.0259 C   0  0  0  0  0  0  0  0  0  0  0  0
   33.3384  -33.4643  -21.0236 C   0  0  1  0  0  0  0  0  0  0  0  0
   32.5577  -34.4654  -20.1647 C   0  0  0  0  0  0  0  0  0  0  0  0
   34.0356  -32.4600  -20.2275 C   0  0  0  0  0  0  0  0  0  0  0  0
   35.1210  -32.8216  -19.2689 C   0  0  2  0  0  0  0  0  0  0  0  0
   35.6311  -31.4665  -18.8473 N   0  0  0  0  0  0  0  0  0  0  0  0
   36.2287  -33.5971  -19.7920 C   0  0  0  0  0  0  0  0  0  0  0  0
   36.3112  -34.8413  -19.8656 O   0  0  0  0  0  0  0  0  0  0  0  0
   37.3621  -32.9107  -20.2859 O   0  0  0  0  0  0  0  0  0  0  0  0
  2  8  1  0
  2  1  1  1
  3  2  1  0
  4  3  1  0
  5  4  1  0
  6  5  1  0
  6  7  1  0
  8  9  2  0
 10 11  1  0
 11 12  2  0
 12 13  1  0
 14 13  2  0
 14 15  1  0
 16 17  1  0
 16 15  1  1
 17  8  1  0
 18 16  1  0
 19 18  2  0
 20 14  1  0
 21 11  1  0
 21 20  2  0
 23 22  1  1
 23 25  1  0
 24 23  1  0
 26 25  1  6
 26 27  1  0
 27 18  1  0
 28 26  1  0
 28 30  1  0
 29 28  2  0
M  END
$$$$
