KYL.pdb
     RDKit          3D

 30 30  0  0  1  0  0  0  0  0999 V2000
   26.7549  -20.2757  -16.6208 N   0  0  0  0  0  0  0  0  0  0  0  0
   27.0734  -19.1290  -15.8393 C   0  0  1  0  0  0  0  0  0  0  0  0
   27.0864  -17.8148  -16.4862 C   0  0  0  0  0  0  0  0  0  0  0  0
   27.8303  -17.5661  -17.7238 C   0  0  0  0  0  0  0  0  0  0  0  0
   29.2718  -17.6218  -17.8790 C   0  0  0  0  0  0  0  0  0  0  0  0
   29.9673  -17.3733  -19.1465 C   0  0  0  0  0  0  0  0  0  0  0  0
   31.3979  -17.6138  -19.1175 N   0  0  0  0  0  0  0  0  0  0  0  0
   26.3144  -19.1217  -14.5393 C   0  0  0  0  0  0  0  0  0  0  0  0
   26.0912  -18.0210  -13.9758 O   0  0  0  0  0  0  0  0  0  0  0  0
   20.2422  -17.6908  -16.5113 O   0  0  0  0  0  0  0  0  0  0  0  0
   21.0694  -18.4920  -15.7034 C   0  0  0  0  0  0  0  0  0  0  0  0
   21.9558  -19.3922  -16.2498 C   0  0  0  0  0  0  0  0  0  0  0  0
   22.7773  -20.1881  -15.4531 C   0  0  0  0  0  0  0  0  0  0  0  0
   22.7131  -20.0838  -14.0851 C   0  0  0  0  0  0  0  0  0  0  0  0
   23.5707  -20.9122  -13.2410 C   0  0  0  0  0  0  0  0  0  0  0  0
   24.8594  -20.2777  -12.8339 C   0  0  2  0  0  0  0  0  0  0  0  0
   25.8389  -20.2921  -13.9184 N   0  0  0  0  0  0  0  0  0  0  0  0
   25.4478  -20.8628  -11.6030 C   0  0  0  0  0  0  0  0  0  0  0  0
   25.8847  -22.0651  -11.5917 O   0  0  0  0  0  0  0  0  0  0  0  0
   21.8232  -19.1802  -13.5395 C   0  0  0  0  0  0  0  0  0  0  0  0
   21.0037  -18.3863  -14.3341 C   0  0  0  0  0  0  0  0  0  0  0  0
   28.3808  -18.4609   -7.4885 C   0  0  0  0  0  0  0  0  0  0  0  0
   27.8954  -19.5594   -8.3751 C   0  0  1  0  0  0  0  0  0  0  0  0
   28.7784  -20.8039   -8.2306 C   0  0  0  0  0  0  0  0  0  0  0  0
   26.4723  -19.8602   -8.2626 C   0  0  0  0  0  0  0  0  0  0  0  0
   25.8113  -20.8955   -9.1106 C   0  0  2  0  0  0  0  0  0  0  0  0
   25.5622  -20.1393  -10.3913 N   0  0  0  0  0  0  0  0  0  0  0  0
   24.5528  -21.4324   -8.6312 C   0  0  0  0  0  0  0  0  0  0  0  0
   23.4033  -21.0603   -8.9485 O   0  0  0  0  0  0  0  0  0  0  0  0
   24.5814  -22.4973   -7.7012 O   0  0  0  0  0  0  0  0  0  0  0  0
  2  8  1  0
  2  1  1  6
  3  2  1  0
  4  3  1  0
  5  4  1  0
  6  5  1  0
  6  7  1  0
  8  9  2  0
 10 11  1  0
 11 12  2  0
 12 13  1  0
 14 13  2  0
 14 15  1  0
 16 17  1  0
 16 15  1  6
 17  8  1  0
 18 16  1  0
 19 18  2  0
 20 14  1  0
 21 11  1  0
 21 20  2  0
 23 22  1  1
 23 25  1  0
 24 23  1  0
 26 25  1  1
 26 27  1  0
 27 18  1  0
 28 26  1  0
 28 30  1  0
 29 28  2  0
M  END
$$$$
