KYL.pdb
     RDKit          3D

 30 30  0  0  1  0  0  0  0  0999 V2000
   29.2971  -23.7717  -17.3189 N   0  0  0  0  0  0  0  0  0  0  0  0
   28.7062  -22.4795  -17.2298 C   0  0  1  0  0  0  0  0  0  0  0  0
   28.2551  -21.8228  -18.4591 C   0  0  0  0  0  0  0  0  0  0  0  0
   29.0356  -21.8745  -19.6981 C   0  0  0  0  0  0  0  0  0  0  0  0
   29.3332  -23.0663  -20.4703 C   0  0  0  0  0  0  0  0  0  0  0  0
   29.9897  -23.0471  -21.7820 C   0  0  0  0  0  0  0  0  0  0  0  0
   30.2274  -24.3535  -22.3670 N   0  0  0  0  0  0  0  0  0  0  0  0
   27.6739  -22.4212  -16.1357 C   0  0  0  0  0  0  0  0  0  0  0  0
   26.9260  -23.4148  -15.9566 O   0  0  0  0  0  0  0  0  0  0  0  0
   23.5206  -20.4168   -8.5789 O   0  0  0  0  0  0  0  0  0  0  0  0
   24.3779  -20.4182   -9.6943 C   0  0  0  0  0  0  0  0  0  0  0  0
   25.4953  -21.2206   -9.7426 C   0  0  0  0  0  0  0  0  0  0  0  0
   26.3475  -21.2252  -10.8457 C   0  0  0  0  0  0  0  0  0  0  0  0
   26.0796  -20.4137  -11.9210 C   0  0  0  0  0  0  0  0  0  0  0  0
   26.9655  -20.4120  -13.0826 C   0  0  0  0  0  0  0  0  0  0  0  0
   26.5083  -21.2545  -14.2273 C   0  0  2  0  0  0  0  0  0  0  0  0
   27.5024  -21.3034  -15.2974 N   0  0  0  0  0  0  0  0  0  0  0  0
   25.1873  -20.8519  -14.7719 C   0  0  0  0  0  0  0  0  0  0  0  0
   25.0728  -19.8220  -15.5221 O   0  0  0  0  0  0  0  0  0  0  0  0
   24.9584  -19.6100  -11.8701 C   0  0  0  0  0  0  0  0  0  0  0  0
   24.1082  -19.6052  -10.7697 C   0  0  0  0  0  0  0  0  0  0  0  0
   22.2196  -23.3278  -18.0900 C   0  0  0  0  0  0  0  0  0  0  0  0
   22.7347  -22.1697  -17.3015 C   0  0  1  0  0  0  0  0  0  0  0  0
   22.5666  -20.8624  -18.0839 C   0  0  0  0  0  0  0  0  0  0  0  0
   22.2300  -22.0795  -15.9357 C   0  0  0  0  0  0  0  0  0  0  0  0
   22.6832  -21.0160  -14.9915 C   0  0  2  0  0  0  0  0  0  0  0  0
   23.9976  -21.5706  -14.5023 N   0  0  0  0  0  0  0  0  0  0  0  0
   21.8338  -20.7466  -13.8479 C   0  0  0  0  0  0  0  0  0  0  0  0
   21.9094  -21.2627  -12.7129 O   0  0  0  0  0  0  0  0  0  0  0  0
   20.7918  -19.8006  -13.9864 O   0  0  0  0  0  0  0  0  0  0  0  0
  2  8  1  0
  2  1  1  6
  3  2  1  0
  4  3  1  0
  5  4  1  0
  6  5  1  0
  6  7  1  0
  8  9  2  0
 10 11  1  0
 11 12  2  0
 12 13  1  0
 14 13  2  0
 14 15  1  0
 16 17  1  0
 16 15  1  1
 17  8  1  0
 18 16  1  0
 19 18  2  0
 20 14  1  0
 21 11  1  0
 21 20  2  0
 23 22  1  6
 23 25  1  0
 24 23  1  0
 26 25  1  6
 26 27  1  0
 27 18  1  0
 28 26  1  0
 28 30  1  0
 29 28  2  0
M  END
$$$$
