KYL.pdb
     RDKit          3D

 30 30  0  0  1  0  0  0  0  0999 V2000
   28.1149  -22.0051  -17.2489 N   0  0  0  0  0  0  0  0  0  0  0  0
   26.6913  -22.0193  -17.2538 C   0  0  1  0  0  0  0  0  0  0  0  0
   25.9975  -22.9729  -18.1228 C   0  0  0  0  0  0  0  0  0  0  0  0
   26.5592  -23.4055  -19.4050 C   0  0  0  0  0  0  0  0  0  0  0  0
   27.6812  -24.3078  -19.5844 C   0  0  0  0  0  0  0  0  0  0  0  0
   28.2092  -24.7046  -20.8942 C   0  0  0  0  0  0  0  0  0  0  0  0
   29.4513  -25.4535  -20.8526 N   0  0  0  0  0  0  0  0  0  0  0  0
   26.1366  -22.0090  -15.8544 C   0  0  0  0  0  0  0  0  0  0  0  0
   25.0931  -22.6660  -15.6127 O   0  0  0  0  0  0  0  0  0  0  0  0
   25.1124  -20.2805   -7.1663 O   0  0  0  0  0  0  0  0  0  0  0  0
   25.6116  -20.3893   -8.4770 C   0  0  0  0  0  0  0  0  0  0  0  0
   25.8025  -19.2799   -9.2692 C   0  0  0  0  0  0  0  0  0  0  0  0
   26.2969  -19.3830  -10.5684 C   0  0  0  0  0  0  0  0  0  0  0  0
   26.6068  -20.6165  -11.0869 C   0  0  0  0  0  0  0  0  0  0  0  0
   27.1270  -20.7355  -12.4469 C   0  0  0  0  0  0  0  0  0  0  0  0
   26.1405  -21.2119  -13.4613 C   0  0  2  0  0  0  0  0  0  0  0  0
   26.7307  -21.2964  -14.7956 N   0  0  0  0  0  0  0  0  0  0  0  0
   24.8934  -20.4078  -13.5017 C   0  0  0  0  0  0  0  0  0  0  0  0
   24.8755  -19.2511  -14.0480 O   0  0  0  0  0  0  0  0  0  0  0  0
   26.4146  -21.7276  -10.2904 C   0  0  0  0  0  0  0  0  0  0  0  0
   25.9213  -21.6249   -8.9944 C   0  0  0  0  0  0  0  0  0  0  0  0
   21.4719  -18.0553  -15.9212 C   0  0  0  0  0  0  0  0  0  0  0  0
   21.2076  -19.4164  -15.3683 C   0  0  1  0  0  0  0  0  0  0  0  0
   20.6086  -20.3316  -16.4420 C   0  0  0  0  0  0  0  0  0  0  0  0
   22.3325  -20.0274  -14.6686 C   0  0  0  0  0  0  0  0  0  0  0  0
   22.4206  -20.0520  -13.1788 C   0  0  2  0  0  0  0  0  0  0  0  0
   23.6709  -20.8641  -12.9521 N   0  0  0  0  0  0  0  0  0  0  0  0
   21.3223  -20.6740  -12.4653 C   0  0  0  0  0  0  0  0  0  0  0  0
   21.1214  -21.8965  -12.3060 O   0  0  0  0  0  0  0  0  0  0  0  0
   20.3474  -19.8432  -11.8661 O   0  0  0  0  0  0  0  0  0  0  0  0
  2  8  1  0
  2  1  1  1
  3  2  1  0
  4  3  1  0
  5  4  1  0
  6  5  1  0
  6  7  1  0
  8  9  2  0
 10 11  1  0
 11 12  2  0
 12 13  1  0
 14 13  2  0
 14 15  1  0
 16 17  1  0
 16 15  1  1
 17  8  1  0
 18 16  1  0
 19 18  2  0
 20 14  1  0
 21 11  1  0
 21 20  2  0
 23 22  1  6
 23 25  1  0
 24 23  1  0
 26 25  1  6
 26 27  1  0
 27 18  1  0
 28 26  1  0
 28 30  1  0
 29 28  2  0
M  END
$$$$
