FAA.pdb
     RDKit          3D

 22 22  0  0  1  0  0  0  0  0999 V2000
   16.9472   -8.2001   -9.7701 N   0  0  0  0  0  0  0  0  0  0  0  0
   15.8501   -7.2780   -9.9308 C   0  0  1  0  0  0  0  0  0  0  0  0
   15.4550   -6.7074   -8.5649 C   0  0  0  0  0  0  0  0  0  0  0  0
   14.0726   -7.0482   -8.2124 C   0  0  0  0  0  0  0  0  0  0  0  0
   13.0818   -6.0756   -8.3807 C   0  0  0  0  0  0  0  0  0  0  0  0
   11.7852   -6.4070   -8.0461 C   0  0  0  0  0  0  0  0  0  0  0  0
   11.4402   -7.6503   -7.5575 C   0  0  0  0  0  0  0  0  0  0  0  0
   12.4407   -8.5967   -7.3999 C   0  0  0  0  0  0  0  0  0  0  0  0
   13.7281   -8.2788   -7.7284 C   0  0  0  0  0  0  0  0  0  0  0  0
   16.2701   -6.0799  -10.7428 C   0  0  0  0  0  0  0  0  0  0  0  0
   17.4756   -5.7337  -10.8027 O   0  0  0  0  0  0  0  0  0  0  0  0
   15.1819   -4.3078  -13.6777 C   0  0  0  0  0  0  0  0  0  0  0  0
   15.6240   -4.1667  -12.2604 C   0  0  2  0  0  0  0  0  0  0  0  0
   15.3251   -5.3272  -11.4481 N   0  0  0  0  0  0  0  0  0  0  0  0
   15.1954   -2.9588  -11.5780 C   0  0  0  0  0  0  0  0  0  0  0  0
   15.5477   -1.8409  -12.0373 O   0  0  0  0  0  0  0  0  0  0  0  0
   12.7993   -1.8565   -8.9193 C   0  0  0  0  0  0  0  0  0  0  0  0
   14.0167   -1.6683   -9.7956 C   0  0  2  0  0  0  0  0  0  0  0  0
   14.3934   -2.9197  -10.4081 N   0  0  0  0  0  0  0  0  0  0  0  0
   15.1048   -1.1026   -8.9857 C   0  0  0  0  0  0  0  0  0  0  0  0
   15.9913   -1.8473   -8.4763 O   0  0  0  0  0  0  0  0  0  0  0  0
   15.1907    0.2458   -8.7589 O   0  0  0  0  0  0  0  0  0  0  0  0
  2  1  1  1
  2 10  1  0
  3  2  1  0
  4  3  1  0
  5  4  2  0
  6  5  1  0
  7  8  1  0
  7  6  2  0
  8  9  2  0
  9  4  1  0
 10 14  1  0
 10 11  2  0
 13 12  1  6
 14 13  1  0
 15 13  1  0
 15 19  1  0
 16 15  2  0
 18 17  1  1
 18 19  1  0
 18 20  1  0
 20 22  1  0
 21 20  2  0
M  END
$$$$
