FAA.pdb
     RDKit          3D

 22 22  0  0  1  0  0  0  0  0999 V2000
   20.9992   -7.9535  -13.3922 N   0  0  0  0  0  0  0  0  0  0  0  0
   20.6787   -7.6177  -14.7577 C   0  0  1  0  0  0  0  0  0  0  0  0
   19.1626   -7.4519  -14.9031 C   0  0  0  0  0  0  0  0  0  0  0  0
   18.4870   -8.7439  -15.0630 C   0  0  0  0  0  0  0  0  0  0  0  0
   18.5881   -9.4023  -16.2927 C   0  0  0  0  0  0  0  0  0  0  0  0
   17.9489  -10.6168  -16.4319 C   0  0  0  0  0  0  0  0  0  0  0  0
   17.2232  -11.1941  -15.4104 C   0  0  0  0  0  0  0  0  0  0  0  0
   17.1383  -10.5214  -14.2013 C   0  0  0  0  0  0  0  0  0  0  0  0
   17.7676   -9.3179  -14.0529 C   0  0  0  0  0  0  0  0  0  0  0  0
   21.2515   -6.2741  -15.1288 C   0  0  0  0  0  0  0  0  0  0  0  0
   21.7141   -5.5065  -14.2492 O   0  0  0  0  0  0  0  0  0  0  0  0
   22.0602   -4.5611  -18.4000 C   0  0  0  0  0  0  0  0  0  0  0  0
   21.8321   -4.5973  -16.9267 C   0  0  2  0  0  0  0  0  0  0  0  0
   21.2802   -5.8527  -16.4624 N   0  0  0  0  0  0  0  0  0  0  0  0
   21.0772   -3.4875  -16.3727 C   0  0  0  0  0  0  0  0  0  0  0  0
   19.8444   -3.6325  -16.1631 O   0  0  0  0  0  0  0  0  0  0  0  0
   21.6048    0.0764  -15.2471 C   0  0  0  0  0  0  0  0  0  0  0  0
   20.7762   -1.1538  -15.5393 C   0  0  2  0  0  0  0  0  0  0  0  0
   21.6148   -2.2183  -16.0359 N   0  0  0  0  0  0  0  0  0  0  0  0
   19.7150   -0.7991  -16.4923 C   0  0  0  0  0  0  0  0  0  0  0  0
   19.8789   -0.9571  -17.7365 O   0  0  0  0  0  0  0  0  0  0  0  0
   18.5193   -0.2877  -16.0617 O   0  0  0  0  0  0  0  0  0  0  0  0
  2  1  1  1
  2 10  1  0
  3  2  1  0
  4  3  1  0
  5  4  2  0
  6  5  1  0
  7  8  1  0
  7  6  2  0
  8  9  2  0
  9  4  1  0
 10 14  1  0
 10 11  2  0
 13 12  1  6
 14 13  1  0
 15 13  1  0
 15 19  1  0
 16 15  2  0
 18 17  1  6
 18 19  1  0
 18 20  1  0
 20 22  1  0
 21 20  2  0
M  END
$$$$
