FAA.pdb
     RDKit          3D

 22 22  0  0  1  0  0  0  0  0999 V2000
   42.2372   -9.2096   -6.5016 N   0  0  0  0  0  0  0  0  0  0  0  0
   40.9434   -8.8465   -7.0251 C   0  0  1  0  0  0  0  0  0  0  0  0
   40.0609   -8.3165   -5.8905 C   0  0  0  0  0  0  0  0  0  0  0  0
   38.7153   -7.9736   -6.3628 C   0  0  0  0  0  0  0  0  0  0  0  0
   38.2244   -6.6897   -6.1051 C   0  0  0  0  0  0  0  0  0  0  0  0
   36.9578   -6.3782   -6.5539 C   0  0  0  0  0  0  0  0  0  0  0  0
   36.1712   -7.2808   -7.2395 C   0  0  0  0  0  0  0  0  0  0  0  0
   36.6808   -8.5468   -7.4824 C   0  0  0  0  0  0  0  0  0  0  0  0
   37.9342   -8.8657   -7.0421 C   0  0  0  0  0  0  0  0  0  0  0  0
   41.0592   -7.6973   -7.9932 C   0  0  0  0  0  0  0  0  0  0  0  0
   41.8205   -6.7279   -7.7532 O   0  0  0  0  0  0  0  0  0  0  0  0
   40.1933   -7.1881  -11.5825 C   0  0  0  0  0  0  0  0  0  0  0  0
   40.4032   -6.6632  -10.2026 C   0  0  2  0  0  0  0  0  0  0  0  0
   40.3204   -7.6858   -9.1811 N   0  0  0  0  0  0  0  0  0  0  0  0
   39.5914   -5.5193   -9.8272 C   0  0  0  0  0  0  0  0  0  0  0  0
   39.6319   -4.4822  -10.5397 O   0  0  0  0  0  0  0  0  0  0  0  0
   36.7039   -4.7196   -7.5916 C   0  0  0  0  0  0  0  0  0  0  0  0
   37.8687   -4.3255   -8.4710 C   0  0  2  0  0  0  0  0  0  0  0  0
   38.7318   -5.4595   -8.6998 N   0  0  0  0  0  0  0  0  0  0  0  0
   38.5849   -3.2071   -7.8416 C   0  0  0  0  0  0  0  0  0  0  0  0
   38.0663   -2.0551   -7.7799 O   0  0  0  0  0  0  0  0  0  0  0  0
   39.8332   -3.3792   -7.3041 O   0  0  0  0  0  0  0  0  0  0  0  0
  2  1  1  1
  2 10  1  0
  3  2  1  0
  4  3  1  0
  5  4  2  0
  6  5  1  0
  7  8  1  0
  7  6  2  0
  8  9  2  0
  9  4  1  0
 10 14  1  0
 10 11  2  0
 13 12  1  6
 14 13  1  0
 15 13  1  0
 15 19  1  0
 16 15  2  0
 18 17  1  1
 18 19  1  0
 18 20  1  0
 20 22  1  0
 21 20  2  0
M  END
$$$$
