FAA.pdb
     RDKit          3D

 22 22  0  0  1  0  0  0  0  0999 V2000
   32.5419   -9.0462  -19.1037 N   0  0  0  0  0  0  0  0  0  0  0  0
   31.4956   -9.4974  -18.2197 C   0  0  1  0  0  0  0  0  0  0  0  0
   31.1563   -8.3887  -17.2182 C   0  0  0  0  0  0  0  0  0  0  0  0
   32.3233   -8.0032  -16.4176 C   0  0  0  0  0  0  0  0  0  0  0  0
   32.4966   -6.6528  -16.0977 C   0  0  0  0  0  0  0  0  0  0  0  0
   33.5975   -6.3016  -15.3443 C   0  0  0  0  0  0  0  0  0  0  0  0
   34.5198   -7.2277  -14.9027 C   0  0  0  0  0  0  0  0  0  0  0  0
   34.3254   -8.5598  -15.2332 C   0  0  0  0  0  0  0  0  0  0  0  0
   33.2383   -8.9184  -15.9790 C   0  0  0  0  0  0  0  0  0  0  0  0
   30.2163   -9.7359  -18.9797 C   0  0  0  0  0  0  0  0  0  0  0  0
   30.0238   -9.2014  -20.0995 O   0  0  0  0  0  0  0  0  0  0  0  0
   27.1487  -11.8848  -18.3902 C   0  0  0  0  0  0  0  0  0  0  0  0
   27.9471  -10.8400  -19.0938 C   0  0  2  0  0  0  0  0  0  0  0  0
   29.2148  -10.5588  -18.4534 N   0  0  0  0  0  0  0  0  0  0  0  0
   27.2525   -9.5990  -19.3869 C   0  0  0  0  0  0  0  0  0  0  0  0
   27.5238   -8.5733  -18.7094 O   0  0  0  0  0  0  0  0  0  0  0  0
   26.7457   -7.2349  -21.3127 C   0  0  0  0  0  0  0  0  0  0  0  0
   25.7041   -8.1333  -20.6854 C   0  0  2  0  0  0  0  0  0  0  0  0
   26.2681   -9.4298  -20.3947 N   0  0  0  0  0  0  0  0  0  0  0  0
   24.5479   -8.2261  -21.5879 C   0  0  0  0  0  0  0  0  0  0  0  0
   24.4133   -9.2081  -22.3736 O   0  0  0  0  0  0  0  0  0  0  0  0
   23.5836   -7.2532  -21.6046 O   0  0  0  0  0  0  0  0  0  0  0  0
  2  1  1  6
  2 10  1  0
  3  2  1  0
  4  3  1  0
  5  4  2  0
  6  5  1  0
  7  8  1  0
  7  6  2  0
  8  9  2  0
  9  4  1  0
 10 14  1  0
 10 11  2  0
 13 12  1  1
 14 13  1  0
 15 13  1  0
 15 19  1  0
 16 15  2  0
 18 17  1  6
 18 19  1  0
 18 20  1  0
 20 22  1  0
 21 20  2  0
M  END
$$$$
