FAA.pdb
     RDKit          3D

 22 22  0  0  1  0  0  0  0  0999 V2000
   25.6345  -22.2973  -13.7404 N   0  0  0  0  0  0  0  0  0  0  0  0
   24.6723  -21.2230  -13.7415 C   0  0  1  0  0  0  0  0  0  0  0  0
   25.1394  -20.1147  -12.7925 C   0  0  0  0  0  0  0  0  0  0  0  0
   25.1567  -20.5652  -11.3968 C   0  0  0  0  0  0  0  0  0  0  0  0
   26.3771  -20.5758  -10.7138 C   0  0  0  0  0  0  0  0  0  0  0  0
   26.3816  -21.0013   -9.4017 C   0  0  0  0  0  0  0  0  0  0  0  0
   25.2360  -21.4109   -8.7511 C   0  0  0  0  0  0  0  0  0  0  0  0
   24.0391  -21.3911   -9.4500 C   0  0  0  0  0  0  0  0  0  0  0  0
   24.0236  -20.9715  -10.7501 C   0  0  0  0  0  0  0  0  0  0  0  0
   24.6017  -20.5669  -15.0964 C   0  0  0  0  0  0  0  0  0  0  0  0
   25.5858  -20.5925  -15.8759 O   0  0  0  0  0  0  0  0  0  0  0  0
   21.7661  -19.3272  -17.2161 C   0  0  0  0  0  0  0  0  0  0  0  0
   23.2092  -19.3913  -16.8456 C   0  0  2  0  0  0  0  0  0  0  0  0
   23.4371  -19.9147  -15.5151 N   0  0  0  0  0  0  0  0  0  0  0  0
   23.9692  -18.1686  -17.0354 C   0  0  0  0  0  0  0  0  0  0  0  0
   23.8589  -17.5443  -18.1230 O   0  0  0  0  0  0  0  0  0  0  0  0
   26.3108  -15.8998  -15.1445 C   0  0  0  0  0  0  0  0  0  0  0  0
   25.6324  -16.4224  -16.3903 C   0  0  2  0  0  0  0  0  0  0  0  0
   24.8499  -17.5954  -16.0820 N   0  0  0  0  0  0  0  0  0  0  0  0
   26.6538  -16.6950  -17.4112 C   0  0  0  0  0  0  0  0  0  0  0  0
   26.9941  -17.8808  -17.6904 O   0  0  0  0  0  0  0  0  0  0  0  0
   27.2664  -15.6744  -18.0894 O   0  0  0  0  0  0  0  0  0  0  0  0
  2  1  1  6
  2 10  1  0
  3  2  1  0
  4  3  1  0
  5  4  2  0
  6  5  1  0
  7  8  1  0
  7  6  2  0
  8  9  2  0
  9  4  1  0
 10 14  1  0
 10 11  2  0
 13 12  1  1
 14 13  1  0
 15 13  1  0
 15 19  1  0
 16 15  2  0
 18 17  1  1
 18 19  1  0
 18 20  1  0
 20 22  1  0
 21 20  2  0
M  END
$$$$
