FAA.pdb
     RDKit          3D

 22 22  0  0  1  0  0  0  0  0999 V2000
   20.7477   -9.2729  -18.4802 N   0  0  0  0  0  0  0  0  0  0  0  0
   21.7326   -8.4445  -17.8294 C   0  0  1  0  0  0  0  0  0  0  0  0
   22.4377   -7.5705  -18.8716 C   0  0  0  0  0  0  0  0  0  0  0  0
   23.1843   -8.3774  -19.8426 C   0  0  0  0  0  0  0  0  0  0  0  0
   24.3339   -9.0467  -19.4108 C   0  0  0  0  0  0  0  0  0  0  0  0
   25.0281   -9.8027  -20.3324 C   0  0  0  0  0  0  0  0  0  0  0  0
   24.6295   -9.9176  -21.6482 C   0  0  0  0  0  0  0  0  0  0  0  0
   23.4868   -9.2445  -22.0512 C   0  0  0  0  0  0  0  0  0  0  0  0
   22.7918   -8.4929  -21.1464 C   0  0  0  0  0  0  0  0  0  0  0  0
   21.0756   -7.4684  -16.8878 C   0  0  0  0  0  0  0  0  0  0  0  0
   20.0327   -6.8541  -17.2223 O   0  0  0  0  0  0  0  0  0  0  0  0
   21.5263   -6.6083  -13.2443 C   0  0  0  0  0  0  0  0  0  0  0  0
   21.0414   -6.3388  -14.6286 C   0  0  2  0  0  0  0  0  0  0  0  0
   21.6139   -7.2255  -15.6196 N   0  0  0  0  0  0  0  0  0  0  0  0
   21.1378   -4.9618  -15.0792 C   0  0  0  0  0  0  0  0  0  0  0  0
   22.2037   -4.5710  -15.6232 O   0  0  0  0  0  0  0  0  0  0  0  0
   18.9887   -1.9494  -15.6460 C   0  0  0  0  0  0  0  0  0  0  0  0
   20.3168   -2.6249  -15.3906 C   0  0  2  0  0  0  0  0  0  0  0  0
   20.1131   -3.9875  -14.9603 N   0  0  0  0  0  0  0  0  0  0  0  0
   21.0680   -1.8414  -14.3997 C   0  0  0  0  0  0  0  0  0  0  0  0
   21.4347   -0.6570  -14.6496 O   0  0  0  0  0  0  0  0  0  0  0  0
   21.3925   -2.3701  -13.1783 O   0  0  0  0  0  0  0  0  0  0  0  0
  2  1  1  6
  2 10  1  0
  3  2  1  0
  4  3  1  0
  5  4  2  0
  6  5  1  0
  7  8  1  0
  7  6  2  0
  8  9  2  0
  9  4  1  0
 10 14  1  0
 10 11  2  0
 13 12  1  1
 14 13  1  0
 15 13  1  0
 15 19  1  0
 16 15  2  0
 18 17  1  1
 18 19  1  0
 18 20  1  0
 20 22  1  0
 21 20  2  0
M  END
$$$$
