NPG.pdb
     RDKit          3D

 20 20  0  0  1  0  0  0  0  0999 V2000
    5.5425  -13.2783   26.5671 N   0  0  0  0  0  0  0  0  0  0  0  0
    6.9557  -13.1028   26.6710 C   0  0  0  0  0  0  0  0  0  0  0  0
    7.3451  -12.0152   27.1922 O   0  0  0  0  0  0  0  0  0  0  0  0
    7.8917  -14.1489   26.1889 C   0  0  0  0  0  0  0  0  0  0  0  0
    7.0750  -15.2746   25.5852 C   0  0  2  0  0  0  0  0  0  0  0  0
    6.7826  -16.2119   26.5793 N   0  0  0  0  0  0  0  0  0  0  0  0
    7.7864  -15.8140   24.4007 C   0  0  0  0  0  0  0  0  0  0  0  0
    8.4699  -16.8740   24.5815 O   0  0  0  0  0  0  0  0  0  0  0  0
    7.7403  -15.2174   23.1121 N   0  0  0  0  0  0  0  0  0  0  0  0
    6.9204  -14.0662   22.7954 C   0  0  0  0  0  0  0  0  0  0  0  0
    7.0122  -13.8756   21.3029 C   0  0  0  0  0  0  0  0  0  0  0  0
    8.2052  -14.6551   20.8827 C   0  0  0  0  0  0  0  0  0  0  0  0
    8.4799  -15.6554   21.9735 C   0  0  1  0  0  0  0  0  0  0  0  0
    9.9401  -15.7628   22.2380 C   0  0  0  0  0  0  0  0  0  0  0  0
   10.4982  -14.8859   22.9398 O   0  0  0  0  0  0  0  0  0  0  0  0
   10.7380  -16.8156   21.7322 N   0  0  0  0  0  0  0  0  0  0  0  0
   12.1782  -16.8658   21.8796 C   0  0  0  0  0  0  0  0  0  0  0  0
   12.5808  -17.0899   23.2777 C   0  0  0  0  0  0  0  0  0  0  0  0
   12.0968  -18.0901   23.8703 O   0  0  0  0  0  0  0  0  0  0  0  0
   13.4476  -16.2833   23.9799 O   0  0  0  0  0  0  0  0  0  0  0  0
  2  1  1  0
  3  2  2  0
  4  2  1  0
  5  4  1  0
  5  6  1  1
  7  5  1  0
  7  8  2  0
  9  7  1  0
 10  9  1  0
 11 12  1  0
 11 10  1  0
 12 13  1  0
 13  9  1  0
 13 14  1  1
 14 15  2  0
 14 16  1  0
 16 17  1  0
 17 18  1  0
 18 20  1  0
 19 18  2  0
M  END
$$$$
