NPG.pdb
     RDKit          3D

 20 20  0  0  1  0  0  0  0  0999 V2000
    6.5433  -16.0531   26.0644 N   0  0  0  0  0  0  0  0  0  0  0  0
    7.9463  -15.9797   25.8098 C   0  0  0  0  0  0  0  0  0  0  0  0
    8.6951  -15.9170   26.8304 O   0  0  0  0  0  0  0  0  0  0  0  0
    8.4705  -15.9789   24.4213 C   0  0  0  0  0  0  0  0  0  0  0  0
    7.2911  -15.9958   23.4688 C   0  0  2  0  0  0  0  0  0  0  0  0
    6.5118  -17.1266   23.7255 N   0  0  0  0  0  0  0  0  0  0  0  0
    7.7859  -15.8749   22.0758 C   0  0  0  0  0  0  0  0  0  0  0  0
    8.1340  -16.9569   21.4998 O   0  0  0  0  0  0  0  0  0  0  0  0
    7.8858  -14.6419   21.3771 N   0  0  0  0  0  0  0  0  0  0  0  0
    7.5393  -13.3634   21.9627 C   0  0  0  0  0  0  0  0  0  0  0  0
    7.6017  -12.3525   20.8462 C   0  0  0  0  0  0  0  0  0  0  0  0
    8.3863  -13.0092   19.7688 C   0  0  0  0  0  0  0  0  0  0  0  0
    8.3340  -14.4906   20.0311 C   0  0  1  0  0  0  0  0  0  0  0  0
    9.6609  -15.1185   19.7887 C   0  0  0  0  0  0  0  0  0  0  0  0
   10.0361  -15.3135   18.6080 O   0  0  0  0  0  0  0  0  0  0  0  0
   10.5289  -15.5103   20.8347 N   0  0  0  0  0  0  0  0  0  0  0  0
   11.8579  -16.0414   20.6107 C   0  0  0  0  0  0  0  0  0  0  0  0
   12.5629  -16.3109   21.8745 C   0  0  0  0  0  0  0  0  0  0  0  0
   12.4793  -17.4731   22.3520 O   0  0  0  0  0  0  0  0  0  0  0  0
   13.3054  -15.3823   22.5684 O   0  0  0  0  0  0  0  0  0  0  0  0
  2  1  1  0
  3  2  2  0
  4  2  1  0
  5  4  1  0
  5  6  1  6
  7  5  1  0
  7  8  2  0
  9  7  1  0
 10  9  1  0
 11 12  1  0
 11 10  1  0
 12 13  1  0
 13  9  1  0
 13 14  1  1
 14 15  2  0
 14 16  1  0
 16 17  1  0
 17 18  1  0
 18 20  1  0
 19 18  2  0
M  END
$$$$
