NPG.pdb
     RDKit          3D

 20 20  0  0  1  0  0  0  0  0999 V2000
    7.6274  -16.0511   13.8534 N   0  0  0  0  0  0  0  0  0  0  0  0
    7.4473  -16.9031   14.9849 C   0  0  0  0  0  0  0  0  0  0  0  0
    6.5322  -17.7743   14.8862 O   0  0  0  0  0  0  0  0  0  0  0  0
    8.2960  -16.7555   16.1935 C   0  0  0  0  0  0  0  0  0  0  0  0
    9.0603  -15.4510   16.0803 C   0  0  2  0  0  0  0  0  0  0  0  0
   10.0430  -15.5805   15.0956 N   0  0  0  0  0  0  0  0  0  0  0  0
    9.5597  -15.0590   17.4208 C   0  0  0  0  0  0  0  0  0  0  0  0
   10.6747  -15.5595   17.7812 O   0  0  0  0  0  0  0  0  0  0  0  0
    8.8691  -14.1765   18.2941 N   0  0  0  0  0  0  0  0  0  0  0  0
    7.6571  -13.4753   17.9241 C   0  0  0  0  0  0  0  0  0  0  0  0
    7.3630  -12.5119   19.0455 C   0  0  0  0  0  0  0  0  0  0  0  0
    8.1705  -12.9940   20.1958 C   0  0  0  0  0  0  0  0  0  0  0  0
    9.2606  -13.8645   19.6301 C   0  0  1  0  0  0  0  0  0  0  0  0
    9.4623  -15.0746   20.4718 C   0  0  0  0  0  0  0  0  0  0  0  0
    8.6717  -16.0405   20.3495 O   0  0  0  0  0  0  0  0  0  0  0  0
   10.5122  -15.1909   21.4125 N   0  0  0  0  0  0  0  0  0  0  0  0
   10.8362  -16.4260   22.0967 C   0  0  0  0  0  0  0  0  0  0  0  0
   11.9400  -16.2509   23.0548 C   0  0  0  0  0  0  0  0  0  0  0  0
   13.0762  -15.9705   22.5899 O   0  0  0  0  0  0  0  0  0  0  0  0
   11.8158  -16.3724   24.4204 O   0  0  0  0  0  0  0  0  0  0  0  0
  2  1  1  0
  3  2  2  0
  4  2  1  0
  5  4  1  0
  5  6  1  6
  7  5  1  0
  7  8  2  0
  9  7  1  0
 10  9  1  0
 11 12  1  0
 11 10  1  0
 12 13  1  0
 13  9  1  0
 13 14  1  1
 14 15  2  0
 14 16  1  0
 16 17  1  0
 17 18  1  0
 18 20  1  0
 19 18  2  0
M  END
$$$$
