NPG.pdb
     RDKit          3D

 20 20  0  0  1  0  0  0  0  0999 V2000
    8.2314  -16.5355   22.1241 N   0  0  0  0  0  0  0  0  0  0  0  0
    6.8354  -16.2495   22.2148 C   0  0  0  0  0  0  0  0  0  0  0  0
    6.0543  -17.2381   22.0780 O   0  0  0  0  0  0  0  0  0  0  0  0
    6.3543  -14.8664   22.4558 C   0  0  0  0  0  0  0  0  0  0  0  0
    7.5622  -13.9577   22.5740 C   0  0  2  0  0  0  0  0  0  0  0  0
    8.4531  -14.2435   21.5365 N   0  0  0  0  0  0  0  0  0  0  0  0
    8.1285  -14.0726   23.9401 C   0  0  0  0  0  0  0  0  0  0  0  0
    9.1670  -14.8001   24.0660 O   0  0  0  0  0  0  0  0  0  0  0  0
    7.5794  -13.4263   25.0799 N   0  0  0  0  0  0  0  0  0  0  0  0
    6.4543  -12.5165   25.0158 C   0  0  0  0  0  0  0  0  0  0  0  0
    6.3158  -11.9128   26.3900 C   0  0  0  0  0  0  0  0  0  0  0  0
    7.0897  -12.8075   27.2890 C   0  0  0  0  0  0  0  0  0  0  0  0
    8.0455  -13.5799   26.4196 C   0  0  1  0  0  0  0  0  0  0  0  0
    8.1187  -15.0029   26.8474 C   0  0  0  0  0  0  0  0  0  0  0  0
    7.1336  -15.7519   26.6435 O   0  0  0  0  0  0  0  0  0  0  0  0
    9.2558  -15.5586   27.4792 N   0  0  0  0  0  0  0  0  0  0  0  0
    9.3966  -16.9712   27.7679 C   0  0  0  0  0  0  0  0  0  0  0  0
   10.6606  -17.2676   28.4619 C   0  0  0  0  0  0  0  0  0  0  0  0
   10.5888  -17.7873   29.6066 O   0  0  0  0  0  0  0  0  0  0  0  0
   11.9122  -17.0164   27.9467 O   0  0  0  0  0  0  0  0  0  0  0  0
  2  1  1  0
  3  2  2  0
  4  2  1  0
  5  4  1  0
  5  6  1  6
  7  5  1  0
  7  8  2  0
  9  7  1  0
 10  9  1  0
 11 12  1  0
 11 10  1  0
 12 13  1  0
 13  9  1  0
 13 14  1  1
 14 15  2  0
 14 16  1  0
 16 17  1  0
 17 18  1  0
 18 20  1  0
 19 18  2  0
M  END
$$$$
