NPG.pdb
     RDKit          3D

 20 20  0  0  1  0  0  0  0  0999 V2000
    4.5206  -20.7367   23.4148 N   0  0  0  0  0  0  0  0  0  0  0  0
    5.2610  -20.0811   22.3850 C   0  0  0  0  0  0  0  0  0  0  0  0
    5.3015  -20.6728   21.2650 O   0  0  0  0  0  0  0  0  0  0  0  0
    5.9344  -18.7828   22.6383 C   0  0  0  0  0  0  0  0  0  0  0  0
    7.1573  -19.0420   23.4962 C   0  0  2  0  0  0  0  0  0  0  0  0
    6.7798  -19.0473   24.8414 N   0  0  0  0  0  0  0  0  0  0  0  0
    8.2175  -18.0665   23.1435 C   0  0  0  0  0  0  0  0  0  0  0  0
    9.1847  -18.5069   22.4405 O   0  0  0  0  0  0  0  0  0  0  0  0
    8.2018  -16.7035   23.5438 N   0  0  0  0  0  0  0  0  0  0  0  0
    7.0489  -16.0608   24.1400 C   0  0  0  0  0  0  0  0  0  0  0  0
    7.3802  -14.5933   24.2338 C   0  0  0  0  0  0  0  0  0  0  0  0
    8.8563  -14.5162   24.0827 C   0  0  0  0  0  0  0  0  0  0  0  0
    9.2952  -15.7951   23.4211 C   0  0  1  0  0  0  0  0  0  0  0  0
   10.5468  -16.3090   24.0399 C   0  0  0  0  0  0  0  0  0  0  0  0
   10.4892  -16.8569   25.1665 O   0  0  0  0  0  0  0  0  0  0  0  0
   11.8114  -16.2092   23.4140 N   0  0  0  0  0  0  0  0  0  0  0  0
   13.0351  -16.7113   24.0048 C   0  0  0  0  0  0  0  0  0  0  0  0
   14.2068  -16.4436   23.1549 C   0  0  0  0  0  0  0  0  0  0  0  0
   15.0846  -15.6597   23.6027 O   0  0  0  0  0  0  0  0  0  0  0  0
   14.4082  -16.9899   21.9075 O   0  0  0  0  0  0  0  0  0  0  0  0
  2  1  1  0
  3  2  2  0
  4  2  1  0
  5  4  1  0
  5  6  1  1
  7  5  1  0
  7  8  2  0
  9  7  1  0
 10  9  1  0
 11 12  1  0
 11 10  1  0
 12 13  1  0
 13  9  1  0
 13 14  1  1
 14 15  2  0
 14 16  1  0
 16 17  1  0
 17 18  1  0
 18 20  1  0
 19 18  2  0
M  END
$$$$
