NPG.pdb
     RDKit          3D

 20 20  0  0  1  0  0  0  0  0999 V2000
    7.7718  -18.6212   16.3370 N   0  0  0  0  0  0  0  0  0  0  0  0
    7.2832  -18.8157   17.6644 C   0  0  0  0  0  0  0  0  0  0  0  0
    6.5907  -19.8598   17.8557 O   0  0  0  0  0  0  0  0  0  0  0  0
    7.5836  -17.8369   18.7389 C   0  0  0  0  0  0  0  0  0  0  0  0
    8.4762  -16.7564   18.1604 C   0  0  2  0  0  0  0  0  0  0  0  0
    9.4150  -17.3454   17.3096 N   0  0  0  0  0  0  0  0  0  0  0  0
    9.0473  -15.9500   19.2666 C   0  0  0  0  0  0  0  0  0  0  0  0
   10.1264  -16.3829   19.7879 O   0  0  0  0  0  0  0  0  0  0  0  0
    8.4606  -14.7520   19.7555 N   0  0  0  0  0  0  0  0  0  0  0  0
    7.3352  -14.0984   19.1200 C   0  0  0  0  0  0  0  0  0  0  0  0
    7.1516  -12.7810   19.8293 C   0  0  0  0  0  0  0  0  0  0  0  0
    7.8997  -12.9177   21.1058 C   0  0  0  0  0  0  0  0  0  0  0  0
    8.8848  -14.0401   20.9168 C   0  0  1  0  0  0  0  0  0  0  0  0
    8.9490  -14.8982   22.1305 C   0  0  0  0  0  0  0  0  0  0  0  0
    8.0599  -15.7638   22.3125 O   0  0  0  0  0  0  0  0  0  0  0  0
    9.9736  -14.7850   23.0992 N   0  0  0  0  0  0  0  0  0  0  0  0
   10.0067  -15.5652   24.3193 C   0  0  0  0  0  0  0  0  0  0  0  0
   11.1435  -16.5001   24.3439 C   0  0  0  0  0  0  0  0  0  0  0  0
   12.1201  -16.2499   23.5894 O   0  0  0  0  0  0  0  0  0  0  0  0
   11.2120  -17.6261   25.1329 O   0  0  0  0  0  0  0  0  0  0  0  0
  2  1  1  0
  3  2  2  0
  4  2  1  0
  5  4  1  0
  5  6  1  1
  7  5  1  0
  7  8  2  0
  9  7  1  0
 10  9  1  0
 11 12  1  0
 11 10  1  0
 12 13  1  0
 13  9  1  0
 13 14  1  1
 14 15  2  0
 14 16  1  0
 16 17  1  0
 17 18  1  0
 18 20  1  0
 19 18  2  0
M  END
$$$$
