NPG.pdb
     RDKit          3D

 20 20  0  0  1  0  0  0  0  0999 V2000
    6.8267  -19.2808   20.3268 N   0  0  0  0  0  0  0  0  0  0  0  0
    5.8096  -18.4069   20.8172 C   0  0  0  0  0  0  0  0  0  0  0  0
    5.1972  -18.7931   21.8574 O   0  0  0  0  0  0  0  0  0  0  0  0
    5.5077  -17.1266   20.1299 C   0  0  0  0  0  0  0  0  0  0  0  0
    6.5435  -16.9156   19.0431 C   0  0  2  0  0  0  0  0  0  0  0  0
    6.7381  -18.1171   18.3571 N   0  0  0  0  0  0  0  0  0  0  0  0
    7.7664  -16.3265   19.6409 C   0  0  0  0  0  0  0  0  0  0  0  0
    8.7159  -17.1339   19.9058 O   0  0  0  0  0  0  0  0  0  0  0  0
    7.9201  -14.9426   19.9229 N   0  0  0  0  0  0  0  0  0  0  0  0
    6.8990  -13.9539   19.6440 C   0  0  0  0  0  0  0  0  0  0  0  0
    7.5254  -12.6085   19.9077 C   0  0  0  0  0  0  0  0  0  0  0  0
    8.7321  -12.8937   20.7263 C   0  0  0  0  0  0  0  0  0  0  0  0
    9.0742  -14.3435   20.5098 C   0  0  1  0  0  0  0  0  0  0  0  0
    9.4748  -14.9898   21.7887 C   0  0  0  0  0  0  0  0  0  0  0  0
    8.6019  -15.2010   22.6642 O   0  0  0  0  0  0  0  0  0  0  0  0
   10.8047  -15.3817   22.0689 N   0  0  0  0  0  0  0  0  0  0  0  0
   11.2002  -16.0372   23.2988 C   0  0  0  0  0  0  0  0  0  0  0  0
   12.6187  -16.4303   23.2812 C   0  0  0  0  0  0  0  0  0  0  0  0
   12.9323  -17.4510   22.6138 O   0  0  0  0  0  0  0  0  0  0  0  0
   13.6232  -15.7605   23.9425 O   0  0  0  0  0  0  0  0  0  0  0  0
  2  1  1  0
  3  2  2  0
  4  2  1  0
  5  4  1  0
  5  6  1  1
  7  5  1  0
  7  8  2  0
  9  7  1  0
 10  9  1  0
 11 12  1  0
 11 10  1  0
 12 13  1  0
 13  9  1  0
 13 14  1  1
 14 15  2  0
 14 16  1  0
 16 17  1  0
 17 18  1  0
 18 20  1  0
 19 18  2  0
M  END
$$$$
