NPG.pdb
     RDKit          3D

 20 20  0  0  1  0  0  0  0  0999 V2000
    8.9086  -15.0146   26.2575 N   0  0  0  0  0  0  0  0  0  0  0  0
    8.2849  -14.6638   25.0219 C   0  0  0  0  0  0  0  0  0  0  0  0
    7.1147  -14.1844   25.1050 O   0  0  0  0  0  0  0  0  0  0  0  0
    8.9885  -14.8594   23.7298 C   0  0  0  0  0  0  0  0  0  0  0  0
    7.9717  -15.3094   22.6992 C   0  0  2  0  0  0  0  0  0  0  0  0
    7.3866  -16.5045   23.1252 N   0  0  0  0  0  0  0  0  0  0  0  0
    8.6190  -15.3654   21.3658 C   0  0  0  0  0  0  0  0  0  0  0  0
    9.1409  -16.4791   21.0331 O   0  0  0  0  0  0  0  0  0  0  0  0
    8.6806  -14.2638   20.4707 N   0  0  0  0  0  0  0  0  0  0  0  0
    7.9535  -13.0281   20.6759 C   0  0  0  0  0  0  0  0  0  0  0  0
    8.1380  -12.2121   19.4220 C   0  0  0  0  0  0  0  0  0  0  0  0
    9.3004  -12.8227   18.7267 C   0  0  0  0  0  0  0  0  0  0  0  0
    9.4518  -14.2178   19.2713 C   0  0  1  0  0  0  0  0  0  0  0  0
   10.8858  -14.5473   19.4921 C   0  0  0  0  0  0  0  0  0  0  0  0
   11.4576  -14.1191   20.5230 O   0  0  0  0  0  0  0  0  0  0  0  0
   11.6438  -15.3275   18.5879 N   0  0  0  0  0  0  0  0  0  0  0  0
   13.0187  -15.7155   18.8283 C   0  0  0  0  0  0  0  0  0  0  0  0
   13.9709  -14.7748   18.2156 C   0  0  0  0  0  0  0  0  0  0  0  0
   15.1361  -15.1928   17.9848 O   0  0  0  0  0  0  0  0  0  0  0  0
   13.6759  -13.4731   17.8786 O   0  0  0  0  0  0  0  0  0  0  0  0
  2  1  1  0
  3  2  2  0
  4  2  1  0
  5  4  1  0
  5  6  1  1
  7  5  1  0
  7  8  2  0
  9  7  1  0
 10  9  1  0
 11 12  1  0
 11 10  1  0
 12 13  1  0
 13  9  1  0
 13 14  1  1
 14 15  2  0
 14 16  1  0
 16 17  1  0
 17 18  1  0
 18 20  1  0
 19 18  2  0
M  END
$$$$
