TCQ.pdb
     RDKit          3D

 23 22  0  0  1  0  0  0  0  0999 V2000
   23.8741  -20.1396  -17.6925 C   0  0  0  0  0  0  0  0  0  0  0  0
   22.7642  -20.4274  -16.6913 C   0  0  1  0  0  0  0  0  0  0  0  0
   21.6784  -21.0103  -17.3088 O   0  0  0  0  0  0  0  0  0  0  0  0
   23.3042  -21.3329  -15.6189 C   0  0  2  0  0  0  0  0  0  0  0  0
   23.5348  -22.6566  -16.1747 N   0  0  0  0  0  0  0  0  0  0  0  0
   22.2410  -21.4669  -14.5616 C   0  0  0  0  0  0  0  0  0  0  0  0
   21.7159  -22.5862  -14.3187 O   0  0  0  0  0  0  0  0  0  0  0  0
   21.8214  -20.3377  -13.8303 N   0  0  0  0  0  0  0  0  0  0  0  0
   20.6932  -20.4863  -12.9023 C   0  0  1  0  0  0  0  0  0  0  0  0
   20.8566  -19.4397  -11.8146 C   0  0  0  0  0  0  0  0  0  0  0  0
   19.5211  -19.5210  -10.6163 S   0  0  0  0  0  0  0  0  0  0  0  0
   19.4378  -20.2336  -13.6721 C   0  0  0  0  0  0  0  0  0  0  0  0
   19.3942  -19.2343  -14.4674 O   0  0  0  0  0  0  0  0  0  0  0  0
   17.7643  -24.6847  -13.6667 N   0  0  0  0  0  0  0  0  0  0  0  0
   17.7828  -24.2960  -15.0237 C   0  0  0  0  0  0  0  0  0  0  0  0
   18.3358  -25.0761  -15.8708 O   0  0  0  0  0  0  0  0  0  0  0  0
   17.1928  -23.0383  -15.5312 C   0  0  0  0  0  0  0  0  0  0  0  0
   16.5392  -22.1843  -14.5194 C   0  0  0  0  0  0  0  0  0  0  0  0
   17.0686  -20.8200  -14.2795 C   0  0  2  0  0  0  0  0  0  0  0  0
   18.3434  -21.0668  -13.5294 N   0  0  0  0  0  0  0  0  0  0  0  0
   16.2704  -19.8966  -13.4758 C   0  0  0  0  0  0  0  0  0  0  0  0
   15.3585  -18.9988  -14.0118 O   0  0  0  0  0  0  0  0  0  0  0  0
   16.4018  -19.8988  -12.2245 O   0  0  0  0  0  0  0  0  0  0  0  0
  2  1  1  6
  2  4  1  0
  3  2  1  0
  4  5  1  6
  6  8  1  0
  6  4  1  0
  7  6  2  0
  9 12  1  0
  9  8  1  0
  9 10  1  1
 11 10  1  0
 12 20  1  0
 13 12  2  0
 15 17  1  0
 15 14  1  0
 16 15  2  0
 18 17  1  0
 19 21  1  0
 19 18  1  1
 20 19  1  0
 21 22  1  0
 23 21  2  0
M  END
$$$$
