TCQ.pdb
     RDKit          3D

 23 22  0  0  1  0  0  0  0  0999 V2000
   20.3977  -11.8913  -20.3321 C   0  0  0  0  0  0  0  0  0  0  0  0
   19.9990  -10.8657  -19.2804 C   0  0  1  0  0  0  0  0  0  0  0  0
   18.6636  -10.5408  -19.3860 O   0  0  0  0  0  0  0  0  0  0  0  0
   20.2932  -11.4314  -17.9183 C   0  0  2  0  0  0  0  0  0  0  0  0
   19.4179  -12.5646  -17.6660 N   0  0  0  0  0  0  0  0  0  0  0  0
   19.9593  -10.3693  -16.9051 C   0  0  0  0  0  0  0  0  0  0  0  0
   18.8158  -10.3232  -16.3779 O   0  0  0  0  0  0  0  0  0  0  0  0
   20.9260   -9.4132  -16.5346 N   0  0  0  0  0  0  0  0  0  0  0  0
   20.5344   -8.3497  -15.6010 C   0  0  1  0  0  0  0  0  0  0  0  0
   21.3274   -8.5510  -14.3220 C   0  0  0  0  0  0  0  0  0  0  0  0
   21.0355   -7.2217  -13.1499 S   0  0  0  0  0  0  0  0  0  0  0  0
   20.8956   -7.0421  -16.2273 C   0  0  0  0  0  0  0  0  0  0  0  0
   22.0617   -6.9022  -16.7309 O   0  0  0  0  0  0  0  0  0  0  0  0
   16.3209   -5.0231  -18.2021 N   0  0  0  0  0  0  0  0  0  0  0  0
   17.2750   -4.5770  -19.1422 C   0  0  0  0  0  0  0  0  0  0  0  0
   16.9417   -4.5423  -20.3750 O   0  0  0  0  0  0  0  0  0  0  0  0
   18.6421   -4.1381  -18.7876 C   0  0  0  0  0  0  0  0  0  0  0  0
   18.9777   -4.1884  -17.3506 C   0  0  0  0  0  0  0  0  0  0  0  0
   20.3065   -4.7031  -16.9400 C   0  0  2  0  0  0  0  0  0  0  0  0
   19.9844   -6.0025  -16.2645 N   0  0  0  0  0  0  0  0  0  0  0  0
   21.0959   -3.9139  -15.9968 C   0  0  0  0  0  0  0  0  0  0  0  0
   22.1162   -3.0539  -16.3764 O   0  0  0  0  0  0  0  0  0  0  0  0
   20.8533   -4.0042  -14.7655 O   0  0  0  0  0  0  0  0  0  0  0  0
  2  1  1  6
  2  4  1  0
  3  2  1  0
  4  5  1  1
  6  8  1  0
  6  4  1  0
  7  6  2  0
  9 12  1  0
  9  8  1  0
  9 10  1  1
 11 10  1  0
 12 20  1  0
 13 12  2  0
 15 17  1  0
 15 14  1  0
 16 15  2  0
 18 17  1  0
 19 21  1  0
 19 18  1  1
 20 19  1  0
 21 22  1  0
 23 21  2  0
M  END
$$$$
