TCQ.pdb
     RDKit          3D

 23 22  0  0  1  0  0  0  0  0999 V2000
   17.8785   -9.9853  -17.5053 C   0  0  0  0  0  0  0  0  0  0  0  0
   17.7030  -11.4444  -17.1089 C   0  0  1  0  0  0  0  0  0  0  0  0
   16.8153  -12.0828  -17.9482 O   0  0  0  0  0  0  0  0  0  0  0  0
   19.0448  -12.1219  -17.1542 C   0  0  2  0  0  0  0  0  0  0  0  0
   18.9021  -13.5062  -16.7328 N   0  0  0  0  0  0  0  0  0  0  0  0
   19.9332  -11.4348  -16.1518 C   0  0  0  0  0  0  0  0  0  0  0  0
   19.7229  -11.5614  -14.9159 O   0  0  0  0  0  0  0  0  0  0  0  0
   21.0129  -10.6409  -16.5875 N   0  0  0  0  0  0  0  0  0  0  0  0
   21.7929   -9.9096  -15.5810 C   0  0  1  0  0  0  0  0  0  0  0  0
   23.2244  -10.4088  -15.6625 C   0  0  0  0  0  0  0  0  0  0  0  0
   24.3047   -9.4950  -14.5560 S   0  0  0  0  0  0  0  0  0  0  0  0
   21.7357   -8.4582  -15.9309 C   0  0  0  0  0  0  0  0  0  0  0  0
   21.9376   -8.1091  -17.1435 O   0  0  0  0  0  0  0  0  0  0  0  0
   17.7109   -4.0169  -15.8155 N   0  0  0  0  0  0  0  0  0  0  0  0
   18.1309   -4.9715  -16.7670 C   0  0  0  0  0  0  0  0  0  0  0  0
   17.4450   -5.1047  -17.8365 O   0  0  0  0  0  0  0  0  0  0  0  0
   19.3261   -5.8279  -16.6065 C   0  0  0  0  0  0  0  0  0  0  0  0
   20.0533   -5.6785  -15.3302 C   0  0  0  0  0  0  0  0  0  0  0  0
   21.4898   -6.0428  -15.2741 C   0  0  2  0  0  0  0  0  0  0  0  0
   21.4664   -7.5092  -14.9617 N   0  0  0  0  0  0  0  0  0  0  0  0
   22.3298   -5.4028  -14.2639 C   0  0  0  0  0  0  0  0  0  0  0  0
   22.9213   -4.1587  -14.4291 O   0  0  0  0  0  0  0  0  0  0  0  0
   22.5419   -5.9961  -13.1749 O   0  0  0  0  0  0  0  0  0  0  0  0
  2  1  1  6
  2  4  1  0
  3  2  1  0
  4  5  1  1
  6  8  1  0
  6  4  1  0
  7  6  2  0
  9 12  1  0
  9  8  1  0
  9 10  1  6
 11 10  1  0
 12 20  1  0
 13 12  2  0
 15 17  1  0
 15 14  1  0
 16 15  2  0
 18 17  1  0
 19 21  1  0
 19 18  1  1
 20 19  1  0
 21 22  1  0
 23 21  2  0
M  END
$$$$
