TCQ.pdb
     RDKit          3D

 23 22  0  0  1  0  0  0  0  0999 V2000
   16.0522  -11.0639  -11.8942 C   0  0  0  0  0  0  0  0  0  0  0  0
   14.5994  -11.3387  -11.5326 C   0  0  1  0  0  0  0  0  0  0  0  0
   14.3355  -12.6916  -11.5345 O   0  0  0  0  0  0  0  0  0  0  0  0
   14.3205  -10.7536  -10.1756 C   0  0  2  0  0  0  0  0  0  0  0  0
   12.9208  -10.9578   -9.8394 N   0  0  0  0  0  0  0  0  0  0  0  0
   14.5503   -9.2686  -10.2668 C   0  0  0  0  0  0  0  0  0  0  0  0
   13.7635   -8.5375  -10.9256 O   0  0  0  0  0  0  0  0  0  0  0  0
   15.6513   -8.6796   -9.6135 N   0  0  0  0  0  0  0  0  0  0  0  0
   15.8698   -7.2367   -9.7761 C   0  0  1  0  0  0  0  0  0  0  0  0
   15.7016   -6.5935   -8.4111 C   0  0  0  0  0  0  0  0  0  0  0  0
   16.4485   -4.9609   -8.3558 S   0  0  0  0  0  0  0  0  0  0  0  0
   17.2683   -7.0431  -10.2650 C   0  0  0  0  0  0  0  0  0  0  0  0
   18.2240   -7.6152   -9.6385 O   0  0  0  0  0  0  0  0  0  0  0  0
   19.7710   -9.8844  -13.9287 N   0  0  0  0  0  0  0  0  0  0  0  0
   20.7063   -8.8271  -13.9449 C   0  0  0  0  0  0  0  0  0  0  0  0
   21.8393   -9.0278  -14.5001 O   0  0  0  0  0  0  0  0  0  0  0  0
   20.4539   -7.4912  -13.3625 C   0  0  0  0  0  0  0  0  0  0  0  0
   19.1978   -7.3534  -12.5986 C   0  0  0  0  0  0  0  0  0  0  0  0
   18.9183   -6.0762  -11.8986 C   0  0  2  0  0  0  0  0  0  0  0  0
   17.5248   -6.2616  -11.3767 N   0  0  0  0  0  0  0  0  0  0  0  0
   18.9228   -4.8408  -12.6793 C   0  0  0  0  0  0  0  0  0  0  0  0
   17.7808   -4.2648  -13.2167 O   0  0  0  0  0  0  0  0  0  0  0  0
   20.0135   -4.2493  -12.8880 O   0  0  0  0  0  0  0  0  0  0  0  0
  2  1  1  1
  2  4  1  0
  3  2  1  0
  4  5  1  6
  6  8  1  0
  6  4  1  0
  7  6  2  0
  9 12  1  0
  9  8  1  0
  9 10  1  1
 11 10  1  0
 12 20  1  0
 13 12  2  0
 15 17  1  0
 15 14  1  0
 16 15  2  0
 18 17  1  0
 19 21  1  0
 19 18  1  6
 20 19  1  0
 21 22  1  0
 23 21  2  0
M  END
$$$$
