TCQ.pdb
     RDKit          3D

 23 22  0  0  1  0  0  0  0  0999 V2000
   19.0580  -10.9151  -19.4812 C   0  0  0  0  0  0  0  0  0  0  0  0
   18.5951  -12.1279  -18.6862 C   0  0  1  0  0  0  0  0  0  0  0  0
   18.4429  -13.2276  -19.5033 O   0  0  0  0  0  0  0  0  0  0  0  0
   19.6045  -12.4129  -17.6086 C   0  0  2  0  0  0  0  0  0  0  0  0
   19.2358  -13.6345  -16.9116 N   0  0  0  0  0  0  0  0  0  0  0  0
   19.5339  -11.2866  -16.6124 C   0  0  0  0  0  0  0  0  0  0  0  0
   18.5689  -11.2031  -15.8066 O   0  0  0  0  0  0  0  0  0  0  0  0
   20.5503  -10.3113  -16.5709 N   0  0  0  0  0  0  0  0  0  0  0  0
   20.4066   -9.1923  -15.6310 C   0  0  1  0  0  0  0  0  0  0  0  0
   21.7758   -8.9192  -15.0345 C   0  0  0  0  0  0  0  0  0  0  0  0
   21.7479   -7.4886  -13.9489 S   0  0  0  0  0  0  0  0  0  0  0  0
   19.9405   -8.0049  -16.4089 C   0  0  0  0  0  0  0  0  0  0  0  0
   20.5069   -7.7380  -17.5229 O   0  0  0  0  0  0  0  0  0  0  0  0
   16.9143   -7.2845  -20.1832 N   0  0  0  0  0  0  0  0  0  0  0  0
   16.4410   -6.0302  -19.7408 C   0  0  0  0  0  0  0  0  0  0  0  0
   15.8192   -5.2880  -20.5742 O   0  0  0  0  0  0  0  0  0  0  0  0
   16.6143   -5.5204  -18.3633 C   0  0  0  0  0  0  0  0  0  0  0  0
   17.2694   -6.4450  -17.4167 C   0  0  0  0  0  0  0  0  0  0  0  0
   18.4668   -5.9838  -16.6733 C   0  0  2  0  0  0  0  0  0  0  0  0
   18.9131   -7.2101  -15.9344 N   0  0  0  0  0  0  0  0  0  0  0  0
   18.3031   -4.9223  -15.6823 C   0  0  0  0  0  0  0  0  0  0  0  0
   18.3933   -3.5701  -15.9794 O   0  0  0  0  0  0  0  0  0  0  0  0
   18.0663   -5.2296  -14.4854 O   0  0  0  0  0  0  0  0  0  0  0  0
  2  1  1  6
  2  4  1  0
  3  2  1  0
  4  5  1  1
  6  8  1  0
  6  4  1  0
  7  6  2  0
  9 12  1  0
  9  8  1  0
  9 10  1  6
 11 10  1  0
 12 20  1  0
 13 12  2  0
 15 17  1  0
 15 14  1  0
 16 15  2  0
 18 17  1  0
 19 21  1  0
 19 18  1  1
 20 19  1  0
 21 22  1  0
 23 21  2  0
M  END
$$$$
