TCQ.pdb
     RDKit          3D

 23 22  0  0  1  0  0  0  0  0999 V2000
   27.0475  -18.0590  -14.4140 C   0  0  0  0  0  0  0  0  0  0  0  0
   27.3850  -18.9992  -15.5625 C   0  0  1  0  0  0  0  0  0  0  0  0
   28.3135  -18.4334  -16.4098 O   0  0  0  0  0  0  0  0  0  0  0  0
   27.9133  -20.2869  -14.9931 C   0  0  2  0  0  0  0  0  0  0  0  0
   28.3074  -21.1701  -16.0788 N   0  0  0  0  0  0  0  0  0  0  0  0
   26.7824  -20.9543  -14.2571 C   0  0  0  0  0  0  0  0  0  0  0  0
   25.9101  -21.6132  -14.8836 O   0  0  0  0  0  0  0  0  0  0  0  0
   26.6881  -20.8486  -12.8550 N   0  0  0  0  0  0  0  0  0  0  0  0
   25.5246  -21.4446  -12.1862 C   0  0  1  0  0  0  0  0  0  0  0  0
   25.7594  -21.3469  -10.6894 C   0  0  0  0  0  0  0  0  0  0  0  0
   25.8390  -19.6370  -10.1454 S   0  0  0  0  0  0  0  0  0  0  0  0
   24.3229  -20.6438  -12.5697 C   0  0  0  0  0  0  0  0  0  0  0  0
   24.4890  -19.4510  -12.9971 O   0  0  0  0  0  0  0  0  0  0  0  0
   20.9306  -20.6003  -17.1081 N   0  0  0  0  0  0  0  0  0  0  0  0
   21.1521  -19.3378  -16.5166 C   0  0  0  0  0  0  0  0  0  0  0  0
   20.7745  -18.2956  -17.1517 O   0  0  0  0  0  0  0  0  0  0  0  0
   21.7912  -19.1440  -15.1970 C   0  0  0  0  0  0  0  0  0  0  0  0
   22.1506  -20.3795  -14.4726 C   0  0  0  0  0  0  0  0  0  0  0  0
   21.8546  -20.4749  -13.0226 C   0  0  2  0  0  0  0  0  0  0  0  0
   23.0538  -21.1835  -12.4672 N   0  0  0  0  0  0  0  0  0  0  0  0
   20.6770  -21.2315  -12.6024 C   0  0  0  0  0  0  0  0  0  0  0  0
   20.6786  -22.6017  -12.3849 O   0  0  0  0  0  0  0  0  0  0  0  0
   19.5892  -20.6256  -12.4216 O   0  0  0  0  0  0  0  0  0  0  0  0
  2  1  1  1
  2  4  1  0
  3  2  1  0
  4  5  1  6
  6  8  1  0
  6  4  1  0
  7  6  2  0
  9 12  1  0
  9  8  1  0
  9 10  1  1
 11 10  1  0
 12 20  1  0
 13 12  2  0
 15 17  1  0
 15 14  1  0
 16 15  2  0
 18 17  1  0
 19 21  1  0
 19 18  1  6
 20 19  1  0
 21 22  1  0
 23 21  2  0
M  END
$$$$
