TYQ.pdb
     RDKit          3D

 29 29  0  0  1  0  0  0  0  0999 V2000
   20.4461   -8.1386  -16.2388 C   0  0  0  0  0  0  0  0  0  0  0  0
   19.5967   -9.3031  -16.7127 C   0  0  1  0  0  0  0  0  0  0  0  0
   18.3116   -8.8950  -17.0433 O   0  0  0  0  0  0  0  0  0  0  0  0
   20.2588  -10.0773  -17.8117 C   0  0  2  0  0  0  0  0  0  0  0  0
   20.3227   -9.1918  -18.9805 N   0  0  0  0  0  0  0  0  0  0  0  0
   19.5576  -11.3323  -18.1610 C   0  0  0  0  0  0  0  0  0  0  0  0
   18.4032  -11.3321  -18.7088 O   0  0  0  0  0  0  0  0  0  0  0  0
   18.5560  -19.9173  -20.1818 O   0  0  0  0  0  0  0  0  0  0  0  0
   19.0338  -18.6768  -19.7955 C   0  0  0  0  0  0  0  0  0  0  0  0
   19.9293  -18.5402  -18.7607 C   0  0  0  0  0  0  0  0  0  0  0  0
   20.3998  -17.2755  -18.3865 C   0  0  0  0  0  0  0  0  0  0  0  0
   19.9818  -16.1395  -19.0401 C   0  0  0  0  0  0  0  0  0  0  0  0
   20.4727  -14.8255  -18.6449 C   0  0  0  0  0  0  0  0  0  0  0  0
   19.3921  -13.8334  -18.2664 C   0  0  2  0  0  0  0  0  0  0  0  0
   20.1125  -12.6012  -17.9144 N   0  0  0  0  0  0  0  0  0  0  0  0
   18.5296  -14.2816  -17.1678 C   0  0  0  0  0  0  0  0  0  0  0  0
   18.9422  -14.1924  -15.9829 O   0  0  0  0  0  0  0  0  0  0  0  0
   19.0868  -16.2904  -20.0722 C   0  0  0  0  0  0  0  0  0  0  0  0
   18.6137  -17.5455  -20.4509 C   0  0  0  0  0  0  0  0  0  0  0  0
   12.3583  -15.1055  -17.2911 N   0  0  0  0  0  0  0  0  0  0  0  0
   12.6064  -15.2480  -15.9049 C   0  0  0  0  0  0  0  0  0  0  0  0
   11.6896  -15.3252  -15.0712 O   0  0  0  0  0  0  0  0  0  0  0  0
   14.0459  -15.3032  -15.4720 C   0  0  0  0  0  0  0  0  0  0  0  0
   14.9610  -15.0703  -16.6407 C   0  0  0  0  0  0  0  0  0  0  0  0
   16.3887  -15.1267  -16.2352 C   0  0  2  0  0  0  0  0  0  0  0  0
   17.2517  -14.8099  -17.3953 N   0  0  0  0  0  0  0  0  0  0  0  0
   16.7834  -16.4680  -15.7715 C   0  0  0  0  0  0  0  0  0  0  0  0
   17.2227  -16.6268  -14.5793 O   0  0  0  0  0  0  0  0  0  0  0  0
   16.7257  -17.6291  -16.5175 O   0  0  0  0  0  0  0  0  0  0  0  0
  2  1  1  6
  2  4  1  0
  2  3  1  0
  4  6  1  0
  4  5  1  6
  6  7  2  0
  9  8  1  0
  9 19  2  0
 10  9  1  0
 11 10  2  0
 11 12  1  0
 12 18  2  0
 13 12  1  0
 14 13  1  1
 14 16  1  0
 15 14  1  0
 15  6  1  0
 16 17  2  0
 18 19  1  0
 20 21  1  0
 21 22  2  0
 23 21  1  0
 23 24  1  0
 25 24  1  6
 25 27  1  0
 26 16  1  0
 26 25  1  0
 27 28  2  0
 27 29  1  0
M  END
$$$$
