TYQ.pdb
     RDKit          3D

 29 29  0  0  1  0  0  0  0  0999 V2000
   23.8427  -16.8678  -19.7236 C   0  0  0  0  0  0  0  0  0  0  0  0
   24.2874  -16.2364  -18.4177 C   0  0  1  0  0  0  0  0  0  0  0  0
   23.2194  -16.0559  -17.5493 O   0  0  0  0  0  0  0  0  0  0  0  0
   25.4264  -16.9791  -17.7879 C   0  0  2  0  0  0  0  0  0  0  0  0
   26.5143  -17.0093  -18.7727 N   0  0  0  0  0  0  0  0  0  0  0  0
   25.0799  -18.3551  -17.3691 C   0  0  0  0  0  0  0  0  0  0  0  0
   24.8822  -19.2905  -18.2167 O   0  0  0  0  0  0  0  0  0  0  0  0
   29.8965  -22.8501  -17.6395 O   0  0  0  0  0  0  0  0  0  0  0  0
   28.8401  -22.2957  -16.9373 C   0  0  0  0  0  0  0  0  0  0  0  0
   28.8177  -20.9615  -16.6044 C   0  0  0  0  0  0  0  0  0  0  0  0
   27.7388  -20.4215  -15.8937 C   0  0  0  0  0  0  0  0  0  0  0  0
   26.6761  -21.2063  -15.5101 C   0  0  0  0  0  0  0  0  0  0  0  0
   25.5569  -20.6396  -14.7683 C   0  0  0  0  0  0  0  0  0  0  0  0
   24.4577  -20.0535  -15.6306 C   0  0  2  0  0  0  0  0  0  0  0  0
   24.9462  -18.7220  -16.0176 N   0  0  0  0  0  0  0  0  0  0  0  0
   23.1547  -19.9721  -14.9617 C   0  0  0  0  0  0  0  0  0  0  0  0
   23.0382  -19.2785  -13.9188 O   0  0  0  0  0  0  0  0  0  0  0  0
   26.7114  -22.5377  -15.8492 C   0  0  0  0  0  0  0  0  0  0  0  0
   27.7814  -23.0830  -16.5565 C   0  0  0  0  0  0  0  0  0  0  0  0
   17.7509  -19.3959  -17.4402 N   0  0  0  0  0  0  0  0  0  0  0  0
   17.2978  -19.6207  -16.1182 C   0  0  0  0  0  0  0  0  0  0  0  0
   16.0977  -19.5524  -15.8074 O   0  0  0  0  0  0  0  0  0  0  0  0
   18.3415  -19.9510  -15.0866 C   0  0  0  0  0  0  0  0  0  0  0  0
   19.7111  -19.9695  -15.7042 C   0  0  0  0  0  0  0  0  0  0  0  0
   20.7320  -20.4759  -14.7518 C   0  0  2  0  0  0  0  0  0  0  0  0
   22.0267  -20.6458  -15.4489 N   0  0  0  0  0  0  0  0  0  0  0  0
   20.3747  -21.7947  -14.2014 C   0  0  0  0  0  0  0  0  0  0  0  0
   20.7627  -22.8602  -14.7960 O   0  0  0  0  0  0  0  0  0  0  0  0
   19.6336  -22.0176  -13.0572 O   0  0  0  0  0  0  0  0  0  0  0  0
  2  1  1  6
  2  4  1  0
  2  3  1  0
  4  6  1  0
  4  5  1  6
  6  7  2  0
  9  8  1  0
  9 19  2  0
 10  9  1  0
 11 10  2  0
 11 12  1  0
 12 18  2  0
 13 12  1  0
 14 13  1  1
 14 16  1  0
 15 14  1  0
 15  6  1  0
 16 17  2  0
 18 19  1  0
 20 21  1  0
 21 22  2  0
 23 21  1  0
 23 24  1  0
 25 24  1  6
 25 27  1  0
 26 16  1  0
 26 25  1  0
 27 28  2  0
 27 29  1  0
M  END
$$$$
