TYQ.pdb
     RDKit          3D

 29 29  0  0  1  0  0  0  0  0999 V2000
   28.6503  -20.2909  -19.1378 C   0  0  0  0  0  0  0  0  0  0  0  0
   27.6671  -20.8199  -18.1105 C   0  0  1  0  0  0  0  0  0  0  0  0
   26.6034  -21.4767  -18.7141 O   0  0  0  0  0  0  0  0  0  0  0  0
   28.3381  -21.6500  -17.0587 C   0  0  2  0  0  0  0  0  0  0  0  0
   28.7239  -22.9156  -17.6940 N   0  0  0  0  0  0  0  0  0  0  0  0
   27.4887  -21.9117  -15.8760 C   0  0  0  0  0  0  0  0  0  0  0  0
   26.8522  -23.0100  -15.7302 O   0  0  0  0  0  0  0  0  0  0  0  0
   23.7581  -20.3942   -7.9122 O   0  0  0  0  0  0  0  0  0  0  0  0
   24.5232  -20.3695   -9.0656 C   0  0  0  0  0  0  0  0  0  0  0  0
   24.1186  -19.6784  -10.1836 C   0  0  0  0  0  0  0  0  0  0  0  0
   24.9083  -19.6667  -11.3399 C   0  0  0  0  0  0  0  0  0  0  0  0
   26.1053  -20.3427  -11.3900 C   0  0  0  0  0  0  0  0  0  0  0  0
   26.9222  -20.3293  -12.5969 C   0  0  0  0  0  0  0  0  0  0  0  0
   26.4256  -21.2321  -13.7076 C   0  0  2  0  0  0  0  0  0  0  0  0
   27.3268  -20.9740  -14.8400 N   0  0  0  0  0  0  0  0  0  0  0  0
   25.0239  -21.0071  -14.0769 C   0  0  0  0  0  0  0  0  0  0  0  0
   24.7237  -20.0105  -14.7832 O   0  0  0  0  0  0  0  0  0  0  0  0
   26.4976  -21.0292  -10.2658 C   0  0  0  0  0  0  0  0  0  0  0  0
   25.7174  -21.0459   -9.1110 C   0  0  0  0  0  0  0  0  0  0  0  0
   20.5927  -25.2576  -14.6318 N   0  0  0  0  0  0  0  0  0  0  0  0
   19.8801  -24.1173  -15.0739 C   0  0  0  0  0  0  0  0  0  0  0  0
   18.7408  -24.1945  -15.5612 O   0  0  0  0  0  0  0  0  0  0  0  0
   20.5658  -22.7864  -14.9290 C   0  0  0  0  0  0  0  0  0  0  0  0
   21.9497  -22.9602  -14.3703 C   0  0  0  0  0  0  0  0  0  0  0  0
   22.6281  -21.6531  -14.1774 C   0  0  2  0  0  0  0  0  0  0  0  0
   24.0001  -21.8715  -13.6666 N   0  0  0  0  0  0  0  0  0  0  0  0
   21.9396  -20.8093  -13.1856 C   0  0  0  0  0  0  0  0  0  0  0  0
   22.2349  -20.9144  -11.9441 O   0  0  0  0  0  0  0  0  0  0  0  0
   20.9655  -19.8699  -13.4626 O   0  0  0  0  0  0  0  0  0  0  0  0
  2  1  1  6
  2  4  1  0
  2  3  1  0
  4  6  1  0
  4  5  1  6
  6  7  2  0
  9  8  1  0
  9 19  2  0
 10  9  1  0
 11 10  2  0
 11 12  1  0
 12 18  2  0
 13 12  1  0
 14 13  1  1
 14 16  1  0
 15 14  1  0
 15  6  1  0
 16 17  2  0
 18 19  1  0
 20 21  1  0
 21 22  2  0
 23 21  1  0
 23 24  1  0
 25 24  1  1
 25 27  1  0
 26 16  1  0
 26 25  1  0
 27 28  2  0
 27 29  1  0
M  END
$$$$
