TYQ.pdb
     RDKit          3D

 29 29  0  0  1  0  0  0  0  0999 V2000
   17.3049  -11.1466  -18.7152 C   0  0  0  0  0  0  0  0  0  0  0  0
   17.0317  -12.2112  -17.6693 C   0  0  1  0  0  0  0  0  0  0  0  0
   16.7116  -13.4292  -18.2537 O   0  0  0  0  0  0  0  0  0  0  0  0
   18.1431  -12.3229  -16.6704 C   0  0  2  0  0  0  0  0  0  0  0  0
   17.7858  -13.4111  -15.7526 N   0  0  0  0  0  0  0  0  0  0  0  0
   18.3884  -11.0765  -15.9119 C   0  0  0  0  0  0  0  0  0  0  0  0
   17.4994  -10.5606  -15.1529 O   0  0  0  0  0  0  0  0  0  0  0  0
   22.9086   -3.5986  -14.0106 O   0  0  0  0  0  0  0  0  0  0  0  0
   22.4961   -4.8928  -14.2779 C   0  0  0  0  0  0  0  0  0  0  0  0
   21.8506   -5.6530  -13.3309 C   0  0  0  0  0  0  0  0  0  0  0  0
   21.4420   -6.9601  -13.6227 C   0  0  0  0  0  0  0  0  0  0  0  0
   21.6734   -7.5181  -14.8586 C   0  0  0  0  0  0  0  0  0  0  0  0
   21.2481   -8.8799  -15.1562 C   0  0  0  0  0  0  0  0  0  0  0  0
   19.7599   -9.0418  -15.3896 C   0  0  2  0  0  0  0  0  0  0  0  0
   19.6098  -10.3815  -15.9760 N   0  0  0  0  0  0  0  0  0  0  0  0
   19.1765   -8.0105  -16.2543 C   0  0  0  0  0  0  0  0  0  0  0  0
   19.4495   -8.0071  -17.4822 O   0  0  0  0  0  0  0  0  0  0  0  0
   22.3194   -6.7474  -15.7954 C   0  0  0  0  0  0  0  0  0  0  0  0
   22.7294   -5.4456  -15.5131 C   0  0  0  0  0  0  0  0  0  0  0  0
   14.7684   -5.1272  -18.6445 N   0  0  0  0  0  0  0  0  0  0  0  0
   14.8371   -6.5253  -18.4349 C   0  0  0  0  0  0  0  0  0  0  0  0
   14.1834   -7.3314  -19.1164 O   0  0  0  0  0  0  0  0  0  0  0  0
   15.7466   -7.0065  -17.3377 C   0  0  0  0  0  0  0  0  0  0  0  0
   16.3862   -5.8451  -16.6308 C   0  0  0  0  0  0  0  0  0  0  0  0
   17.8682   -5.9387  -16.6585 C   0  0  2  0  0  0  0  0  0  0  0  0
   18.3186   -7.0212  -15.7551 N   0  0  0  0  0  0  0  0  0  0  0  0
   18.5133   -4.7014  -16.1864 C   0  0  0  0  0  0  0  0  0  0  0  0
   18.8209   -4.5745  -14.9500 O   0  0  0  0  0  0  0  0  0  0  0  0
   18.8408   -3.6124  -16.9705 O   0  0  0  0  0  0  0  0  0  0  0  0
  2  1  1  6
  2  4  1  0
  2  3  1  0
  4  6  1  0
  4  5  1  1
  6  7  2  0
  9  8  1  0
  9 19  2  0
 10  9  1  0
 11 10  2  0
 11 12  1  0
 12 18  2  0
 13 12  1  0
 14 13  1  6
 14 16  1  0
 15 14  1  0
 15  6  1  0
 16 17  2  0
 18 19  1  0
 20 21  1  0
 21 22  2  0
 23 21  1  0
 23 24  1  0
 25 24  1  1
 25 27  1  0
 26 16  1  0
 26 25  1  0
 27 28  2  0
 27 29  1  0
M  END
$$$$
