TYQ.pdb
     RDKit          3D

 29 29  0  0  1  0  0  0  0  0999 V2000
   30.8164  -26.3871  -19.1548 C   0  0  0  0  0  0  0  0  0  0  0  0
   29.6987  -26.9916  -18.3258 C   0  0  1  0  0  0  0  0  0  0  0  0
   30.1933  -27.8451  -17.3489 O   0  0  0  0  0  0  0  0  0  0  0  0
   28.7770  -25.9487  -17.7706 C   0  0  2  0  0  0  0  0  0  0  0  0
   29.5834  -25.0845  -16.9005 N   0  0  0  0  0  0  0  0  0  0  0  0
   27.6334  -26.5067  -17.0159 C   0  0  0  0  0  0  0  0  0  0  0  0
   27.5559  -26.4202  -15.7435 O   0  0  0  0  0  0  0  0  0  0  0  0
   23.5939  -21.9883  -14.3431 O   0  0  0  0  0  0  0  0  0  0  0  0
   23.7650  -23.1437  -15.0863 C   0  0  0  0  0  0  0  0  0  0  0  0
   24.6087  -23.1836  -16.1716 C   0  0  0  0  0  0  0  0  0  0  0  0
   24.7668  -24.3632  -16.9094 C   0  0  0  0  0  0  0  0  0  0  0  0
   24.0861  -25.5098  -16.5712 C   0  0  0  0  0  0  0  0  0  0  0  0
   24.2525  -26.7342  -17.3441 C   0  0  0  0  0  0  0  0  0  0  0  0
   25.3904  -27.6229  -16.8850 C   0  0  2  0  0  0  0  0  0  0  0  0
   26.5620  -27.1654  -17.6461 N   0  0  0  0  0  0  0  0  0  0  0  0
   25.1468  -29.0553  -17.0870 C   0  0  0  0  0  0  0  0  0  0  0  0
   25.2720  -29.5467  -18.2381 O   0  0  0  0  0  0  0  0  0  0  0  0
   23.2463  -25.4559  -15.4846 C   0  0  0  0  0  0  0  0  0  0  0  0
   23.0833  -24.2859  -14.7450 C   0  0  0  0  0  0  0  0  0  0  0  0
   22.1207  -34.9429  -15.4911 N   0  0  0  0  0  0  0  0  0  0  0  0
   22.8209  -33.9649  -14.7450 C   0  0  0  0  0  0  0  0  0  0  0  0
   22.3593  -33.4670  -13.7055 O   0  0  0  0  0  0  0  0  0  0  0  0
   24.1674  -33.5439  -15.2669 C   0  0  0  0  0  0  0  0  0  0  0  0
   24.3931  -32.0772  -15.0316 C   0  0  0  0  0  0  0  0  0  0  0  0
   24.5536  -31.3381  -16.3098 C   0  0  2  0  0  0  0  0  0  0  0  0
   24.7766  -29.9013  -16.0330 N   0  0  0  0  0  0  0  0  0  0  0  0
   23.3509  -31.4215  -17.1562 C   0  0  0  0  0  0  0  0  0  0  0  0
   22.3798  -30.6089  -16.9659 O   0  0  0  0  0  0  0  0  0  0  0  0
   23.1483  -32.3219  -18.1839 O   0  0  0  0  0  0  0  0  0  0  0  0
  2  1  1  1
  2  4  1  0
  2  3  1  0
  4  6  1  0
  4  5  1  1
  6  7  2  0
  9  8  1  0
  9 19  2  0
 10  9  1  0
 11 10  2  0
 11 12  1  0
 12 18  2  0
 13 12  1  0
 14 13  1  6
 14 16  1  0
 15 14  1  0
 15  6  1  0
 16 17  2  0
 18 19  1  0
 20 21  1  0
 21 22  2  0
 23 21  1  0
 23 24  1  0
 25 24  1  1
 25 27  1  0
 26 16  1  0
 26 25  1  0
 27 28  2  0
 27 29  1  0
M  END
$$$$
