TYQ.pdb
     RDKit          3D

 29 29  0  0  1  0  0  0  0  0999 V2000
   28.7386  -20.3101  -18.9288 C   0  0  0  0  0  0  0  0  0  0  0  0
   27.7039  -20.7187  -17.8971 C   0  0  1  0  0  0  0  0  0  0  0  0
   26.5978  -21.3106  -18.4916 O   0  0  0  0  0  0  0  0  0  0  0  0
   28.2933  -21.5591  -16.8054 C   0  0  2  0  0  0  0  0  0  0  0  0
   28.7720  -22.7980  -17.4301 N   0  0  0  0  0  0  0  0  0  0  0  0
   27.3420  -21.8722  -15.7164 C   0  0  0  0  0  0  0  0  0  0  0  0
   26.7415  -22.9978  -15.6458 O   0  0  0  0  0  0  0  0  0  0  0  0
   22.8604  -20.7534   -8.0893 O   0  0  0  0  0  0  0  0  0  0  0  0
   23.7105  -20.6465   -9.1766 C   0  0  0  0  0  0  0  0  0  0  0  0
   23.3485  -19.9543  -10.3085 C   0  0  0  0  0  0  0  0  0  0  0  0
   24.2242  -19.8587  -11.3970 C   0  0  0  0  0  0  0  0  0  0  0  0
   25.4652  -20.4514  -11.3652 C   0  0  0  0  0  0  0  0  0  0  0  0
   26.3717  -20.3509  -12.5018 C   0  0  0  0  0  0  0  0  0  0  0  0
   26.0357  -21.2650  -13.6624 C   0  0  2  0  0  0  0  0  0  0  0  0
   27.0377  -20.9563  -14.6929 N   0  0  0  0  0  0  0  0  0  0  0  0
   24.6716  -21.0998  -14.1757 C   0  0  0  0  0  0  0  0  0  0  0  0
   24.3896  -20.0862  -14.8651 O   0  0  0  0  0  0  0  0  0  0  0  0
   25.8140  -21.1400  -10.2280 C   0  0  0  0  0  0  0  0  0  0  0  0
   24.9484  -21.2399   -9.1403 C   0  0  0  0  0  0  0  0  0  0  0  0
   20.4022  -25.3759  -15.4054 N   0  0  0  0  0  0  0  0  0  0  0  0
   19.6086  -24.2184  -15.5898 C   0  0  0  0  0  0  0  0  0  0  0  0
   18.4396  -24.2745  -16.0043 O   0  0  0  0  0  0  0  0  0  0  0  0
   20.2445  -22.8959  -15.2595 C   0  0  0  0  0  0  0  0  0  0  0  0
   21.6705  -23.0862  -14.8260 C   0  0  0  0  0  0  0  0  0  0  0  0
   22.3037  -21.7958  -14.4521 C   0  0  2  0  0  0  0  0  0  0  0  0
   23.6640  -22.0403  -13.9223 N   0  0  0  0  0  0  0  0  0  0  0  0
   21.5586  -21.0966  -13.3911 C   0  0  0  0  0  0  0  0  0  0  0  0
   21.6313  -21.5111  -12.1818 O   0  0  0  0  0  0  0  0  0  0  0  0
   20.7540  -19.9877  -13.5667 O   0  0  0  0  0  0  0  0  0  0  0  0
  2  1  1  6
  2  4  1  0
  2  3  1  0
  4  6  1  0
  4  5  1  6
  6  7  2  0
  9  8  1  0
  9 19  2  0
 10  9  1  0
 11 10  2  0
 11 12  1  0
 12 18  2  0
 13 12  1  0
 14 13  1  1
 14 16  1  0
 15 14  1  0
 15  6  1  0
 16 17  2  0
 18 19  1  0
 20 21  1  0
 21 22  2  0
 23 21  1  0
 23 24  1  0
 25 24  1  1
 25 27  1  0
 26 16  1  0
 26 25  1  0
 27 28  2  0
 27 29  1  0
M  END
$$$$
