TYQ.pdb
     RDKit          3D

 29 29  0  0  1  0  0  0  0  0999 V2000
   25.0641  -11.9771  -19.6126 C   0  0  0  0  0  0  0  0  0  0  0  0
   24.3990  -11.0711  -18.5933 C   0  0  1  0  0  0  0  0  0  0  0  0
   23.3174  -11.6948  -17.9863 O   0  0  0  0  0  0  0  0  0  0  0  0
   25.3780  -10.5171  -17.6033 C   0  0  2  0  0  0  0  0  0  0  0  0
   26.0068  -11.6632  -16.9359 N   0  0  0  0  0  0  0  0  0  0  0  0
   24.7658   -9.6171  -16.6013 C   0  0  0  0  0  0  0  0  0  0  0  0
   24.3082  -10.0530  -15.4908 O   0  0  0  0  0  0  0  0  0  0  0  0
   24.1396   -3.6723  -21.0949 O   0  0  0  0  0  0  0  0  0  0  0  0
   24.2685   -4.2511  -19.8440 C   0  0  0  0  0  0  0  0  0  0  0  0
   25.3473   -5.0417  -19.5239 C   0  0  0  0  0  0  0  0  0  0  0  0
   25.4577   -5.6174  -18.2523 C   0  0  0  0  0  0  0  0  0  0  0  0
   24.4950   -5.4095  -17.2918 C   0  0  0  0  0  0  0  0  0  0  0  0
   24.6136   -6.0131  -15.9706 C   0  0  0  0  0  0  0  0  0  0  0  0
   23.9550   -7.3705  -15.8333 C   0  0  2  0  0  0  0  0  0  0  0  0
   24.6478   -8.2301  -16.8042 N   0  0  0  0  0  0  0  0  0  0  0  0
   22.5071   -7.3571  -16.0679 C   0  0  0  0  0  0  0  0  0  0  0  0
   22.0681   -7.5474  -17.2312 O   0  0  0  0  0  0  0  0  0  0  0  0
   23.4224   -4.6174  -17.6250 C   0  0  0  0  0  0  0  0  0  0  0  0
   23.3050   -4.0407  -18.8884 C   0  0  0  0  0  0  0  0  0  0  0  0
   18.0937   -9.5061  -12.5481 N   0  0  0  0  0  0  0  0  0  0  0  0
   17.2786   -8.9364  -13.5554 C   0  0  0  0  0  0  0  0  0  0  0  0
   16.0536   -9.1320  -13.6073 O   0  0  0  0  0  0  0  0  0  0  0  0
   17.9628   -8.0707  -14.5776 C   0  0  0  0  0  0  0  0  0  0  0  0
   19.4394   -7.9986  -14.3093 C   0  0  0  0  0  0  0  0  0  0  0  0
   20.1409   -7.1841  -15.3341 C   0  0  2  0  0  0  0  0  0  0  0  0
   21.5892   -7.1379  -15.0320 N   0  0  0  0  0  0  0  0  0  0  0  0
   19.6707   -5.7882  -15.3536 C   0  0  0  0  0  0  0  0  0  0  0  0
   20.3263   -4.8857  -14.7248 O   0  0  0  0  0  0  0  0  0  0  0  0
   18.5476   -5.3242  -16.0102 O   0  0  0  0  0  0  0  0  0  0  0  0
  2  1  1  6
  2  4  1  0
  2  3  1  0
  4  6  1  0
  4  5  1  1
  6  7  2  0
  9  8  1  0
  9 19  2  0
 10  9  1  0
 11 10  2  0
 11 12  1  0
 12 18  2  0
 13 12  1  0
 14 13  1  6
 14 16  1  0
 15 14  1  0
 15  6  1  0
 16 17  2  0
 18 19  1  0
 20 21  1  0
 21 22  2  0
 23 21  1  0
 23 24  1  0
 25 24  1  1
 25 27  1  0
 26 16  1  0
 26 25  1  0
 27 28  2  0
 27 29  1  0
M  END
$$$$
