TYQ.pdb
     RDKit          3D

 29 29  0  0  1  0  0  0  0  0999 V2000
   26.9159  -19.7962  -17.8808 C   0  0  0  0  0  0  0  0  0  0  0  0
   27.6952  -21.0832  -18.0759 C   0  0  1  0  0  0  0  0  0  0  0  0
   28.6463  -20.9558  -19.0792 O   0  0  0  0  0  0  0  0  0  0  0  0
   28.2735  -21.5959  -16.7921 C   0  0  2  0  0  0  0  0  0  0  0  0
   28.9588  -22.8557  -17.1043 N   0  0  0  0  0  0  0  0  0  0  0  0
   27.2658  -21.8134  -15.7309 C   0  0  0  0  0  0  0  0  0  0  0  0
   26.4623  -22.8066  -15.7546 O   0  0  0  0  0  0  0  0  0  0  0  0
   22.8719  -20.4676   -8.0910 O   0  0  0  0  0  0  0  0  0  0  0  0
   23.7668  -20.4423   -9.1469 C   0  0  0  0  0  0  0  0  0  0  0  0
   25.0196  -20.9999   -9.0427 C   0  0  0  0  0  0  0  0  0  0  0  0
   25.9091  -20.9631  -10.1235 C   0  0  0  0  0  0  0  0  0  0  0  0
   25.5569  -20.3712  -11.3142 C   0  0  0  0  0  0  0  0  0  0  0  0
   26.4875  -20.3335  -12.4351 C   0  0  0  0  0  0  0  0  0  0  0  0
   26.0442  -21.1185  -13.6527 C   0  0  2  0  0  0  0  0  0  0  0  0
   27.1269  -20.9460  -14.6321 N   0  0  0  0  0  0  0  0  0  0  0  0
   24.7531  -20.6895  -14.2011 C   0  0  0  0  0  0  0  0  0  0  0  0
   24.6881  -19.6241  -14.8667 O   0  0  0  0  0  0  0  0  0  0  0  0
   24.3020  -19.8178  -11.4046 C   0  0  0  0  0  0  0  0  0  0  0  0
   23.4107  -19.8502  -10.3336 C   0  0  0  0  0  0  0  0  0  0  0  0
   21.3454  -23.1524  -18.0129 N   0  0  0  0  0  0  0  0  0  0  0  0
   20.4010  -22.1581  -17.6624 C   0  0  0  0  0  0  0  0  0  0  0  0
   19.3648  -21.9663  -18.3190 O   0  0  0  0  0  0  0  0  0  0  0  0
   20.7042  -21.3286  -16.4448 C   0  0  0  0  0  0  0  0  0  0  0  0
   21.9961  -21.7647  -15.8136 C   0  0  0  0  0  0  0  0  0  0  0  0
   22.3182  -20.9520  -14.6130 C   0  0  2  0  0  0  0  0  0  0  0  0
   23.5805  -21.4319  -14.0071 N   0  0  0  0  0  0  0  0  0  0  0  0
   21.2828  -21.0632  -13.5710 C   0  0  0  0  0  0  0  0  0  0  0  0
   20.3821  -20.1590  -13.4681 O   0  0  0  0  0  0  0  0  0  0  0  0
   21.1709  -22.0872  -12.6508 O   0  0  0  0  0  0  0  0  0  0  0  0
  2  1  1  1
  2  4  1  0
  2  3  1  0
  4  6  1  0
  4  5  1  6
  6  7  2  0
  9  8  1  0
  9 19  2  0
 10  9  1  0
 11 10  2  0
 11 12  1  0
 12 18  2  0
 13 12  1  0
 14 13  1  1
 14 16  1  0
 15 14  1  0
 15  6  1  0
 16 17  2  0
 18 19  1  0
 20 21  1  0
 21 22  2  0
 23 21  1  0
 23 24  1  0
 25 24  1  6
 25 27  1  0
 26 16  1  0
 26 25  1  0
 27 28  2  0
 27 29  1  0
M  END
$$$$
