TYQ.pdb
     RDKit          3D

 29 29  0  0  1  0  0  0  0  0999 V2000
   19.3451   -9.5451  -20.0085 C   0  0  0  0  0  0  0  0  0  0  0  0
   19.4756  -10.6995  -19.0326 C   0  0  1  0  0  0  0  0  0  0  0  0
   18.9898  -11.8818  -19.5741 O   0  0  0  0  0  0  0  0  0  0  0  0
   20.8696  -10.8366  -18.5002 C   0  0  2  0  0  0  0  0  0  0  0  0
   20.8744  -12.0025  -17.6086 N   0  0  0  0  0  0  0  0  0  0  0  0
   21.3501   -9.6394  -17.7759 C   0  0  0  0  0  0  0  0  0  0  0  0
   20.8778   -9.3029  -16.6373 O   0  0  0  0  0  0  0  0  0  0  0  0
   26.1006   -2.1339  -16.7833 O   0  0  0  0  0  0  0  0  0  0  0  0
   25.6249   -3.3909  -17.1150 C   0  0  0  0  0  0  0  0  0  0  0  0
   25.2361   -3.6984  -18.3978 C   0  0  0  0  0  0  0  0  0  0  0  0
   24.7578   -4.9766  -18.7114 C   0  0  0  0  0  0  0  0  0  0  0  0
   24.6638   -5.9560  -17.7501 C   0  0  0  0  0  0  0  0  0  0  0  0
   24.1630   -7.2839  -18.0813 C   0  0  0  0  0  0  0  0  0  0  0  0
   22.7612   -7.5739  -17.5849 C   0  0  2  0  0  0  0  0  0  0  0  0
   22.3529   -8.7975  -18.2902 N   0  0  0  0  0  0  0  0  0  0  0  0
   21.8097   -6.4812  -17.8139 C   0  0  0  0  0  0  0  0  0  0  0  0
   21.2309   -6.3894  -18.9269 O   0  0  0  0  0  0  0  0  0  0  0  0
   25.0556   -5.6352  -16.4723 C   0  0  0  0  0  0  0  0  0  0  0  0
   25.5328   -4.3655  -16.1519 C   0  0  0  0  0  0  0  0  0  0  0  0
   16.9361   -6.0807  -18.3404 N   0  0  0  0  0  0  0  0  0  0  0  0
   16.8489   -4.7216  -17.9548 C   0  0  0  0  0  0  0  0  0  0  0  0
   15.8345   -4.0366  -18.1627 O   0  0  0  0  0  0  0  0  0  0  0  0
   18.0509   -4.1280  -17.2726 C   0  0  0  0  0  0  0  0  0  0  0  0
   19.1471   -5.1478  -17.1461 C   0  0  0  0  0  0  0  0  0  0  0  0
   20.4857   -4.5063  -17.0969 C   0  0  2  0  0  0  0  0  0  0  0  0
   21.5214   -5.5288  -16.8272 N   0  0  0  0  0  0  0  0  0  0  0  0
   20.5867   -3.5104  -16.0162 C   0  0  0  0  0  0  0  0  0  0  0  0
   20.1643   -2.3169  -16.2076 O   0  0  0  0  0  0  0  0  0  0  0  0
   21.1097   -3.7355  -14.7578 O   0  0  0  0  0  0  0  0  0  0  0  0
  2  1  1  6
  2  4  1  0
  2  3  1  0
  4  6  1  0
  4  5  1  1
  6  7  2  0
  9  8  1  0
  9 19  2  0
 10  9  1  0
 11 10  2  0
 11 12  1  0
 12 18  2  0
 13 12  1  0
 14 13  1  6
 14 16  1  0
 15 14  1  0
 15  6  1  0
 16 17  2  0
 18 19  1  0
 20 21  1  0
 21 22  2  0
 23 21  1  0
 23 24  1  0
 25 24  1  1
 25 27  1  0
 26 16  1  0
 26 25  1  0
 27 28  2  0
 27 29  1  0
M  END
$$$$
