WTD.pdb
     RDKit          3D

 30 31  0  0  1  0  0  0  0  0999 V2000
   27.7027  -21.9832  -11.6638 N   0  0  0  0  0  0  0  0  0  0  0  0
   26.5567  -21.2038  -11.1764 C   0  0  1  0  0  0  0  0  0  0  0  0
   27.1390  -19.9104  -10.6159 C   0  0  0  0  0  0  0  0  0  0  0  0
   28.0775  -20.3347   -9.5391 C   0  0  0  0  0  0  0  0  0  0  0  0
   29.2013  -21.0897   -9.6320 C   0  0  0  0  0  0  0  0  0  0  0  0
   29.7688  -21.2494   -8.4108 N   0  0  0  0  0  0  0  0  0  0  0  0
   28.9993  -20.5885   -7.5243 C   0  0  0  0  0  0  0  0  0  0  0  0
   29.0762  -20.3991   -6.1569 C   0  0  0  0  0  0  0  0  0  0  0  0
   28.1397  -19.6646   -5.4811 C   0  0  0  0  0  0  0  0  0  0  0  0
   27.0985  -19.1028   -6.1819 C   0  0  0  0  0  0  0  0  0  0  0  0
   26.9737  -19.2606   -7.5500 C   0  0  0  0  0  0  0  0  0  0  0  0
   27.9393  -20.0084   -8.1922 C   0  0  0  0  0  0  0  0  0  0  0  0
   25.5972  -20.9529  -12.2840 C   0  0  0  0  0  0  0  0  0  0  0  0
   26.0927  -20.8948  -13.4440 O   0  0  0  0  0  0  0  0  0  0  0  0
   24.7469  -21.9612  -14.6824 C   0  0  0  0  0  0  0  0  0  0  0  0
   23.3738  -21.8366  -14.0992 C   0  0  1  0  0  0  0  0  0  0  0  0
   22.9175  -23.0134  -13.5493 O   0  0  0  0  0  0  0  0  0  0  0  0
   23.2804  -20.6532  -13.1610 C   0  0  2  0  0  0  0  0  0  0  0  0
   24.2085  -20.7873  -12.0611 N   0  0  0  0  0  0  0  0  0  0  0  0
   21.8958  -20.4528  -12.6679 C   0  0  0  0  0  0  0  0  0  0  0  0
   21.6359  -20.6284  -11.4316 O   0  0  0  0  0  0  0  0  0  0  0  0
   20.8158  -20.0709  -13.4980 N   0  0  0  0  0  0  0  0  0  0  0  0
   19.4891  -19.7044  -12.9391 C   0  0  1  0  0  0  0  0  0  0  0  0
   18.7211  -18.9108  -13.9341 C   0  0  0  0  0  0  0  0  0  0  0  0
   19.4379  -17.7007  -14.3348 C   0  0  0  0  0  0  0  0  0  0  0  0
   19.7161  -16.8069  -13.5152 O   0  0  0  0  0  0  0  0  0  0  0  0
   18.7985  -20.9574  -12.5553 C   0  0  0  0  0  0  0  0  0  0  0  0
   17.8414  -21.0870  -11.5973 O   0  0  0  0  0  0  0  0  0  0  0  0
   19.8514  -17.4760  -15.6551 O   0  0  0  0  0  0  0  0  0  0  0  0
   19.1180  -22.0278  -13.1686 O   0  0  0  0  0  0  0  0  0  0  0  0
  2  1  1  6
  2  3  1  0
  3  4  1  0
  4  5  2  0
  4 12  1  0
  5  6  1  0
  6  7  1  0
  7  8  2  0
  8  9  1  0
 10  9  2  0
 11 10  1  0
 12 11  2  0
 12  7  1  0
 13  2  1  0
 13 19  1  0
 14 13  2  0
 16 15  1  1
 16 18  1  0
 17 16  1  0
 18 19  1  1
 18 20  1  0
 20 22  1  0
 20 21  2  0
 22 23  1  0
 23 24  1  6
 25 24  1  0
 26 25  2  0
 27 23  1  0
 27 28  1  0
 29 25  1  0
 30 27  2  0
M  END
$$$$
