WTD.pdb
     RDKit          3D

 30 31  0  0  1  0  0  0  0  0999 V2000
   25.9622  -21.9510   -9.1076 N   0  0  0  0  0  0  0  0  0  0  0  0
   26.2683  -20.5220   -9.2572 C   0  0  1  0  0  0  0  0  0  0  0  0
   27.6721  -20.3337   -8.6916 C   0  0  0  0  0  0  0  0  0  0  0  0
   27.4830  -20.1259   -7.2283 C   0  0  0  0  0  0  0  0  0  0  0  0
   26.3336  -19.9351   -6.5326 C   0  0  0  0  0  0  0  0  0  0  0  0
   26.5977  -19.7808   -5.2115 N   0  0  0  0  0  0  0  0  0  0  0  0
   27.9329  -19.8741   -5.0585 C   0  0  0  0  0  0  0  0  0  0  0  0
   28.7697  -19.7993   -3.9604 C   0  0  0  0  0  0  0  0  0  0  0  0
   30.1264  -19.9317   -4.0826 C   0  0  0  0  0  0  0  0  0  0  0  0
   30.6672  -20.1441   -5.3289 C   0  0  0  0  0  0  0  0  0  0  0  0
   29.8764  -20.2274   -6.4603 C   0  0  0  0  0  0  0  0  0  0  0  0
   28.5139  -20.0885   -6.2925 C   0  0  0  0  0  0  0  0  0  0  0  0
   26.1822  -20.1247  -10.6873 C   0  0  0  0  0  0  0  0  0  0  0  0
   27.2225  -19.6079  -11.1826 O   0  0  0  0  0  0  0  0  0  0  0  0
   27.4495  -20.2593  -13.1058 C   0  0  0  0  0  0  0  0  0  0  0  0
   26.1169  -20.7442  -13.5855 C   0  0  1  0  0  0  0  0  0  0  0  0
   26.0074  -22.1163  -13.5630 O   0  0  0  0  0  0  0  0  0  0  0  0
   24.9853  -20.0343  -12.8749 C   0  0  2  0  0  0  0  0  0  0  0  0
   25.0077  -20.3107  -11.4563 N   0  0  0  0  0  0  0  0  0  0  0  0
   23.6677  -20.3776  -13.4635 C   0  0  0  0  0  0  0  0  0  0  0  0
   22.9438  -21.2700  -12.9099 O   0  0  0  0  0  0  0  0  0  0  0  0
   23.1464  -19.7667  -14.6280 N   0  0  0  0  0  0  0  0  0  0  0  0
   21.6952  -19.7931  -14.9445 C   0  0  1  0  0  0  0  0  0  0  0  0
   21.3064  -18.5425  -15.6477 C   0  0  0  0  0  0  0  0  0  0  0  0
   19.8912  -18.5432  -16.0163 C   0  0  0  0  0  0  0  0  0  0  0  0
   19.5131  -18.8932  -17.1487 O   0  0  0  0  0  0  0  0  0  0  0  0
   21.4308  -21.0061  -15.7526 C   0  0  0  0  0  0  0  0  0  0  0  0
   20.2820  -21.7347  -15.7568 O   0  0  0  0  0  0  0  0  0  0  0  0
   18.8833  -18.1527  -15.1239 O   0  0  0  0  0  0  0  0  0  0  0  0
   22.3556  -21.4240  -16.5232 O   0  0  0  0  0  0  0  0  0  0  0  0
  2  1  1  6
  2  3  1  0
  3  4  1  0
  4  5  2  0
  4 12  1  0
  5  6  1  0
  6  7  1  0
  7  8  2  0
  8  9  1  0
 10  9  2  0
 11 10  1  0
 12 11  2  0
 12  7  1  0
 13  2  1  0
 13 19  1  0
 14 13  2  0
 16 15  1  1
 16 18  1  0
 17 16  1  0
 18 19  1  1
 18 20  1  0
 20 22  1  0
 20 21  2  0
 22 23  1  0
 23 24  1  6
 25 24  1  0
 26 25  2  0
 27 23  1  0
 27 28  1  0
 29 25  1  0
 30 27  2  0
M  END
$$$$
