WTD.pdb
     RDKit          3D

 30 31  0  0  1  0  0  0  0  0999 V2000
   25.2918  -13.6647  -17.8290 N   0  0  0  0  0  0  0  0  0  0  0  0
   24.3651  -13.0783  -16.8515 C   0  0  1  0  0  0  0  0  0  0  0  0
   25.0613  -13.1857  -15.4989 C   0  0  0  0  0  0  0  0  0  0  0  0
   25.2658  -14.6446  -15.2754 C   0  0  0  0  0  0  0  0  0  0  0  0
   26.4093  -15.3131  -14.9802 C   0  0  0  0  0  0  0  0  0  0  0  0
   26.1657  -16.6416  -14.8601 N   0  0  0  0  0  0  0  0  0  0  0  0
   24.8497  -16.8270  -15.0809 C   0  0  0  0  0  0  0  0  0  0  0  0
   24.0377  -17.9460  -15.0914 C   0  0  0  0  0  0  0  0  0  0  0  0
   22.6968  -17.8564  -15.3504 C   0  0  0  0  0  0  0  0  0  0  0  0
   22.1470  -16.6222  -15.6062 C   0  0  0  0  0  0  0  0  0  0  0  0
   22.9131  -15.4710  -15.6081 C   0  0  0  0  0  0  0  0  0  0  0  0
   24.2603  -15.6061  -15.3422 C   0  0  0  0  0  0  0  0  0  0  0  0
   24.0592  -11.6693  -17.2142 C   0  0  0  0  0  0  0  0  0  0  0  0
   24.9702  -11.0440  -17.8255 O   0  0  0  0  0  0  0  0  0  0  0  0
   21.8608  -10.3176  -19.6361 C   0  0  0  0  0  0  0  0  0  0  0  0
   21.4140   -9.6943  -18.3505 C   0  0  1  0  0  0  0  0  0  0  0  0
   20.2252  -10.2135  -17.8893 O   0  0  0  0  0  0  0  0  0  0  0  0
   22.5213   -9.7071  -17.3195 C   0  0  2  0  0  0  0  0  0  0  0  0
   22.8227  -11.0562  -16.8971 N   0  0  0  0  0  0  0  0  0  0  0  0
   22.1971   -8.8450  -16.1566 C   0  0  0  0  0  0  0  0  0  0  0  0
   21.7268   -9.3711  -15.0942 O   0  0  0  0  0  0  0  0  0  0  0  0
   22.3786   -7.4421  -16.1463 N   0  0  0  0  0  0  0  0  0  0  0  0
   21.9742   -6.6079  -14.9856 C   0  0  1  0  0  0  0  0  0  0  0  0
   22.6474   -5.2843  -15.0531 C   0  0  0  0  0  0  0  0  0  0  0  0
   22.2848   -4.4314  -13.9218 C   0  0  0  0  0  0  0  0  0  0  0  0
   21.8135   -4.9061  -12.8728 O   0  0  0  0  0  0  0  0  0  0  0  0
   20.4972   -6.4966  -15.0018 C   0  0  0  0  0  0  0  0  0  0  0  0
   19.6822   -6.4531  -13.9133 O   0  0  0  0  0  0  0  0  0  0  0  0
   22.4448   -3.0392  -13.9502 O   0  0  0  0  0  0  0  0  0  0  0  0
   19.9148   -6.4355  -16.1336 O   0  0  0  0  0  0  0  0  0  0  0  0
  2  1  1  6
  2  3  1  0
  3  4  1  0
  4  5  2  0
  4 12  1  0
  5  6  1  0
  6  7  1  0
  7  8  2  0
  8  9  1  0
 10  9  2  0
 11 10  1  0
 12 11  2  0
 12  7  1  0
 13  2  1  0
 13 19  1  0
 14 13  2  0
 16 15  1  6
 16 18  1  0
 17 16  1  0
 18 19  1  1
 18 20  1  0
 20 22  1  0
 20 21  2  0
 22 23  1  0
 23 24  1  6
 25 24  1  0
 26 25  2  0
 27 23  1  0
 27 28  1  0
 29 25  1  0
 30 27  2  0
M  END
$$$$
