WTD.pdb
     RDKit          3D

 30 31  0  0  1  0  0  0  0  0999 V2000
   28.2519  -21.8952  -10.2957 N   0  0  0  0  0  0  0  0  0  0  0  0
   27.0073  -21.2101   -9.9216 C   0  0  1  0  0  0  0  0  0  0  0  0
   27.4278  -20.0088   -9.0814 C   0  0  0  0  0  0  0  0  0  0  0  0
   28.2086  -20.5758   -7.9460 C   0  0  0  0  0  0  0  0  0  0  0  0
   28.9403  -21.7176   -7.8964 C   0  0  0  0  0  0  0  0  0  0  0  0
   29.4943  -21.8741   -6.6686 N   0  0  0  0  0  0  0  0  0  0  0  0
   29.1132  -20.8194   -5.9221 C   0  0  0  0  0  0  0  0  0  0  0  0
   29.3635  -20.4414   -4.6159 C   0  0  0  0  0  0  0  0  0  0  0  0
   28.8413  -19.2909   -4.0899 C   0  0  0  0  0  0  0  0  0  0  0  0
   28.0488  -18.4940   -4.8821 C   0  0  0  0  0  0  0  0  0  0  0  0
   27.7665  -18.8246   -6.1948 C   0  0  0  0  0  0  0  0  0  0  0  0
   28.3130  -19.9928   -6.6855 C   0  0  0  0  0  0  0  0  0  0  0  0
   26.2563  -20.8069  -11.1397 C   0  0  0  0  0  0  0  0  0  0  0  0
   26.9281  -20.2284  -12.0390 O   0  0  0  0  0  0  0  0  0  0  0  0
   25.5042  -22.4498  -13.8208 C   0  0  0  0  0  0  0  0  0  0  0  0
   24.1329  -22.0118  -13.4101 C   0  0  1  0  0  0  0  0  0  0  0  0
   23.3835  -23.0341  -12.8730 O   0  0  0  0  0  0  0  0  0  0  0  0
   24.1887  -20.7777  -12.5365 C   0  0  2  0  0  0  0  0  0  0  0  0
   24.8699  -21.0526  -11.2916 N   0  0  0  0  0  0  0  0  0  0  0  0
   22.8369  -20.2183  -12.2915 C   0  0  0  0  0  0  0  0  0  0  0  0
   22.3298  -20.2852  -11.1230 O   0  0  0  0  0  0  0  0  0  0  0  0
   22.0514  -19.6000  -13.2924 N   0  0  0  0  0  0  0  0  0  0  0  0
   20.7265  -19.0000  -12.9898 C   0  0  1  0  0  0  0  0  0  0  0  0
   20.2802  -18.1552  -14.1286 C   0  0  0  0  0  0  0  0  0  0  0  0
   19.3137  -17.1415  -13.7078 C   0  0  0  0  0  0  0  0  0  0  0  0
   18.9596  -17.0323  -12.5201 O   0  0  0  0  0  0  0  0  0  0  0  0
   19.7853  -20.1062  -12.6987 C   0  0  0  0  0  0  0  0  0  0  0  0
   18.8937  -20.1541  -11.6722 O   0  0  0  0  0  0  0  0  0  0  0  0
   18.7326  -16.2390  -14.6092 O   0  0  0  0  0  0  0  0  0  0  0  0
   19.7968  -21.1196  -13.4711 O   0  0  0  0  0  0  0  0  0  0  0  0
  2  1  1  6
  2  3  1  0
  3  4  1  0
  4  5  2  0
  4 12  1  0
  5  6  1  0
  6  7  1  0
  7  8  2  0
  8  9  1  0
 10  9  2  0
 11 10  1  0
 12 11  2  0
 12  7  1  0
 13  2  1  0
 13 19  1  0
 14 13  2  0
 16 15  1  1
 16 18  1  0
 17 16  1  0
 18 19  1  1
 18 20  1  0
 20 22  1  0
 20 21  2  0
 22 23  1  0
 23 24  1  6
 25 24  1  0
 26 25  2  0
 27 23  1  0
 27 28  1  0
 29 25  1  0
 30 27  2  0
M  END
$$$$
