WTD.pdb
     RDKit          3D

 30 31  0  0  1  0  0  0  0  0999 V2000
   28.0893  -21.3253   -8.6034 N   0  0  0  0  0  0  0  0  0  0  0  0
   26.6451  -21.4047   -8.8607 C   0  0  1  0  0  0  0  0  0  0  0  0
   25.9668  -20.8602   -7.6080 C   0  0  0  0  0  0  0  0  0  0  0  0
   26.8863  -19.8099   -7.0867 C   0  0  0  0  0  0  0  0  0  0  0  0
   27.1768  -18.5913   -7.6084 C   0  0  0  0  0  0  0  0  0  0  0  0
   28.0706  -17.9394   -6.8242 N   0  0  0  0  0  0  0  0  0  0  0  0
   28.3564  -18.7501   -5.7869 C   0  0  0  0  0  0  0  0  0  0  0  0
   29.1849  -18.6273   -4.6868 C   0  0  0  0  0  0  0  0  0  0  0  0
   29.2947  -19.6256   -3.7571 C   0  0  0  0  0  0  0  0  0  0  0  0
   28.5621  -20.7773   -3.9239 C   0  0  0  0  0  0  0  0  0  0  0  0
   27.7184  -20.9523   -5.0055 C   0  0  0  0  0  0  0  0  0  0  0  0
   27.6372  -19.9213   -5.9190 C   0  0  0  0  0  0  0  0  0  0  0  0
   26.2951  -20.6197  -10.0738 C   0  0  0  0  0  0  0  0  0  0  0  0
   26.3792  -19.3645   -9.9651 O   0  0  0  0  0  0  0  0  0  0  0  0
   28.0442  -19.6616  -12.5618 C   0  0  0  0  0  0  0  0  0  0  0  0
   26.9668  -20.3897  -13.3034 C   0  0  1  0  0  0  0  0  0  0  0  0
   27.3822  -21.6092  -13.7889 O   0  0  0  0  0  0  0  0  0  0  0  0
   25.6930  -20.4632  -12.4903 C   0  0  2  0  0  0  0  0  0  0  0  0
   25.8903  -21.2343  -11.2837 N   0  0  0  0  0  0  0  0  0  0  0  0
   24.5642  -21.0019  -13.2879 C   0  0  0  0  0  0  0  0  0  0  0  0
   24.0887  -22.1522  -13.0093 O   0  0  0  0  0  0  0  0  0  0  0  0
   23.9642  -20.3083  -14.3649 N   0  0  0  0  0  0  0  0  0  0  0  0
   22.5193  -20.4488  -14.6801 C   0  0  1  0  0  0  0  0  0  0  0  0
   21.7042  -20.1205  -13.4811 C   0  0  0  0  0  0  0  0  0  0  0  0
   20.9480  -21.2778  -13.0041 C   0  0  0  0  0  0  0  0  0  0  0  0
   21.0109  -22.3793  -13.5791 O   0  0  0  0  0  0  0  0  0  0  0  0
   22.2198  -19.5656  -15.8310 C   0  0  0  0  0  0  0  0  0  0  0  0
   22.9925  -18.5397  -16.2797 O   0  0  0  0  0  0  0  0  0  0  0  0
   20.1132  -21.2169  -11.8797 O   0  0  0  0  0  0  0  0  0  0  0  0
   21.1393  -19.7691  -16.4751 O   0  0  0  0  0  0  0  0  0  0  0  0
  2  1  1  1
  2  3  1  0
  3  4  1  0
  4  5  2  0
  4 12  1  0
  5  6  1  0
  6  7  1  0
  7  8  2  0
  8  9  1  0
 10  9  2  0
 11 10  1  0
 12 11  2  0
 12  7  1  0
 13  2  1  0
 13 19  1  0
 14 13  2  0
 16 15  1  1
 16 18  1  0
 17 16  1  0
 18 19  1  1
 18 20  1  0
 20 22  1  0
 20 21  2  0
 22 23  1  0
 23 24  1  1
 25 24  1  0
 26 25  2  0
 27 23  1  0
 27 28  1  0
 29 25  1  0
 30 27  2  0
M  END
$$$$
