MEV.pdb
     RDKit          3D

 25 24  0  0  1  0  0  0  0  0999 V2000
   28.9054  -13.4236  -15.2966 C   0  0  0  0  0  0  0  0  0  0  0  0
   27.7728  -12.0658  -15.7421 S   0  0  0  0  0  0  0  0  0  0  0  0
   26.2387  -12.7435  -16.4646 C   0  0  0  0  0  0  0  0  0  0  0  0
   25.2790  -11.6004  -16.6567 C   0  0  0  0  0  0  0  0  0  0  0  0
   23.9754  -12.0046  -17.2773 C   0  0  2  0  0  0  0  0  0  0  0  0
   24.2437  -12.5420  -18.5900 N   0  0  0  0  0  0  0  0  0  0  0  0
   22.9809  -10.9259  -17.2896 C   0  0  0  0  0  0  0  0  0  0  0  0
   23.0341  -10.0563  -18.1870 O   0  0  0  0  0  0  0  0  0  0  0  0
   21.9634  -10.8602  -16.2969 N   0  0  0  0  0  0  0  0  0  0  0  0
   20.9249   -9.8854  -16.2780 C   0  0  1  0  0  0  0  0  0  0  0  0
   19.6830  -10.4957  -15.6741 C   0  0  0  0  0  0  0  0  0  0  0  0
   19.1285  -11.5311  -16.6058 C   0  0  0  0  0  0  0  0  0  0  0  0
   17.8898  -12.1389  -16.0548 C   0  0  0  0  0  0  0  0  0  0  0  0
   17.4658  -11.7345  -14.9526 O   0  0  0  0  0  0  0  0  0  0  0  0
   21.2606   -8.6683  -15.5181 C   0  0  0  0  0  0  0  0  0  0  0  0
   21.7837   -8.6831  -14.3706 O   0  0  0  0  0  0  0  0  0  0  0  0
   17.2103  -13.1283  -16.7314 O   0  0  0  0  0  0  0  0  0  0  0  0
   20.8935   -5.1006  -17.6773 C   0  0  0  0  0  0  0  0  0  0  0  0
   21.9377   -5.2612  -16.5722 C   0  0  2  0  0  0  0  0  0  0  0  0
   23.2189   -5.7971  -17.1547 C   0  0  0  0  0  0  0  0  0  0  0  0
   21.3770   -6.1525  -15.4786 C   0  0  2  0  0  0  0  0  0  0  0  0
   20.9778   -7.4115  -16.1151 N   0  0  0  0  0  0  0  0  0  0  0  0
   20.1828   -5.4443  -14.9365 C   0  0  0  0  0  0  0  0  0  0  0  0
   20.3680   -4.3925  -14.0533 O   0  0  0  0  0  0  0  0  0  0  0  0
   19.0008   -5.7479  -15.2367 O   0  0  0  0  0  0  0  0  0  0  0  0
  2  1  1  0
  3  2  1  0
  4  3  1  0
  4  5  1  0
  5  6  1  6
  7  5  1  0
  7  9  1  0
  8  7  2  0
 10  9  1  0
 10 11  1  1
 12 11  1  0
 13 12  1  0
 14 13  2  0
 15 10  1  0
 16 15  2  0
 17 13  1  0
 19 18  1  6
 20 19  1  0
 21 22  1  6
 21 19  1  0
 22 15  1  0
 23 21  1  0
 24 23  1  0
 25 23  2  0
M  END
$$$$
