MEV.pdb
     RDKit          3D

 25 24  0  0  1  0  0  0  0  0999 V2000
   24.1423  -14.6214  -14.7988 C   0  0  0  0  0  0  0  0  0  0  0  0
   25.1025  -13.5425  -15.9119 S   0  0  0  0  0  0  0  0  0  0  0  0
   24.1727  -13.2528  -17.4566 C   0  0  0  0  0  0  0  0  0  0  0  0
   23.6752  -11.8328  -17.4322 C   0  0  0  0  0  0  0  0  0  0  0  0
   22.1896  -11.7108  -17.5944 C   0  0  2  0  0  0  0  0  0  0  0  0
   21.8375  -12.1672  -18.9179 N   0  0  0  0  0  0  0  0  0  0  0  0
   21.6830  -10.3667  -17.2957 C   0  0  0  0  0  0  0  0  0  0  0  0
   22.0205   -9.4102  -18.0273 O   0  0  0  0  0  0  0  0  0  0  0  0
   20.8171  -10.1427  -16.1888 N   0  0  0  0  0  0  0  0  0  0  0  0
   20.2217   -8.8861  -15.8795 C   0  0  1  0  0  0  0  0  0  0  0  0
   18.9418   -9.1192  -15.1133 C   0  0  0  0  0  0  0  0  0  0  0  0
   17.9280   -9.7601  -16.0126 C   0  0  0  0  0  0  0  0  0  0  0  0
   16.6560  -10.0163  -15.2889 C   0  0  0  0  0  0  0  0  0  0  0  0
   15.7050  -10.5270  -15.9159 O   0  0  0  0  0  0  0  0  0  0  0  0
   21.0839   -7.9954  -15.0829 C   0  0  0  0  0  0  0  0  0  0  0  0
   21.7540   -8.3797  -14.0859 O   0  0  0  0  0  0  0  0  0  0  0  0
   16.5106   -9.7039  -13.9549 O   0  0  0  0  0  0  0  0  0  0  0  0
   21.8049   -4.2535  -16.8053 C   0  0  0  0  0  0  0  0  0  0  0  0
   22.8223   -4.9563  -15.9062 C   0  0  2  0  0  0  0  0  0  0  0  0
   23.6961   -5.8610  -16.7344 C   0  0  0  0  0  0  0  0  0  0  0  0
   22.0883   -5.7020  -14.8063 C   0  0  2  0  0  0  0  0  0  0  0  0
   21.1616   -6.6295  -15.4627 N   0  0  0  0  0  0  0  0  0  0  0  0
   21.3332   -4.6720  -14.0379 C   0  0  0  0  0  0  0  0  0  0  0  0
   19.9622   -4.5725  -14.2141 O   0  0  0  0  0  0  0  0  0  0  0  0
   21.8728   -3.8769  -13.2282 O   0  0  0  0  0  0  0  0  0  0  0  0
  2  1  1  0
  3  2  1  0
  4  3  1  0
  4  5  1  0
  5  6  1  6
  7  5  1  0
  7  9  1  0
  8  7  2  0
 10  9  1  0
 10 11  1  1
 12 11  1  0
 13 12  1  0
 14 13  2  0
 15 10  1  0
 16 15  2  0
 17 13  1  0
 19 18  1  6
 20 19  1  0
 21 22  1  6
 21 19  1  0
 22 15  1  0
 23 21  1  0
 24 23  1  0
 25 23  2  0
M  END
$$$$
