MEV.pdb
     RDKit          3D

 25 24  0  0  1  0  0  0  0  0999 V2000
   23.4491  -16.0885  -14.5370 C   0  0  0  0  0  0  0  0  0  0  0  0
   23.3529  -14.2966  -14.8610 S   0  0  0  0  0  0  0  0  0  0  0  0
   22.0488  -13.9535  -16.0923 C   0  0  0  0  0  0  0  0  0  0  0  0
   21.9301  -12.4597  -16.2296 C   0  0  0  0  0  0  0  0  0  0  0  0
   20.7550  -12.0204  -17.0507 C   0  0  2  0  0  0  0  0  0  0  0  0
   20.9367  -12.5021  -18.3993 N   0  0  0  0  0  0  0  0  0  0  0  0
   20.5099  -10.5753  -16.9841 C   0  0  0  0  0  0  0  0  0  0  0  0
   21.0710   -9.8220  -17.8099 O   0  0  0  0  0  0  0  0  0  0  0  0
   19.6458  -10.0266  -15.9956 N   0  0  0  0  0  0  0  0  0  0  0  0
   19.4010   -8.6331  -15.8304 C   0  0  1  0  0  0  0  0  0  0  0  0
   18.0061   -8.4357  -15.2876 C   0  0  0  0  0  0  0  0  0  0  0  0
   17.0026   -8.7475  -16.3568 C   0  0  0  0  0  0  0  0  0  0  0  0
   15.7508   -7.9719  -16.1591 C   0  0  0  0  0  0  0  0  0  0  0  0
   15.1839   -7.4884  -17.1606 O   0  0  0  0  0  0  0  0  0  0  0  0
   20.3506   -7.9620  -14.9252 C   0  0  0  0  0  0  0  0  0  0  0  0
   20.6099   -8.3672  -13.7594 O   0  0  0  0  0  0  0  0  0  0  0  0
   15.2125   -7.7803  -14.9054 O   0  0  0  0  0  0  0  0  0  0  0  0
   22.5907   -4.8692  -16.6632 C   0  0  0  0  0  0  0  0  0  0  0  0
   23.1439   -5.7095  -15.5120 C   0  0  2  0  0  0  0  0  0  0  0  0
   23.8757   -6.9064  -16.0596 C   0  0  0  0  0  0  0  0  0  0  0  0
   22.0076   -6.0960  -14.5825 C   0  0  2  0  0  0  0  0  0  0  0  0
   21.0079   -6.7949  -15.3961 N   0  0  0  0  0  0  0  0  0  0  0  0
   21.4472   -4.8187  -14.0572 C   0  0  0  0  0  0  0  0  0  0  0  0
   22.1366   -4.1397  -13.0650 O   0  0  0  0  0  0  0  0  0  0  0  0
   20.3718   -4.3131  -14.4658 O   0  0  0  0  0  0  0  0  0  0  0  0
  2  1  1  0
  3  2  1  0
  4  3  1  0
  4  5  1  0
  5  6  1  6
  7  5  1  0
  7  9  1  0
  8  7  2  0
 10  9  1  0
 10 11  1  1
 12 11  1  0
 13 12  1  0
 14 13  2  0
 15 10  1  0
 16 15  2  0
 17 13  1  0
 19 18  1  6
 20 19  1  0
 21 22  1  6
 21 19  1  0
 22 15  1  0
 23 21  1  0
 24 23  1  0
 25 23  2  0
M  END
$$$$
