MEV.pdb
     RDKit          3D

 25 24  0  0  1  0  0  0  0  0999 V2000
   27.2888  -17.2153  -14.6824 C   0  0  0  0  0  0  0  0  0  0  0  0
   28.8125  -17.7654  -15.5196 S   0  0  0  0  0  0  0  0  0  0  0  0
   28.8111  -19.5837  -15.6882 C   0  0  0  0  0  0  0  0  0  0  0  0
   27.4148  -20.0085  -16.0551 C   0  0  0  0  0  0  0  0  0  0  0  0
   27.2289  -21.4956  -16.1018 C   0  0  2  0  0  0  0  0  0  0  0  0
   28.1573  -22.0401  -17.0639 N   0  0  0  0  0  0  0  0  0  0  0  0
   25.8402  -21.8979  -16.3510 C   0  0  0  0  0  0  0  0  0  0  0  0
   25.2861  -21.5520  -17.4175 O   0  0  0  0  0  0  0  0  0  0  0  0
   25.1227  -22.6727  -15.3970 N   0  0  0  0  0  0  0  0  0  0  0  0
   23.7616  -23.0658  -15.5456 C   0  0  1  0  0  0  0  0  0  0  0  0
   23.5755  -24.4418  -14.9529 C   0  0  0  0  0  0  0  0  0  0  0  0
   22.1781  -24.9168  -15.2156 C   0  0  0  0  0  0  0  0  0  0  0  0
   21.9432  -26.2522  -14.6080 C   0  0  0  0  0  0  0  0  0  0  0  0
   22.9300  -26.9229  -14.2412 O   0  0  0  0  0  0  0  0  0  0  0  0
   22.8011  -22.1505  -14.9044 C   0  0  0  0  0  0  0  0  0  0  0  0
   22.7309  -21.9725  -13.6578 O   0  0  0  0  0  0  0  0  0  0  0  0
   20.6711  -26.7557  -14.4449 O   0  0  0  0  0  0  0  0  0  0  0  0
   19.8702  -20.0618  -17.3995 C   0  0  0  0  0  0  0  0  0  0  0  0
   20.6389  -19.4537  -16.2262 C   0  0  2  0  0  0  0  0  0  0  0  0
   21.9092  -18.8162  -16.7239 C   0  0  0  0  0  0  0  0  0  0  0  0
   20.8951  -20.5277  -15.1844 C   0  0  2  0  0  0  0  0  0  0  0  0
   21.9072  -21.4309  -15.7406 N   0  0  0  0  0  0  0  0  0  0  0  0
   19.6025  -21.2471  -15.0022 C   0  0  0  0  0  0  0  0  0  0  0  0
   18.6215  -20.6764  -14.2068 O   0  0  0  0  0  0  0  0  0  0  0  0
   19.3449  -22.3561  -15.5342 O   0  0  0  0  0  0  0  0  0  0  0  0
  2  1  1  0
  3  2  1  0
  4  3  1  0
  4  5  1  0
  5  6  1  6
  7  5  1  0
  7  9  1  0
  8  7  2  0
 10  9  1  0
 10 11  1  1
 12 11  1  0
 13 12  1  0
 14 13  2  0
 15 10  1  0
 16 15  2  0
 17 13  1  0
 19 18  1  6
 20 19  1  0
 21 22  1  6
 21 19  1  0
 22 15  1  0
 23 21  1  0
 24 23  1  0
 25 23  2  0
M  END
$$$$
