MEV.pdb
     RDKit          3D

 25 24  0  0  1  0  0  0  0  0999 V2000
   29.4550  -20.2723   -6.9165 C   0  0  0  0  0  0  0  0  0  0  0  0
   27.9633  -19.5956   -6.1151 S   0  0  0  0  0  0  0  0  0  0  0  0
   26.4994  -20.5795   -6.5876 C   0  0  0  0  0  0  0  0  0  0  0  0
   26.6803  -21.0118   -8.0176 C   0  0  0  0  0  0  0  0  0  0  0  0
   25.8333  -20.2480   -8.9909 C   0  0  2  0  0  0  0  0  0  0  0  0
   24.4557  -20.3479   -8.5712 N   0  0  0  0  0  0  0  0  0  0  0  0
   26.0411  -20.6568  -10.3846 C   0  0  0  0  0  0  0  0  0  0  0  0
   27.2078  -20.8041  -10.8103 O   0  0  0  0  0  0  0  0  0  0  0  0
   24.9353  -20.8858  -11.2504 N   0  0  0  0  0  0  0  0  0  0  0  0
   25.0409  -21.0271  -12.6639 C   0  0  1  0  0  0  0  0  0  0  0  0
   23.7825  -21.6719  -13.1931 C   0  0  0  0  0  0  0  0  0  0  0  0
   23.9802  -22.0549  -14.6289 C   0  0  0  0  0  0  0  0  0  0  0  0
   22.7634  -22.7030  -15.1828 C   0  0  0  0  0  0  0  0  0  0  0  0
   21.7800  -22.8668  -14.4316 O   0  0  0  0  0  0  0  0  0  0  0  0
   25.2465  -19.7551  -13.3786 C   0  0  0  0  0  0  0  0  0  0  0  0
   24.6504  -18.6835  -13.0836 O   0  0  0  0  0  0  0  0  0  0  0  0
   22.7032  -23.1205  -16.4944 O   0  0  0  0  0  0  0  0  0  0  0  0
   28.0292  -19.5372  -16.8308 C   0  0  0  0  0  0  0  0  0  0  0  0
   27.9070  -18.5851  -15.6409 C   0  0  2  0  0  0  0  0  0  0  0  0
   28.8209  -19.0347  -14.5316 C   0  0  0  0  0  0  0  0  0  0  0  0
   26.4546  -18.5109  -15.2055 C   0  0  2  0  0  0  0  0  0  0  0  0
   26.1683  -19.7396  -14.4586 N   0  0  0  0  0  0  0  0  0  0  0  0
   25.6470  -18.4654  -16.4574 C   0  0  0  0  0  0  0  0  0  0  0  0
   25.4611  -17.2484  -17.0939 O   0  0  0  0  0  0  0  0  0  0  0  0
   25.1170  -19.4788  -16.9782 O   0  0  0  0  0  0  0  0  0  0  0  0
  2  1  1  0
  3  2  1  0
  4  3  1  0
  4  5  1  0
  5  6  1  1
  7  5  1  0
  7  9  1  0
  8  7  2  0
 10  9  1  0
 10 11  1  6
 12 11  1  0
 13 12  1  0
 14 13  2  0
 15 10  1  0
 16 15  2  0
 17 13  1  0
 19 18  1  6
 20 19  1  0
 21 22  1  6
 21 19  1  0
 22 15  1  0
 23 21  1  0
 24 23  1  0
 25 23  2  0
M  END
$$$$
