MEV.pdb
     RDKit          3D

 25 24  0  0  1  0  0  0  0  0999 V2000
   25.7813  -13.6564  -14.3762 C   0  0  0  0  0  0  0  0  0  0  0  0
   24.7844  -14.8216  -15.3629 S   0  0  0  0  0  0  0  0  0  0  0  0
   23.8046  -13.9093  -16.6047 C   0  0  0  0  0  0  0  0  0  0  0  0
   23.1474  -12.7490  -15.9073 C   0  0  0  0  0  0  0  0  0  0  0  0
   22.3135  -11.8938  -16.8135 C   0  0  2  0  0  0  0  0  0  0  0  0
   23.1786  -11.3082  -17.8098 N   0  0  0  0  0  0  0  0  0  0  0  0
   21.5097  -10.8996  -16.0936 C   0  0  0  0  0  0  0  0  0  0  0  0
   20.6491  -11.2879  -15.2734 O   0  0  0  0  0  0  0  0  0  0  0  0
   21.6990   -9.5072  -16.3182 N   0  0  0  0  0  0  0  0  0  0  0  0
   21.0281   -8.4808  -15.5933 C   0  0  1  0  0  0  0  0  0  0  0  0
   22.0365   -7.4508  -15.1441 C   0  0  0  0  0  0  0  0  0  0  0  0
   21.3631   -6.4375  -14.2683 C   0  0  0  0  0  0  0  0  0  0  0  0
   22.3082   -5.3634  -13.8675 C   0  0  0  0  0  0  0  0  0  0  0  0
   22.8698   -4.6983  -14.7623 O   0  0  0  0  0  0  0  0  0  0  0  0
   19.9755   -7.7947  -16.3632 C   0  0  0  0  0  0  0  0  0  0  0  0
   20.1622   -7.2850  -17.5016 O   0  0  0  0  0  0  0  0  0  0  0  0
   22.5713   -5.0928  -12.5425 O   0  0  0  0  0  0  0  0  0  0  0  0
   15.8210   -8.0318  -15.0710 C   0  0  0  0  0  0  0  0  0  0  0  0
   16.3923   -7.8930  -16.4822 C   0  0  2  0  0  0  0  0  0  0  0  0
   16.7232   -9.2542  -17.0350 C   0  0  0  0  0  0  0  0  0  0  0  0
   17.5970   -6.9698  -16.4466 C   0  0  2  0  0  0  0  0  0  0  0  0
   18.6806   -7.7053  -15.7876 N   0  0  0  0  0  0  0  0  0  0  0  0
   17.1949   -5.7930  -15.6251 C   0  0  0  0  0  0  0  0  0  0  0  0
   17.5957   -5.7293  -14.3000 O   0  0  0  0  0  0  0  0  0  0  0  0
   16.5043   -4.8412  -16.0683 O   0  0  0  0  0  0  0  0  0  0  0  0
  2  1  1  0
  3  2  1  0
  4  3  1  0
  4  5  1  0
  5  6  1  6
  7  5  1  0
  7  9  1  0
  8  7  2  0
 10  9  1  0
 10 11  1  6
 12 11  1  0
 13 12  1  0
 14 13  2  0
 15 10  1  0
 16 15  2  0
 17 13  1  0
 19 18  1  1
 20 19  1  0
 21 22  1  1
 21 19  1  0
 22 15  1  0
 23 21  1  0
 24 23  1  0
 25 23  2  0
M  END
$$$$
