MEV.pdb
     RDKit          3D

 25 24  0  0  1  0  0  0  0  0999 V2000
   18.9206  -27.7196    5.7725 C   0  0  0  0  0  0  0  0  0  0  0  0
   19.5048  -27.2850    7.4443 S   0  0  0  0  0  0  0  0  0  0  0  0
   19.7378  -28.7992    8.4380 C   0  0  0  0  0  0  0  0  0  0  0  0
   21.0887  -29.3676    8.0968 C   0  0  0  0  0  0  0  0  0  0  0  0
   21.4353  -30.6053    8.8688 C   0  0  2  0  0  0  0  0  0  0  0  0
   21.6476  -30.2367   10.2482 N   0  0  0  0  0  0  0  0  0  0  0  0
   22.5601  -31.3509    8.2929 C   0  0  0  0  0  0  0  0  0  0  0  0
   23.7094  -31.1748    8.7537 O   0  0  0  0  0  0  0  0  0  0  0  0
   22.3570  -32.2661    7.2223 N   0  0  0  0  0  0  0  0  0  0  0  0
   23.3858  -33.0653    6.6461 C   0  0  1  0  0  0  0  0  0  0  0  0
   23.2538  -34.4823    7.1502 C   0  0  0  0  0  0  0  0  0  0  0  0
   24.4179  -35.2962    6.6708 C   0  0  0  0  0  0  0  0  0  0  0  0
   24.3508  -36.6859    7.1921 C   0  0  0  0  0  0  0  0  0  0  0  0
   23.4176  -36.9894    7.9636 O   0  0  0  0  0  0  0  0  0  0  0  0
   23.3674  -33.0932    5.1729 C   0  0  0  0  0  0  0  0  0  0  0  0
   22.3255  -33.2926    4.4908 O   0  0  0  0  0  0  0  0  0  0  0  0
   25.2890  -37.6324    6.8427 O   0  0  0  0  0  0  0  0  0  0  0  0
   26.9158  -31.8009    3.2838 C   0  0  0  0  0  0  0  0  0  0  0  0
   25.5208  -31.5850    2.6965 C   0  0  2  0  0  0  0  0  0  0  0  0
   24.9457  -30.2912    3.2095 C   0  0  0  0  0  0  0  0  0  0  0  0
   24.6475  -32.7823    3.0260 C   0  0  2  0  0  0  0  0  0  0  0  0
   24.5931  -32.8830    4.4876 N   0  0  0  0  0  0  0  0  0  0  0  0
   25.3374  -33.9712    2.4498 C   0  0  0  0  0  0  0  0  0  0  0  0
   25.1754  -34.2557    1.1032 O   0  0  0  0  0  0  0  0  0  0  0  0
   26.0677  -34.7424    3.1214 O   0  0  0  0  0  0  0  0  0  0  0  0
  2  1  1  0
  3  2  1  0
  4  3  1  0
  4  5  1  0
  5  6  1  1
  7  5  1  0
  7  9  1  0
  8  7  2  0
 10  9  1  0
 10 11  1  1
 12 11  1  0
 13 12  1  0
 14 13  2  0
 15 10  1  0
 16 15  2  0
 17 13  1  0
 19 18  1  1
 20 19  1  0
 21 22  1  1
 21 19  1  0
 22 15  1  0
 23 21  1  0
 24 23  1  0
 25 23  2  0
M  END
$$$$
