MEV.pdb
     RDKit          3D

 25 24  0  0  1  0  0  0  0  0999 V2000
   30.6426  -21.1513   -6.9059 C   0  0  0  0  0  0  0  0  0  0  0  0
   31.9678  -22.2343   -7.5353 S   0  0  0  0  0  0  0  0  0  0  0  0
   31.7433  -22.5209   -9.3248 C   0  0  0  0  0  0  0  0  0  0  0  0
   30.5605  -21.7063   -9.7742 C   0  0  0  0  0  0  0  0  0  0  0  0
   30.2513  -21.8459  -11.2346 C   0  0  2  0  0  0  0  0  0  0  0  0
   31.4459  -21.5377  -11.9841 N   0  0  0  0  0  0  0  0  0  0  0  0
   29.0876  -21.0590  -11.6579 C   0  0  0  0  0  0  0  0  0  0  0  0
   29.0469  -19.8375  -11.3923 O   0  0  0  0  0  0  0  0  0  0  0  0
   28.0121  -21.6683  -12.3629 N   0  0  0  0  0  0  0  0  0  0  0  0
   26.8211  -20.9891  -12.7494 C   0  0  1  0  0  0  0  0  0  0  0  0
   26.7268  -20.9721  -14.2561 C   0  0  0  0  0  0  0  0  0  0  0  0
   25.6064  -20.0701  -14.6788 C   0  0  0  0  0  0  0  0  0  0  0  0
   25.5202  -19.9809  -16.1594 C   0  0  0  0  0  0  0  0  0  0  0  0
   26.5760  -20.0378  -16.8232 O   0  0  0  0  0  0  0  0  0  0  0  0
   25.5878  -21.5921  -12.2140 C   0  0  0  0  0  0  0  0  0  0  0  0
   25.3554  -22.8316  -12.2224 O   0  0  0  0  0  0  0  0  0  0  0  0
   24.3106  -19.8384  -16.8033 O   0  0  0  0  0  0  0  0  0  0  0  0
   22.8315  -18.9077  -10.4302 C   0  0  0  0  0  0  0  0  0  0  0  0
   22.9754  -20.3498   -9.9432 C   0  0  2  0  0  0  0  0  0  0  0  0
   23.9827  -20.4129   -8.8255 C   0  0  0  0  0  0  0  0  0  0  0  0
   23.3488  -21.2396  -11.1152 C   0  0  2  0  0  0  0  0  0  0  0  0
   24.6098  -20.7255  -11.6583 N   0  0  0  0  0  0  0  0  0  0  0  0
   22.2543  -21.0902  -12.1159 C   0  0  0  0  0  0  0  0  0  0  0  0
   21.0284  -21.6863  -11.8658 O   0  0  0  0  0  0  0  0  0  0  0  0
   22.3781  -20.4469  -13.1883 O   0  0  0  0  0  0  0  0  0  0  0  0
  2  1  1  0
  3  2  1  0
  4  3  1  0
  4  5  1  0
  5  6  1  6
  7  5  1  0
  7  9  1  0
  8  7  2  0
 10  9  1  0
 10 11  1  6
 12 11  1  0
 13 12  1  0
 14 13  2  0
 15 10  1  0
 16 15  2  0
 17 13  1  0
 19 18  1  6
 20 19  1  0
 21 22  1  6
 21 19  1  0
 22 15  1  0
 23 21  1  0
 24 23  1  0
 25 23  2  0
M  END
$$$$
