MEV.pdb
     RDKit          3D

 25 24  0  0  1  0  0  0  0  0999 V2000
   21.2161  -26.0406    0.5118 C   0  0  0  0  0  0  0  0  0  0  0  0
   20.6427  -26.5684    2.1603 S   0  0  0  0  0  0  0  0  0  0  0  0
   18.8197  -26.6713    2.1843 C   0  0  0  0  0  0  0  0  0  0  0  0
   18.2899  -25.3203    2.5826 C   0  0  0  0  0  0  0  0  0  0  0  0
   18.5286  -24.9790    4.0229 C   0  0  2  0  0  0  0  0  0  0  0  0
   17.4000  -25.4436    4.7937 N   0  0  0  0  0  0  0  0  0  0  0  0
   18.8278  -23.5590    4.2396 C   0  0  0  0  0  0  0  0  0  0  0  0
   19.8326  -23.0559    3.6906 O   0  0  0  0  0  0  0  0  0  0  0  0
   17.9910  -22.7545    5.0627 N   0  0  0  0  0  0  0  0  0  0  0  0
   18.1842  -21.3601    5.2804 C   0  0  1  0  0  0  0  0  0  0  0  0
   16.9667  -20.6095    4.7970 C   0  0  0  0  0  0  0  0  0  0  0  0
   16.9647  -20.5679    3.2985 C   0  0  0  0  0  0  0  0  0  0  0  0
   15.8941  -19.6726    2.7889 C   0  0  0  0  0  0  0  0  0  0  0  0
   15.6075  -18.6508    3.4462 O   0  0  0  0  0  0  0  0  0  0  0  0
   18.4209  -21.0018    6.6900 C   0  0  0  0  0  0  0  0  0  0  0  0
   17.9008  -21.6126    7.6631 O   0  0  0  0  0  0  0  0  0  0  0  0
   15.2214  -19.9478    1.6184 O   0  0  0  0  0  0  0  0  0  0  0  0
   21.6495  -18.3796    7.5132 C   0  0  0  0  0  0  0  0  0  0  0  0
   21.0983  -19.4444    8.4619 C   0  0  2  0  0  0  0  0  0  0  0  0
   21.7456  -20.7724    8.1700 C   0  0  0  0  0  0  0  0  0  0  0  0
   19.5861  -19.4929    8.3364 C   0  0  2  0  0  0  0  0  0  0  0  0
   19.2837  -19.9076    6.9630 N   0  0  0  0  0  0  0  0  0  0  0  0
   19.1041  -18.1030    8.5762 C   0  0  0  0  0  0  0  0  0  0  0  0
   18.9992  -17.6431    9.8793 O   0  0  0  0  0  0  0  0  0  0  0  0
   18.7826  -17.3117    7.6544 O   0  0  0  0  0  0  0  0  0  0  0  0
  2  1  1  0
  3  2  1  0
  4  3  1  0
  4  5  1  0
  5  6  1  1
  7  5  1  0
  7  9  1  0
  8  7  2  0
 10  9  1  0
 10 11  1  1
 12 11  1  0
 13 12  1  0
 14 13  2  0
 15 10  1  0
 16 15  2  0
 17 13  1  0
 19 18  1  6
 20 19  1  0
 21 22  1  6
 21 19  1  0
 22 15  1  0
 23 21  1  0
 24 23  1  0
 25 23  2  0
M  END
$$$$
