MEV.pdb
     RDKit          3D

 25 24  0  0  1  0  0  0  0  0999 V2000
   26.4263  -15.5639  -16.9669 C   0  0  0  0  0  0  0  0  0  0  0  0
   24.9760  -14.4900  -16.7056 S   0  0  0  0  0  0  0  0  0  0  0  0
   24.9269  -13.1850  -17.9821 C   0  0  0  0  0  0  0  0  0  0  0  0
   23.7531  -12.2930  -17.6802 C   0  0  0  0  0  0  0  0  0  0  0  0
   24.0642  -11.1938  -16.7091 C   0  0  2  0  0  0  0  0  0  0  0  0
   24.1997  -11.7735  -15.3940 N   0  0  0  0  0  0  0  0  0  0  0  0
   23.0983  -10.0904  -16.7546 C   0  0  0  0  0  0  0  0  0  0  0  0
   22.9254   -9.4740  -17.8290 O   0  0  0  0  0  0  0  0  0  0  0  0
   22.3614   -9.7175  -15.5957 N   0  0  0  0  0  0  0  0  0  0  0  0
   21.3637   -8.7010  -15.5740 C   0  0  1  0  0  0  0  0  0  0  0  0
   20.1923   -9.1737  -14.7471 C   0  0  0  0  0  0  0  0  0  0  0  0
   19.3951  -10.1726  -15.5308 C   0  0  0  0  0  0  0  0  0  0  0  0
   18.2022  -10.6228  -14.7681 C   0  0  0  0  0  0  0  0  0  0  0  0
   18.0376  -10.1912  -13.6084 O   0  0  0  0  0  0  0  0  0  0  0  0
   21.8308   -7.4158  -15.0250 C   0  0  0  0  0  0  0  0  0  0  0  0
   22.6137   -7.3196  -14.0409 O   0  0  0  0  0  0  0  0  0  0  0  0
   17.2868  -11.4969  -15.3124 O   0  0  0  0  0  0  0  0  0  0  0  0
   22.7495   -4.6788  -17.5602 C   0  0  0  0  0  0  0  0  0  0  0  0
   21.8754   -4.0336  -16.4846 C   0  0  2  0  0  0  0  0  0  0  0  0
   22.3556   -2.6330  -16.2091 C   0  0  0  0  0  0  0  0  0  0  0  0
   21.8823   -4.9069  -15.2428 C   0  0  2  0  0  0  0  0  0  0  0  0
   21.3717   -6.2221  -15.6416 N   0  0  0  0  0  0  0  0  0  0  0  0
   20.9508   -4.2609  -14.2750 C   0  0  0  0  0  0  0  0  0  0  0  0
   21.4683   -3.4201  -13.3024 O   0  0  0  0  0  0  0  0  0  0  0  0
   19.7064   -4.4354  -14.2881 O   0  0  0  0  0  0  0  0  0  0  0  0
  2  1  1  0
  3  2  1  0
  4  3  1  0
  4  5  1  0
  5  6  1  1
  7  5  1  0
  7  9  1  0
  8  7  2  0
 10  9  1  0
 10 11  1  1
 12 11  1  0
 13 12  1  0
 14 13  2  0
 15 10  1  0
 16 15  2  0
 17 13  1  0
 19 18  1  6
 20 19  1  0
 21 22  1  6
 21 19  1  0
 22 15  1  0
 23 21  1  0
 24 23  1  0
 25 23  2  0
M  END
$$$$
