MEV.pdb
     RDKit          3D

 25 24  0  0  1  0  0  0  0  0999 V2000
   28.5674  -12.6969  -15.1500 C   0  0  0  0  0  0  0  0  0  0  0  0
   27.0392  -13.6916  -15.1671 S   0  0  0  0  0  0  0  0  0  0  0  0
   25.8823  -13.0380  -16.4196 C   0  0  0  0  0  0  0  0  0  0  0  0
   24.8324  -12.2361  -15.6990 C   0  0  0  0  0  0  0  0  0  0  0  0
   23.8323  -11.5924  -16.6119 C   0  0  2  0  0  0  0  0  0  0  0  0
   24.5495  -10.8770  -17.6403 N   0  0  0  0  0  0  0  0  0  0  0  0
   22.8559  -10.7567  -15.9040 C   0  0  0  0  0  0  0  0  0  0  0  0
   22.1170  -11.2790  -15.0407 O   0  0  0  0  0  0  0  0  0  0  0  0
   22.7427   -9.3670  -16.1886 N   0  0  0  0  0  0  0  0  0  0  0  0
   21.7377   -8.5174  -15.6434 C   0  0  1  0  0  0  0  0  0  0  0  0
   22.3891   -7.2777  -15.0792 C   0  0  0  0  0  0  0  0  0  0  0  0
   21.3484   -6.4140  -14.4323 C   0  0  0  0  0  0  0  0  0  0  0  0
   21.9612   -5.2115  -13.8108 C   0  0  0  0  0  0  0  0  0  0  0  0
   22.6278   -5.3543  -12.7651 O   0  0  0  0  0  0  0  0  0  0  0  0
   20.7133   -8.1011  -16.6174 C   0  0  0  0  0  0  0  0  0  0  0  0
   20.9808   -7.5581  -17.7239 O   0  0  0  0  0  0  0  0  0  0  0  0
   21.8081   -3.9583  -14.3624 O   0  0  0  0  0  0  0  0  0  0  0  0
   15.9491   -8.7161  -16.9489 C   0  0  0  0  0  0  0  0  0  0  0  0
   17.3646   -9.0170  -17.4421 C   0  0  2  0  0  0  0  0  0  0  0  0
   17.8615  -10.2945  -16.8183 C   0  0  0  0  0  0  0  0  0  0  0  0
   18.2636   -7.8320  -17.1385 C   0  0  2  0  0  0  0  0  0  0  0  0
   19.3507   -8.3262  -16.2878 N   0  0  0  0  0  0  0  0  0  0  0  0
   17.4239   -6.8538  -16.3905 C   0  0  0  0  0  0  0  0  0  0  0  0
   16.5514   -6.0394  -17.0949 O   0  0  0  0  0  0  0  0  0  0  0  0
   17.4598   -6.7213  -15.1413 O   0  0  0  0  0  0  0  0  0  0  0  0
  2  1  1  0
  3  2  1  0
  4  3  1  0
  4  5  1  0
  5  6  1  6
  7  5  1  0
  7  9  1  0
  8  7  2  0
 10  9  1  0
 10 11  1  6
 12 11  1  0
 13 12  1  0
 14 13  2  0
 15 10  1  0
 16 15  2  0
 17 13  1  0
 19 18  1  1
 20 19  1  0
 21 22  1  1
 21 19  1  0
 22 15  1  0
 23 21  1  0
 24 23  1  0
 25 23  2  0
M  END
$$$$
