DLI.pdb
     RDKit          3D

 25 24  0  0  1  0  0  0  0  0999 V2000
    8.3228  -17.5830   21.0290 N   0  0  0  0  0  0  0  0  0  0  0  0
    9.6367  -16.9674   21.1461 C   0  0  1  0  0  0  0  0  0  0  0  0
   10.0063  -16.2121   19.9017 C   0  0  0  0  0  0  0  0  0  0  0  0
   10.5896  -17.0944   18.8701 C   0  0  0  0  0  0  0  0  0  0  0  0
   10.6619  -18.3606   18.9853 O   0  0  0  0  0  0  0  0  0  0  0  0
    9.7318  -16.0896   22.3181 C   0  0  0  0  0  0  0  0  0  0  0  0
   10.7282  -15.3829   22.4879 O   0  0  0  0  0  0  0  0  0  0  0  0
   11.1132  -16.5781   17.6687 O   0  0  0  0  0  0  0  0  0  0  0  0
    7.5899  -12.4081   24.5655 C   0  0  0  0  0  0  0  0  0  0  0  0
    6.7714  -13.6432   24.6056 C   0  0  2  0  0  0  0  0  0  0  0  0
    5.4581  -13.2927   25.3134 C   0  0  0  0  0  0  0  0  0  0  0  0
    7.3938  -14.8894   25.1028 C   0  0  0  0  0  0  0  0  0  0  0  0
    8.7261  -15.2681   24.5059 C   0  0  2  0  0  0  0  0  0  0  0  0
    8.6846  -16.0178   23.3041 N   0  0  0  0  0  0  0  0  0  0  0  0
    9.5401  -15.9951   25.5097 C   0  0  0  0  0  0  0  0  0  0  0  0
   10.1849  -17.0417   25.1562 O   0  0  0  0  0  0  0  0  0  0  0  0
   10.1956  -13.5799   30.3041 C   0  0  0  0  0  0  0  0  0  0  0  0
   10.9354  -14.2425   29.1929 C   0  0  0  0  0  0  0  0  0  0  0  0
   10.7191  -15.7254   29.0998 C   0  0  2  0  0  0  0  0  0  0  0  0
   11.9696  -16.3571   29.7295 C   0  0  0  0  0  0  0  0  0  0  0  0
   10.5800  -16.2797   27.7302 C   0  0  2  0  0  0  0  0  0  0  0  0
    9.6527  -15.5975   26.8630 N   0  0  0  0  0  0  0  0  0  0  0  0
   10.1078  -17.7113   27.8748 C   0  0  0  0  0  0  0  0  0  0  0  0
   11.0273  -18.7118   28.0783 O   0  0  0  0  0  0  0  0  0  0  0  0
    8.8801  -17.9525   27.8050 O   0  0  0  0  0  0  0  0  0  0  0  0
  2  1  1  6
  3  2  1  0
  3  4  1  0
  4  8  1  0
  4  5  2  0
  6  7  2  0
  6  2  1  0
 10  9  1  1
 10 12  1  0
 11 10  1  0
 13 12  1  1
 13 14  1  0
 14  6  1  0
 15 16  2  0
 15 13  1  0
 18 17  1  0
 19 21  1  0
 19 18  1  0
 19 20  1  6
 21 22  1  6
 22 15  1  0
 23 21  1  0
 24 23  1  0
 25 23  2  0
M  END
$$$$
