DLI.pdb
     RDKit          3D

 25 24  0  0  1  0  0  0  0  0999 V2000
    9.0294  -18.8195   20.9693 N   0  0  0  0  0  0  0  0  0  0  0  0
   10.3432  -18.2119   20.8154 C   0  0  1  0  0  0  0  0  0  0  0  0
   10.8667  -18.3732   19.4170 C   0  0  0  0  0  0  0  0  0  0  0  0
   11.6111  -19.6380   19.2460 C   0  0  0  0  0  0  0  0  0  0  0  0
   11.4545  -20.6544   19.9972 O   0  0  0  0  0  0  0  0  0  0  0  0
   10.3430  -16.7945   21.1955 C   0  0  0  0  0  0  0  0  0  0  0  0
   11.4070  -16.1852   21.3288 O   0  0  0  0  0  0  0  0  0  0  0  0
   12.5608  -19.8015   18.2187 O   0  0  0  0  0  0  0  0  0  0  0  0
    8.3768  -12.8821   19.2694 C   0  0  0  0  0  0  0  0  0  0  0  0
    7.4752  -13.7806   20.0288 C   0  0  2  0  0  0  0  0  0  0  0  0
    6.0390  -13.3330   19.7361 C   0  0  0  0  0  0  0  0  0  0  0  0
    7.7418  -14.0010   21.4668 C   0  0  0  0  0  0  0  0  0  0  0  0
    9.0263  -14.7087   21.8187 C   0  0  2  0  0  0  0  0  0  0  0  0
    9.1217  -16.0671   21.4264 N   0  0  0  0  0  0  0  0  0  0  0  0
    9.2793  -14.6000   23.2757 C   0  0  0  0  0  0  0  0  0  0  0  0
   10.2400  -13.8658   23.6931 O   0  0  0  0  0  0  0  0  0  0  0  0
    6.1008  -12.2558   26.1184 C   0  0  0  0  0  0  0  0  0  0  0  0
    7.4042  -12.8474   25.7031 C   0  0  0  0  0  0  0  0  0  0  0  0
    7.7138  -14.1739   26.3347 C   0  0  2  0  0  0  0  0  0  0  0  0
    8.2442  -13.8404   27.7371 C   0  0  0  0  0  0  0  0  0  0  0  0
    8.7425  -14.9973   25.6521 C   0  0  2  0  0  0  0  0  0  0  0  0
    8.5100  -15.2703   24.2561 N   0  0  0  0  0  0  0  0  0  0  0  0
    8.8037  -16.3253   26.3774 C   0  0  0  0  0  0  0  0  0  0  0  0
    8.4852  -17.4807   25.7054 O   0  0  0  0  0  0  0  0  0  0  0  0
    9.1460  -16.3402   27.5827 O   0  0  0  0  0  0  0  0  0  0  0  0
  2  1  1  6
  3  2  1  0
  3  4  1  0
  4  8  1  0
  4  5  2  0
  6  7  2  0
  6  2  1  0
 10  9  1  1
 10 12  1  0
 11 10  1  0
 13 12  1  1
 13 14  1  0
 14  6  1  0
 15 16  2  0
 15 13  1  0
 18 17  1  0
 19 21  1  0
 19 18  1  0
 19 20  1  1
 21 22  1  6
 22 15  1  0
 23 21  1  0
 24 23  1  0
 25 23  2  0
M  END
$$$$
