DLI.pdb
     RDKit          3D

 25 24  0  0  1  0  0  0  0  0999 V2000
   12.0008  -17.2516   18.9079 N   0  0  0  0  0  0  0  0  0  0  0  0
   11.8431  -17.7783   20.2557 C   0  0  1  0  0  0  0  0  0  0  0  0
   13.1071  -18.4219   20.7493 C   0  0  0  0  0  0  0  0  0  0  0  0
   13.3730  -19.7099   20.0759 C   0  0  0  0  0  0  0  0  0  0  0  0
   12.5196  -20.3138   19.3487 O   0  0  0  0  0  0  0  0  0  0  0  0
   11.3967  -16.7486   21.2012 C   0  0  0  0  0  0  0  0  0  0  0  0
   12.1746  -15.8681   21.5763 O   0  0  0  0  0  0  0  0  0  0  0  0
   14.6145  -20.3638   20.1990 O   0  0  0  0  0  0  0  0  0  0  0  0
    8.2714  -13.3466   20.8289 C   0  0  0  0  0  0  0  0  0  0  0  0
    7.6775  -14.6829   21.0706 C   0  0  2  0  0  0  0  0  0  0  0  0
    6.1660  -14.5520   20.8543 C   0  0  0  0  0  0  0  0  0  0  0  0
    8.0344  -15.4024   22.3127 C   0  0  0  0  0  0  0  0  0  0  0  0
    9.4971  -15.6993   22.5290 C   0  0  2  0  0  0  0  0  0  0  0  0
   10.0550  -16.7233   21.7238 N   0  0  0  0  0  0  0  0  0  0  0  0
    9.7427  -16.0103   23.9579 C   0  0  0  0  0  0  0  0  0  0  0  0
    9.9635  -17.2206   24.3080 O   0  0  0  0  0  0  0  0  0  0  0  0
   10.7248  -13.5486   29.6519 C   0  0  0  0  0  0  0  0  0  0  0  0
   10.6461  -14.6868   28.6931 C   0  0  0  0  0  0  0  0  0  0  0  0
   10.2311  -14.3005   27.3028 C   0  0  2  0  0  0  0  0  0  0  0  0
    8.8282  -13.6934   27.4531 C   0  0  0  0  0  0  0  0  0  0  0  0
   10.1357  -15.4076   26.3191 C   0  0  2  0  0  0  0  0  0  0  0  0
    9.7489  -15.0338   24.9819 N   0  0  0  0  0  0  0  0  0  0  0  0
    9.1009  -16.3812   26.8430 C   0  0  0  0  0  0  0  0  0  0  0  0
    7.8756  -16.4656   26.2270 O   0  0  0  0  0  0  0  0  0  0  0  0
    9.3879  -17.0930   27.8336 O   0  0  0  0  0  0  0  0  0  0  0  0
  2  1  1  6
  3  2  1  0
  3  4  1  0
  4  8  1  0
  4  5  2  0
  6  7  2  0
  6  2  1  0
 10  9  1  1
 10 12  1  0
 11 10  1  0
 13 12  1  1
 13 14  1  0
 14  6  1  0
 15 16  2  0
 15 13  1  0
 18 17  1  0
 19 21  1  0
 19 18  1  0
 19 20  1  1
 21 22  1  6
 22 15  1  0
 23 21  1  0
 24 23  1  0
 25 23  2  0
M  END
$$$$
