DLI.pdb
     RDKit          3D

 25 24  0  0  1  0  0  0  0  0999 V2000
   10.4748  -16.4773   19.9346 N   0  0  0  0  0  0  0  0  0  0  0  0
    9.5641  -16.9578   20.9635 C   0  0  1  0  0  0  0  0  0  0  0  0
    9.8656  -18.3776   21.3495 C   0  0  0  0  0  0  0  0  0  0  0  0
    9.4197  -19.3389   20.3198 C   0  0  0  0  0  0  0  0  0  0  0  0
    8.9023  -18.9916   19.2092 O   0  0  0  0  0  0  0  0  0  0  0  0
    9.5719  -16.0975   22.1522 C   0  0  0  0  0  0  0  0  0  0  0  0
   10.6135  -15.5457   22.5150 O   0  0  0  0  0  0  0  0  0  0  0  0
    9.5424  -20.7295   20.5069 O   0  0  0  0  0  0  0  0  0  0  0  0
    5.5379  -13.2955   26.1876 C   0  0  0  0  0  0  0  0  0  0  0  0
    6.8664  -13.6504   25.6343 C   0  0  2  0  0  0  0  0  0  0  0  0
    7.5889  -12.3372   25.3150 C   0  0  0  0  0  0  0  0  0  0  0  0
    6.9354  -14.6419   24.5389 C   0  0  0  0  0  0  0  0  0  0  0  0
    8.3109  -15.1014   24.1247 C   0  0  2  0  0  0  0  0  0  0  0  0
    8.3845  -15.8656   22.9335 N   0  0  0  0  0  0  0  0  0  0  0  0
    8.9451  -15.8567   25.2319 C   0  0  0  0  0  0  0  0  0  0  0  0
    9.0348  -17.1302   25.1525 O   0  0  0  0  0  0  0  0  0  0  0  0
   10.1796  -13.0378   29.4404 C   0  0  0  0  0  0  0  0  0  0  0  0
   10.9810  -14.0066   28.6401 C   0  0  0  0  0  0  0  0  0  0  0  0
   10.4597  -15.4144   28.6651 C   0  0  2  0  0  0  0  0  0  0  0  0
   11.5492  -16.2370   29.3690 C   0  0  0  0  0  0  0  0  0  0  0  0
   10.2105  -16.0413   27.3433 C   0  0  2  0  0  0  0  0  0  0  0  0
    9.4692  -15.2469   26.3962 N   0  0  0  0  0  0  0  0  0  0  0  0
    9.4252  -17.3117   27.5936 C   0  0  0  0  0  0  0  0  0  0  0  0
    8.0583  -17.3028   27.4549 O   0  0  0  0  0  0  0  0  0  0  0  0
   10.0447  -18.3498   27.9238 O   0  0  0  0  0  0  0  0  0  0  0  0
  2  1  1  6
  3  2  1  0
  3  4  1  0
  4  8  1  0
  4  5  2  0
  6  7  2  0
  6  2  1  0
 10  9  1  6
 10 12  1  0
 11 10  1  0
 13 12  1  1
 13 14  1  0
 14  6  1  0
 15 16  2  0
 15 13  1  0
 18 17  1  0
 19 21  1  0
 19 18  1  0
 19 20  1  6
 21 22  1  6
 22 15  1  0
 23 21  1  0
 24 23  1  0
 25 23  2  0
M  END
$$$$
