DLI.pdb
     RDKit          3D

 25 24  0  0  1  0  0  0  0  0999 V2000
    9.0181  -18.3039   18.5595 N   0  0  0  0  0  0  0  0  0  0  0  0
   10.3298  -17.6846   18.4371 C   0  0  1  0  0  0  0  0  0  0  0  0
   10.5553  -17.1354   17.0575 C   0  0  0  0  0  0  0  0  0  0  0  0
   10.3158  -18.1502   16.0106 C   0  0  0  0  0  0  0  0  0  0  0  0
    9.8714  -19.3191   16.2515 O   0  0  0  0  0  0  0  0  0  0  0  0
   10.5396  -16.6347   19.4405 C   0  0  0  0  0  0  0  0  0  0  0  0
   11.6057  -16.0159   19.4810 O   0  0  0  0  0  0  0  0  0  0  0  0
   10.5696  -17.8814   14.6515 O   0  0  0  0  0  0  0  0  0  0  0  0
    8.3554  -12.9340   19.4297 C   0  0  0  0  0  0  0  0  0  0  0  0
    7.6872  -13.9502   20.2770 C   0  0  2  0  0  0  0  0  0  0  0  0
    6.2484  -13.4742   20.5045 C   0  0  0  0  0  0  0  0  0  0  0  0
    8.3629  -14.3951   21.5152 C   0  0  0  0  0  0  0  0  0  0  0  0
    9.6058  -15.2327   21.3471 C   0  0  2  0  0  0  0  0  0  0  0  0
    9.5278  -16.2886   20.4051 N   0  0  0  0  0  0  0  0  0  0  0  0
   10.0286  -15.7770   22.6600 C   0  0  0  0  0  0  0  0  0  0  0  0
   10.2148  -14.9772   23.6407 O   0  0  0  0  0  0  0  0  0  0  0  0
    9.7234  -20.6902   23.0073 C   0  0  0  0  0  0  0  0  0  0  0  0
    9.8825  -19.8769   24.2459 C   0  0  0  0  0  0  0  0  0  0  0  0
   11.1197  -19.0267   24.2763 C   0  0  2  0  0  0  0  0  0  0  0  0
   11.7329  -19.2538   25.6662 C   0  0  0  0  0  0  0  0  0  0  0  0
   10.9120  -17.5664   24.1128 C   0  0  2  0  0  0  0  0  0  0  0  0
   10.2440  -17.1541   22.9040 N   0  0  0  0  0  0  0  0  0  0  0  0
   12.2801  -16.9173   24.1277 C   0  0  0  0  0  0  0  0  0  0  0  0
   13.0590  -16.9502   22.9962 O   0  0  0  0  0  0  0  0  0  0  0  0
   12.6735  -16.3608   25.1793 O   0  0  0  0  0  0  0  0  0  0  0  0
  2  1  1  6
  3  2  1  0
  3  4  1  0
  4  8  1  0
  4  5  2  0
  6  7  2  0
  6  2  1  0
 10  9  1  1
 10 12  1  0
 11 10  1  0
 13 12  1  1
 13 14  1  0
 14  6  1  0
 15 16  2  0
 15 13  1  0
 18 17  1  0
 19 21  1  0
 19 18  1  0
 19 20  1  1
 21 22  1  6
 22 15  1  0
 23 21  1  0
 24 23  1  0
 25 23  2  0
M  END
$$$$
