DLI.pdb
     RDKit          3D

 25 24  0  0  1  0  0  0  0  0999 V2000
    8.5827  -18.2648   21.1435 N   0  0  0  0  0  0  0  0  0  0  0  0
    9.8962  -17.6378   21.1186 C   0  0  1  0  0  0  0  0  0  0  0  0
   10.3217  -17.3013   19.7181 C   0  0  0  0  0  0  0  0  0  0  0  0
   10.0182  -18.3923   18.7690 C   0  0  0  0  0  0  0  0  0  0  0  0
    9.8687  -19.6079   19.1180 O   0  0  0  0  0  0  0  0  0  0  0  0
    9.9521  -16.4411   21.9659 C   0  0  0  0  0  0  0  0  0  0  0  0
   10.8874  -15.6445   21.8580 O   0  0  0  0  0  0  0  0  0  0  0  0
    9.8721  -18.1499   17.3893 O   0  0  0  0  0  0  0  0  0  0  0  0
    6.3968  -13.1788   26.1103 C   0  0  0  0  0  0  0  0  0  0  0  0
    7.6412  -13.5178   25.3800 C   0  0  2  0  0  0  0  0  0  0  0  0
    8.1137  -12.2418   24.6748 C   0  0  0  0  0  0  0  0  0  0  0  0
    7.6464  -14.7104   24.5051 C   0  0  0  0  0  0  0  0  0  0  0  0
    8.9671  -15.0920   23.8850 C   0  0  2  0  0  0  0  0  0  0  0  0
    8.9354  -16.1510   22.9439 N   0  0  0  0  0  0  0  0  0  0  0  0
    9.9504  -15.4100   24.9483 C   0  0  0  0  0  0  0  0  0  0  0  0
   11.1899  -15.1631   24.7514 O   0  0  0  0  0  0  0  0  0  0  0  0
    9.1957  -13.6283   29.9397 C   0  0  0  0  0  0  0  0  0  0  0  0
    9.2052  -14.7344   28.9410 C   0  0  0  0  0  0  0  0  0  0  0  0
   10.5208  -14.9319   28.2450 C   0  0  2  0  0  0  0  0  0  0  0  0
   10.7811  -13.6190   27.4914 C   0  0  0  0  0  0  0  0  0  0  0  0
   10.5753  -16.0345   27.2533 C   0  0  2  0  0  0  0  0  0  0  0  0
    9.5990  -15.9814   26.1942 N   0  0  0  0  0  0  0  0  0  0  0  0
   10.3618  -17.3274   28.0123 C   0  0  0  0  0  0  0  0  0  0  0  0
   11.2576  -17.6985   28.9859 O   0  0  0  0  0  0  0  0  0  0  0  0
    9.3657  -18.0345   27.7331 O   0  0  0  0  0  0  0  0  0  0  0  0
  2  1  1  6
  3  2  1  0
  3  4  1  0
  4  8  1  0
  4  5  2  0
  6  7  2  0
  6  2  1  0
 10  9  1  6
 10 12  1  0
 11 10  1  0
 13 12  1  1
 13 14  1  0
 14  6  1  0
 15 16  2  0
 15 13  1  0
 18 17  1  0
 19 21  1  0
 19 18  1  0
 19 20  1  6
 21 22  1  6
 22 15  1  0
 23 21  1  0
 24 23  1  0
 25 23  2  0
M  END
$$$$
