DLI.pdb
     RDKit          3D

 25 24  0  0  1  0  0  0  0  0999 V2000
    8.8425  -17.6113   20.4052 N   0  0  0  0  0  0  0  0  0  0  0  0
   10.1536  -17.1866   20.8739 C   0  0  1  0  0  0  0  0  0  0  0  0
   10.9584  -16.5597   19.7717 C   0  0  0  0  0  0  0  0  0  0  0  0
   11.1428  -17.4776   18.6286 C   0  0  0  0  0  0  0  0  0  0  0  0
   10.5978  -18.6260   18.5526 O   0  0  0  0  0  0  0  0  0  0  0  0
   10.0606  -16.2708   22.0167 C   0  0  0  0  0  0  0  0  0  0  0  0
   11.0185  -15.5565   22.3220 O   0  0  0  0  0  0  0  0  0  0  0  0
   11.9504  -17.1313   17.5278 O   0  0  0  0  0  0  0  0  0  0  0  0
    5.7981  -13.9559   26.1077 C   0  0  0  0  0  0  0  0  0  0  0  0
    7.1165  -14.0141   25.4330 C   0  0  2  0  0  0  0  0  0  0  0  0
    7.5207  -12.5728   25.1047 C   0  0  0  0  0  0  0  0  0  0  0  0
    7.2910  -14.9474   24.2988 C   0  0  0  0  0  0  0  0  0  0  0  0
    8.7047  -15.3516   23.9633 C   0  0  2  0  0  0  0  0  0  0  0  0
    8.8680  -16.1695   22.8176 N   0  0  0  0  0  0  0  0  0  0  0  0
    9.3308  -16.0146   25.1325 C   0  0  0  0  0  0  0  0  0  0  0  0
    9.8538  -17.1734   24.9916 O   0  0  0  0  0  0  0  0  0  0  0  0
   10.3356  -12.9478   29.6767 C   0  0  0  0  0  0  0  0  0  0  0  0
   10.8281  -13.8442   28.5927 C   0  0  0  0  0  0  0  0  0  0  0  0
   10.3578  -15.2659   28.7004 C   0  0  2  0  0  0  0  0  0  0  0  0
   11.4104  -15.9761   29.5646 C   0  0  0  0  0  0  0  0  0  0  0  0
   10.2480  -16.0153   27.4242 C   0  0  2  0  0  0  0  0  0  0  0  0
    9.3886  -15.4361   26.4226 N   0  0  0  0  0  0  0  0  0  0  0  0
    9.7049  -17.3887   27.7591 C   0  0  0  0  0  0  0  0  0  0  0  0
    8.3645  -17.6455   27.5997 O   0  0  0  0  0  0  0  0  0  0  0  0
   10.4961  -18.2659   28.1770 O   0  0  0  0  0  0  0  0  0  0  0  0
  2  1  1  6
  3  2  1  0
  3  4  1  0
  4  8  1  0
  4  5  2  0
  6  7  2  0
  6  2  1  0
 10  9  1  6
 10 12  1  0
 11 10  1  0
 13 12  1  1
 13 14  1  0
 14  6  1  0
 15 16  2  0
 15 13  1  0
 18 17  1  0
 19 21  1  0
 19 18  1  0
 19 20  1  1
 21 22  1  6
 22 15  1  0
 23 21  1  0
 24 23  1  0
 25 23  2  0
M  END
$$$$
