DLI.pdb
     RDKit          3D

 25 24  0  0  1  0  0  0  0  0999 V2000
   12.7361  -17.1413   20.1330 N   0  0  0  0  0  0  0  0  0  0  0  0
   11.4636  -17.4677   20.7600 C   0  0  1  0  0  0  0  0  0  0  0  0
   11.6042  -18.5953   21.7420 C   0  0  0  0  0  0  0  0  0  0  0  0
   11.9749  -19.8636   21.0806 C   0  0  0  0  0  0  0  0  0  0  0  0
   12.2758  -19.9524   19.8464 O   0  0  0  0  0  0  0  0  0  0  0  0
   10.8550  -16.3021   21.4114 C   0  0  0  0  0  0  0  0  0  0  0  0
   11.5504  -15.5181   22.0616 O   0  0  0  0  0  0  0  0  0  0  0  0
   12.0197  -21.0795   21.7902 O   0  0  0  0  0  0  0  0  0  0  0  0
    8.5199  -12.5840   19.8895 C   0  0  0  0  0  0  0  0  0  0  0  0
    7.6547  -13.7858   19.9543 C   0  0  2  0  0  0  0  0  0  0  0  0
    6.3193  -13.4177   19.2988 C   0  0  0  0  0  0  0  0  0  0  0  0
    7.5024  -14.4796   21.2516 C   0  0  0  0  0  0  0  0  0  0  0  0
    8.7692  -14.9402   21.9283 C   0  0  2  0  0  0  0  0  0  0  0  0
    9.4438  -16.0290   21.3221 N   0  0  0  0  0  0  0  0  0  0  0  0
    8.4933  -15.2635   23.3488 C   0  0  0  0  0  0  0  0  0  0  0  0
    8.8162  -16.4141   23.8049 O   0  0  0  0  0  0  0  0  0  0  0  0
    6.7145  -11.2939   26.6235 C   0  0  0  0  0  0  0  0  0  0  0  0
    7.6159  -12.4804   26.6559 C   0  0  0  0  0  0  0  0  0  0  0  0
    6.9179  -13.7963   26.4676 C   0  0  2  0  0  0  0  0  0  0  0  0
    6.8143  -14.4044   27.8743 C   0  0  0  0  0  0  0  0  0  0  0  0
    7.6105  -14.7844   25.6037 C   0  0  2  0  0  0  0  0  0  0  0  0
    7.8826  -14.3622   24.2527 N   0  0  0  0  0  0  0  0  0  0  0  0
    6.7265  -16.0120   25.5336 C   0  0  0  0  0  0  0  0  0  0  0  0
    6.8684  -17.0047   26.4729 O   0  0  0  0  0  0  0  0  0  0  0  0
    5.8795  -16.0949   24.6138 O   0  0  0  0  0  0  0  0  0  0  0  0
  2  1  1  1
  3  2  1  0
  3  4  1  0
  4  8  1  0
  4  5  2  0
  6  7  2  0
  6  2  1  0
 10  9  1  1
 10 12  1  0
 11 10  1  0
 13 12  1  6
 13 14  1  0
 14  6  1  0
 15 16  2  0
 15 13  1  0
 18 17  1  0
 19 21  1  0
 19 18  1  0
 19 20  1  1
 21 22  1  6
 22 15  1  0
 23 21  1  0
 24 23  1  0
 25 23  2  0
M  END
$$$$
