DLI.pdb
     RDKit          3D

 25 24  0  0  1  0  0  0  0  0999 V2000
    8.4719  -17.5448   20.8882 N   0  0  0  0  0  0  0  0  0  0  0  0
    9.7889  -16.9408   21.0287 C   0  0  1  0  0  0  0  0  0  0  0  0
   10.1491  -16.1143   19.8276 C   0  0  0  0  0  0  0  0  0  0  0  0
   10.3168  -16.9417   18.6150 C   0  0  0  0  0  0  0  0  0  0  0  0
   10.7723  -16.4930   17.5137 O   0  0  0  0  0  0  0  0  0  0  0  0
    9.8981  -16.1341   22.2496 C   0  0  0  0  0  0  0  0  0  0  0  0
   10.8997  -15.4437   22.4525 O   0  0  0  0  0  0  0  0  0  0  0  0
    9.9758  -18.3083   18.6021 O   0  0  0  0  0  0  0  0  0  0  0  0
    7.6767  -12.5027   24.7200 C   0  0  0  0  0  0  0  0  0  0  0  0
    6.8841  -13.7508   24.6146 C   0  0  2  0  0  0  0  0  0  0  0  0
    5.5345  -13.4881   25.2914 C   0  0  0  0  0  0  0  0  0  0  0  0
    7.5116  -15.0250   25.0272 C   0  0  0  0  0  0  0  0  0  0  0  0
    8.8615  -15.3408   24.4334 C   0  0  2  0  0  0  0  0  0  0  0  0
    8.8590  -16.1152   23.2466 N   0  0  0  0  0  0  0  0  0  0  0  0
    9.7169  -16.0017   25.4484 C   0  0  0  0  0  0  0  0  0  0  0  0
   10.5188  -16.9298   25.0855 O   0  0  0  0  0  0  0  0  0  0  0  0
   11.0280  -13.1301   29.8395 C   0  0  0  0  0  0  0  0  0  0  0  0
   11.4300  -14.0609   28.7472 C   0  0  0  0  0  0  0  0  0  0  0  0
   10.9795  -15.4797   28.9428 C   0  0  2  0  0  0  0  0  0  0  0  0
   12.1474  -16.1812   29.6520 C   0  0  0  0  0  0  0  0  0  0  0  0
   10.6821  -16.2460   27.7071 C   0  0  2  0  0  0  0  0  0  0  0  0
    9.7036  -15.6649   26.8227 N   0  0  0  0  0  0  0  0  0  0  0  0
   10.1659  -17.6030   28.1377 C   0  0  0  0  0  0  0  0  0  0  0  0
   11.0577  -18.5945   28.4683 O   0  0  0  0  0  0  0  0  0  0  0  0
    8.9279  -17.7918   28.1831 O   0  0  0  0  0  0  0  0  0  0  0  0
  2  1  1  6
  3  2  1  0
  3  4  1  0
  4  8  1  0
  4  5  2  0
  6  7  2  0
  6  2  1  0
 10  9  1  1
 10 12  1  0
 11 10  1  0
 13 12  1  1
 13 14  1  0
 14  6  1  0
 15 16  2  0
 15 13  1  0
 18 17  1  0
 19 21  1  0
 19 18  1  0
 19 20  1  6
 21 22  1  1
 22 15  1  0
 23 21  1  0
 24 23  1  0
 25 23  2  0
M  END
$$$$
