DLI.pdb
     RDKit          3D

 25 24  0  0  1  0  0  0  0  0999 V2000
   11.0808  -18.2398   20.0435 N   0  0  0  0  0  0  0  0  0  0  0  0
   12.1488  -17.6277   20.8204 C   0  0  1  0  0  0  0  0  0  0  0  0
   13.1525  -16.9435   19.9373 C   0  0  0  0  0  0  0  0  0  0  0  0
   14.0250  -17.9092   19.2377 C   0  0  0  0  0  0  0  0  0  0  0  0
   13.8323  -19.1679   19.2477 O   0  0  0  0  0  0  0  0  0  0  0  0
   11.6327  -16.6882   21.8226 C   0  0  0  0  0  0  0  0  0  0  0  0
   12.4096  -16.0114   22.5003 O   0  0  0  0  0  0  0  0  0  0  0  0
   15.1483  -17.4878   18.4998 O   0  0  0  0  0  0  0  0  0  0  0  0
    8.5672  -13.3867   21.0435 C   0  0  0  0  0  0  0  0  0  0  0  0
    7.8627  -14.6338   21.4247 C   0  0  2  0  0  0  0  0  0  0  0  0
    6.3638  -14.3862   21.2233 C   0  0  0  0  0  0  0  0  0  0  0  0
    8.1864  -15.2610   22.7245 C   0  0  0  0  0  0  0  0  0  0  0  0
    9.6332  -15.6103   22.9684 C   0  0  2  0  0  0  0  0  0  0  0  0
   10.2213  -16.5199   22.0546 N   0  0  0  0  0  0  0  0  0  0  0  0
    9.8022  -16.1239   24.3491 C   0  0  0  0  0  0  0  0  0  0  0  0
    9.9615  -17.3791   24.5369 O   0  0  0  0  0  0  0  0  0  0  0  0
    9.0011  -13.4239   29.1137 C   0  0  0  0  0  0  0  0  0  0  0  0
    9.7889  -13.5964   27.8604 C   0  0  0  0  0  0  0  0  0  0  0  0
   10.5997  -14.8589   27.8049 C   0  0  2  0  0  0  0  0  0  0  0  0
   12.0326  -14.4061   27.4873 C   0  0  0  0  0  0  0  0  0  0  0  0
   10.2025  -15.8443   26.7688 C   0  0  2  0  0  0  0  0  0  0  0  0
    9.7988  -15.2975   25.4977 N   0  0  0  0  0  0  0  0  0  0  0  0
    9.0330  -16.6291   27.3251 C   0  0  0  0  0  0  0  0  0  0  0  0
    7.8251  -16.6023   26.6707 O   0  0  0  0  0  0  0  0  0  0  0  0
    9.1948  -17.2901   28.3774 O   0  0  0  0  0  0  0  0  0  0  0  0
  2  1  1  6
  3  2  1  0
  3  4  1  0
  4  8  1  0
  4  5  2  0
  6  7  2  0
  6  2  1  0
 10  9  1  1
 10 12  1  0
 11 10  1  0
 13 12  1  6
 13 14  1  0
 14  6  1  0
 15 16  2  0
 15 13  1  0
 18 17  1  0
 19 21  1  0
 19 18  1  0
 19 20  1  6
 21 22  1  6
 22 15  1  0
 23 21  1  0
 24 23  1  0
 25 23  2  0
M  END
$$$$
