LVA.pdb
     RDKit          3D

 21 20  0  0  1  0  0  0  0  0999 V2000
   24.6381  -12.5787  -14.8629 C   0  0  0  0  0  0  0  0  0  0  0  0
   24.6469  -13.1865  -16.2496 C   0  0  2  0  0  0  0  0  0  0  0  0
   26.0225  -13.4430  -16.7734 C   0  0  0  0  0  0  0  0  0  0  0  0
   23.8672  -12.2200  -17.1521 C   0  0  0  0  0  0  0  0  0  0  0  0
   22.4584  -12.1854  -16.6057 C   0  0  2  0  0  0  0  0  0  0  0  0
   21.8708  -13.4839  -16.8430 N   0  0  0  0  0  0  0  0  0  0  0  0
   21.6460  -11.1133  -17.2100 C   0  0  0  0  0  0  0  0  0  0  0  0
   21.4207  -11.1400  -18.4462 O   0  0  0  0  0  0  0  0  0  0  0  0
   18.7807   -9.5649  -15.0311 C   0  0  0  0  0  0  0  0  0  0  0  0
   18.8435   -9.3483  -16.5219 C   0  0  1  0  0  0  0  0  0  0  0  0
   17.8679   -8.3022  -16.9852 C   0  0  0  0  0  0  0  0  0  0  0  0
   20.2686   -9.0154  -16.9489 C   0  0  2  0  0  0  0  0  0  0  0  0
   21.1242  -10.0637  -16.4073 N   0  0  0  0  0  0  0  0  0  0  0  0
   20.7140   -7.7318  -16.3724 C   0  0  0  0  0  0  0  0  0  0  0  0
   20.9770   -7.6019  -15.1294 O   0  0  0  0  0  0  0  0  0  0  0  0
   21.6533   -4.3589  -17.7175 C   0  0  0  0  0  0  0  0  0  0  0  0
   21.3365   -5.2894  -16.5631 C   0  0  2  0  0  0  0  0  0  0  0  0
   20.8827   -6.5497  -17.1532 N   0  0  0  0  0  0  0  0  0  0  0  0
   20.2998   -4.7394  -15.6687 C   0  0  0  0  0  0  0  0  0  0  0  0
   18.9845   -5.1080  -15.8829 O   0  0  0  0  0  0  0  0  0  0  0  0
   20.6106   -3.9654  -14.7492 O   0  0  0  0  0  0  0  0  0  0  0  0
  2  1  1  1
  3  2  1  0
  4  5  1  0
  4  2  1  0
  5  7  1  0
  5  6  1  6
  7 13  1  0
  7  8  2  0
 10  9  1  1
 11 10  1  0
 12 10  1  0
 12 14  1  0
 12 13  1  1
 14 15  2  0
 17 16  1  6
 17 19  1  0
 18 17  1  0
 18 14  1  0
 19 21  2  0
 19 20  1  0
M  END
$$$$
