LVA.pdb
     RDKit          3D

 21 20  0  0  1  0  0  0  0  0999 V2000
   12.7224  -11.5404  -16.4224 C   0  0  0  0  0  0  0  0  0  0  0  0
   12.5651  -12.0056  -14.9902 C   0  0  2  0  0  0  0  0  0  0  0  0
   11.1676  -11.8773  -14.4775 C   0  0  0  0  0  0  0  0  0  0  0  0
   13.5540  -11.1805  -14.1547 C   0  0  0  0  0  0  0  0  0  0  0  0
   14.9240  -11.4742  -14.7217 C   0  0  2  0  0  0  0  0  0  0  0  0
   15.2735  -12.8209  -14.3315 N   0  0  0  0  0  0  0  0  0  0  0  0
   15.9403  -10.5065  -14.2688 C   0  0  0  0  0  0  0  0  0  0  0  0
   16.3056  -10.5212  -13.0663 O   0  0  0  0  0  0  0  0  0  0  0  0
   19.7462   -7.7672  -15.5436 C   0  0  0  0  0  0  0  0  0  0  0  0
   18.7258   -8.8655  -15.7048 C   0  0  1  0  0  0  0  0  0  0  0  0
   19.3206  -10.2293  -15.4880 C   0  0  0  0  0  0  0  0  0  0  0  0
   17.5343   -8.6201  -14.7860 C   0  0  2  0  0  0  0  0  0  0  0  0
   16.5001   -9.5694  -15.1781 N   0  0  0  0  0  0  0  0  0  0  0  0
   16.9877   -7.2615  -14.9697 C   0  0  0  0  0  0  0  0  0  0  0  0
   16.6179   -6.8285  -16.1128 O   0  0  0  0  0  0  0  0  0  0  0  0
   15.6455   -4.5677  -12.8119 C   0  0  0  0  0  0  0  0  0  0  0  0
   16.3227   -4.9818  -14.1039 C   0  0  2  0  0  0  0  0  0  0  0  0
   16.8325   -6.3376  -13.8937 N   0  0  0  0  0  0  0  0  0  0  0  0
   17.4231   -4.0721  -14.4759 C   0  0  0  0  0  0  0  0  0  0  0  0
   17.1116   -2.9051  -15.1490 O   0  0  0  0  0  0  0  0  0  0  0  0
   18.5967   -4.3561  -14.1874 O   0  0  0  0  0  0  0  0  0  0  0  0
  2  1  1  6
  3  2  1  0
  4  5  1  0
  4  2  1  0
  5  7  1  0
  5  6  1  1
  7 13  1  0
  7  8  2  0
 10  9  1  1
 11 10  1  0
 12 10  1  0
 12 14  1  0
 12 13  1  6
 14 15  2  0
 17 16  1  1
 17 19  1  0
 18 17  1  0
 18 14  1  0
 19 21  2  0
 19 20  1  0
M  END
$$$$
