LVA.pdb
     RDKit          3D

 21 20  0  0  1  0  0  0  0  0999 V2000
   27.2093  -21.0838   -5.5120 C   0  0  0  0  0  0  0  0  0  0  0  0
   27.9164  -20.0526   -6.3660 C   0  0  2  0  0  0  0  0  0  0  0  0
   28.4936  -18.9250   -5.5738 C   0  0  0  0  0  0  0  0  0  0  0  0
   26.8860  -19.5573   -7.3905 C   0  0  0  0  0  0  0  0  0  0  0  0
   26.7877  -20.6413   -8.4392 C   0  0  2  0  0  0  0  0  0  0  0  0
   28.1049  -21.2153   -8.5922 N   0  0  0  0  0  0  0  0  0  0  0  0
   26.2732  -20.1357   -9.7254 C   0  0  0  0  0  0  0  0  0  0  0  0
   26.7488  -19.0730  -10.1989 O   0  0  0  0  0  0  0  0  0  0  0  0
   26.8642  -21.4272  -12.8175 C   0  0  0  0  0  0  0  0  0  0  0  0
   25.3643  -21.5363  -12.7078 C   0  0  1  0  0  0  0  0  0  0  0  0
   24.9240  -22.9138  -12.2961 C   0  0  0  0  0  0  0  0  0  0  0  0
   24.8235  -20.4685  -11.7637 C   0  0  2  0  0  0  0  0  0  0  0  0
   25.2537  -20.8390  -10.4213 N   0  0  0  0  0  0  0  0  0  0  0  0
   23.3478  -20.4457  -11.7706 C   0  0  0  0  0  0  0  0  0  0  0  0
   22.6556  -21.1275  -10.9417 O   0  0  0  0  0  0  0  0  0  0  0  0
   20.6866  -18.5898  -13.6586 C   0  0  0  0  0  0  0  0  0  0  0  0
   21.1265  -19.6842  -12.7058 C   0  0  2  0  0  0  0  0  0  0  0  0
   22.5900  -19.6672  -12.6953 N   0  0  0  0  0  0  0  0  0  0  0  0
   20.6321  -21.0134  -13.1132 C   0  0  0  0  0  0  0  0  0  0  0  0
   19.4031  -21.4314  -12.6372 O   0  0  0  0  0  0  0  0  0  0  0  0
   21.3101  -21.7316  -13.8653 O   0  0  0  0  0  0  0  0  0  0  0  0
  2  1  1  1
  3  2  1  0
  4  5  1  0
  4  2  1  0
  5  7  1  0
  5  6  1  6
  7 13  1  0
  7  8  2  0
 10  9  1  1
 11 10  1  0
 12 10  1  0
 12 14  1  0
 12 13  1  1
 14 15  2  0
 17 16  1  6
 17 19  1  0
 18 17  1  0
 18 14  1  0
 19 21  2  0
 19 20  1  0
M  END
$$$$
