LVA.pdb
     RDKit          3D

 21 20  0  0  1  0  0  0  0  0999 V2000
   26.3276  -21.1763  -10.8250 C   0  0  0  0  0  0  0  0  0  0  0  0
   24.9578  -20.6240  -10.4920 C   0  0  2  0  0  0  0  0  0  0  0  0
   24.8051  -20.2504   -9.0534 C   0  0  0  0  0  0  0  0  0  0  0  0
   23.9435  -21.6979  -10.9100 C   0  0  0  0  0  0  0  0  0  0  0  0
   22.7783  -20.9542  -11.5215 C   0  0  2  0  0  0  0  0  0  0  0  0
   21.5683  -21.5107  -10.9610 N   0  0  0  0  0  0  0  0  0  0  0  0
   22.7699  -21.0331  -12.9939 C   0  0  0  0  0  0  0  0  0  0  0  0
   22.8420  -22.1597  -13.5463 O   0  0  0  0  0  0  0  0  0  0  0  0
   21.3987  -18.9603  -17.1617 C   0  0  0  0  0  0  0  0  0  0  0  0
   21.3597  -19.2639  -15.6853 C   0  0  1  0  0  0  0  0  0  0  0  0
   20.1893  -20.1321  -15.3150 C   0  0  0  0  0  0  0  0  0  0  0  0
   22.6800  -19.8801  -15.2366 C   0  0  2  0  0  0  0  0  0  0  0  0
   22.6816  -19.8525  -13.7793 N   0  0  0  0  0  0  0  0  0  0  0  0
   23.8296  -19.0792  -15.7007 C   0  0  0  0  0  0  0  0  0  0  0  0
   24.0298  -17.8840  -15.2976 O   0  0  0  0  0  0  0  0  0  0  0  0
   27.1319  -19.6973  -17.1131 C   0  0  0  0  0  0  0  0  0  0  0  0
   25.9348  -18.7679  -17.0645 C   0  0  2  0  0  0  0  0  0  0  0  0
   24.7952  -19.5753  -16.6263 N   0  0  0  0  0  0  0  0  0  0  0  0
   25.6520  -18.1499  -18.3740 C   0  0  0  0  0  0  0  0  0  0  0  0
   26.2923  -16.9670  -18.6942 O   0  0  0  0  0  0  0  0  0  0  0  0
   24.8572  -18.6864  -19.1626 O   0  0  0  0  0  0  0  0  0  0  0  0
  2  1  1  1
  3  2  1  0
  4  5  1  0
  4  2  1  0
  5  7  1  0
  5  6  1  1
  7 13  1  0
  7  8  2  0
 10  9  1  6
 11 10  1  0
 12 10  1  0
 12 14  1  0
 12 13  1  1
 14 15  2  0
 17 16  1  6
 17 19  1  0
 18 17  1  0
 18 14  1  0
 19 21  2  0
 19 20  1  0
M  END
$$$$
