LVA.pdb
     RDKit          3D

 21 20  0  0  1  0  0  0  0  0999 V2000
   27.9103  -21.7183  -13.3631 C   0  0  0  0  0  0  0  0  0  0  0  0
   27.1852  -20.4817  -13.8505 C   0  0  2  0  0  0  0  0  0  0  0  0
   27.9830  -19.6732  -14.8212 C   0  0  0  0  0  0  0  0  0  0  0  0
   26.8225  -19.6698  -12.5992 C   0  0  0  0  0  0  0  0  0  0  0  0
   26.0193  -20.5993  -11.7185 C   0  0  2  0  0  0  0  0  0  0  0  0
   24.7495  -20.8229  -12.3709 N   0  0  0  0  0  0  0  0  0  0  0  0
   25.8329  -20.0643  -10.3571 C   0  0  0  0  0  0  0  0  0  0  0  0
   25.2672  -18.9517  -10.2095 O   0  0  0  0  0  0  0  0  0  0  0  0
   25.0091  -21.1726   -5.7438 C   0  0  0  0  0  0  0  0  0  0  0  0
   25.0973  -21.3829   -7.2342 C   0  0  1  0  0  0  0  0  0  0  0  0
   23.7446  -21.3682   -7.8906 C   0  0  0  0  0  0  0  0  0  0  0  0
   26.0357  -20.3567   -7.8590 C   0  0  2  0  0  0  0  0  0  0  0  0
   26.2860  -20.7953   -9.2262 N   0  0  0  0  0  0  0  0  0  0  0  0
   27.3330  -20.3200   -7.1561 C   0  0  0  0  0  0  0  0  0  0  0  0
   28.1715  -21.2804   -7.2303 O   0  0  0  0  0  0  0  0  0  0  0  0
   29.4557  -17.8263   -5.4285 C   0  0  0  0  0  0  0  0  0  0  0  0
   28.9718  -19.2581   -5.5512 C   0  0  2  0  0  0  0  0  0  0  0  0
   27.7446  -19.2186   -6.3480 N   0  0  0  0  0  0  0  0  0  0  0  0
   28.7101  -19.8753   -4.2369 C   0  0  0  0  0  0  0  0  0  0  0  0
   29.7897  -20.2934   -3.4808 O   0  0  0  0  0  0  0  0  0  0  0  0
   27.5458  -20.0116   -3.8282 O   0  0  0  0  0  0  0  0  0  0  0  0
  2  1  1  1
  3  2  1  0
  4  5  1  0
  4  2  1  0
  5  7  1  0
  5  6  1  6
  7 13  1  0
  7  8  2  0
 10  9  1  1
 11 10  1  0
 12 10  1  0
 12 14  1  0
 12 13  1  6
 14 15  2  0
 17 16  1  1
 17 19  1  0
 18 17  1  0
 18 14  1  0
 19 21  2  0
 19 20  1  0
M  END
$$$$
