LVA.pdb
     RDKit          3D

 21 20  0  0  1  0  0  0  0  0999 V2000
   28.6880  -18.3957  -15.9558 C   0  0  0  0  0  0  0  0  0  0  0  0
   28.0572  -19.3116  -16.9833 C   0  0  2  0  0  0  0  0  0  0  0  0
   27.6097  -18.5965  -18.2165 C   0  0  0  0  0  0  0  0  0  0  0  0
   26.8879  -20.0140  -16.2789 C   0  0  0  0  0  0  0  0  0  0  0  0
   27.4895  -20.7403  -15.0977 C   0  0  2  0  0  0  0  0  0  0  0  0
   28.3274  -21.7952  -15.6202 N   0  0  0  0  0  0  0  0  0  0  0  0
   26.4636  -21.2764  -14.1841 C   0  0  0  0  0  0  0  0  0  0  0  0
   25.8880  -22.3548  -14.4764 O   0  0  0  0  0  0  0  0  0  0  0  0
   24.3127  -20.7522   -9.7308 C   0  0  0  0  0  0  0  0  0  0  0  0
   25.4315  -20.4744  -10.7027 C   0  0  1  0  0  0  0  0  0  0  0  0
   26.7590  -20.9657  -10.1958 C   0  0  0  0  0  0  0  0  0  0  0  0
   25.1015  -21.0597  -12.0712 C   0  0  2  0  0  0  0  0  0  0  0  0
   26.1291  -20.5846  -12.9892 N   0  0  0  0  0  0  0  0  0  0  0  0
   23.7997  -20.5686  -12.5636 C   0  0  0  0  0  0  0  0  0  0  0  0
   23.5419  -19.3223  -12.6704 O   0  0  0  0  0  0  0  0  0  0  0  0
   20.8437  -22.0518  -14.2733 C   0  0  0  0  0  0  0  0  0  0  0  0
   21.4645  -20.9330  -13.4596 C   0  0  2  0  0  0  0  0  0  0  0  0
   22.7407  -21.4412  -12.9540 N   0  0  0  0  0  0  0  0  0  0  0  0
   20.6017  -20.5094  -12.3403 C   0  0  0  0  0  0  0  0  0  0  0  0
   19.6533  -19.5310  -12.5756 O   0  0  0  0  0  0  0  0  0  0  0  0
   20.7314  -21.0245  -11.2181 O   0  0  0  0  0  0  0  0  0  0  0  0
  2  1  1  1
  3  2  1  0
  4  5  1  0
  4  2  1  0
  5  7  1  0
  5  6  1  6
  7 13  1  0
  7  8  2  0
 10  9  1  1
 11 10  1  0
 12 10  1  0
 12 14  1  0
 12 13  1  6
 14 15  2  0
 17 16  1  1
 17 19  1  0
 18 17  1  0
 18 14  1  0
 19 21  2  0
 19 20  1  0
M  END
$$$$
