LVA.pdb
     RDKit          3D

 21 20  0  0  1  0  0  0  0  0999 V2000
   25.5713  -35.4165   -9.5509 C   0  0  0  0  0  0  0  0  0  0  0  0
   25.9463  -34.2612  -10.4549 C   0  0  2  0  0  0  0  0  0  0  0  0
   26.7527  -34.6775  -11.6419 C   0  0  0  0  0  0  0  0  0  0  0  0
   26.7041  -33.2533   -9.5794 C   0  0  0  0  0  0  0  0  0  0  0  0
   25.8024  -32.9652   -8.4010 C   0  0  2  0  0  0  0  0  0  0  0  0
   25.0141  -31.8010   -8.7345 N   0  0  0  0  0  0  0  0  0  0  0  0
   26.5574  -32.7586   -7.1513 C   0  0  0  0  0  0  0  0  0  0  0  0
   27.2260  -31.7040   -7.0082 O   0  0  0  0  0  0  0  0  0  0  0  0
   26.6175  -33.3058   -2.4141 C   0  0  0  0  0  0  0  0  0  0  0  0
   26.0555  -33.3247   -3.8131 C   0  0  1  0  0  0  0  0  0  0  0  0
   25.2508  -32.0918   -4.1183 C   0  0  0  0  0  0  0  0  0  0  0  0
   27.1726  -33.5318   -4.8295 C   0  0  2  0  0  0  0  0  0  0  0  0
   26.5306  -33.7373   -6.1219 N   0  0  0  0  0  0  0  0  0  0  0  0
   27.9580  -34.7431   -4.5223 C   0  0  0  0  0  0  0  0  0  0  0  0
   27.4453  -35.9121   -4.5645 O   0  0  0  0  0  0  0  0  0  0  0  0
   31.5257  -35.5337   -3.6838 C   0  0  0  0  0  0  0  0  0  0  0  0
   30.0511  -35.8869   -3.6860 C   0  0  2  0  0  0  0  0  0  0  0  0
   29.3367  -34.6999   -4.1583 N   0  0  0  0  0  0  0  0  0  0  0  0
   29.5670  -36.2783   -2.3483 C   0  0  0  0  0  0  0  0  0  0  0  0
   29.7307  -37.5918   -1.9487 O   0  0  0  0  0  0  0  0  0  0  0  0
   29.0272  -35.4416   -1.6067 O   0  0  0  0  0  0  0  0  0  0  0  0
  2  1  1  1
  3  2  1  0
  4  5  1  0
  4  2  1  0
  5  7  1  0
  5  6  1  6
  7 13  1  0
  7  8  2  0
 10  9  1  1
 11 10  1  0
 12 10  1  0
 12 14  1  0
 12 13  1  6
 14 15  2  0
 17 16  1  1
 17 19  1  0
 18 17  1  0
 18 14  1  0
 19 21  2  0
 19 20  1  0
M  END
$$$$
