LVA.pdb
     RDKit          3D

 21 20  0  0  1  0  0  0  0  0999 V2000
   23.8593  -20.8800  -10.2161 C   0  0  0  0  0  0  0  0  0  0  0  0
   25.2564  -21.1339   -9.6904 C   0  0  2  0  0  0  0  0  0  0  0  0
   25.3650  -20.9879   -8.2074 C   0  0  0  0  0  0  0  0  0  0  0  0
   26.1817  -20.1546  -10.4262 C   0  0  0  0  0  0  0  0  0  0  0  0
   26.0736  -20.5025  -11.8932 C   0  0  2  0  0  0  0  0  0  0  0  0
   26.6416  -21.8196  -12.0680 N   0  0  0  0  0  0  0  0  0  0  0  0
   26.7435  -19.5132  -12.7575 C   0  0  0  0  0  0  0  0  0  0  0  0
   27.6120  -18.7540  -12.2586 O   0  0  0  0  0  0  0  0  0  0  0  0
   26.3686  -19.9645  -16.8883 C   0  0  0  0  0  0  0  0  0  0  0  0
   27.5239  -19.2375  -16.2478 C   0  0  1  0  0  0  0  0  0  0  0  0
   28.2490  -18.3527  -17.2236 C   0  0  0  0  0  0  0  0  0  0  0  0
   27.0472  -18.4562  -15.0286 C   0  0  2  0  0  0  0  0  0  0  0  0
   26.4129  -19.4182  -14.1360 N   0  0  0  0  0  0  0  0  0  0  0  0
   26.0309  -17.4525  -15.3998 C   0  0  0  0  0  0  0  0  0  0  0  0
   24.8293  -17.7779  -15.6849 O   0  0  0  0  0  0  0  0  0  0  0  0
   25.7938  -13.7253  -15.3448 C   0  0  0  0  0  0  0  0  0  0  0  0
   25.2818  -15.0738  -15.8122 C   0  0  2  0  0  0  0  0  0  0  0  0
   26.3116  -16.0553  -15.4676 N   0  0  0  0  0  0  0  0  0  0  0  0
   25.0144  -15.0991  -17.2630 C   0  0  0  0  0  0  0  0  0  0  0  0
   23.7660  -14.7049  -17.7079 O   0  0  0  0  0  0  0  0  0  0  0  0
   25.8951  -15.4668  -18.0571 O   0  0  0  0  0  0  0  0  0  0  0  0
  2  1  1  6
  3  2  1  0
  4  5  1  0
  4  2  1  0
  5  7  1  0
  5  6  1  1
  7 13  1  0
  7  8  2  0
 10  9  1  6
 11 10  1  0
 12 10  1  0
 12 14  1  0
 12 13  1  1
 14 15  2  0
 17 16  1  6
 17 19  1  0
 18 17  1  0
 18 14  1  0
 19 21  2  0
 19 20  1  0
M  END
$$$$
