LVA.pdb
     RDKit          3D

 21 20  0  0  1  0  0  0  0  0999 V2000
   23.0899  -18.0279  -15.6256 C   0  0  0  0  0  0  0  0  0  0  0  0
   21.9787  -18.9586  -15.1880 C   0  0  2  0  0  0  0  0  0  0  0  0
   20.7127  -18.2450  -14.8409 C   0  0  0  0  0  0  0  0  0  0  0  0
   22.5252  -19.7568  -13.9960 C   0  0  0  0  0  0  0  0  0  0  0  0
   23.7811  -20.4366  -14.4913 C   0  0  2  0  0  0  0  0  0  0  0  0
   23.3764  -21.4754  -15.4106 N   0  0  0  0  0  0  0  0  0  0  0  0
   24.5959  -20.9850  -13.3913 C   0  0  0  0  0  0  0  0  0  0  0  0
   24.1449  -21.9441  -12.7157 O   0  0  0  0  0  0  0  0  0  0  0  0
   29.1232  -20.9973  -11.3513 C   0  0  0  0  0  0  0  0  0  0  0  0
   28.1716  -20.6931  -12.4806 C   0  0  1  0  0  0  0  0  0  0  0  0
   28.5323  -21.4297  -13.7408 C   0  0  0  0  0  0  0  0  0  0  0  0
   26.7360  -20.9788  -12.0546 C   0  0  2  0  0  0  0  0  0  0  0  0
   25.8737  -20.4378  -13.0977 N   0  0  0  0  0  0  0  0  0  0  0  0
   26.4035  -20.2855  -10.7948 C   0  0  0  0  0  0  0  0  0  0  0  0
   26.3853  -19.0115  -10.7066 O   0  0  0  0  0  0  0  0  0  0  0  0
   25.1836  -21.2389   -7.3910 C   0  0  0  0  0  0  0  0  0  0  0  0
   25.9108  -20.2822   -8.3156 C   0  0  2  0  0  0  0  0  0  0  0  0
   26.0802  -20.9799   -9.5912 N   0  0  0  0  0  0  0  0  0  0  0  0
   27.2219  -19.8715   -7.7778 C   0  0  0  0  0  0  0  0  0  0  0  0
   27.2810  -18.7424   -6.9819 O   0  0  0  0  0  0  0  0  0  0  0  0
   28.2415  -20.5299   -8.0391 O   0  0  0  0  0  0  0  0  0  0  0  0
  2  1  1  1
  3  2  1  0
  4  5  1  0
  4  2  1  0
  5  7  1  0
  5  6  1  6
  7 13  1  0
  7  8  2  0
 10  9  1  1
 11 10  1  0
 12 10  1  0
 12 14  1  0
 12 13  1  6
 14 15  2  0
 17 16  1  1
 17 19  1  0
 18 17  1  0
 18 14  1  0
 19 21  2  0
 19 20  1  0
M  END
$$$$
