LVA.pdb
     RDKit          3D

 21 20  0  0  1  0  0  0  0  0999 V2000
   22.3098  -21.9056  -11.0374 C   0  0  0  0  0  0  0  0  0  0  0  0
   22.2587  -20.8299   -9.9732 C   0  0  2  0  0  0  0  0  0  0  0  0
   20.8950  -20.2489   -9.7854 C   0  0  0  0  0  0  0  0  0  0  0  0
   23.2789  -19.7603  -10.3878 C   0  0  0  0  0  0  0  0  0  0  0  0
   24.5907  -20.4873  -10.5758 C   0  0  2  0  0  0  0  0  0  0  0  0
   25.1230  -20.7653   -9.2615 N   0  0  0  0  0  0  0  0  0  0  0  0
   25.5503  -19.7169  -11.3883 C   0  0  0  0  0  0  0  0  0  0  0  0
   26.1563  -18.7486  -10.8642 O   0  0  0  0  0  0  0  0  0  0  0  0
   26.6770  -21.4085  -15.0279 C   0  0  0  0  0  0  0  0  0  0  0  0
   27.6012  -20.5145  -14.2404 C   0  0  1  0  0  0  0  0  0  0  0  0
   28.7104  -19.9566  -15.0885 C   0  0  0  0  0  0  0  0  0  0  0  0
   26.8089  -19.4080  -13.5534 C   0  0  2  0  0  0  0  0  0  0  0  0
   25.7878  -20.0631  -12.7456 N   0  0  0  0  0  0  0  0  0  0  0  0
   26.1194  -18.5524  -14.5387 C   0  0  0  0  0  0  0  0  0  0  0  0
   25.1026  -18.9593  -15.1957 O   0  0  0  0  0  0  0  0  0  0  0  0
   26.3261  -14.9716  -15.6174 C   0  0  0  0  0  0  0  0  0  0  0  0
   25.8506  -16.3957  -15.8292 C   0  0  2  0  0  0  0  0  0  0  0  0
   26.5330  -17.2182  -14.8290 N   0  0  0  0  0  0  0  0  0  0  0  0
   26.1473  -16.8890  -17.1877 C   0  0  0  0  0  0  0  0  0  0  0  0
   25.2459  -16.6114  -18.1988 O   0  0  0  0  0  0  0  0  0  0  0  0
   27.1833  -17.5366  -17.4078 O   0  0  0  0  0  0  0  0  0  0  0  0
  2  1  1  6
  3  2  1  0
  4  5  1  0
  4  2  1  0
  5  7  1  0
  5  6  1  1
  7 13  1  0
  7  8  2  0
 10  9  1  6
 11 10  1  0
 12 10  1  0
 12 14  1  0
 12 13  1  1
 14 15  2  0
 17 16  1  6
 17 19  1  0
 18 17  1  0
 18 14  1  0
 19 21  2  0
 19 20  1  0
M  END
$$$$
