AQW.pdb
     RDKit          3D

 29 30  0  0  1  0  0  0  0  0999 V2000
    7.1004  -19.1151   19.1135 C   0  0  0  0  0  0  0  0  0  0  0  0
    7.6043  -18.9934   20.5107 C   0  0  2  0  0  0  0  0  0  0  0  0
    6.5783  -18.7985   21.5029 N   0  0  0  0  0  0  0  0  0  0  0  0
    8.5333  -17.8296   20.5809 C   0  0  0  0  0  0  0  0  0  0  0  0
    9.5786  -17.8902   19.8794 O   0  0  0  0  0  0  0  0  0  0  0  0
    9.0822  -12.6094   19.0788 N   0  0  0  0  0  0  0  0  0  0  0  0
    7.9538  -13.4181   18.8339 C   0  0  0  0  0  0  0  0  0  0  0  0
    7.3398  -13.3154   17.7583 O   0  0  0  0  0  0  0  0  0  0  0  0
    7.5161  -14.3771   19.8594 C   0  0  0  0  0  0  0  0  0  0  0  0
    8.4199  -14.2765   21.0401 C   0  0  0  0  0  0  0  0  0  0  0  0
    9.1497  -15.5640   21.3533 C   0  0  2  0  0  0  0  0  0  0  0  0
    8.2507  -16.6949   21.4077 N   0  0  0  0  0  0  0  0  0  0  0  0
    9.7609  -15.3829   22.6896 C   0  0  0  0  0  0  0  0  0  0  0  0
   10.6743  -14.5342   22.8154 O   0  0  0  0  0  0  0  0  0  0  0  0
    9.3129  -16.1586   23.7921 N   0  0  0  0  0  0  0  0  0  0  0  0
   10.1701  -16.2699   24.9451 C   0  0  1  0  0  0  0  0  0  0  0  0
    9.7895  -15.2821   26.0300 C   0  0  0  0  0  0  0  0  0  0  0  0
    8.3291  -15.0672   25.9466 C   0  0  0  0  0  0  0  0  0  0  0  0
    7.3345  -15.9857   25.7785 C   0  0  0  0  0  0  0  0  0  0  0  0
    6.1320  -15.3904   25.7507 N   0  0  0  0  0  0  0  0  0  0  0  0
    6.3230  -14.0729   25.9004 C   0  0  0  0  0  0  0  0  0  0  0  0
    5.4727  -12.9883   25.9494 C   0  0  0  0  0  0  0  0  0  0  0  0
    5.9301  -11.6913   26.1170 C   0  0  0  0  0  0  0  0  0  0  0  0
    7.2829  -11.4616   26.2408 C   0  0  0  0  0  0  0  0  0  0  0  0
    8.1383  -12.5455   26.1923 C   0  0  0  0  0  0  0  0  0  0  0  0
    7.7002  -13.8442   26.0259 C   0  0  0  0  0  0  0  0  0  0  0  0
   10.0518  -17.6695   25.4566 C   0  0  0  0  0  0  0  0  0  0  0  0
   10.8898  -18.1290   26.4571 O   0  0  0  0  0  0  0  0  0  0  0  0
    9.2009  -18.4821   25.0108 O   0  0  0  0  0  0  0  0  0  0  0  0
  2  1  1  6
  2  3  1  0
  4  2  1  0
  5  4  2  0
  7  9  1  0
  7  6  1  0
  8  7  2  0
 11 10  1  1
 10  9  1  0
 11 12  1  0
 12  4  1  0
 13 14  2  0
 13 11  1  0
 15 13  1  0
 16 15  1  0
 16 17  1  1
 18 26  1  0
 18 17  1  0
 19 18  2  0
 20 19  1  0
 20 21  1  0
 21 22  1  0
 21 26  2  0
 22 23  2  0
 23 24  1  0
 25 24  2  0
 26 25  1  0
 27 28  1  0
 27 16  1  0
 29 27  2  0
M  END
$$$$
