AQW.pdb
     RDKit          3D

 29 30  0  0  1  0  0  0  0  0999 V2000
    8.1996  -12.4288   20.4976 C   0  0  0  0  0  0  0  0  0  0  0  0
    8.0466  -13.7576   19.8403 C   0  0  2  0  0  0  0  0  0  0  0  0
    6.7487  -13.9940   19.2617 N   0  0  0  0  0  0  0  0  0  0  0  0
    8.2936  -14.8209   20.8555 C   0  0  0  0  0  0  0  0  0  0  0  0
    7.2817  -15.3217   21.4156 O   0  0  0  0  0  0  0  0  0  0  0  0
   12.2458  -19.0787   19.9461 N   0  0  0  0  0  0  0  0  0  0  0  0
   11.6993  -19.5857   21.1427 C   0  0  0  0  0  0  0  0  0  0  0  0
   11.8549  -20.7833   21.4362 O   0  0  0  0  0  0  0  0  0  0  0  0
   10.9487  -18.6864   22.0320 C   0  0  0  0  0  0  0  0  0  0  0  0
   10.9090  -17.3241   21.4290 C   0  0  0  0  0  0  0  0  0  0  0  0
    9.7783  -16.4654   21.9512 C   0  0  2  0  0  0  0  0  0  0  0  0
    9.6198  -15.2533   21.1794 N   0  0  0  0  0  0  0  0  0  0  0  0
   10.1405  -16.0970   23.3387 C   0  0  0  0  0  0  0  0  0  0  0  0
   11.1036  -15.3146   23.5138 O   0  0  0  0  0  0  0  0  0  0  0  0
    9.4059  -16.6250   24.4339 N   0  0  0  0  0  0  0  0  0  0  0  0
    9.7601  -16.2009   25.7648 C   0  0  1  0  0  0  0  0  0  0  0  0
    8.5865  -16.2955   26.7194 C   0  0  0  0  0  0  0  0  0  0  0  0
    7.4821  -15.4934   26.1511 C   0  0  0  0  0  0  0  0  0  0  0  0
    6.3915  -15.9121   25.4464 C   0  0  0  0  0  0  0  0  0  0  0  0
    5.6163  -14.8725   25.1006 N   0  0  0  0  0  0  0  0  0  0  0  0
    6.1893  -13.7581   25.5745 C   0  0  0  0  0  0  0  0  0  0  0  0
    5.8524  -12.4217   25.5271 C   0  0  0  0  0  0  0  0  0  0  0  0
    6.6324  -11.4367   26.1109 C   0  0  0  0  0  0  0  0  0  0  0  0
    7.7910  -11.7912   26.7668 C   0  0  0  0  0  0  0  0  0  0  0  0
    8.1322  -13.1291   26.8166 C   0  0  0  0  0  0  0  0  0  0  0  0
    7.3671  -14.1236   26.2407 C   0  0  0  0  0  0  0  0  0  0  0  0
   10.8769  -17.0783   26.2311 C   0  0  0  0  0  0  0  0  0  0  0  0
   11.5603  -16.7908   27.3994 O   0  0  0  0  0  0  0  0  0  0  0  0
   11.2428  -18.1011   25.5963 O   0  0  0  0  0  0  0  0  0  0  0  0
  2  1  1  1
  2  3  1  0
  4  2  1  0
  5  4  2  0
  7  9  1  0
  7  6  1  0
  8  7  2  0
 11 10  1  6
 10  9  1  0
 11 12  1  0
 12  4  1  0
 13 14  2  0
 13 11  1  0
 15 13  1  0
 16 15  1  0
 16 17  1  1
 18 26  1  0
 18 17  1  0
 19 18  2  0
 20 19  1  0
 20 21  1  0
 21 22  1  0
 21 26  2  0
 22 23  2  0
 23 24  1  0
 25 24  2  0
 26 25  1  0
 27 28  1  0
 27 16  1  0
 29 27  2  0
M  END
$$$$
