AQW.pdb
     RDKit          3D

 29 30  0  0  1  0  0  0  0  0999 V2000
    7.9945  -12.4688   20.2190 C   0  0  0  0  0  0  0  0  0  0  0  0
    7.9641  -13.8457   19.6493 C   0  0  2  0  0  0  0  0  0  0  0  0
    6.7264  -14.1993   19.0025 N   0  0  0  0  0  0  0  0  0  0  0  0
    8.1970  -14.8213   20.7522 C   0  0  0  0  0  0  0  0  0  0  0  0
    7.1783  -15.3603   21.2623 O   0  0  0  0  0  0  0  0  0  0  0  0
   12.8640  -18.6224   20.4821 N   0  0  0  0  0  0  0  0  0  0  0  0
   12.1723  -19.1898   21.5715 C   0  0  0  0  0  0  0  0  0  0  0  0
   12.5268  -20.2916   22.0243 O   0  0  0  0  0  0  0  0  0  0  0  0
   11.0349  -18.4671   22.1605 C   0  0  0  0  0  0  0  0  0  0  0  0
   10.8677  -17.1634   21.4580 C   0  0  0  0  0  0  0  0  0  0  0  0
    9.7116  -16.3397   21.9809 C   0  0  2  0  0  0  0  0  0  0  0  0
    9.5176  -15.1314   21.2110 N   0  0  0  0  0  0  0  0  0  0  0  0
   10.0619  -15.9630   23.3692 C   0  0  0  0  0  0  0  0  0  0  0  0
   10.9353  -15.0814   23.5436 O   0  0  0  0  0  0  0  0  0  0  0  0
    9.4160  -16.5936   24.4660 N   0  0  0  0  0  0  0  0  0  0  0  0
    9.8346  -16.2455   25.8003 C   0  0  1  0  0  0  0  0  0  0  0  0
    8.6943  -16.3425   26.7941 C   0  0  0  0  0  0  0  0  0  0  0  0
    7.6141  -15.4492   26.3237 C   0  0  0  0  0  0  0  0  0  0  0  0
    6.4677  -15.7664   25.6555 C   0  0  0  0  0  0  0  0  0  0  0  0
    5.7408  -14.6671   25.4022 N   0  0  0  0  0  0  0  0  0  0  0  0
    6.4018  -13.6142   25.9015 C   0  0  0  0  0  0  0  0  0  0  0  0
    6.1440  -12.2600   25.9383 C   0  0  0  0  0  0  0  0  0  0  0  0
    7.0090  -11.3539   26.5302 C   0  0  0  0  0  0  0  0  0  0  0  0
    8.1743  -11.8088   27.1076 C   0  0  0  0  0  0  0  0  0  0  0  0
    8.4364  -13.1648   27.0728 C   0  0  0  0  0  0  0  0  0  0  0  0
    7.5861  -14.0817   26.4876 C   0  0  0  0  0  0  0  0  0  0  0  0
   10.9339  -17.1835   26.1827 C   0  0  0  0  0  0  0  0  0  0  0  0
   11.6494  -16.9939   27.3518 O   0  0  0  0  0  0  0  0  0  0  0  0
   11.2559  -18.1719   25.4740 O   0  0  0  0  0  0  0  0  0  0  0  0
  2  1  1  1
  2  3  1  0
  4  2  1  0
  5  4  2  0
  7  9  1  0
  7  6  1  0
  8  7  2  0
 11 10  1  6
 10  9  1  0
 11 12  1  0
 12  4  1  0
 13 14  2  0
 13 11  1  0
 15 13  1  0
 16 15  1  0
 16 17  1  1
 18 26  1  0
 18 17  1  0
 19 18  2  0
 20 19  1  0
 20 21  1  0
 21 22  1  0
 21 26  2  0
 22 23  2  0
 23 24  1  0
 25 24  2  0
 26 25  1  0
 27 28  1  0
 27 16  1  0
 29 27  2  0
M  END
$$$$
