AQW.pdb
     RDKit          3D

 29 30  0  0  1  0  0  0  0  0999 V2000
    8.1328  -12.2891   19.6745 C   0  0  0  0  0  0  0  0  0  0  0  0
    8.5284  -13.5932   19.0710 C   0  0  2  0  0  0  0  0  0  0  0  0
    7.7907  -13.9540   17.8873 N   0  0  0  0  0  0  0  0  0  0  0  0
    8.3199  -14.6676   20.0832 C   0  0  0  0  0  0  0  0  0  0  0  0
    7.2754  -15.3637   19.9701 O   0  0  0  0  0  0  0  0  0  0  0  0
   10.9540  -19.1887   19.8043 N   0  0  0  0  0  0  0  0  0  0  0  0
   11.7924  -18.1522   20.2625 C   0  0  0  0  0  0  0  0  0  0  0  0
   13.0264  -18.2674   20.1709 O   0  0  0  0  0  0  0  0  0  0  0  0
   11.1927  -16.9425   20.8456 C   0  0  0  0  0  0  0  0  0  0  0  0
    9.8348  -17.2715   21.3641 C   0  0  0  0  0  0  0  0  0  0  0  0
    9.1080  -16.0816   21.9510 C   0  0  2  0  0  0  0  0  0  0  0  0
    9.2633  -14.8979   21.1356 N   0  0  0  0  0  0  0  0  0  0  0  0
    9.7234  -15.8274   23.2733 C   0  0  0  0  0  0  0  0  0  0  0  0
   10.6911  -15.0336   23.3359 O   0  0  0  0  0  0  0  0  0  0  0  0
    9.2191  -16.4742   24.4332 N   0  0  0  0  0  0  0  0  0  0  0  0
    9.8092  -16.1531   25.7081 C   0  0  1  0  0  0  0  0  0  0  0  0
    8.7838  -16.1630   26.8243 C   0  0  0  0  0  0  0  0  0  0  0  0
    7.6462  -15.3225   26.3938 C   0  0  0  0  0  0  0  0  0  0  0  0
    6.4611  -15.7027   25.8349 C   0  0  0  0  0  0  0  0  0  0  0  0
    5.6865  -14.6363   25.5820 N   0  0  0  0  0  0  0  0  0  0  0  0
    6.3543  -13.5425   25.9722 C   0  0  0  0  0  0  0  0  0  0  0  0
    6.0625  -12.1947   25.9581 C   0  0  0  0  0  0  0  0  0  0  0  0
    6.9448  -11.2375   26.4321 C   0  0  0  0  0  0  0  0  0  0  0  0
    8.1633  -11.6326   26.9395 C   0  0  0  0  0  0  0  0  0  0  0  0
    8.4596  -12.9819   26.9555 C   0  0  0  0  0  0  0  0  0  0  0  0
    7.5928  -13.9492   26.4874 C   0  0  0  0  0  0  0  0  0  0  0  0
   10.8738  -17.1677   25.9760 C   0  0  0  0  0  0  0  0  0  0  0  0
   11.7473  -17.0114   27.0377 O   0  0  0  0  0  0  0  0  0  0  0  0
   11.0244  -18.1934   25.2631 O   0  0  0  0  0  0  0  0  0  0  0  0
  2  1  1  1
  2  3  1  0
  4  2  1  0
  5  4  2  0
  7  9  1  0
  7  6  1  0
  8  7  2  0
 11 10  1  6
 10  9  1  0
 11 12  1  0
 12  4  1  0
 13 14  2  0
 13 11  1  0
 15 13  1  0
 16 15  1  0
 16 17  1  1
 18 26  1  0
 18 17  1  0
 19 18  2  0
 20 19  1  0
 20 21  1  0
 21 22  1  0
 21 26  2  0
 22 23  2  0
 23 24  1  0
 25 24  2  0
 26 25  1  0
 27 28  1  0
 27 16  1  0
 29 27  2  0
M  END
$$$$
