AQW.pdb
     RDKit          3D

 29 30  0  0  1  0  0  0  0  0999 V2000
    6.5560  -18.2266   19.1218 C   0  0  0  0  0  0  0  0  0  0  0  0
    7.3984  -17.0745   19.5509 C   0  0  2  0  0  0  0  0  0  0  0  0
    8.4584  -16.7340   18.6367 N   0  0  0  0  0  0  0  0  0  0  0  0
    8.0187  -17.4035   20.8660 C   0  0  0  0  0  0  0  0  0  0  0  0
    7.2374  -17.7224   21.8021 O   0  0  0  0  0  0  0  0  0  0  0  0
   13.6911  -19.0154   19.7255 N   0  0  0  0  0  0  0  0  0  0  0  0
   13.4805  -18.4322   20.9915 C   0  0  0  0  0  0  0  0  0  0  0  0
   14.3343  -18.5655   21.8847 O   0  0  0  0  0  0  0  0  0  0  0  0
   12.2474  -17.6702   21.2397 C   0  0  0  0  0  0  0  0  0  0  0  0
   11.3481  -18.4690   22.1196 C   0  0  0  0  0  0  0  0  0  0  0  0
    9.9790  -17.8520   22.3031 C   0  0  2  0  0  0  0  0  0  0  0  0
    9.4373  -17.3592   21.0566 N   0  0  0  0  0  0  0  0  0  0  0  0
   10.1573  -16.7074   23.2251 C   0  0  0  0  0  0  0  0  0  0  0  0
    9.9919  -15.5498   22.7745 O   0  0  0  0  0  0  0  0  0  0  0  0
   10.5071  -16.9310   24.5836 N   0  0  0  0  0  0  0  0  0  0  0  0
    9.8279  -16.1688   25.6005 C   0  0  1  0  0  0  0  0  0  0  0  0
    8.3305  -16.4032   25.5773 C   0  0  0  0  0  0  0  0  0  0  0  0
    7.6941  -15.1771   25.0506 C   0  0  0  0  0  0  0  0  0  0  0  0
    7.2145  -14.9292   23.7976 C   0  0  0  0  0  0  0  0  0  0  0  0
    6.7111  -13.6879   23.7141 N   0  0  0  0  0  0  0  0  0  0  0  0
    6.8543  -13.1057   24.9121 C   0  0  0  0  0  0  0  0  0  0  0  0
    6.5277  -11.8618   25.4099 C   0  0  0  0  0  0  0  0  0  0  0  0
    6.7872  -11.4932   26.7200 C   0  0  0  0  0  0  0  0  0  0  0  0
    7.3938  -12.3932   27.5686 C   0  0  0  0  0  0  0  0  0  0  0  0
    7.7226  -13.6405   27.0739 C   0  0  0  0  0  0  0  0  0  0  0  0
    7.4716  -14.0247   25.7717 C   0  0  0  0  0  0  0  0  0  0  0  0
   10.3945  -16.5807   26.9210 C   0  0  0  0  0  0  0  0  0  0  0  0
   11.2408  -17.6712   27.0173 O   0  0  0  0  0  0  0  0  0  0  0  0
   10.1347  -15.9677   27.9886 O   0  0  0  0  0  0  0  0  0  0  0  0
  2  1  1  6
  2  3  1  0
  4  2  1  0
  5  4  2  0
  7  9  1  0
  7  6  1  0
  8  7  2  0
 11 10  1  6
 10  9  1  0
 11 12  1  0
 12  4  1  0
 13 14  2  0
 13 11  1  0
 15 13  1  0
 16 15  1  0
 16 17  1  1
 18 26  1  0
 18 17  1  0
 19 18  2  0
 20 19  1  0
 20 21  1  0
 21 22  1  0
 21 26  2  0
 22 23  2  0
 23 24  1  0
 25 24  2  0
 26 25  1  0
 27 28  1  0
 27 16  1  0
 29 27  2  0
M  END
$$$$
