AQW.pdb
     RDKit          3D

 29 30  0  0  1  0  0  0  0  0999 V2000
    7.6542  -20.1450   19.7377 C   0  0  0  0  0  0  0  0  0  0  0  0
    7.9458  -19.7007   21.1301 C   0  0  2  0  0  0  0  0  0  0  0  0
    6.7880  -19.5978   21.9811 N   0  0  0  0  0  0  0  0  0  0  0  0
    8.5916  -18.3582   21.0748 C   0  0  0  0  0  0  0  0  0  0  0  0
    9.7136  -18.2873   20.5052 O   0  0  0  0  0  0  0  0  0  0  0  0
    6.9458  -13.3816   18.6979 N   0  0  0  0  0  0  0  0  0  0  0  0
    8.1361  -13.2795   19.4463 C   0  0  0  0  0  0  0  0  0  0  0  0
    9.2066  -13.0127   18.8741 O   0  0  0  0  0  0  0  0  0  0  0  0
    8.0951  -13.4912   20.9011 C   0  0  0  0  0  0  0  0  0  0  0  0
    7.5177  -14.8358   21.1832 C   0  0  0  0  0  0  0  0  0  0  0  0
    8.5624  -15.9082   21.4001 C   0  0  2  0  0  0  0  0  0  0  0  0
    7.9656  -17.2023   21.6431 N   0  0  0  0  0  0  0  0  0  0  0  0
    9.3274  -15.5083   22.6030 C   0  0  0  0  0  0  0  0  0  0  0  0
   10.0096  -14.4584   22.5518 O   0  0  0  0  0  0  0  0  0  0  0  0
    9.2796  -16.3046   23.7784 N   0  0  0  0  0  0  0  0  0  0  0  0
   10.0448  -15.8820   24.9240 C   0  0  1  0  0  0  0  0  0  0  0  0
    9.2603  -16.0271   26.2128 C   0  0  0  0  0  0  0  0  0  0  0  0
    7.9541  -15.3624   26.0183 C   0  0  0  0  0  0  0  0  0  0  0  0
    6.7490  -15.9153   25.6965 C   0  0  0  0  0  0  0  0  0  0  0  0
    5.7976  -14.9728   25.6078 N   0  0  0  0  0  0  0  0  0  0  0  0
    6.3672  -13.7891   25.8705 C   0  0  0  0  0  0  0  0  0  0  0  0
    5.8911  -12.4959   25.9249 C   0  0  0  0  0  0  0  0  0  0  0  0
    6.7045  -11.4158   26.2272 C   0  0  0  0  0  0  0  0  0  0  0  0
    8.0413  -11.6268   26.4853 C   0  0  0  0  0  0  0  0  0  0  0  0
    8.5223  -12.9208   26.4318 C   0  0  0  0  0  0  0  0  0  0  0  0
    7.7266  -14.0086   26.1324 C   0  0  0  0  0  0  0  0  0  0  0  0
   11.2785  -16.7246   24.9729 C   0  0  0  0  0  0  0  0  0  0  0  0
   11.4956  -17.7145   24.0308 O   0  0  0  0  0  0  0  0  0  0  0  0
   12.1626  -16.5776   25.8560 O   0  0  0  0  0  0  0  0  0  0  0  0
  2  1  1  6
  2  3  1  0
  4  2  1  0
  5  4  2  0
  7  9  1  0
  7  6  1  0
  8  7  2  0
 11 10  1  1
 10  9  1  0
 11 12  1  0
 12  4  1  0
 13 14  2  0
 13 11  1  0
 15 13  1  0
 16 15  1  0
 16 17  1  1
 18 26  1  0
 18 17  1  0
 19 18  2  0
 20 19  1  0
 20 21  1  0
 21 22  1  0
 21 26  2  0
 22 23  2  0
 23 24  1  0
 25 24  2  0
 26 25  1  0
 27 28  1  0
 27 16  1  0
 29 27  2  0
M  END
$$$$
