AQW.pdb
     RDKit          3D

 29 30  0  0  1  0  0  0  0  0999 V2000
    7.9147  -12.5143   20.0485 C   0  0  0  0  0  0  0  0  0  0  0  0
    8.2333  -13.8018   19.3687 C   0  0  2  0  0  0  0  0  0  0  0  0
    7.3298  -14.1570   18.3043 N   0  0  0  0  0  0  0  0  0  0  0  0
    8.1970  -14.8952   20.3814 C   0  0  0  0  0  0  0  0  0  0  0  0
    7.5620  -15.9391   20.0721 O   0  0  0  0  0  0  0  0  0  0  0  0
   11.7410  -19.4330   20.3476 N   0  0  0  0  0  0  0  0  0  0  0  0
   12.0606  -18.4010   21.2532 C   0  0  0  0  0  0  0  0  0  0  0  0
   13.2248  -17.9705   21.3161 O   0  0  0  0  0  0  0  0  0  0  0  0
   11.0072  -17.8447   22.1156 C   0  0  0  0  0  0  0  0  0  0  0  0
   10.4659  -16.6057   21.4887 C   0  0  0  0  0  0  0  0  0  0  0  0
    9.3549  -15.9606   22.2875 C   0  0  2  0  0  0  0  0  0  0  0  0
    8.8535  -14.7653   21.6474 N   0  0  0  0  0  0  0  0  0  0  0  0
    9.9436  -15.5849   23.5930 C   0  0  0  0  0  0  0  0  0  0  0  0
   10.1676  -14.3725   23.8172 O   0  0  0  0  0  0  0  0  0  0  0  0
   10.2417  -16.5844   24.5574 N   0  0  0  0  0  0  0  0  0  0  0  0
    9.6517  -16.4706   25.8672 C   0  0  1  0  0  0  0  0  0  0  0  0
    8.2245  -16.9805   25.8907 C   0  0  0  0  0  0  0  0  0  0  0  0
    7.3320  -15.8215   25.6764 C   0  0  0  0  0  0  0  0  0  0  0  0
    6.1875  -15.7443   24.9379 C   0  0  0  0  0  0  0  0  0  0  0  0
    5.6647  -14.5094   24.9917 N   0  0  0  0  0  0  0  0  0  0  0  0
    6.4604  -13.7606   25.7668 C   0  0  0  0  0  0  0  0  0  0  0  0
    6.4254  -12.4433   26.1735 C   0  0  0  0  0  0  0  0  0  0  0  0
    7.3930  -11.8936   26.9988 C   0  0  0  0  0  0  0  0  0  0  0  0
    8.4350  -12.6809   27.4374 C   0  0  0  0  0  0  0  0  0  0  0  0
    8.4738  -14.0012   27.0323 C   0  0  0  0  0  0  0  0  0  0  0  0
    7.5186  -14.5655   26.2105 C   0  0  0  0  0  0  0  0  0  0  0  0
   10.4989  -17.2636   26.8094 C   0  0  0  0  0  0  0  0  0  0  0  0
   10.4404  -17.0372   28.1732 O   0  0  0  0  0  0  0  0  0  0  0  0
   11.2911  -18.1584   26.4159 O   0  0  0  0  0  0  0  0  0  0  0  0
  2  1  1  1
  2  3  1  0
  4  2  1  0
  5  4  2  0
  7  9  1  0
  7  6  1  0
  8  7  2  0
 11 10  1  6
 10  9  1  0
 11 12  1  0
 12  4  1  0
 13 14  2  0
 13 11  1  0
 15 13  1  0
 16 15  1  0
 16 17  1  6
 18 26  1  0
 18 17  1  0
 19 18  2  0
 20 19  1  0
 20 21  1  0
 21 22  1  0
 21 26  2  0
 22 23  2  0
 23 24  1  0
 25 24  2  0
 26 25  1  0
 27 28  1  0
 27 16  1  0
 29 27  2  0
M  END
$$$$
