AQW.pdb
     RDKit          3D

 29 30  0  0  1  0  0  0  0  0999 V2000
    7.1210  -18.8039   18.9673 C   0  0  0  0  0  0  0  0  0  0  0  0
    7.6934  -18.8524   20.3425 C   0  0  2  0  0  0  0  0  0  0  0  0
    6.7146  -18.8454   21.3995 N   0  0  0  0  0  0  0  0  0  0  0  0
    8.5767  -17.6665   20.5314 C   0  0  0  0  0  0  0  0  0  0  0  0
    9.6901  -17.6839   19.9410 O   0  0  0  0  0  0  0  0  0  0  0  0
    8.4980  -12.4653   18.6180 N   0  0  0  0  0  0  0  0  0  0  0  0
    8.0310  -13.7937   18.6846 C   0  0  0  0  0  0  0  0  0  0  0  0
    8.2199  -14.5654   17.7289 O   0  0  0  0  0  0  0  0  0  0  0  0
    7.3229  -14.2509   19.8898 C   0  0  0  0  0  0  0  0  0  0  0  0
    8.2284  -14.1230   21.0666 C   0  0  0  0  0  0  0  0  0  0  0  0
    9.0161  -15.3803   21.3619 C   0  0  2  0  0  0  0  0  0  0  0  0
    8.1784  -16.5585   21.3465 N   0  0  0  0  0  0  0  0  0  0  0  0
    9.5716  -15.2145   22.7241 C   0  0  0  0  0  0  0  0  0  0  0  0
   10.2519  -14.1907   22.9682 O   0  0  0  0  0  0  0  0  0  0  0  0
    9.3314  -16.1993   23.7193 N   0  0  0  0  0  0  0  0  0  0  0  0
    9.9843  -16.0569   24.9961 C   0  0  1  0  0  0  0  0  0  0  0  0
    9.0535  -16.3840   26.1467 C   0  0  0  0  0  0  0  0  0  0  0  0
    7.8278  -15.5756   25.9740 C   0  0  0  0  0  0  0  0  0  0  0  0
    6.5819  -15.9768   25.5892 C   0  0  0  0  0  0  0  0  0  0  0  0
    5.7345  -14.9369   25.5490 N   0  0  0  0  0  0  0  0  0  0  0  0
    6.4145  -13.8397   25.9072 C   0  0  0  0  0  0  0  0  0  0  0  0
    6.0715  -12.5110   26.0445 C   0  0  0  0  0  0  0  0  0  0  0  0
    6.9822  -11.5446   26.4397 C   0  0  0  0  0  0  0  0  0  0  0  0
    8.2829  -11.9104   26.7090 C   0  0  0  0  0  0  0  0  0  0  0  0
    8.6307  -13.2405   26.5727 C   0  0  0  0  0  0  0  0  0  0  0  0
    7.7367  -14.2166   26.1801 C   0  0  0  0  0  0  0  0  0  0  0  0
   11.1587  -16.9817   25.0030 C   0  0  0  0  0  0  0  0  0  0  0  0
   11.4094  -17.8132   23.9258 O   0  0  0  0  0  0  0  0  0  0  0  0
   11.9609  -17.0479   25.9700 O   0  0  0  0  0  0  0  0  0  0  0  0
  2  1  1  6
  2  3  1  0
  4  2  1  0
  5  4  2  0
  7  9  1  0
  7  6  1  0
  8  7  2  0
 11 10  1  1
 10  9  1  0
 11 12  1  0
 12  4  1  0
 13 14  2  0
 13 11  1  0
 15 13  1  0
 16 15  1  0
 16 17  1  1
 18 26  1  0
 18 17  1  0
 19 18  2  0
 20 19  1  0
 20 21  1  0
 21 22  1  0
 21 26  2  0
 22 23  2  0
 23 24  1  0
 25 24  2  0
 26 25  1  0
 27 28  1  0
 27 16  1  0
 29 27  2  0
M  END
$$$$
