AQW.pdb
     RDKit          3D

 29 30  0  0  1  0  0  0  0  0999 V2000
    8.5545  -12.2159   19.5852 C   0  0  0  0  0  0  0  0  0  0  0  0
    8.6019  -13.5312   18.8861 C   0  0  2  0  0  0  0  0  0  0  0  0
    7.6859  -13.6559   17.7812 N   0  0  0  0  0  0  0  0  0  0  0  0
    8.2784  -14.6038   19.8696 C   0  0  0  0  0  0  0  0  0  0  0  0
    7.3141  -15.3649   19.5879 O   0  0  0  0  0  0  0  0  0  0  0  0
   11.3365  -18.6165   19.0982 N   0  0  0  0  0  0  0  0  0  0  0  0
   10.7834  -19.2213   20.2452 C   0  0  0  0  0  0  0  0  0  0  0  0
   10.8585  -20.4529   20.3935 O   0  0  0  0  0  0  0  0  0  0  0  0
   10.1217  -18.3826   21.2560 C   0  0  0  0  0  0  0  0  0  0  0  0
    9.8982  -17.0216   20.6915 C   0  0  0  0  0  0  0  0  0  0  0  0
    9.1677  -16.0898   21.6332 C   0  0  2  0  0  0  0  0  0  0  0  0
    9.0288  -14.7618   21.0790 N   0  0  0  0  0  0  0  0  0  0  0  0
    9.9926  -16.0051   22.8596 C   0  0  0  0  0  0  0  0  0  0  0  0
   11.2092  -15.7293   22.7399 O   0  0  0  0  0  0  0  0  0  0  0  0
    9.4062  -16.2331   24.1333 N   0  0  0  0  0  0  0  0  0  0  0  0
   10.2480  -16.1506   25.3000 C   0  0  1  0  0  0  0  0  0  0  0  0
    9.9079  -14.9488   26.1587 C   0  0  0  0  0  0  0  0  0  0  0  0
    8.4393  -14.7805   26.1307 C   0  0  0  0  0  0  0  0  0  0  0  0
    7.4692  -15.7286   25.9839 C   0  0  0  0  0  0  0  0  0  0  0  0
    6.2480  -15.1725   26.0082 N   0  0  0  0  0  0  0  0  0  0  0  0
    6.4019  -13.8517   26.1713 C   0  0  0  0  0  0  0  0  0  0  0  0
    5.5195  -12.7963   26.2672 C   0  0  0  0  0  0  0  0  0  0  0  0
    5.9408  -11.4876   26.4385 C   0  0  0  0  0  0  0  0  0  0  0  0
    7.2891  -11.2156   26.5176 C   0  0  0  0  0  0  0  0  0  0  0  0
    8.1765  -12.2702   26.4219 C   0  0  0  0  0  0  0  0  0  0  0  0
    7.7746  -13.5799   26.2512 C   0  0  0  0  0  0  0  0  0  0  0  0
   10.0572  -17.4122   26.0788 C   0  0  0  0  0  0  0  0  0  0  0  0
    9.1947  -18.3963   25.6291 O   0  0  0  0  0  0  0  0  0  0  0  0
   10.6601  -17.6364   27.1601 O   0  0  0  0  0  0  0  0  0  0  0  0
  2  1  1  1
  2  3  1  0
  4  2  1  0
  5  4  2  0
  7  9  1  0
  7  6  1  0
  8  7  2  0
 11 10  1  6
 10  9  1  0
 11 12  1  0
 12  4  1  0
 13 14  2  0
 13 11  1  0
 15 13  1  0
 16 15  1  0
 16 17  1  1
 18 26  1  0
 18 17  1  0
 19 18  2  0
 20 19  1  0
 20 21  1  0
 21 22  1  0
 21 26  2  0
 22 23  2  0
 23 24  1  0
 25 24  2  0
 26 25  1  0
 27 28  1  0
 27 16  1  0
 29 27  2  0
M  END
$$$$
