AQW.pdb
     RDKit          3D

 29 30  0  0  1  0  0  0  0  0999 V2000
    9.1145  -19.2896   17.4417 C   0  0  0  0  0  0  0  0  0  0  0  0
    9.8462  -18.1490   18.0620 C   0  0  2  0  0  0  0  0  0  0  0  0
   11.2271  -18.4196   18.3704 N   0  0  0  0  0  0  0  0  0  0  0  0
    9.1595  -17.7789   19.3324 C   0  0  0  0  0  0  0  0  0  0  0  0
    7.9673  -17.3801   19.2420 O   0  0  0  0  0  0  0  0  0  0  0  0
    6.8648  -20.8203   23.1452 N   0  0  0  0  0  0  0  0  0  0  0  0
    6.6652  -19.6200   23.8572 C   0  0  0  0  0  0  0  0  0  0  0  0
    5.8676  -19.5901   24.8097 O   0  0  0  0  0  0  0  0  0  0  0  0
    7.4071  -18.4134   23.4613 C   0  0  0  0  0  0  0  0  0  0  0  0
    8.2382  -18.7218   22.2633 C   0  0  0  0  0  0  0  0  0  0  0  0
    9.0756  -17.5532   21.7924 C   0  0  2  0  0  0  0  0  0  0  0  0
    9.8242  -17.8722   20.5974 N   0  0  0  0  0  0  0  0  0  0  0  0
   10.0321  -17.2588   22.8834 C   0  0  0  0  0  0  0  0  0  0  0  0
   10.6292  -18.2180   23.4255 O   0  0  0  0  0  0  0  0  0  0  0  0
   10.2570  -15.9179   23.2949 N   0  0  0  0  0  0  0  0  0  0  0  0
    9.4012  -15.3603   24.3115 C   0  0  1  0  0  0  0  0  0  0  0  0
    7.9459  -15.3602   23.8878 C   0  0  0  0  0  0  0  0  0  0  0  0
    7.1746  -14.6613   24.9378 C   0  0  0  0  0  0  0  0  0  0  0  0
    6.2832  -15.1751   25.8338 C   0  0  0  0  0  0  0  0  0  0  0  0
    5.7895  -14.2106   26.6256 N   0  0  0  0  0  0  0  0  0  0  0  0
    6.3514  -13.0511   26.2587 C   0  0  0  0  0  0  0  0  0  0  0  0
    6.2297  -11.7521   26.7056 C   0  0  0  0  0  0  0  0  0  0  0  0
    6.9393  -10.7028   26.1444 C   0  0  0  0  0  0  0  0  0  0  0  0
    7.8026  -10.9518   25.0999 C   0  0  0  0  0  0  0  0  0  0  0  0
    7.9274  -12.2518   24.6492 C   0  0  0  0  0  0  0  0  0  0  0  0
    7.2285  -13.3093   25.1963 C   0  0  0  0  0  0  0  0  0  0  0  0
    9.5793  -16.1835   25.5465 C   0  0  0  0  0  0  0  0  0  0  0  0
    9.7499  -15.5793   26.7795 O   0  0  0  0  0  0  0  0  0  0  0  0
    9.5827  -17.4415   25.5253 O   0  0  0  0  0  0  0  0  0  0  0  0
  2  1  1  1
  2  3  1  0
  4  2  1  0
  5  4  2  0
  7  9  1  0
  7  6  1  0
  8  7  2  0
 11 10  1  1
 10  9  1  0
 11 12  1  0
 12  4  1  0
 13 14  2  0
 13 11  1  0
 15 13  1  0
 16 15  1  0
 16 17  1  6
 18 26  1  0
 18 17  1  0
 19 18  2  0
 20 19  1  0
 20 21  1  0
 21 22  1  0
 21 26  2  0
 22 23  2  0
 23 24  1  0
 25 24  2  0
 26 25  1  0
 27 28  1  0
 27 16  1  0
 29 27  2  0
M  END
$$$$
