DYP.pdb
     RDKit          3D

 28 29  0  0  1  0  0  0  0  0999 V2000
   28.9267  -19.8184  -19.3113 N   0  0  0  0  0  0  0  0  0  0  0  0
   27.9577  -19.1059  -18.5442 C   0  0  1  0  0  0  0  0  0  0  0  0
   26.7299  -18.7355  -19.3059 C   0  0  0  0  0  0  0  0  0  0  0  0
   26.9446  -17.8565  -20.4623 C   0  0  0  0  0  0  0  0  0  0  0  0
   26.3355  -18.0519  -21.5426 O   0  0  0  0  0  0  0  0  0  0  0  0
   27.5735  -19.7650  -17.2779 C   0  0  0  0  0  0  0  0  0  0  0  0
   27.3372  -21.0005  -17.2763 O   0  0  0  0  0  0  0  0  0  0  0  0
   27.8272  -16.7933  -20.3739 O   0  0  0  0  0  0  0  0  0  0  0  0
   25.4252  -21.5237   -8.9451 O   0  0  0  0  0  0  0  0  0  0  0  0
   25.9039  -20.8977  -10.0922 C   0  0  0  0  0  0  0  0  0  0  0  0
   25.2404  -19.8103  -10.6078 C   0  0  0  0  0  0  0  0  0  0  0  0
   25.7221  -19.1858  -11.7565 C   0  0  0  0  0  0  0  0  0  0  0  0
   26.8507  -19.6513  -12.3706 C   0  0  0  0  0  0  0  0  0  0  0  0
   27.3571  -18.9910  -13.5840 C   0  0  0  0  0  0  0  0  0  0  0  0
   26.9125  -19.7486  -14.8565 C   0  0  2  0  0  0  0  0  0  0  0  0
   27.4439  -19.0975  -16.0223 N   0  0  0  0  0  0  0  0  0  0  0  0
   25.4755  -19.9972  -14.8234 C   0  0  0  0  0  0  0  0  0  0  0  0
   24.7129  -18.9588  -14.9350 O   0  0  0  0  0  0  0  0  0  0  0  0
   27.5078  -20.7354  -11.8525 C   0  0  0  0  0  0  0  0  0  0  0  0
   27.0358  -21.3721  -10.6998 C   0  0  0  0  0  0  0  0  0  0  0  0
   24.7853  -21.2219  -14.6869 N   0  0  0  0  0  0  0  0  0  0  0  0
   25.3784  -22.5132  -14.5304 C   0  0  0  0  0  0  0  0  0  0  0  0
   24.3981  -23.2402  -13.5968 C   0  0  0  0  0  0  0  0  0  0  0  0
   23.0917  -22.8312  -14.2886 C   0  0  0  0  0  0  0  0  0  0  0  0
   23.3351  -21.3969  -14.6721 C   0  0  1  0  0  0  0  0  0  0  0  0
   22.7021  -20.5605  -13.6237 C   0  0  0  0  0  0  0  0  0  0  0  0
   21.4576  -20.4003  -13.7017 O   0  0  0  0  0  0  0  0  0  0  0  0
   23.3711  -19.9599  -12.5921 O   0  0  0  0  0  0  0  0  0  0  0  0
  2  1  1  6
  2  3  1  0
  3  4  1  0
  4  8  1  0
  5  4  2  0
  6  2  1  0
  7  6  2  0
  9 10  1  0
 10 11  2  0
 10 20  1  0
 11 12  1  0
 12 13  2  0
 13 14  1  0
 15 14  1  1
 15 16  1  0
 15 17  1  0
 16  6  1  0
 17 18  2  0
 19 13  1  0
 20 19  2  0
 21 17  1  0
 21 25  1  0
 22 23  1  0
 22 21  1  0
 23 24  1  0
 24 25  1  0
 25 26  1  1
 26 28  1  0
 27 26  2  0
M  END
$$$$
