DYP.pdb
     RDKit          3D

 28 29  0  0  1  0  0  0  0  0999 V2000
   21.7117  -15.8455  -18.0751 N   0  0  0  0  0  0  0  0  0  0  0  0
   22.5685  -16.9644  -18.2974 C   0  0  1  0  0  0  0  0  0  0  0  0
   23.5554  -16.7669  -19.3983 C   0  0  0  0  0  0  0  0  0  0  0  0
   23.1209  -17.2204  -20.7256 C   0  0  0  0  0  0  0  0  0  0  0  0
   21.9602  -17.6628  -20.9077 O   0  0  0  0  0  0  0  0  0  0  0  0
   23.2672  -17.4508  -17.0889 C   0  0  0  0  0  0  0  0  0  0  0  0
   24.0094  -16.6615  -16.4498 O   0  0  0  0  0  0  0  0  0  0  0  0
   23.9924  -17.1640  -21.8000 O   0  0  0  0  0  0  0  0  0  0  0  0
   25.5400  -21.3611   -9.6670 O   0  0  0  0  0  0  0  0  0  0  0  0
   24.9079  -21.0430  -10.8653 C   0  0  0  0  0  0  0  0  0  0  0  0
   24.0082  -20.0053  -10.9119 C   0  0  0  0  0  0  0  0  0  0  0  0
   23.3769  -19.6894  -12.1133 C   0  0  0  0  0  0  0  0  0  0  0  0
   23.6497  -20.4079  -13.2434 C   0  0  0  0  0  0  0  0  0  0  0  0
   22.9813  -20.0732  -14.5106 C   0  0  0  0  0  0  0  0  0  0  0  0
   23.8944  -19.2080  -15.4098 C   0  0  2  0  0  0  0  0  0  0  0  0
   23.1677  -18.7785  -16.5729 N   0  0  0  0  0  0  0  0  0  0  0  0
   25.1732  -19.8753  -15.6264 C   0  0  0  0  0  0  0  0  0  0  0  0
   25.1418  -20.9545  -16.3381 O   0  0  0  0  0  0  0  0  0  0  0  0
   24.5471  -21.4410  -13.1911 C   0  0  0  0  0  0  0  0  0  0  0  0
   25.1886  -21.7692  -11.9921 C   0  0  0  0  0  0  0  0  0  0  0  0
   26.4584  -19.5104  -15.1679 N   0  0  0  0  0  0  0  0  0  0  0  0
   26.7613  -18.4517  -14.2561 C   0  0  0  0  0  0  0  0  0  0  0  0
   27.9517  -19.0047  -13.4572 C   0  0  0  0  0  0  0  0  0  0  0  0
   28.7667  -19.5585  -14.6327 C   0  0  0  0  0  0  0  0  0  0  0  0
   27.7184  -20.1524  -15.5339 C   0  0  1  0  0  0  0  0  0  0  0  0
   27.6844  -21.6075  -15.2495 C   0  0  0  0  0  0  0  0  0  0  0  0
   26.6858  -22.0381  -14.6187 O   0  0  0  0  0  0  0  0  0  0  0  0
   28.6523  -22.5003  -15.6216 O   0  0  0  0  0  0  0  0  0  0  0  0
  2  1  1  1
  2  3  1  0
  3  4  1  0
  4  8  1  0
  5  4  2  0
  6  2  1  0
  7  6  2  0
  9 10  1  0
 10 11  2  0
 10 20  1  0
 11 12  1  0
 12 13  2  0
 13 14  1  0
 15 14  1  6
 15 16  1  0
 15 17  1  0
 16  6  1  0
 17 18  2  0
 19 13  1  0
 20 19  2  0
 21 17  1  0
 21 25  1  0
 22 23  1  0
 22 21  1  0
 23 24  1  0
 24 25  1  0
 25 26  1  1
 26 28  1  0
 27 26  2  0
M  END
$$$$
