DYP.pdb
     RDKit          3D

 28 29  0  0  1  0  0  0  0  0999 V2000
   20.0848  -20.1321  -13.2764 N   0  0  0  0  0  0  0  0  0  0  0  0
   20.9829  -20.3684  -14.3593 C   0  0  1  0  0  0  0  0  0  0  0  0
   20.6463  -19.6196  -15.6047 C   0  0  0  0  0  0  0  0  0  0  0  0
   19.9370  -20.3907  -16.6336 C   0  0  0  0  0  0  0  0  0  0  0  0
   19.4531  -21.5196  -16.3740 O   0  0  0  0  0  0  0  0  0  0  0  0
   22.4089  -20.1618  -14.0289 C   0  0  0  0  0  0  0  0  0  0  0  0
   22.7795  -19.0466  -13.5801 O   0  0  0  0  0  0  0  0  0  0  0  0
   19.7916  -19.8773  -17.9112 O   0  0  0  0  0  0  0  0  0  0  0  0
   24.4854  -19.8404   -7.6618 O   0  0  0  0  0  0  0  0  0  0  0  0
   24.7004  -20.3360   -8.9443 C   0  0  0  0  0  0  0  0  0  0  0  0
   23.6549  -20.8729   -9.6565 C   0  0  0  0  0  0  0  0  0  0  0  0
   23.8736  -21.3685  -10.9403 C   0  0  0  0  0  0  0  0  0  0  0  0
   25.1230  -21.3220  -11.4920 C   0  0  0  0  0  0  0  0  0  0  0  0
   25.3518  -21.8467  -12.8474 C   0  0  0  0  0  0  0  0  0  0  0  0
   24.8142  -20.8711  -13.9198 C   0  0  2  0  0  0  0  0  0  0  0  0
   23.4288  -21.1494  -14.1816 N   0  0  0  0  0  0  0  0  0  0  0  0
   25.7174  -20.8268  -15.0643 C   0  0  0  0  0  0  0  0  0  0  0  0
   25.6583  -21.8297  -15.8785 O   0  0  0  0  0  0  0  0  0  0  0  0
   26.1612  -20.7860  -10.7777 C   0  0  0  0  0  0  0  0  0  0  0  0
   25.9564  -20.2845   -9.4880 C   0  0  0  0  0  0  0  0  0  0  0  0
   26.6588  -19.8355  -15.4196 N   0  0  0  0  0  0  0  0  0  0  0  0
   26.9417  -18.6388  -14.6905 C   0  0  0  0  0  0  0  0  0  0  0  0
   28.4494  -18.4403  -14.9108 C   0  0  0  0  0  0  0  0  0  0  0  0
   28.4879  -18.7088  -16.4205 C   0  0  0  0  0  0  0  0  0  0  0  0
   27.5255  -19.8521  -16.5954 C   0  0  1  0  0  0  0  0  0  0  0  0
   28.3385  -21.0912  -16.6481 C   0  0  0  0  0  0  0  0  0  0  0  0
   28.4152  -21.7639  -15.5888 O   0  0  0  0  0  0  0  0  0  0  0  0
   29.0014  -21.5456  -17.7556 O   0  0  0  0  0  0  0  0  0  0  0  0
  2  1  1  1
  2  3  1  0
  3  4  1  0
  4  8  1  0
  5  4  2  0
  6  2  1  0
  7  6  2  0
  9 10  1  0
 10 11  2  0
 10 20  1  0
 11 12  1  0
 12 13  2  0
 13 14  1  0
 15 14  1  1
 15 16  1  0
 15 17  1  0
 16  6  1  0
 17 18  2  0
 19 13  1  0
 20 19  2  0
 21 17  1  0
 21 25  1  0
 22 23  1  0
 22 21  1  0
 23 24  1  0
 24 25  1  0
 25 26  1  1
 26 28  1  0
 27 26  2  0
M  END
$$$$
