DYP.pdb
     RDKit          3D

 28 29  0  0  1  0  0  0  0  0999 V2000
   26.5684  -28.2288  -18.2715 N   0  0  0  0  0  0  0  0  0  0  0  0
   27.3152  -28.9784  -19.2284 C   0  0  1  0  0  0  0  0  0  0  0  0
   27.6515  -28.2204  -20.4682 C   0  0  0  0  0  0  0  0  0  0  0  0
   26.5967  -28.1781  -21.4889 C   0  0  0  0  0  0  0  0  0  0  0  0
   25.4684  -28.6840  -21.2713 O   0  0  0  0  0  0  0  0  0  0  0  0
   28.5372  -29.6133  -18.6908 C   0  0  0  0  0  0  0  0  0  0  0  0
   29.1585  -29.0516  -17.7523 O   0  0  0  0  0  0  0  0  0  0  0  0
   26.8354  -27.5744  -22.7118 O   0  0  0  0  0  0  0  0  0  0  0  0
   26.3666  -32.8619  -13.7295 O   0  0  0  0  0  0  0  0  0  0  0  0
   27.2416  -32.8686  -14.8117 C   0  0  0  0  0  0  0  0  0  0  0  0
   26.7490  -32.9566  -16.0915 C   0  0  0  0  0  0  0  0  0  0  0  0
   27.6278  -32.9632  -17.1729 C   0  0  0  0  0  0  0  0  0  0  0  0
   28.9759  -32.8827  -16.9642 C   0  0  0  0  0  0  0  0  0  0  0  0
   29.9020  -32.8909  -18.1074 C   0  0  0  0  0  0  0  0  0  0  0  0
   30.2413  -31.4515  -18.5589 C   0  0  2  0  0  0  0  0  0  0  0  0
   29.0864  -30.8444  -19.1615 N   0  0  0  0  0  0  0  0  0  0  0  0
   31.4824  -31.4389  -19.3252 C   0  0  0  0  0  0  0  0  0  0  0  0
   31.4042  -31.8551  -20.5471 O   0  0  0  0  0  0  0  0  0  0  0  0
   29.4613  -32.7954  -15.6866 C   0  0  0  0  0  0  0  0  0  0  0  0
   28.5909  -32.7874  -14.5915 C   0  0  0  0  0  0  0  0  0  0  0  0
   32.7742  -31.0325  -18.9239 N   0  0  0  0  0  0  0  0  0  0  0  0
   33.1343  -30.5021  -17.6461 C   0  0  0  0  0  0  0  0  0  0  0  0
   34.5502  -31.0551  -17.4215 C   0  0  0  0  0  0  0  0  0  0  0  0
   35.1254  -30.7568  -18.8118 C   0  0  0  0  0  0  0  0  0  0  0  0
   33.9861  -31.0856  -19.7378 C   0  0  1  0  0  0  0  0  0  0  0  0
   34.2322  -32.4557  -20.2491 C   0  0  0  0  0  0  0  0  0  0  0  0
   35.1250  -32.5816  -21.1252 O   0  0  0  0  0  0  0  0  0  0  0  0
   33.5629  -33.5762  -19.8379 O   0  0  0  0  0  0  0  0  0  0  0  0
  2  1  1  1
  2  3  1  0
  3  4  1  0
  4  8  1  0
  5  4  2  0
  6  2  1  0
  7  6  2  0
  9 10  1  0
 10 11  2  0
 10 20  1  0
 11 12  1  0
 12 13  2  0
 13 14  1  0
 15 14  1  6
 15 16  1  0
 15 17  1  0
 16  6  1  0
 17 18  2  0
 19 13  1  0
 20 19  2  0
 21 17  1  0
 21 25  1  0
 22 23  1  0
 22 21  1  0
 23 24  1  0
 24 25  1  0
 25 26  1  1
 26 28  1  0
 27 26  2  0
M  END
$$$$
