DYP.pdb
     RDKit          3D

 28 29  0  0  1  0  0  0  0  0999 V2000
   25.3654  -14.8936  -19.3171 N   0  0  0  0  0  0  0  0  0  0  0  0
   24.6583  -16.0600  -18.8991 C   0  0  1  0  0  0  0  0  0  0  0  0
   24.3034  -16.9886  -20.0110 C   0  0  0  0  0  0  0  0  0  0  0  0
   23.1698  -16.5710  -20.8458 C   0  0  0  0  0  0  0  0  0  0  0  0
   22.4203  -15.6286  -20.4906 O   0  0  0  0  0  0  0  0  0  0  0  0
   25.3147  -16.8180  -17.8129 C   0  0  0  0  0  0  0  0  0  0  0  0
   26.5421  -17.0787  -17.9014 O   0  0  0  0  0  0  0  0  0  0  0  0
   22.9129  -17.2160  -22.0438 O   0  0  0  0  0  0  0  0  0  0  0  0
   26.9155  -21.4913  -10.5301 O   0  0  0  0  0  0  0  0  0  0  0  0
   26.3222  -20.6587  -11.4743 C   0  0  0  0  0  0  0  0  0  0  0  0
   26.9375  -19.4846  -11.8368 C   0  0  0  0  0  0  0  0  0  0  0  0
   26.3408  -18.6532  -12.7824 C   0  0  0  0  0  0  0  0  0  0  0  0
   25.1471  -19.0017  -13.3491 C   0  0  0  0  0  0  0  0  0  0  0  0
   24.5183  -18.1218  -14.3467 C   0  0  0  0  0  0  0  0  0  0  0  0
   25.3063  -18.1365  -15.6770 C   0  0  2  0  0  0  0  0  0  0  0  0
   24.6533  -17.2926  -16.6398 N   0  0  0  0  0  0  0  0  0  0  0  0
   25.6011  -19.5077  -16.0775 C   0  0  0  0  0  0  0  0  0  0  0  0
   24.5973  -20.2117  -16.4886 O   0  0  0  0  0  0  0  0  0  0  0  0
   24.5383  -20.1729  -12.9841 C   0  0  0  0  0  0  0  0  0  0  0  0
   25.1259  -21.0175  -12.0363 C   0  0  0  0  0  0  0  0  0  0  0  0
   26.8386  -20.1885  -16.0835 N   0  0  0  0  0  0  0  0  0  0  0  0
   28.0805  -19.6887  -15.5818 C   0  0  0  0  0  0  0  0  0  0  0  0
   28.7621  -20.9437  -15.0148 C   0  0  0  0  0  0  0  0  0  0  0  0
   28.4812  -21.8939  -16.1857 C   0  0  0  0  0  0  0  0  0  0  0  0
   27.0791  -21.5348  -16.5969 C   0  0  1  0  0  0  0  0  0  0  0  0
   26.1789  -22.5244  -15.9568 C   0  0  0  0  0  0  0  0  0  0  0  0
   26.3675  -23.7328  -16.2474 O   0  0  0  0  0  0  0  0  0  0  0  0
   25.1714  -22.2157  -15.0838 O   0  0  0  0  0  0  0  0  0  0  0  0
  2  1  1  6
  2  3  1  0
  3  4  1  0
  4  8  1  0
  5  4  2  0
  6  2  1  0
  7  6  2  0
  9 10  1  0
 10 11  2  0
 10 20  1  0
 11 12  1  0
 12 13  2  0
 13 14  1  0
 15 14  1  1
 15 16  1  0
 15 17  1  0
 16  6  1  0
 17 18  2  0
 19 13  1  0
 20 19  2  0
 21 17  1  0
 21 25  1  0
 22 23  1  0
 22 21  1  0
 23 24  1  0
 24 25  1  0
 25 26  1  1
 26 28  1  0
 27 26  2  0
M  END
$$$$
