FCG.pdb
     RDKit          3D

 22 22  0  0  1  0  0  0  0  0999 V2000
   10.6900  -15.2340   21.6973 N   0  0  0  0  0  0  0  0  0  0  0  0
    9.4132  -14.9552   22.2727 C   0  0  1  0  0  0  0  0  0  0  0  0
    8.3484  -15.6153   21.4282 C   0  0  0  0  0  0  0  0  0  0  0  0
    7.9437  -14.6462   20.3862 C   0  0  0  0  0  0  0  0  0  0  0  0
    8.8146  -14.3736   19.3618 C   0  0  0  0  0  0  0  0  0  0  0  0
    8.4860  -13.4742   18.3598 C   0  0  0  0  0  0  0  0  0  0  0  0
    7.2673  -12.8570   18.4099 C   0  0  0  0  0  0  0  0  0  0  0  0
    6.3745  -13.1145   19.4296 C   0  0  0  0  0  0  0  0  0  0  0  0
    6.7254  -14.0259   20.4316 C   0  0  0  0  0  0  0  0  0  0  0  0
    9.3234  -15.3641   23.6997 C   0  0  0  0  0  0  0  0  0  0  0  0
   10.3604  -15.5190   24.3961 O   0  0  0  0  0  0  0  0  0  0  0  0
    8.0774  -15.5983   24.3432 N   0  0  0  0  0  0  0  0  0  0  0  0
    7.9258  -15.8516   25.7419 C   0  0  1  0  0  0  0  0  0  0  0  0
    7.7144  -14.5581   26.5286 C   0  0  0  0  0  0  0  0  0  0  0  0
    6.2780  -13.6859   25.8681 S   0  0  0  0  0  0  0  0  0  0  0  0
    6.8395  -16.8174   26.0357 C   0  0  0  0  0  0  0  0  0  0  0  0
    5.8222  -16.8429   25.3056 O   0  0  0  0  0  0  0  0  0  0  0  0
    6.9209  -17.7174   27.1257 N   0  0  0  0  0  0  0  0  0  0  0  0
    8.1372  -17.9208   27.8909 C   0  0  0  0  0  0  0  0  0  0  0  0
    8.7826  -19.2072   27.5442 C   0  0  0  0  0  0  0  0  0  0  0  0
    9.5970  -19.2930   26.4462 O   0  0  0  0  0  0  0  0  0  0  0  0
    8.5858  -20.2325   28.2588 O   0  0  0  0  0  0  0  0  0  0  0  0
  2  1  1  6
  2 10  1  0
  3  2  1  0
  3  4  1  0
  4  5  2  0
  4  9  1  0
  5  6  1  0
  6  7  2  0
  8  7  1  0
  9  8  2  0
 10 11  2  0
 12 10  1  0
 12 13  1  0
 13 16  1  0
 13 14  1  1
 15 14  1  0
 16 18  1  0
 17 16  2  0
 18 19  1  0
 19 20  1  0
 20 22  2  0
 20 21  1  0
M  END
$$$$
