FCG.pdb
     RDKit          3D

 22 22  0  0  1  0  0  0  0  0999 V2000
    6.0927  -17.9682   25.9457 N   0  0  0  0  0  0  0  0  0  0  0  0
    6.6063  -16.6731   25.6329 C   0  0  1  0  0  0  0  0  0  0  0  0
    7.2372  -16.0905   26.8761 C   0  0  0  0  0  0  0  0  0  0  0  0
    7.2211  -14.6180   26.7341 C   0  0  0  0  0  0  0  0  0  0  0  0
    6.0143  -13.9787   26.6037 C   0  0  0  0  0  0  0  0  0  0  0  0
    5.9419  -12.6013   26.4676 C   0  0  0  0  0  0  0  0  0  0  0  0
    7.1051  -11.8832   26.4653 C   0  0  0  0  0  0  0  0  0  0  0  0
    8.3308  -12.5030   26.5949 C   0  0  0  0  0  0  0  0  0  0  0  0
    8.3822  -13.8947   26.7312 C   0  0  0  0  0  0  0  0  0  0  0  0
    7.5526  -16.6908   24.4858 C   0  0  0  0  0  0  0  0  0  0  0  0
    8.4521  -17.5673   24.4011 O   0  0  0  0  0  0  0  0  0  0  0  0
    7.4913  -15.7311   23.4387 N   0  0  0  0  0  0  0  0  0  0  0  0
    8.4146  -15.6640   22.3494 C   0  0  1  0  0  0  0  0  0  0  0  0
    7.9594  -14.6641   21.2864 C   0  0  0  0  0  0  0  0  0  0  0  0
    6.2465  -15.0125   20.8340 S   0  0  0  0  0  0  0  0  0  0  0  0
    9.7977  -15.3573   22.7875 C   0  0  0  0  0  0  0  0  0  0  0  0
   10.0345  -14.2744   23.3706 O   0  0  0  0  0  0  0  0  0  0  0  0
   10.8650  -16.2603   22.5636 N   0  0  0  0  0  0  0  0  0  0  0  0
   12.2175  -16.0130   23.0283 C   0  0  0  0  0  0  0  0  0  0  0  0
   13.1830  -16.0258   21.9064 C   0  0  0  0  0  0  0  0  0  0  0  0
   14.5044  -15.7458   22.1341 O   0  0  0  0  0  0  0  0  0  0  0  0
   12.7939  -16.2950   20.7330 O   0  0  0  0  0  0  0  0  0  0  0  0
  2  1  1  1
  2 10  1  0
  3  2  1  0
  3  4  1  0
  4  5  2  0
  4  9  1  0
  5  6  1  0
  6  7  2  0
  8  7  1  0
  9  8  2  0
 10 11  2  0
 12 10  1  0
 12 13  1  0
 13 16  1  0
 13 14  1  6
 15 14  1  0
 16 18  1  0
 17 16  2  0
 18 19  1  0
 19 20  1  0
 20 22  2  0
 20 21  1  0
M  END
$$$$
