FCG.pdb
     RDKit          3D

 22 22  0  0  1  0  0  0  0  0999 V2000
    5.8763  -17.3021   25.6430 N   0  0  0  0  0  0  0  0  0  0  0  0
    6.7155  -16.2707   25.1225 C   0  0  1  0  0  0  0  0  0  0  0  0
    7.6167  -15.7764   26.2299 C   0  0  0  0  0  0  0  0  0  0  0  0
    7.3162  -14.3433   26.4409 C   0  0  0  0  0  0  0  0  0  0  0  0
    8.3507  -13.4422   26.4352 C   0  0  0  0  0  0  0  0  0  0  0  0
    8.1251  -12.0883   26.6280 C   0  0  0  0  0  0  0  0  0  0  0  0
    6.8416  -11.6617   26.8260 C   0  0  0  0  0  0  0  0  0  0  0  0
    5.7847  -12.5483   26.8360 C   0  0  0  0  0  0  0  0  0  0  0  0
    6.0336  -13.9111   26.6394 C   0  0  0  0  0  0  0  0  0  0  0  0
    7.4890  -16.7055   23.9291 C   0  0  0  0  0  0  0  0  0  0  0  0
    7.6748  -17.9266   23.6867 O   0  0  0  0  0  0  0  0  0  0  0  0
    8.0516  -15.7764   23.0117 N   0  0  0  0  0  0  0  0  0  0  0  0
    8.8014  -16.1410   21.8505 C   0  0  1  0  0  0  0  0  0  0  0  0
    8.6500  -15.1068   20.7350 C   0  0  0  0  0  0  0  0  0  0  0  0
    6.9449  -14.5139   20.6983 S   0  0  0  0  0  0  0  0  0  0  0  0
   10.2357  -16.3767   22.1442 C   0  0  0  0  0  0  0  0  0  0  0  0
   10.9801  -16.8427   21.2512 O   0  0  0  0  0  0  0  0  0  0  0  0
   10.7908  -16.0876   23.4142 N   0  0  0  0  0  0  0  0  0  0  0  0
   12.1534  -16.4323   23.7760 C   0  0  0  0  0  0  0  0  0  0  0  0
   13.1153  -15.4271   23.2704 C   0  0  0  0  0  0  0  0  0  0  0  0
   14.4510  -15.5556   23.5452 O   0  0  0  0  0  0  0  0  0  0  0  0
   12.7097  -14.4455   22.5829 O   0  0  0  0  0  0  0  0  0  0  0  0
  2  1  1  1
  2 10  1  0
  3  2  1  0
  3  4  1  0
  4  5  2  0
  4  9  1  0
  5  6  1  0
  6  7  2  0
  8  7  1  0
  9  8  2  0
 10 11  2  0
 12 10  1  0
 12 13  1  0
 13 16  1  0
 13 14  1  6
 15 14  1  0
 16 18  1  0
 17 16  2  0
 18 19  1  0
 19 20  1  0
 20 22  2  0
 20 21  1  0
M  END
$$$$
