FCG.pdb
     RDKit          3D

 22 22  0  0  1  0  0  0  0  0999 V2000
    6.6921  -16.3198   23.8691 N   0  0  0  0  0  0  0  0  0  0  0  0
    8.0069  -15.9202   23.4807 C   0  0  1  0  0  0  0  0  0  0  0  0
    8.0646  -14.4106   23.4533 C   0  0  0  0  0  0  0  0  0  0  0  0
    7.9137  -13.9858   22.0442 C   0  0  0  0  0  0  0  0  0  0  0  0
    6.6665  -13.6447   21.5856 C   0  0  0  0  0  0  0  0  0  0  0  0
    6.4690  -13.2400   20.2749 C   0  0  0  0  0  0  0  0  0  0  0  0
    7.5487  -13.1858   19.4383 C   0  0  0  0  0  0  0  0  0  0  0  0
    8.8127  -13.5237   19.8758 C   0  0  0  0  0  0  0  0  0  0  0  0
    8.9909  -13.9299   21.2029 C   0  0  0  0  0  0  0  0  0  0  0  0
    9.0650  -16.5009   24.3495 C   0  0  0  0  0  0  0  0  0  0  0  0
    9.0260  -16.3614   25.5998 O   0  0  0  0  0  0  0  0  0  0  0  0
   10.1616  -17.2345   23.8196 N   0  0  0  0  0  0  0  0  0  0  0  0
   11.2633  -17.7131   24.5948 C   0  0  1  0  0  0  0  0  0  0  0  0
   11.0355  -19.1477   25.0709 C   0  0  0  0  0  0  0  0  0  0  0  0
    9.4777  -19.2348   25.9797 S   0  0  0  0  0  0  0  0  0  0  0  0
   12.5577  -17.6064   23.8792 C   0  0  0  0  0  0  0  0  0  0  0  0
   13.1638  -18.6490   23.5412 O   0  0  0  0  0  0  0  0  0  0  0  0
   13.1314  -16.3505   23.5655 N   0  0  0  0  0  0  0  0  0  0  0  0
   14.1665  -15.7327   24.3736 C   0  0  0  0  0  0  0  0  0  0  0  0
   15.5021  -16.2835   24.0508 C   0  0  0  0  0  0  0  0  0  0  0  0
   16.4918  -15.4579   23.5870 O   0  0  0  0  0  0  0  0  0  0  0  0
   15.7364  -17.5177   24.2012 O   0  0  0  0  0  0  0  0  0  0  0  0
  2  1  1  1
  2 10  1  0
  3  2  1  0
  3  4  1  0
  4  5  2  0
  4  9  1  0
  5  6  1  0
  6  7  2  0
  8  7  1  0
  9  8  2  0
 10 11  2  0
 12 10  1  0
 12 13  1  0
 13 16  1  0
 13 14  1  6
 15 14  1  0
 16 18  1  0
 17 16  2  0
 18 19  1  0
 19 20  1  0
 20 22  2  0
 20 21  1  0
M  END
$$$$
