FCG.pdb
     RDKit          3D

 22 22  0  0  1  0  0  0  0  0999 V2000
    6.0606  -18.1464   26.0385 N   0  0  0  0  0  0  0  0  0  0  0  0
    6.4238  -16.8040   25.7142 C   0  0  1  0  0  0  0  0  0  0  0  0
    7.1455  -16.2000   26.8962 C   0  0  0  0  0  0  0  0  0  0  0  0
    7.1913  -14.7360   26.6879 C   0  0  0  0  0  0  0  0  0  0  0  0
    8.3849  -14.1533   26.3447 C   0  0  0  0  0  0  0  0  0  0  0  0
    8.4838  -12.7864   26.1379 C   0  0  0  0  0  0  0  0  0  0  0  0
    7.3606  -12.0209   26.2831 C   0  0  0  0  0  0  0  0  0  0  0  0
    6.1489  -12.5835   26.6275 C   0  0  0  0  0  0  0  0  0  0  0  0
    6.0703  -13.9654   26.8319 C   0  0  0  0  0  0  0  0  0  0  0  0
    7.2268  -16.7107   24.4660 C   0  0  0  0  0  0  0  0  0  0  0  0
    8.1295  -17.5501   24.2117 O   0  0  0  0  0  0  0  0  0  0  0  0
    7.0192  -15.6815   23.5073 N   0  0  0  0  0  0  0  0  0  0  0  0
    7.7646  -15.5444   22.2952 C   0  0  1  0  0  0  0  0  0  0  0  0
    7.2124  -14.4201   21.4189 C   0  0  0  0  0  0  0  0  0  0  0  0
    8.2171  -14.2794   19.9253 S   0  0  0  0  0  0  0  0  0  0  0  0
    9.2152  -15.3484   22.5325 C   0  0  0  0  0  0  0  0  0  0  0  0
    9.6185  -14.2752   23.0368 O   0  0  0  0  0  0  0  0  0  0  0  0
   10.1631  -16.3470   22.2029 N   0  0  0  0  0  0  0  0  0  0  0  0
   11.5690  -16.2441   22.5481 C   0  0  0  0  0  0  0  0  0  0  0  0
   12.3248  -15.5039   21.5125 C   0  0  0  0  0  0  0  0  0  0  0  0
   13.5820  -15.0331   21.7848 O   0  0  0  0  0  0  0  0  0  0  0  0
   11.8147  -15.3025   20.3724 O   0  0  0  0  0  0  0  0  0  0  0  0
  2  1  1  1
  2 10  1  0
  3  2  1  0
  3  4  1  0
  4  5  2  0
  4  9  1  0
  5  6  1  0
  6  7  2  0
  8  7  1  0
  9  8  2  0
 10 11  2  0
 12 10  1  0
 12 13  1  0
 13 16  1  0
 13 14  1  1
 15 14  1  0
 16 18  1  0
 17 16  2  0
 18 19  1  0
 19 20  1  0
 20 22  2  0
 20 21  1  0
M  END
$$$$
