FCG.pdb
     RDKit          3D

 22 22  0  0  1  0  0  0  0  0999 V2000
    6.4597  -18.0209   26.2362 N   0  0  0  0  0  0  0  0  0  0  0  0
    6.8465  -16.7134   25.8121 C   0  0  1  0  0  0  0  0  0  0  0  0
    7.6074  -16.0469   26.9346 C   0  0  0  0  0  0  0  0  0  0  0  0
    7.2870  -14.6032   26.8925 C   0  0  0  0  0  0  0  0  0  0  0  0
    8.2670  -13.6981   27.2128 C   0  0  0  0  0  0  0  0  0  0  0  0
    8.0207  -12.3344   27.1897 C   0  0  0  0  0  0  0  0  0  0  0  0
    6.7723  -11.9020   26.8387 C   0  0  0  0  0  0  0  0  0  0  0  0
    5.7703  -12.7924   26.5124 C   0  0  0  0  0  0  0  0  0  0  0  0
    6.0394  -14.1652   26.5419 C   0  0  0  0  0  0  0  0  0  0  0  0
    7.6243  -16.7261   24.5446 C   0  0  0  0  0  0  0  0  0  0  0  0
    8.4332  -17.6561   24.2898 O   0  0  0  0  0  0  0  0  0  0  0  0
    7.4962  -15.7014   23.5674 N   0  0  0  0  0  0  0  0  0  0  0  0
    8.2459  -15.6467   22.3514 C   0  0  1  0  0  0  0  0  0  0  0  0
    7.5050  -14.8628   21.2682 C   0  0  0  0  0  0  0  0  0  0  0  0
    5.9490  -15.6959   20.8873 S   0  0  0  0  0  0  0  0  0  0  0  0
    9.6104  -15.0985   22.5427 C   0  0  0  0  0  0  0  0  0  0  0  0
    9.7518  -13.9338   22.9807 O   0  0  0  0  0  0  0  0  0  0  0  0
   10.7654  -15.8602   22.2420 N   0  0  0  0  0  0  0  0  0  0  0  0
   12.1132  -15.3684   22.4612 C   0  0  0  0  0  0  0  0  0  0  0  0
   13.1242  -16.3293   21.9653 C   0  0  0  0  0  0  0  0  0  0  0  0
   14.2868  -15.8736   21.4023 O   0  0  0  0  0  0  0  0  0  0  0  0
   12.9204  -17.5745   22.0584 O   0  0  0  0  0  0  0  0  0  0  0  0
  2  1  1  1
  2 10  1  0
  3  2  1  0
  3  4  1  0
  4  5  2  0
  4  9  1  0
  5  6  1  0
  6  7  2  0
  8  7  1  0
  9  8  2  0
 10 11  2  0
 12 10  1  0
 12 13  1  0
 13 16  1  0
 13 14  1  6
 15 14  1  0
 16 18  1  0
 17 16  2  0
 18 19  1  0
 19 20  1  0
 20 22  2  0
 20 21  1  0
M  END
$$$$
