FCG.pdb
     RDKit          3D

 22 22  0  0  1  0  0  0  0  0999 V2000
    8.2390  -17.3436   22.7787 N   0  0  0  0  0  0  0  0  0  0  0  0
    8.4749  -15.9359   22.7337 C   0  0  1  0  0  0  0  0  0  0  0  0
    7.1433  -15.2251   22.6663 C   0  0  0  0  0  0  0  0  0  0  0  0
    7.2297  -14.2219   21.5823 C   0  0  0  0  0  0  0  0  0  0  0  0
    6.9854  -14.6190   20.2920 C   0  0  0  0  0  0  0  0  0  0  0  0
    7.0527  -13.7204   19.2389 C   0  0  0  0  0  0  0  0  0  0  0  0
    7.3699  -12.4187   19.5103 C   0  0  0  0  0  0  0  0  0  0  0  0
    7.6198  -11.9952   20.7993 C   0  0  0  0  0  0  0  0  0  0  0  0
    7.5466  -12.9181   21.8484 C   0  0  0  0  0  0  0  0  0  0  0  0
    9.3047  -15.4548   23.8701 C   0  0  0  0  0  0  0  0  0  0  0  0
    9.7952  -14.2956   23.8693 O   0  0  0  0  0  0  0  0  0  0  0  0
    9.5834  -16.2687   25.0020 N   0  0  0  0  0  0  0  0  0  0  0  0
   10.2132  -15.8015   26.1973 C   0  0  1  0  0  0  0  0  0  0  0  0
    9.5373  -14.5396   26.7334 C   0  0  0  0  0  0  0  0  0  0  0  0
   10.4181  -13.9692   28.2028 S   0  0  0  0  0  0  0  0  0  0  0  0
   10.2799  -16.8396   27.2542 C   0  0  0  0  0  0  0  0  0  0  0  0
    9.2288  -17.2015   27.8310 O   0  0  0  0  0  0  0  0  0  0  0  0
   11.5068  -17.4371   27.6317 N   0  0  0  0  0  0  0  0  0  0  0  0
   11.5863  -18.5742   28.5301 C   0  0  0  0  0  0  0  0  0  0  0  0
   11.4225  -18.1578   29.9412 C   0  0  0  0  0  0  0  0  0  0  0  0
   11.3949  -19.0988   30.9362 O   0  0  0  0  0  0  0  0  0  0  0  0
   11.3072  -16.9327   30.2355 O   0  0  0  0  0  0  0  0  0  0  0  0
  2  1  1  1
  2 10  1  0
  3  2  1  0
  3  4  1  0
  4  5  2  0
  4  9  1  0
  5  6  1  0
  6  7  2  0
  8  7  1  0
  9  8  2  0
 10 11  2  0
 12 10  1  0
 12 13  1  0
 13 16  1  0
 13 14  1  1
 15 14  1  0
 16 18  1  0
 17 16  2  0
 18 19  1  0
 19 20  1  0
 20 22  2  0
 20 21  1  0
M  END
$$$$
