FCG.pdb
     RDKit          3D

 22 22  0  0  1  0  0  0  0  0999 V2000
    6.9662  -16.8911   23.3174 N   0  0  0  0  0  0  0  0  0  0  0  0
    8.1236  -16.0898   23.0779 C   0  0  1  0  0  0  0  0  0  0  0  0
    7.7737  -14.6442   23.3443 C   0  0  0  0  0  0  0  0  0  0  0  0
    7.6933  -13.9583   22.0360 C   0  0  0  0  0  0  0  0  0  0  0  0
    6.5640  -14.1173   21.2736 C   0  0  0  0  0  0  0  0  0  0  0  0
    6.4366  -13.4975   20.0404 C   0  0  0  0  0  0  0  0  0  0  0  0
    7.4656  -12.7172   19.5922 C   0  0  0  0  0  0  0  0  0  0  0  0
    8.6112  -12.5418   20.3405 C   0  0  0  0  0  0  0  0  0  0  0  0
    8.7201  -13.1763   21.5828 C   0  0  0  0  0  0  0  0  0  0  0  0
    9.3028  -16.5309   23.8694 C   0  0  0  0  0  0  0  0  0  0  0  0
    9.1861  -16.8569   25.0795 O   0  0  0  0  0  0  0  0  0  0  0  0
   10.6066  -16.6062   23.3075 N   0  0  0  0  0  0  0  0  0  0  0  0
   11.7654  -17.0571   24.0129 C   0  0  1  0  0  0  0  0  0  0  0  0
   11.6442  -18.5274   24.4129 C   0  0  0  0  0  0  0  0  0  0  0  0
   10.9490  -19.4653   23.0355 S   0  0  0  0  0  0  0  0  0  0  0  0
   13.0214  -16.8296   23.2581 C   0  0  0  0  0  0  0  0  0  0  0  0
   13.0089  -16.8887   22.0071 O   0  0  0  0  0  0  0  0  0  0  0  0
   14.2423  -16.5458   23.9165 N   0  0  0  0  0  0  0  0  0  0  0  0
   15.3766  -15.9373   23.2460 C   0  0  0  0  0  0  0  0  0  0  0  0
   16.5585  -15.8768   24.1352 C   0  0  0  0  0  0  0  0  0  0  0  0
   17.7416  -15.3658   23.6712 O   0  0  0  0  0  0  0  0  0  0  0  0
   16.4826  -16.2961   25.3265 O   0  0  0  0  0  0  0  0  0  0  0  0
  2  1  1  1
  2 10  1  0
  3  2  1  0
  3  4  1  0
  4  5  2  0
  4  9  1  0
  5  6  1  0
  6  7  2  0
  8  7  1  0
  9  8  2  0
 10 11  2  0
 12 10  1  0
 12 13  1  0
 13 16  1  0
 13 14  1  6
 15 14  1  0
 16 18  1  0
 17 16  2  0
 18 19  1  0
 19 20  1  0
 20 22  2  0
 20 21  1  0
M  END
$$$$
