FCG.pdb
     RDKit          3D

 22 22  0  0  1  0  0  0  0  0999 V2000
    8.1469  -18.0797   27.2477 N   0  0  0  0  0  0  0  0  0  0  0  0
    7.4482  -17.2455   26.3232 C   0  0  1  0  0  0  0  0  0  0  0  0
    6.9271  -16.0355   27.0629 C   0  0  0  0  0  0  0  0  0  0  0  0
    8.0814  -15.3877   27.7237 C   0  0  0  0  0  0  0  0  0  0  0  0
    8.4104  -14.1032   27.3716 C   0  0  0  0  0  0  0  0  0  0  0  0
    9.4820  -13.4493   27.9592 C   0  0  0  0  0  0  0  0  0  0  0  0
   10.2128  -14.1126   28.9051 C   0  0  0  0  0  0  0  0  0  0  0  0
    9.9017  -15.4045   29.2760 C   0  0  0  0  0  0  0  0  0  0  0  0
    8.8160  -16.0469   28.6708 C   0  0  0  0  0  0  0  0  0  0  0  0
    8.2792  -16.8643   25.1503 C   0  0  0  0  0  0  0  0  0  0  0  0
    9.4326  -17.3423   24.9903 O   0  0  0  0  0  0  0  0  0  0  0  0
    7.8200  -15.9518   24.1614 N   0  0  0  0  0  0  0  0  0  0  0  0
    8.4900  -15.6963   22.9247 C   0  0  1  0  0  0  0  0  0  0  0  0
    7.6819  -14.7560   22.0305 C   0  0  0  0  0  0  0  0  0  0  0  0
    6.0250  -15.4338   21.7949 S   0  0  0  0  0  0  0  0  0  0  0  0
    9.8647  -15.1734   23.1142 C   0  0  0  0  0  0  0  0  0  0  0  0
   10.0377  -14.1091   23.7513 O   0  0  0  0  0  0  0  0  0  0  0  0
   10.9943  -15.8481   22.5914 N   0  0  0  0  0  0  0  0  0  0  0  0
   12.3552  -15.3942   22.8115 C   0  0  0  0  0  0  0  0  0  0  0  0
   13.3369  -16.3241   22.2089 C   0  0  0  0  0  0  0  0  0  0  0  0
   14.4128  -15.8336   21.5174 O   0  0  0  0  0  0  0  0  0  0  0  0
   13.1878  -17.5747   22.3290 O   0  0  0  0  0  0  0  0  0  0  0  0
  2  1  1  1
  2 10  1  0
  3  2  1  0
  3  4  1  0
  4  5  2  0
  4  9  1  0
  5  6  1  0
  6  7  2  0
  8  7  1  0
  9  8  2  0
 10 11  2  0
 12 10  1  0
 12 13  1  0
 13 16  1  0
 13 14  1  1
 15 14  1  0
 16 18  1  0
 17 16  2  0
 18 19  1  0
 19 20  1  0
 20 22  2  0
 20 21  1  0
M  END
$$$$
