DEW.pdb
     RDKit          3D

 32 33  0  0  1  0  0  0  0  0999 V2000
    8.8491  -13.3146   18.3500 N   0  0  0  0  0  0  0  0  0  0  0  0
    8.0554  -14.4781   18.6414 C   0  0  1  0  0  0  0  0  0  0  0  0
    7.5784  -15.1294   17.3886 C   0  0  0  0  0  0  0  0  0  0  0  0
    8.4127  -14.9018   16.1937 C   0  0  0  0  0  0  0  0  0  0  0  0
    9.6399  -14.7600   16.1600 O   0  0  0  0  0  0  0  0  0  0  0  0
    8.7364  -15.4685   19.5082 C   0  0  0  0  0  0  0  0  0  0  0  0
    8.1384  -16.5346   19.7684 O   0  0  0  0  0  0  0  0  0  0  0  0
    7.7208  -14.8429   14.9747 O   0  0  0  0  0  0  0  0  0  0  0  0
   10.0364  -15.2895   20.0749 N   0  0  0  0  0  0  0  0  0  0  0  0
   10.6715  -16.2390   20.9280 C   0  0  1  0  0  0  0  0  0  0  0  0
   11.8887  -16.8892   20.4406 C   0  0  0  0  0  0  0  0  0  0  0  0
   11.9479  -17.6258   19.1856 C   0  0  0  0  0  0  0  0  0  0  0  0
   13.2149  -18.1814   18.7139 C   0  0  0  0  0  0  0  0  0  0  0  0
   13.4346  -19.2085   18.0750 O   0  0  0  0  0  0  0  0  0  0  0  0
   10.7674  -15.7530   22.3392 C   0  0  0  0  0  0  0  0  0  0  0  0
   11.2099  -14.6047   22.5885 O   0  0  0  0  0  0  0  0  0  0  0  0
   14.3781  -17.4291   19.0363 O   0  0  0  0  0  0  0  0  0  0  0  0
   10.3721  -16.5456   23.4448 N   0  0  0  0  0  0  0  0  0  0  0  0
    9.5099  -15.9993   24.5056 C   0  0  1  0  0  0  0  0  0  0  0  0
    8.4341  -15.1741   23.8600 C   0  0  0  0  0  0  0  0  0  0  0  0
    7.4590  -14.6453   24.7988 C   0  0  0  0  0  0  0  0  0  0  0  0
    6.3002  -15.2836   25.2179 C   0  0  0  0  0  0  0  0  0  0  0  0
    5.6437  -14.4674   26.0548 N   0  0  0  0  0  0  0  0  0  0  0  0
    6.3176  -13.2990   26.2178 C   0  0  0  0  0  0  0  0  0  0  0  0
    6.0541  -12.1788   26.9779 C   0  0  0  0  0  0  0  0  0  0  0  0
    6.9433  -11.1320   26.9634 C   0  0  0  0  0  0  0  0  0  0  0  0
    8.0745  -11.2100   26.2002 C   0  0  0  0  0  0  0  0  0  0  0  0
    8.3210  -12.3321   25.4492 C   0  0  0  0  0  0  0  0  0  0  0  0
    7.4569  -13.4035   25.4335 C   0  0  0  0  0  0  0  0  0  0  0  0
    9.0449  -17.0481   25.4118 C   0  0  0  0  0  0  0  0  0  0  0  0
    8.6204  -18.1381   24.9023 O   0  0  0  0  0  0  0  0  0  0  0  0
    9.0183  -16.9907   26.7912 O   0  0  0  0  0  0  0  0  0  0  0  0
  2  1  1  6
  2  3  1  0
  3  4  1  0
  4  5  2  0
  4  8  1  0
  6  7  2  0
  6  2  1  0
  9  6  1  0
 10 11  1  6
 10  9  1  0
 11 12  1  0
 12 13  1  0
 13 17  1  0
 14 13  2  0
 15 18  1  0
 15 10  1  0
 16 15  2  0
 19 18  1  0
 19 20  1  6
 20 21  1  0
 21 22  2  0
 22 23  1  0
 24 23  1  0
 25 24  2  0
 26 25  1  0
 27 28  1  0
 27 26  2  0
 28 29  2  0
 29 21  1  0
 29 24  1  0
 30 32  1  0
 30 19  1  0
 31 30  2  0
M  END
$$$$
