DEW.pdb
     RDKit          3D

 32 33  0  0  1  0  0  0  0  0999 V2000
    8.5371  -20.4328   22.3902 N   0  0  0  0  0  0  0  0  0  0  0  0
    9.5339  -20.0013   21.4474 C   0  0  1  0  0  0  0  0  0  0  0  0
    9.2219  -20.4917   20.0750 C   0  0  0  0  0  0  0  0  0  0  0  0
    8.9007  -21.9273   19.9683 C   0  0  0  0  0  0  0  0  0  0  0  0
    7.7755  -22.4383   19.9544 O   0  0  0  0  0  0  0  0  0  0  0  0
    9.7521  -18.5356   21.4321 C   0  0  0  0  0  0  0  0  0  0  0  0
   10.6447  -18.0799   20.6854 O   0  0  0  0  0  0  0  0  0  0  0  0
   10.0039  -22.7889   19.8735 O   0  0  0  0  0  0  0  0  0  0  0  0
    9.0118  -17.5990   22.2180 N   0  0  0  0  0  0  0  0  0  0  0  0
    9.3299  -16.2126   22.3149 C   0  0  1  0  0  0  0  0  0  0  0  0
    8.3938  -15.2536   21.7266 C   0  0  0  0  0  0  0  0  0  0  0  0
    7.4060  -15.6219   20.7218 C   0  0  0  0  0  0  0  0  0  0  0  0
    7.7266  -15.5228   19.2992 C   0  0  0  0  0  0  0  0  0  0  0  0
    8.3565  -14.6587   18.6926 O   0  0  0  0  0  0  0  0  0  0  0  0
    9.8023  -15.8371   23.6834 C   0  0  0  0  0  0  0  0  0  0  0  0
   10.3590  -14.7295   23.8832 O   0  0  0  0  0  0  0  0  0  0  0  0
    7.2421  -16.5806   18.4810 O   0  0  0  0  0  0  0  0  0  0  0  0
    9.6491  -16.6928   24.8019 N   0  0  0  0  0  0  0  0  0  0  0  0
   10.2026  -16.3343   26.1181 C   0  0  1  0  0  0  0  0  0  0  0  0
    9.0691  -16.2541   27.0998 C   0  0  0  0  0  0  0  0  0  0  0  0
    7.9095  -15.5364   26.5979 C   0  0  0  0  0  0  0  0  0  0  0  0
    6.7868  -16.1061   26.0143 C   0  0  0  0  0  0  0  0  0  0  0  0
    5.9521  -15.1229   25.6483 N   0  0  0  0  0  0  0  0  0  0  0  0
    6.4696  -13.9071   25.9643 C   0  0  0  0  0  0  0  0  0  0  0  0
    5.9843  -12.6263   25.8037 C   0  0  0  0  0  0  0  0  0  0  0  0
    6.7329  -11.5631   26.2463 C   0  0  0  0  0  0  0  0  0  0  0  0
    7.9450  -11.7833   26.8383 C   0  0  0  0  0  0  0  0  0  0  0  0
    8.4133  -13.0645   26.9898 C   0  0  0  0  0  0  0  0  0  0  0  0
    7.6968  -14.1586   26.5602 C   0  0  0  0  0  0  0  0  0  0  0  0
   11.3047  -17.2180   26.4949 C   0  0  0  0  0  0  0  0  0  0  0  0
   11.9106  -16.9881   27.5940 O   0  0  0  0  0  0  0  0  0  0  0  0
   11.7704  -18.3029   25.7789 O   0  0  0  0  0  0  0  0  0  0  0  0
  2  1  1  1
  2  3  1  0
  3  4  1  0
  4  5  2  0
  4  8  1  0
  6  7  2  0
  6  2  1  0
  9  6  1  0
 10 11  1  1
 10  9  1  0
 11 12  1  0
 12 13  1  0
 13 17  1  0
 14 13  2  0
 15 18  1  0
 15 10  1  0
 16 15  2  0
 19 18  1  0
 19 20  1  1
 20 21  1  0
 21 22  2  0
 22 23  1  0
 24 23  1  0
 25 24  2  0
 26 25  1  0
 27 28  1  0
 27 26  2  0
 28 29  2  0
 29 21  1  0
 29 24  1  0
 30 32  1  0
 30 19  1  0
 31 30  2  0
M  END
$$$$
