DEW.pdb
     RDKit          3D

 32 33  0  0  1  0  0  0  0  0999 V2000
   12.8916  -17.3523   19.8983 N   0  0  0  0  0  0  0  0  0  0  0  0
   11.5855  -16.7556   19.8157 C   0  0  1  0  0  0  0  0  0  0  0  0
   10.9373  -17.0624   18.5093 C   0  0  0  0  0  0  0  0  0  0  0  0
   11.5739  -16.4583   17.3238 C   0  0  0  0  0  0  0  0  0  0  0  0
   12.5993  -15.7687   17.3009 O   0  0  0  0  0  0  0  0  0  0  0  0
   10.6855  -17.1221   20.9346 C   0  0  0  0  0  0  0  0  0  0  0  0
    9.5461  -16.6098   20.9671 O   0  0  0  0  0  0  0  0  0  0  0  0
   10.9320  -16.7040   16.1008 O   0  0  0  0  0  0  0  0  0  0  0  0
   11.0306  -18.0236   21.9888 N   0  0  0  0  0  0  0  0  0  0  0  0
   10.1507  -18.3806   23.0522 C   0  0  1  0  0  0  0  0  0  0  0  0
    9.9173  -19.8044   23.2976 C   0  0  0  0  0  0  0  0  0  0  0  0
   10.9746  -20.7271   23.6870 C   0  0  0  0  0  0  0  0  0  0  0  0
   10.6976  -21.8165   24.6214 C   0  0  0  0  0  0  0  0  0  0  0  0
   11.2358  -22.0912   25.6920 O   0  0  0  0  0  0  0  0  0  0  0  0
   10.4143  -17.5870   24.2922 C   0  0  0  0  0  0  0  0  0  0  0  0
   11.5636  -17.1412   24.5305 O   0  0  0  0  0  0  0  0  0  0  0  0
    9.6482  -22.7005   24.2468 O   0  0  0  0  0  0  0  0  0  0  0  0
    9.4026  -17.3023   25.2421 N   0  0  0  0  0  0  0  0  0  0  0  0
    9.7280  -16.7032   26.5468 C   0  0  1  0  0  0  0  0  0  0  0  0
    8.4553  -16.1992   27.1643 C   0  0  0  0  0  0  0  0  0  0  0  0
    7.6567  -15.3769   26.2711 C   0  0  0  0  0  0  0  0  0  0  0  0
    6.7430  -15.8393   25.3346 C   0  0  0  0  0  0  0  0  0  0  0  0
    6.2343  -14.7857   24.6801 N   0  0  0  0  0  0  0  0  0  0  0  0
    6.7707  -13.6257   25.1409 C   0  0  0  0  0  0  0  0  0  0  0  0
    6.5545  -12.3074   24.7982 C   0  0  0  0  0  0  0  0  0  0  0  0
    7.2395  -11.3190   25.4621 C   0  0  0  0  0  0  0  0  0  0  0  0
    8.1238  -11.6494   26.4505 C   0  0  0  0  0  0  0  0  0  0  0  0
    8.3273  -12.9665   26.7786 C   0  0  0  0  0  0  0  0  0  0  0  0
    7.6633  -13.9886   26.1388 C   0  0  0  0  0  0  0  0  0  0  0  0
   10.5148  -17.6159   27.3747 C   0  0  0  0  0  0  0  0  0  0  0  0
   10.5521  -18.8474   27.0431 O   0  0  0  0  0  0  0  0  0  0  0  0
   11.2438  -17.2843   28.4994 O   0  0  0  0  0  0  0  0  0  0  0  0
  2  1  1  1
  2  3  1  0
  3  4  1  0
  4  5  2  0
  4  8  1  0
  6  7  2  0
  6  2  1  0
  9  6  1  0
 10 11  1  1
 10  9  1  0
 11 12  1  0
 12 13  1  0
 13 17  1  0
 14 13  2  0
 15 18  1  0
 15 10  1  0
 16 15  2  0
 19 18  1  0
 19 20  1  1
 20 21  1  0
 21 22  2  0
 22 23  1  0
 24 23  1  0
 25 24  2  0
 26 25  1  0
 27 28  1  0
 27 26  2  0
 28 29  2  0
 29 21  1  0
 29 24  1  0
 30 32  1  0
 30 19  1  0
 31 30  2  0
M  END
$$$$
