DEW.pdb
     RDKit          3D

 32 33  0  0  1  0  0  0  0  0999 V2000
    8.4462  -17.1229   18.8375 N   0  0  0  0  0  0  0  0  0  0  0  0
    9.1274  -16.1797   19.6832 C   0  0  1  0  0  0  0  0  0  0  0  0
    8.3632  -14.9046   19.7887 C   0  0  0  0  0  0  0  0  0  0  0  0
    8.2165  -14.1431   18.5340 C   0  0  0  0  0  0  0  0  0  0  0  0
    7.5544  -13.1138   18.3622 O   0  0  0  0  0  0  0  0  0  0  0  0
    9.4439  -16.7024   21.0333 C   0  0  0  0  0  0  0  0  0  0  0  0
    8.5177  -16.7764   21.8691 O   0  0  0  0  0  0  0  0  0  0  0  0
    8.9102  -14.6583   17.4287 O   0  0  0  0  0  0  0  0  0  0  0  0
   10.7424  -17.1279   21.4525 N   0  0  0  0  0  0  0  0  0  0  0  0
   11.0295  -17.6546   22.7459 C   0  0  1  0  0  0  0  0  0  0  0  0
   12.2047  -18.5152   22.8881 C   0  0  0  0  0  0  0  0  0  0  0  0
   12.5337  -19.5732   21.9429 C   0  0  0  0  0  0  0  0  0  0  0  0
   13.7634  -20.3477   22.0991 C   0  0  0  0  0  0  0  0  0  0  0  0
   14.9308  -20.0209   21.8946 O   0  0  0  0  0  0  0  0  0  0  0  0
   10.9040  -16.6183   23.8169 C   0  0  0  0  0  0  0  0  0  0  0  0
   11.5108  -15.5235   23.7180 O   0  0  0  0  0  0  0  0  0  0  0  0
   13.5985  -21.6843   22.5566 O   0  0  0  0  0  0  0  0  0  0  0  0
   10.1104  -16.8131   24.9741 N   0  0  0  0  0  0  0  0  0  0  0  0
   10.5105  -16.2554   26.2764 C   0  0  1  0  0  0  0  0  0  0  0  0
   10.0093  -14.8421   26.3576 C   0  0  0  0  0  0  0  0  0  0  0  0
    8.5909  -14.7066   26.0720 C   0  0  0  0  0  0  0  0  0  0  0  0
    7.7098  -15.7444   25.8030 C   0  0  0  0  0  0  0  0  0  0  0  0
    6.5002  -15.2223   25.5552 N   0  0  0  0  0  0  0  0  0  0  0  0
    6.5308  -13.8671   25.6477 C   0  0  0  0  0  0  0  0  0  0  0  0
    5.5509  -12.9084   25.4970 C   0  0  0  0  0  0  0  0  0  0  0  0
    5.8726  -11.5846   25.6730 C   0  0  0  0  0  0  0  0  0  0  0  0
    7.1535  -11.2321   25.9941 C   0  0  0  0  0  0  0  0  0  0  0  0
    8.1166  -12.1990   26.1398 C   0  0  0  0  0  0  0  0  0  0  0  0
    7.8384  -13.5367   25.9717 C   0  0  0  0  0  0  0  0  0  0  0  0
   10.1161  -17.1310   27.3787 C   0  0  0  0  0  0  0  0  0  0  0  0
   10.4555  -16.7973   28.5625 O   0  0  0  0  0  0  0  0  0  0  0  0
    9.3952  -18.3045   27.2791 O   0  0  0  0  0  0  0  0  0  0  0  0
  2  1  1  1
  2  3  1  0
  3  4  1  0
  4  5  2  0
  4  8  1  0
  6  7  2  0
  6  2  1  0
  9  6  1  0
 10 11  1  6
 10  9  1  0
 11 12  1  0
 12 13  1  0
 13 17  1  0
 14 13  2  0
 15 18  1  0
 15 10  1  0
 16 15  2  0
 19 18  1  0
 19 20  1  1
 20 21  1  0
 21 22  2  0
 22 23  1  0
 24 23  1  0
 25 24  2  0
 26 25  1  0
 27 28  1  0
 27 26  2  0
 28 29  2  0
 29 21  1  0
 29 24  1  0
 30 32  1  0
 30 19  1  0
 31 30  2  0
M  END
$$$$
