DEW.pdb
     RDKit          3D

 32 33  0  0  1  0  0  0  0  0999 V2000
   10.9177  -18.0314   18.3115 N   0  0  0  0  0  0  0  0  0  0  0  0
    9.8300  -17.2350   18.8128 C   0  0  1  0  0  0  0  0  0  0  0  0
    8.5772  -17.4970   18.0493 C   0  0  0  0  0  0  0  0  0  0  0  0
    8.6379  -17.2058   16.6046 C   0  0  0  0  0  0  0  0  0  0  0  0
    9.0194  -17.9665   15.7083 O   0  0  0  0  0  0  0  0  0  0  0  0
    9.5887  -17.3940   20.2662 C   0  0  0  0  0  0  0  0  0  0  0  0
    8.6999  -16.6937   20.7967 O   0  0  0  0  0  0  0  0  0  0  0  0
    8.2131  -15.9230   16.2273 O   0  0  0  0  0  0  0  0  0  0  0  0
   10.3070  -18.2950   21.1120 N   0  0  0  0  0  0  0  0  0  0  0  0
    9.9426  -18.5848   22.4596 C   0  0  1  0  0  0  0  0  0  0  0  0
   10.0891  -19.9643   22.9258 C   0  0  0  0  0  0  0  0  0  0  0  0
    9.6400  -21.1153   22.1548 C   0  0  0  0  0  0  0  0  0  0  0  0
    9.8505  -22.4708   22.6598 C   0  0  0  0  0  0  0  0  0  0  0  0
    9.0836  -23.4314   22.6791 O   0  0  0  0  0  0  0  0  0  0  0  0
   10.4667  -17.5624   23.4173 C   0  0  0  0  0  0  0  0  0  0  0  0
   11.5967  -17.0444   23.2404 O   0  0  0  0  0  0  0  0  0  0  0  0
   11.1334  -22.7311   23.2160 O   0  0  0  0  0  0  0  0  0  0  0  0
    9.7312  -17.1338   24.5496 N   0  0  0  0  0  0  0  0  0  0  0  0
   10.3574  -16.3160   25.6013 C   0  0  1  0  0  0  0  0  0  0  0  0
    9.8593  -14.9063   25.4611 C   0  0  0  0  0  0  0  0  0  0  0  0
    8.4546  -14.7456   25.7970 C   0  0  0  0  0  0  0  0  0  0  0  0
    7.4987  -15.7515   25.8113 C   0  0  0  0  0  0  0  0  0  0  0  0
    6.3156  -15.2097   26.1342 N   0  0  0  0  0  0  0  0  0  0  0  0
    6.4368  -13.8722   26.3398 C   0  0  0  0  0  0  0  0  0  0  0  0
    5.5208  -12.9060   26.6997 C   0  0  0  0  0  0  0  0  0  0  0  0
    5.9402  -11.6077   26.8585 C   0  0  0  0  0  0  0  0  0  0  0  0
    7.2540  -11.2874   26.6596 C   0  0  0  0  0  0  0  0  0  0  0  0
    8.1523  -12.2613   26.3012 C   0  0  0  0  0  0  0  0  0  0  0  0
    7.7752  -13.5741   26.1303 C   0  0  0  0  0  0  0  0  0  0  0  0
   10.1869  -16.9190   26.9222 C   0  0  0  0  0  0  0  0  0  0  0  0
   10.7913  -16.3835   27.9100 O   0  0  0  0  0  0  0  0  0  0  0  0
    9.4218  -18.0271   27.2276 O   0  0  0  0  0  0  0  0  0  0  0  0
  2  1  1  6
  2  3  1  0
  3  4  1  0
  4  5  2  0
  4  8  1  0
  6  7  2  0
  6  2  1  0
  9  6  1  0
 10 11  1  1
 10  9  1  0
 11 12  1  0
 12 13  1  0
 13 17  1  0
 14 13  2  0
 15 18  1  0
 15 10  1  0
 16 15  2  0
 19 18  1  0
 19 20  1  1
 20 21  1  0
 21 22  2  0
 22 23  1  0
 24 23  1  0
 25 24  2  0
 26 25  1  0
 27 28  1  0
 27 26  2  0
 28 29  2  0
 29 21  1  0
 29 24  1  0
 30 32  1  0
 30 19  1  0
 31 30  2  0
M  END
$$$$
