DEW.pdb
     RDKit          3D

 32 33  0  0  1  0  0  0  0  0999 V2000
   10.1379  -15.5696   18.5899 N   0  0  0  0  0  0  0  0  0  0  0  0
    9.4241  -14.9209   19.6568 C   0  0  1  0  0  0  0  0  0  0  0  0
    8.0785  -14.4678   19.2039 C   0  0  0  0  0  0  0  0  0  0  0  0
    7.9063  -14.3394   17.7447 C   0  0  0  0  0  0  0  0  0  0  0  0
    6.8905  -13.9696   17.1456 O   0  0  0  0  0  0  0  0  0  0  0  0
    9.3037  -15.7411   20.8851 C   0  0  0  0  0  0  0  0  0  0  0  0
    8.6026  -15.3013   21.8216 O   0  0  0  0  0  0  0  0  0  0  0  0
    9.0266  -14.6778   16.9709 O   0  0  0  0  0  0  0  0  0  0  0  0
    9.9390  -17.0068   21.0786 N   0  0  0  0  0  0  0  0  0  0  0  0
    9.8528  -17.7661   22.2822 C   0  0  1  0  0  0  0  0  0  0  0  0
   10.2152  -19.1828   22.2242 C   0  0  0  0  0  0  0  0  0  0  0  0
   11.5840  -19.6459   22.0429 C   0  0  0  0  0  0  0  0  0  0  0  0
   11.8748  -21.0755   21.9533 C   0  0  0  0  0  0  0  0  0  0  0  0
   12.9514  -21.6526   21.8142 O   0  0  0  0  0  0  0  0  0  0  0  0
   10.4373  -17.0382   23.4508 C   0  0  0  0  0  0  0  0  0  0  0  0
   11.5650  -16.4933   23.3622 O   0  0  0  0  0  0  0  0  0  0  0  0
   10.7500  -21.9418   22.0387 O   0  0  0  0  0  0  0  0  0  0  0  0
    9.7635  -16.9274   24.6919 N   0  0  0  0  0  0  0  0  0  0  0  0
   10.4147  -16.3149   25.8615 C   0  0  1  0  0  0  0  0  0  0  0  0
    9.9314  -14.8981   25.9816 C   0  0  0  0  0  0  0  0  0  0  0  0
    8.4989  -14.7845   26.1980 C   0  0  0  0  0  0  0  0  0  0  0  0
    7.5866  -15.8301   26.1880 C   0  0  0  0  0  0  0  0  0  0  0  0
    6.3604  -15.3270   26.3896 N   0  0  0  0  0  0  0  0  0  0  0  0
    6.4102  -13.9773   26.5367 C   0  0  0  0  0  0  0  0  0  0  0  0
    5.4299  -13.0370   26.7750 C   0  0  0  0  0  0  0  0  0  0  0  0
    5.7821  -11.7153   26.9009 C   0  0  0  0  0  0  0  0  0  0  0  0
    7.0936  -11.3466   26.7895 C   0  0  0  0  0  0  0  0  0  0  0  0
    8.0565  -12.2952   26.5518 C   0  0  0  0  0  0  0  0  0  0  0  0
    7.7480  -13.6301   26.4180 C   0  0  0  0  0  0  0  0  0  0  0  0
   10.2562  -17.1411   27.0573 C   0  0  0  0  0  0  0  0  0  0  0  0
    9.5129  -18.1752   26.9792 O   0  0  0  0  0  0  0  0  0  0  0  0
   10.8396  -16.9242   28.2898 O   0  0  0  0  0  0  0  0  0  0  0  0
  2  1  1  6
  2  3  1  0
  3  4  1  0
  4  5  2  0
  4  8  1  0
  6  7  2  0
  6  2  1  0
  9  6  1  0
 10 11  1  6
 10  9  1  0
 11 12  1  0
 12 13  1  0
 13 17  1  0
 14 13  2  0
 15 18  1  0
 15 10  1  0
 16 15  2  0
 19 18  1  0
 19 20  1  1
 20 21  1  0
 21 22  2  0
 22 23  1  0
 24 23  1  0
 25 24  2  0
 26 25  1  0
 27 28  1  0
 27 26  2  0
 28 29  2  0
 29 21  1  0
 29 24  1  0
 30 32  1  0
 30 19  1  0
 31 30  2  0
M  END
$$$$
