DEW.pdb
     RDKit          3D

 32 33  0  0  1  0  0  0  0  0999 V2000
    8.8973  -13.2726   19.4247 N   0  0  0  0  0  0  0  0  0  0  0  0
    7.8789  -14.2216   19.7864 C   0  0  1  0  0  0  0  0  0  0  0  0
    7.1361  -14.6953   18.5844 C   0  0  0  0  0  0  0  0  0  0  0  0
    7.9411  -15.4150   17.5797 C   0  0  0  0  0  0  0  0  0  0  0  0
    9.1561  -15.6374   17.6211 O   0  0  0  0  0  0  0  0  0  0  0  0
    8.3831  -15.3760   20.5670 C   0  0  0  0  0  0  0  0  0  0  0  0
    7.8714  -16.4971   20.3594 O   0  0  0  0  0  0  0  0  0  0  0  0
    7.2340  -15.8901   16.4649 O   0  0  0  0  0  0  0  0  0  0  0  0
    9.4181  -15.2983   21.5498 N   0  0  0  0  0  0  0  0  0  0  0  0
    9.8928  -16.4158   22.2972 C   0  0  1  0  0  0  0  0  0  0  0  0
   11.0049  -17.1876   21.7409 C   0  0  0  0  0  0  0  0  0  0  0  0
   11.4711  -18.4398   22.3202 C   0  0  0  0  0  0  0  0  0  0  0  0
   12.5924  -19.1597   21.7196 C   0  0  0  0  0  0  0  0  0  0  0  0
   12.8642  -19.3466   20.5353 O   0  0  0  0  0  0  0  0  0  0  0  0
   10.0426  -16.0986   23.7511 C   0  0  0  0  0  0  0  0  0  0  0  0
   10.7225  -15.1096   24.1203 O   0  0  0  0  0  0  0  0  0  0  0  0
   13.5173  -19.7367   22.6333 O   0  0  0  0  0  0  0  0  0  0  0  0
    9.4380  -16.8802   24.7661 N   0  0  0  0  0  0  0  0  0  0  0  0
    9.6853  -16.6043   26.1908 C   0  0  1  0  0  0  0  0  0  0  0  0
    8.3605  -16.5388   26.8949 C   0  0  0  0  0  0  0  0  0  0  0  0
    7.4623  -15.5296   26.3596 C   0  0  0  0  0  0  0  0  0  0  0  0
    6.3310  -15.7684   25.5922 C   0  0  0  0  0  0  0  0  0  0  0  0
    5.7863  -14.5897   25.2587 N   0  0  0  0  0  0  0  0  0  0  0  0
    6.5086  -13.5607   25.7740 C   0  0  0  0  0  0  0  0  0  0  0  0
    6.3389  -12.1933   25.7173 C   0  0  0  0  0  0  0  0  0  0  0  0
    7.2344  -11.3771   26.3643 C   0  0  0  0  0  0  0  0  0  0  0  0
    8.2794  -11.9249   27.0544 C   0  0  0  0  0  0  0  0  0  0  0  0
    8.4338  -13.2879   27.1001 C   0  0  0  0  0  0  0  0  0  0  0  0
    7.5608  -14.1425   26.4657 C   0  0  0  0  0  0  0  0  0  0  0  0
   10.6573  -17.5382   26.7569 C   0  0  0  0  0  0  0  0  0  0  0  0
   11.0876  -18.4819   26.0138 O   0  0  0  0  0  0  0  0  0  0  0  0
   11.1778  -17.5086   28.0355 O   0  0  0  0  0  0  0  0  0  0  0  0
  2  1  1  6
  2  3  1  0
  3  4  1  0
  4  5  2  0
  4  8  1  0
  6  7  2  0
  6  2  1  0
  9  6  1  0
 10 11  1  6
 10  9  1  0
 11 12  1  0
 12 13  1  0
 13 17  1  0
 14 13  2  0
 15 18  1  0
 15 10  1  0
 16 15  2  0
 19 18  1  0
 19 20  1  1
 20 21  1  0
 21 22  2  0
 22 23  1  0
 24 23  1  0
 25 24  2  0
 26 25  1  0
 27 28  1  0
 27 26  2  0
 28 29  2  0
 29 21  1  0
 29 24  1  0
 30 32  1  0
 30 19  1  0
 31 30  2  0
M  END
$$$$
