DEW.pdb
     RDKit          3D

 32 33  0  0  1  0  0  0  0  0999 V2000
   10.5338  -18.8808   19.9735 N   0  0  0  0  0  0  0  0  0  0  0  0
   11.1772  -17.5967   19.8971 C   0  0  1  0  0  0  0  0  0  0  0  0
   11.4787  -17.2312   18.4841 C   0  0  0  0  0  0  0  0  0  0  0  0
   12.7328  -17.7816   17.9365 C   0  0  0  0  0  0  0  0  0  0  0  0
   13.3890  -18.7271   18.3871 O   0  0  0  0  0  0  0  0  0  0  0  0
   10.4237  -16.5066   20.5603 C   0  0  0  0  0  0  0  0  0  0  0  0
   10.9947  -15.4062   20.7184 O   0  0  0  0  0  0  0  0  0  0  0  0
   13.2167  -17.1510   16.7805 O   0  0  0  0  0  0  0  0  0  0  0  0
    9.0820  -16.6249   21.0388 N   0  0  0  0  0  0  0  0  0  0  0  0
    8.3930  -15.5940   21.7425 C   0  0  1  0  0  0  0  0  0  0  0  0
    6.9299  -15.6037   21.7091 C   0  0  0  0  0  0  0  0  0  0  0  0
    6.1615  -16.4434   20.8006 C   0  0  0  0  0  0  0  0  0  0  0  0
    5.3514  -17.5443   21.3186 C   0  0  0  0  0  0  0  0  0  0  0  0
    5.3287  -18.0443   22.4415 O   0  0  0  0  0  0  0  0  0  0  0  0
    8.9667  -15.3605   23.1038 C   0  0  0  0  0  0  0  0  0  0  0  0
    9.2334  -14.1964   23.4913 O   0  0  0  0  0  0  0  0  0  0  0  0
    4.4477  -18.1357   20.3931 O   0  0  0  0  0  0  0  0  0  0  0  0
    9.2331  -16.4179   24.0082 N   0  0  0  0  0  0  0  0  0  0  0  0
   10.0049  -16.1911   25.2411 C   0  0  1  0  0  0  0  0  0  0  0  0
    9.0777  -16.3456   26.4123 C   0  0  0  0  0  0  0  0  0  0  0  0
    7.9410  -15.4408   26.3826 C   0  0  0  0  0  0  0  0  0  0  0  0
    6.6296  -15.7873   26.0894 C   0  0  0  0  0  0  0  0  0  0  0  0
    5.8777  -14.6780   26.1271 N   0  0  0  0  0  0  0  0  0  0  0  0
    6.6337  -13.5923   26.4364 C   0  0  0  0  0  0  0  0  0  0  0  0
    6.3140  -12.2613   26.6043 C   0  0  0  0  0  0  0  0  0  0  0  0
    7.3024  -11.3699   26.9433 C   0  0  0  0  0  0  0  0  0  0  0  0
    8.5864  -11.8079   27.1102 C   0  0  0  0  0  0  0  0  0  0  0  0
    8.8873  -13.1359   26.9387 C   0  0  0  0  0  0  0  0  0  0  0  0
    7.9284  -14.0630   26.5982 C   0  0  0  0  0  0  0  0  0  0  0  0
   11.2124  -17.0145   25.2769 C   0  0  0  0  0  0  0  0  0  0  0  0
   11.4102  -17.8333   24.3187 O   0  0  0  0  0  0  0  0  0  0  0  0
   12.1885  -17.0004   26.2534 O   0  0  0  0  0  0  0  0  0  0  0  0
  2  1  1  6
  2  3  1  0
  3  4  1  0
  4  5  2  0
  4  8  1  0
  6  7  2  0
  6  2  1  0
  9  6  1  0
 10 11  1  1
 10  9  1  0
 11 12  1  0
 12 13  1  0
 13 17  1  0
 14 13  2  0
 15 18  1  0
 15 10  1  0
 16 15  2  0
 19 18  1  0
 19 20  1  1
 20 21  1  0
 21 22  2  0
 22 23  1  0
 24 23  1  0
 25 24  2  0
 26 25  1  0
 27 28  1  0
 27 26  2  0
 28 29  2  0
 29 21  1  0
 29 24  1  0
 30 32  1  0
 30 19  1  0
 31 30  2  0
M  END
$$$$
