SCS.pdb
     RDKit          3D

 19 18  0  0  1  0  0  0  0  0999 V2000
   18.7830  -10.3045  -18.4786 O   0  0  0  0  0  0  0  0  0  0  0  0
   18.7667  -11.6813  -18.2444 C   0  0  0  0  0  0  0  0  0  0  0  0
   20.0906  -12.0415  -17.6179 C   0  0  2  0  0  0  0  0  0  0  0  0
   20.1952  -13.4569  -17.4469 N   0  0  0  0  0  0  0  0  0  0  0  0
   20.3428  -11.3557  -16.3515 C   0  0  0  0  0  0  0  0  0  0  0  0
   19.7203  -11.6448  -15.2718 O   0  0  0  0  0  0  0  0  0  0  0  0
   21.3193  -10.3221  -16.3075 N   0  0  0  0  0  0  0  0  0  0  0  0
   21.5405   -9.5470  -15.0990 C   0  0  1  0  0  0  0  0  0  0  0  0
   22.6349  -10.1391  -14.2469 C   0  0  0  0  0  0  0  0  0  0  0  0
   24.1365  -10.2177  -15.2718 S   0  0  0  0  0  0  0  0  0  0  0  0
   21.7884   -8.1136  -15.4147 C   0  0  0  0  0  0  0  0  0  0  0  0
   22.5266   -7.8146  -16.3873 O   0  0  0  0  0  0  0  0  0  0  0  0
   19.2960   -5.2655  -14.2114 O   0  0  0  0  0  0  0  0  0  0  0  0
   20.1201   -5.0036  -15.3043 C   0  0  0  0  0  0  0  0  0  0  0  0
   21.4318   -5.6835  -15.0598 C   0  0  2  0  0  0  0  0  0  0  0  0
   21.2223   -7.0547  -14.6583 N   0  0  0  0  0  0  0  0  0  0  0  0
   22.2004   -4.9336  -14.0148 C   0  0  0  0  0  0  0  0  0  0  0  0
   22.6356   -3.6336  -14.2192 O   0  0  0  0  0  0  0  0  0  0  0  0
   22.4740   -5.4701  -12.9121 O   0  0  0  0  0  0  0  0  0  0  0  0
  2  1  1  0
  3  2  1  0
  3  4  1  1
  5  6  2  0
  5  3  1  0
  7  5  1  0
  8  7  1  0
  8  9  1  6
 10  9  1  0
 11  8  1  0
 11 12  2  0
 13 14  1  0
 15 16  1  0
 15 14  1  1
 16 11  1  0
 17 15  1  0
 18 17  1  0
 19 17  2  0
M  END
$$$$
