SCS.pdb
     RDKit          3D

 19 18  0  0  1  0  0  0  0  0999 V2000
   28.2396  -18.2034  -15.9765 O   0  0  0  0  0  0  0  0  0  0  0  0
   27.1429  -18.9828  -15.6016 C   0  0  0  0  0  0  0  0  0  0  0  0
   27.6858  -20.2324  -14.9547 C   0  0  2  0  0  0  0  0  0  0  0  0
   28.2311  -21.1110  -15.9417 N   0  0  0  0  0  0  0  0  0  0  0  0
   26.7040  -20.9375  -14.1322 C   0  0  0  0  0  0  0  0  0  0  0  0
   25.9824  -21.8933  -14.5824 O   0  0  0  0  0  0  0  0  0  0  0  0
   26.5363  -20.5522  -12.7731 N   0  0  0  0  0  0  0  0  0  0  0  0
   25.4187  -21.0417  -11.9846 C   0  0  1  0  0  0  0  0  0  0  0  0
   25.5383  -20.6415  -10.5355 C   0  0  0  0  0  0  0  0  0  0  0  0
   23.9606  -21.0539   -9.7280 S   0  0  0  0  0  0  0  0  0  0  0  0
   24.1175  -20.6261  -12.5761 C   0  0  0  0  0  0  0  0  0  0  0  0
   23.8993  -19.4072  -12.7926 O   0  0  0  0  0  0  0  0  0  0  0  0
   20.2608  -21.4705  -15.1496 O   0  0  0  0  0  0  0  0  0  0  0  0
   21.4170  -22.0080  -14.5869 C   0  0  0  0  0  0  0  0  0  0  0  0
   21.8563  -21.0931  -13.4858 C   0  0  2  0  0  0  0  0  0  0  0  0
   23.0983  -21.5548  -12.9115 N   0  0  0  0  0  0  0  0  0  0  0  0
   20.7845  -21.0107  -12.4421 C   0  0  0  0  0  0  0  0  0  0  0  0
   19.6301  -20.2685  -12.6362 O   0  0  0  0  0  0  0  0  0  0  0  0
   20.9054  -21.6197  -11.3498 O   0  0  0  0  0  0  0  0  0  0  0  0
  2  1  1  0
  3  2  1  0
  3  4  1  6
  5  6  2  0
  5  3  1  0
  7  5  1  0
  8  7  1  0
  8  9  1  1
 10  9  1  0
 11  8  1  0
 11 12  2  0
 13 14  1  0
 15 16  1  0
 15 14  1  6
 16 11  1  0
 17 15  1  0
 18 17  1  0
 19 17  2  0
M  END
$$$$
