SCS.pdb
     RDKit          3D

 19 18  0  0  1  0  0  0  0  0999 V2000
   17.3198  -11.7664  -18.9651 O   0  0  0  0  0  0  0  0  0  0  0  0
   17.5217  -10.9377  -17.8591 C   0  0  0  0  0  0  0  0  0  0  0  0
   18.8716  -11.2853  -17.2833 C   0  0  2  0  0  0  0  0  0  0  0  0
   18.8445  -12.5873  -16.6937 N   0  0  0  0  0  0  0  0  0  0  0  0
   19.3670  -10.3014  -16.3220 C   0  0  0  0  0  0  0  0  0  0  0  0
   18.7911  -10.0774  -15.2018 O   0  0  0  0  0  0  0  0  0  0  0  0
   20.5378   -9.5567  -16.6359 N   0  0  0  0  0  0  0  0  0  0  0  0
   21.0520   -8.5453  -15.7288 C   0  0  1  0  0  0  0  0  0  0  0  0
   22.4788   -8.8257  -15.3288 C   0  0  0  0  0  0  0  0  0  0  0  0
   22.9728   -7.5349  -14.1451 S   0  0  0  0  0  0  0  0  0  0  0  0
   20.8859   -7.1784  -16.2941 C   0  0  0  0  0  0  0  0  0  0  0  0
   21.3555   -6.9195  -17.4311 O   0  0  0  0  0  0  0  0  0  0  0  0
   17.7765   -5.2562  -16.1252 O   0  0  0  0  0  0  0  0  0  0  0  0
   18.7243   -4.2600  -15.8982 C   0  0  0  0  0  0  0  0  0  0  0  0
   20.0729   -4.8354  -16.2029 C   0  0  2  0  0  0  0  0  0  0  0  0
   20.2129   -6.1400  -15.5995 N   0  0  0  0  0  0  0  0  0  0  0  0
   21.1398   -3.9044  -15.7134 C   0  0  0  0  0  0  0  0  0  0  0  0
   21.1842   -2.5744  -16.1013 O   0  0  0  0  0  0  0  0  0  0  0  0
   22.0333   -4.3096  -14.9286 O   0  0  0  0  0  0  0  0  0  0  0  0
  2  1  1  0
  3  2  1  0
  3  4  1  1
  5  6  2  0
  5  3  1  0
  7  5  1  0
  8  7  1  0
  8  9  1  6
 10  9  1  0
 11  8  1  0
 11 12  2  0
 13 14  1  0
 15 16  1  0
 15 14  1  1
 16 11  1  0
 17 15  1  0
 18 17  1  0
 19 17  2  0
M  END
$$$$
