SCS.pdb
     RDKit          3D

 19 18  0  0  1  0  0  0  0  0999 V2000
   19.4311   -9.1975  -20.9701 O   0  0  0  0  0  0  0  0  0  0  0  0
   18.9796   -8.7355  -19.7317 C   0  0  0  0  0  0  0  0  0  0  0  0
   19.5082   -9.6829  -18.6840 C   0  0  2  0  0  0  0  0  0  0  0  0
   18.5971  -10.7658  -18.4824 N   0  0  0  0  0  0  0  0  0  0  0  0
   19.8158   -9.0327  -17.4111 C   0  0  0  0  0  0  0  0  0  0  0  0
   18.9176   -8.7410  -16.5481 O   0  0  0  0  0  0  0  0  0  0  0  0
   21.1674   -8.7066  -17.1102 N   0  0  0  0  0  0  0  0  0  0  0  0
   21.5400   -8.1632  -15.8155 C   0  0  1  0  0  0  0  0  0  0  0  0
   22.7802   -8.8233  -15.2674 C   0  0  0  0  0  0  0  0  0  0  0  0
   22.2734   -9.8213  -13.8326 S   0  0  0  0  0  0  0  0  0  0  0  0
   21.6698   -6.6814  -15.8690 C   0  0  0  0  0  0  0  0  0  0  0  0
   22.4594   -6.1605  -16.6969 O   0  0  0  0  0  0  0  0  0  0  0  0
   19.3355   -4.1715  -13.5906 O   0  0  0  0  0  0  0  0  0  0  0  0
   19.7623   -3.7119  -14.8352 C   0  0  0  0  0  0  0  0  0  0  0  0
   21.0625   -4.3854  -15.1488 C   0  0  2  0  0  0  0  0  0  0  0  0
   20.9335   -5.8177  -15.0170 N   0  0  0  0  0  0  0  0  0  0  0  0
   22.1329   -3.8608  -14.2411 C   0  0  0  0  0  0  0  0  0  0  0  0
   22.5736   -2.5486  -14.3119 O   0  0  0  0  0  0  0  0  0  0  0  0
   22.6660   -4.6059  -13.3812 O   0  0  0  0  0  0  0  0  0  0  0  0
  2  1  1  0
  3  2  1  0
  3  4  1  1
  5  6  2  0
  5  3  1  0
  7  5  1  0
  8  7  1  0
  8  9  1  6
 10  9  1  0
 11  8  1  0
 11 12  2  0
 13 14  1  0
 15 16  1  0
 15 14  1  1
 16 11  1  0
 17 15  1  0
 18 17  1  0
 19 17  2  0
M  END
$$$$
