SCS.pdb
     RDKit          3D

 19 18  0  0  1  0  0  0  0  0999 V2000
   15.8427   -8.2349  -16.4627 O   0  0  0  0  0  0  0  0  0  0  0  0
   16.6863   -8.9159  -17.3433 C   0  0  0  0  0  0  0  0  0  0  0  0
   17.4155   -9.9636  -16.5400 C   0  0  2  0  0  0  0  0  0  0  0  0
   16.4921  -10.9077  -15.9928 N   0  0  0  0  0  0  0  0  0  0  0  0
   18.2598   -9.4066  -15.4843 C   0  0  0  0  0  0  0  0  0  0  0  0
   17.8732   -9.3078  -14.2687 O   0  0  0  0  0  0  0  0  0  0  0  0
   19.5675   -8.9527  -15.8122 N   0  0  0  0  0  0  0  0  0  0  0  0
   20.3792   -8.2344  -14.8450 C   0  0  1  0  0  0  0  0  0  0  0  0
   21.7416   -8.8605  -14.6827 C   0  0  0  0  0  0  0  0  0  0  0  0
   22.6151   -7.9282  -13.3869 S   0  0  0  0  0  0  0  0  0  0  0  0
   20.4633   -6.7865  -15.1798 C   0  0  0  0  0  0  0  0  0  0  0  0
   20.7277   -6.4401  -16.3590 O   0  0  0  0  0  0  0  0  0  0  0  0
   19.4275   -2.2500  -14.3637 O   0  0  0  0  0  0  0  0  0  0  0  0
   19.3308   -3.5570  -13.8897 C   0  0  0  0  0  0  0  0  0  0  0  0
   20.3662   -4.3763  -14.5964 C   0  0  2  0  0  0  0  0  0  0  0  0
   20.2561   -5.7652  -14.2166 N   0  0  0  0  0  0  0  0  0  0  0  0
   21.7307   -3.8439  -14.2811 C   0  0  0  0  0  0  0  0  0  0  0  0
   22.3811   -2.9546  -15.1222 O   0  0  0  0  0  0  0  0  0  0  0  0
   22.3289   -4.1940  -13.2331 O   0  0  0  0  0  0  0  0  0  0  0  0
  2  1  1  0
  3  2  1  0
  3  4  1  1
  5  6  2  0
  5  3  1  0
  7  5  1  0
  8  7  1  0
  8  9  1  6
 10  9  1  0
 11  8  1  0
 11 12  2  0
 13 14  1  0
 15 16  1  0
 15 14  1  1
 16 11  1  0
 17 15  1  0
 18 17  1  0
 19 17  2  0
M  END
$$$$
