SCS.pdb
     RDKit          3D

 19 18  0  0  1  0  0  0  0  0999 V2000
   18.4001   -9.9882  -17.5855 O   0  0  0  0  0  0  0  0  0  0  0  0
   18.3758  -11.0567  -16.6864 C   0  0  0  0  0  0  0  0  0  0  0  0
   17.3571  -10.7223  -15.6257 C   0  0  2  0  0  0  0  0  0  0  0  0
   16.0543  -10.6034  -16.2021 N   0  0  0  0  0  0  0  0  0  0  0  0
   17.6858   -9.5218  -14.8586 C   0  0  0  0  0  0  0  0  0  0  0  0
   17.1791   -8.3756  -15.1159 O   0  0  0  0  0  0  0  0  0  0  0  0
   18.6067   -9.6219  -13.7789 N   0  0  0  0  0  0  0  0  0  0  0  0
   18.9538   -8.4620  -12.9760 C   0  0  1  0  0  0  0  0  0  0  0  0
   19.3740   -8.8523  -11.5812 C   0  0  0  0  0  0  0  0  0  0  0  0
   17.8656   -9.2974  -10.6659 S   0  0  0  0  0  0  0  0  0  0  0  0
   19.9768   -7.6213  -13.6558 C   0  0  0  0  0  0  0  0  0  0  0  0
   20.8969   -8.1761  -14.3086 O   0  0  0  0  0  0  0  0  0  0  0  0
   21.2621   -3.5439  -15.6756 O   0  0  0  0  0  0  0  0  0  0  0  0
   20.2953   -4.2095  -14.9242 C   0  0  0  0  0  0  0  0  0  0  0  0
   20.9305   -5.4374  -14.3485 C   0  0  2  0  0  0  0  0  0  0  0  0
   19.9614   -6.2034  -13.6005 N   0  0  0  0  0  0  0  0  0  0  0  0
   22.0864   -5.0458  -13.4793 C   0  0  0  0  0  0  0  0  0  0  0  0
   23.3398   -4.7771  -14.0064 O   0  0  0  0  0  0  0  0  0  0  0  0
   21.9482   -4.9496  -12.2342 O   0  0  0  0  0  0  0  0  0  0  0  0
  2  1  1  0
  3  2  1  0
  3  4  1  6
  5  6  2  0
  5  3  1  0
  7  5  1  0
  8  7  1  0
  8  9  1  1
 10  9  1  0
 11  8  1  0
 11 12  2  0
 13 14  1  0
 15 16  1  0
 15 14  1  1
 16 11  1  0
 17 15  1  0
 18 17  1  0
 19 17  2  0
M  END
$$$$
