SCS.pdb
     RDKit          3D

 19 18  0  0  1  0  0  0  0  0999 V2000
   16.2797  -11.6531  -17.5329 O   0  0  0  0  0  0  0  0  0  0  0  0
   16.5684  -10.5964  -16.6664 C   0  0  0  0  0  0  0  0  0  0  0  0
   18.0012  -10.7617  -16.2254 C   0  0  2  0  0  0  0  0  0  0  0  0
   18.1600  -11.9722  -15.4818 N   0  0  0  0  0  0  0  0  0  0  0  0
   18.5116   -9.6243  -15.4615 C   0  0  0  0  0  0  0  0  0  0  0  0
   18.0431   -9.2922  -14.3182 O   0  0  0  0  0  0  0  0  0  0  0  0
   19.5735   -8.8481  -16.0034 N   0  0  0  0  0  0  0  0  0  0  0  0
   20.1396   -7.7303  -15.2683 C   0  0  1  0  0  0  0  0  0  0  0  0
   21.6306   -7.8734  -15.0929 C   0  0  0  0  0  0  0  0  0  0  0  0
   21.9068   -8.8520  -13.5839 S   0  0  0  0  0  0  0  0  0  0  0  0
   19.7701   -6.4307  -15.8930 C   0  0  0  0  0  0  0  0  0  0  0  0
   20.0498   -6.2251  -17.1012 O   0  0  0  0  0  0  0  0  0  0  0  0
   17.5226   -3.6581  -13.9046 O   0  0  0  0  0  0  0  0  0  0  0  0
   17.3758   -3.7178  -15.2892 C   0  0  0  0  0  0  0  0  0  0  0  0
   18.6690   -4.2068  -15.8645 C   0  0  2  0  0  0  0  0  0  0  0  0
   19.1077   -5.3992  -15.1780 N   0  0  0  0  0  0  0  0  0  0  0  0
   19.7027   -3.1264  -15.7697 C   0  0  0  0  0  0  0  0  0  0  0  0
   19.5510   -1.9103  -16.4174 O   0  0  0  0  0  0  0  0  0  0  0  0
   20.7471   -3.2962  -15.0923 O   0  0  0  0  0  0  0  0  0  0  0  0
  2  1  1  0
  3  2  1  0
  3  4  1  1
  5  6  2  0
  5  3  1  0
  7  5  1  0
  8  7  1  0
  8  9  1  6
 10  9  1  0
 11  8  1  0
 11 12  2  0
 13 14  1  0
 15 16  1  0
 15 14  1  1
 16 11  1  0
 17 15  1  0
 18 17  1  0
 19 17  2  0
M  END
$$$$
