YDR.pdb
     RDKit          3D

 32 32  0  0  1  0  0  0  0  0999 V2000
    6.7950  -12.1823   17.5436 O   0  0  0  0  0  0  0  0  0  0  0  0
    7.3061  -12.8408   18.6552 C   0  0  0  0  0  0  0  0  0  0  0  0
    7.3184  -12.2225   19.8908 C   0  0  0  0  0  0  0  0  0  0  0  0
    7.8375  -12.9111   20.9832 C   0  0  0  0  0  0  0  0  0  0  0  0
    8.3404  -14.1916   20.8714 C   0  0  0  0  0  0  0  0  0  0  0  0
    8.8756  -14.8774   22.0456 C   0  0  0  0  0  0  0  0  0  0  0  0
    9.0102  -16.3647   21.8249 C   0  0  2  0  0  0  0  0  0  0  0  0
    7.6886  -16.9484   21.7287 N   0  0  0  0  0  0  0  0  0  0  0  0
    9.7474  -17.0091   22.9064 C   0  0  0  0  0  0  0  0  0  0  0  0
    9.1295  -17.6600   23.7852 O   0  0  0  0  0  0  0  0  0  0  0  0
    8.3283  -14.8091   19.6379 C   0  0  0  0  0  0  0  0  0  0  0  0
    7.8103  -14.1295   18.5339 C   0  0  0  0  0  0  0  0  0  0  0  0
   11.1710  -16.9573   23.0525 N   0  0  0  0  0  0  0  0  0  0  0  0
   11.8801  -17.5453   24.1650 C   0  0  1  0  0  0  0  0  0  0  0  0
   13.3509  -17.5453   23.8308 C   0  0  0  0  0  0  0  0  0  0  0  0
   13.7256  -18.3929   22.7025 C   0  0  0  0  0  0  0  0  0  0  0  0
   12.9698  -19.2105   22.1384 O   0  0  0  0  0  0  0  0  0  0  0  0
   11.6980  -16.7737   25.4183 C   0  0  0  0  0  0  0  0  0  0  0  0
   11.5104  -15.5337   25.3351 O   0  0  0  0  0  0  0  0  0  0  0  0
   15.0254  -18.3065   22.1896 O   0  0  0  0  0  0  0  0  0  0  0  0
    5.7486  -14.1360   26.1468 N   0  0  0  0  0  0  0  0  0  0  0  0
    6.7379  -13.1391   25.9221 C   0  0  0  0  0  0  0  0  0  0  0  0
    6.3513  -12.0304   25.4279 N   0  0  0  0  0  0  0  0  0  0  0  0
    8.1056  -13.3410   26.2259 N   0  0  0  0  0  0  0  0  0  0  0  0
    8.5150  -14.2894   27.2183 C   0  0  0  0  0  0  0  0  0  0  0  0
    9.1721  -15.5169   26.7188 C   0  0  0  0  0  0  0  0  0  0  0  0
    9.6296  -16.5428   27.6728 C   0  0  0  0  0  0  0  0  0  0  0  0
   11.0753  -16.7508   27.8772 C   0  0  2  0  0  0  0  0  0  0  0  0
   11.7241  -17.3586   26.7042 N   0  0  0  0  0  0  0  0  0  0  0  0
   11.3863  -17.5786   29.0398 C   0  0  0  0  0  0  0  0  0  0  0  0
   11.2071  -17.2024   30.2497 O   0  0  0  0  0  0  0  0  0  0  0  0
   11.9042  -18.8549   28.8885 O   0  0  0  0  0  0  0  0  0  0  0  0
  2  1  1  0
  3  2  2  0
  4  3  1  0
  5 11  1  0
  5  4  2  0
  6  5  1  0
  7  6  1  0
  7  8  1  1
  9 10  2  0
  9  7  1  0
 11 12  2  0
 12  2  1  0
 13  9  1  0
 14 13  1  0
 14 15  1  6
 16 15  1  0
 16 20  1  0
 17 16  2  0
 18 14  1  0
 19 18  2  0
 22 21  1  0
 22 23  2  0
 24 22  1  0
 25 24  1  0
 25 26  1  0
 27 26  1  0
 28 27  1  6
 28 29  1  0
 29 18  1  0
 30 28  1  0
 30 32  1  0
 31 30  2  0
M  END
$$$$
