YDR.pdb
     RDKit          3D

 32 32  0  0  1  0  0  0  0  0999 V2000
    8.7272  -11.9547   26.9469 O   0  0  0  0  0  0  0  0  0  0  0  0
    8.0136  -12.9211   26.2489 C   0  0  0  0  0  0  0  0  0  0  0  0
    8.3603  -13.2465   24.9515 C   0  0  0  0  0  0  0  0  0  0  0  0
    7.6241  -14.2193   24.2816 C   0  0  0  0  0  0  0  0  0  0  0  0
    6.5589  -14.8689   24.8719 C   0  0  0  0  0  0  0  0  0  0  0  0
    5.8139  -15.8846   24.1310 C   0  0  0  0  0  0  0  0  0  0  0  0
    6.4002  -17.2642   24.3085 C   0  0  2  0  0  0  0  0  0  0  0  0
    6.5664  -17.5274   25.7226 N   0  0  0  0  0  0  0  0  0  0  0  0
    7.6880  -17.3970   23.6358 C   0  0  0  0  0  0  0  0  0  0  0  0
    8.6106  -18.0583   24.1736 O   0  0  0  0  0  0  0  0  0  0  0  0
    6.2125  -14.5441   26.1671 C   0  0  0  0  0  0  0  0  0  0  0  0
    6.9429  -13.5701   26.8504 C   0  0  0  0  0  0  0  0  0  0  0  0
    7.9964  -16.8127   22.3654 N   0  0  0  0  0  0  0  0  0  0  0  0
    9.2055  -17.0986   21.6288 C   0  0  1  0  0  0  0  0  0  0  0  0
    9.0959  -16.4336   20.2796 C   0  0  0  0  0  0  0  0  0  0  0  0
    9.9905  -16.9667   19.2562 C   0  0  0  0  0  0  0  0  0  0  0  0
   10.8364  -17.8656   19.4415 O   0  0  0  0  0  0  0  0  0  0  0  0
   10.4136  -16.5645   22.3030 C   0  0  0  0  0  0  0  0  0  0  0  0
   10.5546  -15.3179   22.3780 O   0  0  0  0  0  0  0  0  0  0  0  0
    9.9195  -16.4519   17.9562 O   0  0  0  0  0  0  0  0  0  0  0  0
   12.9103  -17.5038   29.7675 N   0  0  0  0  0  0  0  0  0  0  0  0
   11.6139  -17.9775   29.4237 C   0  0  0  0  0  0  0  0  0  0  0  0
   10.7066  -17.9013   30.3146 N   0  0  0  0  0  0  0  0  0  0  0  0
   11.3131  -18.5171   28.1501 N   0  0  0  0  0  0  0  0  0  0  0  0
   12.2853  -18.5274   27.0981 C   0  0  0  0  0  0  0  0  0  0  0  0
   12.0155  -17.6358   25.9491 C   0  0  0  0  0  0  0  0  0  0  0  0
   12.9167  -17.6507   24.7831 C   0  0  0  0  0  0  0  0  0  0  0  0
   12.5788  -16.8461   23.5942 C   0  0  2  0  0  0  0  0  0  0  0  0
   11.4174  -17.3834   22.8670 N   0  0  0  0  0  0  0  0  0  0  0  0
   13.6813  -16.7181   22.6446 C   0  0  0  0  0  0  0  0  0  0  0  0
   14.0684  -17.6619   21.8720 O   0  0  0  0  0  0  0  0  0  0  0  0
   14.3848  -15.5304   22.5246 O   0  0  0  0  0  0  0  0  0  0  0  0
  2  1  1  0
  3  2  2  0
  4  3  1  0
  5 11  1  0
  5  4  2  0
  6  5  1  0
  7  6  1  0
  7  8  1  1
  9 10  2  0
  9  7  1  0
 11 12  2  0
 12  2  1  0
 13  9  1  0
 14 13  1  0
 14 15  1  6
 16 15  1  0
 16 20  1  0
 17 16  2  0
 18 14  1  0
 19 18  2  0
 22 21  1  0
 22 23  2  0
 24 22  1  0
 25 24  1  0
 25 26  1  0
 27 26  1  0
 28 27  1  1
 28 29  1  0
 29 18  1  0
 30 28  1  0
 30 32  1  0
 31 30  2  0
M  END
$$$$
