YDR.pdb
     RDKit          3D

 32 32  0  0  1  0  0  0  0  0999 V2000
    8.3076  -12.3434   17.7304 O   0  0  0  0  0  0  0  0  0  0  0  0
    8.5115  -13.2209   18.7882 C   0  0  0  0  0  0  0  0  0  0  0  0
    8.9972  -14.4939   18.5580 C   0  0  0  0  0  0  0  0  0  0  0  0
    9.1897  -15.3471   19.6407 C   0  0  0  0  0  0  0  0  0  0  0  0
    8.9109  -14.9620   20.9365 C   0  0  0  0  0  0  0  0  0  0  0  0
    9.1287  -15.8908   22.0434 C   0  0  0  0  0  0  0  0  0  0  0  0
    8.1423  -17.0335   22.0312 C   0  0  2  0  0  0  0  0  0  0  0  0
    6.8334  -16.5301   22.3920 N   0  0  0  0  0  0  0  0  0  0  0  0
    8.5271  -18.0924   22.9580 C   0  0  0  0  0  0  0  0  0  0  0  0
    8.1157  -18.0668   24.1445 O   0  0  0  0  0  0  0  0  0  0  0  0
    8.4259  -13.6912   21.1665 C   0  0  0  0  0  0  0  0  0  0  0  0
    8.2283  -12.8254   20.0893 C   0  0  0  0  0  0  0  0  0  0  0  0
    9.3671  -19.1992   22.6114 N   0  0  0  0  0  0  0  0  0  0  0  0
    9.8792  -20.1441   23.5765 C   0  0  1  0  0  0  0  0  0  0  0  0
   10.0586  -21.4693   22.8790 C   0  0  0  0  0  0  0  0  0  0  0  0
   10.5081  -22.5610   23.7381 C   0  0  0  0  0  0  0  0  0  0  0  0
   11.3322  -23.4389   23.4092 O   0  0  0  0  0  0  0  0  0  0  0  0
   11.1964  -19.7337   24.1203 C   0  0  0  0  0  0  0  0  0  0  0  0
   11.7581  -20.4847   24.9570 O   0  0  0  0  0  0  0  0  0  0  0  0
    9.9947  -22.6595   25.0368 O   0  0  0  0  0  0  0  0  0  0  0  0
   12.8426  -16.0673   18.5204 N   0  0  0  0  0  0  0  0  0  0  0  0
   13.2465  -14.8598   19.1543 C   0  0  0  0  0  0  0  0  0  0  0  0
   13.3869  -13.8297   18.4181 N   0  0  0  0  0  0  0  0  0  0  0  0
   13.4900  -14.7747   20.5461 N   0  0  0  0  0  0  0  0  0  0  0  0
   14.1464  -15.8339   21.2526 C   0  0  0  0  0  0  0  0  0  0  0  0
   13.3834  -16.4548   22.3573 C   0  0  0  0  0  0  0  0  0  0  0  0
   14.0025  -17.5187   23.1677 C   0  0  0  0  0  0  0  0  0  0  0  0
   13.2078  -18.1910   24.2124 C   0  0  2  0  0  0  0  0  0  0  0  0
   11.8557  -18.5408   23.7480 N   0  0  0  0  0  0  0  0  0  0  0  0
   13.0714  -17.4058   25.4365 C   0  0  0  0  0  0  0  0  0  0  0  0
   14.0631  -17.0015   26.1368 O   0  0  0  0  0  0  0  0  0  0  0  0
   11.8228  -17.0436   25.9161 O   0  0  0  0  0  0  0  0  0  0  0  0
  2  1  1  0
  3  2  2  0
  4  3  1  0
  5 11  1  0
  5  4  2  0
  6  5  1  0
  7  6  1  0
  7  8  1  1
  9 10  2  0
  9  7  1  0
 11 12  2  0
 12  2  1  0
 13  9  1  0
 14 13  1  0
 14 15  1  6
 16 15  1  0
 16 20  1  0
 17 16  2  0
 18 14  1  0
 19 18  2  0
 22 21  1  0
 22 23  2  0
 24 22  1  0
 25 24  1  0
 25 26  1  0
 27 26  1  0
 28 27  1  6
 28 29  1  0
 29 18  1  0
 30 28  1  0
 30 32  1  0
 31 30  2  0
M  END
$$$$
