YDR.pdb
     RDKit          3D

 32 32  0  0  1  0  0  0  0  0999 V2000
    7.2377  -11.7453   17.1869 O   0  0  0  0  0  0  0  0  0  0  0  0
    7.5935  -12.6106   18.2141 C   0  0  0  0  0  0  0  0  0  0  0  0
    6.6596  -13.4695   18.7611 C   0  0  0  0  0  0  0  0  0  0  0  0
    7.0501  -14.3231   19.7887 C   0  0  0  0  0  0  0  0  0  0  0  0
    8.3404  -14.3386   20.2787 C   0  0  0  0  0  0  0  0  0  0  0  0
    8.7067  -15.2521   21.3589 C   0  0  0  0  0  0  0  0  0  0  0  0
    9.4107  -16.4858   20.8479 C   0  0  2  0  0  0  0  0  0  0  0  0
    8.4876  -17.2542   20.0391 N   0  0  0  0  0  0  0  0  0  0  0  0
    9.9082  -17.3174   21.9385 C   0  0  0  0  0  0  0  0  0  0  0  0
    9.1041  -17.9877   22.6326 O   0  0  0  0  0  0  0  0  0  0  0  0
    9.2730  -13.4810   19.7329 C   0  0  0  0  0  0  0  0  0  0  0  0
    8.8943  -12.6198   18.7015 C   0  0  0  0  0  0  0  0  0  0  0  0
   11.2902  -17.4353   22.2946 N   0  0  0  0  0  0  0  0  0  0  0  0
   11.7505  -18.0905   23.4968 C   0  0  1  0  0  0  0  0  0  0  0  0
   13.2586  -18.0908   23.4774 C   0  0  0  0  0  0  0  0  0  0  0  0
   13.8854  -19.0589   24.3728 C   0  0  0  0  0  0  0  0  0  0  0  0
   15.1081  -19.3054   24.4191 O   0  0  0  0  0  0  0  0  0  0  0  0
   11.3110  -17.3846   24.7247 C   0  0  0  0  0  0  0  0  0  0  0  0
   11.6083  -16.1704   24.8553 O   0  0  0  0  0  0  0  0  0  0  0  0
   13.0812  -19.7834   25.2608 O   0  0  0  0  0  0  0  0  0  0  0  0
    6.6815  -12.0510   25.3308 N   0  0  0  0  0  0  0  0  0  0  0  0
    6.4431  -12.6844   26.5819 C   0  0  0  0  0  0  0  0  0  0  0  0
    5.9959  -11.9602   27.5298 N   0  0  0  0  0  0  0  0  0  0  0  0
    6.6832  -14.0628   26.7958 N   0  0  0  0  0  0  0  0  0  0  0  0
    7.2229  -14.8933   25.7609 C   0  0  0  0  0  0  0  0  0  0  0  0
    8.5739  -15.4450   26.0024 C   0  0  0  0  0  0  0  0  0  0  0  0
    8.7257  -16.7222   26.7218 C   0  0  0  0  0  0  0  0  0  0  0  0
   10.0746  -17.2783   26.9370 C   0  0  2  0  0  0  0  0  0  0  0  0
   10.5744  -18.0048   25.7587 N   0  0  0  0  0  0  0  0  0  0  0  0
   10.1580  -18.1769   28.0856 C   0  0  0  0  0  0  0  0  0  0  0  0
    9.8281  -19.4127   28.0477 O   0  0  0  0  0  0  0  0  0  0  0  0
   10.6162  -17.7252   29.3127 O   0  0  0  0  0  0  0  0  0  0  0  0
  2  1  1  0
  3  2  2  0
  4  3  1  0
  5 11  1  0
  5  4  2  0
  6  5  1  0
  7  6  1  0
  7  8  1  1
  9 10  2  0
  9  7  1  0
 11 12  2  0
 12  2  1  0
 13  9  1  0
 14 13  1  0
 14 15  1  6
 16 15  1  0
 16 20  1  0
 17 16  2  0
 18 14  1  0
 19 18  2  0
 22 21  1  0
 22 23  2  0
 24 22  1  0
 25 24  1  0
 25 26  1  0
 27 26  1  0
 28 27  1  6
 28 29  1  0
 29 18  1  0
 30 28  1  0
 30 32  1  0
 31 30  2  0
M  END
$$$$
