YDR.pdb
     RDKit          3D

 32 32  0  0  1  0  0  0  0  0999 V2000
    5.5282  -10.2956   26.3097 O   0  0  0  0  0  0  0  0  0  0  0  0
    6.0244  -11.4831   25.7863 C   0  0  0  0  0  0  0  0  0  0  0  0
    6.6900  -11.4903   24.5755 C   0  0  0  0  0  0  0  0  0  0  0  0
    7.1743  -12.6976   24.0804 C   0  0  0  0  0  0  0  0  0  0  0  0
    7.0106  -13.8876   24.7604 C   0  0  0  0  0  0  0  0  0  0  0  0
    7.5360  -15.1321   24.2032 C   0  0  0  0  0  0  0  0  0  0  0  0
    8.8245  -14.9185   23.4463 C   0  0  2  0  0  0  0  0  0  0  0  0
    8.5206  -14.3524   22.1486 N   0  0  0  0  0  0  0  0  0  0  0  0
    9.5636  -16.1641   23.2710 C   0  0  0  0  0  0  0  0  0  0  0  0
    9.6947  -16.9562   24.2369 O   0  0  0  0  0  0  0  0  0  0  0  0
    6.3460  -13.8806   25.9692 C   0  0  0  0  0  0  0  0  0  0  0  0
    5.8553  -12.6763   26.4771 C   0  0  0  0  0  0  0  0  0  0  0  0
   10.1744  -16.5712   22.0414 N   0  0  0  0  0  0  0  0  0  0  0  0
   10.9531  -17.7795   21.9000 C   0  0  1  0  0  0  0  0  0  0  0  0
   11.3945  -17.8820   20.4614 C   0  0  0  0  0  0  0  0  0  0  0  0
   10.3247  -18.1611   19.5078 C   0  0  0  0  0  0  0  0  0  0  0  0
    9.5438  -19.1327   19.5710 O   0  0  0  0  0  0  0  0  0  0  0  0
   12.1686  -17.7672   22.7495 C   0  0  0  0  0  0  0  0  0  0  0  0
   12.9369  -16.7751   22.6795 O   0  0  0  0  0  0  0  0  0  0  0  0
   10.1329  -17.2912   18.4277 O   0  0  0  0  0  0  0  0  0  0  0  0
   10.7556  -17.4446   30.5318 N   0  0  0  0  0  0  0  0  0  0  0  0
   10.9233  -16.6148   29.3888 C   0  0  0  0  0  0  0  0  0  0  0  0
   10.9157  -15.3544   29.5732 N   0  0  0  0  0  0  0  0  0  0  0  0
   11.0943  -17.1393   28.0852 N   0  0  0  0  0  0  0  0  0  0  0  0
   11.6538  -18.4410   27.8746 C   0  0  0  0  0  0  0  0  0  0  0  0
   11.8290  -18.8580   26.4663 C   0  0  0  0  0  0  0  0  0  0  0  0
   13.1741  -19.1867   25.9617 C   0  0  0  0  0  0  0  0  0  0  0  0
   13.5886  -18.7031   24.6315 C   0  0  2  0  0  0  0  0  0  0  0  0
   12.5106  -18.8133   23.6356 N   0  0  0  0  0  0  0  0  0  0  0  0
   14.7613  -19.3930   24.1000 C   0  0  0  0  0  0  0  0  0  0  0  0
   14.7248  -20.1925   23.1016 O   0  0  0  0  0  0  0  0  0  0  0  0
   16.0134  -19.2093   24.6643 O   0  0  0  0  0  0  0  0  0  0  0  0
  2  1  1  0
  3  2  2  0
  4  3  1  0
  5 11  1  0
  5  4  2  0
  6  5  1  0
  7  6  1  0
  7  8  1  6
  9 10  2  0
  9  7  1  0
 11 12  2  0
 12  2  1  0
 13  9  1  0
 14 13  1  0
 14 15  1  6
 16 15  1  0
 16 20  1  0
 17 16  2  0
 18 14  1  0
 19 18  2  0
 22 21  1  0
 22 23  2  0
 24 22  1  0
 25 24  1  0
 25 26  1  0
 27 26  1  0
 28 27  1  1
 28 29  1  0
 29 18  1  0
 30 28  1  0
 30 32  1  0
 31 30  2  0
M  END
$$$$
