YDR.pdb
     RDKit          3D

 32 32  0  0  1  0  0  0  0  0999 V2000
    7.1151  -11.6063   17.4398 O   0  0  0  0  0  0  0  0  0  0  0  0
    7.4520  -12.5277   18.4238 C   0  0  0  0  0  0  0  0  0  0  0  0
    8.2659  -12.1600   19.4780 C   0  0  0  0  0  0  0  0  0  0  0  0
    8.5833  -13.1081   20.4462 C   0  0  0  0  0  0  0  0  0  0  0  0
    8.1110  -14.4037   20.3866 C   0  0  0  0  0  0  0  0  0  0  0  0
    8.4695  -15.3664   21.4258 C   0  0  0  0  0  0  0  0  0  0  0  0
    9.8335  -15.9712   21.1965 C   0  0  2  0  0  0  0  0  0  0  0  0
    9.8501  -16.6192   19.9017 N   0  0  0  0  0  0  0  0  0  0  0  0
   10.1769  -16.9425   22.2294 C   0  0  0  0  0  0  0  0  0  0  0  0
   10.5719  -18.0897   21.9044 O   0  0  0  0  0  0  0  0  0  0  0  0
    7.2984  -14.7710   19.3340 C   0  0  0  0  0  0  0  0  0  0  0  0
    6.9723  -13.8296   18.3561 C   0  0  0  0  0  0  0  0  0  0  0  0
   10.0969  -16.6841   23.6357 N   0  0  0  0  0  0  0  0  0  0  0  0
   10.9812  -17.2834   24.6078 C   0  0  1  0  0  0  0  0  0  0  0  0
   12.3994  -16.9701   24.2011 C   0  0  0  0  0  0  0  0  0  0  0  0
   13.1215  -18.0785   23.5831 C   0  0  0  0  0  0  0  0  0  0  0  0
   14.2722  -18.0063   23.1050 O   0  0  0  0  0  0  0  0  0  0  0  0
   10.7680  -16.7404   25.9712 C   0  0  0  0  0  0  0  0  0  0  0  0
   11.7751  -16.4198   26.6514 O   0  0  0  0  0  0  0  0  0  0  0  0
   12.5041  -19.3326   23.5050 O   0  0  0  0  0  0  0  0  0  0  0  0
    5.5661  -21.5581   25.4493 N   0  0  0  0  0  0  0  0  0  0  0  0
    6.7566  -22.2445   25.0823 C   0  0  0  0  0  0  0  0  0  0  0  0
    6.6348  -23.2770   24.3461 N   0  0  0  0  0  0  0  0  0  0  0  0
    8.0403  -21.8212   25.5026 N   0  0  0  0  0  0  0  0  0  0  0  0
    8.2061  -20.9645   26.6386 C   0  0  0  0  0  0  0  0  0  0  0  0
    8.6241  -19.5744   26.3544 C   0  0  0  0  0  0  0  0  0  0  0  0
    8.0762  -18.4662   27.1568 C   0  0  0  0  0  0  0  0  0  0  0  0
    8.9790  -17.4057   27.6418 C   0  0  2  0  0  0  0  0  0  0  0  0
    9.4906  -16.5636   26.5486 N   0  0  0  0  0  0  0  0  0  0  0  0
   10.1262  -17.9140   28.3897 C   0  0  0  0  0  0  0  0  0  0  0  0
   10.1445  -18.0452   29.6625 O   0  0  0  0  0  0  0  0  0  0  0  0
   11.2888  -18.2958   27.7398 O   0  0  0  0  0  0  0  0  0  0  0  0
  2  1  1  0
  3  2  2  0
  4  3  1  0
  5 11  1  0
  5  4  2  0
  6  5  1  0
  7  6  1  0
  7  8  1  6
  9 10  2  0
  9  7  1  0
 11 12  2  0
 12  2  1  0
 13  9  1  0
 14 13  1  0
 14 15  1  6
 16 15  1  0
 16 20  1  0
 17 16  2  0
 18 14  1  0
 19 18  2  0
 22 21  1  0
 22 23  2  0
 24 22  1  0
 25 24  1  0
 25 26  1  0
 27 26  1  0
 28 27  1  6
 28 29  1  0
 29 18  1  0
 30 28  1  0
 30 32  1  0
 31 30  2  0
M  END
$$$$
