YDR.pdb
     RDKit          3D

 32 32  0  0  1  0  0  0  0  0999 V2000
    7.2798  -11.6589   17.6409 O   0  0  0  0  0  0  0  0  0  0  0  0
    7.7406  -12.5124   18.6357 C   0  0  0  0  0  0  0  0  0  0  0  0
    6.8507  -13.1492   19.4794 C   0  0  0  0  0  0  0  0  0  0  0  0
    7.3466  -13.9976   20.4650 C   0  0  0  0  0  0  0  0  0  0  0  0
    8.6988  -14.2229   20.6263 C   0  0  0  0  0  0  0  0  0  0  0  0
    9.1752  -15.1226   21.6747 C   0  0  0  0  0  0  0  0  0  0  0  0
    9.7238  -16.4120   21.1133 C   0  0  2  0  0  0  0  0  0  0  0  0
    8.6500  -17.1412   20.4715 N   0  0  0  0  0  0  0  0  0  0  0  0
   10.3226  -17.2442   22.1513 C   0  0  0  0  0  0  0  0  0  0  0  0
    9.5917  -17.9614   22.8788 O   0  0  0  0  0  0  0  0  0  0  0  0
    9.5875  -13.5872   19.7841 C   0  0  0  0  0  0  0  0  0  0  0  0
    9.1032  -12.7337   18.7912 C   0  0  0  0  0  0  0  0  0  0  0  0
   11.7281  -17.3118   22.4175 N   0  0  0  0  0  0  0  0  0  0  0  0
   12.2905  -17.9841   23.5656 C   0  0  1  0  0  0  0  0  0  0  0  0
   13.7861  -18.0465   23.3808 C   0  0  0  0  0  0  0  0  0  0  0  0
   14.2426  -19.0016   22.3752 C   0  0  0  0  0  0  0  0  0  0  0  0
   13.6572  -20.0628   22.0769 O   0  0  0  0  0  0  0  0  0  0  0  0
   12.0177  -17.2593   24.8303 C   0  0  0  0  0  0  0  0  0  0  0  0
   12.9599  -16.6297   25.3739 O   0  0  0  0  0  0  0  0  0  0  0  0
   15.4245  -18.7366   21.6732 O   0  0  0  0  0  0  0  0  0  0  0  0
    4.9608  -13.1134   27.0910 N   0  0  0  0  0  0  0  0  0  0  0  0
    6.0531  -12.3255   26.6336 C   0  0  0  0  0  0  0  0  0  0  0  0
    5.8882  -11.0630   26.5916 N   0  0  0  0  0  0  0  0  0  0  0  0
    7.2869  -12.8927   26.2344 N   0  0  0  0  0  0  0  0  0  0  0  0
    7.5093  -14.3066   26.2929 C   0  0  0  0  0  0  0  0  0  0  0  0
    8.7979  -14.7428   26.8735 C   0  0  0  0  0  0  0  0  0  0  0  0
    9.1207  -16.1791   26.9441 C   0  0  0  0  0  0  0  0  0  0  0  0
   10.5181  -16.6183   26.7731 C   0  0  2  0  0  0  0  0  0  0  0  0
   10.7526  -17.2384   25.4592 N   0  0  0  0  0  0  0  0  0  0  0  0
   10.9626  -17.5595   27.7980 C   0  0  0  0  0  0  0  0  0  0  0  0
   10.7470  -18.8198   27.7484 O   0  0  0  0  0  0  0  0  0  0  0  0
   11.6657  -17.1237   28.9097 O   0  0  0  0  0  0  0  0  0  0  0  0
  2  1  1  0
  3  2  2  0
  4  3  1  0
  5 11  1  0
  5  4  2  0
  6  5  1  0
  7  6  1  0
  7  8  1  1
  9 10  2  0
  9  7  1  0
 11 12  2  0
 12  2  1  0
 13  9  1  0
 14 13  1  0
 14 15  1  6
 16 15  1  0
 16 20  1  0
 17 16  2  0
 18 14  1  0
 19 18  2  0
 22 21  1  0
 22 23  2  0
 24 22  1  0
 25 24  1  0
 25 26  1  0
 27 26  1  0
 28 27  1  1
 28 29  1  0
 29 18  1  0
 30 28  1  0
 30 32  1  0
 31 30  2  0
M  END
$$$$
