YDR.pdb
     RDKit          3D

 32 32  0  0  1  0  0  0  0  0999 V2000
    7.7377  -14.5857   13.8728 O   0  0  0  0  0  0  0  0  0  0  0  0
    7.6251  -14.4973   15.2549 C   0  0  0  0  0  0  0  0  0  0  0  0
    7.7607  -13.2786   15.8918 C   0  0  0  0  0  0  0  0  0  0  0  0
    7.6419  -13.2262   17.2775 C   0  0  0  0  0  0  0  0  0  0  0  0
    7.3932  -14.3526   18.0354 C   0  0  0  0  0  0  0  0  0  0  0  0
    7.2756  -14.2510   19.4884 C   0  0  0  0  0  0  0  0  0  0  0  0
    8.6180  -14.0847   20.1587 C   0  0  2  0  0  0  0  0  0  0  0  0
    9.6355  -13.9212   19.1415 N   0  0  0  0  0  0  0  0  0  0  0  0
    8.9509  -15.2305   20.9980 C   0  0  0  0  0  0  0  0  0  0  0  0
    8.1938  -15.5533   21.9469 O   0  0  0  0  0  0  0  0  0  0  0  0
    7.2579  -15.5694   17.3997 C   0  0  0  0  0  0  0  0  0  0  0  0
    7.3747  -15.6359   16.0102 C   0  0  0  0  0  0  0  0  0  0  0  0
   10.1141  -16.0468   20.8211 N   0  0  0  0  0  0  0  0  0  0  0  0
   10.4569  -17.1459   21.6934 C   0  0  1  0  0  0  0  0  0  0  0  0
   11.5198  -17.9683   21.0089 C   0  0  0  0  0  0  0  0  0  0  0  0
   11.9307  -19.1681   21.7323 C   0  0  0  0  0  0  0  0  0  0  0  0
   12.1630  -19.2219   22.9575 O   0  0  0  0  0  0  0  0  0  0  0  0
   11.0047  -16.6831   22.9915 C   0  0  0  0  0  0  0  0  0  0  0  0
   11.7763  -15.6910   22.9952 O   0  0  0  0  0  0  0  0  0  0  0  0
   12.0851  -20.3676   21.0270 O   0  0  0  0  0  0  0  0  0  0  0  0
    5.3836  -11.6165   25.5941 N   0  0  0  0  0  0  0  0  0  0  0  0
    6.1774  -11.9976   26.7111 C   0  0  0  0  0  0  0  0  0  0  0  0
    6.3660  -11.1261   27.6209 N   0  0  0  0  0  0  0  0  0  0  0  0
    6.7483  -13.2869   26.8354 N   0  0  0  0  0  0  0  0  0  0  0  0
    7.4853  -13.8809   25.7603 C   0  0  0  0  0  0  0  0  0  0  0  0
    8.0348  -15.2311   26.0111 C   0  0  0  0  0  0  0  0  0  0  0  0
    8.8437  -15.8969   24.9745 C   0  0  0  0  0  0  0  0  0  0  0  0
   10.0936  -16.5800   25.3565 C   0  0  2  0  0  0  0  0  0  0  0  0
   10.7056  -17.2989   24.2275 N   0  0  0  0  0  0  0  0  0  0  0  0
    9.9269  -17.5293   26.4541 C   0  0  0  0  0  0  0  0  0  0  0  0
    9.8873  -17.1912   27.6876 O   0  0  0  0  0  0  0  0  0  0  0  0
    9.7952  -18.8867   26.2091 O   0  0  0  0  0  0  0  0  0  0  0  0
  2  1  1  0
  3  2  2  0
  4  3  1  0
  5 11  1  0
  5  4  2  0
  6  5  1  0
  7  6  1  0
  7  8  1  6
  9 10  2  0
  9  7  1  0
 11 12  2  0
 12  2  1  0
 13  9  1  0
 14 13  1  0
 14 15  1  6
 16 15  1  0
 16 20  1  0
 17 16  2  0
 18 14  1  0
 19 18  2  0
 22 21  1  0
 22 23  2  0
 24 22  1  0
 25 24  1  0
 25 26  1  0
 27 26  1  0
 28 27  1  6
 28 29  1  0
 29 18  1  0
 30 28  1  0
 30 32  1  0
 31 30  2  0
M  END
$$$$
