RNC.pdb
     RDKit          3D

 26 25  0  0  1  0  0  0  0  0999 V2000
   16.1578  -18.4766  -16.3268 N   0  0  0  0  0  0  0  0  0  0  0  0
   15.1391  -17.4901  -16.2593 C   0  0  0  0  0  0  0  0  0  0  0  0
   13.9102  -17.7900  -16.0395 N   0  0  0  0  0  0  0  0  0  0  0  0
   15.4560  -16.1009  -16.4358 N   0  0  0  0  0  0  0  0  0  0  0  0
   16.7162  -15.6588  -16.9872 C   0  0  0  0  0  0  0  0  0  0  0  0
   17.5985  -15.2004  -15.8762 C   0  0  0  0  0  0  0  0  0  0  0  0
   18.2108  -13.8465  -16.0603 C   0  0  0  0  0  0  0  0  0  0  0  0
   19.2115  -13.8794  -17.1658 C   0  0  2  0  0  0  0  0  0  0  0  0
   20.0644  -15.0359  -16.9729 N   0  0  0  0  0  0  0  0  0  0  0  0
   20.0185  -12.6275  -17.2488 C   0  0  0  0  0  0  0  0  0  0  0  0
   21.0297  -12.4654  -16.5288 O   0  0  0  0  0  0  0  0  0  0  0  0
   13.1726  -17.0865  -15.9460 N   0  0  0  0  0  0  0  0  0  0  0  0
   20.6108   -7.3049  -20.4396 C   0  0  0  0  0  0  0  0  0  0  0  0
   21.0612   -8.5059  -19.8359 O   0  0  0  0  0  0  0  0  0  0  0  0
   22.2609   -8.5023  -19.4418 C   0  0  0  0  0  0  0  0  0  0  0  0
   20.2837   -9.7191  -19.6350 C   0  0  2  0  0  0  0  0  0  0  0  0
   20.3710  -10.3358  -18.2635 N   0  0  0  0  0  0  0  0  0  0  0  0
   19.6688  -11.5724  -18.1488 C   0  0  0  0  0  0  0  0  0  0  0  0
   20.1743   -9.3909  -17.1520 O   0  0  0  0  0  0  0  0  0  0  0  0
   19.0213   -9.0702  -16.8132 N   0  0  0  0  0  0  0  0  0  0  0  0
   21.2981   -8.8586  -16.4836 C   0  0  1  0  0  0  0  0  0  0  0  0
   21.1663   -7.9172  -15.4050 C   0  0  0  0  0  0  0  0  0  0  0  0
   22.1141   -8.1508  -14.2536 S   0  0  0  0  0  0  0  0  0  0  0  0
   21.2916   -8.9995  -12.9027 C   0  0  0  0  0  0  0  0  0  0  0  0
   21.1870   -6.5054  -15.8736 O   0  0  0  0  0  0  0  0  0  0  0  0
   21.0268   -5.5544  -15.0639 O   0  0  0  0  0  0  0  0  0  0  0  0
  2  1  1  0
  2  3  2  0
  4  2  1  0
  5  4  1  0
  6  5  1  0
  7  6  1  0
  8  7  1  0
  8  9  1  1
 10  8  1  0
 10 17  1  0
 11 10  2  0
 13 14  2  0
 13 12  1  0
 15 13  1  0
 16 17  1  0
 16 15  1  6
 18 16  1  0
 19 18  2  0
 20 18  1  0
 21 20  1  0
 21 24  1  0
 21 22  1  1
 23 22  1  0
 24 26  1  0
 25 24  2  0
M  END
$$$$
