RNC.pdb
     RDKit          3D

 26 25  0  0  1  0  0  0  0  0999 V2000
   32.5777  -25.1831  -15.8944 N   0  0  0  0  0  0  0  0  0  0  0  0
   32.2658  -25.7518  -17.1572 C   0  0  0  0  0  0  0  0  0  0  0  0
   32.6266  -26.9411  -17.4795 N   0  0  0  0  0  0  0  0  0  0  0  0
   31.5221  -25.0031  -18.1309 N   0  0  0  0  0  0  0  0  0  0  0  0
   30.8477  -23.7673  -17.8063 C   0  0  0  0  0  0  0  0  0  0  0  0
   29.8653  -24.0222  -16.7141 C   0  0  0  0  0  0  0  0  0  0  0  0
   28.4302  -23.7971  -17.0767 C   0  0  0  0  0  0  0  0  0  0  0  0
   27.8459  -22.7217  -16.2243 C   0  0  2  0  0  0  0  0  0  0  0  0
   28.4564  -22.7997  -14.9115 N   0  0  0  0  0  0  0  0  0  0  0  0
   26.3596  -22.8069  -16.1288 C   0  0  0  0  0  0  0  0  0  0  0  0
   25.6374  -22.5857  -17.1273 O   0  0  0  0  0  0  0  0  0  0  0  0
   32.4189  -27.3593  -18.3904 N   0  0  0  0  0  0  0  0  0  0  0  0
   22.3088  -25.0880  -15.6819 C   0  0  0  0  0  0  0  0  0  0  0  0
   22.8769  -25.1644  -14.3854 O   0  0  0  0  0  0  0  0  0  0  0  0
   22.5313  -26.1642  -13.6959 C   0  0  0  0  0  0  0  0  0  0  0  0
   23.8018  -24.2136  -13.7874 C   0  0  2  0  0  0  0  0  0  0  0  0
   24.2968  -23.1186  -14.6958 N   0  0  0  0  0  0  0  0  0  0  0  0
   25.7085  -23.1425  -14.9005 C   0  0  0  0  0  0  0  0  0  0  0  0
   23.7184  -21.7915  -14.4292 O   0  0  0  0  0  0  0  0  0  0  0  0
   24.3824  -20.9444  -13.8057 N   0  0  0  0  0  0  0  0  0  0  0  0
   22.4151  -21.4959  -14.8840 C   0  0  1  0  0  0  0  0  0  0  0  0
   22.0296  -20.1679  -15.2777 C   0  0  0  0  0  0  0  0  0  0  0  0
   23.0850  -19.4155  -16.0514 S   0  0  0  0  0  0  0  0  0  0  0  0
   23.2419  -17.7292  -15.4567 C   0  0  0  0  0  0  0  0  0  0  0  0
   20.7050  -20.1346  -15.9540 O   0  0  0  0  0  0  0  0  0  0  0  0
   20.2022  -21.1818  -16.4398 O   0  0  0  0  0  0  0  0  0  0  0  0
  2  1  1  0
  2  3  2  0
  4  2  1  0
  5  4  1  0
  6  5  1  0
  7  6  1  0
  8  7  1  0
  8  9  1  1
 10  8  1  0
 10 17  1  0
 11 10  2  0
 13 14  2  0
 13 12  1  0
 15 13  1  0
 16 17  1  0
 16 15  1  6
 18 16  1  0
 19 18  2  0
 20 18  1  0
 21 20  1  0
 21 24  1  0
 21 22  1  1
 23 22  1  0
 24 26  1  0
 25 24  2  0
M  END
$$$$
