RNC.pdb
     RDKit          3D

 26 25  0  0  1  0  0  0  0  0999 V2000
   20.4813  -23.1134   -7.5238 N   0  0  0  0  0  0  0  0  0  0  0  0
   19.6527  -23.3780   -8.6456 C   0  0  0  0  0  0  0  0  0  0  0  0
   18.8364  -24.3686   -8.6745 N   0  0  0  0  0  0  0  0  0  0  0  0
   19.7000  -22.5304   -9.8037 N   0  0  0  0  0  0  0  0  0  0  0  0
   20.9304  -21.9448  -10.2839 C   0  0  0  0  0  0  0  0  0  0  0  0
   21.1522  -20.6437   -9.5906 C   0  0  0  0  0  0  0  0  0  0  0  0
   22.4044  -19.9178   -9.9739 C   0  0  0  0  0  0  0  0  0  0  0  0
   23.5510  -20.8692  -10.0428 C   0  0  2  0  0  0  0  0  0  0  0  0
   24.2273  -20.8601   -8.7604 N   0  0  0  0  0  0  0  0  0  0  0  0
   24.4986  -20.5489  -11.1496 C   0  0  0  0  0  0  0  0  0  0  0  0
   25.4069  -19.7016  -10.9934 O   0  0  0  0  0  0  0  0  0  0  0  0
   18.2379  -24.5749   -9.4788 N   0  0  0  0  0  0  0  0  0  0  0  0
   27.3027  -20.7873  -15.6853 C   0  0  0  0  0  0  0  0  0  0  0  0
   26.8495  -22.0247  -15.1628 O   0  0  0  0  0  0  0  0  0  0  0  0
   27.3927  -23.0550  -15.6505 C   0  0  0  0  0  0  0  0  0  0  0  0
   25.8341  -22.2125  -14.1379 C   0  0  2  0  0  0  0  0  0  0  0  0
   25.2816  -20.9538  -13.5221 N   0  0  0  0  0  0  0  0  0  0  0  0
   24.4050  -21.1943  -12.4224 C   0  0  0  0  0  0  0  0  0  0  0  0
   24.8185  -19.9479  -14.4921 O   0  0  0  0  0  0  0  0  0  0  0  0
   23.6150  -19.9002  -14.8025 N   0  0  0  0  0  0  0  0  0  0  0  0
   25.7473  -19.0490  -15.0599 C   0  0  1  0  0  0  0  0  0  0  0  0
   25.3404  -17.9973  -15.9518 C   0  0  0  0  0  0  0  0  0  0  0  0
   26.3973  -16.9495  -16.2040 S   0  0  0  0  0  0  0  0  0  0  0  0
   27.0668  -16.3236  -14.6606 C   0  0  0  0  0  0  0  0  0  0  0  0
   24.7495  -18.5161  -17.2146 O   0  0  0  0  0  0  0  0  0  0  0  0
   24.7780  -19.7461  -17.4827 O   0  0  0  0  0  0  0  0  0  0  0  0
  2  1  1  0
  2  3  2  0
  4  2  1  0
  5  4  1  0
  6  5  1  0
  7  6  1  0
  8  7  1  0
  8  9  1  1
 10  8  1  0
 10 17  1  0
 11 10  2  0
 13 14  2  0
 13 12  1  0
 15 13  1  0
 16 17  1  0
 16 15  1  1
 18 16  1  0
 19 18  2  0
 20 18  1  0
 21 20  1  0
 21 24  1  0
 21 22  1  6
 23 22  1  0
 24 26  1  0
 25 24  2  0
M  END
$$$$
