RNC.pdb
     RDKit          3D

 26 25  0  0  1  0  0  0  0  0999 V2000
   29.4099  -27.2431  -16.4768 N   0  0  0  0  0  0  0  0  0  0  0  0
   30.1791  -26.1727  -17.0038 C   0  0  0  0  0  0  0  0  0  0  0  0
   31.3431  -26.3537  -17.5144 N   0  0  0  0  0  0  0  0  0  0  0  0
   29.6705  -24.8301  -16.9844 N   0  0  0  0  0  0  0  0  0  0  0  0
   28.3276  -24.5177  -16.5525 C   0  0  0  0  0  0  0  0  0  0  0  0
   27.4048  -24.6258  -17.7185 C   0  0  0  0  0  0  0  0  0  0  0  0
   25.9911  -24.2065  -17.4588 C   0  0  0  0  0  0  0  0  0  0  0  0
   25.7289  -24.1593  -15.9913 C   0  0  2  0  0  0  0  0  0  0  0  0
   26.1456  -25.4223  -15.4141 N   0  0  0  0  0  0  0  0  0  0  0  0
   24.3009  -23.8701  -15.6710 C   0  0  0  0  0  0  0  0  0  0  0  0
   23.7373  -22.8443  -16.1153 O   0  0  0  0  0  0  0  0  0  0  0  0
   31.9084  -25.5915  -17.8982 N   0  0  0  0  0  0  0  0  0  0  0  0
   19.2234  -24.6004  -14.0789 C   0  0  0  0  0  0  0  0  0  0  0  0
   20.0591  -25.6946  -13.7415 O   0  0  0  0  0  0  0  0  0  0  0  0
   19.4720  -26.6991  -13.2508 C   0  0  0  0  0  0  0  0  0  0  0  0
   21.5033  -25.7639  -13.9037 C   0  0  2  0  0  0  0  0  0  0  0  0
   22.1546  -24.5511  -14.5154 N   0  0  0  0  0  0  0  0  0  0  0  0
   23.5275  -24.7488  -14.8494 C   0  0  0  0  0  0  0  0  0  0  0  0
   21.8444  -23.2810  -13.8390 O   0  0  0  0  0  0  0  0  0  0  0  0
   22.0785  -23.1574  -12.6236 N   0  0  0  0  0  0  0  0  0  0  0  0
   21.2835  -22.2173  -14.5784 C   0  0  1  0  0  0  0  0  0  0  0  0
   20.9386  -20.9634  -13.9654 C   0  0  0  0  0  0  0  0  0  0  0  0
   21.7075  -19.7774  -14.4955 S   0  0  0  0  0  0  0  0  0  0  0  0
   23.4710  -19.9800  -14.2284 C   0  0  0  0  0  0  0  0  0  0  0  0
   19.4710  -20.7206  -13.9483 O   0  0  0  0  0  0  0  0  0  0  0  0
   18.7271  -21.2010  -14.8435 O   0  0  0  0  0  0  0  0  0  0  0  0
  2  1  1  0
  2  3  2  0
  4  2  1  0
  5  4  1  0
  6  5  1  0
  7  6  1  0
  8  7  1  0
  8  9  1  6
 10  8  1  0
 10 17  1  0
 11 10  2  0
 13 14  2  0
 13 12  1  0
 15 13  1  0
 16 17  1  0
 16 15  1  6
 18 16  1  0
 19 18  2  0
 20 18  1  0
 21 20  1  0
 21 24  1  0
 21 22  1  1
 23 22  1  0
 24 26  1  0
 25 24  2  0
M  END
$$$$
