RNC.pdb
     RDKit          3D

 26 25  0  0  1  0  0  0  0  0999 V2000
   25.6986  -20.7090  -12.5033 N   0  0  0  0  0  0  0  0  0  0  0  0
   24.9270  -21.8343  -12.8953 C   0  0  0  0  0  0  0  0  0  0  0  0
   25.2974  -23.0380  -12.6456 N   0  0  0  0  0  0  0  0  0  0  0  0
   23.6850  -21.6596  -13.5942 N   0  0  0  0  0  0  0  0  0  0  0  0
   23.4488  -20.5476  -14.4859 C   0  0  0  0  0  0  0  0  0  0  0  0
   23.2405  -19.3123  -13.6775 C   0  0  0  0  0  0  0  0  0  0  0  0
   22.9582  -18.0704  -14.4647 C   0  0  0  0  0  0  0  0  0  0  0  0
   24.1301  -17.7250  -15.3202 C   0  0  2  0  0  0  0  0  0  0  0  0
   25.2946  -18.4104  -14.7946 N   0  0  0  0  0  0  0  0  0  0  0  0
   24.3675  -16.2547  -15.4046 C   0  0  0  0  0  0  0  0  0  0  0  0
   23.4854  -15.4396  -15.0512 O   0  0  0  0  0  0  0  0  0  0  0  0
   24.7775  -23.8594  -12.9661 N   0  0  0  0  0  0  0  0  0  0  0  0
   28.5971  -11.9011  -16.3019 C   0  0  0  0  0  0  0  0  0  0  0  0
   27.4959  -12.4777  -15.6203 O   0  0  0  0  0  0  0  0  0  0  0  0
   26.7105  -11.6612  -15.0628 C   0  0  0  0  0  0  0  0  0  0  0  0
   27.1951  -13.8966  -15.5047 C   0  0  2  0  0  0  0  0  0  0  0  0
   25.8749  -14.3373  -16.0807 N   0  0  0  0  0  0  0  0  0  0  0  0
   25.6043  -15.7250  -15.8894 C   0  0  0  0  0  0  0  0  0  0  0  0
   25.5882  -13.8164  -17.4273 O   0  0  0  0  0  0  0  0  0  0  0  0
   26.2001  -14.2752  -18.4082 N   0  0  0  0  0  0  0  0  0  0  0  0
   24.6216  -12.8004  -17.5896 C   0  0  2  0  0  0  0  0  0  0  0  0
   24.3986  -12.1578  -18.8562 C   0  0  0  0  0  0  0  0  0  0  0  0
   25.3493  -11.0245  -19.1568 S   0  0  0  0  0  0  0  0  0  0  0  0
   24.8731  -10.1636  -20.6582 C   0  0  0  0  0  0  0  0  0  0  0  0
   24.3059  -13.1279  -19.9802 O   0  0  0  0  0  0  0  0  0  0  0  0
   25.2882  -13.8523  -20.2899 O   0  0  0  0  0  0  0  0  0  0  0  0
  2  1  1  0
  2  3  2  0
  4  2  1  0
  5  4  1  0
  6  5  1  0
  7  6  1  0
  8  7  1  0
  8  9  1  1
 10  8  1  0
 10 17  1  0
 11 10  2  0
 13 14  2  0
 13 12  1  0
 15 13  1  0
 16 17  1  0
 16 15  1  1
 18 16  1  0
 19 18  2  0
 20 18  1  0
 21 20  1  0
 21 24  1  0
 21 22  1  1
 23 22  1  0
 24 26  1  0
 25 24  2  0
M  END
$$$$
