RNC.pdb
     RDKit          3D

 26 25  0  0  1  0  0  0  0  0999 V2000
   13.0220  -13.9364  -15.5229 N   0  0  0  0  0  0  0  0  0  0  0  0
   14.1002  -14.8532  -15.6326 C   0  0  0  0  0  0  0  0  0  0  0  0
   13.9681  -16.0005  -16.1936 N   0  0  0  0  0  0  0  0  0  0  0  0
   15.3965  -14.5206  -15.1123 N   0  0  0  0  0  0  0  0  0  0  0  0
   15.6918  -13.2273  -14.5399 C   0  0  0  0  0  0  0  0  0  0  0  0
   16.2403  -12.3387  -15.6040 C   0  0  0  0  0  0  0  0  0  0  0  0
   16.4593  -10.9138  -15.2000 C   0  0  0  0  0  0  0  0  0  0  0  0
   17.9161  -10.5941  -15.2072 C   0  0  2  0  0  0  0  0  0  0  0  0
   18.6551  -11.8377  -15.1104 N   0  0  0  0  0  0  0  0  0  0  0  0
   18.3045   -9.6547  -14.1154 C   0  0  0  0  0  0  0  0  0  0  0  0
   18.5823  -10.0789  -12.9707 O   0  0  0  0  0  0  0  0  0  0  0  0
   14.7463  -16.6538  -16.3174 N   0  0  0  0  0  0  0  0  0  0  0  0
   21.3793   -8.4366  -14.1162 C   0  0  0  0  0  0  0  0  0  0  0  0
   21.1301   -7.0412  -14.1303 O   0  0  0  0  0  0  0  0  0  0  0  0
   22.1062   -6.3156  -14.4698 C   0  0  0  0  0  0  0  0  0  0  0  0
   19.8778   -6.3814  -13.7938 C   0  0  2  0  0  0  0  0  0  0  0  0
   18.7577   -7.2853  -13.3496 N   0  0  0  0  0  0  0  0  0  0  0  0
   18.3734   -8.2431  -14.3346 C   0  0  0  0  0  0  0  0  0  0  0  0
   17.6483   -6.5986  -12.6679 O   0  0  0  0  0  0  0  0  0  0  0  0
   16.6557   -6.2329  -13.3222 N   0  0  0  0  0  0  0  0  0  0  0  0
   17.7247   -6.3622  -11.2782 C   0  0  1  0  0  0  0  0  0  0  0  0
   16.6625   -5.7149  -10.5572 C   0  0  0  0  0  0  0  0  0  0  0  0
   16.7175   -5.9059   -9.0608 S   0  0  0  0  0  0  0  0  0  0  0  0
   16.6703   -7.6478   -8.6304 C   0  0  0  0  0  0  0  0  0  0  0  0
   16.5030   -4.2854  -10.9367 O   0  0  0  0  0  0  0  0  0  0  0  0
   17.3078   -3.7359  -11.7343 O   0  0  0  0  0  0  0  0  0  0  0  0
  2  1  1  0
  2  3  2  0
  4  2  1  0
  5  4  1  0
  6  5  1  0
  7  6  1  0
  8  7  1  0
  8  9  1  1
 10  8  1  0
 10 17  1  0
 11 10  2  0
 13 14  2  0
 13 12  1  0
 15 13  1  0
 16 17  1  0
 16 15  1  1
 18 16  1  0
 19 18  2  0
 20 18  1  0
 21 20  1  0
 21 24  1  0
 21 22  1  1
 23 22  1  0
 24 26  1  0
 25 24  2  0
M  END
$$$$
