RNC.pdb
     RDKit          3D

 26 25  0  0  1  0  0  0  0  0999 V2000
   28.2863  -21.1615   -9.6817 N   0  0  0  0  0  0  0  0  0  0  0  0
   29.2631  -21.2763  -10.7054 C   0  0  0  0  0  0  0  0  0  0  0  0
   30.3824  -21.8769  -10.5184 N   0  0  0  0  0  0  0  0  0  0  0  0
   29.0260  -20.7165  -12.0062 N   0  0  0  0  0  0  0  0  0  0  0  0
   27.8959  -21.1018  -12.8199 C   0  0  0  0  0  0  0  0  0  0  0  0
   26.6963  -21.2488  -11.9469 C   0  0  0  0  0  0  0  0  0  0  0  0
   25.3888  -20.9046  -12.5902 C   0  0  0  0  0  0  0  0  0  0  0  0
   24.9474  -22.0128  -13.4855 C   0  0  2  0  0  0  0  0  0  0  0  0
   25.9085  -22.1365  -14.5639 N   0  0  0  0  0  0  0  0  0  0  0  0
   23.5691  -21.8078  -14.0182 C   0  0  0  0  0  0  0  0  0  0  0  0
   23.3816  -21.2201  -15.1076 O   0  0  0  0  0  0  0  0  0  0  0  0
   31.1277  -21.8986  -11.2198 N   0  0  0  0  0  0  0  0  0  0  0  0
   18.2490  -22.1713  -14.6483 C   0  0  0  0  0  0  0  0  0  0  0  0
   18.7526  -23.0507  -13.6570 O   0  0  0  0  0  0  0  0  0  0  0  0
   17.9305  -23.8992  -13.2113 C   0  0  0  0  0  0  0  0  0  0  0  0
   20.1028  -23.0632  -13.1152 C   0  0  2  0  0  0  0  0  0  0  0  0
   21.0696  -22.0904  -13.7381 N   0  0  0  0  0  0  0  0  0  0  0  0
   22.4178  -22.2724  -13.3083 C   0  0  0  0  0  0  0  0  0  0  0  0
   20.5997  -20.6959  -13.7740 O   0  0  0  0  0  0  0  0  0  0  0  0
   20.5159  -20.0469  -12.7162 N   0  0  0  0  0  0  0  0  0  0  0  0
   20.2484  -20.1111  -15.0100 C   0  0  1  0  0  0  0  0  0  0  0  0
   19.6344  -18.8136  -15.0905 C   0  0  0  0  0  0  0  0  0  0  0  0
   20.2191  -17.9114  -16.1501 S   0  0  0  0  0  0  0  0  0  0  0  0
   19.3953  -16.3167  -16.1662 C   0  0  0  0  0  0  0  0  0  0  0  0
   18.1508  -18.8880  -15.1708 O   0  0  0  0  0  0  0  0  0  0  0  0
   17.4278  -18.2037  -14.3996 O   0  0  0  0  0  0  0  0  0  0  0  0
  2  1  1  0
  2  3  2  0
  4  2  1  0
  5  4  1  0
  6  5  1  0
  7  6  1  0
  8  7  1  0
  8  9  1  6
 10  8  1  0
 10 17  1  0
 11 10  2  0
 13 14  2  0
 13 12  1  0
 15 13  1  0
 16 17  1  0
 16 15  1  6
 18 16  1  0
 19 18  2  0
 20 18  1  0
 21 20  1  0
 21 24  1  0
 21 22  1  1
 23 22  1  0
 24 26  1  0
 25 24  2  0
M  END
$$$$
