RNC.pdb
     RDKit          3D

 26 25  0  0  1  0  0  0  0  0999 V2000
   33.0138  -24.6991  -12.5813 N   0  0  0  0  0  0  0  0  0  0  0  0
   33.8536  -23.6506  -12.1222 C   0  0  0  0  0  0  0  0  0  0  0  0
   35.0119  -23.4299  -12.6301 N   0  0  0  0  0  0  0  0  0  0  0  0
   33.4265  -22.7869  -11.0576 N   0  0  0  0  0  0  0  0  0  0  0  0
   32.0314  -22.5382  -10.7757 C   0  0  0  0  0  0  0  0  0  0  0  0
   31.7883  -21.0672  -10.7865 C   0  0  0  0  0  0  0  0  0  0  0  0
   30.6357  -20.6137  -11.6276 C   0  0  0  0  0  0  0  0  0  0  0  0
   29.3732  -21.2569  -11.1619 C   0  0  2  0  0  0  0  0  0  0  0  0
   29.5162  -22.6929  -11.3012 N   0  0  0  0  0  0  0  0  0  0  0  0
   28.1718  -20.7652  -11.8969 C   0  0  0  0  0  0  0  0  0  0  0  0
   27.8804  -19.5477  -11.9112 O   0  0  0  0  0  0  0  0  0  0  0  0
   35.6605  -22.7313  -12.2572 N   0  0  0  0  0  0  0  0  0  0  0  0
   28.0213  -19.9653  -15.1847 C   0  0  0  0  0  0  0  0  0  0  0  0
   27.1424  -21.0016  -15.5887 O   0  0  0  0  0  0  0  0  0  0  0  0
   27.2554  -21.3763  -16.7892 C   0  0  0  0  0  0  0  0  0  0  0  0
   26.1402  -21.6583  -14.7634 C   0  0  2  0  0  0  0  0  0  0  0  0
   26.1323  -21.2721  -13.3075 N   0  0  0  0  0  0  0  0  0  0  0  0
   27.3134  -21.6612  -12.6081 C   0  0  0  0  0  0  0  0  0  0  0  0
   24.8653  -21.5406  -12.6079 O   0  0  0  0  0  0  0  0  0  0  0  0
   24.4394  -22.7067  -12.5312 N   0  0  0  0  0  0  0  0  0  0  0  0
   24.1472  -20.4700  -12.0325 C   0  0  1  0  0  0  0  0  0  0  0  0
   22.9765  -20.6854  -11.2261 C   0  0  0  0  0  0  0  0  0  0  0  0
   23.0641  -20.1106   -9.8331 S   0  0  0  0  0  0  0  0  0  0  0  0
   24.4211  -20.8452   -8.9161 C   0  0  0  0  0  0  0  0  0  0  0  0
   21.7230  -20.2874  -11.9214 O   0  0  0  0  0  0  0  0  0  0  0  0
   21.7615  -19.6898  -13.0292 O   0  0  0  0  0  0  0  0  0  0  0  0
  2  1  1  0
  2  3  2  0
  4  2  1  0
  5  4  1  0
  6  5  1  0
  7  6  1  0
  8  7  1  0
  8  9  1  6
 10  8  1  0
 10 17  1  0
 11 10  2  0
 13 14  2  0
 13 12  1  0
 15 13  1  0
 16 17  1  0
 16 15  1  6
 18 16  1  0
 19 18  2  0
 20 18  1  0
 21 20  1  0
 21 24  1  0
 21 22  1  1
 23 22  1  0
 24 26  1  0
 25 24  2  0
M  END
$$$$
