RNC.pdb
     RDKit          3D

 26 25  0  0  1  0  0  0  0  0999 V2000
   24.2154  -16.1050  -20.1910 N   0  0  0  0  0  0  0  0  0  0  0  0
   25.5186  -16.6317  -19.9918 C   0  0  0  0  0  0  0  0  0  0  0  0
   26.4854  -16.3890  -20.8011 N   0  0  0  0  0  0  0  0  0  0  0  0
   25.8030  -17.4656  -18.8581 N   0  0  0  0  0  0  0  0  0  0  0  0
   24.7625  -18.1179  -18.0971 C   0  0  0  0  0  0  0  0  0  0  0  0
   24.9803  -19.5922  -18.1406 C   0  0  0  0  0  0  0  0  0  0  0  0
   23.9346  -20.4157  -17.4549 C   0  0  0  0  0  0  0  0  0  0  0  0
   24.3539  -20.7207  -16.0564 C   0  0  2  0  0  0  0  0  0  0  0  0
   25.2776  -21.8376  -16.0919 N   0  0  0  0  0  0  0  0  0  0  0  0
   23.1978  -21.0110  -15.1594 C   0  0  0  0  0  0  0  0  0  0  0  0
   22.5451  -22.0731  -15.2750 O   0  0  0  0  0  0  0  0  0  0  0  0
   27.4397  -16.7257  -20.6468 N   0  0  0  0  0  0  0  0  0  0  0  0
   20.7817  -20.5049   -9.9158 C   0  0  0  0  0  0  0  0  0  0  0  0
   20.6978  -19.6490  -11.0428 O   0  0  0  0  0  0  0  0  0  0  0  0
   19.6006  -19.0408  -11.1860 C   0  0  0  0  0  0  0  0  0  0  0  0
   21.7391  -19.4138  -12.0314 C   0  0  1  0  0  0  0  0  0  0  0  0
   21.6947  -20.2925  -13.2541 N   0  0  0  0  0  0  0  0  0  0  0  0
   22.7946  -20.0922  -14.1403 C   0  0  0  0  0  0  0  0  0  0  0  0
   20.3733  -20.3844  -13.8963 O   0  0  0  0  0  0  0  0  0  0  0  0
   20.0812  -19.6027  -14.8186 N   0  0  0  0  0  0  0  0  0  0  0  0
   19.4517  -21.3592  -13.4565 C   0  0  1  0  0  0  0  0  0  0  0  0
   18.1692  -21.5311  -14.0831 C   0  0  0  0  0  0  0  0  0  0  0  0
   18.0340  -22.7997  -14.8899 S   0  0  0  0  0  0  0  0  0  0  0  0
   17.3744  -24.1347  -13.8875 C   0  0  0  0  0  0  0  0  0  0  0  0
   17.0399  -21.3455  -13.1326 O   0  0  0  0  0  0  0  0  0  0  0  0
   17.2440  -21.2877  -11.8915 O   0  0  0  0  0  0  0  0  0  0  0  0
  2  1  1  0
  2  3  2  0
  4  2  1  0
  5  4  1  0
  6  5  1  0
  7  6  1  0
  8  7  1  0
  8  9  1  6
 10  8  1  0
 10 17  1  0
 11 10  2  0
 13 14  2  0
 13 12  1  0
 15 13  1  0
 16 17  1  0
 16 15  1  1
 18 16  1  0
 19 18  2  0
 20 18  1  0
 21 20  1  0
 21 24  1  0
 21 22  1  1
 23 22  1  0
 24 26  1  0
 25 24  2  0
M  END
$$$$
