PNE.pdb
     RDKit          3D

 25 25  0  0  1  0  0  0  0  0999 V2000
    8.1002  -14.7640   18.8365 N   0  0  0  0  0  0  0  0  0  0  0  0
    7.4886  -14.1704   17.6685 C   0  0  0  0  0  0  0  0  0  0  0  0
    7.5845  -12.6692   17.9254 C   0  0  0  0  0  0  0  0  0  0  0  0
    8.6217  -12.5277   19.0310 C   0  0  0  0  0  0  0  0  0  0  0  0
    9.2046  -13.8974   19.0950 C   0  0  1  0  0  0  0  0  0  0  0  0
    9.9050  -14.1952   20.3633 C   0  0  0  0  0  0  0  0  0  0  0  0
   11.0073  -13.6549   20.6341 O   0  0  0  0  0  0  0  0  0  0  0  0
   11.2207  -16.0504   25.0422 N   0  0  0  0  0  0  0  0  0  0  0  0
    9.7813  -16.1540   24.9685 C   0  0  0  0  0  0  0  0  0  0  0  0
    9.2191  -16.5023   26.0124 O   0  0  0  0  0  0  0  0  0  0  0  0
    9.1851  -15.8359   23.6802 C   0  0  0  0  0  0  0  0  0  0  0  0
   10.0746  -15.3705   22.5987 C   0  0  2  0  0  0  0  0  0  0  0  0
    9.3995  -15.0903   21.3463 N   0  0  0  0  0  0  0  0  0  0  0  0
   11.2754  -16.2496   22.3611 C   0  0  0  0  0  0  0  0  0  0  0  0
   11.2239  -17.1823   21.5181 O   0  0  0  0  0  0  0  0  0  0  0  0
   12.4833  -16.0657   23.0639 N   0  0  0  0  0  0  0  0  0  0  0  0
   13.7037  -16.8037   22.7713 C   0  0  1  0  0  0  0  0  0  0  0  0
   14.2623  -16.4344   21.4462 C   0  0  0  0  0  0  0  0  0  0  0  0
   14.8147  -15.0537   21.4166 C   0  0  0  0  0  0  0  0  0  0  0  0
   15.3883  -14.7899   20.0386 C   0  0  0  0  0  0  0  0  0  0  0  0
   15.2678  -15.6734   19.1546 O   0  0  0  0  0  0  0  0  0  0  0  0
   14.6635  -16.5767   23.8540 C   0  0  0  0  0  0  0  0  0  0  0  0
   15.7810  -17.1243   23.8886 O   0  0  0  0  0  0  0  0  0  0  0  0
   16.0333  -13.6198   19.7273 O   0  0  0  0  0  0  0  0  0  0  0  0
   14.3303  -15.7202   24.8909 O   0  0  0  0  0  0  0  0  0  0  0  0
  1  2  1  0
  1  5  1  0
  2  3  1  0
  3  4  1  0
  5  6  1  1
  5  4  1  0
  6 13  1  0
  7  6  2  0
  8  9  1  0
  9 10  2  0
 11  9  1  0
 12 11  1  1
 12 14  1  0
 13 12  1  0
 14 15  2  0
 16 14  1  0
 16 17  1  0
 17 22  1  0
 17 18  1  6
 19 18  1  0
 20 19  1  0
 21 20  2  0
 22 23  2  0
 22 25  1  0
 24 20  1  0
M  END
$$$$
