PNE.pdb
     RDKit          3D

 25 25  0  0  1  0  0  0  0  0999 V2000
    7.7063  -14.9397   19.1335 N   0  0  0  0  0  0  0  0  0  0  0  0
    7.5557  -14.1625   17.9236 C   0  0  0  0  0  0  0  0  0  0  0  0
    7.4228  -12.7265   18.4225 C   0  0  0  0  0  0  0  0  0  0  0  0
    7.9290  -12.7634   19.8580 C   0  0  0  0  0  0  0  0  0  0  0  0
    8.5479  -14.1162   19.9404 C   0  0  1  0  0  0  0  0  0  0  0  0
    8.7167  -14.6181   21.3215 C   0  0  0  0  0  0  0  0  0  0  0  0
    9.5561  -14.0977   22.0992 O   0  0  0  0  0  0  0  0  0  0  0  0
    6.6976  -15.9177   26.2780 N   0  0  0  0  0  0  0  0  0  0  0  0
    6.6048  -16.8732   25.1980 C   0  0  0  0  0  0  0  0  0  0  0  0
    6.4857  -18.0542   25.5416 O   0  0  0  0  0  0  0  0  0  0  0  0
    6.6636  -16.3217   23.8530 C   0  0  0  0  0  0  0  0  0  0  0  0
    7.9923  -16.0750   23.2606 C   0  0  2  0  0  0  0  0  0  0  0  0
    7.9636  -15.6976   21.8607 N   0  0  0  0  0  0  0  0  0  0  0  0
    8.9871  -17.1850   23.4833 C   0  0  0  0  0  0  0  0  0  0  0  0
    8.7365  -18.3526   23.0869 O   0  0  0  0  0  0  0  0  0  0  0  0
   10.2166  -16.9628   24.1358 N   0  0  0  0  0  0  0  0  0  0  0  0
   11.1746  -18.0199   24.4266 C   0  0  1  0  0  0  0  0  0  0  0  0
   12.5041  -17.7327   23.8317 C   0  0  0  0  0  0  0  0  0  0  0  0
   13.0787  -16.4421   24.2971 C   0  0  0  0  0  0  0  0  0  0  0  0
   14.4435  -16.2617   23.6629 C   0  0  0  0  0  0  0  0  0  0  0  0
   14.7503  -15.1361   23.1988 O   0  0  0  0  0  0  0  0  0  0  0  0
   11.2505  -18.2016   25.8780 C   0  0  0  0  0  0  0  0  0  0  0  0
   11.9125  -19.1127   26.4085 O   0  0  0  0  0  0  0  0  0  0  0  0
   15.3519  -17.2864   23.5800 O   0  0  0  0  0  0  0  0  0  0  0  0
   10.5631  -17.3325   26.7099 O   0  0  0  0  0  0  0  0  0  0  0  0
  1  2  1  0
  1  5  1  0
  2  3  1  0
  3  4  1  0
  5  6  1  1
  5  4  1  0
  6 13  1  0
  7  6  2  0
  8  9  1  0
  9 10  2  0
 11  9  1  0
 12 11  1  6
 12 14  1  0
 13 12  1  0
 14 15  2  0
 16 14  1  0
 16 17  1  0
 17 22  1  0
 17 18  1  1
 19 18  1  0
 20 19  1  0
 21 20  2  0
 22 23  2  0
 22 25  1  0
 24 20  1  0
M  END
$$$$
