PNE.pdb
     RDKit          3D

 25 25  0  0  1  0  0  0  0  0999 V2000
    8.8575  -13.9305   18.2387 N   0  0  0  0  0  0  0  0  0  0  0  0
    7.9482  -12.9061   17.7757 C   0  0  0  0  0  0  0  0  0  0  0  0
    6.7453  -13.0336   18.7060 C   0  0  0  0  0  0  0  0  0  0  0  0
    7.2511  -13.8477   19.8890 C   0  0  0  0  0  0  0  0  0  0  0  0
    8.7230  -13.8603   19.6580 C   0  0  1  0  0  0  0  0  0  0  0  0
    9.4355  -14.9414   20.3731 C   0  0  0  0  0  0  0  0  0  0  0  0
    9.3150  -15.0813   21.6166 O   0  0  0  0  0  0  0  0  0  0  0  0
   11.3215  -20.3811   20.1568 N   0  0  0  0  0  0  0  0  0  0  0  0
   12.1171  -19.1748   20.1538 C   0  0  0  0  0  0  0  0  0  0  0  0
   13.2321  -19.2718   20.6776 O   0  0  0  0  0  0  0  0  0  0  0  0
   11.5034  -18.0089   19.5369 C   0  0  0  0  0  0  0  0  0  0  0  0
   10.9668  -16.9564   20.4212 C   0  0  2  0  0  0  0  0  0  0  0  0
   10.2877  -15.8793   19.7271 N   0  0  0  0  0  0  0  0  0  0  0  0
   11.9672  -16.3993   21.4010 C   0  0  0  0  0  0  0  0  0  0  0  0
   12.6872  -15.4168   21.0854 O   0  0  0  0  0  0  0  0  0  0  0  0
   12.1342  -16.9493   22.6880 N   0  0  0  0  0  0  0  0  0  0  0  0
   12.9914  -16.3620   23.7078 C   0  0  1  0  0  0  0  0  0  0  0  0
   12.4995  -16.6626   25.0759 C   0  0  0  0  0  0  0  0  0  0  0  0
   12.6216  -18.1019   25.4305 C   0  0  0  0  0  0  0  0  0  0  0  0
   12.1851  -18.2858   26.8704 C   0  0  0  0  0  0  0  0  0  0  0  0
   10.9574  -18.2966   27.1330 O   0  0  0  0  0  0  0  0  0  0  0  0
   14.3622  -16.8347   23.5014 C   0  0  0  0  0  0  0  0  0  0  0  0
   15.3447  -16.3162   24.0633 O   0  0  0  0  0  0  0  0  0  0  0  0
   13.0865  -18.4405   27.8930 O   0  0  0  0  0  0  0  0  0  0  0  0
   14.5933  -17.9020   22.6486 O   0  0  0  0  0  0  0  0  0  0  0  0
  1  2  1  0
  1  5  1  0
  2  3  1  0
  3  4  1  0
  5  6  1  1
  5  4  1  0
  6 13  1  0
  7  6  2  0
  8  9  1  0
  9 10  2  0
 11  9  1  0
 12 11  1  6
 12 14  1  0
 13 12  1  0
 14 15  2  0
 16 14  1  0
 16 17  1  0
 17 22  1  0
 17 18  1  1
 19 18  1  0
 20 19  1  0
 21 20  2  0
 22 23  2  0
 22 25  1  0
 24 20  1  0
M  END
$$$$
