PNE.pdb
     RDKit          3D

 25 25  0  0  1  0  0  0  0  0999 V2000
    8.1612  -14.9774   19.2597 N   0  0  0  0  0  0  0  0  0  0  0  0
    8.1249  -14.2195   18.0289 C   0  0  0  0  0  0  0  0  0  0  0  0
    7.5599  -12.8650   18.4471 C   0  0  0  0  0  0  0  0  0  0  0  0
    7.7135  -12.8284   19.9614 C   0  0  0  0  0  0  0  0  0  0  0  0
    8.5846  -14.0093   20.2195 C   0  0  1  0  0  0  0  0  0  0  0  0
    8.5364  -14.4999   21.6141 C   0  0  0  0  0  0  0  0  0  0  0  0
    8.9715  -13.7968   22.5610 O   0  0  0  0  0  0  0  0  0  0  0  0
    6.3622  -16.5028   26.1891 N   0  0  0  0  0  0  0  0  0  0  0  0
    6.4571  -17.3763   25.0420 C   0  0  0  0  0  0  0  0  0  0  0  0
    6.4142  -18.5862   25.2897 O   0  0  0  0  0  0  0  0  0  0  0  0
    6.5901  -16.7194   23.7507 C   0  0  0  0  0  0  0  0  0  0  0  0
    7.9263  -16.2377   23.3505 C   0  0  2  0  0  0  0  0  0  0  0  0
    8.0088  -15.7690   21.9807 N   0  0  0  0  0  0  0  0  0  0  0  0
    9.0470  -17.2021   23.6425 C   0  0  0  0  0  0  0  0  0  0  0  0
    9.0404  -18.3556   23.1399 O   0  0  0  0  0  0  0  0  0  0  0  0
   10.1280  -16.8560   24.4781 N   0  0  0  0  0  0  0  0  0  0  0  0
   11.1679  -17.7939   24.8766 C   0  0  1  0  0  0  0  0  0  0  0  0
   12.5246  -17.2496   24.6173 C   0  0  0  0  0  0  0  0  0  0  0  0
   12.7323  -16.8696   23.1943 C   0  0  0  0  0  0  0  0  0  0  0  0
   14.1375  -16.3232   23.0380 C   0  0  0  0  0  0  0  0  0  0  0  0
   14.5745  -15.5234   23.9017 O   0  0  0  0  0  0  0  0  0  0  0  0
   10.9758  -18.1401   26.2867 C   0  0  0  0  0  0  0  0  0  0  0  0
   11.6478  -19.0159   26.8623 O   0  0  0  0  0  0  0  0  0  0  0  0
   14.9449  -16.6737   21.9858 O   0  0  0  0  0  0  0  0  0  0  0  0
   10.0105  -17.4753   27.0257 O   0  0  0  0  0  0  0  0  0  0  0  0
  1  2  1  0
  1  5  1  0
  2  3  1  0
  3  4  1  0
  5  6  1  1
  5  4  1  0
  6 13  1  0
  7  6  2  0
  8  9  1  0
  9 10  2  0
 11  9  1  0
 12 11  1  6
 12 14  1  0
 13 12  1  0
 14 15  2  0
 16 14  1  0
 16 17  1  0
 17 22  1  0
 17 18  1  1
 19 18  1  0
 20 19  1  0
 21 20  2  0
 22 23  2  0
 22 25  1  0
 24 20  1  0
M  END
$$$$
