PNE.pdb
     RDKit          3D

 25 25  0  0  1  0  0  0  0  0999 V2000
    7.7117  -15.1446   19.2289 N   0  0  0  0  0  0  0  0  0  0  0  0
    7.5153  -14.6849   17.8722 C   0  0  0  0  0  0  0  0  0  0  0  0
    7.3446  -13.1753   18.0160 C   0  0  0  0  0  0  0  0  0  0  0  0
    7.8764  -12.8528   19.4057 C   0  0  0  0  0  0  0  0  0  0  0  0
    8.5400  -14.1289   19.7944 C   0  0  1  0  0  0  0  0  0  0  0  0
    8.7488  -14.2798   21.2509 C   0  0  0  0  0  0  0  0  0  0  0  0
    9.5674  -13.5495   21.8647 O   0  0  0  0  0  0  0  0  0  0  0  0
    7.0658  -14.2622   26.4468 N   0  0  0  0  0  0  0  0  0  0  0  0
    6.8758  -15.4479   25.6430 C   0  0  0  0  0  0  0  0  0  0  0  0
    6.7356  -16.5012   26.2737 O   0  0  0  0  0  0  0  0  0  0  0  0
    6.8744  -15.2468   24.2021 C   0  0  0  0  0  0  0  0  0  0  0  0
    8.1662  -15.3041   23.4912 C   0  0  2  0  0  0  0  0  0  0  0  0
    8.0588  -15.2358   22.0467 N   0  0  0  0  0  0  0  0  0  0  0  0
    9.0474  -16.4574   23.8969 C   0  0  0  0  0  0  0  0  0  0  0  0
    8.7337  -17.6364   23.5889 O   0  0  0  0  0  0  0  0  0  0  0  0
   10.2373  -16.2640   24.6273 N   0  0  0  0  0  0  0  0  0  0  0  0
   11.0892  -17.3548   25.0789 C   0  0  1  0  0  0  0  0  0  0  0  0
   12.5257  -17.0592   24.8478 C   0  0  0  0  0  0  0  0  0  0  0  0
   12.8944  -17.0764   23.4070 C   0  0  0  0  0  0  0  0  0  0  0  0
   14.3497  -16.6737   23.2736 C   0  0  0  0  0  0  0  0  0  0  0  0
   14.9851  -16.3528   24.3079 O   0  0  0  0  0  0  0  0  0  0  0  0
   10.8042  -17.6227   26.4904 C   0  0  0  0  0  0  0  0  0  0  0  0
   10.0254  -16.9234   27.1643 O   0  0  0  0  0  0  0  0  0  0  0  0
   14.9928  -16.6487   22.0621 O   0  0  0  0  0  0  0  0  0  0  0  0
   11.4183  -18.6950   27.1174 O   0  0  0  0  0  0  0  0  0  0  0  0
  1  2  1  0
  1  5  1  0
  2  3  1  0
  3  4  1  0
  5  6  1  1
  5  4  1  0
  6 13  1  0
  7  6  2  0
  8  9  1  0
  9 10  2  0
 11  9  1  0
 12 11  1  1
 12 14  1  0
 13 12  1  0
 14 15  2  0
 16 14  1  0
 16 17  1  0
 17 22  1  0
 17 18  1  1
 19 18  1  0
 20 19  1  0
 21 20  2  0
 22 23  2  0
 22 25  1  0
 24 20  1  0
M  END
$$$$
