PNE.pdb
     RDKit          3D

 25 25  0  0  1  0  0  0  0  0999 V2000
    7.7391  -14.2982   19.6654 N   0  0  0  0  0  0  0  0  0  0  0  0
    6.5680  -13.5157   19.3387 C   0  0  0  0  0  0  0  0  0  0  0  0
    7.1125  -12.3800   18.4771 C   0  0  0  0  0  0  0  0  0  0  0  0
    8.4936  -12.8489   18.0402 C   0  0  0  0  0  0  0  0  0  0  0  0
    8.4848  -14.2818   18.4483 C   0  0  1  0  0  0  0  0  0  0  0  0
    9.8315  -14.8808   18.5725 C   0  0  0  0  0  0  0  0  0  0  0  0
   10.4031  -15.3955   17.5782 O   0  0  0  0  0  0  0  0  0  0  0  0
   15.1460  -13.8459   19.4387 N   0  0  0  0  0  0  0  0  0  0  0  0
   14.2884  -14.9528   19.0819 C   0  0  0  0  0  0  0  0  0  0  0  0
   14.8611  -16.0331   18.9031 O   0  0  0  0  0  0  0  0  0  0  0  0
   12.8688  -14.6514   18.9803 C   0  0  0  0  0  0  0  0  0  0  0  0
   11.9421  -15.3568   19.8864 C   0  0  2  0  0  0  0  0  0  0  0  0
   10.5627  -14.9195   19.7920 N   0  0  0  0  0  0  0  0  0  0  0  0
   12.3846  -15.3865   21.3268 C   0  0  0  0  0  0  0  0  0  0  0  0
   12.3979  -14.3299   22.0098 O   0  0  0  0  0  0  0  0  0  0  0  0
   12.7961  -16.5796   21.9545 N   0  0  0  0  0  0  0  0  0  0  0  0
   13.0236  -16.6963   23.3877 C   0  0  1  0  0  0  0  0  0  0  0  0
   12.7543  -18.0728   23.8744 C   0  0  0  0  0  0  0  0  0  0  0  0
   13.0505  -18.2419   25.3222 C   0  0  0  0  0  0  0  0  0  0  0  0
   12.7203  -19.6662   25.7220 C   0  0  0  0  0  0  0  0  0  0  0  0
   13.1654  -20.6090   25.0223 O   0  0  0  0  0  0  0  0  0  0  0  0
   14.3921  -16.2671   23.6848 C   0  0  0  0  0  0  0  0  0  0  0  0
   15.3000  -16.2758   22.8330 O   0  0  0  0  0  0  0  0  0  0  0  0
   11.9526  -19.9573   26.8211 O   0  0  0  0  0  0  0  0  0  0  0  0
   14.7068  -15.8303   24.9615 O   0  0  0  0  0  0  0  0  0  0  0  0
  1  2  1  0
  1  5  1  0
  2  3  1  0
  3  4  1  0
  5  6  1  1
  5  4  1  0
  6 13  1  0
  7  6  2  0
  8  9  1  0
  9 10  2  0
 11  9  1  0
 12 11  1  6
 12 14  1  0
 13 12  1  0
 14 15  2  0
 16 14  1  0
 16 17  1  0
 17 22  1  0
 17 18  1  6
 19 18  1  0
 20 19  1  0
 21 20  2  0
 22 23  2  0
 22 25  1  0
 24 20  1  0
M  END
$$$$
