PNE.pdb
     RDKit          3D

 25 25  0  0  1  0  0  0  0  0999 V2000
    7.6057  -14.9072   19.3850 N   0  0  0  0  0  0  0  0  0  0  0  0
    6.9621  -14.3558   18.2136 C   0  0  0  0  0  0  0  0  0  0  0  0
    7.2519  -12.8603   18.3037 C   0  0  0  0  0  0  0  0  0  0  0  0
    8.3948  -12.7435   19.3029 C   0  0  0  0  0  0  0  0  0  0  0  0
    8.8208  -14.1622   19.4633 C   0  0  1  0  0  0  0  0  0  0  0  0
    9.5951  -14.4227   20.6963 C   0  0  0  0  0  0  0  0  0  0  0  0
   10.7567  -13.9635   20.8381 O   0  0  0  0  0  0  0  0  0  0  0  0
    7.9492  -13.6198   23.8651 N   0  0  0  0  0  0  0  0  0  0  0  0
    8.0136  -14.8625   24.5996 C   0  0  0  0  0  0  0  0  0  0  0  0
    7.1928  -14.9821   25.5155 O   0  0  0  0  0  0  0  0  0  0  0  0
    9.0323  -15.8063   24.1660 C   0  0  0  0  0  0  0  0  0  0  0  0
    9.8564  -15.4501   22.9949 C   0  0  2  0  0  0  0  0  0  0  0  0
    9.0991  -15.1911   21.7857 N   0  0  0  0  0  0  0  0  0  0  0  0
   10.9818  -16.4117   22.7121 C   0  0  0  0  0  0  0  0  0  0  0  0
   10.7352  -17.6077   22.4088 O   0  0  0  0  0  0  0  0  0  0  0  0
   12.3330  -16.0159   22.7772 N   0  0  0  0  0  0  0  0  0  0  0  0
   13.4485  -16.9283   22.5701 C   0  0  1  0  0  0  0  0  0  0  0  0
   14.1915  -16.6107   21.3247 C   0  0  0  0  0  0  0  0  0  0  0  0
   14.8682  -15.2872   21.3773 C   0  0  0  0  0  0  0  0  0  0  0  0
   15.1739  -14.8418   19.9610 C   0  0  0  0  0  0  0  0  0  0  0  0
   14.8830  -15.6086   19.0103 O   0  0  0  0  0  0  0  0  0  0  0  0
   14.3145  -16.8905   23.7507 C   0  0  0  0  0  0  0  0  0  0  0  0
   14.1198  -16.1134   24.7036 O   0  0  0  0  0  0  0  0  0  0  0  0
   15.7569  -13.6308   19.6857 O   0  0  0  0  0  0  0  0  0  0  0  0
   15.4000  -17.7482   23.8266 O   0  0  0  0  0  0  0  0  0  0  0  0
  1  2  1  0
  1  5  1  0
  2  3  1  0
  3  4  1  0
  5  6  1  1
  5  4  1  0
  6 13  1  0
  7  6  2  0
  8  9  1  0
  9 10  2  0
 11  9  1  0
 12 11  1  1
 12 14  1  0
 13 12  1  0
 14 15  2  0
 16 14  1  0
 16 17  1  0
 17 22  1  0
 17 18  1  6
 19 18  1  0
 20 19  1  0
 21 20  2  0
 22 23  2  0
 22 25  1  0
 24 20  1  0
M  END
$$$$
