WYM.pdb
     RDKit          3D

 35 37  0  0  1  0  0  0  0  0999 V2000
   21.4378  -19.7271  -22.1520 N   0  0  0  0  0  0  0  0  0  0  0  0
   20.1309  -19.1728  -22.4079 C   0  0  1  0  0  0  0  0  0  0  0  0
   19.2034  -20.3006  -22.7907 C   0  0  0  0  0  0  0  0  0  0  0  0
   19.3553  -20.6497  -24.2260 C   0  0  0  0  0  0  0  0  0  0  0  0
   20.4953  -20.9281  -24.9373 C   0  0  0  0  0  0  0  0  0  0  0  0
   20.1593  -21.1942  -26.2203 N   0  0  0  0  0  0  0  0  0  0  0  0
   18.8275  -21.1024  -26.3899 C   0  0  0  0  0  0  0  0  0  0  0  0
   17.9787  -21.2742  -27.4851 C   0  0  0  0  0  0  0  0  0  0  0  0
   16.6072  -21.1055  -27.3417 C   0  0  0  0  0  0  0  0  0  0  0  0
   16.0937  -20.7686  -26.1146 C   0  0  0  0  0  0  0  0  0  0  0  0
   16.9519  -20.6009  -25.0335 C   0  0  0  0  0  0  0  0  0  0  0  0
   18.3236  -20.7643  -25.1540 C   0  0  0  0  0  0  0  0  0  0  0  0
   19.6461  -18.4290  -21.2227 C   0  0  0  0  0  0  0  0  0  0  0  0
   19.9843  -18.7275  -20.0461 O   0  0  0  0  0  0  0  0  0  0  0  0
   23.7314  -13.4331  -20.9911 O   0  0  0  0  0  0  0  0  0  0  0  0
   22.4117  -13.8440  -20.9009 C   0  0  0  0  0  0  0  0  0  0  0  0
   21.7069  -13.6523  -19.7263 C   0  0  0  0  0  0  0  0  0  0  0  0
   20.4052  -14.0594  -19.6421 C   0  0  0  0  0  0  0  0  0  0  0  0
   19.8064  -14.6573  -20.7282 C   0  0  0  0  0  0  0  0  0  0  0  0
   18.3909  -15.0847  -20.5987 C   0  0  0  0  0  0  0  0  0  0  0  0
   18.2469  -16.5541  -20.3062 C   0  0  2  0  0  0  0  0  0  0  0  0
   18.7637  -17.3312  -21.3890 N   0  0  0  0  0  0  0  0  0  0  0  0
   16.8023  -16.8155  -20.0444 C   0  0  0  0  0  0  0  0  0  0  0  0
   16.1548  -17.3556  -20.9831 O   0  0  0  0  0  0  0  0  0  0  0  0
   20.4792  -14.8579  -21.8975 C   0  0  0  0  0  0  0  0  0  0  0  0
   21.7925  -14.4457  -21.9785 C   0  0  0  0  0  0  0  0  0  0  0  0
   12.5567  -22.0579  -17.8646 C   0  0  0  0  0  0  0  0  0  0  0  0
   14.0834  -21.2017  -18.3321 S   0  0  0  0  0  0  0  0  0  0  0  0
   13.8465  -19.3799  -18.1683 C   0  0  0  0  0  0  0  0  0  0  0  0
   15.1016  -18.6622  -18.5709 C   0  0  0  0  0  0  0  0  0  0  0  0
   14.9508  -17.1911  -18.4540 C   0  0  2  0  0  0  0  0  0  0  0  0
   16.1713  -16.4891  -18.8289 N   0  0  0  0  0  0  0  0  0  0  0  0
   14.5245  -16.7546  -17.1303 C   0  0  0  0  0  0  0  0  0  0  0  0
   15.2640  -16.7961  -15.9700 O   0  0  0  0  0  0  0  0  0  0  0  0
   13.3407  -16.2769  -16.9885 O   0  0  0  0  0  0  0  0  0  0  0  0
  2  1  1  1
  3  2  1  0
  4  3  1  0
  4  5  2  0
  6  5  1  0
  7  6  1  0
  8  7  2  0
  9  8  1  0
 10  9  2  0
 10 11  1  0
 11 12  2  0
 12  7  1  0
 12  4  1  0
 13  2  1  0
 14 13  2  0
 16 15  1  0
 17 16  2  0
 18 17  1  0
 19 25  1  0
 19 18  2  0
 20 19  1  0
 21 20  1  6
 21 23  1  0
 21 22  1  0
 22 13  1  0
 23 32  1  0
 24 23  2  0
 25 26  2  0
 26 16  1  0
 27 28  1  0
 28 29  1  0
 29 30  1  0
 31 33  1  0
 31 30  1  1
 32 31  1  0
 33 34  1  0
 35 33  2  0
M  END
$$$$
