WYM.pdb
     RDKit          3D

 35 37  0  0  1  0  0  0  0  0999 V2000
   26.5143  -18.7154  -10.1197 N   0  0  0  0  0  0  0  0  0  0  0  0
   26.6687  -20.1483  -10.1795 C   0  0  1  0  0  0  0  0  0  0  0  0
   26.3081  -20.7213   -8.8303 C   0  0  0  0  0  0  0  0  0  0  0  0
   26.9270  -19.9325   -7.7351 C   0  0  0  0  0  0  0  0  0  0  0  0
   26.7034  -18.6293   -7.3684 C   0  0  0  0  0  0  0  0  0  0  0  0
   27.4912  -18.3285   -6.3107 N   0  0  0  0  0  0  0  0  0  0  0  0
   28.2365  -19.3919   -5.9577 C   0  0  0  0  0  0  0  0  0  0  0  0
   29.1887  -19.6167   -4.9617 C   0  0  0  0  0  0  0  0  0  0  0  0
   29.8024  -20.8578   -4.8464 C   0  0  0  0  0  0  0  0  0  0  0  0
   29.4645  -21.8609   -5.7197 C   0  0  0  0  0  0  0  0  0  0  0  0
   28.5144  -21.6215   -6.7063 C   0  0  0  0  0  0  0  0  0  0  0  0
   27.8897  -20.3908   -6.8394 C   0  0  0  0  0  0  0  0  0  0  0  0
   25.8351  -20.7111  -11.2663 C   0  0  0  0  0  0  0  0  0  0  0  0
   24.6288  -20.3887  -11.4358 O   0  0  0  0  0  0  0  0  0  0  0  0
   24.2567  -24.9202  -18.8309 O   0  0  0  0  0  0  0  0  0  0  0  0
   24.8171  -24.5046  -17.6343 C   0  0  0  0  0  0  0  0  0  0  0  0
   25.3548  -23.2348  -17.5270 C   0  0  0  0  0  0  0  0  0  0  0  0
   25.9066  -22.8295  -16.3445 C   0  0  0  0  0  0  0  0  0  0  0  0
   25.9224  -23.6894  -15.2694 C   0  0  0  0  0  0  0  0  0  0  0  0
   26.5292  -23.2126  -14.0016 C   0  0  0  0  0  0  0  0  0  0  0  0
   25.7115  -22.1448  -13.3259 C   0  0  2  0  0  0  0  0  0  0  0  0
   26.3911  -21.6541  -12.1680 N   0  0  0  0  0  0  0  0  0  0  0  0
   24.3812  -22.7387  -13.0074 C   0  0  0  0  0  0  0  0  0  0  0  0
   24.3617  -23.5994  -12.0850 O   0  0  0  0  0  0  0  0  0  0  0  0
   25.3990  -24.9464  -15.3492 C   0  0  0  0  0  0  0  0  0  0  0  0
   24.8430  -25.3517  -16.5441 C   0  0  0  0  0  0  0  0  0  0  0  0
   17.5789  -22.5153  -10.1201 C   0  0  0  0  0  0  0  0  0  0  0  0
   18.8084  -21.6301  -11.1138 S   0  0  0  0  0  0  0  0  0  0  0  0
   19.9519  -22.8409  -11.9063 C   0  0  0  0  0  0  0  0  0  0  0  0
   20.9673  -22.1159  -12.7404 C   0  0  0  0  0  0  0  0  0  0  0  0
   21.9535  -23.0509  -13.3350 C   0  0  2  0  0  0  0  0  0  0  0  0
   23.1987  -22.3782  -13.6811 N   0  0  0  0  0  0  0  0  0  0  0  0
   21.4463  -23.7667  -14.4990 C   0  0  0  0  0  0  0  0  0  0  0  0
   20.9702  -25.0579  -14.5305 O   0  0  0  0  0  0  0  0  0  0  0  0
   21.4268  -23.1657  -15.6339 O   0  0  0  0  0  0  0  0  0  0  0  0
  2  1  1  1
  3  2  1  0
  4  3  1  0
  4  5  2  0
  6  5  1  0
  7  6  1  0
  8  7  2  0
  9  8  1  0
 10  9  2  0
 10 11  1  0
 11 12  2  0
 12  7  1  0
 12  4  1  0
 13  2  1  0
 14 13  2  0
 16 15  1  0
 17 16  2  0
 18 17  1  0
 19 25  1  0
 19 18  2  0
 20 19  1  0
 21 20  1  1
 21 23  1  0
 21 22  1  0
 22 13  1  0
 23 32  1  0
 24 23  2  0
 25 26  2  0
 26 16  1  0
 27 28  1  0
 28 29  1  0
 29 30  1  0
 31 33  1  0
 31 30  1  6
 32 31  1  0
 33 34  1  0
 35 33  2  0
M  END
$$$$
