WYM.pdb
     RDKit          3D

 35 37  0  0  1  0  0  0  0  0999 V2000
   23.3053  -21.3850  -19.1513 N   0  0  0  0  0  0  0  0  0  0  0  0
   22.2158  -20.5601  -18.6895 C   0  0  1  0  0  0  0  0  0  0  0  0
   21.0303  -20.7884  -19.5956 C   0  0  0  0  0  0  0  0  0  0  0  0
   21.1461  -19.9807  -20.8362 C   0  0  0  0  0  0  0  0  0  0  0  0
   22.1571  -19.9514  -21.7636 C   0  0  0  0  0  0  0  0  0  0  0  0
   21.8378  -19.0654  -22.7346 N   0  0  0  0  0  0  0  0  0  0  0  0
   20.6425  -18.4999  -22.4854 C   0  0  0  0  0  0  0  0  0  0  0  0
   19.8665  -17.5480  -23.1496 C   0  0  0  0  0  0  0  0  0  0  0  0
   18.6399  -17.1563  -22.6278 C   0  0  0  0  0  0  0  0  0  0  0  0
   18.1974  -17.7129  -21.4542 C   0  0  0  0  0  0  0  0  0  0  0  0
   18.9817  -18.6597  -20.8045 C   0  0  0  0  0  0  0  0  0  0  0  0
   20.2087  -19.0651  -21.3073 C   0  0  0  0  0  0  0  0  0  0  0  0
   21.9038  -20.8642  -17.2742 C   0  0  0  0  0  0  0  0  0  0  0  0
   21.9083  -22.0367  -16.8126 O   0  0  0  0  0  0  0  0  0  0  0  0
   20.1472  -19.4036   -8.8025 O   0  0  0  0  0  0  0  0  0  0  0  0
   20.4198  -19.2318  -10.1496 C   0  0  0  0  0  0  0  0  0  0  0  0
   21.5635  -19.7826  -10.6991 C   0  0  0  0  0  0  0  0  0  0  0  0
   21.8281  -19.6103  -12.0285 C   0  0  0  0  0  0  0  0  0  0  0  0
   20.9532  -18.8895  -12.8100 C   0  0  0  0  0  0  0  0  0  0  0  0
   21.2742  -18.7252  -14.2497 C   0  0  0  0  0  0  0  0  0  0  0  0
   21.1891  -20.0156  -15.0199 C   0  0  2  0  0  0  0  0  0  0  0  0
   21.5828  -19.8121  -16.3790 N   0  0  0  0  0  0  0  0  0  0  0  0
   19.7910  -20.5181  -14.8918 C   0  0  0  0  0  0  0  0  0  0  0  0
   18.9204  -19.9270  -15.5880 O   0  0  0  0  0  0  0  0  0  0  0  0
   19.8189  -18.3363  -12.2927 C   0  0  0  0  0  0  0  0  0  0  0  0
   19.5553  -18.5124  -10.9507 C   0  0  0  0  0  0  0  0  0  0  0  0
   14.8161  -26.4433  -14.2203 C   0  0  0  0  0  0  0  0  0  0  0  0
   16.5275  -25.8687  -14.0667 S   0  0  0  0  0  0  0  0  0  0  0  0
   16.5608  -24.0249  -14.0335 C   0  0  0  0  0  0  0  0  0  0  0  0
   17.9789  -23.5398  -13.9566 C   0  0  0  0  0  0  0  0  0  0  0  0
   18.0561  -22.0614  -14.0509 C   0  0  2  0  0  0  0  0  0  0  0  0
   19.4345  -21.5890  -14.0502 N   0  0  0  0  0  0  0  0  0  0  0  0
   17.3044  -21.3731  -13.0090 C   0  0  0  0  0  0  0  0  0  0  0  0
   16.0238  -20.8778  -13.1061 O   0  0  0  0  0  0  0  0  0  0  0  0
   17.8604  -21.1872  -11.8661 O   0  0  0  0  0  0  0  0  0  0  0  0
  2  1  1  6
  3  2  1  0
  4  3  1  0
  4  5  2  0
  6  5  1  0
  7  6  1  0
  8  7  2  0
  9  8  1  0
 10  9  2  0
 10 11  1  0
 11 12  2  0
 12  7  1  0
 12  4  1  0
 13  2  1  0
 14 13  2  0
 16 15  1  0
 17 16  2  0
 18 17  1  0
 19 25  1  0
 19 18  2  0
 20 19  1  0
 21 20  1  1
 21 23  1  0
 21 22  1  0
 22 13  1  0
 23 32  1  0
 24 23  2  0
 25 26  2  0
 26 16  1  0
 27 28  1  0
 28 29  1  0
 29 30  1  0
 31 33  1  0
 31 30  1  1
 32 31  1  0
 33 34  1  0
 35 33  2  0
M  END
$$$$
