WYM.pdb
     RDKit          3D

 35 37  0  0  1  0  0  0  0  0999 V2000
   24.7436  -20.2738   -9.3726 N   0  0  0  0  0  0  0  0  0  0  0  0
   25.9493  -20.4002  -10.1543 C   0  0  1  0  0  0  0  0  0  0  0  0
   26.9561  -21.1868   -9.3504 C   0  0  0  0  0  0  0  0  0  0  0  0
   27.2233  -20.5310   -8.0453 C   0  0  0  0  0  0  0  0  0  0  0  0
   26.4340  -19.6674   -7.3283 C   0  0  0  0  0  0  0  0  0  0  0  0
   27.0811  -19.3202   -6.1922 N   0  0  0  0  0  0  0  0  0  0  0  0
   28.2810  -19.9257   -6.1267 C   0  0  0  0  0  0  0  0  0  0  0  0
   29.3197  -19.9138   -5.1938 C   0  0  0  0  0  0  0  0  0  0  0  0
   30.4672  -20.6658   -5.4133 C   0  0  0  0  0  0  0  0  0  0  0  0
   30.5710  -21.4203   -6.5548 C   0  0  0  0  0  0  0  0  0  0  0  0
   29.5280  -21.4217   -7.4743 C   0  0  0  0  0  0  0  0  0  0  0  0
   28.3741  -20.6789   -7.2754 C   0  0  0  0  0  0  0  0  0  0  0  0
   25.6535  -21.0387  -11.4573 C   0  0  0  0  0  0  0  0  0  0  0  0
   25.8542  -22.2632  -11.6769 O   0  0  0  0  0  0  0  0  0  0  0  0
   19.3650  -22.4266  -10.8214 O   0  0  0  0  0  0  0  0  0  0  0  0
   20.3511  -21.9171  -11.6500 C   0  0  0  0  0  0  0  0  0  0  0  0
   20.8446  -20.6430  -11.4347 C   0  0  0  0  0  0  0  0  0  0  0  0
   21.8173  -20.1448  -12.2549 C   0  0  0  0  0  0  0  0  0  0  0  0
   22.2979  -20.9160  -13.2892 C   0  0  0  0  0  0  0  0  0  0  0  0
   23.3551  -20.3408  -14.1577 C   0  0  0  0  0  0  0  0  0  0  0  0
   24.7371  -20.8066  -13.7852 C   0  0  2  0  0  0  0  0  0  0  0  0
   25.1220  -20.2641  -12.5199 N   0  0  0  0  0  0  0  0  0  0  0  0
   25.6543  -20.4045  -14.8901 C   0  0  0  0  0  0  0  0  0  0  0  0
   26.6040  -19.6363  -14.5741 O   0  0  0  0  0  0  0  0  0  0  0  0
   21.8281  -22.1750  -13.5229 C   0  0  0  0  0  0  0  0  0  0  0  0
   20.8466  -22.6743  -12.6930 C   0  0  0  0  0  0  0  0  0  0  0  0
   30.3911  -22.8548  -14.7327 C   0  0  0  0  0  0  0  0  0  0  0  0
   29.8802  -23.5918  -16.3070 S   0  0  0  0  0  0  0  0  0  0  0  0
   28.7673  -22.4262  -17.2039 C   0  0  0  0  0  0  0  0  0  0  0  0
   27.5612  -22.1215  -16.3643 C   0  0  0  0  0  0  0  0  0  0  0  0
   26.6778  -21.1256  -17.0187 C   0  0  2  0  0  0  0  0  0  0  0  0
   25.4936  -20.8422  -16.2185 N   0  0  0  0  0  0  0  0  0  0  0  0
   26.2755  -21.5040  -18.3676 C   0  0  0  0  0  0  0  0  0  0  0  0
   26.9942  -21.3150  -19.5263 O   0  0  0  0  0  0  0  0  0  0  0  0
   25.1370  -22.0741  -18.5360 O   0  0  0  0  0  0  0  0  0  0  0  0
  2  1  1  1
  3  2  1  0
  4  3  1  0
  4  5  2  0
  6  5  1  0
  7  6  1  0
  8  7  2  0
  9  8  1  0
 10  9  2  0
 10 11  1  0
 11 12  2  0
 12  7  1  0
 12  4  1  0
 13  2  1  0
 14 13  2  0
 16 15  1  0
 17 16  2  0
 18 17  1  0
 19 25  1  0
 19 18  2  0
 20 19  1  0
 21 20  1  6
 21 23  1  0
 21 22  1  0
 22 13  1  0
 23 32  1  0
 24 23  2  0
 25 26  2  0
 26 16  1  0
 27 28  1  0
 28 29  1  0
 29 30  1  0
 31 33  1  0
 31 30  1  1
 32 31  1  0
 33 34  1  0
 35 33  2  0
M  END
$$$$
