WYM.pdb
     RDKit          3D

 35 37  0  0  1  0  0  0  0  0999 V2000
   19.4127  -21.5452  -22.1965 N   0  0  0  0  0  0  0  0  0  0  0  0
   19.0083  -22.0506  -20.9074 C   0  0  1  0  0  0  0  0  0  0  0  0
   18.1997  -20.9829  -20.2112 C   0  0  0  0  0  0  0  0  0  0  0  0
   19.0136  -19.7612  -19.9871 C   0  0  0  0  0  0  0  0  0  0  0  0
   20.3175  -19.5096  -20.3325 C   0  0  0  0  0  0  0  0  0  0  0  0
   20.6459  -18.2604  -19.9305 N   0  0  0  0  0  0  0  0  0  0  0  0
   19.6002  -17.6673  -19.3258 C   0  0  0  0  0  0  0  0  0  0  0  0
   19.4050  -16.4141  -18.7421 C   0  0  0  0  0  0  0  0  0  0  0  0
   18.1762  -16.0852  -18.1834 C   0  0  0  0  0  0  0  0  0  0  0  0
   17.1559  -17.0024  -18.2102 C   0  0  0  0  0  0  0  0  0  0  0  0
   17.3658  -18.2463  -18.7952 C   0  0  0  0  0  0  0  0  0  0  0  0
   18.5838  -18.5955  -19.3585 C   0  0  0  0  0  0  0  0  0  0  0  0
   18.2495  -23.3126  -21.0642 C   0  0  0  0  0  0  0  0  0  0  0  0
   17.4336  -23.5043  -22.0052 O   0  0  0  0  0  0  0  0  0  0  0  0
   14.9395  -30.9565  -22.1371 O   0  0  0  0  0  0  0  0  0  0  0  0
   15.7110  -29.8185  -21.9690 C   0  0  0  0  0  0  0  0  0  0  0  0
   15.1647  -28.5710  -22.2111 C   0  0  0  0  0  0  0  0  0  0  0  0
   15.9299  -27.4514  -22.0440 C   0  0  0  0  0  0  0  0  0  0  0  0
   17.2390  -27.5750  -21.6358 C   0  0  0  0  0  0  0  0  0  0  0  0
   18.0378  -26.3359  -21.4641 C   0  0  0  0  0  0  0  0  0  0  0  0
   17.7205  -25.6065  -20.1862 C   0  0  2  0  0  0  0  0  0  0  0  0
   18.4283  -24.3658  -20.1313 N   0  0  0  0  0  0  0  0  0  0  0  0
   18.0633  -26.5185  -19.0573 C   0  0  0  0  0  0  0  0  0  0  0  0
   19.2929  -26.6771  -18.8228 O   0  0  0  0  0  0  0  0  0  0  0  0
   17.8014  -28.7931  -21.3905 C   0  0  0  0  0  0  0  0  0  0  0  0
   17.0261  -29.9206  -21.5603 C   0  0  0  0  0  0  0  0  0  0  0  0
   13.9087  -25.4219  -13.9890 C   0  0  0  0  0  0  0  0  0  0  0  0
   14.6627  -27.0268  -14.3610 S   0  0  0  0  0  0  0  0  0  0  0  0
   16.0332  -26.8005  -15.5744 C   0  0  0  0  0  0  0  0  0  0  0  0
   16.4463  -28.1305  -16.1340 C   0  0  0  0  0  0  0  0  0  0  0  0
   17.5199  -27.9867  -17.1474 C   0  0  2  0  0  0  0  0  0  0  0  0
   17.0913  -27.1775  -18.2808 N   0  0  0  0  0  0  0  0  0  0  0  0
   18.0397  -29.2611  -17.6273 C   0  0  0  0  0  0  0  0  0  0  0  0
   19.2285  -29.8549  -17.2683 O   0  0  0  0  0  0  0  0  0  0  0  0
   17.3471  -29.9306  -18.4768 O   0  0  0  0  0  0  0  0  0  0  0  0
  2  1  1  6
  3  2  1  0
  4  3  1  0
  4  5  2  0
  6  5  1  0
  7  6  1  0
  8  7  2  0
  9  8  1  0
 10  9  2  0
 10 11  1  0
 11 12  2  0
 12  7  1  0
 12  4  1  0
 13  2  1  0
 14 13  2  0
 16 15  1  0
 17 16  2  0
 18 17  1  0
 19 25  1  0
 19 18  2  0
 20 19  1  0
 21 20  1  6
 21 23  1  0
 21 22  1  0
 22 13  1  0
 23 32  1  0
 24 23  2  0
 25 26  2  0
 26 16  1  0
 27 28  1  0
 28 29  1  0
 29 30  1  0
 31 33  1  0
 31 30  1  1
 32 31  1  0
 33 34  1  0
 35 33  2  0
M  END
$$$$
