WYM.pdb
     RDKit          3D

 35 37  0  0  1  0  0  0  0  0999 V2000
   22.3860  -24.9055  -15.6654 N   0  0  0  0  0  0  0  0  0  0  0  0
   21.4338  -25.9416  -15.3483 C   0  0  1  0  0  0  0  0  0  0  0  0
   21.5987  -27.0602  -16.3483 C   0  0  0  0  0  0  0  0  0  0  0  0
   21.3146  -26.5871  -17.7269 C   0  0  0  0  0  0  0  0  0  0  0  0
   22.1801  -26.1065  -18.6770 C   0  0  0  0  0  0  0  0  0  0  0  0
   21.4802  -25.7932  -19.7914 N   0  0  0  0  0  0  0  0  0  0  0  0
   20.1709  -26.0497  -19.6161 C   0  0  0  0  0  0  0  0  0  0  0  0
   19.0424  -25.9125  -20.4266 C   0  0  0  0  0  0  0  0  0  0  0  0
   17.7887  -26.2736  -19.9490 C   0  0  0  0  0  0  0  0  0  0  0  0
   17.6690  -26.7665  -18.6740 C   0  0  0  0  0  0  0  0  0  0  0  0
   18.8023  -26.8973  -17.8790 C   0  0  0  0  0  0  0  0  0  0  0  0
   20.0628  -26.5430  -18.3353 C   0  0  0  0  0  0  0  0  0  0  0  0
   21.6229  -26.4057  -13.9549 C   0  0  0  0  0  0  0  0  0  0  0  0
   22.7532  -26.7027  -13.4834 O   0  0  0  0  0  0  0  0  0  0  0  0
   15.1704  -23.7185  -12.0444 O   0  0  0  0  0  0  0  0  0  0  0  0
   16.3994  -24.2738  -11.7282 C   0  0  0  0  0  0  0  0  0  0  0  0
   17.5576  -23.7392  -12.2630 C   0  0  0  0  0  0  0  0  0  0  0  0
   18.7676  -24.2905  -11.9481 C   0  0  0  0  0  0  0  0  0  0  0  0
   18.8231  -25.3741  -11.1006 C   0  0  0  0  0  0  0  0  0  0  0  0
   20.1557  -25.9443  -10.7811 C   0  0  0  0  0  0  0  0  0  0  0  0
   20.5829  -27.0140  -11.7501 C   0  0  2  0  0  0  0  0  0  0  0  0
   20.5034  -26.5309  -13.0931 N   0  0  0  0  0  0  0  0  0  0  0  0
   19.7148  -28.2026  -11.5107 C   0  0  0  0  0  0  0  0  0  0  0  0
   18.6942  -28.3044  -12.2456 O   0  0  0  0  0  0  0  0  0  0  0  0
   17.6961  -25.9198  -10.5600 C   0  0  0  0  0  0  0  0  0  0  0  0
   16.4770  -25.3607  -10.8801 C   0  0  0  0  0  0  0  0  0  0  0  0
   21.0829  -34.5507   -9.7225 C   0  0  0  0  0  0  0  0  0  0  0  0
   19.6845  -34.0078   -8.7065 S   0  0  0  0  0  0  0  0  0  0  0  0
   18.8162  -32.6122   -9.5434 C   0  0  0  0  0  0  0  0  0  0  0  0
   19.7369  -31.4327   -9.6600 C   0  0  0  0  0  0  0  0  0  0  0  0
   19.0908  -30.3043  -10.3739 C   0  0  2  0  0  0  0  0  0  0  0  0
   19.9942  -29.1715  -10.5281 N   0  0  0  0  0  0  0  0  0  0  0  0
   17.8507  -29.8576   -9.7519 C   0  0  0  0  0  0  0  0  0  0  0  0
   16.5837  -30.3337  -10.0029 O   0  0  0  0  0  0  0  0  0  0  0  0
   17.9018  -28.9218   -8.8736 O   0  0  0  0  0  0  0  0  0  0  0  0
  2  1  1  6
  3  2  1  0
  4  3  1  0
  4  5  2  0
  6  5  1  0
  7  6  1  0
  8  7  2  0
  9  8  1  0
 10  9  2  0
 10 11  1  0
 11 12  2  0
 12  7  1  0
 12  4  1  0
 13  2  1  0
 14 13  2  0
 16 15  1  0
 17 16  2  0
 18 17  1  0
 19 25  1  0
 19 18  2  0
 20 19  1  0
 21 20  1  1
 21 23  1  0
 21 22  1  0
 22 13  1  0
 23 32  1  0
 24 23  2  0
 25 26  2  0
 26 16  1  0
 27 28  1  0
 28 29  1  0
 29 30  1  0
 31 33  1  0
 31 30  1  1
 32 31  1  0
 33 34  1  0
 35 33  2  0
M  END
$$$$
