WYM.pdb
     RDKit          3D

 35 37  0  0  1  0  0  0  0  0999 V2000
   26.9129  -22.4581  -10.0561 N   0  0  0  0  0  0  0  0  0  0  0  0
   26.2201  -21.1936  -10.0999 C   0  0  1  0  0  0  0  0  0  0  0  0
   27.2357  -20.0897   -9.9315 C   0  0  0  0  0  0  0  0  0  0  0  0
   28.2282  -20.4359   -8.8827 C   0  0  0  0  0  0  0  0  0  0  0  0
   29.3184  -21.2659   -8.9572 C   0  0  0  0  0  0  0  0  0  0  0  0
   29.9410  -21.2832   -7.7564 N   0  0  0  0  0  0  0  0  0  0  0  0
   29.3001  -20.4891   -6.8791 C   0  0  0  0  0  0  0  0  0  0  0  0
   29.5160  -20.1561   -5.5406 C   0  0  0  0  0  0  0  0  0  0  0  0
   28.6549  -19.2824   -4.8883 C   0  0  0  0  0  0  0  0  0  0  0  0
   27.5904  -18.7495   -5.5708 C   0  0  0  0  0  0  0  0  0  0  0  0
   27.3887  -19.0908   -6.9036 C   0  0  0  0  0  0  0  0  0  0  0  0
   28.2355  -19.9605   -7.5740 C   0  0  0  0  0  0  0  0  0  0  0  0
   25.4610  -21.0660  -11.3649 C   0  0  0  0  0  0  0  0  0  0  0  0
   25.8447  -21.5892  -12.4452 O   0  0  0  0  0  0  0  0  0  0  0  0
   18.8476  -23.4437   -9.5909 O   0  0  0  0  0  0  0  0  0  0  0  0
   19.6444  -22.5123  -10.2360 C   0  0  0  0  0  0  0  0  0  0  0  0
   19.9967  -21.3398   -9.5922 C   0  0  0  0  0  0  0  0  0  0  0  0
   20.7829  -20.4241  -10.2328 C   0  0  0  0  0  0  0  0  0  0  0  0
   21.2178  -20.6767  -11.5145 C   0  0  0  0  0  0  0  0  0  0  0  0
   22.0711  -19.6588  -12.1767 C   0  0  0  0  0  0  0  0  0  0  0  0
   23.4290  -20.1878  -12.5534 C   0  0  2  0  0  0  0  0  0  0  0  0
   24.2488  -20.3301  -11.3911 N   0  0  0  0  0  0  0  0  0  0  0  0
   24.0079  -19.2505  -13.5584 C   0  0  0  0  0  0  0  0  0  0  0  0
   24.6147  -18.2448  -13.0975 O   0  0  0  0  0  0  0  0  0  0  0  0
   20.8846  -21.8248  -12.1712 C   0  0  0  0  0  0  0  0  0  0  0  0
   20.0911  -22.7465  -11.5215 C   0  0  0  0  0  0  0  0  0  0  0  0
   28.5152  -21.4857  -13.8911 C   0  0  0  0  0  0  0  0  0  0  0  0
   28.7734  -21.0524  -15.6312 S   0  0  0  0  0  0  0  0  0  0  0  0
   27.4196  -19.9356  -16.1986 C   0  0  0  0  0  0  0  0  0  0  0  0
   26.2221  -20.0888  -15.3070 C   0  0  0  0  0  0  0  0  0  0  0  0
   25.0787  -19.2727  -15.7835 C   0  0  2  0  0  0  0  0  0  0  0  0
   23.8988  -19.4516  -14.9476 N   0  0  0  0  0  0  0  0  0  0  0  0
   24.7304  -19.5192  -17.1773 C   0  0  0  0  0  0  0  0  0  0  0  0
   25.4984  -19.2314  -18.2828 O   0  0  0  0  0  0  0  0  0  0  0  0
   23.5957  -20.0581  -17.4448 O   0  0  0  0  0  0  0  0  0  0  0  0
  2  1  1  6
  3  2  1  0
  4  3  1  0
  4  5  2  0
  6  5  1  0
  7  6  1  0
  8  7  2  0
  9  8  1  0
 10  9  2  0
 10 11  1  0
 11 12  2  0
 12  7  1  0
 12  4  1  0
 13  2  1  0
 14 13  2  0
 16 15  1  0
 17 16  2  0
 18 17  1  0
 19 25  1  0
 19 18  2  0
 20 19  1  0
 21 20  1  1
 21 23  1  0
 21 22  1  0
 22 13  1  0
 23 32  1  0
 24 23  2  0
 25 26  2  0
 26 16  1  0
 27 28  1  0
 28 29  1  0
 29 30  1  0
 31 33  1  0
 31 30  1  1
 32 31  1  0
 33 34  1  0
 35 33  2  0
M  END
$$$$
