WYM.pdb
     RDKit          3D

 35 37  0  0  1  0  0  0  0  0999 V2000
   17.1599   -9.2233  -13.3264 N   0  0  0  0  0  0  0  0  0  0  0  0
   17.7287   -8.2008  -12.4827 C   0  0  1  0  0  0  0  0  0  0  0  0
   18.7337   -7.4202  -13.2946 C   0  0  0  0  0  0  0  0  0  0  0  0
   19.9372   -8.2410  -13.5823 C   0  0  0  0  0  0  0  0  0  0  0  0
   20.4106   -8.6982  -14.7864 C   0  0  0  0  0  0  0  0  0  0  0  0
   21.5415   -9.4091  -14.5732 N   0  0  0  0  0  0  0  0  0  0  0  0
   21.8402   -9.4419  -13.2615 C   0  0  0  0  0  0  0  0  0  0  0  0
   22.8707  -10.0219  -12.5194 C   0  0  0  0  0  0  0  0  0  0  0  0
   22.9077   -9.8754  -11.1383 C   0  0  0  0  0  0  0  0  0  0  0  0
   21.9227   -9.1558  -10.5097 C   0  0  0  0  0  0  0  0  0  0  0  0
   20.9030   -8.5842  -11.2627 C   0  0  0  0  0  0  0  0  0  0  0  0
   20.8466   -8.7178  -12.6417 C   0  0  0  0  0  0  0  0  0  0  0  0
   16.6611   -7.3344  -11.9328 C   0  0  0  0  0  0  0  0  0  0  0  0
   15.6270   -7.0304  -12.5855 O   0  0  0  0  0  0  0  0  0  0  0  0
   11.3898  -10.3983   -8.5833 O   0  0  0  0  0  0  0  0  0  0  0  0
   12.4059   -9.4569   -8.5900 C   0  0  0  0  0  0  0  0  0  0  0  0
   12.1056   -8.1148   -8.4421 C   0  0  0  0  0  0  0  0  0  0  0  0
   13.1114   -7.1899   -8.4494 C   0  0  0  0  0  0  0  0  0  0  0  0
   14.4158   -7.6025   -8.6039 C   0  0  0  0  0  0  0  0  0  0  0  0
   15.4807   -6.5685   -8.6053 C   0  0  0  0  0  0  0  0  0  0  0  0
   15.7709   -6.0282   -9.9798 C   0  0  2  0  0  0  0  0  0  0  0  0
   16.7813   -6.8108  -10.6202 N   0  0  0  0  0  0  0  0  0  0  0  0
   16.1610   -4.5976   -9.8216 C   0  0  0  0  0  0  0  0  0  0  0  0
   17.3161   -4.3826   -9.3618 O   0  0  0  0  0  0  0  0  0  0  0  0
   14.7384   -8.9194   -8.7515 C   0  0  0  0  0  0  0  0  0  0  0  0
   13.7207   -9.8498   -8.7436 C   0  0  0  0  0  0  0  0  0  0  0  0
   13.2820    2.1616  -12.1896 C   0  0  0  0  0  0  0  0  0  0  0  0
   14.5154    0.8677  -12.4848 S   0  0  0  0  0  0  0  0  0  0  0  0
   14.7432   -0.1318  -10.9515 C   0  0  0  0  0  0  0  0  0  0  0  0
   15.5374   -1.3675  -11.2591 C   0  0  0  0  0  0  0  0  0  0  0  0
   15.8045   -2.1634  -10.0362 C   0  0  2  0  0  0  0  0  0  0  0  0
   15.3093   -3.5282  -10.1582 N   0  0  0  0  0  0  0  0  0  0  0  0
   15.2718   -1.5583   -8.8218 C   0  0  0  0  0  0  0  0  0  0  0  0
   15.7144   -0.4067   -8.2113 O   0  0  0  0  0  0  0  0  0  0  0  0
   14.2871   -2.1298   -8.2273 O   0  0  0  0  0  0  0  0  0  0  0  0
  2  1  1  6
  3  2  1  0
  4  3  1  0
  4  5  2  0
  6  5  1  0
  7  6  1  0
  8  7  2  0
  9  8  1  0
 10  9  2  0
 10 11  1  0
 11 12  2  0
 12  7  1  0
 12  4  1  0
 13  2  1  0
 14 13  2  0
 16 15  1  0
 17 16  2  0
 18 17  1  0
 19 25  1  0
 19 18  2  0
 20 19  1  0
 21 20  1  1
 21 23  1  0
 21 22  1  0
 22 13  1  0
 23 32  1  0
 24 23  2  0
 25 26  2  0
 26 16  1  0
 27 28  1  0
 28 29  1  0
 29 30  1  0
 31 33  1  0
 31 30  1  6
 32 31  1  0
 33 34  1  0
 35 33  2  0
M  END
$$$$
