LYI.pdb
     RDKit          3D

 29 29  0  0  1  0  0  0  0  0999 V2000
   27.5001  -22.3658  -20.3504 C   0  0  0  0  0  0  0  0  0  0  0  0
   28.5432  -23.0195  -19.4999 C   0  0  2  0  0  0  0  0  0  0  0  0
   29.0931  -24.2726  -20.1143 C   0  0  0  0  0  0  0  0  0  0  0  0
   27.9478  -23.2655  -18.1296 C   0  0  0  0  0  0  0  0  0  0  0  0
   27.4965  -21.9043  -17.5887 C   0  0  2  0  0  0  0  0  0  0  0  0
   28.7003  -21.0983  -17.5077 N   0  0  0  0  0  0  0  0  0  0  0  0
   26.8821  -22.0212  -16.2661 C   0  0  0  0  0  0  0  0  0  0  0  0
   25.9150  -22.8362  -16.0972 O   0  0  0  0  0  0  0  0  0  0  0  0
   25.1292  -20.3280   -7.7493 O   0  0  0  0  0  0  0  0  0  0  0  0
   25.7382  -20.3805   -9.0100 C   0  0  0  0  0  0  0  0  0  0  0  0
   26.0949  -21.6066   -9.5072 C   0  0  0  0  0  0  0  0  0  0  0  0
   26.6892  -21.6870  -10.7321 C   0  0  0  0  0  0  0  0  0  0  0  0
   26.9347  -20.5710  -11.4699 C   0  0  0  0  0  0  0  0  0  0  0  0
   27.5755  -20.6800  -12.7916 C   0  0  0  0  0  0  0  0  0  0  0  0
   26.6896  -21.2292  -13.8704 C   0  0  2  0  0  0  0  0  0  0  0  0
   27.3315  -21.2513  -15.1593 N   0  0  0  0  0  0  0  0  0  0  0  0
   25.3468  -20.6687  -13.9463 C   0  0  0  0  0  0  0  0  0  0  0  0
   25.2066  -19.5051  -14.4569 O   0  0  0  0  0  0  0  0  0  0  0  0
   26.5872  -19.3338  -10.9941 C   0  0  0  0  0  0  0  0  0  0  0  0
   25.9868  -19.2534   -9.7568 C   0  0  0  0  0  0  0  0  0  0  0  0
   20.0418  -20.4885  -16.1733 C   0  0  0  0  0  0  0  0  0  0  0  0
   20.7760  -20.2752  -14.8716 C   0  0  0  0  0  0  0  0  0  0  0  0
   22.1154  -20.9822  -14.8685 C   0  0  2  0  0  0  0  0  0  0  0  0
   21.8143  -22.4644  -14.8031 C   0  0  0  0  0  0  0  0  0  0  0  0
   22.8793  -20.6235  -13.6129 C   0  0  2  0  0  0  0  0  0  0  0  0
   24.1428  -21.2732  -13.5133 N   0  0  0  0  0  0  0  0  0  0  0  0
   21.9841  -20.8222  -12.4549 C   0  0  0  0  0  0  0  0  0  0  0  0
   22.1361  -21.7960  -11.6532 O   0  0  0  0  0  0  0  0  0  0  0  0
   20.9536  -19.9241  -12.2377 O   0  0  0  0  0  0  0  0  0  0  0  0
  2  1  1  6
  2  4  1  0
  3  2  1  0
  4  5  1  0
  5  6  1  1
  7  5  1  0
  8  7  2  0
  9 10  1  0
 10 11  2  0
 10 20  1  0
 11 12  1  0
 12 13  2  0
 13 14  1  0
 15 14  1  1
 15 16  1  0
 15 17  1  0
 16  7  1  0
 17 26  1  0
 18 17  2  0
 19 13  1  0
 20 19  2  0
 21 22  1  0
 23 25  1  0
 23 22  1  0
 23 24  1  1
 25 27  1  0
 25 26  1  1
 27 28  2  0
 27 29  1  0
M  END
$$$$
