LYI.pdb
     RDKit          3D

 29 29  0  0  1  0  0  0  0  0999 V2000
   19.2956  -11.4354    5.1322 C   0  0  0  0  0  0  0  0  0  0  0  0
   19.8545  -11.8473    6.4576 C   0  0  2  0  0  0  0  0  0  0  0  0
   21.1175  -11.1181    6.8082 C   0  0  0  0  0  0  0  0  0  0  0  0
   20.0442  -13.3494    6.4428 C   0  0  0  0  0  0  0  0  0  0  0  0
   18.7282  -13.9602    5.9484 C   0  0  2  0  0  0  0  0  0  0  0  0
   17.7613  -13.7065    7.0001 N   0  0  0  0  0  0  0  0  0  0  0  0
   18.8499  -15.3995    5.7165 C   0  0  0  0  0  0  0  0  0  0  0  0
   19.4953  -15.8149    4.6972 O   0  0  0  0  0  0  0  0  0  0  0  0
   23.8129  -17.0481   10.2306 O   0  0  0  0  0  0  0  0  0  0  0  0
   22.5806  -17.3835    9.6545 C   0  0  0  0  0  0  0  0  0  0  0  0
   21.4763  -16.6578   10.0175 C   0  0  0  0  0  0  0  0  0  0  0  0
   20.2640  -16.9626    9.4722 C   0  0  0  0  0  0  0  0  0  0  0  0
   20.1310  -17.9750    8.5736 C   0  0  0  0  0  0  0  0  0  0  0  0
   18.8129  -18.2864    7.9946 C   0  0  0  0  0  0  0  0  0  0  0  0
   18.5997  -17.7544    6.6084 C   0  0  2  0  0  0  0  0  0  0  0  0
   18.2686  -16.3530    6.5955 N   0  0  0  0  0  0  0  0  0  0  0  0
   17.7076  -18.5271    5.7538 C   0  0  0  0  0  0  0  0  0  0  0  0
   16.4552  -18.2750    5.8044 O   0  0  0  0  0  0  0  0  0  0  0  0
   21.2204  -18.7149    8.1950 C   0  0  0  0  0  0  0  0  0  0  0  0
   22.4447  -18.4064    8.7463 C   0  0  0  0  0  0  0  0  0  0  0  0
   18.5338  -19.2279    0.5663 C   0  0  0  0  0  0  0  0  0  0  0  0
   18.0400  -19.0669    1.9837 C   0  0  0  0  0  0  0  0  0  0  0  0
   17.6303  -20.3964    2.5823 C   0  0  2  0  0  0  0  0  0  0  0  0
   16.4650  -20.8949    1.7544 C   0  0  0  0  0  0  0  0  0  0  0  0
   17.1224  -20.1868    3.9919 C   0  0  2  0  0  0  0  0  0  0  0  0
   18.0681  -19.5512    4.8463 N   0  0  0  0  0  0  0  0  0  0  0  0
   16.5998  -21.4751    4.4910 C   0  0  0  0  0  0  0  0  0  0  0  0
   17.2793  -22.2144    5.2694 O   0  0  0  0  0  0  0  0  0  0  0  0
   15.3374  -21.8870    4.1007 O   0  0  0  0  0  0  0  0  0  0  0  0
  2  1  1  6
  2  4  1  0
  3  2  1  0
  4  5  1  0
  5  6  1  1
  7  5  1  0
  8  7  2  0
  9 10  1  0
 10 11  2  0
 10 20  1  0
 11 12  1  0
 12 13  2  0
 13 14  1  0
 15 14  1  1
 15 16  1  0
 15 17  1  0
 16  7  1  0
 17 26  1  0
 18 17  2  0
 19 13  1  0
 20 19  2  0
 21 22  1  0
 23 25  1  0
 23 22  1  0
 23 24  1  6
 25 27  1  0
 25 26  1  1
 27 28  2  0
 27 29  1  0
M  END
$$$$
