LYI.pdb
     RDKit          3D

 29 29  0  0  1  0  0  0  0  0999 V2000
   22.2071  -17.2792  -14.2299 C   0  0  0  0  0  0  0  0  0  0  0  0
   21.0773  -18.0120  -13.5777 C   0  0  2  0  0  0  0  0  0  0  0  0
   19.9370  -17.1110  -13.2064 C   0  0  0  0  0  0  0  0  0  0  0  0
   21.6289  -18.7618  -12.3834 C   0  0  0  0  0  0  0  0  0  0  0  0
   22.7808  -19.6328  -12.8969 C   0  0  2  0  0  0  0  0  0  0  0  0
   22.1637  -20.6339  -13.7467 N   0  0  0  0  0  0  0  0  0  0  0  0
   23.5023  -20.2812  -11.8018 C   0  0  0  0  0  0  0  0  0  0  0  0
   22.8928  -21.1292  -11.0688 O   0  0  0  0  0  0  0  0  0  0  0  0
   24.9458  -24.4026  -15.8491 O   0  0  0  0  0  0  0  0  0  0  0  0
   25.3864  -23.7109  -14.7132 C   0  0  0  0  0  0  0  0  0  0  0  0
   26.0829  -22.5447  -14.8938 C   0  0  0  0  0  0  0  0  0  0  0  0
   26.5236  -21.8509  -13.8055 C   0  0  0  0  0  0  0  0  0  0  0  0
   26.2842  -22.2960  -12.5428 C   0  0  0  0  0  0  0  0  0  0  0  0
   26.7669  -21.5302  -11.3808 C   0  0  0  0  0  0  0  0  0  0  0  0
   25.7007  -20.7710  -10.6481 C   0  0  2  0  0  0  0  0  0  0  0  0
   24.8670  -19.9939  -11.5285 N   0  0  0  0  0  0  0  0  0  0  0  0
   26.1412  -19.9937   -9.4971 C   0  0  0  0  0  0  0  0  0  0  0  0
   26.3349  -18.7398   -9.6542 O   0  0  0  0  0  0  0  0  0  0  0  0
   25.5900  -23.4593  -12.3366 C   0  0  0  0  0  0  0  0  0  0  0  0
   25.1451  -24.1596  -13.4364 C   0  0  0  0  0  0  0  0  0  0  0  0
   27.8476  -20.0027   -3.4861 C   0  0  0  0  0  0  0  0  0  0  0  0
   27.5734  -19.3231   -4.8059 C   0  0  0  0  0  0  0  0  0  0  0  0
   26.9692  -20.2836   -5.8090 C   0  0  2  0  0  0  0  0  0  0  0  0
   27.8484  -21.5161   -5.8009 C   0  0  0  0  0  0  0  0  0  0  0  0
   27.0454  -19.6870   -7.1971 C   0  0  2  0  0  0  0  0  0  0  0  0
   26.3861  -20.4701   -8.1873 N   0  0  0  0  0  0  0  0  0  0  0  0
   28.4595  -19.3759   -7.4893 C   0  0  0  0  0  0  0  0  0  0  0  0
   29.1792  -20.1454   -8.1994 O   0  0  0  0  0  0  0  0  0  0  0  0
   29.0143  -18.2162   -6.9768 O   0  0  0  0  0  0  0  0  0  0  0  0
  2  1  1  1
  2  4  1  0
  3  2  1  0
  4  5  1  0
  5  6  1  6
  7  5  1  0
  8  7  2  0
  9 10  1  0
 10 11  2  0
 10 20  1  0
 11 12  1  0
 12 13  2  0
 13 14  1  0
 15 14  1  6
 15 16  1  0
 15 17  1  0
 16  7  1  0
 17 26  1  0
 18 17  2  0
 19 13  1  0
 20 19  2  0
 21 22  1  0
 23 25  1  0
 23 22  1  0
 23 24  1  6
 25 27  1  0
 25 26  1  6
 27 28  2  0
 27 29  1  0
M  END
$$$$
