LYI.pdb
     RDKit          3D

 29 29  0  0  1  0  0  0  0  0999 V2000
   28.9890  -19.8176  -15.9812 C   0  0  0  0  0  0  0  0  0  0  0  0
   27.6745  -19.1059  -16.0496 C   0  0  2  0  0  0  0  0  0  0  0  0
   27.6818  -17.9631  -17.0211 C   0  0  0  0  0  0  0  0  0  0  0  0
   27.3030  -18.6665  -14.6491 C   0  0  0  0  0  0  0  0  0  0  0  0
   27.8297  -19.7403  -13.6905 C   0  0  2  0  0  0  0  0  0  0  0  0
   27.5006  -21.0107  -14.3093 N   0  0  0  0  0  0  0  0  0  0  0  0
   27.2020  -19.6476  -12.3723 C   0  0  0  0  0  0  0  0  0  0  0  0
   27.0823  -18.5051  -11.8171 O   0  0  0  0  0  0  0  0  0  0  0  0
   20.8229  -19.5147  -14.1189 O   0  0  0  0  0  0  0  0  0  0  0  0
   21.7963  -20.0487  -13.2644 C   0  0  0  0  0  0  0  0  0  0  0  0
   21.8519  -19.5863  -11.9757 C   0  0  0  0  0  0  0  0  0  0  0  0
   22.7896  -20.0889  -11.1223 C   0  0  0  0  0  0  0  0  0  0  0  0
   23.6716  -21.0417  -11.5277 C   0  0  0  0  0  0  0  0  0  0  0  0
   24.6751  -21.5730  -10.5894 C   0  0  0  0  0  0  0  0  0  0  0  0
   25.9275  -20.7539  -10.4867 C   0  0  2  0  0  0  0  0  0  0  0  0
   26.7197  -20.7963  -11.6885 N   0  0  0  0  0  0  0  0  0  0  0  0
   26.7406  -20.9697   -9.2970 C   0  0  0  0  0  0  0  0  0  0  0  0
   27.5854  -21.9292   -9.3095 O   0  0  0  0  0  0  0  0  0  0  0  0
   23.6358  -21.5199  -12.8114 C   0  0  0  0  0  0  0  0  0  0  0  0
   22.6883  -21.0118  -13.6728 C   0  0  0  0  0  0  0  0  0  0  0  0
   29.9716  -19.2686   -4.4938 C   0  0  0  0  0  0  0  0  0  0  0  0
   28.9660  -20.2298   -5.0800 C   0  0  0  0  0  0  0  0  0  0  0  0
   28.3020  -19.6536   -6.3132 C   0  0  2  0  0  0  0  0  0  0  0  0
   27.4735  -18.4779   -5.8406 C   0  0  0  0  0  0  0  0  0  0  0  0
   27.3464  -20.6690   -6.9003 C   0  0  2  0  0  0  0  0  0  0  0  0
   26.7105  -20.2242   -8.0945 N   0  0  0  0  0  0  0  0  0  0  0  0
   26.4263  -21.1091   -5.8319 C   0  0  0  0  0  0  0  0  0  0  0  0
   26.8540  -21.6368   -4.7581 O   0  0  0  0  0  0  0  0  0  0  0  0
   25.0633  -20.9420   -6.0050 O   0  0  0  0  0  0  0  0  0  0  0  0
  2  1  1  1
  2  4  1  0
  3  2  1  0
  4  5  1  0
  5  6  1  6
  7  5  1  0
  8  7  2  0
  9 10  1  0
 10 11  2  0
 10 20  1  0
 11 12  1  0
 12 13  2  0
 13 14  1  0
 15 14  1  6
 15 16  1  0
 15 17  1  0
 16  7  1  0
 17 26  1  0
 18 17  2  0
 19 13  1  0
 20 19  2  0
 21 22  1  0
 23 25  1  0
 23 22  1  0
 23 24  1  1
 25 27  1  0
 25 26  1  6
 27 28  2  0
 27 29  1  0
M  END
$$$$
