LYI.pdb
     RDKit          3D

 29 29  0  0  1  0  0  0  0  0999 V2000
   29.1128  -18.8797  -16.7349 C   0  0  0  0  0  0  0  0  0  0  0  0
   27.9900  -17.8915  -16.6936 C   0  0  2  0  0  0  0  0  0  0  0  0
   28.3796  -16.5458  -17.2296 C   0  0  0  0  0  0  0  0  0  0  0  0
   27.4800  -17.8166  -15.2699 C   0  0  0  0  0  0  0  0  0  0  0  0
   27.2588  -19.2584  -14.7992 C   0  0  2  0  0  0  0  0  0  0  0  0
   26.4457  -19.8833  -15.8257 N   0  0  0  0  0  0  0  0  0  0  0  0
   26.5665  -19.3099  -13.5114 C   0  0  0  0  0  0  0  0  0  0  0  0
   25.9533  -18.2731  -13.0909 O   0  0  0  0  0  0  0  0  0  0  0  0
   20.8257  -19.5507  -15.3956 O   0  0  0  0  0  0  0  0  0  0  0  0
   21.7470  -20.0230  -14.4516 C   0  0  0  0  0  0  0  0  0  0  0  0
   22.6769  -20.9440  -14.8576 C   0  0  0  0  0  0  0  0  0  0  0  0
   23.5858  -21.4207  -13.9594 C   0  0  0  0  0  0  0  0  0  0  0  0
   23.5859  -20.9981  -12.6666 C   0  0  0  0  0  0  0  0  0  0  0  0
   24.5779  -21.5238  -11.7130 C   0  0  0  0  0  0  0  0  0  0  0  0
   25.7761  -20.6440  -11.5116 C   0  0  2  0  0  0  0  0  0  0  0  0
   26.5565  -20.4844  -12.7113 N   0  0  0  0  0  0  0  0  0  0  0  0
   26.6140  -20.9531  -10.3604 C   0  0  0  0  0  0  0  0  0  0  0  0
   27.3050  -22.0284  -10.3884 O   0  0  0  0  0  0  0  0  0  0  0  0
   22.6661  -20.0779  -12.2368 C   0  0  0  0  0  0  0  0  0  0  0  0
   21.7483  -19.5968  -13.1446 C   0  0  0  0  0  0  0  0  0  0  0  0
   29.3848  -18.4830   -6.4297 C   0  0  0  0  0  0  0  0  0  0  0  0
   28.8228  -19.6791   -7.1593 C   0  0  0  0  0  0  0  0  0  0  0  0
   27.3646  -19.9024   -6.8168 C   0  0  2  0  0  0  0  0  0  0  0  0
   27.3468  -20.6938   -5.5263 C   0  0  0  0  0  0  0  0  0  0  0  0
   26.7163  -20.7621   -7.8795 C   0  0  2  0  0  0  0  0  0  0  0  0
   26.7628  -20.1854   -9.1810 N   0  0  0  0  0  0  0  0  0  0  0  0
   25.3657  -21.1350   -7.4118 C   0  0  0  0  0  0  0  0  0  0  0  0
   24.3289  -20.5129   -7.8019 O   0  0  0  0  0  0  0  0  0  0  0  0
   25.2264  -22.1894   -6.5261 O   0  0  0  0  0  0  0  0  0  0  0  0
  2  1  1  1
  2  4  1  0
  3  2  1  0
  4  5  1  0
  5  6  1  6
  7  5  1  0
  8  7  2  0
  9 10  1  0
 10 11  2  0
 10 20  1  0
 11 12  1  0
 12 13  2  0
 13 14  1  0
 15 14  1  6
 15 16  1  0
 15 17  1  0
 16  7  1  0
 17 26  1  0
 18 17  2  0
 19 13  1  0
 20 19  2  0
 21 22  1  0
 23 25  1  0
 23 22  1  0
 23 24  1  1
 25 27  1  0
 25 26  1  6
 27 28  2  0
 27 29  1  0
M  END
$$$$
