LYI.pdb
     RDKit          3D

 29 29  0  0  1  0  0  0  0  0999 V2000
   29.7255  -18.9360  -17.9457 C   0  0  0  0  0  0  0  0  0  0  0  0
   28.2523  -18.8939  -18.2040 C   0  0  2  0  0  0  0  0  0  0  0  0
   27.8854  -17.9739  -19.3305 C   0  0  0  0  0  0  0  0  0  0  0  0
   27.5575  -18.5235  -16.9107 C   0  0  0  0  0  0  0  0  0  0  0  0
   28.1096  -19.4543  -15.8254 C   0  0  2  0  0  0  0  0  0  0  0  0
   27.9451  -20.7992  -16.3446 N   0  0  0  0  0  0  0  0  0  0  0  0
   27.3816  -19.3115  -14.5645 C   0  0  0  0  0  0  0  0  0  0  0  0
   27.2505  -18.1524  -14.0475 O   0  0  0  0  0  0  0  0  0  0  0  0
   19.8708  -20.5530  -10.3692 O   0  0  0  0  0  0  0  0  0  0  0  0
   21.0189  -20.6886  -11.1607 C   0  0  0  0  0  0  0  0  0  0  0  0
   21.3162  -19.6879  -12.0485 C   0  0  0  0  0  0  0  0  0  0  0  0
   22.4279  -19.7939  -12.8314 C   0  0  0  0  0  0  0  0  0  0  0  0
   23.2475  -20.8761  -12.7471 C   0  0  0  0  0  0  0  0  0  0  0  0
   24.4446  -20.9699  -13.6002 C   0  0  0  0  0  0  0  0  0  0  0  0
   25.6800  -20.3568  -13.0102 C   0  0  2  0  0  0  0  0  0  0  0  0
   26.8137  -20.4293  -13.8953 N   0  0  0  0  0  0  0  0  0  0  0  0
   26.0236  -20.7780  -11.6583 C   0  0  0  0  0  0  0  0  0  0  0  0
   26.4617  -21.9672  -11.4898 O   0  0  0  0  0  0  0  0  0  0  0  0
   22.9713  -21.8895  -11.8671 C   0  0  0  0  0  0  0  0  0  0  0  0
   21.8482  -21.7817  -11.0765 C   0  0  0  0  0  0  0  0  0  0  0  0
   28.8393  -20.3342   -6.6239 C   0  0  0  0  0  0  0  0  0  0  0  0
   27.3918  -20.4572   -7.0344 C   0  0  0  0  0  0  0  0  0  0  0  0
   27.1246  -19.7450   -8.3440 C   0  0  2  0  0  0  0  0  0  0  0  0
   26.4248  -18.4502   -7.9894 C   0  0  0  0  0  0  0  0  0  0  0  0
   26.1637  -20.5598   -9.1815 C   0  0  2  0  0  0  0  0  0  0  0  0
   25.9311  -20.0088  -10.4741 N   0  0  0  0  0  0  0  0  0  0  0  0
   24.9467  -20.8051   -8.3812 C   0  0  0  0  0  0  0  0  0  0  0  0
   24.9924  -21.4112   -7.2655 O   0  0  0  0  0  0  0  0  0  0  0  0
   23.7253  -20.3627   -8.8590 O   0  0  0  0  0  0  0  0  0  0  0  0
  2  1  1  1
  2  4  1  0
  3  2  1  0
  4  5  1  0
  5  6  1  6
  7  5  1  0
  8  7  2  0
  9 10  1  0
 10 11  2  0
 10 20  1  0
 11 12  1  0
 12 13  2  0
 13 14  1  0
 15 14  1  6
 15 16  1  0
 15 17  1  0
 16  7  1  0
 17 26  1  0
 18 17  2  0
 19 13  1  0
 20 19  2  0
 21 22  1  0
 23 25  1  0
 23 22  1  0
 23 24  1  1
 25 27  1  0
 25 26  1  6
 27 28  2  0
 27 29  1  0
M  END
$$$$
