KVD.pdb
     RDKit          3D

 25 24  0  0  1  0  0  0  0  0999 V2000
    6.2059  -15.5197   22.0155 N   0  0  0  0  0  0  0  0  0  0  0  0
    7.4319  -14.8182   21.7242 C   0  0  1  0  0  0  0  0  0  0  0  0
    7.1520  -13.5466   20.9234 C   0  0  0  0  0  0  0  0  0  0  0  0
    7.1349  -13.8669   19.4447 C   0  0  0  0  0  0  0  0  0  0  0  0
    8.1841  -13.0176   18.7746 C   0  0  0  0  0  0  0  0  0  0  0  0
    8.0817  -13.1303   17.2534 C   0  0  0  0  0  0  0  0  0  0  0  0
    8.4733  -14.4727   16.8729 N   0  0  0  0  0  0  0  0  0  0  0  0
    8.1312  -14.4813   22.9912 C   0  0  0  0  0  0  0  0  0  0  0  0
    9.3446  -14.1333   22.9152 O   0  0  0  0  0  0  0  0  0  0  0  0
    6.5667  -12.2157   25.5915 C   0  0  0  0  0  0  0  0  0  0  0  0
    7.0758  -13.4072   26.3336 C   0  0  2  0  0  0  0  0  0  0  0  0
    7.8144  -13.0411   27.6006 C   0  0  0  0  0  0  0  0  0  0  0  0
    8.0489  -14.1622   25.4510 C   0  0  2  0  0  0  0  0  0  0  0  0
    7.4393  -14.5560   24.2232 N   0  0  0  0  0  0  0  0  0  0  0  0
    8.5542  -15.3908   26.1365 C   0  0  0  0  0  0  0  0  0  0  0  0
    7.8006  -16.3205   26.5177 O   0  0  0  0  0  0  0  0  0  0  0  0
    9.9667  -15.5700   26.3984 N   0  0  0  0  0  0  0  0  0  0  0  0
   10.4307  -16.7820   27.0380 C   0  0  1  0  0  0  0  0  0  0  0  0
   11.7178  -17.2080   26.3809 C   0  0  0  0  0  0  0  0  0  0  0  0
   12.1913  -18.4555   27.0049 C   0  0  0  0  0  0  0  0  0  0  0  0
   11.5478  -19.1085   27.8593 O   0  0  0  0  0  0  0  0  0  0  0  0
   10.6587  -16.5933   28.4857 C   0  0  0  0  0  0  0  0  0  0  0  0
   10.5314  -17.5659   29.2620 O   0  0  0  0  0  0  0  0  0  0  0  0
   13.4407  -19.0167   26.6721 O   0  0  0  0  0  0  0  0  0  0  0  0
   11.0109  -15.3676   29.0165 O   0  0  0  0  0  0  0  0  0  0  0  0
  2  1  1  1
  3  4  1  0
  3  2  1  0
  5  6  1  0
  5  4  1  0
  6  7  1  0
  8  9  2  0
  8  2  1  0
 11 10  1  6
 11 13  1  0
 11 12  1  0
 13 14  1  6
 14  8  1  0
 15 13  1  0
 16 15  2  0
 17 15  1  0
 18 22  1  0
 18 17  1  0
 18 19  1  6
 20 21  2  0
 20 19  1  0
 22 25  1  0
 23 22  2  0
 24 20  1  0
M  END
$$$$
