KVD.pdb
     RDKit          3D

 25 24  0  0  1  0  0  0  0  0999 V2000
    8.2067  -17.3377   16.2516 N   0  0  0  0  0  0  0  0  0  0  0  0
    7.5900  -17.3358   17.5553 C   0  0  1  0  0  0  0  0  0  0  0  0
    7.5195  -18.7529   18.1239 C   0  0  0  0  0  0  0  0  0  0  0  0
    6.5153  -19.5691   17.3399 C   0  0  0  0  0  0  0  0  0  0  0  0
    6.4857  -20.9564   17.9279 C   0  0  0  0  0  0  0  0  0  0  0  0
    5.5675  -21.8696   17.1154 C   0  0  0  0  0  0  0  0  0  0  0  0
    5.6319  -23.1993   17.6881 N   0  0  0  0  0  0  0  0  0  0  0  0
    8.3572  -16.4541   18.4728 C   0  0  0  0  0  0  0  0  0  0  0  0
    9.5940  -16.3125   18.2501 O   0  0  0  0  0  0  0  0  0  0  0  0
    6.8711  -13.0305   19.9745 C   0  0  0  0  0  0  0  0  0  0  0  0
    7.4335  -13.9108   21.0413 C   0  0  2  0  0  0  0  0  0  0  0  0
    8.2123  -13.1458   22.0870 C   0  0  0  0  0  0  0  0  0  0  0  0
    8.3878  -14.9050   20.4116 C   0  0  2  0  0  0  0  0  0  0  0  0
    7.7015  -15.8093   19.5481 N   0  0  0  0  0  0  0  0  0  0  0  0
    9.0973  -15.7050   21.4564 C   0  0  0  0  0  0  0  0  0  0  0  0
    8.5302  -16.5922   22.1411 O   0  0  0  0  0  0  0  0  0  0  0  0
   10.5018  -15.4894   21.7335 N   0  0  0  0  0  0  0  0  0  0  0  0
   11.1719  -16.3037   22.7240 C   0  0  1  0  0  0  0  0  0  0  0  0
   12.6307  -15.9281   22.7458 C   0  0  0  0  0  0  0  0  0  0  0  0
   13.3390  -16.7888   23.7088 C   0  0  0  0  0  0  0  0  0  0  0  0
   12.9244  -17.9052   24.0990 O   0  0  0  0  0  0  0  0  0  0  0  0
   10.5984  -16.1203   24.0735 C   0  0  0  0  0  0  0  0  0  0  0  0
   10.6240  -17.0687   24.8887 O   0  0  0  0  0  0  0  0  0  0  0  0
   14.5706  -16.4018   24.2745 O   0  0  0  0  0  0  0  0  0  0  0  0
   10.0294  -14.9255   24.4697 O   0  0  0  0  0  0  0  0  0  0  0  0
  2  1  1  6
  3  4  1  0
  3  2  1  0
  5  6  1  0
  5  4  1  0
  6  7  1  0
  8  9  2  0
  8  2  1  0
 11 10  1  6
 11 13  1  0
 11 12  1  0
 13 14  1  6
 14  8  1  0
 15 13  1  0
 16 15  2  0
 17 15  1  0
 18 22  1  0
 18 17  1  0
 18 19  1  1
 20 21  2  0
 20 19  1  0
 22 25  1  0
 23 22  2  0
 24 20  1  0
M  END
$$$$
