KVD.pdb
     RDKit          3D

 25 24  0  0  1  0  0  0  0  0999 V2000
    7.0637  -14.3531   20.9085 N   0  0  0  0  0  0  0  0  0  0  0  0
    7.2413  -15.3609   21.9248 C   0  0  1  0  0  0  0  0  0  0  0  0
    7.9984  -16.5660   21.3671 C   0  0  0  0  0  0  0  0  0  0  0  0
    7.1108  -17.3281   20.4075 C   0  0  0  0  0  0  0  0  0  0  0  0
    6.1577  -18.1639   21.2224 C   0  0  0  0  0  0  0  0  0  0  0  0
    5.2334  -18.9735   20.3127 C   0  0  0  0  0  0  0  0  0  0  0  0
    4.2373  -19.6210   21.1426 N   0  0  0  0  0  0  0  0  0  0  0  0
    7.9766  -14.7850   23.0804 C   0  0  0  0  0  0  0  0  0  0  0  0
    9.1884  -14.4693   22.9044 O   0  0  0  0  0  0  0  0  0  0  0  0
    6.3947  -12.1767   25.5968 C   0  0  0  0  0  0  0  0  0  0  0  0
    7.0092  -13.3092   26.3513 C   0  0  2  0  0  0  0  0  0  0  0  0
    7.7839  -12.8556   27.5675 C   0  0  0  0  0  0  0  0  0  0  0  0
    7.9828  -14.0369   25.4468 C   0  0  2  0  0  0  0  0  0  0  0  0
    7.3191  -14.6077   24.3207 N   0  0  0  0  0  0  0  0  0  0  0  0
    8.6820  -15.1347   26.1824 C   0  0  0  0  0  0  0  0  0  0  0  0
    8.0943  -16.1666   26.5914 O   0  0  0  0  0  0  0  0  0  0  0  0
   10.1001  -15.0576   26.4633 N   0  0  0  0  0  0  0  0  0  0  0  0
   10.7403  -16.1097   27.2226 C   0  0  1  0  0  0  0  0  0  0  0  0
   12.2270  -16.0302   26.9921 C   0  0  0  0  0  0  0  0  0  0  0  0
   12.5098  -16.2613   25.5651 C   0  0  0  0  0  0  0  0  0  0  0  0
   11.8436  -17.0227   24.8255 O   0  0  0  0  0  0  0  0  0  0  0  0
   10.4620  -15.9980   28.6695 C   0  0  0  0  0  0  0  0  0  0  0  0
   10.0349  -14.9179   29.1339 O   0  0  0  0  0  0  0  0  0  0  0  0
   13.5838  -15.6209   24.9146 O   0  0  0  0  0  0  0  0  0  0  0  0
   10.6593  -17.0560   29.5355 O   0  0  0  0  0  0  0  0  0  0  0  0
  2  1  1  6
  3  4  1  0
  3  2  1  0
  5  6  1  0
  5  4  1  0
  6  7  1  0
  8  9  2  0
  8  2  1  0
 11 10  1  6
 11 13  1  0
 11 12  1  0
 13 14  1  6
 14  8  1  0
 15 13  1  0
 16 15  2  0
 17 15  1  0
 18 22  1  0
 18 17  1  0
 18 19  1  1
 20 21  2  0
 20 19  1  0
 22 25  1  0
 23 22  2  0
 24 20  1  0
M  END
$$$$
