KVD.pdb
     RDKit          3D

 25 24  0  0  1  0  0  0  0  0999 V2000
    9.0682  -17.4347   16.4802 N   0  0  0  0  0  0  0  0  0  0  0  0
    8.2108  -17.3632   17.6378 C   0  0  1  0  0  0  0  0  0  0  0  0
    8.0167  -18.7480   18.2552 C   0  0  0  0  0  0  0  0  0  0  0  0
    7.7405  -19.7600   17.1647 C   0  0  0  0  0  0  0  0  0  0  0  0
    7.5516  -21.1049   17.8179 C   0  0  0  0  0  0  0  0  0  0  0  0
    7.3319  -22.1920   16.7656 C   0  0  0  0  0  0  0  0  0  0  0  0
    7.1435  -23.4538   17.4529 N   0  0  0  0  0  0  0  0  0  0  0  0
    8.7952  -16.4340   18.6392 C   0  0  0  0  0  0  0  0  0  0  0  0
   10.0534  -16.3076   18.6558 O   0  0  0  0  0  0  0  0  0  0  0  0
    7.1622  -12.9223   19.8958 C   0  0  0  0  0  0  0  0  0  0  0  0
    7.4473  -13.8716   21.0125 C   0  0  2  0  0  0  0  0  0  0  0  0
    8.0122  -13.1886   22.2370 C   0  0  0  0  0  0  0  0  0  0  0  0
    8.4751  -14.8849   20.5515 C   0  0  2  0  0  0  0  0  0  0  0  0
    7.9503  -15.7296   19.5291 N   0  0  0  0  0  0  0  0  0  0  0  0
    8.9245  -15.7488   21.6858 C   0  0  0  0  0  0  0  0  0  0  0  0
    8.2049  -16.6473   22.1882 O   0  0  0  0  0  0  0  0  0  0  0  0
   10.2388  -15.5864   22.2706 N   0  0  0  0  0  0  0  0  0  0  0  0
   10.5980  -16.3410   23.4516 C   0  0  1  0  0  0  0  0  0  0  0  0
   12.0732  -16.1654   23.7022 C   0  0  0  0  0  0  0  0  0  0  0  0
   12.8306  -16.9320   22.6980 C   0  0  0  0  0  0  0  0  0  0  0  0
   12.3673  -17.8976   22.0471 O   0  0  0  0  0  0  0  0  0  0  0  0
    9.8427  -15.9004   24.6427 C   0  0  0  0  0  0  0  0  0  0  0  0
    9.4300  -14.7215   24.7100 O   0  0  0  0  0  0  0  0  0  0  0  0
   14.1708  -16.6209   22.3917 O   0  0  0  0  0  0  0  0  0  0  0  0
    9.5742  -16.7541   25.6950 O   0  0  0  0  0  0  0  0  0  0  0  0
  2  1  1  6
  3  4  1  0
  3  2  1  0
  5  6  1  0
  5  4  1  0
  6  7  1  0
  8  9  2  0
  8  2  1  0
 11 10  1  6
 11 13  1  0
 11 12  1  0
 13 14  1  6
 14  8  1  0
 15 13  1  0
 16 15  2  0
 17 15  1  0
 18 22  1  0
 18 17  1  0
 18 19  1  1
 20 21  2  0
 20 19  1  0
 22 25  1  0
 23 22  2  0
 24 20  1  0
M  END
$$$$
