KVD.pdb
     RDKit          3D

 25 24  0  0  1  0  0  0  0  0999 V2000
    8.0669  -13.5775   20.3967 N   0  0  0  0  0  0  0  0  0  0  0  0
    7.2118  -14.1749   21.3927 C   0  0  1  0  0  0  0  0  0  0  0  0
    6.9161  -15.6346   21.0486 C   0  0  0  0  0  0  0  0  0  0  0  0
    8.1283  -16.2616   20.3953 C   0  0  0  0  0  0  0  0  0  0  0  0
    7.7530  -17.6560   19.9642 C   0  0  0  0  0  0  0  0  0  0  0  0
    8.8871  -18.3002   19.1667 C   0  0  0  0  0  0  0  0  0  0  0  0
    8.4863  -19.6493   18.8213 N   0  0  0  0  0  0  0  0  0  0  0  0
    7.8571  -14.0847   22.7281 C   0  0  0  0  0  0  0  0  0  0  0  0
    9.1207  -14.1116   22.7704 O   0  0  0  0  0  0  0  0  0  0  0  0
    6.1046  -11.8837   25.6048 C   0  0  0  0  0  0  0  0  0  0  0  0
    6.6235  -13.1750   26.1458 C   0  0  2  0  0  0  0  0  0  0  0  0
    7.3181  -13.0186   27.4793 C   0  0  0  0  0  0  0  0  0  0  0  0
    7.6388  -13.7461   25.1770 C   0  0  2  0  0  0  0  0  0  0  0  0
    7.0614  -13.9736   23.8928 N   0  0  0  0  0  0  0  0  0  0  0  0
    8.1892  -15.0428   25.6777 C   0  0  0  0  0  0  0  0  0  0  0  0
    7.5526  -16.1239   25.6204 O   0  0  0  0  0  0  0  0  0  0  0  0
    9.5108  -15.1139   26.2645 N   0  0  0  0  0  0  0  0  0  0  0  0
   10.0658  -16.3988   26.6311 C   0  0  1  0  0  0  0  0  0  0  0  0
   11.4206  -16.5369   25.9868 C   0  0  0  0  0  0  0  0  0  0  0  0
   12.0144  -17.8271   26.3775 C   0  0  0  0  0  0  0  0  0  0  0  0
   13.2373  -18.0112   26.5804 O   0  0  0  0  0  0  0  0  0  0  0  0
   10.2019  -16.5473   28.0950 C   0  0  0  0  0  0  0  0  0  0  0  0
   10.2745  -15.5266   28.8144 O   0  0  0  0  0  0  0  0  0  0  0  0
   11.2212  -18.9786   26.5551 O   0  0  0  0  0  0  0  0  0  0  0  0
   10.2521  -17.7870   28.7023 O   0  0  0  0  0  0  0  0  0  0  0  0
  2  1  1  6
  3  4  1  0
  3  2  1  0
  5  6  1  0
  5  4  1  0
  6  7  1  0
  8  9  2  0
  8  2  1  0
 11 10  1  6
 11 13  1  0
 11 12  1  0
 13 14  1  6
 14  8  1  0
 15 13  1  0
 16 15  2  0
 17 15  1  0
 18 22  1  0
 18 17  1  0
 18 19  1  6
 20 21  2  0
 20 19  1  0
 22 25  1  0
 23 22  2  0
 24 20  1  0
M  END
$$$$
