KVD.pdb
     RDKit          3D

 25 24  0  0  1  0  0  0  0  0999 V2000
    8.5249  -17.5052   16.0881 N   0  0  0  0  0  0  0  0  0  0  0  0
    7.8197  -17.4555   17.3452 C   0  0  1  0  0  0  0  0  0  0  0  0
    7.6991  -18.8520   17.9549 C   0  0  0  0  0  0  0  0  0  0  0  0
    7.0134  -19.7799   16.9760 C   0  0  0  0  0  0  0  0  0  0  0  0
    6.9506  -21.1493   17.6019 C   0  0  0  0  0  0  0  0  0  0  0  0
    6.3539  -22.1640   16.6263 C   0  0  0  0  0  0  0  0  0  0  0  0
    5.1509  -22.7096   17.2224 N   0  0  0  0  0  0  0  0  0  0  0  0
    8.5288  -16.5473   18.2833 C   0  0  0  0  0  0  0  0  0  0  0  0
    9.7844  -16.4503   18.1672 O   0  0  0  0  0  0  0  0  0  0  0  0
    7.0602  -13.0135   19.6880 C   0  0  0  0  0  0  0  0  0  0  0  0
    7.4805  -13.9522   20.7705 C   0  0  2  0  0  0  0  0  0  0  0  0
    8.1893  -13.2574   21.9106 C   0  0  0  0  0  0  0  0  0  0  0  0
    8.4461  -14.9693   20.1972 C   0  0  2  0  0  0  0  0  0  0  0  0
    7.7999  -15.8297   19.2610 N   0  0  0  0  0  0  0  0  0  0  0  0
    9.0388  -15.8161   21.2773 C   0  0  0  0  0  0  0  0  0  0  0  0
    8.4440  -16.8030   21.7769 O   0  0  0  0  0  0  0  0  0  0  0  0
   10.3549  -15.5316   21.8091 N   0  0  0  0  0  0  0  0  0  0  0  0
   10.9708  -16.4565   22.7356 C   0  0  1  0  0  0  0  0  0  0  0  0
   12.4671  -16.3473   22.5983 C   0  0  0  0  0  0  0  0  0  0  0  0
   13.1107  -17.2286   23.5877 C   0  0  0  0  0  0  0  0  0  0  0  0
   13.4382  -18.4183   23.3691 O   0  0  0  0  0  0  0  0  0  0  0  0
   10.5856  -16.1792   24.1350 C   0  0  0  0  0  0  0  0  0  0  0  0
   10.1097  -15.0616   24.4339 O   0  0  0  0  0  0  0  0  0  0  0  0
   13.4112  -16.7782   24.8891 O   0  0  0  0  0  0  0  0  0  0  0  0
   10.7345  -17.1211   25.1345 O   0  0  0  0  0  0  0  0  0  0  0  0
  2  1  1  6
  3  4  1  0
  3  2  1  0
  5  6  1  0
  5  4  1  0
  6  7  1  0
  8  9  2  0
  8  2  1  0
 11 10  1  6
 11 13  1  0
 11 12  1  0
 13 14  1  6
 14  8  1  0
 15 13  1  0
 16 15  2  0
 17 15  1  0
 18 22  1  0
 18 17  1  0
 18 19  1  1
 20 21  2  0
 20 19  1  0
 22 25  1  0
 23 22  2  0
 24 20  1  0
M  END
$$$$
