KVD.pdb
     RDKit          3D

 25 24  0  0  1  0  0  0  0  0999 V2000
    7.5937  -14.6119   20.6086 N   0  0  0  0  0  0  0  0  0  0  0  0
    6.9848  -15.0695   21.8333 C   0  0  1  0  0  0  0  0  0  0  0  0
    6.9410  -16.5968   21.8795 C   0  0  0  0  0  0  0  0  0  0  0  0
    6.1642  -17.1222   20.6921 C   0  0  0  0  0  0  0  0  0  0  0  0
    6.0000  -18.6100   20.8676 C   0  0  0  0  0  0  0  0  0  0  0  0
    5.2105  -19.2088   19.7034 C   0  0  0  0  0  0  0  0  0  0  0  0
    6.1567  -19.6946   18.7190 N   0  0  0  0  0  0  0  0  0  0  0  0
    7.7429  -14.5441   22.9982 C   0  0  0  0  0  0  0  0  0  0  0  0
    8.9976  -14.4387   22.8804 O   0  0  0  0  0  0  0  0  0  0  0  0
    6.4700  -11.6664   25.5133 C   0  0  0  0  0  0  0  0  0  0  0  0
    6.8663  -12.9075   26.2428 C   0  0  2  0  0  0  0  0  0  0  0  0
    7.6444  -12.6246   27.5075 C   0  0  0  0  0  0  0  0  0  0  0  0
    7.7567  -13.7454   25.3479 C   0  0  2  0  0  0  0  0  0  0  0  0
    7.0593  -14.1827   24.1831 N   0  0  0  0  0  0  0  0  0  0  0  0
    8.2614  -14.9528   26.0707 C   0  0  0  0  0  0  0  0  0  0  0  0
    7.5151  -15.8972   26.4291 O   0  0  0  0  0  0  0  0  0  0  0  0
    9.6647  -15.0925   26.3980 N   0  0  0  0  0  0  0  0  0  0  0  0
   10.1356  -16.2997   27.0415 C   0  0  1  0  0  0  0  0  0  0  0  0
   11.4457  -16.6979   26.4132 C   0  0  0  0  0  0  0  0  0  0  0  0
   11.9528  -17.9116   27.0762 C   0  0  0  0  0  0  0  0  0  0  0  0
   11.2294  -18.8493   27.4859 O   0  0  0  0  0  0  0  0  0  0  0  0
   10.3252  -16.1160   28.4954 C   0  0  0  0  0  0  0  0  0  0  0  0
   10.4769  -14.9632   28.9568 O   0  0  0  0  0  0  0  0  0  0  0  0
   13.3305  -18.1060   27.3017 O   0  0  0  0  0  0  0  0  0  0  0  0
   10.3409  -17.1841   29.3712 O   0  0  0  0  0  0  0  0  0  0  0  0
  2  1  1  6
  3  4  1  0
  3  2  1  0
  5  6  1  0
  5  4  1  0
  6  7  1  0
  8  9  2  0
  8  2  1  0
 11 10  1  6
 11 13  1  0
 11 12  1  0
 13 14  1  6
 14  8  1  0
 15 13  1  0
 16 15  2  0
 17 15  1  0
 18 22  1  0
 18 17  1  0
 18 19  1  6
 20 21  2  0
 20 19  1  0
 22 25  1  0
 23 22  2  0
 24 20  1  0
M  END
$$$$
