KVD.pdb
     RDKit          3D

 25 24  0  0  1  0  0  0  0  0999 V2000
    8.1975  -15.4237   20.0870 N   0  0  0  0  0  0  0  0  0  0  0  0
    7.2892  -15.6679   21.1803 C   0  0  1  0  0  0  0  0  0  0  0  0
    6.8631  -17.1355   21.2139 C   0  0  0  0  0  0  0  0  0  0  0  0
    6.1251  -17.4830   19.9396 C   0  0  0  0  0  0  0  0  0  0  0  0
    5.5785  -18.8797   20.0870 C   0  0  0  0  0  0  0  0  0  0  0  0
    4.7194  -19.2554   18.8794 C   0  0  0  0  0  0  0  0  0  0  0  0
    4.2355  -20.6076   19.0731 N   0  0  0  0  0  0  0  0  0  0  0  0
    7.9365  -15.2936   22.4644 C   0  0  0  0  0  0  0  0  0  0  0  0
    9.1795  -15.4986   22.5746 O   0  0  0  0  0  0  0  0  0  0  0  0
    6.8362  -12.0764   24.7453 C   0  0  0  0  0  0  0  0  0  0  0  0
    6.8722  -13.3656   25.4976 C   0  0  2  0  0  0  0  0  0  0  0  0
    7.4460  -13.2204   26.8886 C   0  0  0  0  0  0  0  0  0  0  0  0
    7.7502  -14.3501   24.7523 C   0  0  2  0  0  0  0  0  0  0  0  0
    7.1652  -14.7302   23.5082 N   0  0  0  0  0  0  0  0  0  0  0  0
    7.9753  -15.5879   25.5598 C   0  0  0  0  0  0  0  0  0  0  0  0
    7.0642  -16.4142   25.8137 O   0  0  0  0  0  0  0  0  0  0  0  0
    9.2828  -15.8983   26.0983 N   0  0  0  0  0  0  0  0  0  0  0  0
    9.5314  -17.2020   26.6744 C   0  0  1  0  0  0  0  0  0  0  0  0
   10.2223  -18.0572   25.6444 C   0  0  0  0  0  0  0  0  0  0  0  0
   10.5549  -19.3622   26.2413 C   0  0  0  0  0  0  0  0  0  0  0  0
   10.2151  -19.7213   27.3929 O   0  0  0  0  0  0  0  0  0  0  0  0
   10.3711  -17.1217   27.8877 C   0  0  0  0  0  0  0  0  0  0  0  0
   11.0480  -16.0918   28.1022 O   0  0  0  0  0  0  0  0  0  0  0  0
   11.3021  -20.3259   25.5344 O   0  0  0  0  0  0  0  0  0  0  0  0
   10.4349  -18.1550   28.8022 O   0  0  0  0  0  0  0  0  0  0  0  0
  2  1  1  6
  3  4  1  0
  3  2  1  0
  5  6  1  0
  5  4  1  0
  6  7  1  0
  8  9  2  0
  8  2  1  0
 11 10  1  6
 11 13  1  0
 11 12  1  0
 13 14  1  6
 14  8  1  0
 15 13  1  0
 16 15  2  0
 17 15  1  0
 18 22  1  0
 18 17  1  0
 18 19  1  6
 20 21  2  0
 20 19  1  0
 22 25  1  0
 23 22  2  0
 24 20  1  0
M  END
$$$$
