KVD.pdb
     RDKit          3D

 25 24  0  0  1  0  0  0  0  0999 V2000
    9.2895  -15.3880   14.2742 N   0  0  0  0  0  0  0  0  0  0  0  0
    8.9100  -15.9815   15.5326 C   0  0  1  0  0  0  0  0  0  0  0  0
    9.4469  -17.4085   15.6430 C   0  0  0  0  0  0  0  0  0  0  0  0
    9.9747  -17.8616   14.2994 C   0  0  0  0  0  0  0  0  0  0  0  0
    9.8279  -19.3596   14.2252 C   0  0  0  0  0  0  0  0  0  0  0  0
   11.0802  -19.9975   13.6236 C   0  0  0  0  0  0  0  0  0  0  0  0
   10.8601  -21.4271   13.5344 N   0  0  0  0  0  0  0  0  0  0  0  0
    9.4241  -15.1534   16.6541 C   0  0  0  0  0  0  0  0  0  0  0  0
   10.5769  -14.6488   16.5283 O   0  0  0  0  0  0  0  0  0  0  0  0
    7.1382  -12.7560   18.9640 C   0  0  0  0  0  0  0  0  0  0  0  0
    7.9660  -13.6950   19.7781 C   0  0  2  0  0  0  0  0  0  0  0  0
    8.5759  -13.0389   20.9956 C   0  0  0  0  0  0  0  0  0  0  0  0
    9.1093  -14.2117   18.9286 C   0  0  2  0  0  0  0  0  0  0  0  0
    8.6307  -14.9538   17.8085 N   0  0  0  0  0  0  0  0  0  0  0  0
   10.0122  -15.0983   19.7246 C   0  0  0  0  0  0  0  0  0  0  0  0
    9.7675  -16.3121   19.9351 O   0  0  0  0  0  0  0  0  0  0  0  0
   11.2376  -14.5877   20.3022 N   0  0  0  0  0  0  0  0  0  0  0  0
   12.1111  -15.4774   21.0361 C   0  0  1  0  0  0  0  0  0  0  0  0
   13.4915  -14.8746   21.0685 C   0  0  0  0  0  0  0  0  0  0  0  0
   14.4082  -15.7983   21.7586 C   0  0  0  0  0  0  0  0  0  0  0  0
   15.3636  -15.4368   22.4846 O   0  0  0  0  0  0  0  0  0  0  0  0
   11.6413  -15.7004   22.4193 C   0  0  0  0  0  0  0  0  0  0  0  0
   12.2332  -16.5290   23.1457 O   0  0  0  0  0  0  0  0  0  0  0  0
   14.2678  -17.1961   21.6450 O   0  0  0  0  0  0  0  0  0  0  0  0
   10.5600  -15.0185   22.9428 O   0  0  0  0  0  0  0  0  0  0  0  0
  2  1  1  6
  3  4  1  0
  3  2  1  0
  5  6  1  0
  5  4  1  0
  6  7  1  0
  8  9  2  0
  8  2  1  0
 11 10  1  6
 11 13  1  0
 11 12  1  0
 13 14  1  6
 14  8  1  0
 15 13  1  0
 16 15  2  0
 17 15  1  0
 18 22  1  0
 18 17  1  0
 18 19  1  1
 20 21  2  0
 20 19  1  0
 22 25  1  0
 23 22  2  0
 24 20  1  0
M  END
$$$$
