KVD.pdb
     RDKit          3D

 25 24  0  0  1  0  0  0  0  0999 V2000
    5.8910  -19.4440   19.7191 N   0  0  0  0  0  0  0  0  0  0  0  0
    5.8368  -18.7184   20.9644 C   0  0  1  0  0  0  0  0  0  0  0  0
    5.9316  -19.6742   22.1535 C   0  0  0  0  0  0  0  0  0  0  0  0
    4.8610  -20.7376   22.0415 C   0  0  0  0  0  0  0  0  0  0  0  0
    4.8856  -21.5549   23.3073 C   0  0  0  0  0  0  0  0  0  0  0  0
    3.7410  -22.5684   23.3201 C   0  0  0  0  0  0  0  0  0  0  0  0
    3.7858  -23.2839   24.5795 N   0  0  0  0  0  0  0  0  0  0  0  0
    6.9416  -17.7263   21.0163 C   0  0  0  0  0  0  0  0  0  0  0  0
    7.9832  -17.9747   20.3435 O   0  0  0  0  0  0  0  0  0  0  0  0
    6.2672  -13.9034   20.8433 C   0  0  0  0  0  0  0  0  0  0  0  0
    7.2012  -14.1642   21.9787 C   0  0  2  0  0  0  0  0  0  0  0  0
    8.3439  -13.1767   22.0406 C   0  0  0  0  0  0  0  0  0  0  0  0
    7.8093  -15.5421   21.8137 C   0  0  2  0  0  0  0  0  0  0  0  0
    6.8054  -16.5551   21.7985 N   0  0  0  0  0  0  0  0  0  0  0  0
    8.7620  -15.8457   22.9251 C   0  0  0  0  0  0  0  0  0  0  0  0
    8.4232  -15.8502   24.1345 O   0  0  0  0  0  0  0  0  0  0  0  0
   10.1497  -16.1556   22.6528 N   0  0  0  0  0  0  0  0  0  0  0  0
   11.0272  -16.5360   23.7384 C   0  0  1  0  0  0  0  0  0  0  0  0
   11.0847  -18.0401   23.8035 C   0  0  0  0  0  0  0  0  0  0  0  0
   11.9278  -18.4446   24.9417 C   0  0  0  0  0  0  0  0  0  0  0  0
   12.4854  -17.6449   25.7292 O   0  0  0  0  0  0  0  0  0  0  0  0
   12.3931  -16.0007   23.5615 C   0  0  0  0  0  0  0  0  0  0  0  0
   13.2155  -16.0862   24.5003 O   0  0  0  0  0  0  0  0  0  0  0  0
   12.1718  -19.8023   25.2308 O   0  0  0  0  0  0  0  0  0  0  0  0
   12.7972  -15.4031   22.3835 O   0  0  0  0  0  0  0  0  0  0  0  0
  2  1  1  6
  3  4  1  0
  3  2  1  0
  5  6  1  0
  5  4  1  0
  6  7  1  0
  8  9  2  0
  8  2  1  0
 11 10  1  6
 11 13  1  0
 11 12  1  0
 13 14  1  1
 14  8  1  0
 15 13  1  0
 16 15  2  0
 17 15  1  0
 18 22  1  0
 18 17  1  0
 18 19  1  6
 20 21  2  0
 20 19  1  0
 22 25  1  0
 23 22  2  0
 24 20  1  0
M  END
$$$$
