QTT.pdb
     RDKit          3D

 24 23  0  0  1  0  0  0  0  0999 V2000
   25.1537  -13.3638  -15.3950 N   0  0  0  0  0  0  0  0  0  0  0  0
   24.5639  -14.5946  -15.7526 C   0  0  0  0  0  0  0  0  0  0  0  0
   25.2652  -15.6217  -15.7946 O   0  0  0  0  0  0  0  0  0  0  0  0
   23.1305  -14.6573  -16.0724 C   0  0  0  0  0  0  0  0  0  0  0  0
   22.5282  -13.2879  -15.9011 C   0  0  0  0  0  0  0  0  0  0  0  0
   21.0372  -13.2935  -16.1986 C   0  0  2  0  0  0  0  0  0  0  0  0
   20.8318  -14.1974  -17.3146 N   0  0  0  0  0  0  0  0  0  0  0  0
   20.6715  -11.8934  -16.5944 C   0  0  0  0  0  0  0  0  0  0  0  0
   21.0607  -11.3915  -17.6837 O   0  0  0  0  0  0  0  0  0  0  0  0
   17.4236   -8.3540  -16.4432 C   0  0  0  0  0  0  0  0  0  0  0  0
   17.9546   -9.7358  -16.2492 C   0  0  1  0  0  0  0  0  0  0  0  0
   17.5132  -10.5570  -17.2758 O   0  0  0  0  0  0  0  0  0  0  0  0
   19.4835   -9.7422  -16.1450 C   0  0  2  0  0  0  0  0  0  0  0  0
   19.8706  -11.0664  -15.7632 N   0  0  0  0  0  0  0  0  0  0  0  0
   19.9507   -8.7051  -15.1959 C   0  0  0  0  0  0  0  0  0  0  0  0
   19.9308   -8.8862  -13.9520 O   0  0  0  0  0  0  0  0  0  0  0  0
   22.1046   -4.4004  -14.1406 C   0  0  0  0  0  0  0  0  0  0  0  0
   21.8941   -5.5005  -15.1599 C   0  0  1  0  0  0  0  0  0  0  0  0
   23.0076   -6.2920  -15.3355 O   0  0  0  0  0  0  0  0  0  0  0  0
   20.7350   -6.3545  -14.6981 C   0  0  2  0  0  0  0  0  0  0  0  0
   20.4543   -7.4318  -15.6273 N   0  0  0  0  0  0  0  0  0  0  0  0
   19.5168   -5.5224  -14.4594 C   0  0  0  0  0  0  0  0  0  0  0  0
   19.0834   -5.1954  -13.1831 O   0  0  0  0  0  0  0  0  0  0  0  0
   18.8517   -5.0968  -15.4335 O   0  0  0  0  0  0  0  0  0  0  0  0
  2  1  1  0
  2  3  2  0
  4  2  1  0
  5  4  1  0
  6  8  1  0
  6  5  1  0
  6  7  1  6
  8 14  1  0
  9  8  2  0
 11 10  1  6
 11 12  1  0
 13 11  1  0
 13 14  1  1
 15 21  1  0
 15 13  1  0
 16 15  2  0
 18 20  1  0
 18 17  1  1
 19 18  1  0
 20 21  1  6
 20 22  1  0
 22 23  1  0
 24 22  2  0
M  END
$$$$
