QTT.pdb
     RDKit          3D

 24 23  0  0  1  0  0  0  0  0999 V2000
   23.6605  -15.5847  -21.1783 N   0  0  0  0  0  0  0  0  0  0  0  0
   22.4384  -16.0090  -20.6151 C   0  0  0  0  0  0  0  0  0  0  0  0
   21.3940  -15.3837  -20.8735 O   0  0  0  0  0  0  0  0  0  0  0  0
   22.4050  -17.1822  -19.7301 C   0  0  0  0  0  0  0  0  0  0  0  0
   23.7870  -17.7747  -19.6469 C   0  0  0  0  0  0  0  0  0  0  0  0
   23.7992  -19.0457  -18.8127 C   0  0  2  0  0  0  0  0  0  0  0  0
   22.8257  -18.8653  -17.7523 N   0  0  0  0  0  0  0  0  0  0  0  0
   25.1774  -19.1674  -18.2329 C   0  0  0  0  0  0  0  0  0  0  0  0
   25.8101  -18.1598  -17.8153 O   0  0  0  0  0  0  0  0  0  0  0  0
   27.9528  -20.7793  -15.1055 C   0  0  0  0  0  0  0  0  0  0  0  0
   26.8141  -20.3215  -15.9558 C   0  0  1  0  0  0  0  0  0  0  0  0
   26.5526  -18.9822  -15.7091 O   0  0  0  0  0  0  0  0  0  0  0  0
   27.0842  -20.5748  -17.4429 C   0  0  2  0  0  0  0  0  0  0  0  0
   25.8358  -20.4210  -18.1262 N   0  0  0  0  0  0  0  0  0  0  0  0
   27.6966  -21.9083  -17.6469 C   0  0  0  0  0  0  0  0  0  0  0  0
   27.0409  -22.9701  -17.4950 O   0  0  0  0  0  0  0  0  0  0  0  0
   31.6089  -24.7077  -18.9028 C   0  0  0  0  0  0  0  0  0  0  0  0
   31.0331  -23.3085  -18.8386 C   0  0  1  0  0  0  0  0  0  0  0  0
   30.9067  -22.7209  -20.0780 O   0  0  0  0  0  0  0  0  0  0  0  0
   29.6760  -23.3879  -18.1766 C   0  0  2  0  0  0  0  0  0  0  0  0
   29.0698  -22.0789  -18.0291 N   0  0  0  0  0  0  0  0  0  0  0  0
   29.7614  -24.0897  -16.8599 C   0  0  0  0  0  0  0  0  0  0  0  0
   30.0232  -23.4135  -15.6775 O   0  0  0  0  0  0  0  0  0  0  0  0
   29.5933  -25.3310  -16.8028 O   0  0  0  0  0  0  0  0  0  0  0  0
  2  1  1  0
  2  3  2  0
  4  2  1  0
  5  4  1  0
  6  8  1  0
  6  5  1  0
  6  7  1  1
  8 14  1  0
  9  8  2  0
 11 10  1  1
 11 12  1  0
 13 11  1  0
 13 14  1  6
 15 21  1  0
 15 13  1  0
 16 15  2  0
 18 20  1  0
 18 17  1  6
 19 18  1  0
 20 21  1  1
 20 22  1  0
 22 23  1  0
 24 22  2  0
M  END
$$$$
