QTT.pdb
     RDKit          3D

 24 23  0  0  1  0  0  0  0  0999 V2000
   12.2335  -10.1293  -14.8525 N   0  0  0  0  0  0  0  0  0  0  0  0
   12.2926  -11.0701  -13.8028 C   0  0  0  0  0  0  0  0  0  0  0  0
   11.5896  -12.0954  -13.8576 O   0  0  0  0  0  0  0  0  0  0  0  0
   13.1802  -10.8356  -12.6547 C   0  0  0  0  0  0  0  0  0  0  0  0
   13.9366   -9.5518  -12.8723 C   0  0  0  0  0  0  0  0  0  0  0  0
   15.4331   -9.7487  -12.6894 C   0  0  2  0  0  0  0  0  0  0  0  0
   15.6176  -10.4422  -11.4286 N   0  0  0  0  0  0  0  0  0  0  0  0
   16.0425   -8.3797  -12.6195 C   0  0  0  0  0  0  0  0  0  0  0  0
   15.8076   -7.5060  -13.4978 O   0  0  0  0  0  0  0  0  0  0  0  0
   15.7005   -5.7581  -10.0779 C   0  0  0  0  0  0  0  0  0  0  0  0
   17.1519   -6.1019  -10.1442 C   0  0  1  0  0  0  0  0  0  0  0  0
   17.4812   -6.9528   -9.0998 O   0  0  0  0  0  0  0  0  0  0  0  0
   17.5255   -6.7094  -11.5006 C   0  0  2  0  0  0  0  0  0  0  0  0
   16.9122   -8.0014  -11.5627 N   0  0  0  0  0  0  0  0  0  0  0  0
   18.9967   -6.7571  -11.6686 C   0  0  0  0  0  0  0  0  0  0  0  0
   19.7359   -7.3870  -10.8703 O   0  0  0  0  0  0  0  0  0  0  0  0
   21.2561   -8.4882  -13.6776 C   0  0  0  0  0  0  0  0  0  0  0  0
   21.4987   -7.0486  -14.0802 C   0  0  1  0  0  0  0  0  0  0  0  0
   20.7870   -6.6750  -15.1987 O   0  0  0  0  0  0  0  0  0  0  0  0
   21.1126   -6.1632  -12.9168 C   0  0  2  0  0  0  0  0  0  0  0  0
   19.6744   -6.0930  -12.7459 N   0  0  0  0  0  0  0  0  0  0  0  0
   21.7016   -4.7975  -13.0630 C   0  0  0  0  0  0  0  0  0  0  0  0
   23.0696   -4.5735  -13.0159 O   0  0  0  0  0  0  0  0  0  0  0  0
   20.9493   -3.8091  -13.2347 O   0  0  0  0  0  0  0  0  0  0  0  0
  2  1  1  0
  2  3  2  0
  4  2  1  0
  5  4  1  0
  6  8  1  0
  6  5  1  0
  6  7  1  1
  8 14  1  0
  9  8  2  0
 11 10  1  6
 11 12  1  0
 13 11  1  0
 13 14  1  1
 15 21  1  0
 15 13  1  0
 16 15  2  0
 18 20  1  0
 18 17  1  1
 19 18  1  0
 20 21  1  6
 20 22  1  0
 22 23  1  0
 24 22  2  0
M  END
$$$$
