TDC.pdb
     RDKit          3D

 22 21  0  0  1  0  0  0  0  0999 V2000
   17.5170  -11.7764  -12.1375 C   0  0  0  0  0  0  0  0  0  0  0  0
   16.0369  -12.0402  -11.9802 C   0  0  1  0  0  0  0  0  0  0  0  0
   15.7729  -13.3741  -11.7909 O   0  0  0  0  0  0  0  0  0  0  0  0
   15.4308  -11.2009  -10.8809 C   0  0  2  0  0  0  0  0  0  0  0  0
   13.9893  -11.4535  -10.8390 N   0  0  0  0  0  0  0  0  0  0  0  0
   15.6283   -9.7569  -11.0495 C   0  0  0  0  0  0  0  0  0  0  0  0
   15.0802   -9.1495  -12.0047 O   0  0  0  0  0  0  0  0  0  0  0  0
   16.4379   -8.9718  -10.1570 N   0  0  0  0  0  0  0  0  0  0  0  0
   16.7299   -7.5715  -10.3509 C   0  0  1  0  0  0  0  0  0  0  0  0
   16.4756   -6.8487   -9.0544 C   0  0  0  0  0  0  0  0  0  0  0  0
   16.6124   -5.3958   -9.2848 C   0  0  0  0  0  0  0  0  0  0  0  0
   16.8171   -4.9114  -10.4203 O   0  0  0  0  0  0  0  0  0  0  0  0
   18.1645   -7.3835  -10.7777 C   0  0  0  0  0  0  0  0  0  0  0  0
   19.0489   -7.6313   -9.9340 O   0  0  0  0  0  0  0  0  0  0  0  0
   16.5180   -4.4824   -8.2282 O   0  0  0  0  0  0  0  0  0  0  0  0
   18.5436   -6.9477  -12.0658 N   0  0  0  0  0  0  0  0  0  0  0  0
   19.9117   -6.7812  -12.4890 C   0  0  1  0  0  0  0  0  0  0  0  0
   20.1871   -7.6367  -13.7158 C   0  0  0  0  0  0  0  0  0  0  0  0
   20.2491   -9.3888  -13.2484 S   0  0  0  0  0  0  0  0  0  0  0  0
   20.1727   -5.3578  -12.7928 C   0  0  0  0  0  0  0  0  0  0  0  0
   19.1057   -4.4796  -12.8682 O   0  0  0  0  0  0  0  0  0  0  0  0
   21.3156   -4.8869  -12.9898 O   0  0  0  0  0  0  0  0  0  0  0  0
  2  1  1  1
  2  4  1  0
  3  2  1  0
  4  6  1  0
  4  5  1  6
  6  7  2  0
  8  9  1  0
  8  6  1  0
  9 13  1  0
 10 11  1  0
  9 10  1  1
 11 15  1  0
 12 11  2  0
 13 14  2  0
 16 13  1  0
 16 17  1  0
 17 20  1  0
 17 18  1  6
 19 18  1  0
 20 22  2  0
 20 21  1  0
M  END
$$$$
