TDC.pdb
     RDKit          3D

 22 21  0  0  1  0  0  0  0  0999 V2000
   18.8733  -10.6548  -14.5098 C   0  0  0  0  0  0  0  0  0  0  0  0
   18.5856  -11.1295  -15.9158 C   0  0  1  0  0  0  0  0  0  0  0  0
   18.2466  -12.4595  -15.9467 O   0  0  0  0  0  0  0  0  0  0  0  0
   17.5345  -10.2810  -16.5907 C   0  0  2  0  0  0  0  0  0  0  0  0
   17.3354  -10.7775  -17.9535 N   0  0  0  0  0  0  0  0  0  0  0  0
   17.8771   -8.8571  -16.6779 C   0  0  0  0  0  0  0  0  0  0  0  0
   18.7624   -8.4662  -17.4811 O   0  0  0  0  0  0  0  0  0  0  0  0
   17.2384   -7.8513  -15.8723 N   0  0  0  0  0  0  0  0  0  0  0  0
   17.6551   -6.4701  -15.8230 C   0  0  1  0  0  0  0  0  0  0  0  0
   16.4749   -5.6320  -15.4074 C   0  0  0  0  0  0  0  0  0  0  0  0
   16.8863   -4.2133  -15.3757 C   0  0  0  0  0  0  0  0  0  0  0  0
   16.9389   -3.5521  -14.3146 O   0  0  0  0  0  0  0  0  0  0  0  0
   18.7885   -6.2933  -14.8434 C   0  0  0  0  0  0  0  0  0  0  0  0
   18.6731   -6.8438  -13.7304 O   0  0  0  0  0  0  0  0  0  0  0  0
   17.2410   -3.5351  -16.5477 O   0  0  0  0  0  0  0  0  0  0  0  0
   19.9526   -5.5461  -15.1253 N   0  0  0  0  0  0  0  0  0  0  0  0
   21.1043   -5.4930  -14.2597 C   0  0  1  0  0  0  0  0  0  0  0  0
   22.2255   -6.3488  -14.8284 C   0  0  0  0  0  0  0  0  0  0  0  0
   23.1263   -7.1651  -13.4815 S   0  0  0  0  0  0  0  0  0  0  0  0
   21.5575   -4.0931  -14.1134 C   0  0  0  0  0  0  0  0  0  0  0  0
   22.2394   -3.7234  -12.9672 O   0  0  0  0  0  0  0  0  0  0  0  0
   21.3613   -3.2051  -14.9734 O   0  0  0  0  0  0  0  0  0  0  0  0
  2  1  1  1
  2  4  1  0
  3  2  1  0
  4  6  1  0
  4  5  1  6
  6  7  2  0
  8  9  1  0
  8  6  1  0
  9 13  1  0
 10 11  1  0
  9 10  1  1
 11 15  1  0
 12 11  2  0
 13 14  2  0
 16 13  1  0
 16 17  1  0
 17 20  1  0
 17 18  1  6
 19 18  1  0
 20 22  2  0
 20 21  1  0
M  END
$$$$
