TDC.pdb
     RDKit          3D

 22 21  0  0  1  0  0  0  0  0999 V2000
   13.4854  -13.4348  -14.4450 C   0  0  0  0  0  0  0  0  0  0  0  0
   14.1526  -12.4206  -13.5444 C   0  0  1  0  0  0  0  0  0  0  0  0
   13.7771  -12.5763  -12.2332 O   0  0  0  0  0  0  0  0  0  0  0  0
   15.6555  -12.4436  -13.6898 C   0  0  2  0  0  0  0  0  0  0  0  0
   16.1602  -13.7037  -13.1413 N   0  0  0  0  0  0  0  0  0  0  0  0
   16.3426  -11.3467  -12.9991 C   0  0  0  0  0  0  0  0  0  0  0  0
   16.7916  -11.5126  -11.8361 O   0  0  0  0  0  0  0  0  0  0  0  0
   16.5385  -10.0523  -13.5946 N   0  0  0  0  0  0  0  0  0  0  0  0
   17.2545   -8.9708  -12.9608 C   0  0  1  0  0  0  0  0  0  0  0  0
   17.9701   -8.1848  -14.0276 C   0  0  0  0  0  0  0  0  0  0  0  0
   19.1967   -8.9127  -14.4129 C   0  0  0  0  0  0  0  0  0  0  0  0
   19.2339   -9.7005  -15.3844 O   0  0  0  0  0  0  0  0  0  0  0  0
   16.3030   -8.0759  -12.2063 C   0  0  0  0  0  0  0  0  0  0  0  0
   15.2336   -7.7729  -12.7718 O   0  0  0  0  0  0  0  0  0  0  0  0
   20.3897   -8.7517  -13.6984 O   0  0  0  0  0  0  0  0  0  0  0  0
   16.5644   -7.5754  -10.9125 N   0  0  0  0  0  0  0  0  0  0  0  0
   15.6713   -6.7033  -10.1912 C   0  0  1  0  0  0  0  0  0  0  0  0
   15.9496   -6.7890   -8.6985 C   0  0  0  0  0  0  0  0  0  0  0  0
   15.6033   -8.4660   -8.0987 S   0  0  0  0  0  0  0  0  0  0  0  0
   15.8413   -5.3116  -10.6610 C   0  0  0  0  0  0  0  0  0  0  0  0
   14.9512   -4.3431  -10.2306 O   0  0  0  0  0  0  0  0  0  0  0  0
   16.7535   -4.9458  -11.4360 O   0  0  0  0  0  0  0  0  0  0  0  0
  2  1  1  6
  2  4  1  0
  3  2  1  0
  4  6  1  0
  4  5  1  1
  6  7  2  0
  8  9  1  0
  8  6  1  0
  9 13  1  0
 10 11  1  0
  9 10  1  6
 11 15  1  0
 12 11  2  0
 13 14  2  0
 16 13  1  0
 16 17  1  0
 17 20  1  0
 17 18  1  1
 19 18  1  0
 20 22  2  0
 20 21  1  0
M  END
$$$$
