TDC.pdb
     RDKit          3D

 22 21  0  0  1  0  0  0  0  0999 V2000
   14.8712  -12.2475   -9.9735 C   0  0  0  0  0  0  0  0  0  0  0  0
   15.3285  -10.9232  -10.5410 C   0  0  1  0  0  0  0  0  0  0  0  0
   15.1333  -10.8541  -11.8981 O   0  0  0  0  0  0  0  0  0  0  0  0
   14.6808   -9.7562   -9.8347 C   0  0  2  0  0  0  0  0  0  0  0  0
   13.2372   -9.8065  -10.0733 N   0  0  0  0  0  0  0  0  0  0  0  0
   15.1630   -8.4433  -10.2777 C   0  0  0  0  0  0  0  0  0  0  0  0
   14.5297   -7.7972  -11.1512 O   0  0  0  0  0  0  0  0  0  0  0  0
   16.3556   -7.8338   -9.7535 N   0  0  0  0  0  0  0  0  0  0  0  0
   16.8871   -6.5723  -10.2115 C   0  0  1  0  0  0  0  0  0  0  0  0
   16.9204   -5.6191   -9.0460 C   0  0  0  0  0  0  0  0  0  0  0  0
   17.2932   -4.2772   -9.5391 C   0  0  0  0  0  0  0  0  0  0  0  0
   17.4336   -4.0234  -10.7564 O   0  0  0  0  0  0  0  0  0  0  0  0
   18.2751   -6.7547  -10.7732 C   0  0  0  0  0  0  0  0  0  0  0  0
   18.9972   -7.6218  -10.2420 O   0  0  0  0  0  0  0  0  0  0  0  0
   17.5092   -3.2141   -8.6545 O   0  0  0  0  0  0  0  0  0  0  0  0
   18.7838   -6.0015  -11.8534 N   0  0  0  0  0  0  0  0  0  0  0  0
   20.0486   -6.2648  -12.4933 C   0  0  1  0  0  0  0  0  0  0  0  0
   20.0470   -7.6592  -13.1004 C   0  0  0  0  0  0  0  0  0  0  0  0
   20.6629   -8.8627  -11.8904 S   0  0  0  0  0  0  0  0  0  0  0  0
   20.2996   -5.2537  -13.5427 C   0  0  0  0  0  0  0  0  0  0  0  0
   21.5711   -5.1412  -14.0776 O   0  0  0  0  0  0  0  0  0  0  0  0
   19.4221   -4.4794  -13.9866 O   0  0  0  0  0  0  0  0  0  0  0  0
  2  1  1  1
  2  4  1  0
  3  2  1  0
  4  6  1  0
  4  5  1  6
  6  7  2  0
  8  9  1  0
  8  6  1  0
  9 13  1  0
 10 11  1  0
  9 10  1  1
 11 15  1  0
 12 11  2  0
 13 14  2  0
 16 13  1  0
 16 17  1  0
 17 20  1  0
 17 18  1  6
 19 18  1  0
 20 22  2  0
 20 21  1  0
M  END
$$$$
