TDC.pdb
     RDKit          3D

 22 21  0  0  1  0  0  0  0  0999 V2000
   15.1079  -12.1242  -16.5942 C   0  0  0  0  0  0  0  0  0  0  0  0
   15.6390  -10.8163  -16.0537 C   0  0  1  0  0  0  0  0  0  0  0  0
   14.8056  -10.2799  -15.1037 O   0  0  0  0  0  0  0  0  0  0  0  0
   17.0481  -10.9565  -15.5292 C   0  0  2  0  0  0  0  0  0  0  0  0
   17.0312  -11.8566  -14.3748 N   0  0  0  0  0  0  0  0  0  0  0  0
   17.6590   -9.6924  -15.1033 C   0  0  0  0  0  0  0  0  0  0  0  0
   17.2917   -9.1392  -14.0352 O   0  0  0  0  0  0  0  0  0  0  0  0
   18.6860   -9.0291  -15.8608 N   0  0  0  0  0  0  0  0  0  0  0  0
   19.2644   -7.7573  -15.4980 C   0  0  1  0  0  0  0  0  0  0  0  0
   20.6851   -7.7215  -15.9964 C   0  0  0  0  0  0  0  0  0  0  0  0
   21.5305   -8.5159  -15.0815 C   0  0  0  0  0  0  0  0  0  0  0  0
   22.2939   -9.4207  -15.4869 O   0  0  0  0  0  0  0  0  0  0  0  0
   18.4732   -6.6238  -16.1019 C   0  0  0  0  0  0  0  0  0  0  0  0
   18.1114   -6.7483  -17.2889 O   0  0  0  0  0  0  0  0  0  0  0  0
   21.5156   -8.2890  -13.7003 O   0  0  0  0  0  0  0  0  0  0  0  0
   18.1305   -5.4501  -15.3964 N   0  0  0  0  0  0  0  0  0  0  0  0
   17.3897   -4.3539  -15.9693 C   0  0  1  0  0  0  0  0  0  0  0  0
   15.9359   -4.4181  -15.5273 C   0  0  0  0  0  0  0  0  0  0  0  0
   15.8432   -4.5695  -13.7216 S   0  0  0  0  0  0  0  0  0  0  0  0
   17.9917   -3.0695  -15.5519 C   0  0  0  0  0  0  0  0  0  0  0  0
   17.4563   -1.8877  -16.0340 O   0  0  0  0  0  0  0  0  0  0  0  0
   18.9710   -2.9794  -14.7776 O   0  0  0  0  0  0  0  0  0  0  0  0
  2  1  1  1
  2  4  1  0
  3  2  1  0
  4  6  1  0
  4  5  1  1
  6  7  2  0
  8  9  1  0
  8  6  1  0
  9 13  1  0
 10 11  1  0
  9 10  1  6
 11 15  1  0
 12 11  2  0
 13 14  2  0
 16 13  1  0
 16 17  1  0
 17 20  1  0
 17 18  1  1
 19 18  1  0
 20 22  2  0
 20 21  1  0
M  END
$$$$
