EPF.pdb
     RDKit          3D

 28 29  0  0  1  0  0  0  0  0999 V2000
    7.8385  -19.0037   19.7217 N   0  0  0  0  0  0  0  0  0  0  0  0
    7.2257  -18.0874   20.6483 C   0  0  1  0  0  0  0  0  0  0  0  0
    6.5671  -18.8938   21.7542 C   0  0  0  0  0  0  0  0  0  0  0  0
    5.5434  -19.8011   21.1560 C   0  0  0  0  0  0  0  0  0  0  0  0
    5.5840  -21.1620   21.7733 C   0  0  0  0  0  0  0  0  0  0  0  0
    4.9203  -21.3923   22.8038 O   0  0  0  0  0  0  0  0  0  0  0  0
    8.1399  -17.1030   21.2218 C   0  0  0  0  0  0  0  0  0  0  0  0
    9.3800  -17.3977   21.2397 O   0  0  0  0  0  0  0  0  0  0  0  0
    6.3442  -22.1683   21.2214 O   0  0  0  0  0  0  0  0  0  0  0  0
    7.7756  -15.8578   21.7569 N   0  0  0  0  0  0  0  0  0  0  0  0
    6.4727  -15.3664   22.0582 C   0  0  0  0  0  0  0  0  0  0  0  0
    6.5255  -13.9206   21.5439 C   0  0  0  0  0  0  0  0  0  0  0  0
    7.9677  -13.5713   21.6583 C   0  0  0  0  0  0  0  0  0  0  0  0
    8.7066  -14.7774   22.0991 C   0  0  1  0  0  0  0  0  0  0  0  0
    8.9698  -14.8584   23.5334 C   0  0  0  0  0  0  0  0  0  0  0  0
    9.6249  -13.9499   24.1058 O   0  0  0  0  0  0  0  0  0  0  0  0
    8.5172  -15.9359   24.3523 N   0  0  0  0  0  0  0  0  0  0  0  0
    8.8456  -15.9757   25.7669 C   0  0  1  0  0  0  0  0  0  0  0  0
    7.6606  -15.4972   26.5473 C   0  0  0  0  0  0  0  0  0  0  0  0
    7.4988  -14.0360   26.5956 C   0  0  0  0  0  0  0  0  0  0  0  0
    8.5359  -13.2103   26.9700 C   0  0  0  0  0  0  0  0  0  0  0  0
    8.3401  -11.8340   26.9998 C   0  0  0  0  0  0  0  0  0  0  0  0
    7.1180  -11.3009   26.6575 C   0  0  0  0  0  0  0  0  0  0  0  0
    6.0636  -12.1126   26.2788 C   0  0  0  0  0  0  0  0  0  0  0  0
    6.2757  -13.4901   26.2539 C   0  0  0  0  0  0  0  0  0  0  0  0
    9.2818  -17.3369   26.1490 C   0  0  0  0  0  0  0  0  0  0  0  0
    9.8496  -17.5677   27.3909 O   0  0  0  0  0  0  0  0  0  0  0  0
    9.1548  -18.3154   25.3716 O   0  0  0  0  0  0  0  0  0  0  0  0
  2  1  1  6
  2  3  1  0
  2  7  1  0
  4  3  1  0
  5  6  2  0
  5  4  1  0
  7  8  2  0
  7 10  1  0
  9  5  1  0
 10 14  1  0
 10 11  1  0
 12 11  1  0
 13 14  1  0
 13 12  1  0
 15 16  2  0
 14 15  1  1
 17 15  1  0
 18 26  1  0
 18 17  1  0
 18 19  1  1
 20 19  1  0
 21 20  2  0
 22 21  1  0
 23 24  1  0
 23 22  2  0
 24 25  2  0
 25 20  1  0
 26 27  1  0
 28 26  2  0
M  END
$$$$
