EPF.pdb
     RDKit          3D

 28 29  0  0  1  0  0  0  0  0999 V2000
    7.4685  -19.3590   19.8792 N   0  0  0  0  0  0  0  0  0  0  0  0
    7.0284  -18.2708   20.7136 C   0  0  1  0  0  0  0  0  0  0  0  0
    6.2722  -18.8501   21.8966 C   0  0  0  0  0  0  0  0  0  0  0  0
    7.2133  -19.6492   22.7360 C   0  0  0  0  0  0  0  0  0  0  0  0
    6.5175  -20.2749   23.9019 C   0  0  0  0  0  0  0  0  0  0  0  0
    5.2740  -20.2198   23.9808 O   0  0  0  0  0  0  0  0  0  0  0  0
    8.0993  -17.3952   21.1829 C   0  0  0  0  0  0  0  0  0  0  0  0
    9.2917  -17.8402   21.1116 O   0  0  0  0  0  0  0  0  0  0  0  0
    7.2288  -20.9129   24.8929 O   0  0  0  0  0  0  0  0  0  0  0  0
    7.9339  -16.1039   21.7072 N   0  0  0  0  0  0  0  0  0  0  0  0
    6.7281  -15.4445   22.0828 C   0  0  0  0  0  0  0  0  0  0  0  0
    6.9263  -14.0271   21.5266 C   0  0  0  0  0  0  0  0  0  0  0  0
    8.4055  -13.8629   21.5331 C   0  0  0  0  0  0  0  0  0  0  0  0
    9.0157  -15.1452   21.9555 C   0  0  1  0  0  0  0  0  0  0  0  0
    9.3677  -15.2325   23.3703 C   0  0  0  0  0  0  0  0  0  0  0  0
   10.3580  -14.5960   23.8133 O   0  0  0  0  0  0  0  0  0  0  0  0
    8.6371  -16.0182   24.3112 N   0  0  0  0  0  0  0  0  0  0  0  0
    8.9226  -15.9215   25.7323 C   0  0  1  0  0  0  0  0  0  0  0  0
    7.6507  -15.6038   26.4559 C   0  0  0  0  0  0  0  0  0  0  0  0
    7.2311  -14.1959   26.3839 C   0  0  0  0  0  0  0  0  0  0  0  0
    5.9436  -13.8466   26.0404 C   0  0  0  0  0  0  0  0  0  0  0  0
    5.5889  -12.5032   25.9866 C   0  0  0  0  0  0  0  0  0  0  0  0
    6.5184  -11.5295   26.2745 C   0  0  0  0  0  0  0  0  0  0  0  0
    7.8165  -11.8591   26.6214 C   0  0  0  0  0  0  0  0  0  0  0  0
    8.1565  -13.2100   26.6710 C   0  0  0  0  0  0  0  0  0  0  0  0
    9.5658  -17.1665   26.2071 C   0  0  0  0  0  0  0  0  0  0  0  0
   10.1585  -17.2158   27.4578 O   0  0  0  0  0  0  0  0  0  0  0  0
    9.5967  -18.2060   25.5024 O   0  0  0  0  0  0  0  0  0  0  0  0
  2  1  1  1
  2  3  1  0
  2  7  1  0
  4  3  1  0
  5  6  2  0
  5  4  1  0
  7  8  2  0
  7 10  1  0
  9  5  1  0
 10 14  1  0
 10 11  1  0
 12 11  1  0
 13 14  1  0
 13 12  1  0
 15 16  2  0
 14 15  1  1
 17 15  1  0
 18 26  1  0
 18 17  1  0
 18 19  1  1
 20 19  1  0
 21 20  2  0
 22 21  1  0
 23 24  1  0
 23 22  2  0
 24 25  2  0
 25 20  1  0
 26 27  1  0
 28 26  2  0
M  END
$$$$
