EPF.pdb
     RDKit          3D

 28 29  0  0  1  0  0  0  0  0999 V2000
    7.3275  -19.0282   19.7881 N   0  0  0  0  0  0  0  0  0  0  0  0
    6.9181  -17.9492   20.6495 C   0  0  1  0  0  0  0  0  0  0  0  0
    6.2899  -18.5448   21.8975 C   0  0  0  0  0  0  0  0  0  0  0  0
    7.2607  -19.4830   22.5349 C   0  0  0  0  0  0  0  0  0  0  0  0
    6.7053  -20.0868   23.7846 C   0  0  0  0  0  0  0  0  0  0  0  0
    5.7775  -20.9170   23.7095 O   0  0  0  0  0  0  0  0  0  0  0  0
    7.9899  -17.0278   21.0185 C   0  0  0  0  0  0  0  0  0  0  0  0
    9.1881  -17.4186   20.8277 O   0  0  0  0  0  0  0  0  0  0  0  0
    7.2025  -19.7408   25.0208 O   0  0  0  0  0  0  0  0  0  0  0  0
    7.8194  -15.7468   21.5659 N   0  0  0  0  0  0  0  0  0  0  0  0
    6.6185  -15.1226   22.0108 C   0  0  0  0  0  0  0  0  0  0  0  0
    6.7521  -13.6948   21.4622 C   0  0  0  0  0  0  0  0  0  0  0  0
    8.2250  -13.4928   21.3945 C   0  0  0  0  0  0  0  0  0  0  0  0
    8.8883  -14.7633   21.7697 C   0  0  1  0  0  0  0  0  0  0  0  0
    9.3150  -14.8566   23.1633 C   0  0  0  0  0  0  0  0  0  0  0  0
   10.2346  -14.1129   23.5915 O   0  0  0  0  0  0  0  0  0  0  0  0
    8.7372  -15.7658   24.0993 N   0  0  0  0  0  0  0  0  0  0  0  0
    9.1907  -15.7911   25.4792 C   0  0  1  0  0  0  0  0  0  0  0  0
    8.0256  -15.4941   26.3718 C   0  0  0  0  0  0  0  0  0  0  0  0
    7.5476  -14.1038   26.3257 C   0  0  0  0  0  0  0  0  0  0  0  0
    6.2715  -13.7963   25.9080 C   0  0  0  0  0  0  0  0  0  0  0  0
    5.8598  -12.4684   25.8820 C   0  0  0  0  0  0  0  0  0  0  0  0
    6.7222  -11.4684   26.2711 C   0  0  0  0  0  0  0  0  0  0  0  0
    8.0077  -11.7559   26.6937 C   0  0  0  0  0  0  0  0  0  0  0  0
    8.4053  -13.0918   26.7142 C   0  0  0  0  0  0  0  0  0  0  0  0
    9.8357  -17.0887   25.7783 C   0  0  0  0  0  0  0  0  0  0  0  0
   10.5652  -17.2563   26.9435 O   0  0  0  0  0  0  0  0  0  0  0  0
    9.7458  -18.0683   24.9969 O   0  0  0  0  0  0  0  0  0  0  0  0
  2  1  1  6
  2  3  1  0
  2  7  1  0
  4  3  1  0
  5  6  2  0
  5  4  1  0
  7  8  2  0
  7 10  1  0
  9  5  1  0
 10 14  1  0
 10 11  1  0
 12 11  1  0
 13 14  1  0
 13 12  1  0
 15 16  2  0
 14 15  1  1
 17 15  1  0
 18 26  1  0
 18 17  1  0
 18 19  1  1
 20 19  1  0
 21 20  2  0
 22 21  1  0
 23 24  1  0
 23 22  2  0
 24 25  2  0
 25 20  1  0
 26 27  1  0
 28 26  2  0
M  END
$$$$
