EPF.pdb
     RDKit          3D

 28 29  0  0  1  0  0  0  0  0999 V2000
    8.2149  -16.8663   19.9565 N   0  0  0  0  0  0  0  0  0  0  0  0
    8.5394  -17.7549   21.0424 C   0  0  1  0  0  0  0  0  0  0  0  0
   10.0492  -17.9105   21.0989 C   0  0  0  0  0  0  0  0  0  0  0  0
   10.6299  -17.5409   19.7741 C   0  0  0  0  0  0  0  0  0  0  0  0
   12.1200  -17.4371   19.8343 C   0  0  0  0  0  0  0  0  0  0  0  0
   12.7086  -17.6261   20.9175 O   0  0  0  0  0  0  0  0  0  0  0  0
    8.0296  -17.3326   22.3445 C   0  0  0  0  0  0  0  0  0  0  0  0
    7.5070  -16.1723   22.4192 O   0  0  0  0  0  0  0  0  0  0  0  0
   12.8555  -17.1354   18.7104 O   0  0  0  0  0  0  0  0  0  0  0  0
    8.0633  -18.0909   23.5249 N   0  0  0  0  0  0  0  0  0  0  0  0
    8.6671  -19.3620   23.7482 C   0  0  0  0  0  0  0  0  0  0  0  0
    7.6086  -20.1017   24.5789 C   0  0  0  0  0  0  0  0  0  0  0  0
    6.8970  -18.9999   25.2823 C   0  0  0  0  0  0  0  0  0  0  0  0
    7.4377  -17.7093   24.7954 C   0  0  1  0  0  0  0  0  0  0  0  0
    8.4716  -17.1095   25.6347 C   0  0  0  0  0  0  0  0  0  0  0  0
    9.6716  -17.4635   25.5050 O   0  0  0  0  0  0  0  0  0  0  0  0
    8.1988  -16.1169   26.6230 N   0  0  0  0  0  0  0  0  0  0  0  0
    9.2803  -15.5227   27.3896 C   0  0  1  0  0  0  0  0  0  0  0  0
    8.8330  -14.1844   27.8908 C   0  0  0  0  0  0  0  0  0  0  0  0
    8.1719  -13.3357   26.8877 C   0  0  0  0  0  0  0  0  0  0  0  0
    8.8433  -12.8862   25.7720 C   0  0  0  0  0  0  0  0  0  0  0  0
    8.1792  -12.0877   24.8476 C   0  0  0  0  0  0  0  0  0  0  0  0
    6.8598  -11.7489   25.0465 C   0  0  0  0  0  0  0  0  0  0  0  0
    6.1675  -12.1899   26.1602 C   0  0  0  0  0  0  0  0  0  0  0  0
    6.8472  -12.9895   27.0776 C   0  0  0  0  0  0  0  0  0  0  0  0
    9.6978  -16.4392   28.4736 C   0  0  0  0  0  0  0  0  0  0  0  0
   10.8819  -16.2212   29.1580 O   0  0  0  0  0  0  0  0  0  0  0  0
    9.0035  -17.4322   28.8050 O   0  0  0  0  0  0  0  0  0  0  0  0
  2  1  1  6
  2  3  1  0
  2  7  1  0
  4  3  1  0
  5  6  2  0
  5  4  1  0
  7  8  2  0
  7 10  1  0
  9  5  1  0
 10 14  1  0
 10 11  1  0
 12 11  1  0
 13 14  1  0
 13 12  1  0
 15 16  2  0
 14 15  1  1
 17 15  1  0
 18 26  1  0
 18 17  1  0
 18 19  1  1
 20 19  1  0
 21 20  2  0
 22 21  1  0
 23 24  1  0
 23 22  2  0
 24 25  2  0
 25 20  1  0
 26 27  1  0
 28 26  2  0
M  END
$$$$
