EPF.pdb
     RDKit          3D

 28 29  0  0  1  0  0  0  0  0999 V2000
    8.1646  -12.8291   18.4141 N   0  0  0  0  0  0  0  0  0  0  0  0
    8.8937  -13.8839   19.0696 C   0  0  1  0  0  0  0  0  0  0  0  0
   10.3269  -13.4226   19.2698 C   0  0  0  0  0  0  0  0  0  0  0  0
   11.1053  -14.5133   19.9281 C   0  0  0  0  0  0  0  0  0  0  0  0
   12.4965  -14.0766   20.2580 C   0  0  0  0  0  0  0  0  0  0  0  0
   13.0534  -14.5137   21.2848 O   0  0  0  0  0  0  0  0  0  0  0  0
    8.3229  -14.3147   20.3433 C   0  0  0  0  0  0  0  0  0  0  0  0
    7.8362  -13.4123   21.1007 O   0  0  0  0  0  0  0  0  0  0  0  0
   13.1751  -13.1974   19.4447 O   0  0  0  0  0  0  0  0  0  0  0  0
    8.2616  -15.6367   20.8106 N   0  0  0  0  0  0  0  0  0  0  0  0
    8.9416  -16.7869   20.3160 C   0  0  0  0  0  0  0  0  0  0  0  0
    7.8500  -17.8664   20.3418 C   0  0  0  0  0  0  0  0  0  0  0  0
    6.9508  -17.4149   21.4384 C   0  0  0  0  0  0  0  0  0  0  0  0
    7.4342  -16.1029   21.9282 C   0  0  1  0  0  0  0  0  0  0  0  0
    8.2833  -16.1543   23.1154 C   0  0  0  0  0  0  0  0  0  0  0  0
    9.5241  -16.3218   22.9954 O   0  0  0  0  0  0  0  0  0  0  0  0
    7.7794  -16.0225   24.4441 N   0  0  0  0  0  0  0  0  0  0  0  0
    8.6896  -15.9432   25.5735 C   0  0  1  0  0  0  0  0  0  0  0  0
    7.9978  -15.2354   26.6973 C   0  0  0  0  0  0  0  0  0  0  0  0
    7.5880  -13.8541   26.4013 C   0  0  0  0  0  0  0  0  0  0  0  0
    6.2687  -13.5292   26.1742 C   0  0  0  0  0  0  0  0  0  0  0  0
    5.9248  -12.2101   25.9000 C   0  0  0  0  0  0  0  0  0  0  0  0
    6.8966  -11.2360   25.8559 C   0  0  0  0  0  0  0  0  0  0  0  0
    8.2270  -11.5414   26.0810 C   0  0  0  0  0  0  0  0  0  0  0  0
    8.5556  -12.8681   26.3546 C   0  0  0  0  0  0  0  0  0  0  0  0
    9.1611  -17.2964   25.9420 C   0  0  0  0  0  0  0  0  0  0  0  0
    8.5896  -18.4184   25.3653 O   0  0  0  0  0  0  0  0  0  0  0  0
   10.0817  -17.4717   26.7785 O   0  0  0  0  0  0  0  0  0  0  0  0
  2  1  1  1
  2  3  1  0
  2  7  1  0
  4  3  1  0
  5  6  2  0
  5  4  1  0
  7  8  2  0
  7 10  1  0
  9  5  1  0
 10 14  1  0
 10 11  1  0
 12 11  1  0
 13 14  1  0
 13 12  1  0
 15 16  2  0
 14 15  1  1
 17 15  1  0
 18 26  1  0
 18 17  1  0
 18 19  1  1
 20 19  1  0
 21 20  2  0
 22 21  1  0
 23 24  1  0
 23 22  2  0
 24 25  2  0
 25 20  1  0
 26 27  1  0
 28 26  2  0
M  END
$$$$
