IPL.pdb
     RDKit          3D

 24 24  0  0  1  0  0  0  0  0999 V2000
    7.9714  -12.0427   27.5662 C   0  0  0  0  0  0  0  0  0  0  0  0
    7.2917  -13.3220   27.2166 C   0  0  0  0  0  0  0  0  0  0  0  0
    6.7992  -13.3540   25.8158 C   0  0  2  0  0  0  0  0  0  0  0  0
    5.6043  -12.4010   25.7063 C   0  0  0  0  0  0  0  0  0  0  0  0
    6.3803  -14.7621   25.4236 C   0  0  2  0  0  0  0  0  0  0  0  0
    5.6628  -15.3543   26.4728 N   0  0  0  0  0  0  0  0  0  0  0  0
    7.4810  -15.5256   24.8165 C   0  0  0  0  0  0  0  0  0  0  0  0
    7.8985  -16.4960   25.5620 O   0  0  0  0  0  0  0  0  0  0  0  0
    8.0933  -15.3076   23.5614 N   0  0  0  0  0  0  0  0  0  0  0  0
    7.5789  -14.4267   22.5395 C   0  0  0  0  0  0  0  0  0  0  0  0
    8.5977  -14.4792   21.3866 C   0  0  0  0  0  0  0  0  0  0  0  0
    9.8306  -14.8957   22.0852 C   0  0  0  0  0  0  0  0  0  0  0  0
    9.3284  -15.9216   23.1097 C   0  0  1  0  0  0  0  0  0  0  0  0
   10.3863  -15.9631   24.1545 C   0  0  0  0  0  0  0  0  0  0  0  0
   11.5960  -15.7256   23.9576 O   0  0  0  0  0  0  0  0  0  0  0  0
   11.4405  -13.5016   27.2833 C   0  0  0  0  0  0  0  0  0  0  0  0
   10.2467  -14.3241   27.7371 C   0  0  2  0  0  0  0  0  0  0  0  0
    9.5907  -13.7140   28.9256 C   0  0  0  0  0  0  0  0  0  0  0  0
   10.5452  -15.7795   27.8313 C   0  0  0  0  0  0  0  0  0  0  0  0
   10.9467  -16.4622   26.5680 C   0  0  2  0  0  0  0  0  0  0  0  0
   10.0019  -16.2975   25.4824 N   0  0  0  0  0  0  0  0  0  0  0  0
   11.3646  -17.8509   26.7333 C   0  0  0  0  0  0  0  0  0  0  0  0
   12.3826  -18.1886   27.6018 O   0  0  0  0  0  0  0  0  0  0  0  0
   10.8064  -18.7655   26.0887 O   0  0  0  0  0  0  0  0  0  0  0  0
  1  2  1  0
  3  2  1  0
  3  4  1  1
  5  3  1  0
  5  6  1  1
  7  8  2  0
  7  5  1  0
  9  7  1  0
 10  9  1  0
 11 10  1  0
 12 11  1  0
 12 13  1  0
 13 14  1  1
 13  9  1  0
 14 15  2  0
 17 16  1  1
 17 19  1  0
 18 17  1  0
 20 19  1  1
 20 21  1  0
 21 14  1  0
 22 20  1  0
 23 22  1  0
 24 22  2  0
M  END
$$$$
