IPL.pdb
     RDKit          3D

 24 24  0  0  1  0  0  0  0  0999 V2000
    7.6200  -18.9907   26.8588 C   0  0  0  0  0  0  0  0  0  0  0  0
    7.8492  -19.1774   25.3982 C   0  0  0  0  0  0  0  0  0  0  0  0
    6.7183  -18.6928   24.5662 C   0  0  2  0  0  0  0  0  0  0  0  0
    5.5202  -19.6188   24.8004 C   0  0  0  0  0  0  0  0  0  0  0  0
    7.0950  -18.6902   23.0931 C   0  0  2  0  0  0  0  0  0  0  0  0
    7.4989  -19.9752   22.7034 N   0  0  0  0  0  0  0  0  0  0  0  0
    7.9568  -17.5529   22.7369 C   0  0  0  0  0  0  0  0  0  0  0  0
    9.1764  -17.6925   23.1431 O   0  0  0  0  0  0  0  0  0  0  0  0
    7.5945  -16.3832   22.0312 N   0  0  0  0  0  0  0  0  0  0  0  0
    6.3130  -16.1687   21.4013 C   0  0  0  0  0  0  0  0  0  0  0  0
    6.3685  -14.7500   20.8065 C   0  0  0  0  0  0  0  0  0  0  0  0
    7.4042  -14.1076   21.6408 C   0  0  0  0  0  0  0  0  0  0  0  0
    8.4418  -15.2207   21.8379 C   0  0  1  0  0  0  0  0  0  0  0  0
    9.1940  -14.8260   23.0588 C   0  0  0  0  0  0  0  0  0  0  0  0
    9.9673  -13.8491   23.1383 O   0  0  0  0  0  0  0  0  0  0  0  0
    6.7924  -12.5017   25.4149 C   0  0  0  0  0  0  0  0  0  0  0  0
    7.3219  -13.8193   25.9547 C   0  0  2  0  0  0  0  0  0  0  0  0
    6.6349  -14.2003   27.2187 C   0  0  0  0  0  0  0  0  0  0  0  0
    8.8090  -13.8840   25.9745 C   0  0  0  0  0  0  0  0  0  0  0  0
    9.4274  -15.1732   25.5515 C   0  0  2  0  0  0  0  0  0  0  0  0
    9.0271  -15.6142   24.2310 N   0  0  0  0  0  0  0  0  0  0  0  0
    9.3436  -16.2420   26.5420 C   0  0  0  0  0  0  0  0  0  0  0  0
    9.9246  -16.1056   27.7863 O   0  0  0  0  0  0  0  0  0  0  0  0
    8.7414  -17.3066   26.2815 O   0  0  0  0  0  0  0  0  0  0  0  0
  1  2  1  0
  3  2  1  0
  3  4  1  6
  5  3  1  0
  5  6  1  1
  7  8  2  0
  7  5  1  0
  9  7  1  0
 10  9  1  0
 11 10  1  0
 12 11  1  0
 12 13  1  0
 13 14  1  1
 13  9  1  0
 14 15  2  0
 17 16  1  1
 17 19  1  0
 18 17  1  0
 20 19  1  1
 20 21  1  0
 21 14  1  0
 22 20  1  0
 23 22  1  0
 24 22  2  0
M  END
$$$$
