IPL.pdb
     RDKit          3D

 24 24  0  0  1  0  0  0  0  0999 V2000
    5.7362  -11.7279   27.2039 C   0  0  0  0  0  0  0  0  0  0  0  0
    5.5055  -13.0710   26.6008 C   0  0  0  0  0  0  0  0  0  0  0  0
    6.7611  -13.7382   26.1714 C   0  0  2  0  0  0  0  0  0  0  0  0
    7.4906  -12.8056   25.1987 C   0  0  0  0  0  0  0  0  0  0  0  0
    6.4615  -15.0663   25.4944 C   0  0  2  0  0  0  0  0  0  0  0  0
    5.7199  -15.8841   26.3589 N   0  0  0  0  0  0  0  0  0  0  0  0
    7.6462  -15.6413   24.8395 C   0  0  0  0  0  0  0  0  0  0  0  0
    8.3071  -16.4492   25.6026 O   0  0  0  0  0  0  0  0  0  0  0  0
    8.1058  -15.4040   23.5242 N   0  0  0  0  0  0  0  0  0  0  0  0
    7.5967  -14.3733   22.6505 C   0  0  0  0  0  0  0  0  0  0  0  0
    8.4267  -14.4695   21.3576 C   0  0  0  0  0  0  0  0  0  0  0  0
    9.6656  -15.1163   21.8355 C   0  0  0  0  0  0  0  0  0  0  0  0
    9.1581  -16.1458   22.8539 C   0  0  1  0  0  0  0  0  0  0  0  0
   10.3309  -16.4281   23.7240 C   0  0  0  0  0  0  0  0  0  0  0  0
   11.3068  -17.1369   23.4019 O   0  0  0  0  0  0  0  0  0  0  0  0
    9.7101  -13.2517   27.2803 C   0  0  0  0  0  0  0  0  0  0  0  0
   10.0098  -14.7120   27.5726 C   0  0  2  0  0  0  0  0  0  0  0  0
    9.6238  -15.0748   28.9634 C   0  0  0  0  0  0  0  0  0  0  0  0
   11.3758  -15.1220   27.1460 C   0  0  0  0  0  0  0  0  0  0  0  0
   11.4654  -15.9953   25.9407 C   0  0  2  0  0  0  0  0  0  0  0  0
   10.3529  -15.8517   25.0242 N   0  0  0  0  0  0  0  0  0  0  0  0
   11.7733  -17.3936   26.2243 C   0  0  0  0  0  0  0  0  0  0  0  0
   12.8797  -17.7406   26.9726 O   0  0  0  0  0  0  0  0  0  0  0  0
   11.0378  -18.3083   25.7928 O   0  0  0  0  0  0  0  0  0  0  0  0
  1  2  1  0
  3  2  1  0
  3  4  1  6
  5  3  1  0
  5  6  1  1
  7  8  2  0
  7  5  1  0
  9  7  1  0
 10  9  1  0
 11 10  1  0
 12 11  1  0
 12 13  1  0
 13 14  1  1
 13  9  1  0
 14 15  2  0
 17 16  1  1
 17 19  1  0
 18 17  1  0
 20 19  1  1
 20 21  1  0
 21 14  1  0
 22 20  1  0
 23 22  1  0
 24 22  2  0
M  END
$$$$
