IPL.pdb
     RDKit          3D

 24 24  0  0  1  0  0  0  0  0999 V2000
    5.6839  -11.4341   26.6747 C   0  0  0  0  0  0  0  0  0  0  0  0
    5.4101  -12.7817   26.1003 C   0  0  0  0  0  0  0  0  0  0  0  0
    6.6467  -13.5255   25.7490 C   0  0  2  0  0  0  0  0  0  0  0  0
    7.4729  -12.6572   24.7943 C   0  0  0  0  0  0  0  0  0  0  0  0
    6.3085  -14.8517   25.0866 C   0  0  2  0  0  0  0  0  0  0  0  0
    5.4391  -15.5848   25.9070 N   0  0  0  0  0  0  0  0  0  0  0  0
    7.4986  -15.5311   24.5527 C   0  0  0  0  0  0  0  0  0  0  0  0
    8.0730  -16.3037   25.4158 O   0  0  0  0  0  0  0  0  0  0  0  0
    8.0445  -15.4224   23.2536 N   0  0  0  0  0  0  0  0  0  0  0  0
    7.4432  -14.6808   22.1703 C   0  0  0  0  0  0  0  0  0  0  0  0
    8.4127  -14.8114   20.9816 C   0  0  0  0  0  0  0  0  0  0  0  0
    9.6938  -15.0944   21.6600 C   0  0  0  0  0  0  0  0  0  0  0  0
    9.2880  -16.0254   22.8102 C   0  0  1  0  0  0  0  0  0  0  0  0
   10.3908  -15.9064   23.8012 C   0  0  0  0  0  0  0  0  0  0  0  0
   11.2927  -15.0439   23.7680 O   0  0  0  0  0  0  0  0  0  0  0  0
    9.6939  -14.1260   28.9138 C   0  0  0  0  0  0  0  0  0  0  0  0
   10.7401  -14.9383   28.1699 C   0  0  2  0  0  0  0  0  0  0  0  0
   12.0952  -14.3417   28.3211 C   0  0  0  0  0  0  0  0  0  0  0  0
   10.3296  -15.2827   26.7811 C   0  0  0  0  0  0  0  0  0  0  0  0
   10.9260  -16.5171   26.1947 C   0  0  2  0  0  0  0  0  0  0  0  0
   10.4307  -16.8411   24.8726 N   0  0  0  0  0  0  0  0  0  0  0  0
   10.9277  -17.6739   27.0849 C   0  0  0  0  0  0  0  0  0  0  0  0
   10.1539  -18.7832   26.8110 O   0  0  0  0  0  0  0  0  0  0  0  0
   11.6331  -17.6824   28.1175 O   0  0  0  0  0  0  0  0  0  0  0  0
  1  2  1  0
  3  2  1  0
  3  4  1  6
  5  3  1  0
  5  6  1  1
  7  8  2  0
  7  5  1  0
  9  7  1  0
 10  9  1  0
 11 10  1  0
 12 11  1  0
 12 13  1  0
 13 14  1  1
 13  9  1  0
 14 15  2  0
 17 16  1  6
 17 19  1  0
 18 17  1  0
 20 19  1  1
 20 21  1  0
 21 14  1  0
 22 20  1  0
 23 22  1  0
 24 22  2  0
M  END
$$$$
