IPL.pdb
     RDKit          3D

 24 24  0  0  1  0  0  0  0  0999 V2000
   11.3374  -21.2740   20.4499 C   0  0  0  0  0  0  0  0  0  0  0  0
   11.1894  -19.9102   19.8676 C   0  0  0  0  0  0  0  0  0  0  0  0
   10.6587  -18.9189   20.8379 C   0  0  2  0  0  0  0  0  0  0  0  0
    9.2582  -19.3699   21.2659 C   0  0  0  0  0  0  0  0  0  0  0  0
   10.5921  -17.5345   20.2124 C   0  0  2  0  0  0  0  0  0  0  0  0
   11.8421  -17.1946   19.6759 N   0  0  0  0  0  0  0  0  0  0  0  0
    9.9206  -16.5579   21.0832 C   0  0  0  0  0  0  0  0  0  0  0  0
   10.6456  -16.1903   22.0887 O   0  0  0  0  0  0  0  0  0  0  0  0
    8.6248  -16.0141   20.9319 N   0  0  0  0  0  0  0  0  0  0  0  0
    7.7392  -16.2989   19.8275 C   0  0  0  0  0  0  0  0  0  0  0  0
    6.4403  -15.5259   20.1193 C   0  0  0  0  0  0  0  0  0  0  0  0
    6.4971  -15.3732   21.5873 C   0  0  0  0  0  0  0  0  0  0  0  0
    7.9825  -15.0998   21.8583 C   0  0  1  0  0  0  0  0  0  0  0  0
    8.1810  -15.4662   23.2861 C   0  0  0  0  0  0  0  0  0  0  0  0
    8.4141  -16.6197   23.7031 O   0  0  0  0  0  0  0  0  0  0  0  0
    6.3171  -12.3872   25.5238 C   0  0  0  0  0  0  0  0  0  0  0  0
    7.1328  -12.6784   26.7718 C   0  0  2  0  0  0  0  0  0  0  0  0
    7.2578  -11.4689   27.6299 C   0  0  0  0  0  0  0  0  0  0  0  0
    8.3981  -13.4074   26.4825 C   0  0  0  0  0  0  0  0  0  0  0  0
    8.2800  -14.6578   25.6788 C   0  0  2  0  0  0  0  0  0  0  0  0
    8.1017  -14.4318   24.2591 N   0  0  0  0  0  0  0  0  0  0  0  0
    7.3327  -15.6340   26.2081 C   0  0  0  0  0  0  0  0  0  0  0  0
    7.6054  -16.3343   27.3655 O   0  0  0  0  0  0  0  0  0  0  0  0
    6.2513  -15.8559   25.6208 O   0  0  0  0  0  0  0  0  0  0  0  0
  1  2  1  0
  3  2  1  0
  3  4  1  6
  5  3  1  0
  5  6  1  1
  7  8  2  0
  7  5  1  0
  9  7  1  0
 10  9  1  0
 11 10  1  0
 12 11  1  0
 12 13  1  0
 13 14  1  1
 13  9  1  0
 14 15  2  0
 17 16  1  6
 17 19  1  0
 18 17  1  0
 20 19  1  1
 20 21  1  0
 21 14  1  0
 22 20  1  0
 23 22  1  0
 24 22  2  0
M  END
$$$$
