IPL.pdb
     RDKit          3D

 24 24  0  0  1  0  0  0  0  0999 V2000
   10.8099  -20.0985   23.0049 C   0  0  0  0  0  0  0  0  0  0  0  0
   11.1924  -18.8120   22.3570 C   0  0  0  0  0  0  0  0  0  0  0  0
   10.4985  -18.5842   21.0637 C   0  0  2  0  0  0  0  0  0  0  0  0
   11.0055  -19.6237   20.0585 C   0  0  0  0  0  0  0  0  0  0  0  0
   10.7715  -17.1812   20.5452 C   0  0  2  0  0  0  0  0  0  0  0  0
   12.1470  -17.0126   20.3315 N   0  0  0  0  0  0  0  0  0  0  0  0
   10.0560  -16.1508   21.3129 C   0  0  0  0  0  0  0  0  0  0  0  0
   10.7681  -15.6383   22.2626 O   0  0  0  0  0  0  0  0  0  0  0  0
    8.7322  -15.6945   21.1203 N   0  0  0  0  0  0  0  0  0  0  0  0
    7.9392  -15.9512   19.9412 C   0  0  0  0  0  0  0  0  0  0  0  0
    6.5678  -15.3044   20.2073 C   0  0  0  0  0  0  0  0  0  0  0  0
    6.5252  -15.2713   21.6833 C   0  0  0  0  0  0  0  0  0  0  0  0
    7.9654  -14.9114   22.0718 C   0  0  1  0  0  0  0  0  0  0  0  0
    8.1075  -15.3801   23.4762 C   0  0  0  0  0  0  0  0  0  0  0  0
    8.7868  -16.3634   23.8371 O   0  0  0  0  0  0  0  0  0  0  0  0
    8.4923  -12.4784   27.2965 C   0  0  0  0  0  0  0  0  0  0  0  0
    7.1225  -12.7178   26.6849 C   0  0  2  0  0  0  0  0  0  0  0  0
    6.1421  -11.6939   27.1383 C   0  0  0  0  0  0  0  0  0  0  0  0
    6.6801  -14.1356   26.7861 C   0  0  0  0  0  0  0  0  0  0  0  0
    7.3401  -15.1085   25.8690 C   0  0  2  0  0  0  0  0  0  0  0  0
    7.4218  -14.6609   24.4938 N   0  0  0  0  0  0  0  0  0  0  0  0
    6.8469  -16.4780   25.9780 C   0  0  0  0  0  0  0  0  0  0  0  0
    6.0303  -17.0191   25.0060 O   0  0  0  0  0  0  0  0  0  0  0  0
    7.1557  -17.1905   26.9581 O   0  0  0  0  0  0  0  0  0  0  0  0
  1  2  1  0
  3  2  1  0
  3  4  1  6
  5  3  1  0
  5  6  1  1
  7  8  2  0
  7  5  1  0
  9  7  1  0
 10  9  1  0
 11 10  1  0
 12 11  1  0
 12 13  1  0
 13 14  1  1
 13  9  1  0
 14 15  2  0
 17 16  1  1
 17 19  1  0
 18 17  1  0
 20 19  1  1
 20 21  1  0
 21 14  1  0
 22 20  1  0
 23 22  1  0
 24 22  2  0
M  END
$$$$
