HQA.pdb
     RDKit          3D

 25 25  0  0  1  0  0  0  0  0999 V2000
   29.9596  -35.2214   -2.4997 N   0  0  0  0  0  0  0  0  0  0  0  0
   30.1107  -35.2922   -3.9399 C   0  0  1  0  0  0  0  0  0  0  0  0
   31.1152  -36.3570   -4.2525 C   0  0  0  0  0  0  0  0  0  0  0  0
   32.4161  -35.9571   -3.6562 C   0  0  0  0  0  0  0  0  0  0  0  0
   33.3708  -36.7355   -3.0295 C   0  0  0  0  0  0  0  0  0  0  0  0
   34.4032  -35.9741   -2.6330 N   0  0  0  0  0  0  0  0  0  0  0  0
   34.1264  -34.7320   -2.9930 C   0  0  0  0  0  0  0  0  0  0  0  0
   32.9164  -34.6956   -3.6206 N   0  0  0  0  0  0  0  0  0  0  0  0
   28.8298  -35.4677   -4.6344 C   0  0  0  0  0  0  0  0  0  0  0  0
   27.9136  -36.0962   -4.0487 O   0  0  0  0  0  0  0  0  0  0  0  0
   24.6979  -33.0497   -8.2731 N   0  0  0  0  0  0  0  0  0  0  0  0
   25.5011  -32.2362   -7.4451 C   0  0  0  0  0  0  0  0  0  0  0  0
   24.9580  -31.1571   -7.0275 O   0  0  0  0  0  0  0  0  0  0  0  0
   26.8990  -32.6014   -7.0726 C   0  0  0  0  0  0  0  0  0  0  0  0
   27.1927  -33.9534   -7.6725 C   0  0  0  0  0  0  0  0  0  0  0  0
   27.3765  -35.0260   -6.6393 C   0  0  2  0  0  0  0  0  0  0  0  0
   28.6297  -34.9397   -5.9382 N   0  0  0  0  0  0  0  0  0  0  0  0
   27.2382  -36.3370   -7.2925 C   0  0  0  0  0  0  0  0  0  0  0  0
   28.1679  -36.7872   -7.9836 O   0  0  0  0  0  0  0  0  0  0  0  0
   24.6815  -39.0230   -7.1552 C   0  0  0  0  0  0  0  0  0  0  0  0
   25.9058  -38.3550   -7.7760 C   0  0  2  0  0  0  0  0  0  0  0  0
   26.0516  -37.0754   -7.1307 N   0  0  0  0  0  0  0  0  0  0  0  0
   25.6693  -38.1974   -9.2256 C   0  0  0  0  0  0  0  0  0  0  0  0
   25.2480  -37.1192   -9.6747 O   0  0  0  0  0  0  0  0  0  0  0  0
   25.9101  -39.2416  -10.1134 O   0  0  0  0  0  0  0  0  0  0  0  0
  2  1  1  1
  2  3  1  0
  2  9  1  0
  4  5  2  0
  4  3  1  0
  6  5  1  0
  7  8  2  0
  7  6  1  0
  8  4  1  0
  9 10  2  0
 11 12  1  0
 12 13  2  0
 12 14  1  0
 14 15  1  0
 16 15  1  6
 16 18  1  0
 17 16  1  0
 17  9  1  0
 18 19  2  0
 21 20  1  1
 21 23  1  0
 22 21  1  0
 22 18  1  0
 23 24  2  0
 23 25  1  0
M  END
$$$$
