HQA.pdb
     RDKit          3D

 25 25  0  0  1  0  0  0  0  0999 V2000
   28.7863  -11.3934  -17.6518 N   0  0  0  0  0  0  0  0  0  0  0  0
   28.6785  -10.1569  -18.4010 C   0  0  1  0  0  0  0  0  0  0  0  0
   27.2257   -9.8478  -18.5861 C   0  0  0  0  0  0  0  0  0  0  0  0
   26.6421  -10.8801  -19.4814 C   0  0  0  0  0  0  0  0  0  0  0  0
   27.2659  -11.9160  -20.1505 C   0  0  0  0  0  0  0  0  0  0  0  0
   26.3673  -12.6198  -20.8575 N   0  0  0  0  0  0  0  0  0  0  0  0
   25.1889  -12.0553  -20.6530 C   0  0  0  0  0  0  0  0  0  0  0  0
   25.3306  -10.9892  -19.8148 N   0  0  0  0  0  0  0  0  0  0  0  0
   29.4421   -9.0603  -17.7942 C   0  0  0  0  0  0  0  0  0  0  0  0
   29.2272   -8.7775  -16.5894 O   0  0  0  0  0  0  0  0  0  0  0  0
   33.8528   -6.3758  -15.8705 N   0  0  0  0  0  0  0  0  0  0  0  0
   33.7387   -7.7819  -15.9153 C   0  0  0  0  0  0  0  0  0  0  0  0
   34.2081   -8.4121  -14.9072 O   0  0  0  0  0  0  0  0  0  0  0  0
   33.1113   -8.5010  -17.0623 C   0  0  0  0  0  0  0  0  0  0  0  0
   32.6460   -7.4629  -18.0522 C   0  0  0  0  0  0  0  0  0  0  0  0
   31.1627   -7.2387  -18.0133 C   0  0  2  0  0  0  0  0  0  0  0  0
   30.4017   -8.3350  -18.5503 N   0  0  0  0  0  0  0  0  0  0  0  0
   30.8561   -5.9935  -18.7344 C   0  0  0  0  0  0  0  0  0  0  0  0
   30.7567   -6.0022  -19.9732 O   0  0  0  0  0  0  0  0  0  0  0  0
   30.0668   -2.5224  -17.6639 C   0  0  0  0  0  0  0  0  0  0  0  0
   30.4262   -3.5654  -18.7192 C   0  0  2  0  0  0  0  0  0  0  0  0
   30.6767   -4.7973  -18.0159 N   0  0  0  0  0  0  0  0  0  0  0  0
   31.6319   -3.1075  -19.4392 C   0  0  0  0  0  0  0  0  0  0  0  0
   32.7610   -3.3858  -19.0038 O   0  0  0  0  0  0  0  0  0  0  0  0
   31.5334   -2.3616  -20.6099 O   0  0  0  0  0  0  0  0  0  0  0  0
  2  1  1  1
  2  3  1  0
  2  9  1  0
  4  5  2  0
  4  3  1  0
  6  5  1  0
  7  8  2  0
  7  6  1  0
  8  4  1  0
  9 10  2  0
 11 12  1  0
 12 13  2  0
 12 14  1  0
 14 15  1  0
 16 15  1  6
 16 18  1  0
 17 16  1  0
 17  9  1  0
 18 19  2  0
 21 20  1  1
 21 23  1  0
 22 21  1  0
 22 18  1  0
 23 24  2  0
 23 25  1  0
M  END
$$$$
