HQA.pdb
     RDKit          3D

 25 25  0  0  1  0  0  0  0  0999 V2000
   18.2210  -11.7625  -18.2333 N   0  0  0  0  0  0  0  0  0  0  0  0
   19.0764  -11.2434  -17.1841 C   0  0  1  0  0  0  0  0  0  0  0  0
   20.1620  -12.2420  -16.9294 C   0  0  0  0  0  0  0  0  0  0  0  0
   19.5324  -13.4998  -16.4504 C   0  0  0  0  0  0  0  0  0  0  0  0
   18.8797  -13.7566  -15.2596 C   0  0  0  0  0  0  0  0  0  0  0  0
   18.4599  -15.0315  -15.2259 N   0  0  0  0  0  0  0  0  0  0  0  0
   18.8305  -15.5893  -16.3663 C   0  0  0  0  0  0  0  0  0  0  0  0
   19.4882  -14.6728  -17.1323 N   0  0  0  0  0  0  0  0  0  0  0  0
   19.5734   -9.8938  -17.4764 C   0  0  0  0  0  0  0  0  0  0  0  0
   20.1141   -9.6843  -18.5905 O   0  0  0  0  0  0  0  0  0  0  0  0
   16.6196   -4.8191  -17.3113 N   0  0  0  0  0  0  0  0  0  0  0  0
   16.5312   -5.7437  -16.2485 C   0  0  0  0  0  0  0  0  0  0  0  0
   15.5032   -5.6333  -15.4970 O   0  0  0  0  0  0  0  0  0  0  0  0
   17.5667   -6.7903  -16.0058 C   0  0  0  0  0  0  0  0  0  0  0  0
   18.6921   -6.5535  -16.9812 C   0  0  0  0  0  0  0  0  0  0  0  0
   19.8467   -7.4914  -16.7833 C   0  0  2  0  0  0  0  0  0  0  0  0
   19.4465   -8.8483  -16.5227 N   0  0  0  0  0  0  0  0  0  0  0  0
   20.6859   -6.9800  -15.6885 C   0  0  0  0  0  0  0  0  0  0  0  0
   20.4961   -7.3739  -14.5251 O   0  0  0  0  0  0  0  0  0  0  0  0
   23.5672   -4.6319  -15.5310 C   0  0  0  0  0  0  0  0  0  0  0  0
   22.4742   -5.4823  -14.8885 C   0  0  2  0  0  0  0  0  0  0  0  0
   21.7010   -6.0459  -15.9652 N   0  0  0  0  0  0  0  0  0  0  0  0
   21.6427   -4.6098  -14.0344 C   0  0  0  0  0  0  0  0  0  0  0  0
   22.0857   -4.1918  -12.9523 O   0  0  0  0  0  0  0  0  0  0  0  0
   20.3571   -4.2392  -14.4170 O   0  0  0  0  0  0  0  0  0  0  0  0
  2  1  1  6
  2  3  1  0
  2  9  1  0
  4  5  2  0
  4  3  1  0
  6  5  1  0
  7  8  2  0
  7  6  1  0
  8  4  1  0
  9 10  2  0
 11 12  1  0
 12 13  2  0
 12 14  1  0
 14 15  1  0
 16 15  1  1
 16 18  1  0
 17 16  1  0
 17  9  1  0
 18 19  2  0
 21 20  1  6
 21 23  1  0
 22 21  1  0
 22 18  1  0
 23 24  2  0
 23 25  1  0
M  END
$$$$
