HQA.pdb
     RDKit          3D

 25 25  0  0  1  0  0  0  0  0999 V2000
   14.9641  -16.8342    4.0869 N   0  0  0  0  0  0  0  0  0  0  0  0
   16.2067  -16.8373    4.8338 C   0  0  1  0  0  0  0  0  0  0  0  0
   17.2502  -17.5152    4.0019 C   0  0  0  0  0  0  0  0  0  0  0  0
   16.9050  -18.9575    3.9094 C   0  0  0  0  0  0  0  0  0  0  0  0
   16.9831  -19.9426    4.8756 C   0  0  0  0  0  0  0  0  0  0  0  0
   16.5732  -21.1185    4.3738 N   0  0  0  0  0  0  0  0  0  0  0  0
   16.2370  -20.9031    3.1129 C   0  0  0  0  0  0  0  0  0  0  0  0
   16.4311  -19.5889    2.8050 N   0  0  0  0  0  0  0  0  0  0  0  0
   16.5950  -15.4975    5.2899 C   0  0  0  0  0  0  0  0  0  0  0  0
   16.5227  -14.5445    4.4751 O   0  0  0  0  0  0  0  0  0  0  0  0
   15.9892  -11.1715   11.0928 N   0  0  0  0  0  0  0  0  0  0  0  0
   16.4555  -12.3540   10.4791 C   0  0  0  0  0  0  0  0  0  0  0  0
   16.4246  -13.4075   11.2024 O   0  0  0  0  0  0  0  0  0  0  0  0
   16.9561  -12.3864    9.0739 C   0  0  0  0  0  0  0  0  0  0  0  0
   16.7988  -13.7976    8.5659 C   0  0  0  0  0  0  0  0  0  0  0  0
   17.3022  -13.9755    7.1635 C   0  0  2  0  0  0  0  0  0  0  0  0
   17.0422  -15.2823    6.6213 N   0  0  0  0  0  0  0  0  0  0  0  0
   18.7438  -13.6831    7.1405 C   0  0  0  0  0  0  0  0  0  0  0  0
   19.5655  -14.5973    7.3242 O   0  0  0  0  0  0  0  0  0  0  0  0
   20.7401  -10.9015    5.8589 C   0  0  0  0  0  0  0  0  0  0  0  0
   20.5947  -12.0878    6.8088 C   0  0  2  0  0  0  0  0  0  0  0  0
   19.1853  -12.3673    6.9101 N   0  0  0  0  0  0  0  0  0  0  0  0
   21.1593  -11.7099    8.1205 C   0  0  0  0  0  0  0  0  0  0  0  0
   20.4049  -11.4353    9.0678 O   0  0  0  0  0  0  0  0  0  0  0  0
   22.5346  -11.6530    8.3245 O   0  0  0  0  0  0  0  0  0  0  0  0
  2  1  1  6
  2  3  1  0
  2  9  1  0
  4  5  2  0
  4  3  1  0
  6  5  1  0
  7  8  2  0
  7  6  1  0
  8  4  1  0
  9 10  2  0
 11 12  1  0
 12 13  2  0
 12 14  1  0
 14 15  1  0
 16 15  1  1
 16 18  1  0
 17 16  1  0
 17  9  1  0
 18 19  2  0
 21 20  1  6
 21 23  1  0
 22 21  1  0
 22 18  1  0
 23 24  2  0
 23 25  1  0
M  END
$$$$
