HQA.pdb
     RDKit          3D

 25 25  0  0  1  0  0  0  0  0999 V2000
   28.5474  -22.1551  -17.9816 N   0  0  0  0  0  0  0  0  0  0  0  0
   27.5046  -22.4866  -17.0304 C   0  0  1  0  0  0  0  0  0  0  0  0
   28.1399  -22.6791  -15.6888 C   0  0  0  0  0  0  0  0  0  0  0  0
   29.0543  -23.8473  -15.7717 C   0  0  0  0  0  0  0  0  0  0  0  0
   28.7551  -25.1864  -15.9373 C   0  0  0  0  0  0  0  0  0  0  0  0
   29.8827  -25.9149  -15.9584 N   0  0  0  0  0  0  0  0  0  0  0  0
   30.8896  -25.0704  -15.8102 C   0  0  0  0  0  0  0  0  0  0  0  0
   30.4088  -23.7997  -15.6939 N   0  0  0  0  0  0  0  0  0  0  0  0
   26.4094  -21.5097  -17.0296 C   0  0  0  0  0  0  0  0  0  0  0  0
   26.6630  -20.3279  -16.6883 O   0  0  0  0  0  0  0  0  0  0  0  0
   21.4873  -21.5710  -20.8114 N   0  0  0  0  0  0  0  0  0  0  0  0
   21.1591  -20.5105  -19.9397 C   0  0  0  0  0  0  0  0  0  0  0  0
   20.1011  -19.8553  -20.2318 O   0  0  0  0  0  0  0  0  0  0  0  0
   21.9870  -20.1649  -18.7474 C   0  0  0  0  0  0  0  0  0  0  0  0
   23.1298  -21.1469  -18.6853 C   0  0  0  0  0  0  0  0  0  0  0  0
   23.9940  -20.9649  -17.4721 C   0  0  2  0  0  0  0  0  0  0  0  0
   25.0932  -21.8905  -17.4057 N   0  0  0  0  0  0  0  0  0  0  0  0
   23.1500  -21.0769  -16.2722 C   0  0  0  0  0  0  0  0  0  0  0  0
   22.9090  -22.1946  -15.7851 O   0  0  0  0  0  0  0  0  0  0  0  0
   21.5457  -18.5805  -14.0275 C   0  0  0  0  0  0  0  0  0  0  0  0
   21.8640  -20.0100  -14.4587 C   0  0  2  0  0  0  0  0  0  0  0  0
   22.6193  -19.9155  -15.6816 N   0  0  0  0  0  0  0  0  0  0  0  0
   20.5917  -20.7296  -14.6718 C   0  0  0  0  0  0  0  0  0  0  0  0
   20.1668  -20.9165  -15.8235 O   0  0  0  0  0  0  0  0  0  0  0  0
   19.8465  -21.2103  -13.5994 O   0  0  0  0  0  0  0  0  0  0  0  0
  2  1  1  6
  2  3  1  0
  2  9  1  0
  4  5  2  0
  4  3  1  0
  6  5  1  0
  7  8  2  0
  7  6  1  0
  8  4  1  0
  9 10  2  0
 11 12  1  0
 12 13  2  0
 12 14  1  0
 14 15  1  0
 16 15  1  6
 16 18  1  0
 17 16  1  0
 17  9  1  0
 18 19  2  0
 21 20  1  6
 21 23  1  0
 22 21  1  0
 22 18  1  0
 23 24  2  0
 23 25  1  0
M  END
$$$$
