HQA.pdb
     RDKit          3D

 25 25  0  0  1  0  0  0  0  0999 V2000
   26.8653  -19.0790  -18.5468 N   0  0  0  0  0  0  0  0  0  0  0  0
   25.9137  -19.9280  -19.2362 C   0  0  1  0  0  0  0  0  0  0  0  0
   26.6403  -21.1404  -19.7288 C   0  0  0  0  0  0  0  0  0  0  0  0
   27.2940  -21.7941  -18.5655 C   0  0  0  0  0  0  0  0  0  0  0  0
   26.7749  -22.7036  -17.6636 C   0  0  0  0  0  0  0  0  0  0  0  0
   27.7069  -23.0438  -16.7589 N   0  0  0  0  0  0  0  0  0  0  0  0
   28.8043  -22.3721  -17.0653 C   0  0  0  0  0  0  0  0  0  0  0  0
   28.5771  -21.6007  -18.1665 N   0  0  0  0  0  0  0  0  0  0  0  0
   24.7364  -20.2385  -18.4168 C   0  0  0  0  0  0  0  0  0  0  0  0
   23.7929  -20.8781  -18.9443 O   0  0  0  0  0  0  0  0  0  0  0  0
   20.9937  -21.7721  -13.5690 N   0  0  0  0  0  0  0  0  0  0  0  0
   22.1321  -20.9687  -13.3435 C   0  0  0  0  0  0  0  0  0  0  0  0
   21.9620  -19.9643  -12.5713 O   0  0  0  0  0  0  0  0  0  0  0  0
   23.4580  -21.2621  -13.9619 C   0  0  0  0  0  0  0  0  0  0  0  0
   23.8795  -20.0404  -14.7389 C   0  0  0  0  0  0  0  0  0  0  0  0
   23.5519  -20.1330  -16.2003 C   0  0  2  0  0  0  0  0  0  0  0  0
   24.6645  -19.8260  -17.0591 N   0  0  0  0  0  0  0  0  0  0  0  0
   22.4168  -19.2416  -16.4854 C   0  0  0  0  0  0  0  0  0  0  0  0
   22.6200  -18.0472  -16.7628 O   0  0  0  0  0  0  0  0  0  0  0  0
   19.8233  -18.8663  -18.2460 C   0  0  0  0  0  0  0  0  0  0  0  0
   19.9893  -18.8815  -16.7285 C   0  0  2  0  0  0  0  0  0  0  0  0
   21.1045  -19.7472  -16.4424 N   0  0  0  0  0  0  0  0  0  0  0  0
   18.7440  -19.3991  -16.1259 C   0  0  0  0  0  0  0  0  0  0  0  0
   18.7263  -20.5246  -15.6016 O   0  0  0  0  0  0  0  0  0  0  0  0
   17.5733  -18.6468  -16.1308 O   0  0  0  0  0  0  0  0  0  0  0  0
  2  1  1  1
  2  3  1  0
  2  9  1  0
  4  5  2  0
  4  3  1  0
  6  5  1  0
  7  8  2  0
  7  6  1  0
  8  4  1  0
  9 10  2  0
 11 12  1  0
 12 13  2  0
 12 14  1  0
 14 15  1  0
 16 15  1  1
 16 18  1  0
 17 16  1  0
 17  9  1  0
 18 19  2  0
 21 20  1  6
 21 23  1  0
 22 21  1  0
 22 18  1  0
 23 24  2  0
 23 25  1  0
M  END
$$$$
