HQA.pdb
     RDKit          3D

 25 25  0  0  1  0  0  0  0  0999 V2000
   27.4730  -19.9132  -19.1191 N   0  0  0  0  0  0  0  0  0  0  0  0
   27.0582  -19.3944  -17.8304 C   0  0  1  0  0  0  0  0  0  0  0  0
   27.0773  -17.8993  -17.9004 C   0  0  0  0  0  0  0  0  0  0  0  0
   28.4745  -17.4647  -18.1584 C   0  0  0  0  0  0  0  0  0  0  0  0
   29.6108  -17.6649  -17.3974 C   0  0  0  0  0  0  0  0  0  0  0  0
   30.6743  -17.1037  -17.9948 N   0  0  0  0  0  0  0  0  0  0  0  0
   30.2400  -16.5526  -19.1159 C   0  0  0  0  0  0  0  0  0  0  0  0
   28.8979  -16.7598  -19.2385 N   0  0  0  0  0  0  0  0  0  0  0  0
   25.7736  -19.9475  -17.3857 C   0  0  0  0  0  0  0  0  0  0  0  0
   24.8169  -19.9653  -18.1992 O   0  0  0  0  0  0  0  0  0  0  0  0
   25.0450  -23.6869  -12.3367 N   0  0  0  0  0  0  0  0  0  0  0  0
   23.7446  -23.6416  -12.8839 C   0  0  0  0  0  0  0  0  0  0  0  0
   22.8785  -24.3992  -12.3274 O   0  0  0  0  0  0  0  0  0  0  0  0
   23.3895  -22.7681  -14.0403 C   0  0  0  0  0  0  0  0  0  0  0  0
   24.6507  -22.0776  -14.4948 C   0  0  0  0  0  0  0  0  0  0  0  0
   24.4158  -21.1028  -15.6112 C   0  0  2  0  0  0  0  0  0  0  0  0
   25.6147  -20.4511  -16.0666 N   0  0  0  0  0  0  0  0  0  0  0  0
   23.4237  -20.1107  -15.1686 C   0  0  0  0  0  0  0  0  0  0  0  0
   23.7471  -19.2314  -14.3518 O   0  0  0  0  0  0  0  0  0  0  0  0
   20.1207  -19.1031  -16.4377 C   0  0  0  0  0  0  0  0  0  0  0  0
   21.1638  -19.1361  -15.3235 C   0  0  2  0  0  0  0  0  0  0  0  0
   22.1115  -20.1629  -15.6734 N   0  0  0  0  0  0  0  0  0  0  0  0
   20.4815  -19.4509  -14.0518 C   0  0  0  0  0  0  0  0  0  0  0  0
   20.5883  -20.5820  -13.5506 O   0  0  0  0  0  0  0  0  0  0  0  0
   19.7110  -18.4986  -13.3915 O   0  0  0  0  0  0  0  0  0  0  0  0
  2  1  1  6
  2  3  1  0
  2  9  1  0
  4  5  2  0
  4  3  1  0
  6  5  1  0
  7  8  2  0
  7  6  1  0
  8  4  1  0
  9 10  2  0
 11 12  1  0
 12 13  2  0
 12 14  1  0
 14 15  1  0
 16 15  1  1
 16 18  1  0
 17 16  1  0
 17  9  1  0
 18 19  2  0
 21 20  1  6
 21 23  1  0
 22 21  1  0
 22 18  1  0
 23 24  2  0
 23 25  1  0
M  END
$$$$
