HQA.pdb
     RDKit          3D

 25 25  0  0  1  0  0  0  0  0999 V2000
   30.4536  -34.6516   -5.9138 N   0  0  0  0  0  0  0  0  0  0  0  0
   31.6061  -34.8720   -5.0623 C   0  0  1  0  0  0  0  0  0  0  0  0
   32.6410  -33.8450   -5.4015 C   0  0  0  0  0  0  0  0  0  0  0  0
   33.3937  -34.3202   -6.5911 C   0  0  0  0  0  0  0  0  0  0  0  0
   33.3075  -35.5264   -7.2604 C   0  0  0  0  0  0  0  0  0  0  0  0
   34.1706  -35.5495   -8.2886 N   0  0  0  0  0  0  0  0  0  0  0  0
   34.8020  -34.3874   -8.2876 C   0  0  0  0  0  0  0  0  0  0  0  0
   34.3445  -33.6181   -7.2589 N   0  0  0  0  0  0  0  0  0  0  0  0
   31.2569  -34.9089   -3.6373 C   0  0  0  0  0  0  0  0  0  0  0  0
   30.5843  -33.9607   -3.1621 O   0  0  0  0  0  0  0  0  0  0  0  0
   28.8048  -36.4185    0.8049 N   0  0  0  0  0  0  0  0  0  0  0  0
   28.2819  -36.7959   -0.4506 C   0  0  0  0  0  0  0  0  0  0  0  0
   27.0139  -36.6974   -0.5793 O   0  0  0  0  0  0  0  0  0  0  0  0
   29.1443  -37.2816   -1.5672 C   0  0  0  0  0  0  0  0  0  0  0  0
   30.5652  -37.3184   -1.0634 C   0  0  0  0  0  0  0  0  0  0  0  0
   31.3444  -36.0853   -1.4157 C   0  0  2  0  0  0  0  0  0  0  0  0
   31.6693  -35.9909   -2.8139 N   0  0  0  0  0  0  0  0  0  0  0  0
   32.5663  -36.0510   -0.5970 C   0  0  0  0  0  0  0  0  0  0  0  0
   33.5895  -36.6406   -0.9844 O   0  0  0  0  0  0  0  0  0  0  0  0
   33.4549  -34.4065    2.6220 C   0  0  0  0  0  0  0  0  0  0  0  0
   33.7798  -35.2602    1.3988 C   0  0  2  0  0  0  0  0  0  0  0  0
   32.5697  -35.3494    0.6225 N   0  0  0  0  0  0  0  0  0  0  0  0
   34.2168  -36.5936    1.8604 C   0  0  0  0  0  0  0  0  0  0  0  0
   33.4172  -37.5436    1.8676 O   0  0  0  0  0  0  0  0  0  0  0  0
   35.5205  -36.8155    2.2936 O   0  0  0  0  0  0  0  0  0  0  0  0
  2  1  1  6
  2  3  1  0
  2  9  1  0
  4  5  2  0
  4  3  1  0
  6  5  1  0
  7  8  2  0
  7  6  1  0
  8  4  1  0
  9 10  2  0
 11 12  1  0
 12 13  2  0
 12 14  1  0
 14 15  1  0
 16 15  1  6
 16 18  1  0
 17 16  1  0
 17  9  1  0
 18 19  2  0
 21 20  1  1
 21 23  1  0
 22 21  1  0
 22 18  1  0
 23 24  2  0
 23 25  1  0
M  END
$$$$
