HQA.pdb
     RDKit          3D

 25 25  0  0  1  0  0  0  0  0999 V2000
   27.9211  -20.9003  -16.9049 N   0  0  0  0  0  0  0  0  0  0  0  0
   27.2388  -20.0134  -15.9830 C   0  0  1  0  0  0  0  0  0  0  0  0
   26.5632  -18.9412  -16.7797 C   0  0  0  0  0  0  0  0  0  0  0  0
   27.6133  -18.0855  -17.3903 C   0  0  0  0  0  0  0  0  0  0  0  0
   28.1927  -18.1656  -18.6424 C   0  0  0  0  0  0  0  0  0  0  0  0
   29.1067  -17.1939  -18.7940 N   0  0  0  0  0  0  0  0  0  0  0  0
   29.1210  -16.4995  -17.6685 C   0  0  0  0  0  0  0  0  0  0  0  0
   28.2163  -17.0253  -16.7941 N   0  0  0  0  0  0  0  0  0  0  0  0
   26.3365  -20.7294  -15.0736 C   0  0  0  0  0  0  0  0  0  0  0  0
   25.5734  -21.6034  -15.5544 O   0  0  0  0  0  0  0  0  0  0  0  0
   26.1791  -20.1420   -8.7156 N   0  0  0  0  0  0  0  0  0  0  0  0
   25.1949  -21.1163   -8.9888 C   0  0  0  0  0  0  0  0  0  0  0  0
   24.6829  -21.6931   -7.9695 O   0  0  0  0  0  0  0  0  0  0  0  0
   24.7691  -21.4612  -10.3766 C   0  0  0  0  0  0  0  0  0  0  0  0
   25.6670  -20.7121  -11.3288 C   0  0  0  0  0  0  0  0  0  0  0  0
   25.3630  -20.9991  -12.7700 C   0  0  2  0  0  0  0  0  0  0  0  0
   26.3256  -20.4416  -13.6823 N   0  0  0  0  0  0  0  0  0  0  0  0
   24.0126  -20.5007  -13.0742 C   0  0  0  0  0  0  0  0  0  0  0  0
   23.7970  -19.2774  -13.1142 O   0  0  0  0  0  0  0  0  0  0  0  0
   21.0207  -22.0082  -14.5496 C   0  0  0  0  0  0  0  0  0  0  0  0
   21.6603  -20.9329  -13.6749 C   0  0  2  0  0  0  0  0  0  0  0  0
   22.9706  -21.4138  -13.3187 N   0  0  0  0  0  0  0  0  0  0  0  0
   20.8183  -20.7415  -12.4764 C   0  0  0  0  0  0  0  0  0  0  0  0
   21.1635  -21.2292  -11.3879 O   0  0  0  0  0  0  0  0  0  0  0  0
   19.6311  -20.0180  -12.5370 O   0  0  0  0  0  0  0  0  0  0  0  0
  2  1  1  6
  2  3  1  0
  2  9  1  0
  4  5  2  0
  4  3  1  0
  6  5  1  0
  7  8  2  0
  7  6  1  0
  8  4  1  0
  9 10  2  0
 11 12  1  0
 12 13  2  0
 12 14  1  0
 14 15  1  0
 16 15  1  1
 16 18  1  0
 17 16  1  0
 17  9  1  0
 18 19  2  0
 21 20  1  6
 21 23  1  0
 22 21  1  0
 22 18  1  0
 23 24  2  0
 23 25  1  0
M  END
$$$$
