HQA.pdb
     RDKit          3D

 25 25  0  0  1  0  0  0  0  0999 V2000
   24.2603  -11.8062  -17.5620 N   0  0  0  0  0  0  0  0  0  0  0  0
   24.6413  -10.5388  -16.9700 C   0  0  1  0  0  0  0  0  0  0  0  0
   26.0504  -10.2383  -17.3758 C   0  0  0  0  0  0  0  0  0  0  0  0
   26.9246  -11.3198  -16.8525 C   0  0  0  0  0  0  0  0  0  0  0  0
   27.5735  -11.4128  -15.6358 C   0  0  0  0  0  0  0  0  0  0  0  0
   28.2658  -12.5610  -15.5654 N   0  0  0  0  0  0  0  0  0  0  0  0
   28.0718  -13.1983  -16.7079 C   0  0  0  0  0  0  0  0  0  0  0  0
   27.2549  -12.4596  -17.5119 N   0  0  0  0  0  0  0  0  0  0  0  0
   23.6949   -9.4618  -17.2834 C   0  0  0  0  0  0  0  0  0  0  0  0
   23.4142   -9.2447  -18.4882 O   0  0  0  0  0  0  0  0  0  0  0  0
   18.2225   -9.0299  -15.3954 N   0  0  0  0  0  0  0  0  0  0  0  0
   18.3338   -7.7336  -15.9428 C   0  0  0  0  0  0  0  0  0  0  0  0
   17.2342   -7.1059  -16.1182 O   0  0  0  0  0  0  0  0  0  0  0  0
   19.6472   -7.1219  -16.2992 C   0  0  0  0  0  0  0  0  0  0  0  0
   20.7133   -8.1629  -16.0671 C   0  0  0  0  0  0  0  0  0  0  0  0
   22.0800   -7.7060  -16.4857 C   0  0  2  0  0  0  0  0  0  0  0  0
   23.1096   -8.6825  -16.2495 N   0  0  0  0  0  0  0  0  0  0  0  0
   22.3898   -6.4483  -15.7882 C   0  0  0  0  0  0  0  0  0  0  0  0
   22.7724   -6.4723  -14.6060 O   0  0  0  0  0  0  0  0  0  0  0  0
   22.2962   -2.8633  -16.7846 C   0  0  0  0  0  0  0  0  0  0  0  0
   22.4541   -3.9833  -15.7594 C   0  0  2  0  0  0  0  0  0  0  0  0
   22.2508   -5.2226  -16.4648 N   0  0  0  0  0  0  0  0  0  0  0  0
   21.4386   -3.7982  -14.7027 C   0  0  0  0  0  0  0  0  0  0  0  0
   20.4383   -4.5329  -14.6642 O   0  0  0  0  0  0  0  0  0  0  0  0
   21.5764   -2.8073  -13.7355 O   0  0  0  0  0  0  0  0  0  0  0  0
  2  1  1  6
  2  3  1  0
  2  9  1  0
  4  5  2  0
  4  3  1  0
  6  5  1  0
  7  8  2  0
  7  6  1  0
  8  4  1  0
  9 10  2  0
 11 12  1  0
 12 13  2  0
 12 14  1  0
 14 15  1  0
 16 15  1  1
 16 18  1  0
 17 16  1  0
 17  9  1  0
 18 19  2  0
 21 20  1  6
 21 23  1  0
 22 21  1  0
 22 18  1  0
 23 24  2  0
 23 25  1  0
M  END
$$$$
