HQA.pdb
     RDKit          3D

 25 25  0  0  1  0  0  0  0  0999 V2000
   26.7961  -19.9489  -17.8085 N   0  0  0  0  0  0  0  0  0  0  0  0
   26.2811  -19.1081  -16.7456 C   0  0  1  0  0  0  0  0  0  0  0  0
   25.8249  -17.8171  -17.3504 C   0  0  0  0  0  0  0  0  0  0  0  0
   26.9991  -17.1588  -17.9793 C   0  0  0  0  0  0  0  0  0  0  0  0
   27.2707  -16.9392  -19.3165 C   0  0  0  0  0  0  0  0  0  0  0  0
   28.4480  -16.3086  -19.4536 N   0  0  0  0  0  0  0  0  0  0  0  0
   28.9296  -16.1230  -18.2360 C   0  0  0  0  0  0  0  0  0  0  0  0
   28.0617  -16.6343  -17.3169 N   0  0  0  0  0  0  0  0  0  0  0  0
   25.2522  -19.7793  -15.9426 C   0  0  0  0  0  0  0  0  0  0  0  0
   24.3475  -20.4135  -16.5399 O   0  0  0  0  0  0  0  0  0  0  0  0
   25.2577  -20.2244   -9.5784 N   0  0  0  0  0  0  0  0  0  0  0  0
   24.1190  -20.9690   -9.9545 C   0  0  0  0  0  0  0  0  0  0  0  0
   23.5012  -21.5613   -9.0051 O   0  0  0  0  0  0  0  0  0  0  0  0
   23.6542  -21.0670  -11.3690 C   0  0  0  0  0  0  0  0  0  0  0  0
   24.6364  -20.3083  -12.2256 C   0  0  0  0  0  0  0  0  0  0  0  0
   24.3014  -20.3596  -13.6874 C   0  0  2  0  0  0  0  0  0  0  0  0
   25.2779  -19.7139  -14.5236 N   0  0  0  0  0  0  0  0  0  0  0  0
   22.9724  -19.7609  -13.8868 C   0  0  0  0  0  0  0  0  0  0  0  0
   22.8670  -18.5413  -14.1014 O   0  0  0  0  0  0  0  0  0  0  0  0
   20.4619  -19.9447  -15.6812 C   0  0  0  0  0  0  0  0  0  0  0  0
   20.5354  -20.0223  -14.1583 C   0  0  2  0  0  0  0  0  0  0  0  0
   21.8256  -20.5742  -13.8333 N   0  0  0  0  0  0  0  0  0  0  0  0
   19.4453  -20.8971  -13.6804 C   0  0  0  0  0  0  0  0  0  0  0  0
   19.7063  -22.0113  -13.1983 O   0  0  0  0  0  0  0  0  0  0  0  0
   18.1142  -20.4987  -13.7576 O   0  0  0  0  0  0  0  0  0  0  0  0
  2  1  1  6
  2  3  1  0
  2  9  1  0
  4  5  2  0
  4  3  1  0
  6  5  1  0
  7  8  2  0
  7  6  1  0
  8  4  1  0
  9 10  2  0
 11 12  1  0
 12 13  2  0
 12 14  1  0
 14 15  1  0
 16 15  1  1
 16 18  1  0
 17 16  1  0
 17  9  1  0
 18 19  2  0
 21 20  1  6
 21 23  1  0
 22 21  1  0
 22 18  1  0
 23 24  2  0
 23 25  1  0
M  END
$$$$
