LRH.pdb
     RDKit          3D

 30 30  0  0  1  0  0  0  0  0999 V2000
    7.7761  -12.6685   17.9154 C   0  0  0  0  0  0  0  0  0  0  0  0
    8.4077  -13.1756   19.1669 C   0  0  1  0  0  0  0  0  0  0  0  0
    7.8912  -12.2924   20.3126 C   0  0  0  0  0  0  0  0  0  0  0  0
    8.0150  -14.5800   19.4977 C   0  0  0  0  0  0  0  0  0  0  0  0
    8.6199  -15.1526   20.7432 C   0  0  2  0  0  0  0  0  0  0  0  0
    8.3973  -14.2705   21.8622 N   0  0  0  0  0  0  0  0  0  0  0  0
    9.9805  -15.6076   20.5452 C   0  0  0  0  0  0  0  0  0  0  0  0
   10.1726  -16.8102   20.2305 O   0  0  0  0  0  0  0  0  0  0  0  0
   16.9629  -12.6940   17.1727 N   0  0  0  0  0  0  0  0  0  0  0  0
   16.5916  -14.0827   17.1701 C   0  0  0  0  0  0  0  0  0  0  0  0
   17.5425  -14.9368   17.0700 N   0  0  0  0  0  0  0  0  0  0  0  0
   15.2516  -14.5039   17.2719 N   0  0  0  0  0  0  0  0  0  0  0  0
   14.8965  -15.5303   18.2104 C   0  0  0  0  0  0  0  0  0  0  0  0
   14.7990  -15.0149   19.6277 C   0  0  0  0  0  0  0  0  0  0  0  0
   13.4378  -14.4009   19.8489 C   0  0  0  0  0  0  0  0  0  0  0  0
   12.4875  -15.3541   20.5312 C   0  0  2  0  0  0  0  0  0  0  0  0
   11.1658  -14.8087   20.6755 N   0  0  0  0  0  0  0  0  0  0  0  0
   12.9716  -15.8107   21.8510 C   0  0  0  0  0  0  0  0  0  0  0  0
   12.6603  -15.1963   22.9011 O   0  0  0  0  0  0  0  0  0  0  0  0
   17.3939  -15.9702   17.1171 N   0  0  0  0  0  0  0  0  0  0  0  0
   13.8006  -16.9542   21.9704 C   0  0  2  0  0  0  0  0  0  0  0  0
   13.7923  -17.6892   23.2242 C   0  0  0  0  0  0  0  0  0  0  0  0
   12.6779  -18.6736   23.2889 C   0  0  0  0  0  0  0  0  0  0  0  0
   12.7558  -19.4703   24.5240 C   0  0  0  0  0  0  0  0  0  0  0  0
   13.6317  -19.4034   25.5859 N   0  0  0  0  0  0  0  0  0  0  0  0
   13.3210  -20.3776   26.4956 C   0  0  0  0  0  0  0  0  0  0  0  0
   12.2659  -21.0375   26.0001 N   0  0  0  0  0  0  0  0  0  0  0  0
   11.9183  -20.5056   24.8228 C   0  0  0  0  0  0  0  0  0  0  0  0
   15.0884  -18.3259   23.4058 O   0  0  0  0  0  0  0  0  0  0  0  0
   15.8952  -18.1891   24.5365 O   0  0  0  0  0  0  0  0  0  0  0  0
  2  1  1  6
  3  2  1  0
  4  2  1  0
  5  6  1  1
  5  7  1  0
  5  4  1  0
  7  8  2  0
 10  9  1  0
 10 12  1  0
 11 10  2  0
 12 13  1  0
 13 14  1  0
 14 15  1  0
 16 15  1  1
 16 18  1  0
 17  7  1  0
 17 16  1  0
 18 20  1  0
 19 18  2  0
 20 21  1  0
 21 22  1  6
 22 23  1  0
 23 24  2  0
 23 27  1  0
 24 25  1  0
 25 26  1  0
 27 26  2  0
 28 29  1  0
 28 21  1  0
 30 28  2  0
M  END
$$$$
