LRH.pdb
     RDKit          3D

 30 30  0  0  1  0  0  0  0  0999 V2000
    6.6481  -12.2747   20.5472 C   0  0  0  0  0  0  0  0  0  0  0  0
    7.1891  -13.4717   19.8425 C   0  0  1  0  0  0  0  0  0  0  0  0
    7.9955  -12.9523   18.6428 C   0  0  0  0  0  0  0  0  0  0  0  0
    8.1345  -14.2715   20.6806 C   0  0  0  0  0  0  0  0  0  0  0  0
    8.6542  -15.5320   20.0592 C   0  0  2  0  0  0  0  0  0  0  0  0
    7.5766  -16.2775   19.4568 N   0  0  0  0  0  0  0  0  0  0  0  0
    9.5300  -16.2714   20.9446 C   0  0  0  0  0  0  0  0  0  0  0  0
    9.0645  -17.2659   21.5582 O   0  0  0  0  0  0  0  0  0  0  0  0
   16.5265  -14.1564   19.4895 N   0  0  0  0  0  0  0  0  0  0  0  0
   15.8956  -14.8253   18.3846 C   0  0  0  0  0  0  0  0  0  0  0  0
   16.0854  -14.3252   17.2194 N   0  0  0  0  0  0  0  0  0  0  0  0
   15.1029  -15.9768   18.5549 N   0  0  0  0  0  0  0  0  0  0  0  0
   14.8278  -16.4636   19.8769 C   0  0  0  0  0  0  0  0  0  0  0  0
   13.3684  -16.3422   20.2500 C   0  0  0  0  0  0  0  0  0  0  0  0
   13.1707  -16.8080   21.6723 C   0  0  0  0  0  0  0  0  0  0  0  0
   11.7195  -16.7771   22.0848 C   0  0  2  0  0  0  0  0  0  0  0  0
   10.9111  -15.9794   21.2042 N   0  0  0  0  0  0  0  0  0  0  0  0
   11.5211  -16.3181   23.4757 C   0  0  0  0  0  0  0  0  0  0  0  0
   11.2005  -15.1296   23.7241 O   0  0  0  0  0  0  0  0  0  0  0  0
   15.7509  -14.7776   16.3386 N   0  0  0  0  0  0  0  0  0  0  0  0
   11.6866  -17.2046   24.5691 C   0  0  1  0  0  0  0  0  0  0  0  0
   10.5848  -17.3682   25.5027 C   0  0  0  0  0  0  0  0  0  0  0  0
    9.3192  -17.7427   24.8151 C   0  0  0  0  0  0  0  0  0  0  0  0
    8.3901  -16.6019   24.7731 C   0  0  0  0  0  0  0  0  0  0  0  0
    8.5022  -15.3289   25.2891 N   0  0  0  0  0  0  0  0  0  0  0  0
    7.3600  -14.6250   25.0189 C   0  0  0  0  0  0  0  0  0  0  0  0
    6.5531  -15.4545   24.3444 N   0  0  0  0  0  0  0  0  0  0  0  0
    7.1564  -16.6387   24.1909 C   0  0  0  0  0  0  0  0  0  0  0  0
   10.9631  -18.3469   26.5113 O   0  0  0  0  0  0  0  0  0  0  0  0
   11.1191  -18.0741   27.8713 O   0  0  0  0  0  0  0  0  0  0  0  0
  2  1  1  1
  3  2  1  0
  4  2  1  0
  5  6  1  1
  5  7  1  0
  5  4  1  0
  7  8  2  0
 10  9  1  0
 10 12  1  0
 11 10  2  0
 12 13  1  0
 13 14  1  0
 14 15  1  0
 16 15  1  6
 16 18  1  0
 17  7  1  0
 17 16  1  0
 18 20  1  0
 19 18  2  0
 20 21  1  0
 21 22  1  1
 22 23  1  0
 23 24  2  0
 23 27  1  0
 24 25  1  0
 25 26  1  0
 27 26  2  0
 28 29  1  0
 28 21  1  0
 30 28  2  0
M  END
$$$$
