LRH.pdb
     RDKit          3D

 30 30  0  0  1  0  0  0  0  0999 V2000
    6.6587  -12.3627   18.4500 C   0  0  0  0  0  0  0  0  0  0  0  0
    7.8896  -13.1063   18.8425 C   0  0  1  0  0  0  0  0  0  0  0  0
    9.0027  -12.0616   19.0124 C   0  0  0  0  0  0  0  0  0  0  0  0
    7.7589  -13.8108   20.1550 C   0  0  0  0  0  0  0  0  0  0  0  0
    8.9961  -14.4885   20.6601 C   0  0  2  0  0  0  0  0  0  0  0  0
    9.7304  -15.0757   19.5665 N   0  0  0  0  0  0  0  0  0  0  0  0
    8.7373  -15.3497   21.7953 C   0  0  0  0  0  0  0  0  0  0  0  0
    7.7262  -15.1189   22.5071 O   0  0  0  0  0  0  0  0  0  0  0  0
   11.8410  -20.6579   19.5068 N   0  0  0  0  0  0  0  0  0  0  0  0
   10.5437  -21.2592   19.3592 C   0  0  0  0  0  0  0  0  0  0  0  0
   10.2663  -21.7654   18.2143 N   0  0  0  0  0  0  0  0  0  0  0  0
    9.6085  -21.2997   20.4114 N   0  0  0  0  0  0  0  0  0  0  0  0
    9.9231  -20.6828   21.6687 C   0  0  0  0  0  0  0  0  0  0  0  0
    9.4092  -19.2650   21.7663 C   0  0  0  0  0  0  0  0  0  0  0  0
    9.6727  -18.7269   23.1520 C   0  0  0  0  0  0  0  0  0  0  0  0
    9.1799  -17.3100   23.3155 C   0  0  2  0  0  0  0  0  0  0  0  0
    9.5365  -16.4690   22.2061 N   0  0  0  0  0  0  0  0  0  0  0  0
    9.6368  -16.6780   24.5710 C   0  0  0  0  0  0  0  0  0  0  0  0
   10.8117  -16.2505   24.6886 O   0  0  0  0  0  0  0  0  0  0  0  0
    9.3346  -22.1756   17.9781 N   0  0  0  0  0  0  0  0  0  0  0  0
    8.7634  -16.5358   25.6783 C   0  0  1  0  0  0  0  0  0  0  0  0
    9.2827  -15.9440   26.9000 C   0  0  0  0  0  0  0  0  0  0  0  0
    8.1963  -15.4438   27.7857 C   0  0  0  0  0  0  0  0  0  0  0  0
    7.4886  -14.3160   27.1584 C   0  0  0  0  0  0  0  0  0  0  0  0
    7.7545  -13.6168   26.0009 N   0  0  0  0  0  0  0  0  0  0  0  0
    6.8242  -12.6255   25.8428 C   0  0  0  0  0  0  0  0  0  0  0  0
    5.9946  -12.7125   26.8909 N   0  0  0  0  0  0  0  0  0  0  0  0
    6.3803  -13.7181   27.6844 C   0  0  0  0  0  0  0  0  0  0  0  0
   10.1255  -16.9199   27.5751 O   0  0  0  0  0  0  0  0  0  0  0  0
   10.8547  -16.6768   28.7401 O   0  0  0  0  0  0  0  0  0  0  0  0
  2  1  1  1
  3  2  1  0
  4  2  1  0
  5  6  1  6
  5  7  1  0
  5  4  1  0
  7  8  2  0
 10  9  1  0
 10 12  1  0
 11 10  2  0
 12 13  1  0
 13 14  1  0
 14 15  1  0
 16 15  1  6
 16 18  1  0
 17  7  1  0
 17 16  1  0
 18 20  1  0
 19 18  2  0
 20 21  1  0
 21 22  1  6
 22 23  1  0
 23 24  2  0
 23 27  1  0
 24 25  1  0
 25 26  1  0
 27 26  2  0
 28 29  1  0
 28 21  1  0
 30 28  2  0
M  END
$$$$
