LRH.pdb
     RDKit          3D

 30 30  0  0  1  0  0  0  0  0999 V2000
    7.8752  -12.2716   27.9767 C   0  0  0  0  0  0  0  0  0  0  0  0
    6.9101  -13.2022   27.3250 C   0  0  1  0  0  0  0  0  0  0  0  0
    5.9111  -12.3314   26.5483 C   0  0  0  0  0  0  0  0  0  0  0  0
    7.5517  -14.1123   26.3271 C   0  0  0  0  0  0  0  0  0  0  0  0
    6.6198  -14.9871   25.5450 C   0  0  2  0  0  0  0  0  0  0  0  0
    6.1560  -16.0831   26.3595 N   0  0  0  0  0  0  0  0  0  0  0  0
    7.1427  -15.3337   24.2396 C   0  0  0  0  0  0  0  0  0  0  0  0
    7.7709  -16.4159   24.1114 O   0  0  0  0  0  0  0  0  0  0  0  0
   10.1106  -14.3467   16.2422 N   0  0  0  0  0  0  0  0  0  0  0  0
    8.6854  -14.5298   16.2030 C   0  0  0  0  0  0  0  0  0  0  0  0
    8.0849  -14.1762   15.1268 N   0  0  0  0  0  0  0  0  0  0  0  0
    7.9657  -15.0705   17.2862 N   0  0  0  0  0  0  0  0  0  0  0  0
    7.4360  -14.1988   18.2960 C   0  0  0  0  0  0  0  0  0  0  0  0
    8.3242  -14.1131   19.5156 C   0  0  0  0  0  0  0  0  0  0  0  0
    7.4784  -13.8532   20.7387 C   0  0  0  0  0  0  0  0  0  0  0  0
    7.8229  -14.7823   21.8768 C   0  0  2  0  0  0  0  0  0  0  0  0
    7.0175  -14.5495   23.0440 N   0  0  0  0  0  0  0  0  0  0  0  0
    9.2511  -14.7331   22.2542 C   0  0  0  0  0  0  0  0  0  0  0  0
    9.6503  -13.9774   23.1744 O   0  0  0  0  0  0  0  0  0  0  0  0
    7.0602  -14.3092   14.9705 N   0  0  0  0  0  0  0  0  0  0  0  0
   10.2114  -15.5361   21.5895 C   0  0  2  0  0  0  0  0  0  0  0  0
   11.2427  -16.1839   22.3827 C   0  0  0  0  0  0  0  0  0  0  0  0
   10.6700  -17.1110   23.3963 C   0  0  0  0  0  0  0  0  0  0  0  0
   11.7337  -17.6987   24.2267 C   0  0  0  0  0  0  0  0  0  0  0  0
   13.0994  -17.5157   24.2042 N   0  0  0  0  0  0  0  0  0  0  0  0
   13.6814  -18.3063   25.1577 C   0  0  0  0  0  0  0  0  0  0  0  0
   12.6859  -18.9692   25.7609 N   0  0  0  0  0  0  0  0  0  0  0  0
   11.5173  -18.6155   25.2141 C   0  0  0  0  0  0  0  0  0  0  0  0
   12.1675  -16.8642   21.4881 O   0  0  0  0  0  0  0  0  0  0  0  0
   11.9215  -17.1392   20.1420 O   0  0  0  0  0  0  0  0  0  0  0  0
  2  1  1  6
  3  2  1  0
  4  2  1  0
  5  6  1  1
  5  7  1  0
  5  4  1  0
  7  8  2  0
 10  9  1  0
 10 12  1  0
 11 10  2  0
 12 13  1  0
 13 14  1  0
 14 15  1  0
 16 15  1  6
 16 18  1  0
 17  7  1  0
 17 16  1  0
 18 20  1  0
 19 18  2  0
 20 21  1  0
 21 22  1  1
 22 23  1  0
 23 24  2  0
 23 27  1  0
 24 25  1  0
 25 26  1  0
 27 26  2  0
 28 29  1  0
 28 21  1  0
 30 28  2  0
M  END
$$$$
