LRH.pdb
     RDKit          3D

 30 30  0  0  1  0  0  0  0  0999 V2000
    7.9335  -11.7900   19.4516 C   0  0  0  0  0  0  0  0  0  0  0  0
    8.1612  -13.2418   19.2010 C   0  0  1  0  0  0  0  0  0  0  0  0
    9.5180  -13.3610   18.4911 C   0  0  0  0  0  0  0  0  0  0  0  0
    8.2621  -14.0475   20.4566 C   0  0  0  0  0  0  0  0  0  0  0  0
    8.4188  -15.5265   20.2743 C   0  0  2  0  0  0  0  0  0  0  0  0
    7.3635  -16.0453   19.4394 N   0  0  0  0  0  0  0  0  0  0  0  0
    8.6496  -16.2219   21.5236 C   0  0  0  0  0  0  0  0  0  0  0  0
    7.6898  -16.3504   22.3265 O   0  0  0  0  0  0  0  0  0  0  0  0
   13.6791  -18.3985   19.7518 N   0  0  0  0  0  0  0  0  0  0  0  0
   14.7624  -18.5984   20.6753 C   0  0  0  0  0  0  0  0  0  0  0  0
   15.9394  -18.3043   20.2605 N   0  0  0  0  0  0  0  0  0  0  0  0
   14.5594  -19.0931   21.9781 N   0  0  0  0  0  0  0  0  0  0  0  0
   13.2342  -19.4312   22.4137 C   0  0  0  0  0  0  0  0  0  0  0  0
   12.3490  -18.2178   22.5810 C   0  0  0  0  0  0  0  0  0  0  0  0
   11.0043  -18.6443   23.1183 C   0  0  0  0  0  0  0  0  0  0  0  0
   10.0338  -17.4919   23.2031 C   0  0  2  0  0  0  0  0  0  0  0  0
    9.8933  -16.7942   21.9547 N   0  0  0  0  0  0  0  0  0  0  0  0
   10.3749  -16.5228   24.2657 C   0  0  0  0  0  0  0  0  0  0  0  0
   10.6546  -15.3306   23.9870 O   0  0  0  0  0  0  0  0  0  0  0  0
   16.7962  -18.3949   20.8520 N   0  0  0  0  0  0  0  0  0  0  0  0
   10.3965  -16.9097   25.6290 C   0  0  1  0  0  0  0  0  0  0  0  0
    9.5754  -16.1703   26.5732 C   0  0  0  0  0  0  0  0  0  0  0  0
    8.1710  -16.0275   26.1020 C   0  0  0  0  0  0  0  0  0  0  0  0
    7.7304  -14.6258   26.1899 C   0  0  0  0  0  0  0  0  0  0  0  0
    8.3614  -13.5134   26.7034 N   0  0  0  0  0  0  0  0  0  0  0  0
    7.5375  -12.4269   26.5862 C   0  0  0  0  0  0  0  0  0  0  0  0
    6.4115  -12.8646   26.0075 N   0  0  0  0  0  0  0  0  0  0  0  0
    6.5138  -14.1764   25.7657 C   0  0  0  0  0  0  0  0  0  0  0  0
    9.6470  -16.8230   27.8721 O   0  0  0  0  0  0  0  0  0  0  0  0
    9.7294  -18.2022   28.0704 O   0  0  0  0  0  0  0  0  0  0  0  0
  2  1  1  1
  3  2  1  0
  4  2  1  0
  5  6  1  1
  5  7  1  0
  5  4  1  0
  7  8  2  0
 10  9  1  0
 10 12  1  0
 11 10  2  0
 12 13  1  0
 13 14  1  0
 14 15  1  0
 16 15  1  6
 16 18  1  0
 17  7  1  0
 17 16  1  0
 18 20  1  0
 19 18  2  0
 20 21  1  0
 21 22  1  1
 22 23  1  0
 23 24  2  0
 23 27  1  0
 24 25  1  0
 25 26  1  0
 27 26  2  0
 28 29  1  0
 28 21  1  0
 30 28  2  0
M  END
$$$$
