LRH.pdb
     RDKit          3D

 30 30  0  0  1  0  0  0  0  0999 V2000
    6.7162  -12.0504   18.6379 C   0  0  0  0  0  0  0  0  0  0  0  0
    7.9275  -12.9061   18.7886 C   0  0  1  0  0  0  0  0  0  0  0  0
    9.1016  -11.9624   19.0891 C   0  0  0  0  0  0  0  0  0  0  0  0
    7.8372  -13.8577   19.9385 C   0  0  0  0  0  0  0  0  0  0  0  0
    9.0557  -14.6908   20.1959 C   0  0  2  0  0  0  0  0  0  0  0  0
    9.5951  -15.1902   18.9551 N   0  0  0  0  0  0  0  0  0  0  0  0
    8.8533  -15.6667   21.2467 C   0  0  0  0  0  0  0  0  0  0  0  0
    7.8653  -15.5291   22.0130 O   0  0  0  0  0  0  0  0  0  0  0  0
    9.8131  -23.7656   21.2471 N   0  0  0  0  0  0  0  0  0  0  0  0
   10.9362  -23.2003   21.9438 C   0  0  0  0  0  0  0  0  0  0  0  0
   11.9630  -23.9530   22.0951 N   0  0  0  0  0  0  0  0  0  0  0  0
   10.9271  -21.8836   22.4436 N   0  0  0  0  0  0  0  0  0  0  0  0
    9.7481  -21.3722   23.0830 C   0  0  0  0  0  0  0  0  0  0  0  0
    9.9282  -19.9612   23.5933 C   0  0  0  0  0  0  0  0  0  0  0  0
   10.1621  -19.0294   22.4288 C   0  0  0  0  0  0  0  0  0  0  0  0
    9.4190  -17.7254   22.5852 C   0  0  2  0  0  0  0  0  0  0  0  0
    9.6858  -16.8049   21.5143 N   0  0  0  0  0  0  0  0  0  0  0  0
    9.6836  -17.0579   23.8771 C   0  0  0  0  0  0  0  0  0  0  0  0
   10.7771  -16.4793   24.0931 O   0  0  0  0  0  0  0  0  0  0  0  0
   12.8249  -23.6532   22.6047 N   0  0  0  0  0  0  0  0  0  0  0  0
    8.7124  -17.0510   24.9093 C   0  0  1  0  0  0  0  0  0  0  0  0
    9.0780  -16.4973   26.2024 C   0  0  0  0  0  0  0  0  0  0  0  0
    7.9577  -15.7404   26.8244 C   0  0  0  0  0  0  0  0  0  0  0  0
    7.8873  -14.3732   26.2839 C   0  0  0  0  0  0  0  0  0  0  0  0
    8.7280  -13.6995   25.4244 N   0  0  0  0  0  0  0  0  0  0  0  0
    8.2601  -12.4278   25.2321 C   0  0  0  0  0  0  0  0  0  0  0  0
    7.1440  -12.3188   25.9648 N   0  0  0  0  0  0  0  0  0  0  0  0
    6.9102  -13.4738   26.5981 C   0  0  0  0  0  0  0  0  0  0  0  0
    9.5461  -17.5750   27.0613 O   0  0  0  0  0  0  0  0  0  0  0  0
   10.5466  -17.4510   28.0265 O   0  0  0  0  0  0  0  0  0  0  0  0
  2  1  1  1
  3  2  1  0
  4  2  1  0
  5  6  1  6
  5  7  1  0
  5  4  1  0
  7  8  2  0
 10  9  1  0
 10 12  1  0
 11 10  2  0
 12 13  1  0
 13 14  1  0
 14 15  1  0
 16 15  1  6
 16 18  1  0
 17  7  1  0
 17 16  1  0
 18 20  1  0
 19 18  2  0
 20 21  1  0
 21 22  1  1
 22 23  1  0
 23 24  2  0
 23 27  1  0
 24 25  1  0
 25 26  1  0
 27 26  2  0
 28 29  1  0
 28 21  1  0
 30 28  2  0
M  END
$$$$
