LRH.pdb
     RDKit          3D

 30 30  0  0  1  0  0  0  0  0999 V2000
    7.8927  -12.0878   28.1851 C   0  0  0  0  0  0  0  0  0  0  0  0
    6.9212  -13.0040   27.5225 C   0  0  1  0  0  0  0  0  0  0  0  0
    5.7486  -12.1348   27.0440 C   0  0  0  0  0  0  0  0  0  0  0  0
    7.4792  -13.6766   26.3092 C   0  0  0  0  0  0  0  0  0  0  0  0
    6.5620  -14.6346   25.6119 C   0  0  2  0  0  0  0  0  0  0  0  0
    6.0787  -15.6313   26.5354 N   0  0  0  0  0  0  0  0  0  0  0  0
    7.1114  -15.1269   24.3655 C   0  0  0  0  0  0  0  0  0  0  0  0
    7.6897  -16.2440   24.3629 O   0  0  0  0  0  0  0  0  0  0  0  0
    9.0964  -13.0111   16.1293 N   0  0  0  0  0  0  0  0  0  0  0  0
    8.6798  -14.3865   16.0980 C   0  0  0  0  0  0  0  0  0  0  0  0
    9.2130  -15.1334   15.2026 N   0  0  0  0  0  0  0  0  0  0  0  0
    7.7319  -14.9068   17.0002 N   0  0  0  0  0  0  0  0  0  0  0  0
    7.4240  -14.1878   18.2038 C   0  0  0  0  0  0  0  0  0  0  0  0
    7.9526  -14.8729   19.4427 C   0  0  0  0  0  0  0  0  0  0  0  0
    7.3244  -14.2546   20.6683 C   0  0  0  0  0  0  0  0  0  0  0  0
    7.7666  -14.9363   21.9399 C   0  0  2  0  0  0  0  0  0  0  0  0
    7.0657  -14.4546   23.0982 N   0  0  0  0  0  0  0  0  0  0  0  0
    9.2222  -14.8361   22.1761 C   0  0  0  0  0  0  0  0  0  0  0  0
    9.6922  -13.9683   22.9527 O   0  0  0  0  0  0  0  0  0  0  0  0
    8.9762  -16.1441   15.0821 N   0  0  0  0  0  0  0  0  0  0  0  0
   10.1297  -15.7153   21.5339 C   0  0  2  0  0  0  0  0  0  0  0  0
   11.2989  -16.1651   22.2707 C   0  0  0  0  0  0  0  0  0  0  0  0
   10.9316  -16.9783   23.4618 C   0  0  0  0  0  0  0  0  0  0  0  0
   12.1353  -17.4137   24.1885 C   0  0  0  0  0  0  0  0  0  0  0  0
   13.4691  -17.1515   23.9616 N   0  0  0  0  0  0  0  0  0  0  0  0
   14.2276  -17.8051   24.8946 C   0  0  0  0  0  0  0  0  0  0  0  0
   13.3713  -18.4629   25.6873 N   0  0  0  0  0  0  0  0  0  0  0  0
   12.1182  -18.2376   25.2763 C   0  0  0  0  0  0  0  0  0  0  0  0
   12.1742  -16.8952   21.3657 O   0  0  0  0  0  0  0  0  0  0  0  0
   13.5639  -16.9615   21.4772 O   0  0  0  0  0  0  0  0  0  0  0  0
  2  1  1  6
  3  2  1  0
  4  2  1  0
  5  6  1  1
  5  7  1  0
  5  4  1  0
  7  8  2  0
 10  9  1  0
 10 12  1  0
 11 10  2  0
 12 13  1  0
 13 14  1  0
 14 15  1  0
 16 15  1  6
 16 18  1  0
 17  7  1  0
 17 16  1  0
 18 20  1  0
 19 18  2  0
 20 21  1  0
 21 22  1  1
 22 23  1  0
 23 24  2  0
 23 27  1  0
 24 25  1  0
 25 26  1  0
 27 26  2  0
 28 29  1  0
 28 21  1  0
 30 28  2  0
M  END
$$$$
