LRH.pdb
     RDKit          3D

 30 30  0  0  1  0  0  0  0  0999 V2000
    6.7871  -12.3239   18.5666 C   0  0  0  0  0  0  0  0  0  0  0  0
    7.7881  -13.3674   18.9291 C   0  0  1  0  0  0  0  0  0  0  0  0
    9.1402  -12.6529   19.0725 C   0  0  0  0  0  0  0  0  0  0  0  0
    7.5073  -14.0215   20.2441 C   0  0  0  0  0  0  0  0  0  0  0  0
    8.4899  -15.0659   20.6786 C   0  0  2  0  0  0  0  0  0  0  0  0
    8.8209  -15.9350   19.5764 N   0  0  0  0  0  0  0  0  0  0  0  0
    8.1050  -15.7150   21.9148 C   0  0  0  0  0  0  0  0  0  0  0  0
    7.2603  -15.1476   22.6542 O   0  0  0  0  0  0  0  0  0  0  0  0
    5.3972  -21.7160   25.5422 N   0  0  0  0  0  0  0  0  0  0  0  0
    6.4598  -21.9228   26.4880 C   0  0  0  0  0  0  0  0  0  0  0  0
    6.1180  -22.1884   27.6948 N   0  0  0  0  0  0  0  0  0  0  0  0
    7.8179  -21.8414   26.1243 N   0  0  0  0  0  0  0  0  0  0  0  0
    8.1907  -21.1839   24.9040 C   0  0  0  0  0  0  0  0  0  0  0  0
    7.9263  -19.6964   24.9399 C   0  0  0  0  0  0  0  0  0  0  0  0
    8.3433  -19.0779   23.6275 C   0  0  0  0  0  0  0  0  0  0  0  0
    8.1102  -17.5872   23.6013 C   0  0  2  0  0  0  0  0  0  0  0  0
    8.6014  -16.9716   22.3992 N   0  0  0  0  0  0  0  0  0  0  0  0
    8.6812  -16.8898   24.7727 C   0  0  0  0  0  0  0  0  0  0  0  0
    9.8964  -16.5750   24.8078 O   0  0  0  0  0  0  0  0  0  0  0  0
    6.8043  -22.2971   28.4755 N   0  0  0  0  0  0  0  0  0  0  0  0
    7.8753  -16.5562   25.8899 C   0  0  2  0  0  0  0  0  0  0  0  0
    8.5065  -15.9255   27.0371 C   0  0  0  0  0  0  0  0  0  0  0  0
    7.6428  -14.8771   27.6453 C   0  0  0  0  0  0  0  0  0  0  0  0
    7.7134  -13.6278   26.8703 C   0  0  0  0  0  0  0  0  0  0  0  0
    8.5544  -13.2487   25.8464 N   0  0  0  0  0  0  0  0  0  0  0  0
    8.2531  -11.9715   25.4578 C   0  0  0  0  0  0  0  0  0  0  0  0
    7.2383  -11.5678   26.2333 N   0  0  0  0  0  0  0  0  0  0  0  0
    6.9064  -12.5478   27.0815 C   0  0  0  0  0  0  0  0  0  0  0  0
    8.8688  -16.9545   28.0005 O   0  0  0  0  0  0  0  0  0  0  0  0
    9.5294  -16.7224   29.2080 O   0  0  0  0  0  0  0  0  0  0  0  0
  2  1  1  1
  3  2  1  0
  4  2  1  0
  5  6  1  6
  5  7  1  0
  5  4  1  0
  7  8  2  0
 10  9  1  0
 10 12  1  0
 11 10  2  0
 12 13  1  0
 13 14  1  0
 14 15  1  0
 16 15  1  6
 16 18  1  0
 17  7  1  0
 17 16  1  0
 18 20  1  0
 19 18  2  0
 20 21  1  0
 21 22  1  6
 22 23  1  0
 23 24  2  0
 23 27  1  0
 24 25  1  0
 25 26  1  0
 27 26  2  0
 28 29  1  0
 28 21  1  0
 30 28  2  0
M  END
$$$$
