LRH.pdb
     RDKit          3D

 30 30  0  0  1  0  0  0  0  0999 V2000
    7.4524  -11.4757   20.0371 C   0  0  0  0  0  0  0  0  0  0  0  0
    7.4323  -12.9131   19.6425 C   0  0  1  0  0  0  0  0  0  0  0  0
    8.3198  -13.0424   18.3956 C   0  0  0  0  0  0  0  0  0  0  0  0
    8.0168  -13.8171   20.6804 C   0  0  0  0  0  0  0  0  0  0  0  0
    7.8821  -15.2864   20.4194 C   0  0  2  0  0  0  0  0  0  0  0  0
    6.5119  -15.6204   20.1181 N   0  0  0  0  0  0  0  0  0  0  0  0
    8.5327  -16.0950   21.4296 C   0  0  0  0  0  0  0  0  0  0  0  0
    7.8437  -16.5282   22.3888 O   0  0  0  0  0  0  0  0  0  0  0  0
   15.1017  -14.3768   21.7177 N   0  0  0  0  0  0  0  0  0  0  0  0
   15.1102  -15.0155   20.4299 C   0  0  0  0  0  0  0  0  0  0  0  0
   15.4942  -14.3058   19.4335 N   0  0  0  0  0  0  0  0  0  0  0  0
   14.7186  -16.3565   20.2520 N   0  0  0  0  0  0  0  0  0  0  0  0
   14.1279  -17.0773   21.3437 C   0  0  0  0  0  0  0  0  0  0  0  0
   12.7417  -16.5822   21.6861 C   0  0  0  0  0  0  0  0  0  0  0  0
   11.8926  -17.7407   22.1508 C   0  0  0  0  0  0  0  0  0  0  0  0
   10.4774  -17.3198   22.4628 C   0  0  2  0  0  0  0  0  0  0  0  0
    9.9199  -16.4628   21.4529 N   0  0  0  0  0  0  0  0  0  0  0  0
   10.3435  -16.6671   23.7821 C   0  0  0  0  0  0  0  0  0  0  0  0
   10.8419  -15.5343   23.9958 O   0  0  0  0  0  0  0  0  0  0  0  0
   15.4773  -14.6461   18.4455 N   0  0  0  0  0  0  0  0  0  0  0  0
    9.6497  -17.2994   24.8440 C   0  0  1  0  0  0  0  0  0  0  0  0
    9.6143  -16.6408   26.1391 C   0  0  0  0  0  0  0  0  0  0  0  0
    8.2244  -16.3335   26.5733 C   0  0  0  0  0  0  0  0  0  0  0  0
    7.7430  -15.0927   25.9447 C   0  0  0  0  0  0  0  0  0  0  0  0
    8.3786  -14.2011   25.1079 N   0  0  0  0  0  0  0  0  0  0  0  0
    7.5263  -13.1745   24.8032 C   0  0  0  0  0  0  0  0  0  0  0  0
    6.3787  -13.4302   25.4450 N   0  0  0  0  0  0  0  0  0  0  0  0
    6.4949  -14.5731   26.1306 C   0  0  0  0  0  0  0  0  0  0  0  0
   10.3136  -17.4706   27.1091 O   0  0  0  0  0  0  0  0  0  0  0  0
   10.5382  -17.1252   28.4426 O   0  0  0  0  0  0  0  0  0  0  0  0
  2  1  1  1
  3  2  1  0
  4  2  1  0
  5  6  1  1
  5  7  1  0
  5  4  1  0
  7  8  2  0
 10  9  1  0
 10 12  1  0
 11 10  2  0
 12 13  1  0
 13 14  1  0
 14 15  1  0
 16 15  1  6
 16 18  1  0
 17  7  1  0
 17 16  1  0
 18 20  1  0
 19 18  2  0
 20 21  1  0
 21 22  1  1
 22 23  1  0
 23 24  2  0
 23 27  1  0
 24 25  1  0
 25 26  1  0
 27 26  2  0
 28 29  1  0
 28 21  1  0
 30 28  2  0
M  END
$$$$
