LRH.pdb
     RDKit          3D

 30 30  0  0  1  0  0  0  0  0999 V2000
    7.4254  -12.0794   19.1328 C   0  0  0  0  0  0  0  0  0  0  0  0
    8.0759  -13.3896   18.8454 C   0  0  1  0  0  0  0  0  0  0  0  0
    9.4414  -13.0771   18.2152 C   0  0  0  0  0  0  0  0  0  0  0  0
    8.3459  -14.1956   20.0756 C   0  0  0  0  0  0  0  0  0  0  0  0
    8.8295  -15.5954   19.8479 C   0  0  2  0  0  0  0  0  0  0  0  0
    7.9394  -16.2963   18.9555 N   0  0  0  0  0  0  0  0  0  0  0  0
    9.1703  -16.2760   21.0801 C   0  0  0  0  0  0  0  0  0  0  0  0
    8.2390  -16.6424   21.8421 O   0  0  0  0  0  0  0  0  0  0  0  0
   12.6154  -21.2643   18.6879 N   0  0  0  0  0  0  0  0  0  0  0  0
   13.5854  -20.4225   19.3336 C   0  0  0  0  0  0  0  0  0  0  0  0
   14.8097  -20.5768   18.9859 N   0  0  0  0  0  0  0  0  0  0  0  0
   13.2261  -19.4679   20.3047 N   0  0  0  0  0  0  0  0  0  0  0  0
   11.8751  -19.4152   20.7867 C   0  0  0  0  0  0  0  0  0  0  0  0
   11.7949  -19.4162   22.2958 C   0  0  0  0  0  0  0  0  0  0  0  0
   12.0210  -18.0164   22.8141 C   0  0  0  0  0  0  0  0  0  0  0  0
   10.7540  -17.1966   22.8103 C   0  0  2  0  0  0  0  0  0  0  0  0
   10.4959  -16.5833   21.5366 N   0  0  0  0  0  0  0  0  0  0  0  0
   10.7308  -16.1592   23.8629 C   0  0  0  0  0  0  0  0  0  0  0  0
   11.0542  -14.9729   23.6077 O   0  0  0  0  0  0  0  0  0  0  0  0
   15.6025  -20.0611   19.4306 N   0  0  0  0  0  0  0  0  0  0  0  0
   10.3435  -16.4722   25.1899 C   0  0  1  0  0  0  0  0  0  0  0  0
    9.6479  -15.4597   25.9666 C   0  0  0  0  0  0  0  0  0  0  0  0
    8.3726  -15.0395   25.3246 C   0  0  0  0  0  0  0  0  0  0  0  0
    7.7113  -13.9887   26.1150 C   0  0  0  0  0  0  0  0  0  0  0  0
    8.0947  -13.3622   27.2811 N   0  0  0  0  0  0  0  0  0  0  0  0
    7.1313  -12.4649   27.6550 C   0  0  0  0  0  0  0  0  0  0  0  0
    6.1651  -12.5376   26.7302 N   0  0  0  0  0  0  0  0  0  0  0  0
    6.4991  -13.4441   25.8047 C   0  0  0  0  0  0  0  0  0  0  0  0
    9.4346  -15.9642   27.3151 O   0  0  0  0  0  0  0  0  0  0  0  0
    9.7852  -15.2901   28.4858 O   0  0  0  0  0  0  0  0  0  0  0  0
  2  1  1  1
  3  2  1  0
  4  2  1  0
  5  6  1  1
  5  7  1  0
  5  4  1  0
  7  8  2  0
 10  9  1  0
 10 12  1  0
 11 10  2  0
 12 13  1  0
 13 14  1  0
 14 15  1  0
 16 15  1  6
 16 18  1  0
 17  7  1  0
 17 16  1  0
 18 20  1  0
 19 18  2  0
 20 21  1  0
 21 22  1  1
 22 23  1  0
 23 24  2  0
 23 27  1  0
 24 25  1  0
 25 26  1  0
 27 26  2  0
 28 29  1  0
 28 21  1  0
 30 28  2  0
M  END
$$$$
