TMG.pdb
     RDKit          3D

 20 19  0  0  1  0  0  0  0  0999 V2000
   27.6944  -18.0695  -15.6177 C   0  0  0  0  0  0  0  0  0  0  0  0
   26.9197  -18.7363  -14.4915 C   0  0  1  0  0  0  0  0  0  0  0  0
   25.7068  -19.1351  -14.9914 O   0  0  0  0  0  0  0  0  0  0  0  0
   27.7677  -19.8815  -13.9979 C   0  0  2  0  0  0  0  0  0  0  0  0
   27.9960  -20.7960  -15.0917 N   0  0  0  0  0  0  0  0  0  0  0  0
   27.1050  -20.6139  -12.8741 C   0  0  0  0  0  0  0  0  0  0  0  0
   26.8912  -21.8496  -12.9385 O   0  0  0  0  0  0  0  0  0  0  0  0
   28.1026  -19.1903   -6.7337 C   0  0  0  0  0  0  0  0  0  0  0  0
   26.6020  -20.2003   -6.4332 S   0  0  0  0  0  0  0  0  0  0  0  0
   26.0586  -20.8578   -8.0103 C   0  0  0  0  0  0  0  0  0  0  0  0
   26.5446  -20.1016   -9.2114 C   0  0  0  0  0  0  0  0  0  0  0  0
   26.1549  -20.5959  -10.5249 C   0  0  2  0  0  0  0  0  0  0  0  0
   26.6871  -19.9586  -11.6885 N   0  0  0  0  0  0  0  0  0  0  0  0
   24.7171  -20.8571  -10.6722 C   0  0  0  0  0  0  0  0  0  0  0  0
   24.0340  -21.3831   -9.7538 O   0  0  0  0  0  0  0  0  0  0  0  0
   24.0041  -20.5373  -11.8805 N   0  0  0  0  0  0  0  0  0  0  0  0
   22.6067  -20.7258  -12.1026 C   0  0  0  0  0  0  0  0  0  0  0  0
   22.0499  -20.3427  -13.3839 C   0  0  0  0  0  0  0  0  0  0  0  0
   22.6978  -19.8971  -14.3359 O   0  0  0  0  0  0  0  0  0  0  0  0
   20.6666  -20.4848  -13.5696 O   0  0  0  0  0  0  0  0  0  0  0  0
  2  1  1  6
  3  2  1  0
  4  5  1  6
  4  2  1  0
  6  4  1  0
  6  7  2  0
  9  8  1  0
  9 10  1  0
 10 11  1  0
 12 11  1  1
 12 13  1  0
 12 14  1  0
 13  6  1  0
 14 16  1  0
 14 15  2  0
 16 17  1  0
 18 17  1  0
 18 20  1  0
 19 18  2  0
M  END
$$$$
