TMG.pdb
     RDKit          3D

 20 19  0  0  1  0  0  0  0  0999 V2000
   23.5553   -8.2132  -20.7393 C   0  0  0  0  0  0  0  0  0  0  0  0
   23.2763   -9.6639  -21.1006 C   0  0  1  0  0  0  0  0  0  0  0  0
   23.9522   -9.9483  -22.2592 O   0  0  0  0  0  0  0  0  0  0  0  0
   23.7246  -10.4989  -19.9274 C   0  0  2  0  0  0  0  0  0  0  0  0
   23.5932  -11.8946  -20.2731 N   0  0  0  0  0  0  0  0  0  0  0  0
   22.9090  -10.2155  -18.7055 C   0  0  0  0  0  0  0  0  0  0  0  0
   21.7107  -10.5817  -18.6230 O   0  0  0  0  0  0  0  0  0  0  0  0
   23.3282  -14.2749  -14.3878 C   0  0  0  0  0  0  0  0  0  0  0  0
   23.2564  -12.5051  -13.9138 S   0  0  0  0  0  0  0  0  0  0  0  0
   22.9852  -11.5482  -15.4056 C   0  0  0  0  0  0  0  0  0  0  0  0
   22.9627  -10.0613  -15.2073 C   0  0  0  0  0  0  0  0  0  0  0  0
   22.7367   -9.2261  -16.3789 C   0  0  2  0  0  0  0  0  0  0  0  0
   23.4401   -9.5256  -17.5867 N   0  0  0  0  0  0  0  0  0  0  0  0
   22.7410   -7.7831  -16.1047 C   0  0  0  0  0  0  0  0  0  0  0  0
   23.7789   -7.0804  -16.2292 O   0  0  0  0  0  0  0  0  0  0  0  0
   21.5604   -7.0871  -15.6664 N   0  0  0  0  0  0  0  0  0  0  0  0
   21.4652   -5.6888  -15.3955 C   0  0  0  0  0  0  0  0  0  0  0  0
   21.9452   -5.1946  -14.1212 C   0  0  0  0  0  0  0  0  0  0  0  0
   22.3556   -5.8996  -13.1944 O   0  0  0  0  0  0  0  0  0  0  0  0
   21.9486   -3.8074  -13.9120 O   0  0  0  0  0  0  0  0  0  0  0  0
  2  1  1  1
  3  2  1  0
  4  5  1  6
  4  2  1  0
  6  4  1  0
  6  7  2  0
  9  8  1  0
  9 10  1  0
 10 11  1  0
 12 11  1  1
 12 13  1  0
 12 14  1  0
 13  6  1  0
 14 16  1  0
 14 15  2  0
 16 17  1  0
 18 17  1  0
 18 20  1  0
 19 18  2  0
M  END
$$$$
