TMG.pdb
     RDKit          3D

 20 19  0  0  1  0  0  0  0  0999 V2000
   25.6699   -9.7420  -15.0809 C   0  0  0  0  0  0  0  0  0  0  0  0
   25.7558  -10.7555  -16.2116 C   0  0  1  0  0  0  0  0  0  0  0  0
   26.6635  -11.7171  -15.8490 O   0  0  0  0  0  0  0  0  0  0  0  0
   24.3633  -11.2965  -16.4183 C   0  0  2  0  0  0  0  0  0  0  0  0
   24.4380  -12.4581  -17.2727 N   0  0  0  0  0  0  0  0  0  0  0  0
   23.4646  -10.2793  -17.0479 C   0  0  0  0  0  0  0  0  0  0  0  0
   23.1825  -10.3275  -18.2706 O   0  0  0  0  0  0  0  0  0  0  0  0
   17.9503   -9.9847  -17.8282 C   0  0  0  0  0  0  0  0  0  0  0  0
   18.2472   -8.3649  -18.6345 S   0  0  0  0  0  0  0  0  0  0  0  0
   19.7914   -7.7111  -17.9999 C   0  0  0  0  0  0  0  0  0  0  0  0
   20.7169   -8.7350  -17.4118 C   0  0  0  0  0  0  0  0  0  0  0  0
   21.9529   -8.2601  -16.8049 C   0  0  2  0  0  0  0  0  0  0  0  0
   22.8893   -9.2176  -16.3053 N   0  0  0  0  0  0  0  0  0  0  0  0
   21.7771   -7.1466  -15.8633 C   0  0  0  0  0  0  0  0  0  0  0  0
   21.0539   -6.1506  -16.1308 O   0  0  0  0  0  0  0  0  0  0  0  0
   22.4302   -7.1222  -14.5814 N   0  0  0  0  0  0  0  0  0  0  0  0
   22.4068   -6.0401  -13.6506 C   0  0  0  0  0  0  0  0  0  0  0  0
   22.6619   -4.7000  -14.1379 C   0  0  0  0  0  0  0  0  0  0  0  0
   23.1829   -4.4255  -15.2232 O   0  0  0  0  0  0  0  0  0  0  0  0
   22.2921   -3.6209  -13.3212 O   0  0  0  0  0  0  0  0  0  0  0  0
  2  1  1  1
  3  2  1  0
  4  5  1  6
  4  2  1  0
  6  4  1  0
  6  7  2  0
  9  8  1  0
  9 10  1  0
 10 11  1  0
 12 11  1  1
 12 13  1  0
 12 14  1  0
 13  6  1  0
 14 16  1  0
 14 15  2  0
 16 17  1  0
 18 17  1  0
 18 20  1  0
 19 18  2  0
M  END
$$$$
