TMG.pdb
     RDKit          3D

 20 19  0  0  1  0  0  0  0  0999 V2000
   18.4102  -13.1305  -15.5346 C   0  0  0  0  0  0  0  0  0  0  0  0
   17.2118  -12.3446  -15.0255 C   0  0  1  0  0  0  0  0  0  0  0  0
   17.5766  -11.7279  -13.8564 O   0  0  0  0  0  0  0  0  0  0  0  0
   16.8300  -11.3768  -16.1172 C   0  0  2  0  0  0  0  0  0  0  0  0
   16.4506  -12.1266  -17.2914 N   0  0  0  0  0  0  0  0  0  0  0  0
   17.9615  -10.4609  -16.4625 C   0  0  0  0  0  0  0  0  0  0  0  0
   19.0303  -10.9021  -16.9522 O   0  0  0  0  0  0  0  0  0  0  0  0
   19.7082   -8.3950  -21.9094 C   0  0  0  0  0  0  0  0  0  0  0  0
   19.3200   -7.2445  -20.5354 S   0  0  0  0  0  0  0  0  0  0  0  0
   19.3444   -8.1851  -19.0091 C   0  0  0  0  0  0  0  0  0  0  0  0
   18.9516   -7.4125  -17.7845 C   0  0  0  0  0  0  0  0  0  0  0  0
   18.9367   -8.1225  -16.5128 C   0  0  2  0  0  0  0  0  0  0  0  0
   17.8884   -9.0600  -16.2575 N   0  0  0  0  0  0  0  0  0  0  0  0
   19.1876   -7.2729  -15.3412 C   0  0  0  0  0  0  0  0  0  0  0  0
   18.2535   -6.8373  -14.6170 O   0  0  0  0  0  0  0  0  0  0  0  0
   20.5167   -6.8780  -14.9566 N   0  0  0  0  0  0  0  0  0  0  0  0
   20.8641   -6.1362  -13.7875 C   0  0  0  0  0  0  0  0  0  0  0  0
   22.2129   -5.6214  -13.6677 C   0  0  0  0  0  0  0  0  0  0  0  0
   23.1459   -5.8881  -14.4312 O   0  0  0  0  0  0  0  0  0  0  0  0
   22.4932   -4.7505  -12.6042 O   0  0  0  0  0  0  0  0  0  0  0  0
  2  1  1  6
  3  2  1  0
  4  5  1  6
  4  2  1  0
  6  4  1  0
  6  7  2  0
  9  8  1  0
  9 10  1  0
 10 11  1  0
 12 11  1  6
 12 13  1  0
 12 14  1  0
 13  6  1  0
 14 16  1  0
 14 15  2  0
 16 17  1  0
 18 17  1  0
 18 20  1  0
 19 18  2  0
M  END
$$$$
