TMG.pdb
     RDKit          3D

 20 19  0  0  1  0  0  0  0  0999 V2000
   20.6868  -10.3362  -20.6208 C   0  0  0  0  0  0  0  0  0  0  0  0
   20.9755   -9.6902  -19.2746 C   0  0  1  0  0  0  0  0  0  0  0  0
   19.7774   -9.4755  -18.6433 O   0  0  0  0  0  0  0  0  0  0  0  0
   21.8848  -10.6318  -18.5256 C   0  0  2  0  0  0  0  0  0  0  0  0
   21.1905  -11.8804  -18.3166 N   0  0  0  0  0  0  0  0  0  0  0  0
   22.2925  -10.0675  -17.2013 C   0  0  0  0  0  0  0  0  0  0  0  0
   21.5949  -10.2498  -16.1732 O   0  0  0  0  0  0  0  0  0  0  0  0
   27.5816  -12.7967  -15.5514 C   0  0  0  0  0  0  0  0  0  0  0  0
   27.3544  -10.9881  -15.7498 S   0  0  0  0  0  0  0  0  0  0  0  0
   25.6601  -10.5969  -15.3126 C   0  0  0  0  0  0  0  0  0  0  0  0
   25.3129   -9.1385  -15.3718 C   0  0  0  0  0  0  0  0  0  0  0  0
   23.9683   -8.7805  -15.8024 C   0  0  2  0  0  0  0  0  0  0  0  0
   23.4762   -9.3048  -17.0378 N   0  0  0  0  0  0  0  0  0  0  0  0
   23.6474   -7.3539  -15.6645 C   0  0  0  0  0  0  0  0  0  0  0  0
   23.9344   -6.5130  -16.5575 O   0  0  0  0  0  0  0  0  0  0  0  0
   22.9945   -6.8291  -14.4946 N   0  0  0  0  0  0  0  0  0  0  0  0
   22.5958   -5.4729  -14.2959 C   0  0  0  0  0  0  0  0  0  0  0  0
   21.4333   -4.9803  -15.0060 C   0  0  0  0  0  0  0  0  0  0  0  0
   20.7541   -5.6378  -15.8003 O   0  0  0  0  0  0  0  0  0  0  0  0
   21.0383   -3.6529  -14.7817 O   0  0  0  0  0  0  0  0  0  0  0  0
  2  1  1  6
  3  2  1  0
  4  5  1  1
  4  2  1  0
  6  4  1  0
  6  7  2  0
  9  8  1  0
  9 10  1  0
 10 11  1  0
 12 11  1  6
 12 13  1  0
 12 14  1  0
 13  6  1  0
 14 16  1  0
 14 15  2  0
 16 17  1  0
 18 17  1  0
 18 20  1  0
 19 18  2  0
M  END
$$$$
