TMG.pdb
     RDKit          3D

 20 19  0  0  1  0  0  0  0  0999 V2000
   17.3168   -9.7164  -16.9585 C   0  0  0  0  0  0  0  0  0  0  0  0
   17.2632  -11.1333  -16.4083 C   0  0  1  0  0  0  0  0  0  0  0  0
   16.4493  -11.8737  -17.2265 O   0  0  0  0  0  0  0  0  0  0  0  0
   18.6838  -11.6375  -16.3644 C   0  0  2  0  0  0  0  0  0  0  0  0
   18.6669  -13.0485  -16.0581 N   0  0  0  0  0  0  0  0  0  0  0  0
   19.4921  -10.9190  -15.3305 C   0  0  0  0  0  0  0  0  0  0  0  0
   19.3168  -11.1293  -14.1050 O   0  0  0  0  0  0  0  0  0  0  0  0
   24.7800  -13.1890  -14.5579 C   0  0  0  0  0  0  0  0  0  0  0  0
   24.1326  -11.7286  -15.4579 S   0  0  0  0  0  0  0  0  0  0  0  0
   23.3586  -10.6438  -14.2584 C   0  0  0  0  0  0  0  0  0  0  0  0
   22.7546   -9.3960  -14.8320 C   0  0  0  0  0  0  0  0  0  0  0  0
   21.3077   -9.2477  -14.7546 C   0  0  2  0  0  0  0  0  0  0  0  0
   20.4890   -9.9720  -15.6756 N   0  0  0  0  0  0  0  0  0  0  0  0
   20.8474   -7.8603  -14.6109 C   0  0  0  0  0  0  0  0  0  0  0  0
   21.3105   -7.0884  -13.7298 O   0  0  0  0  0  0  0  0  0  0  0  0
   19.8305   -7.3027  -15.4626 N   0  0  0  0  0  0  0  0  0  0  0  0
   19.3116   -5.9749  -15.3878 C   0  0  0  0  0  0  0  0  0  0  0  0
   19.9958   -4.9208  -16.1083 C   0  0  0  0  0  0  0  0  0  0  0  0
   19.6580   -3.7333  -16.1209 O   0  0  0  0  0  0  0  0  0  0  0  0
   21.1333   -5.2643  -16.8543 O   0  0  0  0  0  0  0  0  0  0  0  0
  2  1  1  6
  3  2  1  0
  4  5  1  1
  4  2  1  0
  6  4  1  0
  6  7  2  0
  9  8  1  0
  9 10  1  0
 10 11  1  0
 12 11  1  6
 12 13  1  0
 12 14  1  0
 13  6  1  0
 14 16  1  0
 14 15  2  0
 16 17  1  0
 18 17  1  0
 18 20  1  0
 19 18  2  0
M  END
$$$$
