TMG.pdb
     RDKit          3D

 20 19  0  0  1  0  0  0  0  0999 V2000
   17.3503  -10.9954  -13.1442 C   0  0  0  0  0  0  0  0  0  0  0  0
   16.0444  -11.7072  -12.8267 C   0  0  1  0  0  0  0  0  0  0  0  0
   16.1933  -13.0300  -13.1557 O   0  0  0  0  0  0  0  0  0  0  0  0
   15.7718  -11.4836  -11.3604 C   0  0  2  0  0  0  0  0  0  0  0  0
   14.6720  -12.3283  -10.9580 N   0  0  0  0  0  0  0  0  0  0  0  0
   15.4260  -10.0561  -11.0754 C   0  0  0  0  0  0  0  0  0  0  0  0
   14.3771   -9.5368  -11.5304 O   0  0  0  0  0  0  0  0  0  0  0  0
   11.7311   -8.1470   -6.6548 C   0  0  0  0  0  0  0  0  0  0  0  0
   13.3987   -7.4091   -6.8463 S   0  0  0  0  0  0  0  0  0  0  0  0
   14.0577   -7.9451   -8.4254 C   0  0  0  0  0  0  0  0  0  0  0  0
   15.4455   -7.4621   -8.7277 C   0  0  0  0  0  0  0  0  0  0  0  0
   16.0283   -7.8379  -10.0085 C   0  0  2  0  0  0  0  0  0  0  0  0
   16.2555   -9.2218  -10.2845 N   0  0  0  0  0  0  0  0  0  0  0  0
   17.1776   -7.0187  -10.4153 C   0  0  0  0  0  0  0  0  0  0  0  0
   18.3479   -7.2617  -10.0178 O   0  0  0  0  0  0  0  0  0  0  0  0
   17.0332   -5.8814  -11.2849 N   0  0  0  0  0  0  0  0  0  0  0  0
   18.0888   -5.0318  -11.7339 C   0  0  0  0  0  0  0  0  0  0  0  0
   17.7461   -3.7778  -12.3731 C   0  0  0  0  0  0  0  0  0  0  0  0
   16.6092   -3.4450  -12.7214 O   0  0  0  0  0  0  0  0  0  0  0  0
   18.7789   -2.8613  -12.6210 O   0  0  0  0  0  0  0  0  0  0  0  0
  2  1  1  1
  3  2  1  0
  4  5  1  6
  4  2  1  0
  6  4  1  0
  6  7  2  0
  9  8  1  0
  9 10  1  0
 10 11  1  0
 12 11  1  1
 12 13  1  0
 12 14  1  0
 13  6  1  0
 14 16  1  0
 14 15  2  0
 16 17  1  0
 18 17  1  0
 18 20  1  0
 19 18  2  0
M  END
$$$$
