TMG.pdb
     RDKit          3D

 20 19  0  0  1  0  0  0  0  0999 V2000
   23.2091  -21.7846  -15.9093 C   0  0  0  0  0  0  0  0  0  0  0  0
   22.0583  -20.9194  -15.4192 C   0  0  1  0  0  0  0  0  0  0  0  0
   20.8954  -21.4317  -15.9342 O   0  0  0  0  0  0  0  0  0  0  0  0
   22.1058  -20.9443  -13.9120 C   0  0  2  0  0  0  0  0  0  0  0  0
   20.9843  -20.1932  -13.3992 N   0  0  0  0  0  0  0  0  0  0  0  0
   23.3760  -20.3498  -13.3907 C   0  0  0  0  0  0  0  0  0  0  0  0
   23.5581  -19.1074  -13.3821 O   0  0  0  0  0  0  0  0  0  0  0  0
   25.0670  -20.3872   -7.0493 C   0  0  0  0  0  0  0  0  0  0  0  0
   26.1322  -21.0833   -8.3695 S   0  0  0  0  0  0  0  0  0  0  0  0
   25.4303  -20.6065   -9.9490 C   0  0  0  0  0  0  0  0  0  0  0  0
   26.2087  -21.0593  -11.1489 C   0  0  0  0  0  0  0  0  0  0  0  0
   25.7117  -20.6735  -12.4625 C   0  0  2  0  0  0  0  0  0  0  0  0
   24.4312  -21.1492  -12.8835 N   0  0  0  0  0  0  0  0  0  0  0  0
   26.7016  -20.7846  -13.5419 C   0  0  0  0  0  0  0  0  0  0  0  0
   26.7189  -21.7611  -14.3374 O   0  0  0  0  0  0  0  0  0  0  0  0
   27.7190  -19.7882  -13.7485 N   0  0  0  0  0  0  0  0  0  0  0  0
   28.3939  -19.5237  -14.9782 C   0  0  0  0  0  0  0  0  0  0  0  0
   28.3230  -20.5116  -16.0352 C   0  0  0  0  0  0  0  0  0  0  0  0
   29.0394  -21.5137  -16.1208 O   0  0  0  0  0  0  0  0  0  0  0  0
   27.3692  -20.3261  -17.0471 O   0  0  0  0  0  0  0  0  0  0  0  0
  2  1  1  6
  3  2  1  0
  4  5  1  1
  4  2  1  0
  6  4  1  0
  6  7  2  0
  9  8  1  0
  9 10  1  0
 10 11  1  0
 12 11  1  1
 12 13  1  0
 12 14  1  0
 13  6  1  0
 14 16  1  0
 14 15  2  0
 16 17  1  0
 18 17  1  0
 18 20  1  0
 19 18  2  0
M  END
$$$$
