TMG.pdb
     RDKit          3D

 20 19  0  0  1  0  0  0  0  0999 V2000
   25.8727  -18.8454  -16.4431 C   0  0  0  0  0  0  0  0  0  0  0  0
   26.7858  -19.9939  -16.8433 C   0  0  1  0  0  0  0  0  0  0  0  0
   27.7635  -19.4907  -17.6624 O   0  0  0  0  0  0  0  0  0  0  0  0
   27.3242  -20.5877  -15.5658 C   0  0  2  0  0  0  0  0  0  0  0  0
   28.2421  -21.6515  -15.8984 N   0  0  0  0  0  0  0  0  0  0  0  0
   26.2278  -21.1341  -14.7069 C   0  0  0  0  0  0  0  0  0  0  0  0
   25.7648  -22.2859  -14.8963 O   0  0  0  0  0  0  0  0  0  0  0  0
   25.0932  -20.4550   -8.3312 C   0  0  0  0  0  0  0  0  0  0  0  0
   26.5941  -21.1297   -9.1399 S   0  0  0  0  0  0  0  0  0  0  0  0
   26.1962  -21.4441  -10.8597 C   0  0  0  0  0  0  0  0  0  0  0  0
   24.8966  -20.8565  -11.3252 C   0  0  0  0  0  0  0  0  0  0  0  0
   24.6343  -20.8451  -12.7578 C   0  0  2  0  0  0  0  0  0  0  0  0
   25.6587  -20.3884  -13.6439 N   0  0  0  0  0  0  0  0  0  0  0  0
   23.3246  -20.2940  -13.1299 C   0  0  0  0  0  0  0  0  0  0  0  0
   22.9881  -19.1144  -12.8438 O   0  0  0  0  0  0  0  0  0  0  0  0
   22.3421  -21.0737  -13.8351 N   0  0  0  0  0  0  0  0  0  0  0  0
   21.0171  -20.6541  -14.1608 C   0  0  0  0  0  0  0  0  0  0  0  0
   19.9765  -20.8064  -13.1647 C   0  0  0  0  0  0  0  0  0  0  0  0
   20.1128  -21.3707  -12.0749 O   0  0  0  0  0  0  0  0  0  0  0  0
   18.7097  -20.2749  -13.4493 O   0  0  0  0  0  0  0  0  0  0  0  0
  2  1  1  1
  3  2  1  0
  4  5  1  6
  4  2  1  0
  6  4  1  0
  6  7  2  0
  9  8  1  0
  9 10  1  0
 10 11  1  0
 12 11  1  1
 12 13  1  0
 12 14  1  0
 13  6  1  0
 14 16  1  0
 14 15  2  0
 16 17  1  0
 18 17  1  0
 18 20  1  0
 19 18  2  0
M  END
$$$$
