TMG.pdb
     RDKit          3D

 20 19  0  0  1  0  0  0  0  0999 V2000
   26.3259  -18.2524  -15.8194 C   0  0  0  0  0  0  0  0  0  0  0  0
   26.9940  -19.3593  -16.6203 C   0  0  1  0  0  0  0  0  0  0  0  0
   27.7350  -18.7735  -17.6142 O   0  0  0  0  0  0  0  0  0  0  0  0
   27.8249  -20.1592  -15.6486 C   0  0  2  0  0  0  0  0  0  0  0  0
   28.5567  -21.1655  -16.3814 N   0  0  0  0  0  0  0  0  0  0  0  0
   26.9740  -20.8253  -14.6138 C   0  0  0  0  0  0  0  0  0  0  0  0
   26.4401  -21.9412  -14.8295 O   0  0  0  0  0  0  0  0  0  0  0  0
   24.4943  -21.2821   -7.0642 C   0  0  0  0  0  0  0  0  0  0  0  0
   25.7373  -20.5431   -8.1915 S   0  0  0  0  0  0  0  0  0  0  0  0
   25.2911  -20.9911   -9.8694 C   0  0  0  0  0  0  0  0  0  0  0  0
   26.2462  -20.5176  -10.9250 C   0  0  0  0  0  0  0  0  0  0  0  0
   25.9082  -20.7919  -12.3149 C   0  0  2  0  0  0  0  0  0  0  0  0
   26.7274  -20.2382  -13.3472 N   0  0  0  0  0  0  0  0  0  0  0  0
   24.4815  -20.6455  -12.6321 C   0  0  0  0  0  0  0  0  0  0  0  0
   23.9659  -19.5280  -12.9003 O   0  0  0  0  0  0  0  0  0  0  0  0
   23.5843  -21.7703  -12.6448 N   0  0  0  0  0  0  0  0  0  0  0  0
   22.2693  -21.7858  -13.2003 C   0  0  0  0  0  0  0  0  0  0  0  0
   21.2315  -21.0136  -12.5483 C   0  0  0  0  0  0  0  0  0  0  0  0
   20.4259  -21.4581  -11.7250 O   0  0  0  0  0  0  0  0  0  0  0  0
   21.1235  -19.6523  -12.8697 O   0  0  0  0  0  0  0  0  0  0  0  0
  2  1  1  1
  3  2  1  0
  4  5  1  6
  4  2  1  0
  6  4  1  0
  6  7  2  0
  9  8  1  0
  9 10  1  0
 10 11  1  0
 12 11  1  1
 12 13  1  0
 12 14  1  0
 13  6  1  0
 14 16  1  0
 14 15  2  0
 16 17  1  0
 18 17  1  0
 18 20  1  0
 19 18  2  0
M  END
$$$$
