TMG.pdb
     RDKit          3D

 20 19  0  0  1  0  0  0  0  0999 V2000
   28.3241  -18.4850  -15.6003 C   0  0  0  0  0  0  0  0  0  0  0  0
   27.0632  -18.9764  -14.9064 C   0  0  1  0  0  0  0  0  0  0  0  0
   26.0592  -19.0250  -15.8390 O   0  0  0  0  0  0  0  0  0  0  0  0
   27.3904  -20.3225  -14.3104 C   0  0  2  0  0  0  0  0  0  0  0  0
   27.6118  -21.2640  -15.3826 N   0  0  0  0  0  0  0  0  0  0  0  0
   26.2832  -20.8225  -13.4371 C   0  0  0  0  0  0  0  0  0  0  0  0
   25.4925  -21.7136  -13.8340 O   0  0  0  0  0  0  0  0  0  0  0  0
   26.2159  -19.0001   -7.4471 C   0  0  0  0  0  0  0  0  0  0  0  0
   27.0555  -20.5941   -7.7882 S   0  0  0  0  0  0  0  0  0  0  0  0
   26.2043  -21.3806   -9.1563 C   0  0  0  0  0  0  0  0  0  0  0  0
   25.1624  -20.5323   -9.8238 C   0  0  0  0  0  0  0  0  0  0  0  0
   24.9899  -20.6802  -11.2625 C   0  0  2  0  0  0  0  0  0  0  0  0
   26.0698  -20.3223  -12.1279 N   0  0  0  0  0  0  0  0  0  0  0  0
   23.7087  -20.1765  -11.7744 C   0  0  0  0  0  0  0  0  0  0  0  0
   23.6174  -19.0827  -12.3924 O   0  0  0  0  0  0  0  0  0  0  0  0
   22.4777  -20.8986  -11.5908 N   0  0  0  0  0  0  0  0  0  0  0  0
   21.2106  -20.5476  -12.1466 C   0  0  0  0  0  0  0  0  0  0  0  0
   20.0662  -21.3843  -11.8482 C   0  0  0  0  0  0  0  0  0  0  0  0
   20.1076  -22.4490  -11.2243 O   0  0  0  0  0  0  0  0  0  0  0  0
   18.8065  -20.9620  -12.2987 O   0  0  0  0  0  0  0  0  0  0  0  0
  2  1  1  6
  3  2  1  0
  4  5  1  6
  4  2  1  0
  6  4  1  0
  6  7  2  0
  9  8  1  0
  9 10  1  0
 10 11  1  0
 12 11  1  1
 12 13  1  0
 12 14  1  0
 13  6  1  0
 14 16  1  0
 14 15  2  0
 16 17  1  0
 18 17  1  0
 18 20  1  0
 19 18  2  0
M  END
$$$$
