TMG.pdb
     RDKit          3D

 20 19  0  0  1  0  0  0  0  0999 V2000
   19.5033   -9.7705  -17.8472 C   0  0  0  0  0  0  0  0  0  0  0  0
   19.1666  -11.0240  -17.0544 C   0  0  1  0  0  0  0  0  0  0  0  0
   18.3237  -11.7919  -17.8159 O   0  0  0  0  0  0  0  0  0  0  0  0
   20.4748  -11.7053  -16.7403 C   0  0  2  0  0  0  0  0  0  0  0  0
   20.1987  -12.9634  -16.0878 N   0  0  0  0  0  0  0  0  0  0  0  0
   21.3331  -10.8657  -15.8475 C   0  0  0  0  0  0  0  0  0  0  0  0
   21.0096  -10.6426  -14.6549 O   0  0  0  0  0  0  0  0  0  0  0  0
   27.7512  -12.6438  -15.1779 C   0  0  0  0  0  0  0  0  0  0  0  0
   27.1977  -10.9680  -15.6752 S   0  0  0  0  0  0  0  0  0  0  0  0
   25.4284  -10.8709  -15.4012 C   0  0  0  0  0  0  0  0  0  0  0  0
   24.8227   -9.5220  -15.6549 C   0  0  0  0  0  0  0  0  0  0  0  0
   23.3760   -9.3980  -15.5409 C   0  0  2  0  0  0  0  0  0  0  0  0
   22.5453  -10.2831  -16.2957 N   0  0  0  0  0  0  0  0  0  0  0  0
   22.8789   -8.0174  -15.6056 C   0  0  0  0  0  0  0  0  0  0  0  0
   22.6290   -7.4457  -16.6999 O   0  0  0  0  0  0  0  0  0  0  0  0
   22.6577   -7.2306  -14.4213 N   0  0  0  0  0  0  0  0  0  0  0  0
   21.9991   -5.9653  -14.3680 C   0  0  0  0  0  0  0  0  0  0  0  0
   22.6773   -4.8065  -14.9119 C   0  0  0  0  0  0  0  0  0  0  0  0
   22.2755   -3.6422  -14.8254 O   0  0  0  0  0  0  0  0  0  0  0  0
   23.8868   -5.0108  -15.5928 O   0  0  0  0  0  0  0  0  0  0  0  0
  2  1  1  6
  3  2  1  0
  4  5  1  1
  4  2  1  0
  6  4  1  0
  6  7  2  0
  9  8  1  0
  9 10  1  0
 10 11  1  0
 12 11  1  6
 12 13  1  0
 12 14  1  0
 13  6  1  0
 14 16  1  0
 14 15  2  0
 16 17  1  0
 18 17  1  0
 18 20  1  0
 19 18  2  0
M  END
$$$$
