TMG.pdb
     RDKit          3D

 20 19  0  0  1  0  0  0  0  0999 V2000
   19.0713   -8.4917  -19.2789 C   0  0  0  0  0  0  0  0  0  0  0  0
   18.1941   -9.7136  -19.0539 C   0  0  1  0  0  0  0  0  0  0  0  0
   17.5962  -10.0300  -20.2465 O   0  0  0  0  0  0  0  0  0  0  0  0
   19.0932  -10.8045  -18.5287 C   0  0  2  0  0  0  0  0  0  0  0  0
   18.3176  -12.0128  -18.3758 N   0  0  0  0  0  0  0  0  0  0  0  0
   19.6949  -10.4356  -17.2094 C   0  0  0  0  0  0  0  0  0  0  0  0
   19.0307  -10.5124  -16.1465 O   0  0  0  0  0  0  0  0  0  0  0  0
   24.5000  -14.2156  -15.4511 C   0  0  0  0  0  0  0  0  0  0  0  0
   24.5950  -12.4058  -15.1721 S   0  0  0  0  0  0  0  0  0  0  0  0
   22.9918  -11.7054  -15.5648 C   0  0  0  0  0  0  0  0  0  0  0  0
   22.9202  -10.2088  -15.4880 C   0  0  0  0  0  0  0  0  0  0  0  0
   21.6707   -9.5707  -15.8791 C   0  0  2  0  0  0  0  0  0  0  0  0
   21.0335   -9.9842  -17.0900 N   0  0  0  0  0  0  0  0  0  0  0  0
   21.6714   -8.1074  -15.7513 C   0  0  0  0  0  0  0  0  0  0  0  0
   22.2302   -7.3610  -16.5982 O   0  0  0  0  0  0  0  0  0  0  0  0
   21.0418   -7.4388  -14.6436 N   0  0  0  0  0  0  0  0  0  0  0  0
   20.9958   -6.0275  -14.4344 C   0  0  0  0  0  0  0  0  0  0  0  0
   22.1099   -5.3886  -13.7643 C   0  0  0  0  0  0  0  0  0  0  0  0
   22.1928   -4.1819  -13.5160 O   0  0  0  0  0  0  0  0  0  0  0  0
   23.1854   -6.1941  -13.3610 O   0  0  0  0  0  0  0  0  0  0  0  0
  2  1  1  6
  3  2  1  0
  4  5  1  1
  4  2  1  0
  6  4  1  0
  6  7  2  0
  9  8  1  0
  9 10  1  0
 10 11  1  0
 12 11  1  6
 12 13  1  0
 12 14  1  0
 13  6  1  0
 14 16  1  0
 14 15  2  0
 16 17  1  0
 18 17  1  0
 18 20  1  0
 19 18  2  0
M  END
$$$$
