WDI.pdb
     RDKit          3D

 31 32  0  0  1  0  0  0  0  0999 V2000
   27.0003  -20.8112  -15.1423 N   0  0  0  0  0  0  0  0  0  0  0  0
   26.3649  -21.4142  -13.9787 C   0  0  1  0  0  0  0  0  0  0  0  0
   26.5119  -20.4693  -12.7998 C   0  0  0  0  0  0  0  0  0  0  0  0
   27.9050  -20.1986  -12.4593 C   0  0  0  0  0  0  0  0  0  0  0  0
   28.6855  -19.2072  -13.0156 C   0  0  0  0  0  0  0  0  0  0  0  0
   29.8989  -19.2680  -12.4558 N   0  0  0  0  0  0  0  0  0  0  0  0
   29.9668  -20.2701  -11.5360 C   0  0  0  0  0  0  0  0  0  0  0  0
   30.9766  -20.7208  -10.7156 C   0  0  0  0  0  0  0  0  0  0  0  0
   30.7296  -21.7886   -9.8703 C   0  0  0  0  0  0  0  0  0  0  0  0
   29.4658  -22.3718   -9.8770 C   0  0  0  0  0  0  0  0  0  0  0  0
   28.4659  -21.9158  -10.6982 C   0  0  0  0  0  0  0  0  0  0  0  0
   28.6975  -20.8471  -11.5523 C   0  0  0  0  0  0  0  0  0  0  0  0
   24.8880  -21.4465  -14.2942 C   0  0  0  0  0  0  0  0  0  0  0  0
   24.3089  -20.3415  -14.5390 O   0  0  0  0  0  0  0  0  0  0  0  0
   24.1579  -22.6695  -14.3215 N   0  0  0  0  0  0  0  0  0  0  0  0
   22.7379  -22.6185  -14.5699 C   0  0  1  0  0  0  0  0  0  0  0  0
   22.3207  -24.0197  -15.0635 C   0  0  0  0  0  0  0  0  0  0  0  0
   21.8995  -23.8570  -16.4764 C   0  0  0  0  0  0  0  0  0  0  0  0
   21.8495  -22.7107  -17.0163 O   0  0  0  0  0  0  0  0  0  0  0  0
   21.9673  -22.2718  -13.3558 C   0  0  0  0  0  0  0  0  0  0  0  0
   22.3433  -22.7445  -12.2567 O   0  0  0  0  0  0  0  0  0  0  0  0
   21.5542  -24.9873  -17.2083 O   0  0  0  0  0  0  0  0  0  0  0  0
   20.7128  -17.3304  -12.3841 C   0  0  0  0  0  0  0  0  0  0  0  0
   20.9262  -18.8044  -12.2935 C   0  0  0  0  0  0  0  0  0  0  0  0
   19.6478  -19.6088  -12.2509 C   0  0  2  0  0  0  0  0  0  0  0  0
   18.9263  -19.2277  -10.9798 C   0  0  0  0  0  0  0  0  0  0  0  0
   20.0363  -21.0897  -12.2069 C   0  0  2  0  0  0  0  0  0  0  0  0
   20.8300  -21.4345  -13.3721 N   0  0  0  0  0  0  0  0  0  0  0  0
   18.7833  -21.8793  -12.2924 C   0  0  0  0  0  0  0  0  0  0  0  0
   18.1809  -22.4462  -11.1845 O   0  0  0  0  0  0  0  0  0  0  0  0
   18.2525  -22.0379  -13.4129 O   0  0  0  0  0  0  0  0  0  0  0  0
  2  1  1  6
  2  3  1  0
  2 13  1  0
  3  4  1  0
  4  5  2  0
  5  6  1  0
  7  6  1  0
  8  7  2  0
  9  8  1  0
 10 11  1  0
 10  9  2  0
 11 12  2  0
 12  4  1  0
 12  7  1  0
 13 15  1  0
 13 14  2  0
 15 16  1  0
 16 17  1  1
 17 18  1  0
 18 19  2  0
 18 22  1  0
 20 21  2  0
 20 16  1  0
 23 24  1  0
 24 25  1  0
 25 27  1  0
 25 26  1  1
 27 28  1  6
 28 20  1  0
 29 30  1  0
 29 27  1  0
 31 29  2  0
M  END
$$$$
