WDI.pdb
     RDKit          3D

 31 32  0  0  1  0  0  0  0  0999 V2000
   28.4508  -21.2189  -15.6286 N   0  0  0  0  0  0  0  0  0  0  0  0
   27.5763  -21.4793  -14.4934 C   0  0  1  0  0  0  0  0  0  0  0  0
   27.5232  -20.2357  -13.6247 C   0  0  0  0  0  0  0  0  0  0  0  0
   28.7857  -19.9636  -12.9448 C   0  0  0  0  0  0  0  0  0  0  0  0
   29.5634  -18.8390  -13.1234 C   0  0  0  0  0  0  0  0  0  0  0  0
   30.6382  -18.9453  -12.3342 N   0  0  0  0  0  0  0  0  0  0  0  0
   30.6145  -20.1076  -11.6246 C   0  0  0  0  0  0  0  0  0  0  0  0
   31.4757  -20.6591  -10.7026 C   0  0  0  0  0  0  0  0  0  0  0  0
   31.1667  -21.8877  -10.1451 C   0  0  0  0  0  0  0  0  0  0  0  0
   29.9929  -22.5257  -10.5353 C   0  0  0  0  0  0  0  0  0  0  0  0
   29.1409  -21.9684  -11.4550 C   0  0  0  0  0  0  0  0  0  0  0  0
   29.4366  -20.7379  -12.0239 C   0  0  0  0  0  0  0  0  0  0  0  0
   26.1905  -21.6303  -15.0752 C   0  0  0  0  0  0  0  0  0  0  0  0
   25.7470  -20.6882  -15.8046 O   0  0  0  0  0  0  0  0  0  0  0  0
   25.3979  -22.7870  -14.8234 N   0  0  0  0  0  0  0  0  0  0  0  0
   24.0300  -22.7976  -15.2808 C   0  0  1  0  0  0  0  0  0  0  0  0
   23.4888  -24.2219  -15.0367 C   0  0  0  0  0  0  0  0  0  0  0  0
   24.2885  -25.1264  -15.8985 C   0  0  0  0  0  0  0  0  0  0  0  0
   24.9159  -26.1128  -15.4072 O   0  0  0  0  0  0  0  0  0  0  0  0
   23.1886  -21.8181  -14.5591 C   0  0  0  0  0  0  0  0  0  0  0  0
   23.3668  -21.6746  -13.3260 O   0  0  0  0  0  0  0  0  0  0  0  0
   24.3446  -24.8758  -17.2647 O   0  0  0  0  0  0  0  0  0  0  0  0
   22.8884  -16.9606  -16.0200 C   0  0  0  0  0  0  0  0  0  0  0  0
   22.7050  -18.1971  -15.2053 C   0  0  0  0  0  0  0  0  0  0  0  0
   21.3027  -18.7584  -15.2476 C   0  0  2  0  0  0  0  0  0  0  0  0
   20.4115  -17.7803  -14.5191 C   0  0  0  0  0  0  0  0  0  0  0  0
   21.3206  -20.0995  -14.5080 C   0  0  2  0  0  0  0  0  0  0  0  0
   22.1957  -21.0359  -15.1890 N   0  0  0  0  0  0  0  0  0  0  0  0
   19.9502  -20.6632  -14.5793 C   0  0  0  0  0  0  0  0  0  0  0  0
   19.0486  -20.5686  -13.5354 O   0  0  0  0  0  0  0  0  0  0  0  0
   19.5986  -21.2477  -15.6269 O   0  0  0  0  0  0  0  0  0  0  0  0
  2  1  1  6
  2  3  1  0
  2 13  1  0
  3  4  1  0
  4  5  2  0
  5  6  1  0
  7  6  1  0
  8  7  2  0
  9  8  1  0
 10 11  1  0
 10  9  2  0
 11 12  2  0
 12  4  1  0
 12  7  1  0
 13 15  1  0
 13 14  2  0
 15 16  1  0
 16 17  1  1
 17 18  1  0
 18 19  2  0
 18 22  1  0
 20 21  2  0
 20 16  1  0
 23 24  1  0
 24 25  1  0
 25 27  1  0
 25 26  1  1
 27 28  1  6
 28 20  1  0
 29 30  1  0
 29 27  1  0
 31 29  2  0
M  END
$$$$
