WDI.pdb
     RDKit          3D

 31 32  0  0  1  0  0  0  0  0999 V2000
   28.9938  -21.4446  -10.5810 N   0  0  0  0  0  0  0  0  0  0  0  0
   27.6716  -21.3376   -9.9798 C   0  0  1  0  0  0  0  0  0  0  0  0
   27.6569  -20.1407   -9.0463 C   0  0  0  0  0  0  0  0  0  0  0  0
   28.5385  -20.3076   -7.8952 C   0  0  0  0  0  0  0  0  0  0  0  0
   29.7388  -20.9863   -7.8996 C   0  0  0  0  0  0  0  0  0  0  0  0
   30.2571  -20.9255   -6.6679 N   0  0  0  0  0  0  0  0  0  0  0  0
   29.4459  -20.2261   -5.8268 C   0  0  0  0  0  0  0  0  0  0  0  0
   29.5404  -19.8979   -4.4929 C   0  0  0  0  0  0  0  0  0  0  0  0
   28.5261  -19.1590   -3.9089 C   0  0  0  0  0  0  0  0  0  0  0  0
   27.4425  -18.7708   -4.6914 C   0  0  0  0  0  0  0  0  0  0  0  0
   27.3569  -19.1027   -6.0198 C   0  0  0  0  0  0  0  0  0  0  0  0
   28.3647  -19.8438   -6.6201 C   0  0  0  0  0  0  0  0  0  0  0  0
   26.7382  -20.9827  -11.1133 C   0  0  0  0  0  0  0  0  0  0  0  0
   27.1679  -20.1911  -12.0104 O   0  0  0  0  0  0  0  0  0  0  0  0
   25.4181  -21.5131  -11.1861 N   0  0  0  0  0  0  0  0  0  0  0  0
   24.6142  -21.2034  -12.3430 C   0  0  1  0  0  0  0  0  0  0  0  0
   24.6368  -22.4521  -13.2493 C   0  0  0  0  0  0  0  0  0  0  0  0
   23.9448  -22.0704  -14.5045 C   0  0  0  0  0  0  0  0  0  0  0  0
   22.9284  -22.7100  -14.9119 O   0  0  0  0  0  0  0  0  0  0  0  0
   23.2166  -20.8770  -11.9851 C   0  0  0  0  0  0  0  0  0  0  0  0
   22.7804  -21.2642  -10.8748 O   0  0  0  0  0  0  0  0  0  0  0  0
   24.4302  -20.9938  -15.2379 O   0  0  0  0  0  0  0  0  0  0  0  0
   18.7214  -17.1758  -13.7401 C   0  0  0  0  0  0  0  0  0  0  0  0
   19.6058  -17.6062  -12.6181 C   0  0  0  0  0  0  0  0  0  0  0  0
   20.9362  -18.1663  -13.0646 C   0  0  2  0  0  0  0  0  0  0  0  0
   20.8738  -18.3130  -14.5667 C   0  0  0  0  0  0  0  0  0  0  0  0
   21.0994  -19.5423  -12.4120 C   0  0  2  0  0  0  0  0  0  0  0  0
   22.3492  -20.1504  -12.8302 N   0  0  0  0  0  0  0  0  0  0  0  0
   20.0087  -20.4078  -12.9239 C   0  0  0  0  0  0  0  0  0  0  0  0
   18.7887  -20.5284  -12.2847 O   0  0  0  0  0  0  0  0  0  0  0  0
   20.2030  -21.0540  -13.9762 O   0  0  0  0  0  0  0  0  0  0  0  0
  2  1  1  6
  2  3  1  0
  2 13  1  0
  3  4  1  0
  4  5  2  0
  5  6  1  0
  7  6  1  0
  8  7  2  0
  9  8  1  0
 10 11  1  0
 10  9  2  0
 11 12  2  0
 12  4  1  0
 12  7  1  0
 13 15  1  0
 13 14  2  0
 15 16  1  0
 16 17  1  6
 17 18  1  0
 18 19  2  0
 18 22  1  0
 20 21  2  0
 20 16  1  0
 23 24  1  0
 24 25  1  0
 25 27  1  0
 25 26  1  6
 27 28  1  6
 28 20  1  0
 29 30  1  0
 29 27  1  0
 31 29  2  0
M  END
$$$$
