WDI.pdb
     RDKit          3D

 31 32  0  0  1  0  0  0  0  0999 V2000
   17.6364  -10.0232  -20.1393 N   0  0  0  0  0  0  0  0  0  0  0  0
   19.0093   -9.7298  -19.7516 C   0  0  1  0  0  0  0  0  0  0  0  0
   19.4801   -8.5062  -20.5167 C   0  0  0  0  0  0  0  0  0  0  0  0
   19.9915   -8.8291  -21.8449 C   0  0  0  0  0  0  0  0  0  0  0  0
   19.2360   -9.2921  -22.9014 C   0  0  0  0  0  0  0  0  0  0  0  0
   20.0492   -9.4742  -23.9478 N   0  0  0  0  0  0  0  0  0  0  0  0
   21.3341   -9.1489  -23.6348 C   0  0  0  0  0  0  0  0  0  0  0  0
   22.5066   -9.1672  -24.3565 C   0  0  0  0  0  0  0  0  0  0  0  0
   23.6807   -8.7686  -23.7413 C   0  0  0  0  0  0  0  0  0  0  0  0
   23.6367   -8.3609  -22.4112 C   0  0  0  0  0  0  0  0  0  0  0  0
   22.4636   -8.3462  -21.7001 C   0  0  0  0  0  0  0  0  0  0  0  0
   21.2781   -8.7437  -22.3018 C   0  0  0  0  0  0  0  0  0  0  0  0
   18.9398   -9.3041  -18.3039 C   0  0  0  0  0  0  0  0  0  0  0  0
   18.0301   -8.4812  -17.9701 O   0  0  0  0  0  0  0  0  0  0  0  0
   19.8569   -9.8035  -17.3349 N   0  0  0  0  0  0  0  0  0  0  0  0
   19.7959   -9.2773  -15.9933 C   0  0  1  0  0  0  0  0  0  0  0  0
   20.0434  -10.4630  -15.0372 C   0  0  0  0  0  0  0  0  0  0  0  0
   18.8487  -11.3364  -15.1363 C   0  0  0  0  0  0  0  0  0  0  0  0
   17.7392  -10.9872  -14.6310 O   0  0  0  0  0  0  0  0  0  0  0  0
   20.8113   -8.2285  -15.7543 C   0  0  0  0  0  0  0  0  0  0  0  0
   21.8472   -8.2306  -16.4614 O   0  0  0  0  0  0  0  0  0  0  0  0
   18.9614  -12.5559  -15.7939 O   0  0  0  0  0  0  0  0  0  0  0  0
   21.7384   -2.4541  -15.6008 C   0  0  0  0  0  0  0  0  0  0  0  0
   22.0385   -3.7382  -14.9026 C   0  0  0  0  0  0  0  0  0  0  0  0
   21.0712   -4.8534  -15.2250 C   0  0  2  0  0  0  0  0  0  0  0  0
   19.7407   -4.4755  -14.6179 C   0  0  0  0  0  0  0  0  0  0  0  0
   21.6026   -6.1295  -14.5653 C   0  0  2  0  0  0  0  0  0  0  0  0
   20.6725   -7.2246  -14.7707 N   0  0  0  0  0  0  0  0  0  0  0  0
   21.6584   -5.8825  -13.1036 C   0  0  0  0  0  0  0  0  0  0  0  0
   22.6882   -5.1818  -12.5035 O   0  0  0  0  0  0  0  0  0  0  0  0
   20.7359   -6.3275  -12.3870 O   0  0  0  0  0  0  0  0  0  0  0  0
  2  1  1  6
  2  3  1  0
  2 13  1  0
  3  4  1  0
  4  5  2  0
  5  6  1  0
  7  6  1  0
  8  7  2  0
  9  8  1  0
 10 11  1  0
 10  9  2  0
 11 12  2  0
 12  4  1  0
 12  7  1  0
 13 15  1  0
 13 14  2  0
 15 16  1  0
 16 17  1  1
 17 18  1  0
 18 19  2  0
 18 22  1  0
 20 21  2  0
 20 16  1  0
 23 24  1  0
 24 25  1  0
 25 27  1  0
 25 26  1  1
 27 28  1  1
 28 20  1  0
 29 30  1  0
 29 27  1  0
 31 29  2  0
M  END
$$$$
