WDI.pdb
     RDKit          3D

 31 32  0  0  1  0  0  0  0  0999 V2000
   27.6006  -21.0832  -15.0574 N   0  0  0  0  0  0  0  0  0  0  0  0
   27.0092  -21.6017  -13.8316 C   0  0  1  0  0  0  0  0  0  0  0  0
   27.1559  -20.5566  -12.7406 C   0  0  0  0  0  0  0  0  0  0  0  0
   28.5486  -20.2805  -12.4024 C   0  0  0  0  0  0  0  0  0  0  0  0
   29.2920  -19.2216  -12.8794 C   0  0  0  0  0  0  0  0  0  0  0  0
   30.5180  -19.3004  -12.3500 N   0  0  0  0  0  0  0  0  0  0  0  0
   30.6303  -20.3803  -11.5278 C   0  0  0  0  0  0  0  0  0  0  0  0
   31.6680  -20.8768  -10.7711 C   0  0  0  0  0  0  0  0  0  0  0  0
   31.4658  -22.0238  -10.0233 C   0  0  0  0  0  0  0  0  0  0  0  0
   30.2174  -22.6379  -10.0605 C   0  0  0  0  0  0  0  0  0  0  0  0
   29.1893  -22.1360  -10.8176 C   0  0  0  0  0  0  0  0  0  0  0  0
   29.3759  -20.9876  -11.5737 C   0  0  0  0  0  0  0  0  0  0  0  0
   25.5270  -21.6997  -14.1062 C   0  0  0  0  0  0  0  0  0  0  0  0
   24.9756  -20.7435  -14.7370 O   0  0  0  0  0  0  0  0  0  0  0  0
   24.7621  -22.8231  -13.6790 N   0  0  0  0  0  0  0  0  0  0  0  0
   23.3818  -22.9123  -14.0881 C   0  0  1  0  0  0  0  0  0  0  0  0
   23.0025  -24.4077  -14.0556 C   0  0  0  0  0  0  0  0  0  0  0  0
   23.6674  -25.0332  -15.2246 C   0  0  0  0  0  0  0  0  0  0  0  0
   23.4805  -24.5903  -16.3981 O   0  0  0  0  0  0  0  0  0  0  0  0
   22.4805  -22.1535  -13.1937 C   0  0  0  0  0  0  0  0  0  0  0  0
   22.6221  -22.2853  -11.9545 O   0  0  0  0  0  0  0  0  0  0  0  0
   24.5043  -26.1236  -15.0168 O   0  0  0  0  0  0  0  0  0  0  0  0
   21.3744  -17.1156  -14.1812 C   0  0  0  0  0  0  0  0  0  0  0  0
   21.4960  -18.4351  -13.4952 C   0  0  0  0  0  0  0  0  0  0  0  0
   20.2008  -19.2095  -13.4188 C   0  0  2  0  0  0  0  0  0  0  0  0
   19.2824  -18.4471  -12.4931 C   0  0  0  0  0  0  0  0  0  0  0  0
   20.5200  -20.5837  -12.8224 C   0  0  2  0  0  0  0  0  0  0  0  0
   21.4692  -21.2876  -13.6650 N   0  0  0  0  0  0  0  0  0  0  0  0
   19.2652  -21.3749  -12.8360 C   0  0  0  0  0  0  0  0  0  0  0  0
   18.9370  -22.2367  -13.8662 O   0  0  0  0  0  0  0  0  0  0  0  0
   18.4734  -21.2557  -11.8762 O   0  0  0  0  0  0  0  0  0  0  0  0
  2  1  1  6
  2  3  1  0
  2 13  1  0
  3  4  1  0
  4  5  2  0
  5  6  1  0
  7  6  1  0
  8  7  2  0
  9  8  1  0
 10 11  1  0
 10  9  2  0
 11 12  2  0
 12  4  1  0
 12  7  1  0
 13 15  1  0
 13 14  2  0
 15 16  1  0
 16 17  1  1
 17 18  1  0
 18 19  2  0
 18 22  1  0
 20 21  2  0
 20 16  1  0
 23 24  1  0
 24 25  1  0
 25 27  1  0
 25 26  1  1
 27 28  1  6
 28 20  1  0
 29 30  1  0
 29 27  1  0
 31 29  2  0
M  END
$$$$
