WDI.pdb
     RDKit          3D

 31 32  0  0  1  0  0  0  0  0999 V2000
   27.4349  -18.9616   -9.9204 N   0  0  0  0  0  0  0  0  0  0  0  0
   27.2368  -20.3919  -10.1103 C   0  0  1  0  0  0  0  0  0  0  0  0
   26.5227  -20.9502   -8.8926 C   0  0  0  0  0  0  0  0  0  0  0  0
   26.9552  -20.3274   -7.6456 C   0  0  0  0  0  0  0  0  0  0  0  0
   26.2401  -19.3901   -6.9304 C   0  0  0  0  0  0  0  0  0  0  0  0
   26.9548  -19.0550   -5.8504 N   0  0  0  0  0  0  0  0  0  0  0  0
   28.1335  -19.7360   -5.8097 C   0  0  0  0  0  0  0  0  0  0  0  0
   29.1841  -19.7364   -4.9197 C   0  0  0  0  0  0  0  0  0  0  0  0
   30.2697  -20.5602   -5.1617 C   0  0  0  0  0  0  0  0  0  0  0  0
   30.2629  -21.3630   -6.2986 C   0  0  0  0  0  0  0  0  0  0  0  0
   29.2115  -21.3557   -7.1800 C   0  0  0  0  0  0  0  0  0  0  0  0
   28.1161  -20.5350   -6.9524 C   0  0  0  0  0  0  0  0  0  0  0  0
   26.2558  -20.5175  -11.2520 C   0  0  0  0  0  0  0  0  0  0  0  0
   25.2586  -19.7292  -11.2672 O   0  0  0  0  0  0  0  0  0  0  0  0
   26.4330  -21.4826  -12.2848 N   0  0  0  0  0  0  0  0  0  0  0  0
   25.5595  -21.4325  -13.4316 C   0  0  1  0  0  0  0  0  0  0  0  0
   26.2526  -22.2309  -14.5556 C   0  0  0  0  0  0  0  0  0  0  0  0
   27.3869  -21.3970  -15.0225 C   0  0  0  0  0  0  0  0  0  0  0  0
   27.2124  -20.1895  -15.3683 O   0  0  0  0  0  0  0  0  0  0  0  0
   24.2316  -22.0215  -13.1526 C   0  0  0  0  0  0  0  0  0  0  0  0
   24.1749  -23.0494  -12.4362 O   0  0  0  0  0  0  0  0  0  0  0  0
   28.6560  -21.9614  -15.0798 O   0  0  0  0  0  0  0  0  0  0  0  0
   19.8361  -21.8077  -10.4688 C   0  0  0  0  0  0  0  0  0  0  0  0
   19.9214  -20.8862  -11.6394 C   0  0  0  0  0  0  0  0  0  0  0  0
   21.3324  -20.6195  -12.1097 C   0  0  2  0  0  0  0  0  0  0  0  0
   21.3176  -19.2887  -12.8241 C   0  0  0  0  0  0  0  0  0  0  0  0
   21.7098  -21.7342  -13.0900 C   0  0  2  0  0  0  0  0  0  0  0  0
   23.0247  -21.4841  -13.6514 N   0  0  0  0  0  0  0  0  0  0  0  0
   20.7452  -21.6797  -14.2157 C   0  0  0  0  0  0  0  0  0  0  0  0
   19.5550  -22.3833  -14.2139 O   0  0  0  0  0  0  0  0  0  0  0  0
   21.0221  -20.9685  -15.2057 O   0  0  0  0  0  0  0  0  0  0  0  0
  2  1  1  1
  2  3  1  0
  2 13  1  0
  3  4  1  0
  4  5  2  0
  5  6  1  0
  7  6  1  0
  8  7  2  0
  9  8  1  0
 10 11  1  0
 10  9  2  0
 11 12  2  0
 12  4  1  0
 12  7  1  0
 13 15  1  0
 13 14  2  0
 15 16  1  0
 16 17  1  6
 17 18  1  0
 18 19  2  0
 18 22  1  0
 20 21  2  0
 20 16  1  0
 23 24  1  0
 24 25  1  0
 25 27  1  0
 25 26  1  6
 27 28  1  6
 28 20  1  0
 29 30  1  0
 29 27  1  0
 31 29  2  0
M  END
$$$$
