WDI.pdb
     RDKit          3D

 31 32  0  0  1  0  0  0  0  0999 V2000
   14.4717  -14.9218  -18.7091 N   0  0  0  0  0  0  0  0  0  0  0  0
   15.5493  -14.0529  -19.1618 C   0  0  1  0  0  0  0  0  0  0  0  0
   15.0416  -13.2099  -20.3175 C   0  0  0  0  0  0  0  0  0  0  0  0
   14.9314  -13.9620  -21.5634 C   0  0  0  0  0  0  0  0  0  0  0  0
   13.7994  -14.6127  -22.0067 C   0  0  0  0  0  0  0  0  0  0  0  0
   14.0813  -15.1871  -23.1814 N   0  0  0  0  0  0  0  0  0  0  0  0
   15.3700  -14.9464  -23.5501 C   0  0  0  0  0  0  0  0  0  0  0  0
   16.1141  -15.3160  -24.6482 C   0  0  0  0  0  0  0  0  0  0  0  0
   17.4329  -14.9051  -24.7356 C   0  0  0  0  0  0  0  0  0  0  0  0
   17.9638  -14.1296  -23.7090 C   0  0  0  0  0  0  0  0  0  0  0  0
   17.2147  -13.7664  -22.6186 C   0  0  0  0  0  0  0  0  0  0  0  0
   15.8915  -14.1709  -22.5152 C   0  0  0  0  0  0  0  0  0  0  0  0
   15.7939  -13.0855  -18.0276 C   0  0  0  0  0  0  0  0  0  0  0  0
   14.8142  -12.3822  -17.6255 O   0  0  0  0  0  0  0  0  0  0  0  0
   17.0758  -12.9584  -17.4193 N   0  0  0  0  0  0  0  0  0  0  0  0
   17.2330  -12.0221  -16.3334 C   0  0  1  0  0  0  0  0  0  0  0  0
   18.2770  -12.6263  -15.3709 C   0  0  0  0  0  0  0  0  0  0  0  0
   17.6391  -13.8154  -14.7552 C   0  0  0  0  0  0  0  0  0  0  0  0
   16.4096  -13.8112  -14.4447 O   0  0  0  0  0  0  0  0  0  0  0  0
   17.6966  -10.6962  -16.7973 C   0  0  0  0  0  0  0  0  0  0  0  0
   18.5353  -10.6512  -17.7288 O   0  0  0  0  0  0  0  0  0  0  0  0
   18.4135  -14.9451  -14.5176 O   0  0  0  0  0  0  0  0  0  0  0  0
   14.7271   -7.3094  -19.0155 C   0  0  0  0  0  0  0  0  0  0  0  0
   15.9796   -7.9217  -18.4836 C   0  0  0  0  0  0  0  0  0  0  0  0
   16.4208   -7.3596  -17.1522 C   0  0  2  0  0  0  0  0  0  0  0  0
   16.8059   -5.9177  -17.3853 C   0  0  0  0  0  0  0  0  0  0  0  0
   17.6449   -8.1599  -16.6969 C   0  0  2  0  0  0  0  0  0  0  0  0
   17.2417   -9.4788  -16.2448 N   0  0  0  0  0  0  0  0  0  0  0  0
   18.2195   -7.4605  -15.5217 C   0  0  0  0  0  0  0  0  0  0  0  0
   19.3542   -6.6745  -15.6017 O   0  0  0  0  0  0  0  0  0  0  0  0
   17.6535   -7.5888  -14.4146 O   0  0  0  0  0  0  0  0  0  0  0  0
  2  1  1  1
  2  3  1  0
  2 13  1  0
  3  4  1  0
  4  5  2  0
  5  6  1  0
  7  6  1  0
  8  7  2  0
  9  8  1  0
 10 11  1  0
 10  9  2  0
 11 12  2  0
 12  4  1  0
 12  7  1  0
 13 15  1  0
 13 14  2  0
 15 16  1  0
 16 17  1  1
 17 18  1  0
 18 19  2  0
 18 22  1  0
 20 21  2  0
 20 16  1  0
 23 24  1  0
 24 25  1  0
 25 27  1  0
 25 26  1  6
 27 28  1  1
 28 20  1  0
 29 30  1  0
 29 27  1  0
 31 29  2  0
M  END
$$$$
