DGV.pdb
     RDKit          3D

 20 19  0  0  1  0  0  0  0  0999 V2000
   10.6355  -17.2130   20.1363 N   0  0  0  0  0  0  0  0  0  0  0  0
    9.9454  -16.4930   19.1165 C   0  0  1  0  0  0  0  0  0  0  0  0
    9.5778  -17.3636   17.9321 C   0  0  0  0  0  0  0  0  0  0  0  0
   10.7789  -17.9889   17.3356 C   0  0  0  0  0  0  0  0  0  0  0  0
   11.8636  -17.3587   17.3961 O   0  0  0  0  0  0  0  0  0  0  0  0
    8.7749  -15.7281   19.6138 C   0  0  0  0  0  0  0  0  0  0  0  0
    8.1300  -15.0221   18.7987 O   0  0  0  0  0  0  0  0  0  0  0  0
   10.7499  -19.2269   16.7216 O   0  0  0  0  0  0  0  0  0  0  0  0
    8.3510  -15.7615   20.9823 N   0  0  0  0  0  0  0  0  0  0  0  0
    7.2086  -15.0952   21.4991 C   0  0  0  0  0  0  0  0  0  0  0  0
    7.0006  -15.2082   22.9561 C   0  0  0  0  0  0  0  0  0  0  0  0
    6.0304  -14.6059   23.5359 O   0  0  0  0  0  0  0  0  0  0  0  0
    8.8679  -18.2472   25.4292 C   0  0  0  0  0  0  0  0  0  0  0  0
    7.6921  -17.3602   25.7721 C   0  0  2  0  0  0  0  0  0  0  0  0
    6.4647  -18.0332   25.1919 C   0  0  0  0  0  0  0  0  0  0  0  0
    7.8002  -15.9901   25.2081 C   0  0  2  0  0  0  0  0  0  0  0  0
    7.8544  -15.9721   23.7568 N   0  0  0  0  0  0  0  0  0  0  0  0
    8.9831  -15.3129   25.7980 C   0  0  0  0  0  0  0  0  0  0  0  0
    8.9860  -14.9759   27.1404 O   0  0  0  0  0  0  0  0  0  0  0  0
    9.9969  -15.0271   25.1261 O   0  0  0  0  0  0  0  0  0  0  0  0
  2  1  1  1
  2  3  1  0
  3  4  1  0
  4  5  2  0
  6  9  1  0
  6  2  1  0
  7  6  2  0
  8  4  1  0
 10  9  1  0
 11 12  2  0
 11 10  1  0
 14 13  1  6
 15 14  1  0
 16 14  1  0
 16 17  1  6
 17 11  1  0
 18 16  1  0
 19 18  1  0
 20 18  2  0
M  END
$$$$
