DGV.pdb
     RDKit          3D

 20 19  0  0  1  0  0  0  0  0999 V2000
    9.4514  -18.2374   20.8561 N   0  0  0  0  0  0  0  0  0  0  0  0
    9.3924  -16.9234   20.3041 C   0  0  1  0  0  0  0  0  0  0  0  0
    8.9673  -16.9182   18.8498 C   0  0  0  0  0  0  0  0  0  0  0  0
   10.0645  -17.3800   17.9709 C   0  0  0  0  0  0  0  0  0  0  0  0
   11.2335  -17.3660   18.4300 O   0  0  0  0  0  0  0  0  0  0  0  0
    8.5864  -15.9730   21.1101 C   0  0  0  0  0  0  0  0  0  0  0  0
    8.6054  -14.7561   20.7979 O   0  0  0  0  0  0  0  0  0  0  0  0
    9.8512  -17.8208   16.6783 O   0  0  0  0  0  0  0  0  0  0  0  0
    7.7891  -16.3853   22.2273 N   0  0  0  0  0  0  0  0  0  0  0  0
    7.0233  -15.5160   23.0483 C   0  0  0  0  0  0  0  0  0  0  0  0
    7.7705  -14.7965   24.0984 C   0  0  0  0  0  0  0  0  0  0  0  0
    9.0440  -14.8952   24.1916 O   0  0  0  0  0  0  0  0  0  0  0  0
    5.6063  -12.4472   26.9818 C   0  0  0  0  0  0  0  0  0  0  0  0
    7.0099  -12.0724   26.5620 C   0  0  2  0  0  0  0  0  0  0  0  0
    6.8663  -11.0529   25.4503 C   0  0  0  0  0  0  0  0  0  0  0  0
    7.8042  -13.2226   26.0591 C   0  0  2  0  0  0  0  0  0  0  0  0
    7.1179  -13.9850   25.0307 N   0  0  0  0  0  0  0  0  0  0  0  0
    8.1862  -14.0880   27.2040 C   0  0  0  0  0  0  0  0  0  0  0  0
    7.7737  -15.4087   27.2374 O   0  0  0  0  0  0  0  0  0  0  0  0
    8.8766  -13.6718   28.1586 O   0  0  0  0  0  0  0  0  0  0  0  0
  2  1  1  1
  2  3  1  0
  3  4  1  0
  4  5  2  0
  6  9  1  0
  6  2  1  0
  7  6  2  0
  8  4  1  0
 10  9  1  0
 11 12  2  0
 11 10  1  0
 14 13  1  6
 15 14  1  0
 16 14  1  0
 16 17  1  6
 17 11  1  0
 18 16  1  0
 19 18  1  0
 20 18  2  0
M  END
$$$$
