DGV.pdb
     RDKit          3D

 20 19  0  0  1  0  0  0  0  0999 V2000
    7.5814  -20.7101   24.1428 N   0  0  0  0  0  0  0  0  0  0  0  0
    8.6309  -19.7490   24.0453 C   0  0  1  0  0  0  0  0  0  0  0  0
    9.0615  -19.4958   22.6149 C   0  0  0  0  0  0  0  0  0  0  0  0
    9.3131  -20.7665   21.8998 C   0  0  0  0  0  0  0  0  0  0  0  0
   10.3737  -21.3880   22.1572 O   0  0  0  0  0  0  0  0  0  0  0  0
    8.3467  -18.4802   24.7609 C   0  0  0  0  0  0  0  0  0  0  0  0
    9.2400  -17.5972   24.7932 O   0  0  0  0  0  0  0  0  0  0  0  0
    8.4331  -21.2874   20.9699 O   0  0  0  0  0  0  0  0  0  0  0  0
    7.0982  -18.2214   25.4150 N   0  0  0  0  0  0  0  0  0  0  0  0
    6.7597  -17.0125   26.0784 C   0  0  0  0  0  0  0  0  0  0  0  0
    6.8521  -15.7837   25.2659 C   0  0  0  0  0  0  0  0  0  0  0  0
    7.0376  -15.8384   23.9999 O   0  0  0  0  0  0  0  0  0  0  0  0
    7.5023  -11.7785   26.9677 C   0  0  0  0  0  0  0  0  0  0  0  0
    6.4602  -12.0817   25.9147 C   0  0  2  0  0  0  0  0  0  0  0  0
    5.1625  -12.3315   26.6561 C   0  0  0  0  0  0  0  0  0  0  0  0
    6.7806  -13.2762   25.0917 C   0  0  2  0  0  0  0  0  0  0  0  0
    6.7442  -14.5167   25.8464 N   0  0  0  0  0  0  0  0  0  0  0  0
    8.1026  -13.0805   24.4439 C   0  0  0  0  0  0  0  0  0  0  0  0
    8.2621  -12.0923   23.4880 O   0  0  0  0  0  0  0  0  0  0  0  0
    9.0985  -13.7801   24.7265 O   0  0  0  0  0  0  0  0  0  0  0  0
  2  1  1  6
  2  3  1  0
  3  4  1  0
  4  5  2  0
  6  9  1  0
  6  2  1  0
  7  6  2  0
  8  4  1  0
 10  9  1  0
 11 12  2  0
 11 10  1  0
 14 13  1  1
 15 14  1  0
 16 14  1  0
 16 17  1  1
 17 11  1  0
 18 16  1  0
 19 18  1  0
 20 18  2  0
M  END
$$$$
