DGV.pdb
     RDKit          3D

 20 19  0  0  1  0  0  0  0  0999 V2000
    7.4573  -19.6855   22.7822 N   0  0  0  0  0  0  0  0  0  0  0  0
    6.3521  -18.8332   23.0771 C   0  0  1  0  0  0  0  0  0  0  0  0
    5.8421  -19.0052   24.4934 C   0  0  0  0  0  0  0  0  0  0  0  0
    6.9310  -18.8251   25.4789 C   0  0  0  0  0  0  0  0  0  0  0  0
    8.0662  -18.5004   25.0507 O   0  0  0  0  0  0  0  0  0  0  0  0
    6.5976  -17.4050   22.7566 C   0  0  0  0  0  0  0  0  0  0  0  0
    5.6084  -16.6422   22.6226 O   0  0  0  0  0  0  0  0  0  0  0  0
    6.7455  -18.9994   26.8374 O   0  0  0  0  0  0  0  0  0  0  0  0
    7.9137  -16.8616   22.5942 N   0  0  0  0  0  0  0  0  0  0  0  0
    8.2035  -15.5181   22.2376 C   0  0  0  0  0  0  0  0  0  0  0  0
    8.4556  -14.5932   23.3600 C   0  0  0  0  0  0  0  0  0  0  0  0
    9.2275  -13.5805   23.2238 O   0  0  0  0  0  0  0  0  0  0  0  0
    5.9606  -12.7438   25.3619 C   0  0  0  0  0  0  0  0  0  0  0  0
    6.8845  -13.3890   26.3703 C   0  0  2  0  0  0  0  0  0  0  0  0
    7.2662  -12.3041   27.3567 C   0  0  0  0  0  0  0  0  0  0  0  0
    8.1223  -13.9465   25.7669 C   0  0  2  0  0  0  0  0  0  0  0  0
    7.8657  -14.7891   24.6119 N   0  0  0  0  0  0  0  0  0  0  0  0
    8.8834  -14.6815   26.8091 C   0  0  0  0  0  0  0  0  0  0  0  0
    9.4508  -13.9894   27.8649 O   0  0  0  0  0  0  0  0  0  0  0  0
    9.0392  -15.9208   26.7775 O   0  0  0  0  0  0  0  0  0  0  0  0
  2  1  1  1
  2  3  1  0
  3  4  1  0
  4  5  2  0
  6  9  1  0
  6  2  1  0
  7  6  2  0
  8  4  1  0
 10  9  1  0
 11 12  2  0
 11 10  1  0
 14 13  1  6
 15 14  1  0
 16 14  1  0
 16 17  1  6
 17 11  1  0
 18 16  1  0
 19 18  1  0
 20 18  2  0
M  END
$$$$
