KQN.pdb
     RDKit          3D

 27 26  0  0  1  0  0  0  0  0999 V2000
    7.0042  -16.2408   20.6753 N   0  0  0  0  0  0  0  0  0  0  0  0
    8.2358  -15.4404   20.3261 C   0  0  1  0  0  0  0  0  0  0  0  0
    7.8215  -14.4897   19.2870 C   0  0  0  0  0  0  0  0  0  0  0  0
    7.8620  -14.7756   17.8633 C   0  0  0  0  0  0  0  0  0  0  0  0
    8.4000  -13.9641   16.7980 C   0  0  0  0  0  0  0  0  0  0  0  0
    8.3004  -14.2985   15.3620 C   0  0  0  0  0  0  0  0  0  0  0  0
    8.8162  -13.3349   14.4477 N   0  0  0  0  0  0  0  0  0  0  0  0
    8.7640  -14.8376   21.5651 C   0  0  0  0  0  0  0  0  0  0  0  0
    9.8076  -14.1345   21.5669 O   0  0  0  0  0  0  0  0  0  0  0  0
    5.3939  -12.9475   26.4190 N   0  0  0  0  0  0  0  0  0  0  0  0
    6.7168  -12.6101   26.8521 C   0  0  0  0  0  0  0  0  0  0  0  0
    6.8914  -11.9229   27.8802 O   0  0  0  0  0  0  0  0  0  0  0  0
    7.8839  -13.0767   26.0838 C   0  0  0  0  0  0  0  0  0  0  0  0
    7.4879  -13.8608   24.8807 C   0  0  0  0  0  0  0  0  0  0  0  0
    8.6296  -14.3935   24.0583 C   0  0  2  0  0  0  0  0  0  0  0  0
    8.1357  -15.0062   22.8387 N   0  0  0  0  0  0  0  0  0  0  0  0
    9.5011  -15.3129   24.8319 C   0  0  0  0  0  0  0  0  0  0  0  0
   10.6031  -14.8712   25.2240 O   0  0  0  0  0  0  0  0  0  0  0  0
   10.9545  -19.3285   27.7970 N   0  0  0  0  0  0  0  0  0  0  0  0
   10.8220  -17.9933   28.2601 C   0  0  0  0  0  0  0  0  0  0  0  0
   11.2713  -17.7201   29.3987 O   0  0  0  0  0  0  0  0  0  0  0  0
   10.1695  -17.0090   27.3863 C   0  0  0  0  0  0  0  0  0  0  0  0
    9.7315  -17.5342   26.0769 C   0  0  2  0  0  0  0  0  0  0  0  0
    9.1580  -16.6445   25.1462 N   0  0  0  0  0  0  0  0  0  0  0  0
    8.9631  -18.8079   26.3242 C   0  0  0  0  0  0  0  0  0  0  0  0
    7.7932  -18.8714   25.9139 O   0  0  0  0  0  0  0  0  0  0  0  0
    9.5527  -19.8732   26.9912 O   0  0  0  0  0  0  0  0  0  0  0  0
  2  1  1  1
  3  2  1  0
  4  3  1  0
  5  4  1  0
  6  5  1  0
  7  6  1  0
  8  2  1  0
  8  9  2  0
 10 11  1  0
 11 12  2  0
 13 11  1  0
 13 14  1  0
 15 14  1  1
 15 16  1  0
 16  8  1  0
 17 15  1  0
 18 17  2  0
 20 22  1  0
 20 19  1  0
 21 20  2  0
 23 22  1  1
 23 25  1  0
 23 24  1  0
 24 17  1  0
 25 27  1  0
 26 25  2  0
M  END
$$$$
