KQN.pdb
     RDKit          3D

 27 26  0  0  1  0  0  0  0  0999 V2000
    5.3045  -17.2575   13.8424 N   0  0  0  0  0  0  0  0  0  0  0  0
    4.6590  -18.6110   14.0173 C   0  0  1  0  0  0  0  0  0  0  0  0
    5.2449  -19.4769   12.9865 C   0  0  0  0  0  0  0  0  0  0  0  0
    6.6716  -19.5915   12.7386 C   0  0  0  0  0  0  0  0  0  0  0  0
    7.3469  -20.3214   11.6926 C   0  0  0  0  0  0  0  0  0  0  0  0
    8.8152  -20.4189   11.5566 C   0  0  0  0  0  0  0  0  0  0  0  0
    9.3027  -21.1251   10.4190 N   0  0  0  0  0  0  0  0  0  0  0  0
    4.8701  -19.0490   15.4105 C   0  0  0  0  0  0  0  0  0  0  0  0
    5.8923  -18.7128   16.0628 O   0  0  0  0  0  0  0  0  0  0  0  0
    0.7703  -22.1892   16.6824 N   0  0  0  0  0  0  0  0  0  0  0  0
    0.5417  -20.9376   17.3402 C   0  0  0  0  0  0  0  0  0  0  0  0
   -0.5872  -20.4042   17.3134 O   0  0  0  0  0  0  0  0  0  0  0  0
    1.6428  -20.2715   18.0572 C   0  0  0  0  0  0  0  0  0  0  0  0
    2.9134  -21.0450   17.9795 C   0  0  0  0  0  0  0  0  0  0  0  0
    4.1090  -20.2676   17.5003 C   0  0  2  0  0  0  0  0  0  0  0  0
    3.9393  -19.8773   16.1127 N   0  0  0  0  0  0  0  0  0  0  0  0
    5.3824  -20.9969   17.7236 C   0  0  0  0  0  0  0  0  0  0  0  0
    5.5602  -22.0576   17.0859 O   0  0  0  0  0  0  0  0  0  0  0  0
    9.0135  -18.1118   19.1143 N   0  0  0  0  0  0  0  0  0  0  0  0
    9.0529  -19.4430   18.6231 C   0  0  0  0  0  0  0  0  0  0  0  0
    9.3908  -19.6173   17.4279 O   0  0  0  0  0  0  0  0  0  0  0  0
    8.6979  -20.5383   19.5353 C   0  0  0  0  0  0  0  0  0  0  0  0
    7.4700  -21.2753   19.1735 C   0  0  2  0  0  0  0  0  0  0  0  0
    6.3933  -20.5636   18.6068 N   0  0  0  0  0  0  0  0  0  0  0  0
    7.1203  -22.1834   20.3254 C   0  0  0  0  0  0  0  0  0  0  0  0
    7.9674  -23.0144   20.6901 O   0  0  0  0  0  0  0  0  0  0  0  0
    5.8863  -22.0875   20.9543 O   0  0  0  0  0  0  0  0  0  0  0  0
  2  1  1  1
  3  2  1  0
  4  3  1  0
  5  4  1  0
  6  5  1  0
  7  6  1  0
  8  2  1  0
  8  9  2  0
 10 11  1  0
 11 12  2  0
 13 11  1  0
 13 14  1  0
 15 14  1  6
 15 16  1  0
 16  8  1  0
 17 15  1  0
 18 17  2  0
 20 22  1  0
 20 19  1  0
 21 20  2  0
 23 22  1  1
 23 25  1  0
 23 24  1  0
 24 17  1  0
 25 27  1  0
 26 25  2  0
M  END
$$$$
