KQN.pdb
     RDKit          3D

 27 26  0  0  1  0  0  0  0  0999 V2000
    9.5689  -15.9744   19.6509 N   0  0  0  0  0  0  0  0  0  0  0  0
    8.4239  -16.1250   20.6234 C   0  0  1  0  0  0  0  0  0  0  0  0
    8.0519  -17.5449   20.5963 C   0  0  0  0  0  0  0  0  0  0  0  0
    8.2276  -18.4075   19.4408 C   0  0  0  0  0  0  0  0  0  0  0  0
    7.8183  -19.7813   19.2735 C   0  0  0  0  0  0  0  0  0  0  0  0
    7.9962  -20.5600   18.0302 C   0  0  0  0  0  0  0  0  0  0  0  0
    7.4401  -21.8719   18.0166 N   0  0  0  0  0  0  0  0  0  0  0  0
    8.8580  -15.6065   21.9349 C   0  0  0  0  0  0  0  0  0  0  0  0
   10.0488  -15.7123   22.3277 O   0  0  0  0  0  0  0  0  0  0  0  0
    5.2951  -12.2340   26.0269 N   0  0  0  0  0  0  0  0  0  0  0  0
    6.5342  -12.3689   26.7324 C   0  0  0  0  0  0  0  0  0  0  0  0
    6.7278  -11.7475   27.7983 O   0  0  0  0  0  0  0  0  0  0  0  0
    7.5907  -13.2480   26.2022 C   0  0  0  0  0  0  0  0  0  0  0  0
    7.2743  -13.7451   24.8341 C   0  0  0  0  0  0  0  0  0  0  0  0
    8.3279  -14.6190   24.2099 C   0  0  2  0  0  0  0  0  0  0  0  0
    7.9679  -14.9535   22.8441 N   0  0  0  0  0  0  0  0  0  0  0  0
    8.6137  -15.8269   25.0238 C   0  0  0  0  0  0  0  0  0  0  0  0
    8.1767  -16.9215   24.6065 O   0  0  0  0  0  0  0  0  0  0  0  0
   11.8963  -18.1197   23.6166 N   0  0  0  0  0  0  0  0  0  0  0  0
   11.4991  -18.1022   24.9792 C   0  0  0  0  0  0  0  0  0  0  0  0
   11.1234  -19.1823   25.4945 O   0  0  0  0  0  0  0  0  0  0  0  0
   11.5489  -16.8279   25.7084 C   0  0  0  0  0  0  0  0  0  0  0  0
   10.4301  -16.6045   26.6466 C   0  0  2  0  0  0  0  0  0  0  0  0
    9.3440  -15.8083   26.2305 N   0  0  0  0  0  0  0  0  0  0  0  0
   11.0177  -16.2588   27.9916 C   0  0  0  0  0  0  0  0  0  0  0  0
   10.9480  -17.1088   28.8937 O   0  0  0  0  0  0  0  0  0  0  0  0
   11.6170  -15.0252   28.2074 O   0  0  0  0  0  0  0  0  0  0  0  0
  2  1  1  6
  3  2  1  0
  4  3  1  0
  5  4  1  0
  6  5  1  0
  7  6  1  0
  8  2  1  0
  8  9  2  0
 10 11  1  0
 11 12  2  0
 13 11  1  0
 13 14  1  0
 15 14  1  1
 15 16  1  0
 16  8  1  0
 17 15  1  0
 18 17  2  0
 20 22  1  0
 20 19  1  0
 21 20  2  0
 23 22  1  6
 23 25  1  0
 23 24  1  0
 24 17  1  0
 25 27  1  0
 26 25  2  0
M  END
$$$$
