KQN.pdb
     RDKit          3D

 27 26  0  0  1  0  0  0  0  0999 V2000
    9.9998  -12.8918   19.5980 N   0  0  0  0  0  0  0  0  0  0  0  0
    8.5283  -13.0997   19.8645 C   0  0  1  0  0  0  0  0  0  0  0  0
    7.8256  -12.5989   18.6767 C   0  0  0  0  0  0  0  0  0  0  0  0
    8.1837  -12.9514   17.3137 C   0  0  0  0  0  0  0  0  0  0  0  0
    7.3251  -13.4095   16.2481 C   0  0  0  0  0  0  0  0  0  0  0  0
    7.7723  -14.2519   15.1192 C   0  0  0  0  0  0  0  0  0  0  0  0
    6.7607  -14.7016   14.2219 N   0  0  0  0  0  0  0  0  0  0  0  0
    8.3105  -14.5250   20.1781 C   0  0  0  0  0  0  0  0  0  0  0  0
    7.1562  -15.0238   20.2260 O   0  0  0  0  0  0  0  0  0  0  0  0
    8.8430  -16.1856   15.3935 N   0  0  0  0  0  0  0  0  0  0  0  0
    9.8751  -17.0580   15.8680 C   0  0  0  0  0  0  0  0  0  0  0  0
   10.7494  -17.4891   15.0873 O   0  0  0  0  0  0  0  0  0  0  0  0
    9.9114  -17.4509   17.2873 C   0  0  0  0  0  0  0  0  0  0  0  0
    9.7109  -16.2889   18.1975 C   0  0  0  0  0  0  0  0  0  0  0  0
    9.6313  -16.6274   19.6613 C   0  0  2  0  0  0  0  0  0  0  0  0
    9.3826  -15.4326   20.4470 N   0  0  0  0  0  0  0  0  0  0  0  0
   10.8273  -17.3682   20.1347 C   0  0  0  0  0  0  0  0  0  0  0  0
   11.0111  -18.5188   19.6814 O   0  0  0  0  0  0  0  0  0  0  0  0
   15.5266  -15.6220   18.9446 N   0  0  0  0  0  0  0  0  0  0  0  0
   14.6786  -14.8298   19.7620 C   0  0  0  0  0  0  0  0  0  0  0  0
   15.1708  -13.8117   20.3044 O   0  0  0  0  0  0  0  0  0  0  0  0
   13.2785  -15.2424   19.9279 C   0  0  0  0  0  0  0  0  0  0  0  0
   13.0694  -16.3728   20.8555 C   0  0  2  0  0  0  0  0  0  0  0  0
   11.7590  -16.8506   21.0587 N   0  0  0  0  0  0  0  0  0  0  0  0
   13.8669  -16.0977   22.1054 C   0  0  0  0  0  0  0  0  0  0  0  0
   13.2545  -16.0222   23.1825 O   0  0  0  0  0  0  0  0  0  0  0  0
   15.2445  -15.9349   22.0457 O   0  0  0  0  0  0  0  0  0  0  0  0
  2  1  1  6
  3  2  1  0
  4  3  1  0
  5  4  1  0
  6  5  1  0
  7  6  1  0
  8  2  1  0
  8  9  2  0
 10 11  1  0
 11 12  2  0
 13 11  1  0
 13 14  1  0
 15 14  1  6
 15 16  1  0
 16  8  1  0
 17 15  1  0
 18 17  2  0
 20 22  1  0
 20 19  1  0
 21 20  2  0
 23 22  1  1
 23 25  1  0
 23 24  1  0
 24 17  1  0
 25 27  1  0
 26 25  2  0
M  END
$$$$
