SFL.pdb
     RDKit          3D

 26 26  0  0  1  0  0  0  0  0999 V2000
    6.8127  -19.9034   21.8580 O   0  0  0  0  0  0  0  0  0  0  0  0
    6.1213  -20.5400   22.8784 C   0  0  0  0  0  0  0  0  0  0  0  0
    4.9285  -19.7403   23.3443 C   0  0  2  0  0  0  0  0  0  0  0  0
    3.9112  -19.8204   22.3239 N   0  0  0  0  0  0  0  0  0  0  0  0
    5.3981  -18.3178   23.4923 C   0  0  0  0  0  0  0  0  0  0  0  0
    5.2108  -17.5297   22.5277 O   0  0  0  0  0  0  0  0  0  0  0  0
    6.0335  -17.8686   24.6786 N   0  0  0  0  0  0  0  0  0  0  0  0
    6.5504  -16.5223   24.8004 C   0  0  1  0  0  0  0  0  0  0  0  0
    6.6450  -16.1030   26.2522 C   0  0  0  0  0  0  0  0  0  0  0  0
    6.9445  -14.6909   26.4532 C   0  0  0  0  0  0  0  0  0  0  0  0
    5.9276  -13.7614   26.4071 C   0  0  0  0  0  0  0  0  0  0  0  0
    6.1910  -12.3986   26.5959 C   0  0  0  0  0  0  0  0  0  0  0  0
    7.4793  -11.9728   26.8312 C   0  0  0  0  0  0  0  0  0  0  0  0
    8.5063  -12.8930   26.8798 C   0  0  0  0  0  0  0  0  0  0  0  0
    8.2243  -14.2497   26.6889 C   0  0  0  0  0  0  0  0  0  0  0  0
    7.8052  -16.4240   24.0565 C   0  0  0  0  0  0  0  0  0  0  0  0
    8.6382  -17.3617   24.1134 O   0  0  0  0  0  0  0  0  0  0  0  0
    7.4904  -14.7875   20.1404 C   0  0  0  0  0  0  0  0  0  0  0  0
    7.8919  -13.6621   21.1077 C   0  0  2  0  0  0  0  0  0  0  0  0
    7.7429  -12.3859   20.3503 C   0  0  0  0  0  0  0  0  0  0  0  0
    9.2568  -13.9950   21.5745 C   0  0  0  0  0  0  0  0  0  0  0  0
    9.3495  -15.2609   22.4213 C   0  0  2  0  0  0  0  0  0  0  0  0
    8.1768  -15.3146   23.2414 N   0  0  0  0  0  0  0  0  0  0  0  0
   10.6292  -15.3669   23.1083 C   0  0  0  0  0  0  0  0  0  0  0  0
   11.7907  -15.5497   22.3927 O   0  0  0  0  0  0  0  0  0  0  0  0
   10.7517  -15.3017   24.3426 O   0  0  0  0  0  0  0  0  0  0  0  0
  2  1  1  0
  3  2  1  0
  3  5  1  0
  3  4  1  6
  5  6  2  0
  7  8  1  0
  7  5  1  0
  9 10  1  0
  8  9  1  1
 10 15  2  0
 11 12  2  0
 11 10  1  0
 12 13  1  0
 13 14  2  0
 15 14  1  0
 16  8  1  0
 16 17  2  0
 19 18  1  6
 19 21  1  0
 20 19  1  0
 22 21  1  1
 22 23  1  0
 22 24  1  0
 23 16  1  0
 24 25  1  0
 26 24  2  0
M  END
$$$$
