SFL.pdb
     RDKit          3D

 26 26  0  0  1  0  0  0  0  0999 V2000
   10.7705  -18.7058   21.5243 O   0  0  0  0  0  0  0  0  0  0  0  0
    9.5546  -18.4124   20.9244 C   0  0  0  0  0  0  0  0  0  0  0  0
    9.4759  -16.9754   20.4681 C   0  0  2  0  0  0  0  0  0  0  0  0
   10.6324  -16.7030   19.6492 N   0  0  0  0  0  0  0  0  0  0  0  0
    9.5150  -16.1284   21.7119 C   0  0  0  0  0  0  0  0  0  0  0  0
   10.6237  -15.6447   22.0635 O   0  0  0  0  0  0  0  0  0  0  0  0
    8.3440  -15.8768   22.4722 N   0  0  0  0  0  0  0  0  0  0  0  0
    8.3720  -15.0487   23.6587 C   0  0  1  0  0  0  0  0  0  0  0  0
    7.0093  -14.4517   23.9403 C   0  0  0  0  0  0  0  0  0  0  0  0
    6.9464  -13.6359   25.1464 C   0  0  0  0  0  0  0  0  0  0  0  0
    6.3404  -14.1340   26.2799 C   0  0  0  0  0  0  0  0  0  0  0  0
    6.2666  -13.3682   27.4505 C   0  0  0  0  0  0  0  0  0  0  0  0
    6.8036  -12.1005   27.4786 C   0  0  0  0  0  0  0  0  0  0  0  0
    7.4130  -11.5901   26.3508 C   0  0  0  0  0  0  0  0  0  0  0  0
    7.4772  -12.3693   25.1909 C   0  0  0  0  0  0  0  0  0  0  0  0
    8.9382  -15.8189   24.7648 C   0  0  0  0  0  0  0  0  0  0  0  0
    8.3630  -16.8648   25.1543 O   0  0  0  0  0  0  0  0  0  0  0  0
   14.2946  -16.3329   25.5131 C   0  0  0  0  0  0  0  0  0  0  0  0
   12.7880  -16.5994   25.3625 C   0  0  2  0  0  0  0  0  0  0  0  0
   12.3799  -15.9774   24.0698 C   0  0  0  0  0  0  0  0  0  0  0  0
   12.1546  -16.0540   26.5844 C   0  0  0  0  0  0  0  0  0  0  0  0
   10.6328  -16.1606   26.6151 C   0  0  2  0  0  0  0  0  0  0  0  0
   10.1318  -15.4721   25.4637 N   0  0  0  0  0  0  0  0  0  0  0  0
   10.0823  -15.7609   27.9027 C   0  0  0  0  0  0  0  0  0  0  0  0
   10.3191  -16.5192   29.0269 O   0  0  0  0  0  0  0  0  0  0  0  0
    9.3869  -14.7446   28.0649 O   0  0  0  0  0  0  0  0  0  0  0  0
  2  1  1  0
  3  2  1  0
  3  5  1  0
  3  4  1  6
  5  6  2  0
  7  8  1  0
  7  5  1  0
  9 10  1  0
  8  9  1  1
 10 15  2  0
 11 12  2  0
 11 10  1  0
 12 13  1  0
 13 14  2  0
 15 14  1  0
 16  8  1  0
 16 17  2  0
 19 18  1  1
 19 21  1  0
 20 19  1  0
 22 21  1  1
 22 23  1  0
 22 24  1  0
 23 16  1  0
 24 25  1  0
 26 24  2  0
M  END
$$$$
