SFL.pdb
     RDKit          3D

 26 26  0  0  1  0  0  0  0  0999 V2000
   11.9673  -19.0970   22.0814 O   0  0  0  0  0  0  0  0  0  0  0  0
   10.6849  -19.3593   21.6220 C   0  0  0  0  0  0  0  0  0  0  0  0
   10.1391  -18.2315   20.7797 C   0  0  2  0  0  0  0  0  0  0  0  0
   11.0954  -17.9502   19.7363 N   0  0  0  0  0  0  0  0  0  0  0  0
   10.0074  -17.0410   21.6917 C   0  0  0  0  0  0  0  0  0  0  0  0
   10.8633  -16.1222   21.5922 O   0  0  0  0  0  0  0  0  0  0  0  0
    8.9546  -16.9475   22.6379 N   0  0  0  0  0  0  0  0  0  0  0  0
    8.8399  -15.8198   23.5378 C   0  0  1  0  0  0  0  0  0  0  0  0
    7.3997  -15.5902   23.9447 C   0  0  0  0  0  0  0  0  0  0  0  0
    7.1766  -14.3683   24.7073 C   0  0  0  0  0  0  0  0  0  0  0  0
    6.5109  -14.4249   25.9130 C   0  0  0  0  0  0  0  0  0  0  0  0
    6.2835  -13.2639   26.6632 C   0  0  0  0  0  0  0  0  0  0  0  0
    6.7270  -12.0461   26.1979 C   0  0  0  0  0  0  0  0  0  0  0  0
    7.3946  -11.9757   24.9925 C   0  0  0  0  0  0  0  0  0  0  0  0
    7.6126  -13.1454   24.2572 C   0  0  0  0  0  0  0  0  0  0  0  0
    9.7648  -16.0049   24.6548 C   0  0  0  0  0  0  0  0  0  0  0  0
   10.9863  -15.7596   24.4993 O   0  0  0  0  0  0  0  0  0  0  0  0
   11.1381  -13.8128   27.4998 C   0  0  0  0  0  0  0  0  0  0  0  0
    9.7214  -14.3334   27.7917 C   0  0  2  0  0  0  0  0  0  0  0  0
    9.1466  -13.4260   28.8265 C   0  0  0  0  0  0  0  0  0  0  0  0
    9.8817  -15.7538   28.1773 C   0  0  0  0  0  0  0  0  0  0  0  0
   10.2922  -16.6811   27.0372 C   0  0  2  0  0  0  0  0  0  0  0  0
    9.3843  -16.4552   25.9532 N   0  0  0  0  0  0  0  0  0  0  0  0
   10.4449  -18.0596   27.4814 C   0  0  0  0  0  0  0  0  0  0  0  0
    9.5452  -19.0228   27.0843 O   0  0  0  0  0  0  0  0  0  0  0  0
   11.3651  -18.4429   28.2223 O   0  0  0  0  0  0  0  0  0  0  0  0
  2  1  1  0
  3  2  1  0
  3  5  1  0
  3  4  1  6
  5  6  2  0
  7  8  1  0
  7  5  1  0
  9 10  1  0
  8  9  1  1
 10 15  2  0
 11 12  2  0
 11 10  1  0
 12 13  1  0
 13 14  2  0
 15 14  1  0
 16  8  1  0
 16 17  2  0
 19 18  1  1
 19 21  1  0
 20 19  1  0
 22 21  1  1
 22 23  1  0
 22 24  1  0
 23 16  1  0
 24 25  1  0
 26 24  2  0
M  END
$$$$
