SFL.pdb
     RDKit          3D

 26 26  0  0  1  0  0  0  0  0999 V2000
   11.4459  -19.3450   21.6571 O   0  0  0  0  0  0  0  0  0  0  0  0
   10.1681  -19.2489   21.1257 C   0  0  0  0  0  0  0  0  0  0  0  0
    9.9209  -17.9097   20.4739 C   0  0  2  0  0  0  0  0  0  0  0  0
   11.0134  -17.6451   19.5690 N   0  0  0  0  0  0  0  0  0  0  0  0
    9.9112  -16.8898   21.5811 C   0  0  0  0  0  0  0  0  0  0  0  0
   10.9491  -16.1980   21.7571 O   0  0  0  0  0  0  0  0  0  0  0  0
    8.7725  -16.7059   22.4069 N   0  0  0  0  0  0  0  0  0  0  0  0
    8.6909  -15.6172   23.3570 C   0  0  1  0  0  0  0  0  0  0  0  0
    7.2970  -15.5017   23.9368 C   0  0  0  0  0  0  0  0  0  0  0  0
    7.1101  -14.3695   24.8354 C   0  0  0  0  0  0  0  0  0  0  0  0
    6.3162  -14.5061   25.9539 C   0  0  0  0  0  0  0  0  0  0  0  0
    6.1207  -13.4318   26.8315 C   0  0  0  0  0  0  0  0  0  0  0  0
    6.7254  -12.2202   26.5815 C   0  0  0  0  0  0  0  0  0  0  0  0
    7.5225  -12.0702   25.4654 C   0  0  0  0  0  0  0  0  0  0  0  0
    7.7063  -13.1540   24.6003 C   0  0  0  0  0  0  0  0  0  0  0  0
    9.7517  -15.7712   24.3512 C   0  0  0  0  0  0  0  0  0  0  0  0
   10.8589  -15.2067   24.1733 O   0  0  0  0  0  0  0  0  0  0  0  0
    9.8324  -13.0233   27.5705 C   0  0  0  0  0  0  0  0  0  0  0  0
    9.7764  -14.5353   27.8432 C   0  0  2  0  0  0  0  0  0  0  0  0
    9.8811  -14.6983   29.3220 C   0  0  0  0  0  0  0  0  0  0  0  0
   10.8633  -15.1344   27.0362 C   0  0  0  0  0  0  0  0  0  0  0  0
   10.6102  -16.5728   26.5944 C   0  0  2  0  0  0  0  0  0  0  0  0
    9.6315  -16.5343   25.5498 N   0  0  0  0  0  0  0  0  0  0  0  0
   10.3241  -17.4489   27.7220 C   0  0  0  0  0  0  0  0  0  0  0  0
    9.0688  -17.9909   27.8817 O   0  0  0  0  0  0  0  0  0  0  0  0
   11.1652  -17.7537   28.5837 O   0  0  0  0  0  0  0  0  0  0  0  0
  2  1  1  0
  3  2  1  0
  3  5  1  0
  3  4  1  6
  5  6  2  0
  7  8  1  0
  7  5  1  0
  9 10  1  0
  8  9  1  1
 10 15  2  0
 11 12  2  0
 11 10  1  0
 12 13  1  0
 13 14  2  0
 15 14  1  0
 16  8  1  0
 16 17  2  0
 19 18  1  1
 19 21  1  0
 20 19  1  0
 22 21  1  1
 22 23  1  0
 22 24  1  0
 23 16  1  0
 24 25  1  0
 26 24  2  0
M  END
$$$$
