SFL.pdb
     RDKit          3D

 26 26  0  0  1  0  0  0  0  0999 V2000
   11.5220  -19.2055   22.2159 O   0  0  0  0  0  0  0  0  0  0  0  0
   10.5536  -18.9953   21.2450 C   0  0  0  0  0  0  0  0  0  0  0  0
   10.6275  -17.6067   20.6571 C   0  0  2  0  0  0  0  0  0  0  0  0
   11.9479  -17.4258   20.1037 N   0  0  0  0  0  0  0  0  0  0  0  0
   10.4113  -16.6472   21.7967 C   0  0  0  0  0  0  0  0  0  0  0  0
   11.4071  -16.0082   22.2289 O   0  0  0  0  0  0  0  0  0  0  0  0
    9.1285  -16.4613   22.3734 N   0  0  0  0  0  0  0  0  0  0  0  0
    8.9145  -15.5406   23.4694 C   0  0  1  0  0  0  0  0  0  0  0  0
    7.5286  -14.9337   23.4101 C   0  0  0  0  0  0  0  0  0  0  0  0
    7.2507  -13.9626   24.4607 C   0  0  0  0  0  0  0  0  0  0  0  0
    6.3997  -14.2944   25.4930 C   0  0  0  0  0  0  0  0  0  0  0  0
    6.1163  -13.3774   26.5134 C   0  0  0  0  0  0  0  0  0  0  0  0
    6.6908  -12.1261   26.4931 C   0  0  0  0  0  0  0  0  0  0  0  0
    7.5445  -11.7813   25.4655 C   0  0  0  0  0  0  0  0  0  0  0  0
    7.8157  -12.7100   24.4552 C   0  0  0  0  0  0  0  0  0  0  0  0
    9.2290  -16.2154   24.7276 C   0  0  0  0  0  0  0  0  0  0  0  0
    8.6786  -17.3100   25.0019 O   0  0  0  0  0  0  0  0  0  0  0  0
   11.3240  -13.6692   27.4769 C   0  0  0  0  0  0  0  0  0  0  0  0
    9.9162  -14.1680   27.8415 C   0  0  2  0  0  0  0  0  0  0  0  0
    9.4649  -13.3403   28.9972 C   0  0  0  0  0  0  0  0  0  0  0  0
   10.0507  -15.6220   28.0856 C   0  0  0  0  0  0  0  0  0  0  0  0
   10.5380  -16.4273   26.8847 C   0  0  2  0  0  0  0  0  0  0  0  0
   10.1415  -15.7195   25.7047 N   0  0  0  0  0  0  0  0  0  0  0  0
   10.1428  -17.8265   26.9677 C   0  0  0  0  0  0  0  0  0  0  0  0
    9.2866  -18.3648   26.0338 O   0  0  0  0  0  0  0  0  0  0  0  0
   10.5386  -18.5989   27.8563 O   0  0  0  0  0  0  0  0  0  0  0  0
  2  1  1  0
  3  2  1  0
  3  5  1  0
  3  4  1  1
  5  6  2  0
  7  8  1  0
  7  5  1  0
  9 10  1  0
  8  9  1  1
 10 15  2  0
 11 12  2  0
 11 10  1  0
 12 13  1  0
 13 14  2  0
 15 14  1  0
 16  8  1  0
 16 17  2  0
 19 18  1  1
 19 21  1  0
 20 19  1  0
 22 21  1  1
 22 23  1  0
 22 24  1  0
 23 16  1  0
 24 25  1  0
 26 24  2  0
M  END
$$$$
