SFL.pdb
     RDKit          3D

 26 26  0  0  1  0  0  0  0  0999 V2000
   11.5298  -19.5636   22.0826 O   0  0  0  0  0  0  0  0  0  0  0  0
   10.2023  -19.6099   21.6828 C   0  0  0  0  0  0  0  0  0  0  0  0
    9.8204  -18.4207   20.8346 C   0  0  2  0  0  0  0  0  0  0  0  0
   10.8321  -18.2532   19.8193 N   0  0  0  0  0  0  0  0  0  0  0  0
    9.8090  -17.2268   21.7516 C   0  0  0  0  0  0  0  0  0  0  0  0
   10.8301  -16.4896   21.7755 O   0  0  0  0  0  0  0  0  0  0  0  0
    8.6868  -16.9324   22.5680 N   0  0  0  0  0  0  0  0  0  0  0  0
    8.6057  -15.7076   23.3347 C   0  0  1  0  0  0  0  0  0  0  0  0
    7.2296  -15.5338   23.9421 C   0  0  0  0  0  0  0  0  0  0  0  0
    6.9873  -14.2171   24.5182 C   0  0  0  0  0  0  0  0  0  0  0  0
    7.3523  -13.0859   23.8201 C   0  0  0  0  0  0  0  0  0  0  0  0
    7.1307  -11.8098   24.3537 C   0  0  0  0  0  0  0  0  0  0  0  0
    6.5413  -11.6740   25.5909 C   0  0  0  0  0  0  0  0  0  0  0  0
    6.1712  -12.7983   26.2999 C   0  0  0  0  0  0  0  0  0  0  0  0
    6.4003  -14.0644   25.7512 C   0  0  0  0  0  0  0  0  0  0  0  0
    9.7041  -15.6747   24.2990 C   0  0  0  0  0  0  0  0  0  0  0  0
   10.6726  -14.8976   24.1136 O   0  0  0  0  0  0  0  0  0  0  0  0
   10.3059  -13.1320   27.9984 C   0  0  0  0  0  0  0  0  0  0  0  0
   10.2664  -14.6688   27.9899 C   0  0  2  0  0  0  0  0  0  0  0  0
   10.6929  -15.1063   29.3505 C   0  0  0  0  0  0  0  0  0  0  0  0
   11.1277  -15.0914   26.8624 C   0  0  0  0  0  0  0  0  0  0  0  0
   10.8851  -16.5166   26.3746 C   0  0  2  0  0  0  0  0  0  0  0  0
    9.7713  -16.4779   25.4753 N   0  0  0  0  0  0  0  0  0  0  0  0
   10.7987  -17.4647   27.4767 C   0  0  0  0  0  0  0  0  0  0  0  0
    9.5931  -18.0421   27.8055 O   0  0  0  0  0  0  0  0  0  0  0  0
   11.7736  -17.8023   28.1682 O   0  0  0  0  0  0  0  0  0  0  0  0
  2  1  1  0
  3  2  1  0
  3  5  1  0
  3  4  1  6
  5  6  2  0
  7  8  1  0
  7  5  1  0
  9 10  1  0
  8  9  1  1
 10 15  2  0
 11 12  2  0
 11 10  1  0
 12 13  1  0
 13 14  2  0
 15 14  1  0
 16  8  1  0
 16 17  2  0
 19 18  1  1
 19 21  1  0
 20 19  1  0
 22 21  1  1
 22 23  1  0
 22 24  1  0
 23 16  1  0
 24 25  1  0
 26 24  2  0
M  END
$$$$
