SFL.pdb
     RDKit          3D

 26 26  0  0  1  0  0  0  0  0999 V2000
   11.5330  -18.7571   21.7105 O   0  0  0  0  0  0  0  0  0  0  0  0
   10.4930  -18.6349   20.8007 C   0  0  0  0  0  0  0  0  0  0  0  0
   10.3126  -17.2122   20.3287 C   0  0  2  0  0  0  0  0  0  0  0  0
   11.5122  -16.8180   19.6302 N   0  0  0  0  0  0  0  0  0  0  0  0
   10.1363  -16.3703   21.5642 C   0  0  0  0  0  0  0  0  0  0  0  0
   11.1665  -15.8789   22.0970 O   0  0  0  0  0  0  0  0  0  0  0  0
    8.8527  -16.1317   22.1192 N   0  0  0  0  0  0  0  0  0  0  0  0
    8.6803  -15.3554   23.3284 C   0  0  1  0  0  0  0  0  0  0  0  0
    7.2685  -14.8192   23.4365 C   0  0  0  0  0  0  0  0  0  0  0  0
    7.0464  -13.9310   24.5705 C   0  0  0  0  0  0  0  0  0  0  0  0
    6.4046  -14.4031   25.6954 C   0  0  0  0  0  0  0  0  0  0  0  0
    6.1787  -13.5680   26.7972 C   0  0  0  0  0  0  0  0  0  0  0  0
    6.5998  -12.2573   26.7651 C   0  0  0  0  0  0  0  0  0  0  0  0
    7.2434  -11.7723   25.6452 C   0  0  0  0  0  0  0  0  0  0  0  0
    7.4603  -12.6208   24.5545 C   0  0  0  0  0  0  0  0  0  0  0  0
    9.1168  -16.1527   24.4735 C   0  0  0  0  0  0  0  0  0  0  0  0
    8.7140  -17.3353   24.5989 O   0  0  0  0  0  0  0  0  0  0  0  0
    9.7987  -13.6469   27.5724 C   0  0  0  0  0  0  0  0  0  0  0  0
   10.3656  -14.7966   28.4210 C   0  0  2  0  0  0  0  0  0  0  0  0
   11.0150  -14.1628   29.6046 C   0  0  0  0  0  0  0  0  0  0  0  0
   11.2503  -15.5691   27.5197 C   0  0  0  0  0  0  0  0  0  0  0  0
   10.5210  -16.4967   26.5523 C   0  0  2  0  0  0  0  0  0  0  0  0
    9.9936  -15.6857   25.4965 N   0  0  0  0  0  0  0  0  0  0  0  0
    9.5762  -17.3680   27.2373 C   0  0  0  0  0  0  0  0  0  0  0  0
   10.0282  -18.3906   28.0403 O   0  0  0  0  0  0  0  0  0  0  0  0
    8.3433  -17.2494   27.1446 O   0  0  0  0  0  0  0  0  0  0  0  0
  2  1  1  0
  3  2  1  0
  3  5  1  0
  3  4  1  1
  5  6  2  0
  7  8  1  0
  7  5  1  0
  9 10  1  0
  8  9  1  1
 10 15  2  0
 11 12  2  0
 11 10  1  0
 12 13  1  0
 13 14  2  0
 15 14  1  0
 16  8  1  0
 16 17  2  0
 19 18  1  6
 19 21  1  0
 20 19  1  0
 22 21  1  1
 22 23  1  0
 22 24  1  0
 23 16  1  0
 24 25  1  0
 26 24  2  0
M  END
$$$$
