SFL.pdb
     RDKit          3D

 26 26  0  0  1  0  0  0  0  0999 V2000
    6.8078  -21.4485   23.2064 O   0  0  0  0  0  0  0  0  0  0  0  0
    6.1759  -20.4482   22.4822 C   0  0  0  0  0  0  0  0  0  0  0  0
    5.0704  -19.7862   23.2689 C   0  0  2  0  0  0  0  0  0  0  0  0
    3.8559  -19.8762   22.4948 N   0  0  0  0  0  0  0  0  0  0  0  0
    5.4683  -18.3440   23.4361 C   0  0  0  0  0  0  0  0  0  0  0  0
    5.1688  -17.5373   22.5162 O   0  0  0  0  0  0  0  0  0  0  0  0
    6.1600  -17.8971   24.5913 N   0  0  0  0  0  0  0  0  0  0  0  0
    6.6489  -16.5398   24.7063 C   0  0  1  0  0  0  0  0  0  0  0  0
    6.7659  -16.1227   26.1572 C   0  0  0  0  0  0  0  0  0  0  0  0
    7.0771  -14.7127   26.3555 C   0  0  0  0  0  0  0  0  0  0  0  0
    8.3710  -14.3295   26.6367 C   0  0  0  0  0  0  0  0  0  0  0  0
    8.6941  -12.9805   26.8326 C   0  0  0  0  0  0  0  0  0  0  0  0
    7.7131  -12.0181   26.7449 C   0  0  0  0  0  0  0  0  0  0  0  0
    6.4141  -12.3884   26.4640 C   0  0  0  0  0  0  0  0  0  0  0  0
    6.1101  -13.7402   26.2715 C   0  0  0  0  0  0  0  0  0  0  0  0
    7.8843  -16.4107   23.9354 C   0  0  0  0  0  0  0  0  0  0  0  0
    8.7111  -17.3555   23.9209 O   0  0  0  0  0  0  0  0  0  0  0  0
    7.7943  -14.3143   20.0240 C   0  0  0  0  0  0  0  0  0  0  0  0
    8.0958  -13.3562   21.1879 C   0  0  2  0  0  0  0  0  0  0  0  0
    8.0114  -11.9767   20.6274 C   0  0  0  0  0  0  0  0  0  0  0  0
    9.4124  -13.7696   21.7240 C   0  0  0  0  0  0  0  0  0  0  0  0
    9.4301  -15.1486   22.3768 C   0  0  2  0  0  0  0  0  0  0  0  0
    8.2432  -15.2625   23.1698 N   0  0  0  0  0  0  0  0  0  0  0  0
   10.6920  -15.4179   23.0521 C   0  0  0  0  0  0  0  0  0  0  0  0
   11.8601  -15.5190   22.3308 O   0  0  0  0  0  0  0  0  0  0  0  0
   10.7930  -15.5690   24.2808 O   0  0  0  0  0  0  0  0  0  0  0  0
  2  1  1  0
  3  2  1  0
  3  5  1  0
  3  4  1  6
  5  6  2  0
  7  8  1  0
  7  5  1  0
  9 10  1  0
  8  9  1  1
 10 15  2  0
 11 12  2  0
 11 10  1  0
 12 13  1  0
 13 14  2  0
 15 14  1  0
 16  8  1  0
 16 17  2  0
 19 18  1  6
 19 21  1  0
 20 19  1  0
 22 21  1  1
 22 23  1  0
 22 24  1  0
 23 16  1  0
 24 25  1  0
 26 24  2  0
M  END
$$$$
