SFL.pdb
     RDKit          3D

 26 26  0  0  1  0  0  0  0  0999 V2000
   12.3436  -18.9397   20.4685 O   0  0  0  0  0  0  0  0  0  0  0  0
   10.9742  -18.9405   20.6897 C   0  0  0  0  0  0  0  0  0  0  0  0
   10.3047  -17.7105   20.1254 C   0  0  2  0  0  0  0  0  0  0  0  0
   11.1595  -17.1693   19.0965 N   0  0  0  0  0  0  0  0  0  0  0  0
   10.1825  -16.7303   21.2613 C   0  0  0  0  0  0  0  0  0  0  0  0
   11.1689  -15.9874   21.5100 O   0  0  0  0  0  0  0  0  0  0  0  0
    8.9964  -16.6383   22.0341 N   0  0  0  0  0  0  0  0  0  0  0  0
    8.8451  -15.6479   23.0785 C   0  0  1  0  0  0  0  0  0  0  0  0
    7.4022  -15.2079   23.2089 C   0  0  0  0  0  0  0  0  0  0  0  0
    7.1553  -14.2656   24.2930 C   0  0  0  0  0  0  0  0  0  0  0  0
    7.6930  -12.9977   24.2348 C   0  0  0  0  0  0  0  0  0  0  0  0
    7.4706  -12.0751   25.2652 C   0  0  0  0  0  0  0  0  0  0  0  0
    6.7064  -12.4307   26.3542 C   0  0  0  0  0  0  0  0  0  0  0  0
    6.1624  -13.6967   26.4247 C   0  0  0  0  0  0  0  0  0  0  0  0
    6.3952  -14.6046   25.3864 C   0  0  0  0  0  0  0  0  0  0  0  0
    9.4377  -16.1614   24.3124 C   0  0  0  0  0  0  0  0  0  0  0  0
    9.1561  -17.3209   24.7032 O   0  0  0  0  0  0  0  0  0  0  0  0
    8.7032  -14.0203   29.3990 C   0  0  0  0  0  0  0  0  0  0  0  0
    9.7384  -14.9855   28.7988 C   0  0  2  0  0  0  0  0  0  0  0  0
   11.0286  -14.6987   29.4900 C   0  0  0  0  0  0  0  0  0  0  0  0
    9.7095  -14.7548   27.3367 C   0  0  0  0  0  0  0  0  0  0  0  0
   10.5833  -15.7058   26.5241 C   0  0  2  0  0  0  0  0  0  0  0  0
   10.3418  -15.4320   25.1394 N   0  0  0  0  0  0  0  0  0  0  0  0
   10.4284  -17.0898   26.9503 C   0  0  0  0  0  0  0  0  0  0  0  0
    9.1756  -17.6512   27.0510 O   0  0  0  0  0  0  0  0  0  0  0  0
   11.3838  -17.8283   27.2408 O   0  0  0  0  0  0  0  0  0  0  0  0
  2  1  1  0
  3  2  1  0
  3  5  1  0
  3  4  1  6
  5  6  2  0
  7  8  1  0
  7  5  1  0
  9 10  1  0
  8  9  1  1
 10 15  2  0
 11 12  2  0
 11 10  1  0
 12 13  1  0
 13 14  2  0
 15 14  1  0
 16  8  1  0
 16 17  2  0
 19 18  1  1
 19 21  1  0
 20 19  1  0
 22 21  1  1
 22 23  1  0
 22 24  1  0
 23 16  1  0
 24 25  1  0
 26 24  2  0
M  END
$$$$
