SFL.pdb
     RDKit          3D

 26 26  0  0  1  0  0  0  0  0999 V2000
   11.9444  -19.0094   21.8013 O   0  0  0  0  0  0  0  0  0  0  0  0
   10.9062  -18.6389   20.9591 C   0  0  0  0  0  0  0  0  0  0  0  0
   10.9457  -17.1687   20.6179 C   0  0  2  0  0  0  0  0  0  0  0  0
   12.2816  -16.8486   20.1761 N   0  0  0  0  0  0  0  0  0  0  0  0
   10.6322  -16.4257   21.8891 C   0  0  0  0  0  0  0  0  0  0  0  0
   11.5898  -15.9086   22.5234 O   0  0  0  0  0  0  0  0  0  0  0  0
    9.3017  -16.3059   22.3665 N   0  0  0  0  0  0  0  0  0  0  0  0
    8.9902  -15.5645   23.5697 C   0  0  1  0  0  0  0  0  0  0  0  0
    7.5474  -15.1052   23.5700 C   0  0  0  0  0  0  0  0  0  0  0  0
    7.2265  -14.1278   24.6024 C   0  0  0  0  0  0  0  0  0  0  0  0
    6.4636  -14.5025   25.6876 C   0  0  0  0  0  0  0  0  0  0  0  0
    6.1412  -13.5806   26.6918 C   0  0  0  0  0  0  0  0  0  0  0  0
    6.5877  -12.2810   26.6020 C   0  0  0  0  0  0  0  0  0  0  0  0
    7.3521  -11.8930   25.5210 C   0  0  0  0  0  0  0  0  0  0  0  0
    7.6642  -12.8274   24.5279 C   0  0  0  0  0  0  0  0  0  0  0  0
    9.3745  -16.3611   24.7338 C   0  0  0  0  0  0  0  0  0  0  0  0
    9.3424  -17.6145   24.6690 O   0  0  0  0  0  0  0  0  0  0  0  0
   11.4155  -13.7834   27.3449 C   0  0  0  0  0  0  0  0  0  0  0  0
   10.0939  -14.2245   27.9947 C   0  0  2  0  0  0  0  0  0  0  0  0
    9.8684  -13.3078   29.1494 C   0  0  0  0  0  0  0  0  0  0  0  0
   10.2583  -15.6602   28.3162 C   0  0  0  0  0  0  0  0  0  0  0  0
   10.2238  -16.5917   27.1081 C   0  0  2  0  0  0  0  0  0  0  0  0
    9.7992  -15.8165   25.9814 N   0  0  0  0  0  0  0  0  0  0  0  0
    9.4743  -17.8107   27.3786 C   0  0  0  0  0  0  0  0  0  0  0  0
    8.2744  -18.0452   26.7460 O   0  0  0  0  0  0  0  0  0  0  0  0
    9.8557  -18.6881   28.1707 O   0  0  0  0  0  0  0  0  0  0  0  0
  2  1  1  0
  3  2  1  0
  3  5  1  0
  3  4  1  1
  5  6  2  0
  7  8  1  0
  7  5  1  0
  9 10  1  0
  8  9  1  1
 10 15  2  0
 11 12  2  0
 11 10  1  0
 12 13  1  0
 13 14  2  0
 15 14  1  0
 16  8  1  0
 16 17  2  0
 19 18  1  1
 19 21  1  0
 20 19  1  0
 22 21  1  1
 22 23  1  0
 22 24  1  0
 23 16  1  0
 24 25  1  0
 26 24  2  0
M  END
$$$$
