SYH.pdb
     RDKit          3D

 29 30  0  0  1  0  0  0  0  0999 V2000
   16.3513  -24.5897   -7.2883 O   0  0  0  0  0  0  0  0  0  0  0  0
   16.4148  -25.8562   -6.6734 C   0  0  0  0  0  0  0  0  0  0  0  0
   17.8658  -26.2639   -6.6845 C   0  0  2  0  0  0  0  0  0  0  0  0
   18.5454  -25.4740   -5.6792 N   0  0  0  0  0  0  0  0  0  0  0  0
   18.5236  -26.0734   -7.9708 C   0  0  0  0  0  0  0  0  0  0  0  0
   19.4100  -25.1938   -8.0824 O   0  0  0  0  0  0  0  0  0  0  0  0
   23.1173  -30.9878   -8.5328 O   0  0  0  0  0  0  0  0  0  0  0  0
   22.1283  -30.2348   -9.1505 C   0  0  0  0  0  0  0  0  0  0  0  0
   22.5065  -29.2835  -10.0752 C   0  0  0  0  0  0  0  0  0  0  0  0
   21.5462  -28.5035  -10.7207 C   0  0  0  0  0  0  0  0  0  0  0  0
   20.2025  -28.6512  -10.4631 C   0  0  0  0  0  0  0  0  0  0  0  0
   19.1913  -27.8457  -11.1270 C   0  0  0  0  0  0  0  0  0  0  0  0
   18.8747  -26.5602  -10.4232 C   0  0  2  0  0  0  0  0  0  0  0  0
   18.2288  -26.8309   -9.1438 N   0  0  0  0  0  0  0  0  0  0  0  0
   18.0836  -25.6334  -11.2466 C   0  0  0  0  0  0  0  0  0  0  0  0
   16.9048  -25.3580  -10.8924 O   0  0  0  0  0  0  0  0  0  0  0  0
   19.8518  -29.6195   -9.5249 C   0  0  0  0  0  0  0  0  0  0  0  0
   20.7928  -30.3863   -8.8901 C   0  0  0  0  0  0  0  0  0  0  0  0
   18.5819  -25.0303  -12.4251 N   0  0  0  0  0  0  0  0  0  0  0  0
   17.9100  -23.8672  -12.9757 C   0  0  1  0  0  0  0  0  0  0  0  0
   17.9301  -22.7706  -11.9419 C   0  0  0  0  0  0  0  0  0  0  0  0
   17.3456  -21.5073  -12.3913 C   0  0  0  0  0  0  0  0  0  0  0  0
   16.7787  -21.3398  -13.6439 C   0  0  0  0  0  0  0  0  0  0  0  0
   16.3271  -20.0801  -13.7715 N   0  0  0  0  0  0  0  0  0  0  0  0
   16.6016  -19.4570  -12.6209 C   0  0  0  0  0  0  0  0  0  0  0  0
   17.2126  -20.3103  -11.7906 N   0  0  0  0  0  0  0  0  0  0  0  0
   18.6687  -23.4823  -14.1915 C   0  0  0  0  0  0  0  0  0  0  0  0
   18.3429  -22.4202  -14.7878 O   0  0  0  0  0  0  0  0  0  0  0  0
   19.7170  -24.2079  -14.7247 O   0  0  0  0  0  0  0  0  0  0  0  0
  1  2  1  0
  2  3  1  0
  3  4  1  1
  5  3  1  0
  5  6  2  0
  7  8  1  0
  8  9  2  0
  9 10  1  0
 11 10  2  0
 11 12  1  0
 13 12  1  6
 13 14  1  0
 14  5  1  0
 15 13  1  0
 16 15  2  0
 17 11  1  0
 18  8  1  0
 18 17  2  0
 19 15  1  0
 20 21  1  1
 20 19  1  0
 21 22  1  0
 22 26  1  0
 23 22  2  0
 23 24  1  0
 24 25  1  0
 26 25  2  0
 27 29  1  0
 27 20  1  0
 28 27  2  0
M  END
$$$$
