SYH.pdb
     RDKit          3D

 29 30  0  0  1  0  0  0  0  0999 V2000
   14.2076  -18.6114    6.0871 O   0  0  0  0  0  0  0  0  0  0  0  0
   15.4386  -18.0556    6.4898 C   0  0  0  0  0  0  0  0  0  0  0  0
   16.0770  -17.4875    5.2482 C   0  0  2  0  0  0  0  0  0  0  0  0
   16.4902  -18.6040    4.4240 N   0  0  0  0  0  0  0  0  0  0  0  0
   17.2280  -16.6338    5.5128 C   0  0  0  0  0  0  0  0  0  0  0  0
   18.3322  -16.9126    4.9887 O   0  0  0  0  0  0  0  0  0  0  0  0
   22.4402   -9.7540    7.3634 O   0  0  0  0  0  0  0  0  0  0  0  0
   21.3746  -10.6028    7.0976 C   0  0  0  0  0  0  0  0  0  0  0  0
   20.5447  -10.9632    8.1390 C   0  0  0  0  0  0  0  0  0  0  0  0
   19.4613  -11.8143    7.9181 C   0  0  0  0  0  0  0  0  0  0  0  0
   19.1825  -12.3204    6.6692 C   0  0  0  0  0  0  0  0  0  0  0  0
   18.0583  -13.2083    6.4242 C   0  0  0  0  0  0  0  0  0  0  0  0
   18.3806  -14.6631    6.5909 C   0  0  2  0  0  0  0  0  0  0  0  0
   17.1939  -15.4746    6.3444 N   0  0  0  0  0  0  0  0  0  0  0  0
   18.9897  -14.9717    7.8934 C   0  0  0  0  0  0  0  0  0  0  0  0
   18.2389  -15.2716    8.8614 O   0  0  0  0  0  0  0  0  0  0  0  0
   20.0380  -11.9386    5.6380 C   0  0  0  0  0  0  0  0  0  0  0  0
   21.1021  -11.1032    5.8527 C   0  0  0  0  0  0  0  0  0  0  0  0
   20.3863  -14.9491    8.1170 N   0  0  0  0  0  0  0  0  0  0  0  0
   20.9112  -15.3228    9.4179 C   0  0  1  0  0  0  0  0  0  0  0  0
   22.0902  -16.2388    9.2117 C   0  0  0  0  0  0  0  0  0  0  0  0
   21.7412  -17.6549    9.0994 C   0  0  0  0  0  0  0  0  0  0  0  0
   20.4635  -18.1390    9.3262 C   0  0  0  0  0  0  0  0  0  0  0  0
   20.4463  -19.4714    9.1492 N   0  0  0  0  0  0  0  0  0  0  0  0
   21.6907  -19.8291    8.8157 C   0  0  0  0  0  0  0  0  0  0  0  0
   22.4702  -18.7417    8.7849 N   0  0  0  0  0  0  0  0  0  0  0  0
   21.3138  -14.0600   10.0851 C   0  0  0  0  0  0  0  0  0  0  0  0
   21.6543  -13.0847    9.3624 O   0  0  0  0  0  0  0  0  0  0  0  0
   21.3434  -13.8706   11.4537 O   0  0  0  0  0  0  0  0  0  0  0  0
  1  2  1  0
  2  3  1  0
  3  4  1  6
  5  3  1  0
  5  6  2  0
  7  8  1  0
  8  9  2  0
  9 10  1  0
 11 10  2  0
 11 12  1  0
 13 12  1  1
 13 14  1  0
 14  5  1  0
 15 13  1  0
 16 15  2  0
 17 11  1  0
 18  8  1  0
 18 17  2  0
 19 15  1  0
 20 21  1  6
 20 19  1  0
 21 22  1  0
 22 26  1  0
 23 22  2  0
 23 24  1  0
 24 25  1  0
 26 25  2  0
 27 29  1  0
 27 20  1  0
 28 27  2  0
M  END
$$$$
