SYH.pdb
     RDKit          3D

 29 30  0  0  1  0  0  0  0  0999 V2000
   24.2185  -37.8440  -11.9284 O   0  0  0  0  0  0  0  0  0  0  0  0
   23.0075  -37.6973  -11.2223 C   0  0  0  0  0  0  0  0  0  0  0  0
   23.2633  -36.6760  -10.1437 C   0  0  2  0  0  0  0  0  0  0  0  0
   22.9048  -37.2828   -8.8789 N   0  0  0  0  0  0  0  0  0  0  0  0
   22.5137  -35.4377  -10.3121 C   0  0  0  0  0  0  0  0  0  0  0  0
   21.3147  -35.3920   -9.9486 O   0  0  0  0  0  0  0  0  0  0  0  0
   20.0563  -27.0447  -11.5902 O   0  0  0  0  0  0  0  0  0  0  0  0
   20.7908  -28.2122  -11.4345 C   0  0  0  0  0  0  0  0  0  0  0  0
   20.7088  -28.8860  -10.2336 C   0  0  0  0  0  0  0  0  0  0  0  0
   21.4298  -30.0637  -10.0327 C   0  0  0  0  0  0  0  0  0  0  0  0
   22.2399  -30.5914  -11.0119 C   0  0  0  0  0  0  0  0  0  0  0  0
   22.9971  -31.8164  -10.8168 C   0  0  0  0  0  0  0  0  0  0  0  0
   22.2296  -33.0659  -11.1297 C   0  0  2  0  0  0  0  0  0  0  0  0
   23.0536  -34.2419  -10.8736 N   0  0  0  0  0  0  0  0  0  0  0  0
   21.6769  -33.0753  -12.4925 C   0  0  0  0  0  0  0  0  0  0  0  0
   22.3572  -33.5882  -13.4224 O   0  0  0  0  0  0  0  0  0  0  0  0
   22.3022  -29.8887  -12.2133 C   0  0  0  0  0  0  0  0  0  0  0  0
   21.5952  -28.7324  -12.4127 C   0  0  0  0  0  0  0  0  0  0  0  0
   20.4106  -32.5339  -12.8155 N   0  0  0  0  0  0  0  0  0  0  0  0
   19.8982  -32.6634  -14.1675 C   0  0  1  0  0  0  0  0  0  0  0  0
   19.2907  -34.0345  -14.3184 C   0  0  0  0  0  0  0  0  0  0  0  0
   19.9036  -34.8539  -15.3635 C   0  0  0  0  0  0  0  0  0  0  0  0
   20.8279  -34.3583  -16.2683 C   0  0  0  0  0  0  0  0  0  0  0  0
   21.2127  -35.3378  -17.1046 N   0  0  0  0  0  0  0  0  0  0  0  0
   20.5455  -36.4372  -16.7389 C   0  0  0  0  0  0  0  0  0  0  0  0
   19.7592  -36.1505  -15.6947 N   0  0  0  0  0  0  0  0  0  0  0  0
   18.8803  -31.5964  -14.3332 C   0  0  0  0  0  0  0  0  0  0  0  0
   18.7545  -30.7428  -13.4138 O   0  0  0  0  0  0  0  0  0  0  0  0
   18.0515  -31.4664  -15.4314 O   0  0  0  0  0  0  0  0  0  0  0  0
  1  2  1  0
  2  3  1  0
  3  4  1  1
  5  3  1  0
  5  6  2  0
  7  8  1  0
  8  9  2  0
  9 10  1  0
 11 10  2  0
 11 12  1  0
 13 12  1  6
 13 14  1  0
 14  5  1  0
 15 13  1  0
 16 15  2  0
 17 11  1  0
 18  8  1  0
 18 17  2  0
 19 15  1  0
 20 21  1  1
 20 19  1  0
 21 22  1  0
 22 26  1  0
 23 22  2  0
 23 24  1  0
 24 25  1  0
 26 25  2  0
 27 29  1  0
 27 20  1  0
 28 27  2  0
M  END
$$$$
