SYH.pdb
     RDKit          3D

 29 30  0  0  1  0  0  0  0  0999 V2000
   27.0277  -12.3971  -16.9932 O   0  0  0  0  0  0  0  0  0  0  0  0
   28.2390  -11.6804  -16.9216 C   0  0  0  0  0  0  0  0  0  0  0  0
   28.3203  -10.8525  -18.1785 C   0  0  2  0  0  0  0  0  0  0  0  0
   29.6287  -10.2331  -18.2054 N   0  0  0  0  0  0  0  0  0  0  0  0
   27.2974   -9.8189  -18.2729 C   0  0  0  0  0  0  0  0  0  0  0  0
   27.3870   -8.7990  -17.5492 O   0  0  0  0  0  0  0  0  0  0  0  0
   20.9192   -4.4950  -21.3190 O   0  0  0  0  0  0  0  0  0  0  0  0
   21.8288   -5.5298  -21.1497 C   0  0  0  0  0  0  0  0  0  0  0  0
   23.1757   -5.2327  -21.1758 C   0  0  0  0  0  0  0  0  0  0  0  0
   24.1257   -6.2412  -21.0099 C   0  0  0  0  0  0  0  0  0  0  0  0
   23.7605   -7.5538  -20.8165 C   0  0  0  0  0  0  0  0  0  0  0  0
   24.7386   -8.6146  -20.6430 C   0  0  0  0  0  0  0  0  0  0  0  0
   25.1921   -8.8024  -19.2262 C   0  0  2  0  0  0  0  0  0  0  0  0
   26.1721   -9.8799  -19.1485 N   0  0  0  0  0  0  0  0  0  0  0  0
   24.0784   -9.0115  -18.2888 C   0  0  0  0  0  0  0  0  0  0  0  0
   23.6036  -10.1723  -18.1558 O   0  0  0  0  0  0  0  0  0  0  0  0
   22.3937   -7.8225  -20.7949 C   0  0  0  0  0  0  0  0  0  0  0  0
   21.4593   -6.8340  -20.9575 C   0  0  0  0  0  0  0  0  0  0  0  0
   23.5082   -7.9679  -17.5227 N   0  0  0  0  0  0  0  0  0  0  0  0
   22.4074   -8.2577  -16.6218 C   0  0  1  0  0  0  0  0  0  0  0  0
   22.9708   -8.5196  -15.2486 C   0  0  0  0  0  0  0  0  0  0  0  0
   21.9608   -8.6821  -14.2032 C   0  0  0  0  0  0  0  0  0  0  0  0
   20.6366   -8.9869  -14.4721 C   0  0  0  0  0  0  0  0  0  0  0  0
   19.9491   -9.0729  -13.3202 N   0  0  0  0  0  0  0  0  0  0  0  0
   20.8198   -8.8272  -12.3358 C   0  0  0  0  0  0  0  0  0  0  0  0
   22.0276   -8.5923  -12.8620 N   0  0  0  0  0  0  0  0  0  0  0  0
   21.5326   -7.0591  -16.6311 C   0  0  0  0  0  0  0  0  0  0  0  0
   22.0392   -5.9522  -16.9593 O   0  0  0  0  0  0  0  0  0  0  0  0
   20.1899   -7.0652  -16.3041 O   0  0  0  0  0  0  0  0  0  0  0  0
  1  2  1  0
  2  3  1  0
  3  4  1  1
  5  3  1  0
  5  6  2  0
  7  8  1  0
  8  9  2  0
  9 10  1  0
 11 10  2  0
 11 12  1  0
 13 12  1  6
 13 14  1  0
 14  5  1  0
 15 13  1  0
 16 15  2  0
 17 11  1  0
 18  8  1  0
 18 17  2  0
 19 15  1  0
 20 21  1  1
 20 19  1  0
 21 22  1  0
 22 26  1  0
 23 22  2  0
 23 24  1  0
 24 25  1  0
 26 25  2  0
 27 29  1  0
 27 20  1  0
 28 27  2  0
M  END
$$$$
