SYH.pdb
     RDKit          3D

 29 30  0  0  1  0  0  0  0  0999 V2000
   18.6875  -15.3259  -14.6989 O   0  0  0  0  0  0  0  0  0  0  0  0
   18.8318  -14.1971  -15.5303 C   0  0  0  0  0  0  0  0  0  0  0  0
   17.4683  -13.9151  -16.1077 C   0  0  2  0  0  0  0  0  0  0  0  0
   17.1957  -14.9390  -17.0945 N   0  0  0  0  0  0  0  0  0  0  0  0
   17.3499  -12.6033  -16.7310 C   0  0  0  0  0  0  0  0  0  0  0  0
   17.6508  -12.4693  -17.9408 O   0  0  0  0  0  0  0  0  0  0  0  0
   12.2207  -12.0119  -20.7322 O   0  0  0  0  0  0  0  0  0  0  0  0
   12.9985  -11.4496  -19.7294 C   0  0  0  0  0  0  0  0  0  0  0  0
   13.7892  -10.3630  -20.0411 C   0  0  0  0  0  0  0  0  0  0  0  0
   14.5873   -9.7658  -19.0646 C   0  0  0  0  0  0  0  0  0  0  0  0
   14.6160  -10.2315  -17.7700 C   0  0  0  0  0  0  0  0  0  0  0  0
   15.4425   -9.6202  -16.7428 C   0  0  0  0  0  0  0  0  0  0  0  0
   16.8530  -10.1280  -16.7106 C   0  0  2  0  0  0  0  0  0  0  0  0
   16.9063  -11.4287  -16.0527 N   0  0  0  0  0  0  0  0  0  0  0  0
   17.7943   -9.1735  -16.1059 C   0  0  0  0  0  0  0  0  0  0  0  0
   17.9414   -9.1735  -14.8533 O   0  0  0  0  0  0  0  0  0  0  0  0
   13.8070  -11.3296  -17.4859 C   0  0  0  0  0  0  0  0  0  0  0  0
   13.0228  -11.9175  -18.4430 C   0  0  0  0  0  0  0  0  0  0  0  0
   18.5490   -8.2482  -16.8643 N   0  0  0  0  0  0  0  0  0  0  0  0
   19.4848   -7.3641  -16.1933 C   0  0  1  0  0  0  0  0  0  0  0  0
   20.3192   -6.6700  -17.2391 C   0  0  0  0  0  0  0  0  0  0  0  0
   21.3380   -5.7704  -16.6983 C   0  0  0  0  0  0  0  0  0  0  0  0
   21.9694   -5.9859  -15.4845 C   0  0  0  0  0  0  0  0  0  0  0  0
   22.8520   -4.9990  -15.2521 N   0  0  0  0  0  0  0  0  0  0  0  0
   22.7837   -4.1703  -16.2990 C   0  0  0  0  0  0  0  0  0  0  0  0
   21.8764   -4.6301  -17.1686 N   0  0  0  0  0  0  0  0  0  0  0  0
   18.6662   -6.3971  -15.4208 C   0  0  0  0  0  0  0  0  0  0  0  0
   17.5716   -6.0126  -15.9143 O   0  0  0  0  0  0  0  0  0  0  0  0
   19.0171   -5.8811  -14.1877 O   0  0  0  0  0  0  0  0  0  0  0  0
  1  2  1  0
  2  3  1  0
  3  4  1  6
  5  3  1  0
  5  6  2  0
  7  8  1  0
  8  9  2  0
  9 10  1  0
 11 10  2  0
 11 12  1  0
 13 12  1  1
 13 14  1  0
 14  5  1  0
 15 13  1  0
 16 15  2  0
 17 11  1  0
 18  8  1  0
 18 17  2  0
 19 15  1  0
 20 21  1  6
 20 19  1  0
 21 22  1  0
 22 26  1  0
 23 22  2  0
 23 24  1  0
 24 25  1  0
 26 25  2  0
 27 29  1  0
 27 20  1  0
 28 27  2  0
M  END
$$$$
