SYH.pdb
     RDKit          3D

 29 30  0  0  1  0  0  0  0  0999 V2000
   36.2632  -26.3537    5.0473 O   0  0  0  0  0  0  0  0  0  0  0  0
   37.5912  -25.9443    5.2820 C   0  0  0  0  0  0  0  0  0  0  0  0
   37.6341  -24.4613    5.0161 C   0  0  2  0  0  0  0  0  0  0  0  0
   38.9938  -24.0194    5.2448 N   0  0  0  0  0  0  0  0  0  0  0  0
   36.7292  -23.6841    5.8532 C   0  0  0  0  0  0  0  0  0  0  0  0
   37.0571  -23.4246    7.0352 O   0  0  0  0  0  0  0  0  0  0  0  0
   30.0354  -18.6109    8.7178 O   0  0  0  0  0  0  0  0  0  0  0  0
   30.9312  -19.3409    7.9487 C   0  0  0  0  0  0  0  0  0  0  0  0
   30.4394  -20.3466    7.1427 C   0  0  0  0  0  0  0  0  0  0  0  0
   31.3032  -21.1060    6.3527 C   0  0  0  0  0  0  0  0  0  0  0  0
   32.6613  -20.8839    6.3472 C   0  0  0  0  0  0  0  0  0  0  0  0
   33.5731  -21.6672    5.5302 C   0  0  0  0  0  0  0  0  0  0  0  0
   34.5665  -22.4671    6.3185 C   0  0  2  0  0  0  0  0  0  0  0  0
   35.4654  -23.1825    5.4197 N   0  0  0  0  0  0  0  0  0  0  0  0
   33.9348  -23.3724    7.2901 C   0  0  0  0  0  0  0  0  0  0  0  0
   33.5011  -24.4876    6.8912 O   0  0  0  0  0  0  0  0  0  0  0  0
   33.1278  -19.8619    7.1711 C   0  0  0  0  0  0  0  0  0  0  0  0
   32.2816  -19.1152    7.9474 C   0  0  0  0  0  0  0  0  0  0  0  0
   33.7878  -23.0531    8.6603 N   0  0  0  0  0  0  0  0  0  0  0  0
   33.1599  -24.0071    9.5564 C   0  0  1  0  0  0  0  0  0  0  0  0
   34.1769  -24.4403   10.5809 C   0  0  0  0  0  0  0  0  0  0  0  0
   34.9390  -25.6318   10.2078 C   0  0  0  0  0  0  0  0  0  0  0  0
   34.7555  -26.3022    9.0098 C   0  0  0  0  0  0  0  0  0  0  0  0
   35.5919  -27.3526    8.9463 N   0  0  0  0  0  0  0  0  0  0  0  0
   36.2951  -27.3509   10.0834 C   0  0  0  0  0  0  0  0  0  0  0  0
   35.9060  -26.3199   10.8425 N   0  0  0  0  0  0  0  0  0  0  0  0
   32.0190  -23.2993   10.1882 C   0  0  0  0  0  0  0  0  0  0  0  0
   31.0115  -23.9759   10.5300 O   0  0  0  0  0  0  0  0  0  0  0  0
   31.9776  -21.9398   10.4332 O   0  0  0  0  0  0  0  0  0  0  0  0
  1  2  1  0
  2  3  1  0
  3  4  1  1
  5  3  1  0
  5  6  2  0
  7  8  1  0
  8  9  2  0
  9 10  1  0
 11 10  2  0
 11 12  1  0
 13 12  1  6
 13 14  1  0
 14  5  1  0
 15 13  1  0
 16 15  2  0
 17 11  1  0
 18  8  1  0
 18 17  2  0
 19 15  1  0
 20 21  1  1
 20 19  1  0
 21 22  1  0
 22 26  1  0
 23 22  2  0
 23 24  1  0
 24 25  1  0
 26 25  2  0
 27 29  1  0
 27 20  1  0
 28 27  2  0
M  END
$$$$
