SYH.pdb
     RDKit          3D

 29 30  0  0  1  0  0  0  0  0999 V2000
   20.0833   -9.3916  -12.2828 O   0  0  0  0  0  0  0  0  0  0  0  0
   20.6855   -8.3318  -12.9902 C   0  0  0  0  0  0  0  0  0  0  0  0
   20.9747   -8.8525  -14.3748 C   0  0  2  0  0  0  0  0  0  0  0  0
   22.0024   -9.8648  -14.2510 N   0  0  0  0  0  0  0  0  0  0  0  0
   21.4196   -7.8280  -15.3108 C   0  0  0  0  0  0  0  0  0  0  0  0
   22.5445   -7.2978  -15.1511 O   0  0  0  0  0  0  0  0  0  0  0  0
   17.3761  -10.4686  -20.4961 O   0  0  0  0  0  0  0  0  0  0  0  0
   18.3872   -9.6332  -20.0418 C   0  0  0  0  0  0  0  0  0  0  0  0
   18.2219   -8.2697  -20.1706 C   0  0  0  0  0  0  0  0  0  0  0  0
   19.2123   -7.3922  -19.7279 C   0  0  0  0  0  0  0  0  0  0  0  0
   20.3770   -7.8471  -19.1532 C   0  0  0  0  0  0  0  0  0  0  0  0
   21.4175   -6.9452  -18.6882 C   0  0  0  0  0  0  0  0  0  0  0  0
   21.1509   -6.3483  -17.3388 C   0  0  2  0  0  0  0  0  0  0  0  0
   20.6535   -7.3699  -16.4243 N   0  0  0  0  0  0  0  0  0  0  0  0
   20.2551   -5.1832  -17.3920 C   0  0  0  0  0  0  0  0  0  0  0  0
   19.1012   -5.2784  -16.8919 O   0  0  0  0  0  0  0  0  0  0  0  0
   20.5150   -9.2285  -19.0369 C   0  0  0  0  0  0  0  0  0  0  0  0
   19.5440  -10.0918  -19.4708 C   0  0  0  0  0  0  0  0  0  0  0  0
   20.6254   -3.9513  -17.9805 N   0  0  0  0  0  0  0  0  0  0  0  0
   19.6418   -2.8909  -18.1052 C   0  0  1  0  0  0  0  0  0  0  0  0
   19.1729   -2.5102  -16.7243 C   0  0  0  0  0  0  0  0  0  0  0  0
   18.2772   -1.3544  -16.6888 C   0  0  0  0  0  0  0  0  0  0  0  0
   16.9312   -1.4309  -17.0065 C   0  0  0  0  0  0  0  0  0  0  0  0
   16.3677   -0.2166  -16.8845 N   0  0  0  0  0  0  0  0  0  0  0  0
   17.3374    0.6179  -16.4962 C   0  0  0  0  0  0  0  0  0  0  0  0
   18.4843   -0.0614  -16.3778 N   0  0  0  0  0  0  0  0  0  0  0  0
   20.3285   -1.7602  -18.7772 C   0  0  0  0  0  0  0  0  0  0  0  0
   19.7235   -1.1615  -19.7074 O   0  0  0  0  0  0  0  0  0  0  0  0
   21.5947   -1.3088  -18.4564 O   0  0  0  0  0  0  0  0  0  0  0  0
  1  2  1  0
  2  3  1  0
  3  4  1  1
  5  3  1  0
  5  6  2  0
  7  8  1  0
  8  9  2  0
  9 10  1  0
 11 10  2  0
 11 12  1  0
 13 12  1  6
 13 14  1  0
 14  5  1  0
 15 13  1  0
 16 15  2  0
 17 11  1  0
 18  8  1  0
 18 17  2  0
 19 15  1  0
 20 21  1  1
 20 19  1  0
 21 22  1  0
 22 26  1  0
 23 22  2  0
 23 24  1  0
 24 25  1  0
 26 25  2  0
 27 29  1  0
 27 20  1  0
 28 27  2  0
M  END
$$$$
