SYH.pdb
     RDKit          3D

 29 30  0  0  1  0  0  0  0  0999 V2000
   19.6055  -15.6323  -15.6201 O   0  0  0  0  0  0  0  0  0  0  0  0
   19.3882  -14.4118  -16.2906 C   0  0  0  0  0  0  0  0  0  0  0  0
   18.1998  -13.7653  -15.6259 C   0  0  2  0  0  0  0  0  0  0  0  0
   17.0341  -14.5574  -15.9576 N   0  0  0  0  0  0  0  0  0  0  0  0
   17.9739  -12.3843  -16.0325 C   0  0  0  0  0  0  0  0  0  0  0  0
   17.5528  -12.1462  -17.1893 O   0  0  0  0  0  0  0  0  0  0  0  0
   11.7180  -10.5817  -16.2802 O   0  0  0  0  0  0  0  0  0  0  0  0
   13.0194  -10.2095  -15.9726 C   0  0  0  0  0  0  0  0  0  0  0  0
   13.6118  -10.7531  -14.8516 C   0  0  0  0  0  0  0  0  0  0  0  0
   14.9183  -10.4076  -14.5041 C   0  0  0  0  0  0  0  0  0  0  0  0
   15.6566   -9.5228  -15.2563 C   0  0  0  0  0  0  0  0  0  0  0  0
   17.0178   -9.1531  -14.9063 C   0  0  0  0  0  0  0  0  0  0  0  0
   18.0695   -9.8854  -15.6847 C   0  0  2  0  0  0  0  0  0  0  0  0
   18.2009  -11.2525  -15.1934 N   0  0  0  0  0  0  0  0  0  0  0  0
   19.3635   -9.1867  -15.7016 C   0  0  0  0  0  0  0  0  0  0  0  0
   20.1225   -9.2857  -14.6992 O   0  0  0  0  0  0  0  0  0  0  0  0
   15.0315   -8.9909  -16.3820 C   0  0  0  0  0  0  0  0  0  0  0  0
   13.7490   -9.3287  -16.7250 C   0  0  0  0  0  0  0  0  0  0  0  0
   19.8033   -8.4031  -16.7941 N   0  0  0  0  0  0  0  0  0  0  0  0
   21.0960   -7.7456  -16.7315 C   0  0  1  0  0  0  0  0  0  0  0  0
   21.5356   -7.4224  -18.1365 C   0  0  0  0  0  0  0  0  0  0  0  0
   22.7648   -6.6339  -18.2175 C   0  0  0  0  0  0  0  0  0  0  0  0
   23.9778   -7.0704  -17.7109 C   0  0  0  0  0  0  0  0  0  0  0  0
   24.9216   -6.1387  -17.9307 N   0  0  0  0  0  0  0  0  0  0  0  0
   24.3203   -5.1274  -18.5658 C   0  0  0  0  0  0  0  0  0  0  0  0
   23.0263   -5.4212  -18.7395 N   0  0  0  0  0  0  0  0  0  0  0  0
   20.9007   -6.5147  -15.9261 C   0  0  0  0  0  0  0  0  0  0  0  0
   19.7808   -5.9379  -15.9784 O   0  0  0  0  0  0  0  0  0  0  0  0
   21.8643   -5.9473  -15.1140 O   0  0  0  0  0  0  0  0  0  0  0  0
  1  2  1  0
  2  3  1  0
  3  4  1  6
  5  3  1  0
  5  6  2  0
  7  8  1  0
  8  9  2  0
  9 10  1  0
 11 10  2  0
 11 12  1  0
 13 12  1  1
 13 14  1  0
 14  5  1  0
 15 13  1  0
 16 15  2  0
 17 11  1  0
 18  8  1  0
 18 17  2  0
 19 15  1  0
 20 21  1  6
 20 19  1  0
 21 22  1  0
 22 26  1  0
 23 22  2  0
 23 24  1  0
 24 25  1  0
 26 25  2  0
 27 29  1  0
 27 20  1  0
 28 27  2  0
M  END
$$$$
