SYH.pdb
     RDKit          3D

 29 30  0  0  1  0  0  0  0  0999 V2000
   22.0072  -21.7595  -14.3107 O   0  0  0  0  0  0  0  0  0  0  0  0
   20.8932  -21.6574  -13.4535 C   0  0  0  0  0  0  0  0  0  0  0  0
   21.1410  -20.4600  -12.5722 C   0  0  2  0  0  0  0  0  0  0  0  0
   20.7267  -19.2855  -13.3106 N   0  0  0  0  0  0  0  0  0  0  0  0
   22.5310  -20.3046  -12.1629 C   0  0  0  0  0  0  0  0  0  0  0  0
   23.2638  -19.4921  -12.7752 O   0  0  0  0  0  0  0  0  0  0  0  0
   29.5479  -19.5328   -6.9443 O   0  0  0  0  0  0  0  0  0  0  0  0
   28.3677  -19.9783   -7.5235 C   0  0  0  0  0  0  0  0  0  0  0  0
   28.4373  -20.9712   -8.4787 C   0  0  0  0  0  0  0  0  0  0  0  0
   27.2765  -21.4497   -9.0874 C   0  0  0  0  0  0  0  0  0  0  0  0
   26.0337  -20.9561   -8.7627 C   0  0  0  0  0  0  0  0  0  0  0  0
   24.8163  -21.4440   -9.3887 C   0  0  0  0  0  0  0  0  0  0  0  0
   24.5426  -20.8507  -10.7383 C   0  0  2  0  0  0  0  0  0  0  0  0
   23.1381  -21.0250  -11.0909 N   0  0  0  0  0  0  0  0  0  0  0  0
   25.4349  -21.3690  -11.7861 C   0  0  0  0  0  0  0  0  0  0  0  0
   25.1867  -22.4959  -12.2952 O   0  0  0  0  0  0  0  0  0  0  0  0
   25.9956  -19.9545   -7.7950 C   0  0  0  0  0  0  0  0  0  0  0  0
   27.1339  -19.4833   -7.1962 C   0  0  0  0  0  0  0  0  0  0  0  0
   26.5665  -20.6618  -12.2555 N   0  0  0  0  0  0  0  0  0  0  0  0
   26.9428  -20.7564  -13.6544 C   0  0  1  0  0  0  0  0  0  0  0  0
   25.7978  -20.2475  -14.4920 C   0  0  0  0  0  0  0  0  0  0  0  0
   26.0769  -20.1953  -15.9269 C   0  0  0  0  0  0  0  0  0  0  0  0
   27.2648  -20.6408  -16.4828 C   0  0  0  0  0  0  0  0  0  0  0  0
   27.2339  -20.4673  -17.8154 N   0  0  0  0  0  0  0  0  0  0  0  0
   26.0478  -19.9213  -18.1027 C   0  0  0  0  0  0  0  0  0  0  0  0
   25.3512  -19.7567  -16.9721 N   0  0  0  0  0  0  0  0  0  0  0  0
   28.1537  -19.9149  -13.8197 C   0  0  0  0  0  0  0  0  0  0  0  0
   28.2055  -18.8152  -13.2054 O   0  0  0  0  0  0  0  0  0  0  0  0
   29.2409  -20.2500  -14.6045 O   0  0  0  0  0  0  0  0  0  0  0  0
  1  2  1  0
  2  3  1  0
  3  4  1  6
  5  3  1  0
  5  6  2  0
  7  8  1  0
  8  9  2  0
  9 10  1  0
 11 10  2  0
 11 12  1  0
 13 12  1  1
 13 14  1  0
 14  5  1  0
 15 13  1  0
 16 15  2  0
 17 11  1  0
 18  8  1  0
 18 17  2  0
 19 15  1  0
 20 21  1  6
 20 19  1  0
 21 22  1  0
 22 26  1  0
 23 22  2  0
 23 24  1  0
 24 25  1  0
 26 25  2  0
 27 29  1  0
 27 20  1  0
 28 27  2  0
M  END
$$$$
