IIQ.pdb
     RDKit          3D

 26 25  0  0  1  0  0  0  0  0999 V2000
    6.8183  -12.0605   27.9676 C   0  0  0  0  0  0  0  0  0  0  0  0
    6.1186  -13.0198   27.0394 C   0  0  0  0  0  0  0  0  0  0  0  0
    7.0948  -13.7293   26.1231 C   0  0  2  0  0  0  0  0  0  0  0  0
    7.8719  -12.7188   25.3405 C   0  0  0  0  0  0  0  0  0  0  0  0
    6.3422  -14.6489   25.1597 C   0  0  2  0  0  0  0  0  0  0  0  0
    5.6688  -15.6307   25.9531 N   0  0  0  0  0  0  0  0  0  0  0  0
    7.3590  -15.2523   24.2475 C   0  0  0  0  0  0  0  0  0  0  0  0
    7.8963  -16.3267   24.5432 O   0  0  0  0  0  0  0  0  0  0  0  0
    7.3115  -12.4684   19.7634 C   0  0  0  0  0  0  0  0  0  0  0  0
    7.3038  -13.9449   20.2259 C   0  0  0  0  0  0  0  0  0  0  0  0
    8.6806  -14.2890   20.7889 C   0  0  2  0  0  0  0  0  0  0  0  0
    9.3002  -15.1957   19.7247 C   0  0  0  0  0  0  0  0  0  0  0  0
    8.6117  -15.0839   22.0544 C   0  0  2  0  0  0  0  0  0  0  0  0
    7.7141  -14.6158   23.0568 N   0  0  0  0  0  0  0  0  0  0  0  0
    9.9407  -15.2859   22.6304 C   0  0  0  0  0  0  0  0  0  0  0  0
   10.3330  -14.5876   23.5920 O   0  0  0  0  0  0  0  0  0  0  0  0
    9.6690  -18.4330   26.5550 N   0  0  0  0  0  0  0  0  0  0  0  0
   11.0626  -18.7235   26.3663 C   0  0  0  0  0  0  0  0  0  0  0  0
   11.6836  -19.3898   27.2534 O   0  0  0  0  0  0  0  0  0  0  0  0
   11.7705  -18.2663   25.1607 C   0  0  0  0  0  0  0  0  0  0  0  0
   10.9694  -17.4901   24.1865 C   0  0  0  0  0  0  0  0  0  0  0  0
   11.7454  -16.9465   23.0414 C   0  0  2  0  0  0  0  0  0  0  0  0
   10.8103  -16.2716   22.1156 N   0  0  0  0  0  0  0  0  0  0  0  0
   12.5241  -17.8746   22.2254 C   0  0  0  0  0  0  0  0  0  0  0  0
   13.9058  -18.0709   22.4307 O   0  0  0  0  0  0  0  0  0  0  0  0
   11.9642  -18.5263   21.2938 O   0  0  0  0  0  0  0  0  0  0  0  0
  2  1  1  0
  3  2  1  0
  3  5  1  0
  3  4  1  6
  5  7  1  0
  5  6  1  1
  7  8  2  0
  9 10  1  0
 10 11  1  0
 11 13  1  0
 11 12  1  6
 13 14  1  1
 14  7  1  0
 15 16  2  0
 15 13  1  0
 17 18  1  0
 18 20  1  0
 18 19  2  0
 20 21  1  0
 22 21  1  1
 22 23  1  0
 22 24  1  0
 23 15  1  0
 24 25  1  0
 26 24  2  0
M  END
$$$$
