IIQ.pdb
     RDKit          3D

 26 25  0  0  1  0  0  0  0  0999 V2000
    8.2067  -11.8946   19.8327 C   0  0  0  0  0  0  0  0  0  0  0  0
    7.7471  -13.0322   20.7080 C   0  0  0  0  0  0  0  0  0  0  0  0
    8.3010  -14.3623   20.2389 C   0  0  2  0  0  0  0  0  0  0  0  0
    7.7543  -14.6824   18.8839 C   0  0  0  0  0  0  0  0  0  0  0  0
    7.9128  -15.4712   21.2186 C   0  0  2  0  0  0  0  0  0  0  0  0
    6.4851  -15.4712   21.3114 N   0  0  0  0  0  0  0  0  0  0  0  0
    8.5691  -15.1527   22.5215 C   0  0  0  0  0  0  0  0  0  0  0  0
    9.8008  -15.0581   22.5879 O   0  0  0  0  0  0  0  0  0  0  0  0
    5.8307  -11.9329   26.0554 C   0  0  0  0  0  0  0  0  0  0  0  0
    6.9848  -12.5510   25.2308 C   0  0  0  0  0  0  0  0  0  0  0  0
    7.3920  -13.8746   25.8737 C   0  0  2  0  0  0  0  0  0  0  0  0
    8.2298  -13.4569   27.0830 C   0  0  0  0  0  0  0  0  0  0  0  0
    8.2749  -14.7031   24.9951 C   0  0  2  0  0  0  0  0  0  0  0  0
    7.8060  -14.9588   23.6744 N   0  0  0  0  0  0  0  0  0  0  0  0
    8.6453  -15.9601   25.6446 C   0  0  0  0  0  0  0  0  0  0  0  0
    8.0236  -17.0165   25.3929 O   0  0  0  0  0  0  0  0  0  0  0  0
   13.8989  -18.7251   24.9442 N   0  0  0  0  0  0  0  0  0  0  0  0
   12.6433  -19.2476   24.4833 C   0  0  0  0  0  0  0  0  0  0  0  0
   12.6384  -20.2273   23.6728 O   0  0  0  0  0  0  0  0  0  0  0  0
   11.3721  -18.6680   24.9434 C   0  0  0  0  0  0  0  0  0  0  0  0
   11.4731  -17.4480   25.7769 C   0  0  0  0  0  0  0  0  0  0  0  0
   10.3971  -17.3014   26.7916 C   0  0  2  0  0  0  0  0  0  0  0  0
    9.7111  -16.0104   26.5689 N   0  0  0  0  0  0  0  0  0  0  0  0
   10.7653  -17.3261   28.2049 C   0  0  0  0  0  0  0  0  0  0  0  0
   10.7635  -16.1592   28.9973 O   0  0  0  0  0  0  0  0  0  0  0  0
   11.1090  -18.4155   28.7536 O   0  0  0  0  0  0  0  0  0  0  0  0
  2  1  1  0
  3  2  1  0
  3  5  1  0
  3  4  1  6
  5  7  1  0
  5  6  1  1
  7  8  2  0
  9 10  1  0
 10 11  1  0
 11 13  1  0
 11 12  1  1
 13 14  1  6
 14  7  1  0
 15 16  2  0
 15 13  1  0
 17 18  1  0
 18 20  1  0
 18 19  2  0
 20 21  1  0
 22 21  1  6
 22 23  1  0
 22 24  1  0
 23 15  1  0
 24 25  1  0
 26 24  2  0
M  END
$$$$
