IIQ.pdb
     RDKit          3D

 26 25  0  0  1  0  0  0  0  0999 V2000
    7.1825  -18.2797   18.9957 C   0  0  0  0  0  0  0  0  0  0  0  0
    7.2552  -16.8104   19.3231 C   0  0  0  0  0  0  0  0  0  0  0  0
    7.6913  -16.5740   20.7549 C   0  0  2  0  0  0  0  0  0  0  0  0
    6.7971  -17.3339   21.6826 C   0  0  0  0  0  0  0  0  0  0  0  0
    7.6208  -15.0828   21.0892 C   0  0  2  0  0  0  0  0  0  0  0  0
    8.3363  -14.3865   20.0644 N   0  0  0  0  0  0  0  0  0  0  0  0
    8.2398  -14.9074   22.4368 C   0  0  0  0  0  0  0  0  0  0  0  0
    9.4559  -15.0777   22.5866 O   0  0  0  0  0  0  0  0  0  0  0  0
    5.7591  -11.3878   26.0100 C   0  0  0  0  0  0  0  0  0  0  0  0
    6.8038  -12.1366   25.1487 C   0  0  0  0  0  0  0  0  0  0  0  0
    7.0456  -13.5145   25.7602 C   0  0  2  0  0  0  0  0  0  0  0  0
    7.8648  -13.2231   27.0183 C   0  0  0  0  0  0  0  0  0  0  0  0
    7.8801  -14.4007   24.8906 C   0  0  2  0  0  0  0  0  0  0  0  0
    7.4590  -14.5512   23.5379 N   0  0  0  0  0  0  0  0  0  0  0  0
    8.0758  -15.7154   25.5008 C   0  0  0  0  0  0  0  0  0  0  0  0
    7.4310  -16.7092   25.0975 O   0  0  0  0  0  0  0  0  0  0  0  0
   13.2120  -18.6527   24.0133 N   0  0  0  0  0  0  0  0  0  0  0  0
   11.8323  -18.5553   23.6272 C   0  0  0  0  0  0  0  0  0  0  0  0
   11.5287  -18.5927   22.3931 O   0  0  0  0  0  0  0  0  0  0  0  0
   10.7746  -18.4209   24.6406 C   0  0  0  0  0  0  0  0  0  0  0  0
   10.6508  -17.0932   25.2849 C   0  0  0  0  0  0  0  0  0  0  0  0
    9.8655  -17.0890   26.5467 C   0  0  2  0  0  0  0  0  0  0  0  0
    8.9953  -15.8933   26.5570 N   0  0  0  0  0  0  0  0  0  0  0  0
   10.5882  -17.0751   27.8160 C   0  0  0  0  0  0  0  0  0  0  0  0
   11.1922  -15.9036   28.3185 O   0  0  0  0  0  0  0  0  0  0  0  0
   10.6962  -18.1378   28.4980 O   0  0  0  0  0  0  0  0  0  0  0  0
  2  1  1  0
  3  2  1  0
  3  5  1  0
  3  4  1  1
  5  7  1  0
  5  6  1  6
  7  8  2  0
  9 10  1  0
 10 11  1  0
 11 13  1  0
 11 12  1  1
 13 14  1  6
 14  7  1  0
 15 16  2  0
 15 13  1  0
 17 18  1  0
 18 20  1  0
 18 19  2  0
 20 21  1  0
 22 21  1  6
 22 23  1  0
 22 24  1  0
 23 15  1  0
 24 25  1  0
 26 24  2  0
M  END
$$$$
