IIQ.pdb
     RDKit          3D

 26 25  0  0  1  0  0  0  0  0999 V2000
    6.9506  -11.1006   27.5533 C   0  0  0  0  0  0  0  0  0  0  0  0
    6.1384  -12.0615   26.7236 C   0  0  0  0  0  0  0  0  0  0  0  0
    7.0146  -13.0828   26.0268 C   0  0  2  0  0  0  0  0  0  0  0  0
    8.0513  -12.3789   25.2099 C   0  0  0  0  0  0  0  0  0  0  0  0
    6.1668  -13.9719   25.1152 C   0  0  2  0  0  0  0  0  0  0  0  0
    5.2764  -14.7111   25.9565 N   0  0  0  0  0  0  0  0  0  0  0  0
    7.1098  -14.8556   24.3670 C   0  0  0  0  0  0  0  0  0  0  0  0
    7.4632  -15.9368   24.8532 O   0  0  0  0  0  0  0  0  0  0  0  0
    7.7563  -12.7190   19.6451 C   0  0  0  0  0  0  0  0  0  0  0  0
    7.5214  -14.1555   20.1700 C   0  0  0  0  0  0  0  0  0  0  0  0
    8.7679  -14.6111   20.9248 C   0  0  2  0  0  0  0  0  0  0  0  0
    9.3470  -15.7220   20.0477 C   0  0  0  0  0  0  0  0  0  0  0  0
    8.4547  -15.2219   22.2540 C   0  0  2  0  0  0  0  0  0  0  0  0
    7.6016  -14.4753   23.1169 N   0  0  0  0  0  0  0  0  0  0  0  0
    9.6738  -15.6032   22.9663 C   0  0  0  0  0  0  0  0  0  0  0  0
   10.3959  -14.7355   23.5063 O   0  0  0  0  0  0  0  0  0  0  0  0
   12.6677  -19.3661   28.0194 N   0  0  0  0  0  0  0  0  0  0  0  0
   11.6373  -19.2842   27.0226 C   0  0  0  0  0  0  0  0  0  0  0  0
   10.4301  -19.5007   27.3581 O   0  0  0  0  0  0  0  0  0  0  0  0
   11.9635  -18.9474   25.6284 C   0  0  0  0  0  0  0  0  0  0  0  0
   10.8521  -18.4159   24.8065 C   0  0  0  0  0  0  0  0  0  0  0  0
   11.2319  -17.3022   23.8986 C   0  0  2  0  0  0  0  0  0  0  0  0
   10.0632  -16.9568   23.0609 N   0  0  0  0  0  0  0  0  0  0  0  0
   12.3458  -17.5057   22.9758 C   0  0  0  0  0  0  0  0  0  0  0  0
   13.6870  -17.3244   23.3730 O   0  0  0  0  0  0  0  0  0  0  0  0
   12.1233  -17.8464   21.7757 O   0  0  0  0  0  0  0  0  0  0  0  0
  2  1  1  0
  3  2  1  0
  3  5  1  0
  3  4  1  6
  5  7  1  0
  5  6  1  1
  7  8  2  0
  9 10  1  0
 10 11  1  0
 11 13  1  0
 11 12  1  6
 13 14  1  1
 14  7  1  0
 15 16  2  0
 15 13  1  0
 17 18  1  0
 18 20  1  0
 18 19  2  0
 20 21  1  0
 22 21  1  6
 22 23  1  0
 22 24  1  0
 23 15  1  0
 24 25  1  0
 26 24  2  0
M  END
$$$$
