IIQ.pdb
     RDKit          3D

 26 25  0  0  1  0  0  0  0  0999 V2000
    6.1011  -19.2636   20.7956 C   0  0  0  0  0  0  0  0  0  0  0  0
    5.9632  -17.7641   20.8569 C   0  0  0  0  0  0  0  0  0  0  0  0
    6.8502  -17.1608   21.9271 C   0  0  2  0  0  0  0  0  0  0  0  0
    6.5997  -17.8488   23.2314 C   0  0  0  0  0  0  0  0  0  0  0  0
    6.5567  -15.6668   22.0761 C   0  0  2  0  0  0  0  0  0  0  0  0
    6.6978  -15.0779   20.7799 N   0  0  0  0  0  0  0  0  0  0  0  0
    7.5409  -15.1241   23.0593 C   0  0  0  0  0  0  0  0  0  0  0  0
    8.7361  -15.0328   22.7532 O   0  0  0  0  0  0  0  0  0  0  0  0
    5.8283  -11.2393   26.5307 C   0  0  0  0  0  0  0  0  0  0  0  0
    6.8184  -11.9835   25.6033 C   0  0  0  0  0  0  0  0  0  0  0  0
    7.3125  -13.2377   26.3202 C   0  0  2  0  0  0  0  0  0  0  0  0
    8.4194  -12.7254   27.2428 C   0  0  0  0  0  0  0  0  0  0  0  0
    7.9402  -14.2305   25.3937 C   0  0  2  0  0  0  0  0  0  0  0  0
    7.1277  -14.7153   24.3286 N   0  0  0  0  0  0  0  0  0  0  0  0
    8.5201  -15.3538   26.1292 C   0  0  0  0  0  0  0  0  0  0  0  0
    7.7861  -16.2193   26.6564 O   0  0  0  0  0  0  0  0  0  0  0  0
   13.8784  -18.4552   24.5877 N   0  0  0  0  0  0  0  0  0  0  0  0
   12.5752  -18.3236   23.9991 C   0  0  0  0  0  0  0  0  0  0  0  0
   12.4351  -18.5189   22.7506 O   0  0  0  0  0  0  0  0  0  0  0  0
   11.4085  -17.9743   24.8239 C   0  0  0  0  0  0  0  0  0  0  0  0
   11.6731  -17.1167   26.0020 C   0  0  0  0  0  0  0  0  0  0  0  0
   10.4647  -16.7564   26.7887 C   0  0  2  0  0  0  0  0  0  0  0  0
    9.9193  -15.4872   26.2610 N   0  0  0  0  0  0  0  0  0  0  0  0
   10.6033  -16.5695   28.2306 C   0  0  0  0  0  0  0  0  0  0  0  0
   10.4773  -15.3010   28.8346 O   0  0  0  0  0  0  0  0  0  0  0  0
   10.8536  -17.5609   28.9793 O   0  0  0  0  0  0  0  0  0  0  0  0
  2  1  1  0
  3  2  1  0
  3  5  1  0
  3  4  1  1
  5  7  1  0
  5  6  1  6
  7  8  2  0
  9 10  1  0
 10 11  1  0
 11 13  1  0
 11 12  1  1
 13 14  1  6
 14  7  1  0
 15 16  2  0
 15 13  1  0
 17 18  1  0
 18 20  1  0
 18 19  2  0
 20 21  1  0
 22 21  1  6
 22 23  1  0
 22 24  1  0
 23 15  1  0
 24 25  1  0
 26 24  2  0
M  END
$$$$
