IIQ.pdb
     RDKit          3D

 26 25  0  0  1  0  0  0  0  0999 V2000
   11.5957  -16.1620   30.6685 C   0  0  0  0  0  0  0  0  0  0  0  0
   10.2071  -16.5799   30.2577 C   0  0  0  0  0  0  0  0  0  0  0  0
    9.9456  -16.2992   28.7918 C   0  0  2  0  0  0  0  0  0  0  0  0
   10.1749  -14.8479   28.5113 C   0  0  0  0  0  0  0  0  0  0  0  0
    8.5041  -16.6646   28.4330 C   0  0  2  0  0  0  0  0  0  0  0  0
    8.3287  -18.0489   28.7490 N   0  0  0  0  0  0  0  0  0  0  0  0
    8.3325  -16.3860   26.9760 C   0  0  0  0  0  0  0  0  0  0  0  0
    8.5433  -17.2786   26.1457 O   0  0  0  0  0  0  0  0  0  0  0  0
    5.9703  -11.4517   26.0066 C   0  0  0  0  0  0  0  0  0  0  0  0
    6.0149  -12.9492   25.6199 C   0  0  0  0  0  0  0  0  0  0  0  0
    7.3738  -13.2531   24.9939 C   0  0  2  0  0  0  0  0  0  0  0  0
    7.1432  -13.0582   23.4947 C   0  0  0  0  0  0  0  0  0  0  0  0
    7.8021  -14.6731   25.1894 C   0  0  2  0  0  0  0  0  0  0  0  0
    7.9345  -15.1227   26.5347 N   0  0  0  0  0  0  0  0  0  0  0  0
    9.0240  -14.9693   24.4423 C   0  0  0  0  0  0  0  0  0  0  0  0
   10.1179  -14.4649   24.7811 O   0  0  0  0  0  0  0  0  0  0  0  0
   11.7407  -19.9477   24.7709 N   0  0  0  0  0  0  0  0  0  0  0  0
   12.3318  -19.2531   23.6618 C   0  0  0  0  0  0  0  0  0  0  0  0
   13.1620  -19.8644   22.9176 O   0  0  0  0  0  0  0  0  0  0  0  0
   11.9820  -17.8530   23.3774 C   0  0  0  0  0  0  0  0  0  0  0  0
   10.5860  -17.6009   22.9521 C   0  0  0  0  0  0  0  0  0  0  0  0
   10.2750  -16.1763   22.6641 C   0  0  2  0  0  0  0  0  0  0  0  0
    8.9974  -15.8298   23.3235 N   0  0  0  0  0  0  0  0  0  0  0  0
   10.1370  -15.7622   21.2703 C   0  0  0  0  0  0  0  0  0  0  0  0
   11.2397  -15.3193   20.5103 O   0  0  0  0  0  0  0  0  0  0  0  0
    9.0006  -15.7845   20.7097 O   0  0  0  0  0  0  0  0  0  0  0  0
  2  1  1  0
  3  2  1  0
  3  5  1  0
  3  4  1  1
  5  7  1  0
  5  6  1  6
  7  8  2  0
  9 10  1  0
 10 11  1  0
 11 13  1  0
 11 12  1  6
 13 14  1  1
 14  7  1  0
 15 16  2  0
 15 13  1  0
 17 18  1  0
 18 20  1  0
 18 19  2  0
 20 21  1  0
 22 21  1  6
 22 23  1  0
 22 24  1  0
 23 15  1  0
 24 25  1  0
 26 24  2  0
M  END
$$$$
