IIQ.pdb
     RDKit          3D

 26 25  0  0  1  0  0  0  0  0999 V2000
    7.0794  -21.8874   24.9350 C   0  0  0  0  0  0  0  0  0  0  0  0
    6.1774  -20.7399   24.5596 C   0  0  0  0  0  0  0  0  0  0  0  0
    6.9174  -19.4176   24.5650 C   0  0  2  0  0  0  0  0  0  0  0  0
    7.5113  -19.1817   25.9175 C   0  0  0  0  0  0  0  0  0  0  0  0
    5.9592  -18.2747   24.2244 C   0  0  2  0  0  0  0  0  0  0  0  0
    5.2538  -18.6547   23.0391 N   0  0  0  0  0  0  0  0  0  0  0  0
    6.7919  -17.0512   24.0249 C   0  0  0  0  0  0  0  0  0  0  0  0
    7.4784  -16.9291   23.0030 O   0  0  0  0  0  0  0  0  0  0  0  0
    5.0452  -12.3429   26.4637 C   0  0  0  0  0  0  0  0  0  0  0  0
    5.7232  -13.1073   25.3018 C   0  0  0  0  0  0  0  0  0  0  0  0
    7.0364  -13.7007   25.8063 C   0  0  2  0  0  0  0  0  0  0  0  0
    8.0360  -12.5503   25.6788 C   0  0  0  0  0  0  0  0  0  0  0  0
    7.5413  -14.8160   24.9466 C   0  0  2  0  0  0  0  0  0  0  0  0
    6.8064  -16.0359   24.9830 N   0  0  0  0  0  0  0  0  0  0  0  0
    8.9584  -15.0804   25.1938 C   0  0  0  0  0  0  0  0  0  0  0  0
    9.7930  -14.1480   25.1854 O   0  0  0  0  0  0  0  0  0  0  0  0
   10.9154  -16.7994   31.2430 N   0  0  0  0  0  0  0  0  0  0  0  0
   10.8269  -15.9077   30.1210 C   0  0  0  0  0  0  0  0  0  0  0  0
   10.4449  -14.7096   30.3086 O   0  0  0  0  0  0  0  0  0  0  0  0
   11.1790  -16.3635   28.7675 C   0  0  0  0  0  0  0  0  0  0  0  0
   10.2021  -16.0544   27.6983 C   0  0  0  0  0  0  0  0  0  0  0  0
   10.5679  -16.5777   26.3561 C   0  0  2  0  0  0  0  0  0  0  0  0
    9.4164  -16.3914   25.4471 N   0  0  0  0  0  0  0  0  0  0  0  0
   10.9544  -17.9813   26.2381 C   0  0  0  0  0  0  0  0  0  0  0  0
   12.2178  -18.4459   26.6596 O   0  0  0  0  0  0  0  0  0  0  0  0
   10.1500  -18.8225   25.7366 O   0  0  0  0  0  0  0  0  0  0  0  0
  2  1  1  0
  3  2  1  0
  3  5  1  0
  3  4  1  1
  5  7  1  0
  5  6  1  6
  7  8  2  0
  9 10  1  0
 10 11  1  0
 11 13  1  0
 11 12  1  6
 13 14  1  1
 14  7  1  0
 15 16  2  0
 15 13  1  0
 17 18  1  0
 18 20  1  0
 18 19  2  0
 20 21  1  0
 22 21  1  1
 22 23  1  0
 22 24  1  0
 23 15  1  0
 24 25  1  0
 26 24  2  0
M  END
$$$$
