IIQ.pdb
     RDKit          3D

 26 25  0  0  1  0  0  0  0  0999 V2000
   10.0698  -20.8783   15.0674 C   0  0  0  0  0  0  0  0  0  0  0  0
    9.4025  -19.5378   15.2389 C   0  0  0  0  0  0  0  0  0  0  0  0
    9.7556  -18.8993   16.5669 C   0  0  2  0  0  0  0  0  0  0  0  0
    9.4683  -19.8603   17.6766 C   0  0  0  0  0  0  0  0  0  0  0  0
    8.9366  -17.6240   16.7743 C   0  0  2  0  0  0  0  0  0  0  0  0
    9.1018  -16.8213   15.6016 N   0  0  0  0  0  0  0  0  0  0  0  0
    9.4679  -16.9581   18.0007 C   0  0  0  0  0  0  0  0  0  0  0  0
   10.6796  -16.9918   18.2482 O   0  0  0  0  0  0  0  0  0  0  0  0
    6.4531  -12.6434   20.0609 C   0  0  0  0  0  0  0  0  0  0  0  0
    7.6820  -13.4454   19.5702 C   0  0  0  0  0  0  0  0  0  0  0  0
    7.9524  -14.5793   20.5561 C   0  0  2  0  0  0  0  0  0  0  0  0
    8.5781  -13.8795   21.7634 C   0  0  0  0  0  0  0  0  0  0  0  0
    8.9591  -15.5641   20.0514 C   0  0  2  0  0  0  0  0  0  0  0  0
    8.6097  -16.2931   18.8783 N   0  0  0  0  0  0  0  0  0  0  0  0
    9.3773  -16.4873   21.1058 C   0  0  0  0  0  0  0  0  0  0  0  0
    8.6634  -17.4667   21.4173 O   0  0  0  0  0  0  0  0  0  0  0  0
   15.4024  -18.9209   23.2801 N   0  0  0  0  0  0  0  0  0  0  0  0
   14.1730  -19.4977   22.8132 C   0  0  0  0  0  0  0  0  0  0  0  0
   14.2142  -20.5135   22.0497 O   0  0  0  0  0  0  0  0  0  0  0  0
   12.8759  -18.9315   23.2139 C   0  0  0  0  0  0  0  0  0  0  0  0
   12.2770  -17.9462   22.2846 C   0  0  0  0  0  0  0  0  0  0  0  0
   11.0236  -17.3158   22.7752 C   0  0  2  0  0  0  0  0  0  0  0  0
   10.5940  -16.2949   21.7953 N   0  0  0  0  0  0  0  0  0  0  0  0
   11.0427  -16.6480   24.0741 C   0  0  0  0  0  0  0  0  0  0  0  0
   10.6716  -17.3134   25.2612 O   0  0  0  0  0  0  0  0  0  0  0  0
   11.3907  -15.4324   24.1592 O   0  0  0  0  0  0  0  0  0  0  0  0
  2  1  1  0
  3  2  1  0
  3  5  1  0
  3  4  1  1
  5  7  1  0
  5  6  1  6
  7  8  2  0
  9 10  1  0
 10 11  1  0
 11 13  1  0
 11 12  1  1
 13 14  1  6
 14  7  1  0
 15 16  2  0
 15 13  1  0
 17 18  1  0
 18 20  1  0
 18 19  2  0
 20 21  1  0
 22 21  1  6
 22 23  1  0
 22 24  1  0
 23 15  1  0
 24 25  1  0
 26 24  2  0
M  END
$$$$
