IIQ.pdb
     RDKit          3D

 26 25  0  0  1  0  0  0  0  0999 V2000
    6.2509  -18.2056   19.3398 C   0  0  0  0  0  0  0  0  0  0  0  0
    6.5302  -16.7466   19.5944 C   0  0  0  0  0  0  0  0  0  0  0  0
    7.1757  -16.5252   20.9473 C   0  0  2  0  0  0  0  0  0  0  0  0
    6.3875  -17.2370   22.0007 C   0  0  0  0  0  0  0  0  0  0  0  0
    7.2237  -15.0309   21.2715 C   0  0  2  0  0  0  0  0  0  0  0  0
    7.8797  -14.3828   20.1776 N   0  0  0  0  0  0  0  0  0  0  0  0
    7.9750  -14.8858   22.5538 C   0  0  0  0  0  0  0  0  0  0  0  0
    9.2014  -15.0476   22.5748 O   0  0  0  0  0  0  0  0  0  0  0  0
    5.9428  -11.3316   26.3646 C   0  0  0  0  0  0  0  0  0  0  0  0
    6.9833  -12.0653   25.4854 C   0  0  0  0  0  0  0  0  0  0  0  0
    7.1125  -13.5048   25.9776 C   0  0  2  0  0  0  0  0  0  0  0  0
    7.9515  -13.3872   27.2508 C   0  0  0  0  0  0  0  0  0  0  0  0
    7.8734  -14.3791   25.0318 C   0  0  2  0  0  0  0  0  0  0  0  0
    7.3075  -14.5679   23.7380 N   0  0  0  0  0  0  0  0  0  0  0  0
    8.1821  -15.6753   25.6347 C   0  0  0  0  0  0  0  0  0  0  0  0
    7.2813  -16.5236   25.8216 O   0  0  0  0  0  0  0  0  0  0  0  0
   13.5096  -19.3047   23.8704 N   0  0  0  0  0  0  0  0  0  0  0  0
   12.0964  -19.5590   23.8536 C   0  0  0  0  0  0  0  0  0  0  0  0
   11.5811  -20.1345   22.8437 O   0  0  0  0  0  0  0  0  0  0  0  0
   11.2476  -19.1688   24.9897 C   0  0  0  0  0  0  0  0  0  0  0  0
   10.6786  -17.8023   24.9422 C   0  0  0  0  0  0  0  0  0  0  0  0
    9.8774  -17.4242   26.1356 C   0  0  2  0  0  0  0  0  0  0  0  0
    9.5013  -15.9987   26.0191 N   0  0  0  0  0  0  0  0  0  0  0  0
   10.4818  -17.5772   27.4565 C   0  0  0  0  0  0  0  0  0  0  0  0
   11.2789  -16.5671   28.0343 O   0  0  0  0  0  0  0  0  0  0  0  0
   10.3057  -18.6445   28.1167 O   0  0  0  0  0  0  0  0  0  0  0  0
  2  1  1  0
  3  2  1  0
  3  5  1  0
  3  4  1  1
  5  7  1  0
  5  6  1  6
  7  8  2  0
  9 10  1  0
 10 11  1  0
 11 13  1  0
 11 12  1  1
 13 14  1  6
 14  7  1  0
 15 16  2  0
 15 13  1  0
 17 18  1  0
 18 20  1  0
 18 19  2  0
 20 21  1  0
 22 21  1  6
 22 23  1  0
 22 24  1  0
 23 15  1  0
 24 25  1  0
 26 24  2  0
M  END
$$$$
