IIQ.pdb
     RDKit          3D

 26 25  0  0  1  0  0  0  0  0999 V2000
    4.6538  -21.2156   25.1022 C   0  0  0  0  0  0  0  0  0  0  0  0
    5.1931  -20.8117   23.7541 C   0  0  0  0  0  0  0  0  0  0  0  0
    6.1541  -19.6449   23.8591 C   0  0  2  0  0  0  0  0  0  0  0  0
    7.0057  -19.8059   25.0783 C   0  0  0  0  0  0  0  0  0  0  0  0
    5.3793  -18.3290   23.9506 C   0  0  2  0  0  0  0  0  0  0  0  0
    4.4916  -18.2834   22.8295 N   0  0  0  0  0  0  0  0  0  0  0  0
    6.3862  -17.2265   23.9260 C   0  0  0  0  0  0  0  0  0  0  0  0
    7.0784  -17.0423   22.9174 O   0  0  0  0  0  0  0  0  0  0  0  0
    5.6860  -12.6294   27.1614 C   0  0  0  0  0  0  0  0  0  0  0  0
    6.0872  -13.4392   25.9055 C   0  0  0  0  0  0  0  0  0  0  0  0
    7.2590  -14.3500   26.2637 C   0  0  2  0  0  0  0  0  0  0  0  0
    8.4631  -13.4077   26.3001 C   0  0  0  0  0  0  0  0  0  0  0  0
    7.5406  -15.3788   25.2147 C   0  0  2  0  0  0  0  0  0  0  0  0
    6.5582  -16.3946   25.0339 N   0  0  0  0  0  0  0  0  0  0  0  0
    8.8573  -15.9867   25.4037 C   0  0  0  0  0  0  0  0  0  0  0  0
    9.0506  -16.8208   26.3164 O   0  0  0  0  0  0  0  0  0  0  0  0
   14.7980  -17.1357   21.2506 N   0  0  0  0  0  0  0  0  0  0  0  0
   13.3735  -17.2088   21.4162 C   0  0  0  0  0  0  0  0  0  0  0  0
   12.6260  -17.1687   20.3884 O   0  0  0  0  0  0  0  0  0  0  0  0
   12.7767  -17.3360   22.7546 C   0  0  0  0  0  0  0  0  0  0  0  0
   11.6072  -16.4715   23.0343 C   0  0  0  0  0  0  0  0  0  0  0  0
   11.0450  -16.6152   24.4026 C   0  0  2  0  0  0  0  0  0  0  0  0
    9.9386  -15.6471   24.5622 N   0  0  0  0  0  0  0  0  0  0  0  0
   11.9320  -16.4088   25.5445 C   0  0  0  0  0  0  0  0  0  0  0  0
   11.9495  -15.1974   26.2669 O   0  0  0  0  0  0  0  0  0  0  0  0
   12.7244  -17.3284   25.9088 O   0  0  0  0  0  0  0  0  0  0  0  0
  2  1  1  0
  3  2  1  0
  3  5  1  0
  3  4  1  1
  5  7  1  0
  5  6  1  6
  7  8  2  0
  9 10  1  0
 10 11  1  0
 11 13  1  0
 11 12  1  6
 13 14  1  1
 14  7  1  0
 15 16  2  0
 15 13  1  0
 17 18  1  0
 18 20  1  0
 18 19  2  0
 20 21  1  0
 22 21  1  6
 22 23  1  0
 22 24  1  0
 23 15  1  0
 24 25  1  0
 26 24  2  0
M  END
$$$$
