IRV.pdb
     RDKit          3D

 27 26  0  0  1  0  0  0  0  0999 V2000
    5.6278  -10.8192   27.6391 C   0  0  0  0  0  0  0  0  0  0  0  0
    5.0921  -12.0725   27.0587 C   0  0  0  0  0  0  0  0  0  0  0  0
    6.0795  -12.8477   26.2424 C   0  0  2  0  0  0  0  0  0  0  0  0
    6.5768  -11.9736   25.1194 C   0  0  0  0  0  0  0  0  0  0  0  0
    5.5209  -14.1194   25.6382 C   0  0  2  0  0  0  0  0  0  0  0  0
    4.9265  -14.9506   26.6771 N   0  0  0  0  0  0  0  0  0  0  0  0
    6.6980  -14.8220   25.0261 C   0  0  0  0  0  0  0  0  0  0  0  0
    7.5489  -15.4506   25.7512 O   0  0  0  0  0  0  0  0  0  0  0  0
   10.3781  -14.6003   18.3201 N   0  0  0  0  0  0  0  0  0  0  0  0
    9.1669  -14.5017   17.5252 C   0  0  0  0  0  0  0  0  0  0  0  0
    9.2052  -14.3650   16.2835 N   0  0  0  0  0  0  0  0  0  0  0  0
    7.9073  -14.5630   18.1735 N   0  0  0  0  0  0  0  0  0  0  0  0
    7.7473  -13.7975   19.4174 C   0  0  0  0  0  0  0  0  0  0  0  0
    8.4273  -14.6155   20.5177 C   0  0  0  0  0  0  0  0  0  0  0  0
    8.2145  -13.9291   21.8352 C   0  0  0  0  0  0  0  0  0  0  0  0
    8.1832  -14.9726   22.9720 C   0  0  2  0  0  0  0  0  0  0  0  0
    6.9367  -14.8345   23.6383 N   0  0  0  0  0  0  0  0  0  0  0  0
    9.4100  -14.8936   23.7607 C   0  0  0  0  0  0  0  0  0  0  0  0
   10.3476  -14.1283   23.5043 O   0  0  0  0  0  0  0  0  0  0  0  0
    8.4917  -14.3038   15.5737 C   0  0  0  0  0  0  0  0  0  0  0  0
   11.2897  -15.1889   28.2088 C   0  0  2  0  0  0  0  0  0  0  0  0
   10.1903  -15.0915   27.1844 C   0  0  0  0  0  0  0  0  0  0  0  0
    9.7601  -13.6639   27.0443 C   0  0  1  0  0  0  0  0  0  0  0  0
   10.6640  -15.6578   25.8340 N   0  0  0  0  0  0  0  0  0  0  0  0
    9.5444  -15.7473   24.9148 C   0  0  0  0  0  0  0  0  0  0  0  0
   11.3655  -16.9184   25.9985 O   0  0  0  0  0  0  0  0  0  0  0  0
   12.6460  -17.1449   26.4646 O   0  0  0  0  0  0  0  0  0  0  0  0
  2  1  1  0
  3  4  1  6
  3  2  1  0
  5  3  1  0
  5  6  1  1
  7  8  2  0
  7  5  1  0
  9 10  1  0
 10 12  1  0
 11 10  2  0
 12 13  1  0
 13 14  1  0
 14 15  1  0
 16 15  1  6
 16 17  1  0
 17  7  1  0
 18 16  1  0
 19 18  2  0
 21 20  1  1
 21 23  1  0
 21 22  1  0
 23 24  1  1
 24 18  1  0
 25 26  1  0
 25 23  1  0
 27 25  2  0
M  END
$$$$
