IRV.pdb
     RDKit          3D

 27 26  0  0  1  0  0  0  0  0999 V2000
    5.9469  -10.3676   26.4306 C   0  0  0  0  0  0  0  0  0  0  0  0
    5.3916  -11.5850   25.7949 C   0  0  0  0  0  0  0  0  0  0  0  0
    6.3861  -12.6862   25.5935 C   0  0  2  0  0  0  0  0  0  0  0  0
    7.4648  -12.2038   24.6575 C   0  0  0  0  0  0  0  0  0  0  0  0
    5.7955  -13.9565   25.0176 C   0  0  2  0  0  0  0  0  0  0  0  0
    4.6939  -14.4214   25.8508 N   0  0  0  0  0  0  0  0  0  0  0  0
    6.9124  -14.9596   25.0326 C   0  0  0  0  0  0  0  0  0  0  0  0
    7.3085  -15.4984   26.1269 O   0  0  0  0  0  0  0  0  0  0  0  0
   10.0280  -19.8986   19.5868 N   0  0  0  0  0  0  0  0  0  0  0  0
   11.3716  -19.6138   20.0582 C   0  0  0  0  0  0  0  0  0  0  0  0
   12.2545  -20.4974   20.0996 N   0  0  0  0  0  0  0  0  0  0  0  0
   11.6917  -18.2990   20.4817 N   0  0  0  0  0  0  0  0  0  0  0  0
   10.5873  -17.3371   20.5991 C   0  0  0  0  0  0  0  0  0  0  0  0
   10.2279  -17.2724   22.0854 C   0  0  0  0  0  0  0  0  0  0  0  0
    9.0577  -16.3496   22.2624 C   0  0  0  0  0  0  0  0  0  0  0  0
    8.7127  -16.2206   23.7613 C   0  0  2  0  0  0  0  0  0  0  0  0
    7.5838  -15.3650   23.8631 N   0  0  0  0  0  0  0  0  0  0  0  0
    9.9120  -15.8895   24.5264 C   0  0  0  0  0  0  0  0  0  0  0  0
   10.7574  -15.0632   24.1617 O   0  0  0  0  0  0  0  0  0  0  0  0
   13.2291  -20.4875   20.3580 C   0  0  0  0  0  0  0  0  0  0  0  0
    9.3360  -15.6447   28.5306 C   0  0  2  0  0  0  0  0  0  0  0  0
   10.3948  -15.0076   27.6701 C   0  0  0  0  0  0  0  0  0  0  0  0
   11.4004  -14.3183   28.5398 C   0  0  1  0  0  0  0  0  0  0  0  0
   11.0711  -16.0658   26.7805 N   0  0  0  0  0  0  0  0  0  0  0  0
   10.1303  -16.5524   25.7881 C   0  0  0  0  0  0  0  0  0  0  0  0
   11.6637  -17.1302   27.5706 O   0  0  0  0  0  0  0  0  0  0  0  0
   12.8617  -17.1368   28.2583 O   0  0  0  0  0  0  0  0  0  0  0  0
  2  1  1  0
  3  4  1  6
  3  2  1  0
  5  3  1  0
  5  6  1  1
  7  8  2  0
  7  5  1  0
  9 10  1  0
 10 12  1  0
 11 10  2  0
 12 13  1  0
 13 14  1  0
 14 15  1  0
 16 15  1  6
 16 17  1  0
 17  7  1  0
 18 16  1  0
 19 18  2  0
 21 20  1  6
 21 23  1  0
 21 22  1  0
 23 24  1  6
 24 18  1  0
 25 26  1  0
 25 23  1  0
 27 25  2  0
M  END
$$$$
