IRV.pdb
     RDKit          3D

 27 26  0  0  1  0  0  0  0  0999 V2000
    4.8282  -10.5787   28.0764 C   0  0  0  0  0  0  0  0  0  0  0  0
    5.3345  -10.8586   26.7125 C   0  0  0  0  0  0  0  0  0  0  0  0
    6.1476  -12.1109   26.5995 C   0  0  2  0  0  0  0  0  0  0  0  0
    7.1392  -12.1526   27.7342 C   0  0  0  0  0  0  0  0  0  0  0  0
    6.9137  -12.2368   25.2990 C   0  0  2  0  0  0  0  0  0  0  0  0
    6.0601  -11.8721   24.1755 N   0  0  0  0  0  0  0  0  0  0  0  0
    7.3031  -13.6835   25.2024 C   0  0  0  0  0  0  0  0  0  0  0  0
    7.5936  -14.3659   26.2487 O   0  0  0  0  0  0  0  0  0  0  0  0
    9.0242  -16.1993   17.5643 N   0  0  0  0  0  0  0  0  0  0  0  0
    9.0149  -15.0002   18.3833 C   0  0  0  0  0  0  0  0  0  0  0  0
    8.8896  -13.8626   17.8812 N   0  0  0  0  0  0  0  0  0  0  0  0
    9.1502  -15.1220   19.7895 N   0  0  0  0  0  0  0  0  0  0  0  0
    9.8281  -16.3199   20.3038 C   0  0  0  0  0  0  0  0  0  0  0  0
    9.1831  -16.6333   21.6559 C   0  0  0  0  0  0  0  0  0  0  0  0
    8.3721  -15.4488   22.0934 C   0  0  0  0  0  0  0  0  0  0  0  0
    8.2276  -15.4500   23.6301 C   0  0  2  0  0  0  0  0  0  0  0  0
    7.3720  -14.3704   23.9750 N   0  0  0  0  0  0  0  0  0  0  0  0
    9.5439  -15.5272   24.2586 C   0  0  0  0  0  0  0  0  0  0  0  0
   10.5636  -15.0050   23.7917 O   0  0  0  0  0  0  0  0  0  0  0  0
    8.8954  -12.9322   18.2700 C   0  0  0  0  0  0  0  0  0  0  0  0
   10.3416  -14.3828   27.6280 C   0  0  2  0  0  0  0  0  0  0  0  0
   10.7716  -15.8257   27.6512 C   0  0  0  0  0  0  0  0  0  0  0  0
    9.7702  -16.6355   28.4154 C   0  0  2  0  0  0  0  0  0  0  0  0
   10.9314  -16.3607   26.2169 N   0  0  0  0  0  0  0  0  0  0  0  0
    9.6734  -16.2447   25.5025 C   0  0  0  0  0  0  0  0  0  0  0  0
   11.4685  -17.7097   26.2053 O   0  0  0  0  0  0  0  0  0  0  0  0
   12.7190  -18.1495   26.5937 O   0  0  0  0  0  0  0  0  0  0  0  0
  2  1  1  0
  3  4  1  1
  3  2  1  0
  5  3  1  0
  5  6  1  6
  7  8  2  0
  7  5  1  0
  9 10  1  0
 10 12  1  0
 11 10  2  0
 12 13  1  0
 13 14  1  0
 14 15  1  0
 16 15  1  6
 16 17  1  0
 17  7  1  0
 18 16  1  0
 19 18  2  0
 21 20  1  1
 21 23  1  0
 21 22  1  0
 23 24  1  6
 24 18  1  0
 25 26  1  0
 25 23  1  0
 27 25  2  0
M  END
$$$$
