IRV.pdb
     RDKit          3D

 27 26  0  0  1  0  0  0  0  0999 V2000
    5.7002  -11.2778   26.5186 C   0  0  0  0  0  0  0  0  0  0  0  0
    5.5006  -12.4379   25.6191 C   0  0  0  0  0  0  0  0  0  0  0  0
    6.6766  -13.3605   25.5294 C   0  0  2  0  0  0  0  0  0  0  0  0
    7.8049  -12.6457   24.8305 C   0  0  0  0  0  0  0  0  0  0  0  0
    6.3984  -14.6476   24.7808 C   0  0  2  0  0  0  0  0  0  0  0  0
    5.1838  -15.2722   25.2892 N   0  0  0  0  0  0  0  0  0  0  0  0
    7.5830  -15.5301   25.0485 C   0  0  0  0  0  0  0  0  0  0  0  0
    7.7495  -16.0934   26.1886 O   0  0  0  0  0  0  0  0  0  0  0  0
   10.4464  -20.3228   21.2758 N   0  0  0  0  0  0  0  0  0  0  0  0
    9.6824  -19.8999   20.1156 C   0  0  0  0  0  0  0  0  0  0  0  0
    9.0294  -20.7130   19.4268 N   0  0  0  0  0  0  0  0  0  0  0  0
    9.6752  -18.5287   19.7545 N   0  0  0  0  0  0  0  0  0  0  0  0
   10.4445  -17.6022   20.5963 C   0  0  0  0  0  0  0  0  0  0  0  0
    9.7882  -17.6294   21.9787 C   0  0  0  0  0  0  0  0  0  0  0  0
   10.4505  -16.6034   22.8511 C   0  0  0  0  0  0  0  0  0  0  0  0
    9.7554  -16.5577   24.2284 C   0  0  2  0  0  0  0  0  0  0  0  0
    8.5699  -15.7902   24.0782 N   0  0  0  0  0  0  0  0  0  0  0  0
   10.7124  -16.1710   25.2618 C   0  0  0  0  0  0  0  0  0  0  0  0
   11.7472  -15.5303   25.0396 O   0  0  0  0  0  0  0  0  0  0  0  0
    8.4653  -20.6174   18.5965 C   0  0  0  0  0  0  0  0  0  0  0  0
   10.4689  -13.8988   27.7608 C   0  0  2  0  0  0  0  0  0  0  0  0
   10.7534  -15.1197   28.5950 C   0  0  0  0  0  0  0  0  0  0  0  0
    9.4938  -15.5738   29.2656 C   0  0  2  0  0  0  0  0  0  0  0  0
   11.3455  -16.2399   27.7214 N   0  0  0  0  0  0  0  0  0  0  0  0
   10.4414  -16.5448   26.6277 C   0  0  0  0  0  0  0  0  0  0  0  0
   11.6946  -17.4071   28.5113 O   0  0  0  0  0  0  0  0  0  0  0  0
   12.6947  -17.5503   29.4534 O   0  0  0  0  0  0  0  0  0  0  0  0
  2  1  1  0
  3  4  1  6
  3  2  1  0
  5  3  1  0
  5  6  1  1
  7  8  2  0
  7  5  1  0
  9 10  1  0
 10 12  1  0
 11 10  2  0
 12 13  1  0
 13 14  1  0
 14 15  1  0
 16 15  1  6
 16 17  1  0
 17  7  1  0
 18 16  1  0
 19 18  2  0
 21 20  1  1
 21 23  1  0
 21 22  1  0
 23 24  1  1
 24 18  1  0
 25 26  1  0
 25 23  1  0
 27 25  2  0
M  END
$$$$
