IRV.pdb
     RDKit          3D

 27 26  0  0  1  0  0  0  0  0999 V2000
    7.6230  -11.7513   18.3370 C   0  0  0  0  0  0  0  0  0  0  0  0
    8.2174  -13.1083   18.3449 C   0  0  0  0  0  0  0  0  0  0  0  0
    8.0168  -13.8640   19.6219 C   0  0  2  0  0  0  0  0  0  0  0  0
    8.5984  -13.0631   20.7589 C   0  0  0  0  0  0  0  0  0  0  0  0
    8.6569  -15.2368   19.6363 C   0  0  2  0  0  0  0  0  0  0  0  0
    8.1322  -16.0473   18.5448 N   0  0  0  0  0  0  0  0  0  0  0  0
    8.2766  -15.8415   20.9567 C   0  0  0  0  0  0  0  0  0  0  0  0
    7.1217  -16.3682   21.1398 O   0  0  0  0  0  0  0  0  0  0  0  0
   12.3031  -19.3285   22.8918 N   0  0  0  0  0  0  0  0  0  0  0  0
   11.7396  -19.9586   21.7111 C   0  0  0  0  0  0  0  0  0  0  0  0
   12.4345  -20.2023   20.7013 N   0  0  0  0  0  0  0  0  0  0  0  0
   10.3654  -20.3080   21.7029 N   0  0  0  0  0  0  0  0  0  0  0  0
    9.6070  -20.1044   22.9448 C   0  0  0  0  0  0  0  0  0  0  0  0
    8.8637  -18.7763   22.7834 C   0  0  0  0  0  0  0  0  0  0  0  0
    9.6205  -17.7045   23.5122 C   0  0  0  0  0  0  0  0  0  0  0  0
    8.8881  -16.3537   23.3675 C   0  0  2  0  0  0  0  0  0  0  0  0
    9.1521  -15.8678   22.0594 N   0  0  0  0  0  0  0  0  0  0  0  0
    9.1917  -15.4927   24.5076 C   0  0  0  0  0  0  0  0  0  0  0  0
   10.3240  -15.3548   24.9865 O   0  0  0  0  0  0  0  0  0  0  0  0
   12.2241  -20.5976   19.7979 C   0  0  0  0  0  0  0  0  0  0  0  0
    5.8658  -13.6019   26.6448 C   0  0  2  0  0  0  0  0  0  0  0  0
    7.1380  -12.8602   26.3309 C   0  0  0  0  0  0  0  0  0  0  0  0
    7.3895  -11.8266   27.3850 C   0  0  1  0  0  0  0  0  0  0  0  0
    8.3197  -13.8411   26.2301 N   0  0  0  0  0  0  0  0  0  0  0  0
    8.1172  -14.7469   25.1143 C   0  0  0  0  0  0  0  0  0  0  0  0
    8.5514  -14.5312   27.4865 O   0  0  0  0  0  0  0  0  0  0  0  0
    9.2515  -14.1011   28.5969 O   0  0  0  0  0  0  0  0  0  0  0  0
  2  1  1  0
  3  4  1  1
  3  2  1  0
  5  3  1  0
  5  6  1  6
  7  8  2  0
  7  5  1  0
  9 10  1  0
 10 12  1  0
 11 10  2  0
 12 13  1  0
 13 14  1  0
 14 15  1  0
 16 15  1  1
 16 17  1  0
 17  7  1  0
 18 16  1  0
 19 18  2  0
 21 20  1  6
 21 23  1  0
 21 22  1  0
 23 24  1  6
 24 18  1  0
 25 26  1  0
 25 23  1  0
 27 25  2  0
M  END
$$$$
