IRV.pdb
     RDKit          3D

 27 26  0  0  1  0  0  0  0  0999 V2000
    7.0813  -11.8488   18.4189 C   0  0  0  0  0  0  0  0  0  0  0  0
    7.8887  -13.0883   18.5000 C   0  0  0  0  0  0  0  0  0  0  0  0
    7.8986  -13.7328   19.8516 C   0  0  2  0  0  0  0  0  0  0  0  0
    8.5682  -12.8023   20.8306 C   0  0  0  0  0  0  0  0  0  0  0  0
    8.6195  -15.0641   19.8978 C   0  0  2  0  0  0  0  0  0  0  0  0
    8.0639  -15.9713   18.9017 N   0  0  0  0  0  0  0  0  0  0  0  0
    8.3771  -15.6026   21.2780 C   0  0  0  0  0  0  0  0  0  0  0  0
    7.1983  -15.9199   21.6713 O   0  0  0  0  0  0  0  0  0  0  0  0
   12.1435  -22.1113   22.8550 N   0  0  0  0  0  0  0  0  0  0  0  0
   10.9823  -21.9455   21.9990 C   0  0  0  0  0  0  0  0  0  0  0  0
   10.6323  -22.8296   21.1880 N   0  0  0  0  0  0  0  0  0  0  0  0
   10.2244  -20.7502   22.0854 N   0  0  0  0  0  0  0  0  0  0  0  0
   10.6833  -19.7237   23.0312 C   0  0  0  0  0  0  0  0  0  0  0  0
    9.7614  -18.5172   22.8389 C   0  0  0  0  0  0  0  0  0  0  0  0
   10.1924  -17.4231   23.7714 C   0  0  0  0  0  0  0  0  0  0  0  0
    9.2981  -16.1810   23.5726 C   0  0  2  0  0  0  0  0  0  0  0  0
    9.4140  -15.7902   22.2122 N   0  0  0  0  0  0  0  0  0  0  0  0
    9.5748  -15.1910   24.6103 C   0  0  0  0  0  0  0  0  0  0  0  0
   10.6300  -14.5501   24.6893 O   0  0  0  0  0  0  0  0  0  0  0  0
    9.8774  -22.8960   20.5228 C   0  0  0  0  0  0  0  0  0  0  0  0
    7.6241  -12.1360   25.4720 C   0  0  2  0  0  0  0  0  0  0  0  0
    7.6074  -12.9729   26.7237 C   0  0  0  0  0  0  0  0  0  0  0  0
    6.2815  -13.6570   26.8523 C   0  0  2  0  0  0  0  0  0  0  0  0
    8.7548  -13.9983   26.6984 N   0  0  0  0  0  0  0  0  0  0  0  0
    8.5617  -14.9300   25.6024 C   0  0  0  0  0  0  0  0  0  0  0  0
    8.9124  -14.6574   27.9825 O   0  0  0  0  0  0  0  0  0  0  0  0
    9.3680  -14.1338   29.1769 O   0  0  0  0  0  0  0  0  0  0  0  0
  2  1  1  0
  3  4  1  1
  3  2  1  0
  5  3  1  0
  5  6  1  6
  7  8  2  0
  7  5  1  0
  9 10  1  0
 10 12  1  0
 11 10  2  0
 12 13  1  0
 13 14  1  0
 14 15  1  0
 16 15  1  1
 16 17  1  0
 17  7  1  0
 18 16  1  0
 19 18  2  0
 21 20  1  1
 21 23  1  0
 21 22  1  0
 23 24  1  1
 24 18  1  0
 25 26  1  0
 25 23  1  0
 27 25  2  0
M  END
$$$$
