TAS.pdb
     RDKit          3D

 19 18  0  0  1  0  0  0  0  0999 V2000
   23.3514  -21.3501   -8.7010 C   0  0  0  0  0  0  0  0  0  0  0  0
   23.8808  -20.9022  -10.0389 C   0  0  1  0  0  0  0  0  0  0  0  0
   23.3913  -19.6356  -10.3204 O   0  0  0  0  0  0  0  0  0  0  0  0
   25.4042  -20.8738   -9.9765 C   0  0  2  0  0  0  0  0  0  0  0  0
   25.8164  -20.1079   -8.8419 N   0  0  0  0  0  0  0  0  0  0  0  0
   26.0108  -20.4250  -11.2387 C   0  0  0  0  0  0  0  0  0  0  0  0
   26.5210  -19.2706  -11.3858 O   0  0  0  0  0  0  0  0  0  0  0  0
   26.8582  -22.1048  -14.5253 C   0  0  0  0  0  0  0  0  0  0  0  0
   26.5199  -20.9208  -13.6549 C   0  0  2  0  0  0  0  0  0  0  0  0
   26.0341  -21.3105  -12.3500 N   0  0  0  0  0  0  0  0  0  0  0  0
   25.5866  -19.9859  -14.3401 C   0  0  0  0  0  0  0  0  0  0  0  0
   24.3403  -20.0361  -14.1740 O   0  0  0  0  0  0  0  0  0  0  0  0
   27.0928  -16.4572  -15.4994 O   0  0  0  0  0  0  0  0  0  0  0  0
   26.2480  -16.9652  -16.4703 C   0  0  0  0  0  0  0  0  0  0  0  0
   25.2918  -18.0105  -15.8899 C   0  0  2  0  0  0  0  0  0  0  0  0
   26.0828  -18.9870  -15.2212 N   0  0  0  0  0  0  0  0  0  0  0  0
   24.5887  -18.6297  -17.0352 C   0  0  0  0  0  0  0  0  0  0  0  0
   23.4983  -17.9879  -17.5810 O   0  0  0  0  0  0  0  0  0  0  0  0
   25.0005  -19.7177  -17.4786 O   0  0  0  0  0  0  0  0  0  0  0  0
  2  3  1  0
  2  1  1  1
  4  2  1  0
  4  5  1  1
  6  4  1  0
  6 10  1  0
  7  6  2  0
  9  8  1  6
  9 10  1  0
  9 11  1  0
 11 12  2  0
 13 14  1  0
 15 14  1  6
 15 17  1  0
 16 11  1  0
 16 15  1  0
 17 18  1  0
 19 17  2  0
M  END
$$$$
