TAS.pdb
     RDKit          3D

 19 18  0  0  1  0  0  0  0  0999 V2000
   18.1006   -8.6178  -19.0972 C   0  0  0  0  0  0  0  0  0  0  0  0
   17.6486   -9.8331  -18.3292 C   0  0  1  0  0  0  0  0  0  0  0  0
   16.8352  -10.6078  -19.1423 O   0  0  0  0  0  0  0  0  0  0  0  0
   18.8788  -10.6291  -17.9068 C   0  0  2  0  0  0  0  0  0  0  0  0
   18.4715  -11.9205  -17.4486 N   0  0  0  0  0  0  0  0  0  0  0  0
   19.7157   -9.9013  -16.9411 C   0  0  0  0  0  0  0  0  0  0  0  0
   19.2591   -9.4247  -15.8553 O   0  0  0  0  0  0  0  0  0  0  0  0
   23.4065   -8.9809  -16.8147 C   0  0  0  0  0  0  0  0  0  0  0  0
   21.9554   -8.8751  -16.4182 C   0  0  2  0  0  0  0  0  0  0  0  0
   21.0964   -9.7158  -17.2219 N   0  0  0  0  0  0  0  0  0  0  0  0
   21.4935   -7.4605  -16.4022 C   0  0  0  0  0  0  0  0  0  0  0  0
   21.1752   -6.8440  -17.4520 O   0  0  0  0  0  0  0  0  0  0  0  0
   18.7186   -5.7835  -14.6921 O   0  0  0  0  0  0  0  0  0  0  0  0
   19.8626   -5.2690  -14.1082 C   0  0  0  0  0  0  0  0  0  0  0  0
   21.0655   -5.3679  -15.0501 C   0  0  2  0  0  0  0  0  0  0  0  0
   21.3952   -6.7468  -15.1770 N   0  0  0  0  0  0  0  0  0  0  0  0
   22.1786   -4.6414  -14.3999 C   0  0  0  0  0  0  0  0  0  0  0  0
   22.1410   -3.2651  -14.3441 O   0  0  0  0  0  0  0  0  0  0  0  0
   23.1237   -5.2929  -13.9182 O   0  0  0  0  0  0  0  0  0  0  0  0
  2  3  1  0
  2  1  1  6
  4  2  1  0
  4  5  1  1
  6  4  1  0
  6 10  1  0
  7  6  2  0
  9  8  1  6
  9 10  1  0
  9 11  1  0
 11 12  2  0
 13 14  1  0
 15 14  1  1
 15 17  1  0
 16 11  1  0
 16 15  1  0
 17 18  1  0
 19 17  2  0
M  END
$$$$
