TAS.pdb
     RDKit          3D

 19 18  0  0  1  0  0  0  0  0999 V2000
   23.5399  -11.6114  -14.3703 C   0  0  0  0  0  0  0  0  0  0  0  0
   23.7939  -12.0615  -15.7859 C   0  0  1  0  0  0  0  0  0  0  0  0
   24.3718  -13.3220  -15.7652 O   0  0  0  0  0  0  0  0  0  0  0  0
   22.4637  -12.1065  -16.5300 C   0  0  2  0  0  0  0  0  0  0  0  0
   22.6547  -12.7305  -17.8020 N   0  0  0  0  0  0  0  0  0  0  0  0
   21.8216  -10.7861  -16.6151 C   0  0  0  0  0  0  0  0  0  0  0  0
   22.3583   -9.7956  -17.2029 O   0  0  0  0  0  0  0  0  0  0  0  0
   18.4017   -9.4369  -15.7006 C   0  0  0  0  0  0  0  0  0  0  0  0
   19.8775   -9.3143  -15.9852 C   0  0  2  0  0  0  0  0  0  0  0  0
   20.5459  -10.5960  -16.0186 N   0  0  0  0  0  0  0  0  0  0  0  0
   20.5391   -8.3655  -15.0488 C   0  0  0  0  0  0  0  0  0  0  0  0
   21.1620   -8.7525  -14.0262 O   0  0  0  0  0  0  0  0  0  0  0  0
   23.1780   -4.6930  -14.4753 O   0  0  0  0  0  0  0  0  0  0  0  0
   22.5196   -5.7342  -15.1053 C   0  0  0  0  0  0  0  0  0  0  0  0
   21.1352   -5.9718  -14.4962 C   0  0  2  0  0  0  0  0  0  0  0  0
   20.4876   -6.9647  -15.2842 N   0  0  0  0  0  0  0  0  0  0  0  0
   20.3994   -4.6918  -14.5943 C   0  0  0  0  0  0  0  0  0  0  0  0
   20.4684   -3.7953  -13.5501 O   0  0  0  0  0  0  0  0  0  0  0  0
   19.7347   -4.4556  -15.6200 O   0  0  0  0  0  0  0  0  0  0  0  0
  2  3  1  0
  2  1  1  1
  4  2  1  0
  4  5  1  6
  6  4  1  0
  6 10  1  0
  7  6  2  0
  9  8  1  1
  9 10  1  0
  9 11  1  0
 11 12  2  0
 13 14  1  0
 15 14  1  6
 15 17  1  0
 16 11  1  0
 16 15  1  0
 17 18  1  0
 19 17  2  0
M  END
$$$$
