TAS.pdb
     RDKit          3D

 19 18  0  0  1  0  0  0  0  0999 V2000
   15.5659   -9.7253  -16.2919 C   0  0  0  0  0  0  0  0  0  0  0  0
   16.6567  -10.7642  -16.3347 C   0  0  1  0  0  0  0  0  0  0  0  0
   16.2227  -11.8482  -17.0829 O   0  0  0  0  0  0  0  0  0  0  0  0
   17.8946  -10.1463  -16.9759 C   0  0  2  0  0  0  0  0  0  0  0  0
   18.6072  -11.1550  -17.6959 N   0  0  0  0  0  0  0  0  0  0  0  0
   18.7272   -9.4193  -16.0059 C   0  0  0  0  0  0  0  0  0  0  0  0
   18.2549   -8.5533  -15.2049 O   0  0  0  0  0  0  0  0  0  0  0  0
   22.4061   -9.5861  -15.0492 C   0  0  0  0  0  0  0  0  0  0  0  0
   21.0215   -8.9888  -15.0606 C   0  0  2  0  0  0  0  0  0  0  0  0
   20.1217   -9.6872  -15.9513 N   0  0  0  0  0  0  0  0  0  0  0  0
   21.0576   -7.5273  -15.3391 C   0  0  0  0  0  0  0  0  0  0  0  0
   21.0073   -7.0628  -16.5074 O   0  0  0  0  0  0  0  0  0  0  0  0
   19.9749   -3.1747  -14.3761 O   0  0  0  0  0  0  0  0  0  0  0  0
   19.9239   -4.5503  -14.2360 C   0  0  0  0  0  0  0  0  0  0  0  0
   21.3049   -5.1841  -14.4232 C   0  0  2  0  0  0  0  0  0  0  0  0
   21.1518   -6.5913  -14.2735 N   0  0  0  0  0  0  0  0  0  0  0  0
   22.1685   -4.6537  -13.3451 C   0  0  0  0  0  0  0  0  0  0  0  0
   22.7790   -3.4299  -13.5139 O   0  0  0  0  0  0  0  0  0  0  0  0
   22.3227   -5.3275  -12.3098 O   0  0  0  0  0  0  0  0  0  0  0  0
  2  3  1  0
  2  1  1  6
  4  2  1  0
  4  5  1  1
  6  4  1  0
  6 10  1  0
  7  6  2  0
  9  8  1  6
  9 10  1  0
  9 11  1  0
 11 12  2  0
 13 14  1  0
 15 14  1  1
 15 17  1  0
 16 11  1  0
 16 15  1  0
 17 18  1  0
 19 17  2  0
M  END
$$$$
