TAS.pdb
     RDKit          3D

 19 18  0  0  1  0  0  0  0  0999 V2000
   14.6857  -11.0647  -16.2261 C   0  0  0  0  0  0  0  0  0  0  0  0
   15.0463  -10.1057  -15.1210 C   0  0  1  0  0  0  0  0  0  0  0  0
   14.2053  -10.3216  -14.0396 O   0  0  0  0  0  0  0  0  0  0  0  0
   16.4957  -10.3509  -14.7153 C   0  0  2  0  0  0  0  0  0  0  0  0
   16.6574  -11.7225  -14.3462 N   0  0  0  0  0  0  0  0  0  0  0  0
   16.9592   -9.4081  -13.6863 C   0  0  0  0  0  0  0  0  0  0  0  0
   16.8342   -9.6306  -12.4415 O   0  0  0  0  0  0  0  0  0  0  0  0
   18.8583   -6.1175  -13.7826 C   0  0  0  0  0  0  0  0  0  0  0  0
   17.9889   -7.1737  -13.1480 C   0  0  2  0  0  0  0  0  0  0  0  0
   17.5754   -8.1920  -14.0875 N   0  0  0  0  0  0  0  0  0  0  0  0
   16.8306   -6.5727  -12.4326 C   0  0  0  0  0  0  0  0  0  0  0  0
   15.7026   -6.4354  -12.9731 O   0  0  0  0  0  0  0  0  0  0  0  0
   16.3755   -6.6235   -8.3234 O   0  0  0  0  0  0  0  0  0  0  0  0
   16.4269   -5.3654   -8.8971 C   0  0  0  0  0  0  0  0  0  0  0  0
   15.9809   -5.3987  -10.3613 C   0  0  2  0  0  0  0  0  0  0  0  0
   16.9640   -6.1258  -11.0900 N   0  0  0  0  0  0  0  0  0  0  0  0
   15.9427   -3.9954  -10.8288 C   0  0  0  0  0  0  0  0  0  0  0  0
   14.9504   -3.1593  -10.3649 O   0  0  0  0  0  0  0  0  0  0  0  0
   16.8099   -3.6035  -11.6314 O   0  0  0  0  0  0  0  0  0  0  0  0
  2  3  1  0
  2  1  1  6
  4  2  1  0
  4  5  1  1
  6  4  1  0
  6 10  1  0
  7  6  2  0
  9  8  1  6
  9 10  1  0
  9 11  1  0
 11 12  2  0
 13 14  1  0
 15 14  1  1
 15 17  1  0
 16 11  1  0
 16 15  1  0
 17 18  1  0
 19 17  2  0
M  END
$$$$
