TAS.pdb
     RDKit          3D

 19 18  0  0  1  0  0  0  0  0999 V2000
   16.5942  -11.7105  -17.1588 C   0  0  0  0  0  0  0  0  0  0  0  0
   17.6304  -10.7199  -16.6939 C   0  0  1  0  0  0  0  0  0  0  0  0
   17.3636  -10.3663  -15.3798 O   0  0  0  0  0  0  0  0  0  0  0  0
   19.0063  -11.3699  -16.7932 C   0  0  2  0  0  0  0  0  0  0  0  0
   19.0046  -12.5945  -16.0556 N   0  0  0  0  0  0  0  0  0  0  0  0
   20.0903  -10.4543  -16.4072 C   0  0  0  0  0  0  0  0  0  0  0  0
   20.4117  -10.2384  -15.1969 O   0  0  0  0  0  0  0  0  0  0  0  0
   22.7217   -8.5208  -18.3407 C   0  0  0  0  0  0  0  0  0  0  0  0
   21.8756   -8.8325  -17.1320 C   0  0  2  0  0  0  0  0  0  0  0  0
   20.8180   -9.7751  -17.4214 N   0  0  0  0  0  0  0  0  0  0  0  0
   21.3571   -7.5932  -16.4917 C   0  0  0  0  0  0  0  0  0  0  0  0
   20.2907   -7.0384  -16.8636 O   0  0  0  0  0  0  0  0  0  0  0  0
   22.1242   -4.6240  -12.6822 O   0  0  0  0  0  0  0  0  0  0  0  0
   22.4841   -5.7222  -13.4430 C   0  0  0  0  0  0  0  0  0  0  0  0
   21.6638   -5.8033  -14.7331 C   0  0  2  0  0  0  0  0  0  0  0  0
   22.0637   -6.9848  -15.4189 N   0  0  0  0  0  0  0  0  0  0  0  0
   22.0129   -4.6113  -15.5374 C   0  0  0  0  0  0  0  0  0  0  0  0
   23.1169   -4.6560  -16.3609 O   0  0  0  0  0  0  0  0  0  0  0  0
   21.2991   -3.5951  -15.4502 O   0  0  0  0  0  0  0  0  0  0  0  0
  2  3  1  0
  2  1  1  1
  4  2  1  0
  4  5  1  1
  6  4  1  0
  6 10  1  0
  7  6  2  0
  9  8  1  6
  9 10  1  0
  9 11  1  0
 11 12  2  0
 13 14  1  0
 15 14  1  1
 15 17  1  0
 16 11  1  0
 16 15  1  0
 17 18  1  0
 19 17  2  0
M  END
$$$$
