TAS.pdb
     RDKit          3D

 19 18  0  0  1  0  0  0  0  0999 V2000
   15.6185  -11.7595  -16.3394 C   0  0  0  0  0  0  0  0  0  0  0  0
   16.7062  -10.7683  -16.0150 C   0  0  1  0  0  0  0  0  0  0  0  0
   16.6582  -10.4674  -14.6622 O   0  0  0  0  0  0  0  0  0  0  0  0
   18.0537  -11.3897  -16.3666 C   0  0  2  0  0  0  0  0  0  0  0  0
   18.2209  -12.6033  -15.6297 N   0  0  0  0  0  0  0  0  0  0  0  0
   19.1689  -10.4453  -16.2022 C   0  0  0  0  0  0  0  0  0  0  0  0
   19.9118  -10.4291  -15.1714 O   0  0  0  0  0  0  0  0  0  0  0  0
   20.8668   -7.9677  -18.5134 C   0  0  0  0  0  0  0  0  0  0  0  0
   20.5305   -8.5594  -17.1677 C   0  0  2  0  0  0  0  0  0  0  0  0
   19.4385   -9.5049  -17.2330 N   0  0  0  0  0  0  0  0  0  0  0  0
   20.2912   -7.5018  -16.1484 C   0  0  0  0  0  0  0  0  0  0  0  0
   19.1408   -7.0611  -15.8924 O   0  0  0  0  0  0  0  0  0  0  0  0
   22.6117   -4.9852  -12.6448 O   0  0  0  0  0  0  0  0  0  0  0  0
   22.6495   -5.8141  -13.7520 C   0  0  0  0  0  0  0  0  0  0  0  0
   21.2586   -5.9919  -14.3666 C   0  0  2  0  0  0  0  0  0  0  0  0
   21.3756   -6.9449  -15.4174 N   0  0  0  0  0  0  0  0  0  0  0  0
   20.8644   -4.6775  -14.9200 C   0  0  0  0  0  0  0  0  0  0  0  0
   20.0983   -3.8275  -14.1523 O   0  0  0  0  0  0  0  0  0  0  0  0
   21.2355   -4.3710  -16.0681 O   0  0  0  0  0  0  0  0  0  0  0  0
  2  3  1  0
  2  1  1  1
  4  2  1  0
  4  5  1  1
  6  4  1  0
  6 10  1  0
  7  6  2  0
  9  8  1  6
  9 10  1  0
  9 11  1  0
 11 12  2  0
 13 14  1  0
 15 14  1  6
 15 17  1  0
 16 11  1  0
 16 15  1  0
 17 18  1  0
 19 17  2  0
M  END
$$$$
