TAS.pdb
     RDKit          3D

 19 18  0  0  1  0  0  0  0  0999 V2000
   19.5872  -10.5575  -19.0129 C   0  0  0  0  0  0  0  0  0  0  0  0
   18.8650   -9.2433  -18.8636 C   0  0  1  0  0  0  0  0  0  0  0  0
   17.4988   -9.4774  -18.8239 O   0  0  0  0  0  0  0  0  0  0  0  0
   19.3214   -8.5798  -17.5687 C   0  0  2  0  0  0  0  0  0  0  0  0
   18.9105   -9.3800  -16.4576 N   0  0  0  0  0  0  0  0  0  0  0  0
   18.8899   -7.1772  -17.4727 C   0  0  0  0  0  0  0  0  0  0  0  0
   19.2886   -6.2771  -18.2762 O   0  0  0  0  0  0  0  0  0  0  0  0
   16.2062   -5.3209  -15.6151 C   0  0  0  0  0  0  0  0  0  0  0  0
   17.5859   -5.4283  -16.2141 C   0  0  2  0  0  0  0  0  0  0  0  0
   17.9885   -6.7984  -16.4414 N   0  0  0  0  0  0  0  0  0  0  0  0
   18.5910   -4.6783  -15.4129 C   0  0  0  0  0  0  0  0  0  0  0  0
   18.4193   -3.4806  -15.0675 O   0  0  0  0  0  0  0  0  0  0  0  0
   22.7403   -5.2972  -12.9003 O   0  0  0  0  0  0  0  0  0  0  0  0
   21.7231   -5.8038  -13.6896 C   0  0  0  0  0  0  0  0  0  0  0  0
   20.8267   -4.6879  -14.2329 C   0  0  2  0  0  0  0  0  0  0  0  0
   19.8007   -5.3030  -15.0044 N   0  0  0  0  0  0  0  0  0  0  0  0
   21.6746   -3.8440  -15.1037 C   0  0  0  0  0  0  0  0  0  0  0  0
   22.2447   -2.7022  -14.5839 O   0  0  0  0  0  0  0  0  0  0  0  0
   21.8526   -4.1870  -16.2871 O   0  0  0  0  0  0  0  0  0  0  0  0
  2  3  1  0
  2  1  1  1
  4  2  1  0
  4  5  1  1
  6  4  1  0
  6 10  1  0
  7  6  2  0
  9  8  1  1
  9 10  1  0
  9 11  1  0
 11 12  2  0
 13 14  1  0
 15 14  1  6
 15 17  1  0
 16 11  1  0
 16 15  1  0
 17 18  1  0
 19 17  2  0
M  END
$$$$
