NMW.pdb
     RDKit          3D

 31 32  0  0  1  0  0  0  0  0999 V2000
    9.4532  -20.0718   17.1011 N   0  0  0  0  0  0  0  0  0  0  0  0
    8.3095  -19.3123   17.4384 C   0  0  0  0  0  0  0  0  0  0  0  0
    7.1600  -19.7071   17.1229 O   0  0  0  0  0  0  0  0  0  0  0  0
    8.4922  -18.0392   18.1726 C   0  0  0  0  0  0  0  0  0  0  0  0
    9.0308  -18.3426   19.5557 C   0  0  2  0  0  0  0  0  0  0  0  0
    7.9795  -18.9508   20.3219 N   0  0  0  0  0  0  0  0  0  0  0  0
    9.4701  -17.0443   20.1343 C   0  0  0  0  0  0  0  0  0  0  0  0
   10.3384  -16.3463   19.5476 O   0  0  0  0  0  0  0  0  0  0  0  0
    6.5146  -11.5336   24.9376 C   0  0  0  0  0  0  0  0  0  0  0  0
    6.4629  -12.8994   23.8047 S   0  0  0  0  0  0  0  0  0  0  0  0
    8.0397  -13.5127   23.2644 C   0  0  0  0  0  0  0  0  0  0  0  0
    7.9690  -14.7472   22.4464 C   0  0  0  0  0  0  0  0  0  0  0  0
    9.2667  -15.3467   22.0096 C   0  0  2  0  0  0  0  0  0  0  0  0
    8.9022  -16.6129   21.3400 N   0  0  0  0  0  0  0  0  0  0  0  0
    9.9906  -15.7453   23.2575 C   0  0  0  0  0  0  0  0  0  0  0  0
   10.5983  -14.8745   23.9065 O   0  0  0  0  0  0  0  0  0  0  0  0
   10.0308  -17.0461   23.7494 N   0  0  0  0  0  0  0  0  0  0  0  0
   10.7565  -17.4201   24.9332 C   0  0  1  0  0  0  0  0  0  0  0  0
    9.9775  -17.6501   26.1269 C   0  0  0  0  0  0  0  0  0  0  0  0
    9.0152  -16.5806   26.4342 C   0  0  0  0  0  0  0  0  0  0  0  0
    7.6288  -16.6546   26.2056 C   0  0  0  0  0  0  0  0  0  0  0  0
    7.0302  -15.5135   26.5456 N   0  0  0  0  0  0  0  0  0  0  0  0
    7.9754  -14.6970   26.9891 C   0  0  0  0  0  0  0  0  0  0  0  0
    7.8654  -13.3935   27.4848 C   0  0  0  0  0  0  0  0  0  0  0  0
    8.9809  -12.7192   27.9251 C   0  0  0  0  0  0  0  0  0  0  0  0
   10.1994  -13.3583   27.8647 C   0  0  0  0  0  0  0  0  0  0  0  0
   10.3138  -14.6412   27.3767 C   0  0  0  0  0  0  0  0  0  0  0  0
    9.2008  -15.3163   26.9355 C   0  0  0  0  0  0  0  0  0  0  0  0
   11.6460  -18.5150   24.5913 C   0  0  0  0  0  0  0  0  0  0  0  0
   12.5055  -19.0079   25.5606 O   0  0  0  0  0  0  0  0  0  0  0  0
   11.7197  -19.0777   23.4751 O   0  0  0  0  0  0  0  0  0  0  0  0
  2  1  1  0
  3  2  2  0
  4  2  1  0
  5  6  1  1
  5  4  1  0
  7  5  1  0
  8  7  2  0
 10  9  1  0
 11 10  1  0
 12 11  1  0
 13 12  1  1
 13 14  1  0
 14  7  1  0
 15 13  1  0
 15 16  2  0
 17 15  1  0
 18 17  1  0
 18 19  1  1
 20 19  1  0
 20 21  2  0
 22 21  1  0
 23 22  1  0
 24 23  2  0
 25 24  1  0
 26 25  2  0
 26 27  1  0
 27 28  2  0
 28 23  1  0
 28 20  1  0
 29 18  1  0
 30 29  1  0
 31 29  2  0
M  END
$$$$
