NMW.pdb
     RDKit          3D

 31 32  0  0  1  0  0  0  0  0999 V2000
   10.4154  -21.0674   16.8195 N   0  0  0  0  0  0  0  0  0  0  0  0
   10.3496  -20.6999   18.1830 C   0  0  0  0  0  0  0  0  0  0  0  0
   10.4407  -21.5663   19.0872 O   0  0  0  0  0  0  0  0  0  0  0  0
   10.1707  -19.2704   18.5266 C   0  0  0  0  0  0  0  0  0  0  0  0
   10.1127  -19.1310   20.0340 C   0  0  2  0  0  0  0  0  0  0  0  0
    8.8338  -19.6093   20.4789 N   0  0  0  0  0  0  0  0  0  0  0  0
   10.3092  -17.6873   20.3346 C   0  0  0  0  0  0  0  0  0  0  0  0
   11.3259  -17.0799   19.9070 O   0  0  0  0  0  0  0  0  0  0  0  0
    8.1464  -10.9266   20.3924 C   0  0  0  0  0  0  0  0  0  0  0  0
    8.5071  -12.6626   20.3050 S   0  0  0  0  0  0  0  0  0  0  0  0
    7.6727  -13.6840   21.4944 C   0  0  0  0  0  0  0  0  0  0  0  0
    7.9424  -15.1350   21.3520 C   0  0  0  0  0  0  0  0  0  0  0  0
    9.3747  -15.5626   21.3604 C   0  0  2  0  0  0  0  0  0  0  0  0
    9.3459  -17.0170   21.0996 N   0  0  0  0  0  0  0  0  0  0  0  0
    9.8524  -15.4161   22.7712 C   0  0  0  0  0  0  0  0  0  0  0  0
   10.4043  -14.3545   23.1140 O   0  0  0  0  0  0  0  0  0  0  0  0
    9.7190  -16.4036   23.7421 N   0  0  0  0  0  0  0  0  0  0  0  0
   10.1159  -16.2219   25.1123 C   0  0  1  0  0  0  0  0  0  0  0  0
    9.1079  -16.4625   26.1177 C   0  0  0  0  0  0  0  0  0  0  0  0
    7.8501  -15.7321   25.8973 C   0  0  0  0  0  0  0  0  0  0  0  0
    6.6639  -16.3028   25.4004 C   0  0  0  0  0  0  0  0  0  0  0  0
    5.7114  -15.3797   25.2704 N   0  0  0  0  0  0  0  0  0  0  0  0
    6.2322  -14.2268   25.6653 C   0  0  0  0  0  0  0  0  0  0  0  0
    5.6396  -12.9620   25.7429 C   0  0  0  0  0  0  0  0  0  0  0  0
    6.3555  -11.8847   26.2116 C   0  0  0  0  0  0  0  0  0  0  0  0
    7.6619  -12.0847   26.5996 C   0  0  0  0  0  0  0  0  0  0  0  0
    8.2508  -13.3275   26.5246 C   0  0  0  0  0  0  0  0  0  0  0  0
    7.5377  -14.4048   26.0556 C   0  0  0  0  0  0  0  0  0  0  0  0
   11.3486  -16.9575   25.3274 C   0  0  0  0  0  0  0  0  0  0  0  0
   12.0359  -16.7801   26.5178 O   0  0  0  0  0  0  0  0  0  0  0  0
   11.8719  -17.7613   24.5223 O   0  0  0  0  0  0  0  0  0  0  0  0
  2  1  1  0
  3  2  2  0
  4  2  1  0
  5  6  1  6
  5  4  1  0
  7  5  1  0
  8  7  2  0
 10  9  1  0
 11 10  1  0
 12 11  1  0
 13 12  1  1
 13 14  1  0
 14  7  1  0
 15 13  1  0
 15 16  2  0
 17 15  1  0
 18 17  1  0
 18 19  1  1
 20 19  1  0
 20 21  2  0
 22 21  1  0
 23 22  1  0
 24 23  2  0
 25 24  1  0
 26 25  2  0
 26 27  1  0
 27 28  2  0
 28 23  1  0
 28 20  1  0
 29 18  1  0
 30 29  1  0
 31 29  2  0
M  END
$$$$
