NMW.pdb
     RDKit          3D

 31 32  0  0  1  0  0  0  0  0999 V2000
   12.7052  -20.8448   17.0697 N   0  0  0  0  0  0  0  0  0  0  0  0
   13.7577  -20.0446   17.5701 C   0  0  0  0  0  0  0  0  0  0  0  0
   14.9484  -20.4390   17.5117 O   0  0  0  0  0  0  0  0  0  0  0  0
   13.4297  -18.7290   18.1660 C   0  0  0  0  0  0  0  0  0  0  0  0
   11.9348  -18.5043   18.0680 C   0  0  2  0  0  0  0  0  0  0  0  0
   11.6357  -18.0571   16.7366 N   0  0  0  0  0  0  0  0  0  0  0  0
   11.5907  -17.4843   19.0949 C   0  0  0  0  0  0  0  0  0  0  0  0
   12.4525  -16.6506   19.4789 O   0  0  0  0  0  0  0  0  0  0  0  0
    6.8818  -12.3935   20.9967 C   0  0  0  0  0  0  0  0  0  0  0  0
    7.8914  -13.6927   20.3303 S   0  0  0  0  0  0  0  0  0  0  0  0
    7.4366  -15.3426   20.8049 C   0  0  0  0  0  0  0  0  0  0  0  0
    8.2590  -16.4076   20.1821 C   0  0  0  0  0  0  0  0  0  0  0  0
    9.7373  -16.3314   20.3895 C   0  0  2  0  0  0  0  0  0  0  0  0
   10.2943  -17.4674   19.6256 N   0  0  0  0  0  0  0  0  0  0  0  0
    9.9806  -16.6571   21.8299 C   0  0  0  0  0  0  0  0  0  0  0  0
   10.4856  -17.7563   22.1228 O   0  0  0  0  0  0  0  0  0  0  0  0
    9.6751  -15.7993   22.8817 N   0  0  0  0  0  0  0  0  0  0  0  0
   10.0610  -16.0521   24.2438 C   0  0  1  0  0  0  0  0  0  0  0  0
    9.5005  -15.1811   25.2498 C   0  0  0  0  0  0  0  0  0  0  0  0
    9.8786  -15.5301   26.6280 C   0  0  0  0  0  0  0  0  0  0  0  0
   10.0211  -16.8420   27.1163 C   0  0  0  0  0  0  0  0  0  0  0  0
   10.3281  -16.8349   28.4132 N   0  0  0  0  0  0  0  0  0  0  0  0
   10.3922  -15.5657   28.7895 C   0  0  0  0  0  0  0  0  0  0  0  0
   10.7006  -15.0226   30.0413 C   0  0  0  0  0  0  0  0  0  0  0  0
   10.7398  -13.6588   30.2185 C   0  0  0  0  0  0  0  0  0  0  0  0
   10.4691  -12.8494   29.1375 C   0  0  0  0  0  0  0  0  0  0  0  0
   10.1641  -13.3785   27.9030 C   0  0  0  0  0  0  0  0  0  0  0  0
   10.1234  -14.7407   27.7241 C   0  0  0  0  0  0  0  0  0  0  0  0
    9.8662  -17.4648   24.5143 C   0  0  0  0  0  0  0  0  0  0  0  0
    8.6073  -18.0149   24.3312 O   0  0  0  0  0  0  0  0  0  0  0  0
   10.7465  -18.2631   24.9090 O   0  0  0  0  0  0  0  0  0  0  0  0
  2  1  1  0
  3  2  2  0
  4  2  1  0
  5  6  1  6
  5  4  1  0
  7  5  1  0
  8  7  2  0
 10  9  1  0
 11 10  1  0
 12 11  1  0
 13 12  1  1
 13 14  1  0
 14  7  1  0
 15 13  1  0
 15 16  2  0
 17 15  1  0
 18 17  1  0
 18 19  1  1
 20 19  1  0
 20 21  2  0
 22 21  1  0
 23 22  1  0
 24 23  2  0
 25 24  1  0
 26 25  2  0
 26 27  1  0
 27 28  2  0
 28 23  1  0
 28 20  1  0
 29 18  1  0
 30 29  1  0
 31 29  2  0
M  END
$$$$
