NMW.pdb
     RDKit          3D

 31 32  0  0  1  0  0  0  0  0999 V2000
    8.8153  -21.5089   18.3175 N   0  0  0  0  0  0  0  0  0  0  0  0
    8.2394  -20.2273   18.4737 C   0  0  0  0  0  0  0  0  0  0  0  0
    7.0088  -20.0501   18.2981 O   0  0  0  0  0  0  0  0  0  0  0  0
    9.1162  -19.0944   18.8493 C   0  0  0  0  0  0  0  0  0  0  0  0
    9.1267  -18.9606   20.3583 C   0  0  2  0  0  0  0  0  0  0  0  0
    7.7668  -18.8561   20.8078 N   0  0  0  0  0  0  0  0  0  0  0  0
    9.9180  -17.7401   20.6706 C   0  0  0  0  0  0  0  0  0  0  0  0
   11.0697  -17.5858   20.1858 O   0  0  0  0  0  0  0  0  0  0  0  0
    6.8142  -12.1135   19.0707 C   0  0  0  0  0  0  0  0  0  0  0  0
    7.3909  -12.6947   20.6458 S   0  0  0  0  0  0  0  0  0  0  0  0
    8.5778  -14.0148   20.5928 C   0  0  0  0  0  0  0  0  0  0  0  0
    9.0552  -14.4629   21.9230 C   0  0  0  0  0  0  0  0  0  0  0  0
   10.0794  -15.5513   21.9447 C   0  0  2  0  0  0  0  0  0  0  0  0
    9.3607  -16.7678   21.5113 N   0  0  0  0  0  0  0  0  0  0  0  0
   10.4253  -15.7792   23.3829 C   0  0  0  0  0  0  0  0  0  0  0  0
   11.3493  -15.1197   23.8930 O   0  0  0  0  0  0  0  0  0  0  0  0
    9.7722  -16.6943   24.2025 N   0  0  0  0  0  0  0  0  0  0  0  0
   10.1464  -16.9369   25.5696 C   0  0  1  0  0  0  0  0  0  0  0  0
    9.8485  -15.8914   26.5198 C   0  0  0  0  0  0  0  0  0  0  0  0
    8.4934  -15.3322   26.3958 C   0  0  0  0  0  0  0  0  0  0  0  0
    7.3443  -16.0722   26.0617 C   0  0  0  0  0  0  0  0  0  0  0  0
    6.2755  -15.2799   25.9840 N   0  0  0  0  0  0  0  0  0  0  0  0
    6.6848  -14.0490   26.2562 C   0  0  0  0  0  0  0  0  0  0  0  0
    5.9492  -12.8612   26.3268 C   0  0  0  0  0  0  0  0  0  0  0  0
    6.5678  -11.6771   26.6554 C   0  0  0  0  0  0  0  0  0  0  0  0
    7.9211  -11.6936   26.9110 C   0  0  0  0  0  0  0  0  0  0  0  0
    8.6506  -12.8599   26.8421 C   0  0  0  0  0  0  0  0  0  0  0  0
    8.0346  -14.0437   26.5130 C   0  0  0  0  0  0  0  0  0  0  0  0
    9.6390  -18.2418   25.9527 C   0  0  0  0  0  0  0  0  0  0  0  0
   10.0459  -18.7917   27.1581 O   0  0  0  0  0  0  0  0  0  0  0  0
    8.8464  -18.9445   25.2847 O   0  0  0  0  0  0  0  0  0  0  0  0
  2  1  1  0
  3  2  2  0
  4  2  1  0
  5  6  1  6
  5  4  1  0
  7  5  1  0
  8  7  2  0
 10  9  1  0
 11 10  1  0
 12 11  1  0
 13 12  1  1
 13 14  1  0
 14  7  1  0
 15 13  1  0
 15 16  2  0
 17 15  1  0
 18 17  1  0
 18 19  1  1
 20 19  1  0
 20 21  2  0
 22 21  1  0
 23 22  1  0
 24 23  2  0
 25 24  1  0
 26 25  2  0
 26 27  1  0
 27 28  2  0
 28 23  1  0
 28 20  1  0
 29 18  1  0
 30 29  1  0
 31 29  2  0
M  END
$$$$
