NMW.pdb
     RDKit          3D

 31 32  0  0  1  0  0  0  0  0999 V2000
    9.6453  -15.5471   15.4785 N   0  0  0  0  0  0  0  0  0  0  0  0
    8.8179  -16.6211   15.8788 C   0  0  0  0  0  0  0  0  0  0  0  0
    8.7294  -17.6597   15.1787 O   0  0  0  0  0  0  0  0  0  0  0  0
    8.0552  -16.4989   17.1425 C   0  0  0  0  0  0  0  0  0  0  0  0
    8.8831  -17.0735   18.2735 C   0  0  2  0  0  0  0  0  0  0  0  0
    8.9510  -18.4974   18.1000 N   0  0  0  0  0  0  0  0  0  0  0  0
    8.1971  -16.6926   19.5376 C   0  0  0  0  0  0  0  0  0  0  0  0
    7.9617  -15.4830   19.7955 O   0  0  0  0  0  0  0  0  0  0  0  0
    4.8330  -21.3606   22.7944 C   0  0  0  0  0  0  0  0  0  0  0  0
    4.3734  -20.5031   21.3095 S   0  0  0  0  0  0  0  0  0  0  0  0
    5.1942  -18.9534   21.0289 C   0  0  0  0  0  0  0  0  0  0  0  0
    6.3077  -18.6717   21.9666 C   0  0  0  0  0  0  0  0  0  0  0  0
    7.1171  -17.4419   21.7084 C   0  0  2  0  0  0  0  0  0  0  0  0
    7.8186  -17.7009   20.4335 N   0  0  0  0  0  0  0  0  0  0  0  0
    8.1853  -17.4098   22.7561 C   0  0  0  0  0  0  0  0  0  0  0  0
    9.2474  -18.0263   22.5539 O   0  0  0  0  0  0  0  0  0  0  0  0
    8.0692  -16.7254   23.9619 N   0  0  0  0  0  0  0  0  0  0  0  0
    9.1190  -16.6719   24.9432 C   0  0  1  0  0  0  0  0  0  0  0  0
    9.2942  -15.4189   25.6391 C   0  0  0  0  0  0  0  0  0  0  0  0
    8.0482  -14.6644   25.8451 C   0  0  0  0  0  0  0  0  0  0  0  0
    6.7728  -15.2403   25.9913 C   0  0  0  0  0  0  0  0  0  0  0  0
    5.8385  -14.2984   26.1186 N   0  0  0  0  0  0  0  0  0  0  0  0
    6.4577  -13.1280   26.0619 C   0  0  0  0  0  0  0  0  0  0  0  0
    5.9314  -11.8362   26.1675 C   0  0  0  0  0  0  0  0  0  0  0  0
    6.7598  -10.7393   26.1079 C   0  0  0  0  0  0  0  0  0  0  0  0
    8.1114  -10.9470   25.9428 C   0  0  0  0  0  0  0  0  0  0  0  0
    8.6350  -12.2166   25.8373 C   0  0  0  0  0  0  0  0  0  0  0  0
    7.8090  -13.3136   25.8956 C   0  0  0  0  0  0  0  0  0  0  0  0
    8.9752  -17.8178   25.8224 C   0  0  0  0  0  0  0  0  0  0  0  0
   10.0484  -18.1932   26.6151 O   0  0  0  0  0  0  0  0  0  0  0  0
    7.9488  -18.5250   25.9419 O   0  0  0  0  0  0  0  0  0  0  0  0
  2  1  1  0
  3  2  2  0
  4  2  1  0
  5  6  1  6
  5  4  1  0
  7  5  1  0
  8  7  2  0
 10  9  1  0
 11 10  1  0
 12 11  1  0
 13 12  1  1
 13 14  1  0
 14  7  1  0
 15 13  1  0
 15 16  2  0
 17 15  1  0
 18 17  1  0
 18 19  1  1
 20 19  1  0
 20 21  2  0
 22 21  1  0
 23 22  1  0
 24 23  2  0
 25 24  1  0
 26 25  2  0
 26 27  1  0
 27 28  2  0
 28 23  1  0
 28 20  1  0
 29 18  1  0
 30 29  1  0
 31 29  2  0
M  END
$$$$
