NMW.pdb
     RDKit          3D

 31 32  0  0  1  0  0  0  0  0999 V2000
    9.3839  -14.2947   15.9498 N   0  0  0  0  0  0  0  0  0  0  0  0
    8.1796  -13.6553   16.3233 C   0  0  0  0  0  0  0  0  0  0  0  0
    7.5953  -12.8735   15.5334 O   0  0  0  0  0  0  0  0  0  0  0  0
    7.6180  -13.9252   17.6669 C   0  0  0  0  0  0  0  0  0  0  0  0
    8.5355  -14.8824   18.3997 C   0  0  2  0  0  0  0  0  0  0  0  0
    8.6398  -16.0856   17.6228 N   0  0  0  0  0  0  0  0  0  0  0  0
    7.9196  -15.1244   19.7321 C   0  0  0  0  0  0  0  0  0  0  0  0
    7.6884  -14.1630   20.5115 O   0  0  0  0  0  0  0  0  0  0  0  0
    3.3116  -18.9840   22.2355 C   0  0  0  0  0  0  0  0  0  0  0  0
    3.7749  -18.0963   20.7697 S   0  0  0  0  0  0  0  0  0  0  0  0
    5.4328  -18.3697   20.1947 C   0  0  0  0  0  0  0  0  0  0  0  0
    6.4784  -18.1826   21.2291 C   0  0  0  0  0  0  0  0  0  0  0  0
    7.0133  -16.7986   21.4101 C   0  0  2  0  0  0  0  0  0  0  0  0
    7.6022  -16.4374   20.1036 N   0  0  0  0  0  0  0  0  0  0  0  0
    8.1686  -16.9110   22.3550 C   0  0  0  0  0  0  0  0  0  0  0  0
    9.2662  -17.3063   21.9213 O   0  0  0  0  0  0  0  0  0  0  0  0
    8.0972  -16.5981   23.7087 N   0  0  0  0  0  0  0  0  0  0  0  0
    9.2385  -16.6129   24.5834 C   0  0  1  0  0  0  0  0  0  0  0  0
    9.4465  -15.4401   25.3995 C   0  0  0  0  0  0  0  0  0  0  0  0
    8.2090  -14.8481   25.9310 C   0  0  0  0  0  0  0  0  0  0  0  0
    7.0560  -15.5735   26.2834 C   0  0  0  0  0  0  0  0  0  0  0  0
    6.0867  -14.7549   26.6913 N   0  0  0  0  0  0  0  0  0  0  0  0
    6.5650  -13.5211   26.6190 C   0  0  0  0  0  0  0  0  0  0  0  0
    5.9542  -12.3081   26.9542 C   0  0  0  0  0  0  0  0  0  0  0  0
    6.6422  -11.1233   26.8287 C   0  0  0  0  0  0  0  0  0  0  0  0
    7.9393  -11.1645   26.3672 C   0  0  0  0  0  0  0  0  0  0  0  0
    8.5455  -12.3557   26.0347 C   0  0  0  0  0  0  0  0  0  0  0  0
    7.8595  -13.5403   26.1585 C   0  0  0  0  0  0  0  0  0  0  0  0
    9.2171  -17.8553   25.3337 C   0  0  0  0  0  0  0  0  0  0  0  0
   10.3488  -18.2312   26.0402 O   0  0  0  0  0  0  0  0  0  0  0  0
    8.2508  -18.6480   25.4106 O   0  0  0  0  0  0  0  0  0  0  0  0
  2  1  1  0
  3  2  2  0
  4  2  1  0
  5  6  1  6
  5  4  1  0
  7  5  1  0
  8  7  2  0
 10  9  1  0
 11 10  1  0
 12 11  1  0
 13 12  1  6
 13 14  1  0
 14  7  1  0
 15 13  1  0
 15 16  2  0
 17 15  1  0
 18 17  1  0
 18 19  1  1
 20 19  1  0
 20 21  2  0
 22 21  1  0
 23 22  1  0
 24 23  2  0
 25 24  1  0
 26 25  2  0
 26 27  1  0
 27 28  2  0
 28 23  1  0
 28 20  1  0
 29 18  1  0
 30 29  1  0
 31 29  2  0
M  END
$$$$
