NSA.pdb
     RDKit          3D

 20 19  0  0  1  0  0  0  0  0999 V2000
   12.9466   -5.9776   -7.9924 N   0  0  0  0  0  0  0  0  0  0  0  0
   14.3205   -5.7045   -7.7773 C   0  0  0  0  0  0  0  0  0  0  0  0
   14.6398   -4.7217   -7.0629 O   0  0  0  0  0  0  0  0  0  0  0  0
   15.3526   -6.5684   -8.3900 C   0  0  0  0  0  0  0  0  0  0  0  0
   14.6501   -7.6094   -9.2331 C   0  0  2  0  0  0  0  0  0  0  0  0
   13.8795   -8.5255   -8.3774 N   0  0  0  0  0  0  0  0  0  0  0  0
   15.6716   -8.4092   -9.9258 C   0  0  0  0  0  0  0  0  0  0  0  0
   15.6316   -9.6463   -9.9805 O   0  0  0  0  0  0  0  0  0  0  0  0
   16.5485   -8.2069  -14.1270 O   0  0  0  0  0  0  0  0  0  0  0  0
   16.1558   -7.9489  -12.8340 C   0  0  0  0  0  0  0  0  0  0  0  0
   17.2734   -8.1407  -11.8303 C   0  0  2  0  0  0  0  0  0  0  0  0
   16.7465   -7.7210  -10.5581 N   0  0  0  0  0  0  0  0  0  0  0  0
   18.4615   -7.3204  -12.1660 C   0  0  0  0  0  0  0  0  0  0  0  0
   18.4059   -6.0647  -12.1006 O   0  0  0  0  0  0  0  0  0  0  0  0
   22.0269   -8.0322  -13.2384 C   0  0  0  0  0  0  0  0  0  0  0  0
   20.8447   -7.1216  -12.9092 C   0  0  2  0  0  0  0  0  0  0  0  0
   19.6910   -7.9123  -12.5717 N   0  0  0  0  0  0  0  0  0  0  0  0
   20.5904   -6.1270  -13.9543 C   0  0  0  0  0  0  0  0  0  0  0  0
   19.7251   -6.3621  -14.8374 O   0  0  0  0  0  0  0  0  0  0  0  0
   21.2648   -4.9261  -14.0135 O   0  0  0  0  0  0  0  0  0  0  0  0
  2  3  2  0
  2  1  1  0
  4  2  1  0
  5  4  1  0
  5  6  1  1
  7  8  2  0
  7  5  1  0
  9 10  1  0
 11 10  1  6
 11 12  1  0
 12  7  1  0
 13 11  1  0
 13 17  1  0
 14 13  2  0
 16 15  1  6
 16 17  1  0
 16 18  1  0
 18 20  1  0
 19 18  2  0
M  END
$$$$
