NSA.pdb
     RDKit          3D

 20 19  0  0  1  0  0  0  0  0999 V2000
   12.4583  -12.4226   -9.9365 N   0  0  0  0  0  0  0  0  0  0  0  0
   13.0423  -11.2937  -10.5637 C   0  0  0  0  0  0  0  0  0  0  0  0
   12.4628  -10.7814  -11.5535 O   0  0  0  0  0  0  0  0  0  0  0  0
   14.3139  -10.7377  -10.0532 C   0  0  0  0  0  0  0  0  0  0  0  0
   15.2827  -10.6472  -11.2114 C   0  0  2  0  0  0  0  0  0  0  0  0
   15.9032  -11.9577  -11.4625 N   0  0  0  0  0  0  0  0  0  0  0  0
   16.3583   -9.7147  -10.8424 C   0  0  0  0  0  0  0  0  0  0  0  0
   17.5456  -10.0593  -10.7590 O   0  0  0  0  0  0  0  0  0  0  0  0
   18.7760   -6.4108  -11.8215 O   0  0  0  0  0  0  0  0  0  0  0  0
   17.8253   -7.4017  -11.7397 C   0  0  0  0  0  0  0  0  0  0  0  0
   17.0030   -7.3249  -10.4704 C   0  0  2  0  0  0  0  0  0  0  0  0
   16.0083   -8.3605  -10.5734 N   0  0  0  0  0  0  0  0  0  0  0  0
   16.3325   -6.0107  -10.3277 C   0  0  0  0  0  0  0  0  0  0  0  0
   15.4846   -5.6340  -11.1782 O   0  0  0  0  0  0  0  0  0  0  0  0
   16.0966   -3.3297   -7.6996 C   0  0  0  0  0  0  0  0  0  0  0  0
   16.0414   -3.8225   -9.1450 C   0  0  2  0  0  0  0  0  0  0  0  0
   16.6195   -5.1366   -9.2414 N   0  0  0  0  0  0  0  0  0  0  0  0
   16.6096   -2.8595  -10.0915 C   0  0  0  0  0  0  0  0  0  0  0  0
   17.7189   -3.1029  -10.6338 O   0  0  0  0  0  0  0  0  0  0  0  0
   15.9731   -1.6820  -10.4217 O   0  0  0  0  0  0  0  0  0  0  0  0
  2  3  2  0
  2  1  1  0
  4  2  1  0
  5  4  1  0
  5  6  1  1
  7  8  2  0
  7  5  1  0
  9 10  1  0
 11 10  1  6
 11 12  1  0
 12  7  1  0
 13 11  1  0
 13 17  1  0
 14 13  2  0
 16 15  1  1
 16 17  1  0
 16 18  1  0
 18 20  1  0
 19 18  2  0
M  END
$$$$
