NSA.pdb
     RDKit          3D

 20 19  0  0  1  0  0  0  0  0999 V2000
   18.3644  -20.3756  -15.3044 N   0  0  0  0  0  0  0  0  0  0  0  0
   18.6121  -20.7598  -13.9629 C   0  0  0  0  0  0  0  0  0  0  0  0
   19.5111  -20.1659  -13.3171 O   0  0  0  0  0  0  0  0  0  0  0  0
   17.8197  -21.8445  -13.3444 C   0  0  0  0  0  0  0  0  0  0  0  0
   18.7564  -22.9928  -13.0409 C   0  0  2  0  0  0  0  0  0  0  0  0
   19.1578  -23.6678  -14.2853 N   0  0  0  0  0  0  0  0  0  0  0  0
   18.0320  -23.9758  -12.2212 C   0  0  0  0  0  0  0  0  0  0  0  0
   17.0447  -24.5984  -12.6370 O   0  0  0  0  0  0  0  0  0  0  0  0
   18.4915  -27.2206   -8.8986 O   0  0  0  0  0  0  0  0  0  0  0  0
   18.9339  -26.2310   -9.7455 C   0  0  0  0  0  0  0  0  0  0  0  0
   17.8741  -25.1896  -10.0380 C   0  0  2  0  0  0  0  0  0  0  0  0
   18.4954  -24.2146  -10.8957 N   0  0  0  0  0  0  0  0  0  0  0  0
   17.3989  -24.5255   -8.8010 C   0  0  0  0  0  0  0  0  0  0  0  0
   18.0071  -23.5227   -8.3441 O   0  0  0  0  0  0  0  0  0  0  0  0
   14.3483  -24.6985   -6.6114 C   0  0  0  0  0  0  0  0  0  0  0  0
   15.8240  -24.3881   -6.8587 C   0  0  2  0  0  0  0  0  0  0  0  0
   16.2556  -24.9909   -8.0919 N   0  0  0  0  0  0  0  0  0  0  0  0
   16.6712  -24.7243   -5.7119 C   0  0  0  0  0  0  0  0  0  0  0  0
   17.4054  -25.7453   -5.7609 O   0  0  0  0  0  0  0  0  0  0  0  0
   16.7027  -23.9598   -4.5652 O   0  0  0  0  0  0  0  0  0  0  0  0
  2  3  2  0
  2  1  1  0
  4  2  1  0
  5  4  1  0
  5  6  1  6
  7  8  2  0
  7  5  1  0
  9 10  1  0
 11 10  1  1
 11 12  1  0
 12  7  1  0
 13 11  1  0
 13 17  1  0
 14 13  2  0
 16 15  1  1
 16 17  1  0
 16 18  1  0
 18 20  1  0
 19 18  2  0
M  END
$$$$
