NSA.pdb
     RDKit          3D

 20 19  0  0  1  0  0  0  0  0999 V2000
   19.9994  -14.9024  -18.0259 N   0  0  0  0  0  0  0  0  0  0  0  0
   20.0420  -13.8137  -17.1196 C   0  0  0  0  0  0  0  0  0  0  0  0
   20.4194  -14.0202  -15.9394 O   0  0  0  0  0  0  0  0  0  0  0  0
   19.6450  -12.4612  -17.5671 C   0  0  0  0  0  0  0  0  0  0  0  0
   19.1467  -11.6973  -16.3604 C   0  0  2  0  0  0  0  0  0  0  0  0
   17.7694  -12.0995  -16.0336 N   0  0  0  0  0  0  0  0  0  0  0  0
   19.1186  -10.2663  -16.6985 C   0  0  0  0  0  0  0  0  0  0  0  0
   18.4292   -9.8085  -17.6206 O   0  0  0  0  0  0  0  0  0  0  0  0
   18.2043   -7.5728  -14.4703 O   0  0  0  0  0  0  0  0  0  0  0  0
   18.4928   -7.5005  -15.8134 C   0  0  0  0  0  0  0  0  0  0  0  0
   19.9002   -7.9555  -16.1382 C   0  0  2  0  0  0  0  0  0  0  0  0
   19.9209   -9.3791  -15.9253 N   0  0  0  0  0  0  0  0  0  0  0  0
   20.9038   -7.3114  -15.2579 C   0  0  0  0  0  0  0  0  0  0  0  0
   21.2000   -7.8267  -14.1484 O   0  0  0  0  0  0  0  0  0  0  0  0
   23.2846   -4.3912  -15.5327 C   0  0  0  0  0  0  0  0  0  0  0  0
   22.4977   -5.4461  -14.7561 C   0  0  2  0  0  0  0  0  0  0  0  0
   21.5590   -6.1026  -15.6268 N   0  0  0  0  0  0  0  0  0  0  0  0
   21.8915   -4.9117  -13.5341 C   0  0  0  0  0  0  0  0  0  0  0  0
   20.6935   -4.5266  -13.5528 O   0  0  0  0  0  0  0  0  0  0  0  0
   22.5841   -4.8123  -12.3463 O   0  0  0  0  0  0  0  0  0  0  0  0
  2  3  2  0
  2  1  1  0
  4  2  1  0
  5  4  1  0
  5  6  1  6
  7  8  2  0
  7  5  1  0
  9 10  1  0
 11 10  1  1
 11 12  1  0
 12  7  1  0
 13 11  1  0
 13 17  1  0
 14 13  2  0
 16 15  1  6
 16 17  1  0
 16 18  1  0
 18 20  1  0
 19 18  2  0
M  END
$$$$
