GMC.pdb
     RDKit          3D

 19 18  0  0  1  0  0  0  0  0999 V2000
   20.2183  -12.9096  -18.8014 N   0  0  0  0  0  0  0  0  0  0  0  0
   21.2517  -11.9057  -18.9427 C   0  0  0  0  0  0  0  0  0  0  0  0
   21.4986  -11.2021  -17.6434 C   0  0  0  0  0  0  0  0  0  0  0  0
   20.5292  -10.9484  -16.8537 O   0  0  0  0  0  0  0  0  0  0  0  0
   28.4120  -11.2935  -16.6087 C   0  0  0  0  0  0  0  0  0  0  0  0
   26.9404  -11.3721  -15.5500 S   0  0  0  0  0  0  0  0  0  0  0  0
   25.5053  -10.6515  -16.4330 C   0  0  0  0  0  0  0  0  0  0  0  0
   24.3696  -10.5557  -15.4843 C   0  0  0  0  0  0  0  0  0  0  0  0
   23.1270  -10.0712  -16.1397 C   0  0  2  0  0  0  0  0  0  0  0  0
   22.8387  -10.8425  -17.3478 N   0  0  0  0  0  0  0  0  0  0  0  0
   23.0602   -8.6358  -16.4388 C   0  0  0  0  0  0  0  0  0  0  0  0
   23.3684   -8.1629  -17.5438 O   0  0  0  0  0  0  0  0  0  0  0  0
   22.6287   -7.6649  -15.4653 N   0  0  0  0  0  0  0  0  0  0  0  0
   22.5492   -6.2513  -15.7255 C   0  0  1  0  0  0  0  0  0  0  0  0
   21.2727   -6.0335  -16.5486 C   0  0  0  0  0  0  0  0  0  0  0  0
   20.8743   -4.2860  -16.7173 S   0  0  0  0  0  0  0  0  0  0  0  0
   22.4421   -5.4366  -14.5236 C   0  0  0  0  0  0  0  0  0  0  0  0
   22.7877   -4.1006  -14.5475 O   0  0  0  0  0  0  0  0  0  0  0  0
   22.0364   -5.9311  -13.4513 O   0  0  0  0  0  0  0  0  0  0  0  0
  2  1  1  0
  2  3  1  0
  3  4  2  0
  5  6  1  0
  7  6  1  0
  7  8  1  0
  9  8  1  6
  9 11  1  0
 10  3  1  0
 10  9  1  0
 11 12  2  0
 13 14  1  0
 13 11  1  0
 14 17  1  0
 14 15  1  6
 16 15  1  0
 17 19  2  0
 17 18  1  0
M  END
$$$$
