GMC.pdb
     RDKit          3D

 19 18  0  0  1  0  0  0  0  0999 V2000
   25.5325  -34.0253  -14.2247 N   0  0  0  0  0  0  0  0  0  0  0  0
   24.3765  -33.7104  -13.4120 C   0  0  0  0  0  0  0  0  0  0  0  0
   24.7840  -33.0481  -12.1317 C   0  0  0  0  0  0  0  0  0  0  0  0
   26.0167  -32.8368  -11.8795 O   0  0  0  0  0  0  0  0  0  0  0  0
   20.2673  -29.7922   -9.1930 C   0  0  0  0  0  0  0  0  0  0  0  0
   21.4350  -28.8575  -10.2203 S   0  0  0  0  0  0  0  0  0  0  0  0
   22.8306  -29.9397  -10.7095 C   0  0  0  0  0  0  0  0  0  0  0  0
   23.0069  -30.9794   -9.6669 C   0  0  0  0  0  0  0  0  0  0  0  0
   24.0781  -31.9493  -10.0136 C   0  0  2  0  0  0  0  0  0  0  0  0
   23.7470  -32.6780  -11.2371 N   0  0  0  0  0  0  0  0  0  0  0  0
   24.4715  -32.8953   -8.9627 C   0  0  0  0  0  0  0  0  0  0  0  0
   23.8353  -33.9320   -8.7170 O   0  0  0  0  0  0  0  0  0  0  0  0
   25.6325  -32.6885   -8.1346 N   0  0  0  0  0  0  0  0  0  0  0  0
   26.0585  -33.6055   -7.1099 C   0  0  1  0  0  0  0  0  0  0  0  0
   27.5137  -33.2448   -6.7835 C   0  0  0  0  0  0  0  0  0  0  0  0
   28.6316  -33.6945   -8.1209 S   0  0  0  0  0  0  0  0  0  0  0  0
   25.2929  -33.5059   -5.8755 C   0  0  0  0  0  0  0  0  0  0  0  0
   25.5410  -34.3645   -4.8238 O   0  0  0  0  0  0  0  0  0  0  0  0
   24.3995  -32.6433   -5.7462 O   0  0  0  0  0  0  0  0  0  0  0  0
  2  1  1  0
  2  3  1  0
  3  4  2  0
  5  6  1  0
  7  6  1  0
  7  8  1  0
  9  8  1  1
  9 11  1  0
 10  3  1  0
 10  9  1  0
 11 12  2  0
 13 14  1  0
 13 11  1  0
 14 17  1  0
 14 15  1  1
 16 15  1  0
 17 19  2  0
 17 18  1  0
M  END
$$$$
