GMC.pdb
     RDKit          3D

 19 18  0  0  1  0  0  0  0  0999 V2000
   28.4484  -22.0478  -15.2411 N   0  0  0  0  0  0  0  0  0  0  0  0
   28.2562  -20.8962  -14.3850 C   0  0  0  0  0  0  0  0  0  0  0  0
   27.3503  -21.2245  -13.2380 C   0  0  0  0  0  0  0  0  0  0  0  0
   26.4459  -22.1152  -13.3658 O   0  0  0  0  0  0  0  0  0  0  0  0
   26.2193  -20.3687   -5.4984 C   0  0  0  0  0  0  0  0  0  0  0  0
   27.1849  -19.9011   -6.9618 S   0  0  0  0  0  0  0  0  0  0  0  0
   26.3452  -20.5051   -8.4746 C   0  0  0  0  0  0  0  0  0  0  0  0
   27.2353  -20.2611   -9.6353 C   0  0  0  0  0  0  0  0  0  0  0  0
   26.6239  -20.7005  -10.9165 C   0  0  2  0  0  0  0  0  0  0  0  0
   27.5501  -20.5064  -12.0309 N   0  0  0  0  0  0  0  0  0  0  0  0
   25.3162  -20.1241  -11.2508 C   0  0  0  0  0  0  0  0  0  0  0  0
   25.1636  -18.9301  -11.5524 O   0  0  0  0  0  0  0  0  0  0  0  0
   24.1066  -20.9072  -11.2538 N   0  0  0  0  0  0  0  0  0  0  0  0
   22.8345  -20.4136  -11.7124 C   0  0  1  0  0  0  0  0  0  0  0  0
   22.5804  -21.0711  -13.0752 C   0  0  0  0  0  0  0  0  0  0  0  0
   22.8591  -22.8489  -13.0238 S   0  0  0  0  0  0  0  0  0  0  0  0
   21.7201  -20.7602  -10.8420 C   0  0  0  0  0  0  0  0  0  0  0  0
   20.4498  -20.2898  -11.1061 O   0  0  0  0  0  0  0  0  0  0  0  0
   21.8932  -21.4881   -9.8424 O   0  0  0  0  0  0  0  0  0  0  0  0
  2  1  1  0
  2  3  1  0
  3  4  2  0
  5  6  1  0
  7  6  1  0
  7  8  1  0
  9  8  1  1
  9 11  1  0
 10  3  1  0
 10  9  1  0
 11 12  2  0
 13 14  1  0
 13 11  1  0
 14 17  1  0
 14 15  1  6
 16 15  1  0
 17 19  2  0
 17 18  1  0
M  END
$$$$
