GMC.pdb
     RDKit          3D

 19 18  0  0  1  0  0  0  0  0999 V2000
   22.2796  -14.6336  -19.9028 N   0  0  0  0  0  0  0  0  0  0  0  0
   22.0080  -13.2230  -20.0824 C   0  0  0  0  0  0  0  0  0  0  0  0
   22.1742  -12.4756  -18.7949 C   0  0  0  0  0  0  0  0  0  0  0  0
   21.3019  -12.5833  -17.8701 O   0  0  0  0  0  0  0  0  0  0  0  0
   27.3826  -11.9119  -15.0160 C   0  0  0  0  0  0  0  0  0  0  0  0
   26.9548  -10.1844  -15.3700 S   0  0  0  0  0  0  0  0  0  0  0  0
   25.1810  -10.0662  -15.8151 C   0  0  0  0  0  0  0  0  0  0  0  0
   24.9377  -10.9158  -17.0059 C   0  0  0  0  0  0  0  0  0  0  0  0
   23.5198  -10.8729  -17.4486 C   0  0  2  0  0  0  0  0  0  0  0  0
   23.3283  -11.6608  -18.6652 N   0  0  0  0  0  0  0  0  0  0  0  0
   22.9265   -9.5414  -17.6204 C   0  0  0  0  0  0  0  0  0  0  0  0
   23.2302   -8.7840  -18.5551 O   0  0  0  0  0  0  0  0  0  0  0  0
   21.9414   -9.0134  -16.7108 N   0  0  0  0  0  0  0  0  0  0  0  0
   21.3745   -7.6949  -16.8221 C   0  0  1  0  0  0  0  0  0  0  0  0
   19.8572   -7.8610  -16.6651 C   0  0  0  0  0  0  0  0  0  0  0  0
   18.9504   -6.5352  -17.4779 S   0  0  0  0  0  0  0  0  0  0  0  0
   21.8250   -6.7714  -15.7906 C   0  0  0  0  0  0  0  0  0  0  0  0
   21.7633   -5.4076  -15.9931 O   0  0  0  0  0  0  0  0  0  0  0  0
   22.2747   -7.1959  -14.7059 O   0  0  0  0  0  0  0  0  0  0  0  0
  2  1  1  0
  2  3  1  0
  3  4  2  0
  5  6  1  0
  7  6  1  0
  7  8  1  0
  9  8  1  6
  9 11  1  0
 10  3  1  0
 10  9  1  0
 11 12  2  0
 13 14  1  0
 13 11  1  0
 14 17  1  0
 14 15  1  1
 16 15  1  0
 17 19  2  0
 17 18  1  0
M  END
$$$$
