GMC.pdb
     RDKit          3D

 19 18  0  0  1  0  0  0  0  0999 V2000
   16.2778  -11.9720  -14.4218 N   0  0  0  0  0  0  0  0  0  0  0  0
   16.4456  -10.8254  -15.2896 C   0  0  0  0  0  0  0  0  0  0  0  0
   17.8815  -10.4028  -15.3500 C   0  0  0  0  0  0  0  0  0  0  0  0
   18.6720  -10.6668  -14.3840 O   0  0  0  0  0  0  0  0  0  0  0  0
   22.4654  -10.9723  -20.1476 C   0  0  0  0  0  0  0  0  0  0  0  0
   22.1324   -9.2102  -19.8708 S   0  0  0  0  0  0  0  0  0  0  0  0
   21.6021   -8.9468  -18.1365 C   0  0  0  0  0  0  0  0  0  0  0  0
   20.1881   -9.3744  -18.0073 C   0  0  0  0  0  0  0  0  0  0  0  0
   19.6856   -9.2463  -16.6148 C   0  0  2  0  0  0  0  0  0  0  0  0
   18.3025   -9.7093  -16.5138 N   0  0  0  0  0  0  0  0  0  0  0  0
   19.8139   -7.9242  -15.9903 C   0  0  0  0  0  0  0  0  0  0  0  0
   18.9986   -7.0081  -16.1791 O   0  0  0  0  0  0  0  0  0  0  0  0
   20.9024   -7.5916  -15.1065 N   0  0  0  0  0  0  0  0  0  0  0  0
   21.1086   -6.2807  -14.5486 C   0  0  1  0  0  0  0  0  0  0  0  0
   22.1757   -6.4372  -13.4574 C   0  0  0  0  0  0  0  0  0  0  0  0
   22.6988   -4.8456  -12.7986 S   0  0  0  0  0  0  0  0  0  0  0  0
   21.6010   -5.3031  -15.5086 C   0  0  0  0  0  0  0  0  0  0  0  0
   22.5710   -5.6482  -16.4278 O   0  0  0  0  0  0  0  0  0  0  0  0
   21.1554   -4.1368  -15.5177 O   0  0  0  0  0  0  0  0  0  0  0  0
  2  1  1  0
  2  3  1  0
  3  4  2  0
  5  6  1  0
  7  6  1  0
  7  8  1  0
  9  8  1  6
  9 11  1  0
 10  3  1  0
 10  9  1  0
 11 12  2  0
 13 14  1  0
 13 11  1  0
 14 17  1  0
 14 15  1  1
 16 15  1  0
 17 19  2  0
 17 18  1  0
M  END
$$$$
