GMC.pdb
     RDKit          3D

 19 18  0  0  1  0  0  0  0  0999 V2000
   17.8958  -11.1834  -15.7478 N   0  0  0  0  0  0  0  0  0  0  0  0
   18.0225  -11.0798  -14.3094 C   0  0  0  0  0  0  0  0  0  0  0  0
   17.9591   -9.6503  -13.8660 C   0  0  0  0  0  0  0  0  0  0  0  0
   17.6761   -8.7285  -14.7014 O   0  0  0  0  0  0  0  0  0  0  0  0
   14.6465   -7.0874   -9.2642 C   0  0  0  0  0  0  0  0  0  0  0  0
   16.2921   -6.5565   -8.7143 S   0  0  0  0  0  0  0  0  0  0  0  0
   17.4524   -6.5729  -10.1327 C   0  0  0  0  0  0  0  0  0  0  0  0
   17.5255   -7.9554  -10.6640 C   0  0  0  0  0  0  0  0  0  0  0  0
   18.1627   -8.0106  -12.0054 C   0  0  2  0  0  0  0  0  0  0  0  0
   18.2252   -9.3858  -12.4978 N   0  0  0  0  0  0  0  0  0  0  0  0
   19.4806   -7.3771  -12.1319 C   0  0  0  0  0  0  0  0  0  0  0  0
   20.4402   -7.6664  -11.4003 O   0  0  0  0  0  0  0  0  0  0  0  0
   19.7584   -6.3670  -13.1214 N   0  0  0  0  0  0  0  0  0  0  0  0
   21.0359   -5.7197  -13.2677 C   0  0  1  0  0  0  0  0  0  0  0  0
   21.5536   -6.0932  -14.6629 C   0  0  0  0  0  0  0  0  0  0  0  0
   21.7981   -7.8686  -14.8337 S   0  0  0  0  0  0  0  0  0  0  0  0
   20.9712   -4.2669  -13.1967 C   0  0  0  0  0  0  0  0  0  0  0  0
   22.1154   -3.5218  -12.9954 O   0  0  0  0  0  0  0  0  0  0  0  0
   19.8812   -3.6698  -13.3164 O   0  0  0  0  0  0  0  0  0  0  0  0
  2  1  1  0
  2  3  1  0
  3  4  2  0
  5  6  1  0
  7  6  1  0
  7  8  1  0
  9  8  1  1
  9 11  1  0
 10  3  1  0
 10  9  1  0
 11 12  2  0
 13 14  1  0
 13 11  1  0
 14 17  1  0
 14 15  1  6
 16 15  1  0
 17 19  2  0
 17 18  1  0
M  END
$$$$
