GMC.pdb
     RDKit          3D

 19 18  0  0  1  0  0  0  0  0999 V2000
   23.3108  -11.0355  -20.2003 N   0  0  0  0  0  0  0  0  0  0  0  0
   23.2129   -9.6607  -19.7574 C   0  0  0  0  0  0  0  0  0  0  0  0
   22.5984   -9.5779  -18.3937 C   0  0  0  0  0  0  0  0  0  0  0  0
   21.3828   -9.2161  -18.2557 O   0  0  0  0  0  0  0  0  0  0  0  0
   22.5694  -15.2071  -14.8070 C   0  0  0  0  0  0  0  0  0  0  0  0
   23.3992  -13.6374  -14.4330 S   0  0  0  0  0  0  0  0  0  0  0  0
   22.7426  -12.3172  -15.5212 C   0  0  0  0  0  0  0  0  0  0  0  0
   23.3739  -11.0322  -15.1346 C   0  0  0  0  0  0  0  0  0  0  0  0
   22.8672   -9.8907  -15.9398 C   0  0  2  0  0  0  0  0  0  0  0  0
   23.4245   -9.9164  -17.2912 N   0  0  0  0  0  0  0  0  0  0  0  0
   23.0342   -8.5532  -15.3588 C   0  0  0  0  0  0  0  0  0  0  0  0
   24.1448   -8.0688  -15.0913 O   0  0  0  0  0  0  0  0  0  0  0  0
   21.9137   -7.6993  -15.0552 N   0  0  0  0  0  0  0  0  0  0  0  0
   22.0435   -6.3577  -14.5499 C   0  0  1  0  0  0  0  0  0  0  0  0
   22.6217   -5.5171  -15.6959 C   0  0  0  0  0  0  0  0  0  0  0  0
   22.8073   -3.7879  -15.2310 S   0  0  0  0  0  0  0  0  0  0  0  0
   20.7796   -5.7527  -14.1546 C   0  0  0  0  0  0  0  0  0  0  0  0
   20.7470   -4.7487  -13.2081 O   0  0  0  0  0  0  0  0  0  0  0  0
   19.7041   -6.1306  -14.6638 O   0  0  0  0  0  0  0  0  0  0  0  0
  2  1  1  0
  2  3  1  0
  3  4  2  0
  5  6  1  0
  7  6  1  0
  7  8  1  0
  9  8  1  1
  9 11  1  0
 10  3  1  0
 10  9  1  0
 11 12  2  0
 13 14  1  0
 13 11  1  0
 14 17  1  0
 14 15  1  6
 16 15  1  0
 17 19  2  0
 17 18  1  0
M  END
$$$$
