GMC.pdb
     RDKit          3D

 19 18  0  0  1  0  0  0  0  0999 V2000
   28.5512  -21.4293  -15.0623 N   0  0  0  0  0  0  0  0  0  0  0  0
   27.7957  -20.4448  -14.3169 C   0  0  0  0  0  0  0  0  0  0  0  0
   26.6246  -21.0753  -13.6276 C   0  0  0  0  0  0  0  0  0  0  0  0
   25.9909  -22.0343  -14.1812 O   0  0  0  0  0  0  0  0  0  0  0  0
   26.9623  -19.2307   -7.4936 C   0  0  0  0  0  0  0  0  0  0  0  0
   25.9643  -20.7252   -7.7441 S   0  0  0  0  0  0  0  0  0  0  0  0
   26.1037  -21.2760   -9.4863 C   0  0  0  0  0  0  0  0  0  0  0  0
   25.0238  -20.6303  -10.2712 C   0  0  0  0  0  0  0  0  0  0  0  0
   25.0495  -21.0318  -11.7017 C   0  0  2  0  0  0  0  0  0  0  0  0
   26.2685  -20.5583  -12.3554 N   0  0  0  0  0  0  0  0  0  0  0  0
   23.8789  -20.6642  -12.5071 C   0  0  0  0  0  0  0  0  0  0  0  0
   23.7295  -19.5367  -13.0031 O   0  0  0  0  0  0  0  0  0  0  0  0
   22.8110  -21.5917  -12.7829 N   0  0  0  0  0  0  0  0  0  0  0  0
   21.6333  -21.2546  -13.5389 C   0  0  1  0  0  0  0  0  0  0  0  0
   21.2411  -22.5180  -14.3162 C   0  0  0  0  0  0  0  0  0  0  0  0
   19.6999  -22.2972  -15.2201 S   0  0  0  0  0  0  0  0  0  0  0  0
   20.4945  -20.8732  -12.7158 C   0  0  0  0  0  0  0  0  0  0  0  0
   19.5604  -19.9713  -13.1836 O   0  0  0  0  0  0  0  0  0  0  0  0
   20.3428  -21.3543  -11.5737 O   0  0  0  0  0  0  0  0  0  0  0  0
  2  1  1  0
  2  3  1  0
  3  4  2  0
  5  6  1  0
  7  6  1  0
  7  8  1  0
  9  8  1  1
  9 11  1  0
 10  3  1  0
 10  9  1  0
 11 12  2  0
 13 14  1  0
 13 11  1  0
 14 17  1  0
 14 15  1  1
 16 15  1  0
 17 19  2  0
 17 18  1  0
M  END
$$$$
