YIL.pdb
     RDKit          3D

 29 29  0  0  1  0  0  0  0  0999 V2000
   15.1407  -18.3970   12.8583 O   0  0  0  0  0  0  0  0  0  0  0  0
   14.7021  -17.9899   14.1188 C   0  0  0  0  0  0  0  0  0  0  0  0
   13.3528  -17.7658   14.2883 C   0  0  0  0  0  0  0  0  0  0  0  0
   12.8926  -17.3617   15.5286 C   0  0  0  0  0  0  0  0  0  0  0  0
   13.7339  -17.1757   16.5987 C   0  0  0  0  0  0  0  0  0  0  0  0
   13.1833  -16.7249   17.8824 C   0  0  0  0  0  0  0  0  0  0  0  0
   12.9475  -15.2336   17.8773 C   0  0  2  0  0  0  0  0  0  0  0  0
   14.2292  -14.5467   17.6844 N   0  0  0  0  0  0  0  0  0  0  0  0
   12.2823  -14.7659   19.1491 C   0  0  0  0  0  0  0  0  0  0  0  0
   13.0201  -14.2456   19.9933 O   0  0  0  0  0  0  0  0  0  0  0  0
   15.0772  -17.4030   16.4146 C   0  0  0  0  0  0  0  0  0  0  0  0
   15.5677  -17.8134   15.1661 C   0  0  0  0  0  0  0  0  0  0  0  0
    7.2487  -12.7182   18.3697 C   0  0  0  0  0  0  0  0  0  0  0  0
    8.6262  -12.9173   18.9727 C   0  0  0  0  0  0  0  0  0  0  0  0
    8.6794  -14.1209   19.8959 C   0  0  2  0  0  0  0  0  0  0  0  0
    7.7058  -13.8307   21.0285 C   0  0  0  0  0  0  0  0  0  0  0  0
   10.0441  -14.4648   20.3558 C   0  0  2  0  0  0  0  0  0  0  0  0
   10.9035  -14.9580   19.2662 N   0  0  0  0  0  0  0  0  0  0  0  0
   10.1699  -15.4009   21.4793 C   0  0  0  0  0  0  0  0  0  0  0  0
    9.5540  -15.1446   22.5996 O   0  0  0  0  0  0  0  0  0  0  0  0
   10.3302  -19.9838   20.1419 C   0  0  0  0  0  0  0  0  0  0  0  0
   11.3612  -19.3724   21.1043 C   0  0  2  0  0  0  0  0  0  0  0  0
   12.3389  -20.4808   21.4011 C   0  0  0  0  0  0  0  0  0  0  0  0
   10.5998  -18.9085   22.2906 C   0  0  0  0  0  0  0  0  0  0  0  0
   10.8669  -17.4809   22.7067 C   0  0  2  0  0  0  0  0  0  0  0  0
   10.9041  -16.6124   21.5106 N   0  0  0  0  0  0  0  0  0  0  0  0
   12.1302  -17.2994   23.4251 C   0  0  0  0  0  0  0  0  0  0  0  0
   12.3617  -17.9798   24.4472 O   0  0  0  0  0  0  0  0  0  0  0  0
   13.0686  -16.3936   22.9958 O   0  0  0  0  0  0  0  0  0  0  0  0
  2  1  1  0
  3  2  2  0
  4  3  1  0
  5 11  1  0
  5  4  2  0
  6  5  1  0
  7  9  1  0
  7  6  1  0
  7  8  1  1
  9 10  2  0
 11 12  2  0
 12  2  1  0
 13 14  1  0
 15 14  1  0
 15 16  1  1
 15 17  1  0
 17 18  1  6
 18  9  1  0
 19 20  2  0
 19 17  1  0
 22 21  1  6
 22 24  1  0
 23 22  1  0
 25 24  1  6
 25 26  1  0
 25 27  1  0
 26 19  1  0
 27 29  1  0
 28 27  2  0
M  END
$$$$
