YIL.pdb
     RDKit          3D

 29 29  0  0  1  0  0  0  0  0999 V2000
    6.7398  -23.0676   29.0604 O   0  0  0  0  0  0  0  0  0  0  0  0
    6.7901  -21.9153   28.2750 C   0  0  0  0  0  0  0  0  0  0  0  0
    5.9251  -21.8283   27.2055 C   0  0  0  0  0  0  0  0  0  0  0  0
    5.9550  -20.6960   26.4116 C   0  0  0  0  0  0  0  0  0  0  0  0
    6.8175  -19.6539   26.6517 C   0  0  0  0  0  0  0  0  0  0  0  0
    6.8130  -18.4900   25.7575 C   0  0  0  0  0  0  0  0  0  0  0  0
    7.0103  -18.9096   24.3207 C   0  0  2  0  0  0  0  0  0  0  0  0
    7.6233  -20.2419   24.2907 N   0  0  0  0  0  0  0  0  0  0  0  0
    7.8573  -17.9199   23.5578 C   0  0  0  0  0  0  0  0  0  0  0  0
    8.9494  -18.3326   23.1517 O   0  0  0  0  0  0  0  0  0  0  0  0
    7.6745  -19.7548   27.7219 C   0  0  0  0  0  0  0  0  0  0  0  0
    7.6627  -20.8932   28.5415 C   0  0  0  0  0  0  0  0  0  0  0  0
    5.9246  -13.8596   20.2783 C   0  0  0  0  0  0  0  0  0  0  0  0
    6.8098  -14.8903   20.9526 C   0  0  0  0  0  0  0  0  0  0  0  0
    7.3076  -14.4201   22.3073 C   0  0  2  0  0  0  0  0  0  0  0  0
    8.0404  -13.1101   22.0590 C   0  0  0  0  0  0  0  0  0  0  0  0
    8.1150  -15.4271   23.0327 C   0  0  2  0  0  0  0  0  0  0  0  0
    7.3434  -16.6336   23.3763 N   0  0  0  0  0  0  0  0  0  0  0  0
    8.8215  -14.9917   24.2433 C   0  0  0  0  0  0  0  0  0  0  0  0
    9.4868  -13.8705   24.2293 O   0  0  0  0  0  0  0  0  0  0  0  0
    8.3202  -12.0107   26.6960 C   0  0  0  0  0  0  0  0  0  0  0  0
    7.3742  -13.2149   26.5618 C   0  0  2  0  0  0  0  0  0  0  0  0
    6.0508  -12.7483   27.1126 C   0  0  0  0  0  0  0  0  0  0  0  0
    7.9926  -14.3189   27.3370 C   0  0  0  0  0  0  0  0  0  0  0  0
    9.2357  -14.9175   26.7216 C   0  0  2  0  0  0  0  0  0  0  0  0
    8.8761  -15.6575   25.4929 N   0  0  0  0  0  0  0  0  0  0  0  0
    9.9468  -15.8446   27.6046 C   0  0  0  0  0  0  0  0  0  0  0  0
    9.9793  -17.0617   27.3234 O   0  0  0  0  0  0  0  0  0  0  0  0
   10.5809  -15.4013   28.7389 O   0  0  0  0  0  0  0  0  0  0  0  0
  2  1  1  0
  3  2  2  0
  4  3  1  0
  5 11  1  0
  5  4  2  0
  6  5  1  0
  7  9  1  0
  7  6  1  0
  7  8  1  1
  9 10  2  0
 11 12  2  0
 12  2  1  0
 13 14  1  0
 15 14  1  0
 15 16  1  6
 15 17  1  0
 17 18  1  1
 18  9  1  0
 19 20  2  0
 19 17  1  0
 22 21  1  1
 22 24  1  0
 23 22  1  0
 25 24  1  1
 25 26  1  0
 25 27  1  0
 26 19  1  0
 27 29  1  0
 28 27  2  0
M  END
$$$$
