YIL.pdb
     RDKit          3D

 29 29  0  0  1  0  0  0  0  0999 V2000
    4.1668  -23.7784   26.1849 O   0  0  0  0  0  0  0  0  0  0  0  0
    4.7784  -22.6129   25.7216 C   0  0  0  0  0  0  0  0  0  0  0  0
    5.9257  -22.1922   26.3591 C   0  0  0  0  0  0  0  0  0  0  0  0
    6.5511  -21.0398   25.9186 C   0  0  0  0  0  0  0  0  0  0  0  0
    6.0687  -20.2989   24.8670 C   0  0  0  0  0  0  0  0  0  0  0  0
    6.7687  -19.0736   24.4635 C   0  0  0  0  0  0  0  0  0  0  0  0
    7.0619  -19.0794   22.9825 C   0  0  2  0  0  0  0  0  0  0  0  0
    7.6020  -20.3904   22.6064 N   0  0  0  0  0  0  0  0  0  0  0  0
    8.0220  -17.9806   22.5958 C   0  0  0  0  0  0  0  0  0  0  0  0
    9.2126  -18.3004   22.5061 O   0  0  0  0  0  0  0  0  0  0  0  0
    4.9235  -20.7308   24.2409 C   0  0  0  0  0  0  0  0  0  0  0  0
    4.2714  -21.8966   24.6695 C   0  0  0  0  0  0  0  0  0  0  0  0
    7.4547  -12.2279   20.2086 C   0  0  0  0  0  0  0  0  0  0  0  0
    8.3060  -13.2845   20.8865 C   0  0  0  0  0  0  0  0  0  0  0  0
    7.4814  -14.4668   21.3620 C   0  0  2  0  0  0  0  0  0  0  0  0
    6.3142  -13.8831   22.1443 C   0  0  0  0  0  0  0  0  0  0  0  0
    8.2589  -15.4767   22.1155 C   0  0  2  0  0  0  0  0  0  0  0  0
    7.4920  -16.7071   22.3741 N   0  0  0  0  0  0  0  0  0  0  0  0
    8.8713  -15.0601   23.3827 C   0  0  0  0  0  0  0  0  0  0  0  0
    9.9380  -14.3107   23.3636 O   0  0  0  0  0  0  0  0  0  0  0  0
    8.5697  -11.8129   25.8134 C   0  0  0  0  0  0  0  0  0  0  0  0
    7.5358  -12.9337   26.0072 C   0  0  2  0  0  0  0  0  0  0  0  0
    6.4117  -12.3102   26.7948 C   0  0  0  0  0  0  0  0  0  0  0  0
    8.2370  -14.0280   26.7235 C   0  0  0  0  0  0  0  0  0  0  0  0
    9.1651  -14.8616   25.8713 C   0  0  2  0  0  0  0  0  0  0  0  0
    8.4332  -15.3741   24.6931 N   0  0  0  0  0  0  0  0  0  0  0  0
    9.7388  -16.0129   26.5714 C   0  0  0  0  0  0  0  0  0  0  0  0
    9.4035  -17.1687   26.2354 O   0  0  0  0  0  0  0  0  0  0  0  0
   10.6413  -15.8467   27.5928 O   0  0  0  0  0  0  0  0  0  0  0  0
  2  1  1  0
  3  2  2  0
  4  3  1  0
  5 11  1  0
  5  4  2  0
  6  5  1  0
  7  9  1  0
  7  6  1  0
  7  8  1  1
  9 10  2  0
 11 12  2  0
 12  2  1  0
 13 14  1  0
 15 14  1  0
 15 16  1  1
 15 17  1  0
 17 18  1  1
 18  9  1  0
 19 20  2  0
 19 17  1  0
 22 21  1  1
 22 24  1  0
 23 22  1  0
 25 24  1  1
 25 26  1  0
 25 27  1  0
 26 19  1  0
 27 29  1  0
 28 27  2  0
M  END
$$$$
