YIL.pdb
     RDKit          3D

 29 29  0  0  1  0  0  0  0  0999 V2000
    8.6657  -25.4720   20.7454 O   0  0  0  0  0  0  0  0  0  0  0  0
    9.1550  -24.2004   21.0465 C   0  0  0  0  0  0  0  0  0  0  0  0
    8.2499  -23.2426   21.4506 C   0  0  0  0  0  0  0  0  0  0  0  0
    8.7098  -21.9742   21.7550 C   0  0  0  0  0  0  0  0  0  0  0  0
   10.0383  -21.6347   21.6687 C   0  0  0  0  0  0  0  0  0  0  0  0
   10.4572  -20.2642   21.9855 C   0  0  0  0  0  0  0  0  0  0  0  0
    9.9023  -19.2821   20.9820 C   0  0  2  0  0  0  0  0  0  0  0  0
   10.3695  -19.6516   19.6415 N   0  0  0  0  0  0  0  0  0  0  0  0
   10.2980  -17.8622   21.3078 C   0  0  0  0  0  0  0  0  0  0  0  0
   11.4443  -17.5267   20.9897 O   0  0  0  0  0  0  0  0  0  0  0  0
   10.9293  -22.6003   21.2642 C   0  0  0  0  0  0  0  0  0  0  0  0
   10.4869  -23.8940   20.9501 C   0  0  0  0  0  0  0  0  0  0  0  0
    6.2959  -14.1628   20.8832 C   0  0  0  0  0  0  0  0  0  0  0  0
    7.6844  -14.7733   20.8782 C   0  0  0  0  0  0  0  0  0  0  0  0
    8.2740  -14.8679   22.2737 C   0  0  2  0  0  0  0  0  0  0  0  0
    8.4147  -13.4376   22.7730 C   0  0  0  0  0  0  0  0  0  0  0  0
    9.5291  -15.6503   22.3433 C   0  0  2  0  0  0  0  0  0  0  0  0
    9.3471  -17.0536   21.9353 N   0  0  0  0  0  0  0  0  0  0  0  0
   10.2647  -15.6485   23.6135 C   0  0  0  0  0  0  0  0  0  0  0  0
   11.2732  -14.8371   23.7693 O   0  0  0  0  0  0  0  0  0  0  0  0
    8.3747  -12.8597   27.5772 C   0  0  0  0  0  0  0  0  0  0  0  0
    9.3865  -14.0164   27.6100 C   0  0  2  0  0  0  0  0  0  0  0  0
   10.7120  -13.3801   27.9428 C   0  0  0  0  0  0  0  0  0  0  0  0
    9.3424  -14.6466   26.2672 C   0  0  0  0  0  0  0  0  0  0  0  0
   10.1853  -15.8911   26.1142 C   0  0  2  0  0  0  0  0  0  0  0  0
   10.0095  -16.4474   24.7555 N   0  0  0  0  0  0  0  0  0  0  0  0
    9.8584  -16.9498   27.0718 C   0  0  0  0  0  0  0  0  0  0  0  0
    8.8948  -17.7118   26.8437 O   0  0  0  0  0  0  0  0  0  0  0  0
   10.5928  -17.1225   28.2191 O   0  0  0  0  0  0  0  0  0  0  0  0
  2  1  1  0
  3  2  2  0
  4  3  1  0
  5 11  1  0
  5  4  2  0
  6  5  1  0
  7  9  1  0
  7  6  1  0
  7  8  1  6
  9 10  2  0
 11 12  2  0
 12  2  1  0
 13 14  1  0
 15 14  1  0
 15 16  1  6
 15 17  1  0
 17 18  1  1
 18  9  1  0
 19 20  2  0
 19 17  1  0
 22 21  1  6
 22 24  1  0
 23 22  1  0
 25 24  1  1
 25 26  1  0
 25 27  1  0
 26 19  1  0
 27 29  1  0
 28 27  2  0
M  END
$$$$
