YIL.pdb
     RDKit          3D

 29 29  0  0  1  0  0  0  0  0999 V2000
    7.2811  -22.4748   29.6596 O   0  0  0  0  0  0  0  0  0  0  0  0
    7.4098  -21.6939   28.5104 C   0  0  0  0  0  0  0  0  0  0  0  0
    6.7829  -22.1304   27.3632 C   0  0  0  0  0  0  0  0  0  0  0  0
    6.8951  -21.3739   26.2106 C   0  0  0  0  0  0  0  0  0  0  0  0
    7.6102  -20.2016   26.1689 C   0  0  0  0  0  0  0  0  0  0  0  0
    7.7075  -19.4577   24.9073 C   0  0  0  0  0  0  0  0  0  0  0  0
    6.5109  -18.5573   24.7153 C   0  0  2  0  0  0  0  0  0  0  0  0
    5.5728  -19.1987   23.7878 N   0  0  0  0  0  0  0  0  0  0  0  0
    6.9103  -17.1936   24.2056 C   0  0  0  0  0  0  0  0  0  0  0  0
    7.0944  -17.0971   22.9872 O   0  0  0  0  0  0  0  0  0  0  0  0
    8.2301  -19.7788   27.3207 C   0  0  0  0  0  0  0  0  0  0  0  0
    8.1308  -20.5288   28.5020 C   0  0  0  0  0  0  0  0  0  0  0  0
    4.6477  -12.8065   26.3166 C   0  0  0  0  0  0  0  0  0  0  0  0
    5.3908  -13.6946   25.3370 C   0  0  0  0  0  0  0  0  0  0  0  0
    6.8769  -13.7626   25.6382 C   0  0  2  0  0  0  0  0  0  0  0  0
    7.4245  -12.3646   25.3916 C   0  0  0  0  0  0  0  0  0  0  0  0
    7.5925  -14.8235   24.8935 C   0  0  2  0  0  0  0  0  0  0  0  0
    7.0381  -16.1650   25.1422 N   0  0  0  0  0  0  0  0  0  0  0  0
    9.0489  -14.9074   25.0558 C   0  0  0  0  0  0  0  0  0  0  0  0
    9.7663  -13.8215   24.9782 O   0  0  0  0  0  0  0  0  0  0  0  0
   10.5951  -13.4338   27.6106 C   0  0  0  0  0  0  0  0  0  0  0  0
    9.9791  -14.8198   27.8608 C   0  0  2  0  0  0  0  0  0  0  0  0
    9.6707  -14.8608   29.3358 C   0  0  0  0  0  0  0  0  0  0  0  0
   10.9962  -15.8114   27.4313 C   0  0  0  0  0  0  0  0  0  0  0  0
   11.1530  -15.9637   25.9365 C   0  0  2  0  0  0  0  0  0  0  0  0
    9.8204  -16.0695   25.3044 N   0  0  0  0  0  0  0  0  0  0  0  0
   11.9265  -17.1420   25.5386 C   0  0  0  0  0  0  0  0  0  0  0  0
   13.1328  -17.2232   25.8542 O   0  0  0  0  0  0  0  0  0  0  0  0
   11.3503  -18.1628   24.8236 O   0  0  0  0  0  0  0  0  0  0  0  0
  2  1  1  0
  3  2  2  0
  4  3  1  0
  5 11  1  0
  5  4  2  0
  6  5  1  0
  7  9  1  0
  7  6  1  0
  7  8  1  6
  9 10  2  0
 11 12  2  0
 12  2  1  0
 13 14  1  0
 15 14  1  0
 15 16  1  6
 15 17  1  0
 17 18  1  1
 18  9  1  0
 19 20  2  0
 19 17  1  0
 22 21  1  1
 22 24  1  0
 23 22  1  0
 25 24  1  1
 25 26  1  0
 25 27  1  0
 26 19  1  0
 27 29  1  0
 28 27  2  0
M  END
$$$$
