YIL.pdb
     RDKit          3D

 29 29  0  0  1  0  0  0  0  0999 V2000
   17.6980  -14.1186   18.3954 O   0  0  0  0  0  0  0  0  0  0  0  0
   16.3630  -14.2463   18.7809 C   0  0  0  0  0  0  0  0  0  0  0  0
   15.4062  -13.6435   17.9931 C   0  0  0  0  0  0  0  0  0  0  0  0
   14.0755  -13.7556   18.3537 C   0  0  0  0  0  0  0  0  0  0  0  0
   13.6735  -14.4474   19.4705 C   0  0  0  0  0  0  0  0  0  0  0  0
   12.2465  -14.5097   19.8085 C   0  0  0  0  0  0  0  0  0  0  0  0
   11.6698  -15.8652   19.4776 C   0  0  2  0  0  0  0  0  0  0  0  0
   11.4340  -15.9453   18.0320 N   0  0  0  0  0  0  0  0  0  0  0  0
   10.3934  -16.1332   20.2378 C   0  0  0  0  0  0  0  0  0  0  0  0
    9.3393  -15.9586   19.6164 O   0  0  0  0  0  0  0  0  0  0  0  0
   14.6390  -15.0434   20.2466 C   0  0  0  0  0  0  0  0  0  0  0  0
   15.9951  -14.9437   19.9014 C   0  0  0  0  0  0  0  0  0  0  0  0
   10.5087  -19.8294   24.5647 C   0  0  0  0  0  0  0  0  0  0  0  0
   10.7546  -18.8787   23.4088 C   0  0  0  0  0  0  0  0  0  0  0  0
    9.4631  -18.4403   22.7425 C   0  0  2  0  0  0  0  0  0  0  0  0
    9.2925  -19.3305   21.5204 C   0  0  0  0  0  0  0  0  0  0  0  0
    9.4059  -16.9924   22.4385 C   0  0  2  0  0  0  0  0  0  0  0  0
   10.5073  -16.5511   21.5660 N   0  0  0  0  0  0  0  0  0  0  0  0
    9.3343  -16.0600   23.5698 C   0  0  0  0  0  0  0  0  0  0  0  0
   10.4294  -15.5175   24.0240 O   0  0  0  0  0  0  0  0  0  0  0  0
    5.5111  -12.4528   26.7362 C   0  0  0  0  0  0  0  0  0  0  0  0
    6.9468  -13.0009   26.7046 C   0  0  2  0  0  0  0  0  0  0  0  0
    7.8382  -11.7866   26.6466 C   0  0  0  0  0  0  0  0  0  0  0  0
    7.0348  -13.8693   25.5044 C   0  0  0  0  0  0  0  0  0  0  0  0
    8.2815  -14.7181   25.4164 C   0  0  2  0  0  0  0  0  0  0  0  0
    8.1738  -15.6432   24.2678 N   0  0  0  0  0  0  0  0  0  0  0  0
    8.5352  -15.5247   26.6122 C   0  0  0  0  0  0  0  0  0  0  0  0
    9.2970  -15.0873   27.5008 O   0  0  0  0  0  0  0  0  0  0  0  0
    7.9500  -16.7558   26.7769 O   0  0  0  0  0  0  0  0  0  0  0  0
  2  1  1  0
  3  2  2  0
  4  3  1  0
  5 11  1  0
  5  4  2  0
  6  5  1  0
  7  9  1  0
  7  6  1  0
  7  8  1  6
  9 10  2  0
 11 12  2  0
 12  2  1  0
 13 14  1  0
 15 14  1  0
 15 16  1  6
 15 17  1  0
 17 18  1  1
 18  9  1  0
 19 20  2  0
 19 17  1  0
 22 21  1  6
 22 24  1  0
 23 22  1  0
 25 24  1  1
 25 26  1  0
 25 27  1  0
 26 19  1  0
 27 29  1  0
 28 27  2  0
M  END
$$$$
