PMM.pdb
     RDKit          3D

 24 24  0  0  1  0  0  0  0  0999 V2000
    7.9589  -17.3753   19.9667 N   0  0  0  0  0  0  0  0  0  0  0  0
    7.6614  -17.5543   18.5570 C   0  0  0  0  0  0  0  0  0  0  0  0
    7.4760  -16.1771   17.9567 C   0  0  0  0  0  0  0  0  0  0  0  0
    7.6500  -15.2481   19.1690 C   0  0  0  0  0  0  0  0  0  0  0  0
    8.5785  -16.0977   19.9992 C   0  0  1  0  0  0  0  0  0  0  0  0
    8.8731  -15.5661   21.3185 C   0  0  0  0  0  0  0  0  0  0  0  0
    9.8896  -14.8034   21.4397 O   0  0  0  0  0  0  0  0  0  0  0  0
    6.5025  -11.7160   25.2033 C   0  0  0  0  0  0  0  0  0  0  0  0
    7.4234  -12.9343   26.1789 S   0  0  0  0  0  0  0  0  0  0  0  0
    6.9335  -14.6088   25.8267 C   0  0  0  0  0  0  0  0  0  0  0  0
    7.0599  -14.9845   24.4156 C   0  0  0  0  0  0  0  0  0  0  0  0
    8.4040  -15.1660   23.7904 C   0  0  2  0  0  0  0  0  0  0  0  0
    8.1348  -15.8134   22.4975 N   0  0  0  0  0  0  0  0  0  0  0  0
    9.3030  -15.9534   24.6123 C   0  0  0  0  0  0  0  0  0  0  0  0
    8.9044  -17.0363   25.1087 O   0  0  0  0  0  0  0  0  0  0  0  0
    9.9594  -13.2791   29.4216 C   0  0  0  0  0  0  0  0  0  0  0  0
   11.1617  -14.5267   29.9287 S   0  0  0  0  0  0  0  0  0  0  0  0
   11.4201  -15.7501   28.6069 C   0  0  0  0  0  0  0  0  0  0  0  0
   10.8682  -15.1854   27.3154 C   0  0  0  0  0  0  0  0  0  0  0  0
   11.2509  -16.0597   26.1300 C   0  0  2  0  0  0  0  0  0  0  0  0
   10.6444  -15.5893   24.9132 N   0  0  0  0  0  0  0  0  0  0  0  0
   10.7074  -17.4200   26.4647 C   0  0  0  0  0  0  0  0  0  0  0  0
    9.3562  -17.7014   26.4183 O   0  0  0  0  0  0  0  0  0  0  0  0
   11.4995  -18.3365   26.7983 O   0  0  0  0  0  0  0  0  0  0  0  0
  1  2  1  0
  2  3  1  0
  4  3  1  0
  5  1  1  0
  5  4  1  0
  6  7  2  0
  5  6  1  1
  8  9  1  0
 10  9  1  0
 10 11  1  0
 12 11  1  1
 12 13  1  0
 12 14  1  0
 13  6  1  0
 14 15  2  0
 14 21  1  0
 16 17  1  0
 17 18  1  0
 19 18  1  0
 20 19  1  1
 20 22  1  0
 21 20  1  0
 22 24  2  0
 22 23  1  0
M  END
$$$$
