PMM.pdb
     RDKit          3D

 24 24  0  0  1  0  0  0  0  0999 V2000
    7.3082  -15.9663   19.9650 N   0  0  0  0  0  0  0  0  0  0  0  0
    6.9179  -15.8449   18.5719 C   0  0  0  0  0  0  0  0  0  0  0  0
    7.2812  -14.4460   18.1219 C   0  0  0  0  0  0  0  0  0  0  0  0
    7.8530  -13.8120   19.4001 C   0  0  0  0  0  0  0  0  0  0  0  0
    8.3891  -15.0511   20.0712 C   0  0  1  0  0  0  0  0  0  0  0  0
    8.9154  -14.8393   21.4085 C   0  0  0  0  0  0  0  0  0  0  0  0
   10.0468  -14.2583   21.5179 O   0  0  0  0  0  0  0  0  0  0  0  0
    6.6519  -12.3186   27.1484 C   0  0  0  0  0  0  0  0  0  0  0  0
    6.0124  -12.3543   25.4531 S   0  0  0  0  0  0  0  0  0  0  0  0
    7.1705  -13.0532   24.2964 C   0  0  0  0  0  0  0  0  0  0  0  0
    7.7448  -14.3321   24.7241 C   0  0  0  0  0  0  0  0  0  0  0  0
    8.8536  -14.9684   23.9521 C   0  0  2  0  0  0  0  0  0  0  0  0
    8.2893  -15.2184   22.6170 N   0  0  0  0  0  0  0  0  0  0  0  0
    9.3399  -16.1871   24.5702 C   0  0  0  0  0  0  0  0  0  0  0  0
    8.5563  -17.1542   24.7394 O   0  0  0  0  0  0  0  0  0  0  0  0
   10.3284  -13.2986   29.0779 C   0  0  0  0  0  0  0  0  0  0  0  0
   11.1703  -14.8109   29.5910 S   0  0  0  0  0  0  0  0  0  0  0  0
   10.4335  -16.2661   28.7845 C   0  0  0  0  0  0  0  0  0  0  0  0
   10.1145  -15.9091   27.3484 C   0  0  0  0  0  0  0  0  0  0  0  0
   10.9187  -16.7662   26.3815 C   0  0  2  0  0  0  0  0  0  0  0  0
   10.6757  -16.3854   25.0157 N   0  0  0  0  0  0  0  0  0  0  0  0
   10.4215  -18.1665   26.6048 C   0  0  0  0  0  0  0  0  0  0  0  0
    9.5128  -18.7661   25.7551 O   0  0  0  0  0  0  0  0  0  0  0  0
   10.8400  -18.8201   27.5928 O   0  0  0  0  0  0  0  0  0  0  0  0
  1  2  1  0
  2  3  1  0
  4  3  1  0
  5  1  1  0
  5  4  1  0
  6  7  2  0
  5  6  1  1
  8  9  1  0
 10  9  1  0
 10 11  1  0
 12 11  1  1
 12 13  1  0
 12 14  1  0
 13  6  1  0
 14 15  2  0
 14 21  1  0
 16 17  1  0
 17 18  1  0
 19 18  1  0
 20 19  1  1
 20 22  1  0
 21 20  1  0
 22 24  2  0
 22 23  1  0
M  END
$$$$
