PMM.pdb
     RDKit          3D

 24 24  0  0  1  0  0  0  0  0999 V2000
    9.5375  -16.2423   19.1307 N   0  0  0  0  0  0  0  0  0  0  0  0
    9.1511  -17.1641   18.0777 C   0  0  0  0  0  0  0  0  0  0  0  0
    8.6967  -18.4452   18.7438 C   0  0  0  0  0  0  0  0  0  0  0  0
    8.9169  -18.1524   20.2367 C   0  0  0  0  0  0  0  0  0  0  0  0
    8.7314  -16.6562   20.2244 C   0  0  1  0  0  0  0  0  0  0  0  0
    8.9942  -16.0002   21.4935 C   0  0  0  0  0  0  0  0  0  0  0  0
   10.2062  -15.7176   21.7779 O   0  0  0  0  0  0  0  0  0  0  0  0
    7.4111  -11.0941   26.1857 C   0  0  0  0  0  0  0  0  0  0  0  0
    6.2219  -12.3736   25.7031 S   0  0  0  0  0  0  0  0  0  0  0  0
    6.9453  -13.9990   25.6497 C   0  0  0  0  0  0  0  0  0  0  0  0
    7.0411  -14.5668   24.3018 C   0  0  0  0  0  0  0  0  0  0  0  0
    8.3472  -15.0591   23.7708 C   0  0  2  0  0  0  0  0  0  0  0  0
    8.0267  -15.6389   22.4577 N   0  0  0  0  0  0  0  0  0  0  0  0
    8.9809  -16.0249   24.6479 C   0  0  0  0  0  0  0  0  0  0  0  0
    8.8671  -17.2525   24.4071 O   0  0  0  0  0  0  0  0  0  0  0  0
    9.7752  -13.4138   30.2380 C   0  0  0  0  0  0  0  0  0  0  0  0
   11.0984  -13.9584   29.1374 S   0  0  0  0  0  0  0  0  0  0  0  0
   10.7672  -15.6331   28.5076 C   0  0  0  0  0  0  0  0  0  0  0  0
   11.6593  -15.8808   27.3100 C   0  0  0  0  0  0  0  0  0  0  0  0
   10.8740  -16.5018   26.1638 C   0  0  2  0  0  0  0  0  0  0  0  0
    9.7469  -15.6864   25.7973 N   0  0  0  0  0  0  0  0  0  0  0  0
   10.3844  -17.8167   26.7016 C   0  0  0  0  0  0  0  0  0  0  0  0
   11.2212  -18.9052   26.8505 O   0  0  0  0  0  0  0  0  0  0  0  0
    9.1775  -17.9392   27.0286 O   0  0  0  0  0  0  0  0  0  0  0  0
  1  2  1  0
  2  3  1  0
  4  3  1  0
  5  1  1  0
  5  4  1  0
  6  7  2  0
  5  6  1  1
  8  9  1  0
 10  9  1  0
 10 11  1  0
 12 11  1  1
 12 13  1  0
 12 14  1  0
 13  6  1  0
 14 15  2  0
 14 21  1  0
 16 17  1  0
 17 18  1  0
 19 18  1  0
 20 19  1  1
 20 22  1  0
 21 20  1  0
 22 24  2  0
 22 23  1  0
M  END
$$$$
