PMM.pdb
     RDKit          3D

 24 24  0  0  1  0  0  0  0  0999 V2000
    7.4753  -15.3028   19.6987 N   0  0  0  0  0  0  0  0  0  0  0  0
    7.2731  -14.9099   18.3157 C   0  0  0  0  0  0  0  0  0  0  0  0
    7.5543  -13.4254   18.2227 C   0  0  0  0  0  0  0  0  0  0  0  0
    7.8760  -13.0454   19.6770 C   0  0  0  0  0  0  0  0  0  0  0  0
    8.4341  -14.3609   20.1578 C   0  0  1  0  0  0  0  0  0  0  0  0
    8.7447  -14.4080   21.5760 C   0  0  0  0  0  0  0  0  0  0  0  0
    9.9534  -14.1964   21.9280 O   0  0  0  0  0  0  0  0  0  0  0  0
    7.3164  -10.9354   26.5529 C   0  0  0  0  0  0  0  0  0  0  0  0
    6.0668  -12.2470   26.6009 S   0  0  0  0  0  0  0  0  0  0  0  0
    6.7092  -13.8271   26.0924 C   0  0  0  0  0  0  0  0  0  0  0  0
    6.8526  -13.9752   24.6412 C   0  0  0  0  0  0  0  0  0  0  0  0
    8.1265  -14.4788   24.0464 C   0  0  2  0  0  0  0  0  0  0  0  0
    7.8278  -14.6685   22.6189 N   0  0  0  0  0  0  0  0  0  0  0  0
    8.5902  -15.7040   24.6690 C   0  0  0  0  0  0  0  0  0  0  0  0
    8.0892  -16.8039   24.3269 O   0  0  0  0  0  0  0  0  0  0  0  0
   10.0026  -14.2953   29.9118 C   0  0  0  0  0  0  0  0  0  0  0  0
   10.4423  -14.7691   28.2262 S   0  0  0  0  0  0  0  0  0  0  0  0
   11.0964  -16.4664   28.1817 C   0  0  0  0  0  0  0  0  0  0  0  0
   11.5395  -16.7733   26.7671 C   0  0  0  0  0  0  0  0  0  0  0  0
   10.3407  -16.9852   25.8537 C   0  0  2  0  0  0  0  0  0  0  0  0
    9.5997  -15.7661   25.6688 N   0  0  0  0  0  0  0  0  0  0  0  0
    9.4819  -17.9866   26.5731 C   0  0  0  0  0  0  0  0  0  0  0  0
    9.9424  -19.2468   26.9001 O   0  0  0  0  0  0  0  0  0  0  0  0
    8.3066  -17.6767   26.8911 O   0  0  0  0  0  0  0  0  0  0  0  0
  1  2  1  0
  2  3  1  0
  4  3  1  0
  5  1  1  0
  5  4  1  0
  6  7  2  0
  5  6  1  1
  8  9  1  0
 10  9  1  0
 10 11  1  0
 12 11  1  1
 12 13  1  0
 12 14  1  0
 13  6  1  0
 14 15  2  0
 14 21  1  0
 16 17  1  0
 17 18  1  0
 19 18  1  0
 20 19  1  1
 20 22  1  0
 21 20  1  0
 22 24  2  0
 22 23  1  0
M  END
$$$$
