PMM.pdb
     RDKit          3D

 24 24  0  0  1  0  0  0  0  0999 V2000
    8.1106  -15.2963   18.9858 N   0  0  0  0  0  0  0  0  0  0  0  0
    8.0363  -14.9503   17.5777 C   0  0  0  0  0  0  0  0  0  0  0  0
    8.3036  -13.4647   17.4635 C   0  0  0  0  0  0  0  0  0  0  0  0
    8.4788  -13.0340   18.9287 C   0  0  0  0  0  0  0  0  0  0  0  0
    9.0072  -14.3239   19.5032 C   0  0  1  0  0  0  0  0  0  0  0  0
    9.1811  -14.3213   20.9453 C   0  0  0  0  0  0  0  0  0  0  0  0
   10.1776  -13.6827   21.4237 O   0  0  0  0  0  0  0  0  0  0  0  0
    5.7818  -12.0283   26.8465 C   0  0  0  0  0  0  0  0  0  0  0  0
    6.3873  -12.4822   25.1999 S   0  0  0  0  0  0  0  0  0  0  0  0
    6.1616  -14.2100   24.8369 C   0  0  0  0  0  0  0  0  0  0  0  0
    6.7185  -14.6276   23.5470 C   0  0  0  0  0  0  0  0  0  0  0  0
    8.1848  -14.5321   23.2806 C   0  0  2  0  0  0  0  0  0  0  0  0
    8.3439  -14.9650   21.8840 N   0  0  0  0  0  0  0  0  0  0  0  0
    8.9739  -15.3406   24.1902 C   0  0  0  0  0  0  0  0  0  0  0  0
    9.2504  -16.5278   23.8870 O   0  0  0  0  0  0  0  0  0  0  0  0
   10.8258  -13.7295   30.1888 C   0  0  0  0  0  0  0  0  0  0  0  0
   11.6637  -15.3253   30.0865 S   0  0  0  0  0  0  0  0  0  0  0  0
   11.3149  -16.1375   28.4960 C   0  0  0  0  0  0  0  0  0  0  0  0
   10.5115  -15.1849   27.6365 C   0  0  0  0  0  0  0  0  0  0  0  0
   10.2536  -15.7784   26.2590 C   0  0  2  0  0  0  0  0  0  0  0  0
    9.4781  -14.8857   25.4397 N   0  0  0  0  0  0  0  0  0  0  0  0
    9.4623  -17.0285   26.5214 C   0  0  0  0  0  0  0  0  0  0  0  0
   10.0684  -18.2574   26.6929 O   0  0  0  0  0  0  0  0  0  0  0  0
    8.2093  -16.9636   26.5884 O   0  0  0  0  0  0  0  0  0  0  0  0
  1  2  1  0
  2  3  1  0
  4  3  1  0
  5  1  1  0
  5  4  1  0
  6  7  2  0
  5  6  1  1
  8  9  1  0
 10  9  1  0
 10 11  1  0
 12 11  1  1
 12 13  1  0
 12 14  1  0
 13  6  1  0
 14 15  2  0
 14 21  1  0
 16 17  1  0
 17 18  1  0
 19 18  1  0
 20 19  1  1
 20 22  1  0
 21 20  1  0
 22 24  2  0
 22 23  1  0
M  END
$$$$
