PMM.pdb
     RDKit          3D

 24 24  0  0  1  0  0  0  0  0999 V2000
    8.1647  -17.5911   19.4772 N   0  0  0  0  0  0  0  0  0  0  0  0
    7.9154  -17.7796   18.0594 C   0  0  0  0  0  0  0  0  0  0  0  0
    8.0002  -16.4189   17.4015 C   0  0  0  0  0  0  0  0  0  0  0  0
    8.2668  -15.4798   18.5890 C   0  0  0  0  0  0  0  0  0  0  0  0
    8.9912  -16.4364   19.5019 C   0  0  1  0  0  0  0  0  0  0  0  0
    9.3027  -15.9041   20.8170 C   0  0  0  0  0  0  0  0  0  0  0  0
   10.3894  -15.2479   20.9516 O   0  0  0  0  0  0  0  0  0  0  0  0
    5.8474  -12.6994   26.1007 C   0  0  0  0  0  0  0  0  0  0  0  0
    7.0006  -12.4003   24.7350 S   0  0  0  0  0  0  0  0  0  0  0  0
    6.7418  -13.5040   23.3629 C   0  0  0  0  0  0  0  0  0  0  0  0
    7.2621  -14.8573   23.5778 C   0  0  0  0  0  0  0  0  0  0  0  0
    8.6580  -15.2113   23.1824 C   0  0  2  0  0  0  0  0  0  0  0  0
    8.5100  -16.0430   21.9783 N   0  0  0  0  0  0  0  0  0  0  0  0
    9.3797  -15.9042   24.2325 C   0  0  0  0  0  0  0  0  0  0  0  0
    9.4350  -17.1591   24.2256 O   0  0  0  0  0  0  0  0  0  0  0  0
   10.8734  -13.4128   30.0031 C   0  0  0  0  0  0  0  0  0  0  0  0
   11.7368  -14.9894   30.1703 S   0  0  0  0  0  0  0  0  0  0  0  0
   11.3964  -16.0671   28.7443 C   0  0  0  0  0  0  0  0  0  0  0  0
   10.8629  -15.2133   27.6138 C   0  0  0  0  0  0  0  0  0  0  0  0
   10.6176  -16.0504   26.3668 C   0  0  2  0  0  0  0  0  0  0  0  0
   10.0533  -15.2592   25.3061 N   0  0  0  0  0  0  0  0  0  0  0  0
    9.6240  -17.0936   26.7937 C   0  0  0  0  0  0  0  0  0  0  0  0
   10.0062  -18.3793   27.1221 O   0  0  0  0  0  0  0  0  0  0  0  0
    8.4050  -16.7960   26.8568 O   0  0  0  0  0  0  0  0  0  0  0  0
  1  2  1  0
  2  3  1  0
  4  3  1  0
  5  1  1  0
  5  4  1  0
  6  7  2  0
  5  6  1  1
  8  9  1  0
 10  9  1  0
 10 11  1  0
 12 11  1  1
 12 13  1  0
 12 14  1  0
 13  6  1  0
 14 15  2  0
 14 21  1  0
 16 17  1  0
 17 18  1  0
 19 18  1  0
 20 19  1  1
 20 22  1  0
 21 20  1  0
 22 24  2  0
 22 23  1  0
M  END
$$$$
