FQE.pdb
     RDKit          3D

 30 30  0  0  1  0  0  0  0  0999 V2000
    5.7267  -16.5613   25.2906 N   0  0  0  0  0  0  0  0  0  0  0  0
    6.4913  -15.4819   24.6981 C   0  0  1  0  0  0  0  0  0  0  0  0
    7.2634  -14.7809   25.8160 C   0  0  0  0  0  0  0  0  0  0  0  0
    6.6810  -13.4425   26.0394 C   0  0  0  0  0  0  0  0  0  0  0  0
    5.6325  -13.2803   26.9001 C   0  0  0  0  0  0  0  0  0  0  0  0
    5.1070  -12.0307   27.0930 C   0  0  0  0  0  0  0  0  0  0  0  0
    5.6060  -10.9211   26.4414 C   0  0  0  0  0  0  0  0  0  0  0  0
    6.6616  -11.1063   25.5793 C   0  0  0  0  0  0  0  0  0  0  0  0
    7.2026  -12.3652   25.3750 C   0  0  0  0  0  0  0  0  0  0  0  0
    7.4869  -16.0341   23.7643 C   0  0  0  0  0  0  0  0  0  0  0  0
    8.1110  -17.0864   24.0598 O   0  0  0  0  0  0  0  0  0  0  0  0
    8.8511  -12.9150   18.7830 N   0  0  0  0  0  0  0  0  0  0  0  0
    7.8144  -13.8876   18.7175 C   0  0  0  0  0  0  0  0  0  0  0  0
    6.8410  -13.6609   17.9537 O   0  0  0  0  0  0  0  0  0  0  0  0
    7.9086  -15.1386   19.5486 C   0  0  0  0  0  0  0  0  0  0  0  0
    9.0801  -14.9791   20.4512 C   0  0  0  0  0  0  0  0  0  0  0  0
    8.9828  -15.6939   21.7555 C   0  0  2  0  0  0  0  0  0  0  0  0
    7.7890  -15.4186   22.5037 N   0  0  0  0  0  0  0  0  0  0  0  0
   10.2124  -15.5487   22.6032 C   0  0  0  0  0  0  0  0  0  0  0  0
   10.2332  -14.7543   23.5830 O   0  0  0  0  0  0  0  0  0  0  0  0
   11.3400  -16.3370   22.2563 N   0  0  0  0  0  0  0  0  0  0  0  0
   12.5586  -16.3581   23.0895 C   0  0  1  0  0  0  0  0  0  0  0  0
   12.2198  -17.0056   24.3866 C   0  0  0  0  0  0  0  0  0  0  0  0
   11.8218  -18.4501   24.2958 C   0  0  0  0  0  0  0  0  0  0  0  0
   11.7160  -18.9814   25.6859 C   0  0  0  0  0  0  0  0  0  0  0  0
   12.4004  -18.5013   26.6057 O   0  0  0  0  0  0  0  0  0  0  0  0
   13.6251  -17.0640   22.3685 C   0  0  0  0  0  0  0  0  0  0  0  0
   13.4088  -17.6829   21.1658 O   0  0  0  0  0  0  0  0  0  0  0  0
   10.8448  -20.0219   25.9549 O   0  0  0  0  0  0  0  0  0  0  0  0
   14.8152  -17.1362   22.8348 O   0  0  0  0  0  0  0  0  0  0  0  0
  2  1  1  1
  2 10  1  0
  3  2  1  0
  3  4  1  0
  4  5  2  0
  4  9  1  0
  5  6  1  0
  6  7  2  0
  8  7  1  0
  9  8  2  0
 10 11  2  0
 13 14  2  0
 13 12  1  0
 15 13  1  0
 17 16  1  6
 16 15  1  0
 17 19  1  0
 18 10  1  0
 18 17  1  0
 19 20  2  0
 21 19  1  0
 21 22  1  0
 22 27  1  0
 23 24  1  0
 22 23  1  1
 24 25  1  0
 25 29  1  0
 25 26  2  0
 27 28  1  0
 30 27  2  0
M  END
$$$$
