FQE.pdb
     RDKit          3D

 30 30  0  0  1  0  0  0  0  0999 V2000
    6.0204  -16.9447   25.4242 N   0  0  0  0  0  0  0  0  0  0  0  0
    6.7355  -15.7620   24.9878 C   0  0  1  0  0  0  0  0  0  0  0  0
    7.6074  -15.2820   26.1483 C   0  0  0  0  0  0  0  0  0  0  0  0
    7.2138  -13.9058   26.5109 C   0  0  0  0  0  0  0  0  0  0  0  0
    5.9402  -13.4681   26.2803 C   0  0  0  0  0  0  0  0  0  0  0  0
    5.5957  -12.1883   26.6240 C   0  0  0  0  0  0  0  0  0  0  0  0
    6.5000  -11.3193   27.2003 C   0  0  0  0  0  0  0  0  0  0  0  0
    7.7765  -11.7799   27.4238 C   0  0  0  0  0  0  0  0  0  0  0  0
    8.1383  -13.0724   27.0808 C   0  0  0  0  0  0  0  0  0  0  0  0
    7.6416  -16.1110   23.8807 C   0  0  0  0  0  0  0  0  0  0  0  0
    8.1307  -17.2685   23.8090 O   0  0  0  0  0  0  0  0  0  0  0  0
    9.1438  -12.7610   18.7070 N   0  0  0  0  0  0  0  0  0  0  0  0
    8.0926  -13.7179   18.6417 C   0  0  0  0  0  0  0  0  0  0  0  0
    7.3569  -13.7166   17.6213 O   0  0  0  0  0  0  0  0  0  0  0  0
    7.8927  -14.6882   19.7744 C   0  0  0  0  0  0  0  0  0  0  0  0
    9.0288  -14.5036   20.7165 C   0  0  0  0  0  0  0  0  0  0  0  0
    9.0396  -15.4213   21.8910 C   0  0  2  0  0  0  0  0  0  0  0  0
    8.0041  -15.1757   22.8545 N   0  0  0  0  0  0  0  0  0  0  0  0
   10.3864  -15.5323   22.5431 C   0  0  0  0  0  0  0  0  0  0  0  0
   10.9503  -14.5194   23.0410 O   0  0  0  0  0  0  0  0  0  0  0  0
   10.9918  -16.8152   22.5740 N   0  0  0  0  0  0  0  0  0  0  0  0
   12.3544  -17.0182   23.1048 C   0  0  1  0  0  0  0  0  0  0  0  0
   12.2884  -18.0708   24.1556 C   0  0  0  0  0  0  0  0  0  0  0  0
   11.3845  -17.7626   25.3138 C   0  0  0  0  0  0  0  0  0  0  0  0
   11.3550  -18.9623   26.2001 C   0  0  0  0  0  0  0  0  0  0  0  0
   11.3019  -20.1079   25.7209 O   0  0  0  0  0  0  0  0  0  0  0  0
   13.2543  -17.3781   22.0020 C   0  0  0  0  0  0  0  0  0  0  0  0
   12.7887  -17.7113   20.7576 O   0  0  0  0  0  0  0  0  0  0  0  0
   11.3874  -18.7978   27.5735 O   0  0  0  0  0  0  0  0  0  0  0  0
   14.5253  -17.3993   22.1539 O   0  0  0  0  0  0  0  0  0  0  0  0
  2  1  1  1
  2 10  1  0
  3  2  1  0
  3  4  1  0
  4  5  2  0
  4  9  1  0
  5  6  1  0
  6  7  2  0
  8  7  1  0
  9  8  2  0
 10 11  2  0
 13 14  2  0
 13 12  1  0
 15 13  1  0
 17 16  1  6
 16 15  1  0
 17 19  1  0
 18 10  1  0
 18 17  1  0
 19 20  2  0
 21 19  1  0
 21 22  1  0
 22 27  1  0
 23 24  1  0
 22 23  1  1
 24 25  1  0
 25 29  1  0
 25 26  2  0
 27 28  1  0
 30 27  2  0
M  END
$$$$
