FQE.pdb
     RDKit          3D

 30 30  0  0  1  0  0  0  0  0999 V2000
    5.5996  -17.4650   24.7786 N   0  0  0  0  0  0  0  0  0  0  0  0
    6.1023  -16.1059   24.7493 C   0  0  1  0  0  0  0  0  0  0  0  0
    6.5730  -15.7459   26.1586 C   0  0  0  0  0  0  0  0  0  0  0  0
    6.4920  -14.2821   26.3356 C   0  0  0  0  0  0  0  0  0  0  0  0
    5.2832  -13.6469   26.2919 C   0  0  0  0  0  0  0  0  0  0  0  0
    5.2300  -12.2889   26.4584 C   0  0  0  0  0  0  0  0  0  0  0  0
    6.3665  -11.5351   26.6706 C   0  0  0  0  0  0  0  0  0  0  0  0
    7.5730  -12.1941   26.7111 C   0  0  0  0  0  0  0  0  0  0  0  0
    7.6410  -13.5677   26.5441 C   0  0  0  0  0  0  0  0  0  0  0  0
    7.2790  -16.0315   23.8673 C   0  0  0  0  0  0  0  0  0  0  0  0
    8.1658  -16.9229   23.9247 O   0  0  0  0  0  0  0  0  0  0  0  0
    8.8470  -12.8069   18.2920 N   0  0  0  0  0  0  0  0  0  0  0  0
    7.9511  -13.7442   18.8785 C   0  0  0  0  0  0  0  0  0  0  0  0
    7.5963  -14.7330   18.1865 O   0  0  0  0  0  0  0  0  0  0  0  0
    7.4610  -13.5314   20.2853 C   0  0  0  0  0  0  0  0  0  0  0  0
    8.6375  -13.6669   21.1854 C   0  0  0  0  0  0  0  0  0  0  0  0
    8.6253  -14.8621   22.0760 C   0  0  2  0  0  0  0  0  0  0  0  0
    7.4709  -14.9686   22.9226 N   0  0  0  0  0  0  0  0  0  0  0  0
    9.8979  -15.0349   22.8521 C   0  0  0  0  0  0  0  0  0  0  0  0
   10.2620  -14.1733   23.6987 O   0  0  0  0  0  0  0  0  0  0  0  0
   10.6662  -16.1993   22.5932 N   0  0  0  0  0  0  0  0  0  0  0  0
   11.9167  -16.4831   23.3249 C   0  0  1  0  0  0  0  0  0  0  0  0
   11.7920  -17.8299   23.9471 C   0  0  0  0  0  0  0  0  0  0  0  0
   12.9963  -18.2944   24.7135 C   0  0  0  0  0  0  0  0  0  0  0  0
   12.6832  -19.6373   25.2830 C   0  0  0  0  0  0  0  0  0  0  0  0
   12.5577  -20.6294   24.5448 O   0  0  0  0  0  0  0  0  0  0  0  0
   13.0509  -16.3934   22.3969 C   0  0  0  0  0  0  0  0  0  0  0  0
   12.8872  -16.4244   21.0373 O   0  0  0  0  0  0  0  0  0  0  0  0
   12.5306  -19.7805   26.6506 O   0  0  0  0  0  0  0  0  0  0  0  0
   14.2547  -16.2834   22.8185 O   0  0  0  0  0  0  0  0  0  0  0  0
  2  1  1  1
  2 10  1  0
  3  2  1  0
  3  4  1  0
  4  5  2  0
  4  9  1  0
  5  6  1  0
  6  7  2  0
  8  7  1  0
  9  8  2  0
 10 11  2  0
 13 14  2  0
 13 12  1  0
 15 13  1  0
 17 16  1  1
 16 15  1  0
 17 19  1  0
 18 10  1  0
 18 17  1  0
 19 20  2  0
 21 19  1  0
 21 22  1  0
 22 27  1  0
 23 24  1  0
 22 23  1  6
 24 25  1  0
 25 29  1  0
 25 26  2  0
 27 28  1  0
 30 27  2  0
M  END
$$$$
