FQE.pdb
     RDKit          3D

 30 30  0  0  1  0  0  0  0  0999 V2000
    5.7664  -16.7319   24.3811 N   0  0  0  0  0  0  0  0  0  0  0  0
    6.9186  -15.8531   24.3555 C   0  0  1  0  0  0  0  0  0  0  0  0
    7.2143  -15.4199   25.7915 C   0  0  0  0  0  0  0  0  0  0  0  0
    6.9143  -13.9811   25.9334 C   0  0  0  0  0  0  0  0  0  0  0  0
    7.6397  -13.0527   25.2415 C   0  0  0  0  0  0  0  0  0  0  0  0
    7.3453  -11.7235   25.3873 C   0  0  0  0  0  0  0  0  0  0  0  0
    6.3319  -11.2875   26.2166 C   0  0  0  0  0  0  0  0  0  0  0  0
    5.6140  -12.2384   26.9039 C   0  0  0  0  0  0  0  0  0  0  0  0
    5.9014  -13.5865   26.7656 C   0  0  0  0  0  0  0  0  0  0  0  0
    8.0968  -16.5944   23.8752 C   0  0  0  0  0  0  0  0  0  0  0  0
    8.0949  -17.8530   23.8839 O   0  0  0  0  0  0  0  0  0  0  0  0
   12.3445  -16.3097   19.3283 N   0  0  0  0  0  0  0  0  0  0  0  0
   12.0724  -15.0488   19.9292 C   0  0  0  0  0  0  0  0  0  0  0  0
   12.5723  -14.0232   19.3994 O   0  0  0  0  0  0  0  0  0  0  0  0
   11.2096  -14.9772   21.1601 C   0  0  0  0  0  0  0  0  0  0  0  0
   10.7327  -16.3575   21.4430 C   0  0  0  0  0  0  0  0  0  0  0  0
   10.4159  -16.6431   22.8712 C   0  0  2  0  0  0  0  0  0  0  0  0
    9.2758  -15.9388   23.3859 N   0  0  0  0  0  0  0  0  0  0  0  0
   11.6035  -16.5107   23.7788 C   0  0  0  0  0  0  0  0  0  0  0  0
   12.3020  -15.4601   23.7821 O   0  0  0  0  0  0  0  0  0  0  0  0
   11.9031  -17.6099   24.6245 N   0  0  0  0  0  0  0  0  0  0  0  0
   12.9683  -17.5373   25.6442 C   0  0  1  0  0  0  0  0  0  0  0  0
   12.3978  -17.9945   26.9411 C   0  0  0  0  0  0  0  0  0  0  0  0
   11.6131  -19.2727   26.8795 C   0  0  0  0  0  0  0  0  0  0  0  0
   11.1959  -19.6181   28.2696 C   0  0  0  0  0  0  0  0  0  0  0  0
   11.8682  -19.2485   29.2475 O   0  0  0  0  0  0  0  0  0  0  0  0
   14.1090  -18.3537   25.2108 C   0  0  0  0  0  0  0  0  0  0  0  0
   14.0805  -19.0978   24.0611 O   0  0  0  0  0  0  0  0  0  0  0  0
   10.0457  -20.3596   28.4732 O   0  0  0  0  0  0  0  0  0  0  0  0
   15.1906  -18.4101   25.8934 O   0  0  0  0  0  0  0  0  0  0  0  0
  2  1  1  1
  2 10  1  0
  3  2  1  0
  3  4  1  0
  4  5  2  0
  4  9  1  0
  5  6  1  0
  6  7  2  0
  8  7  1  0
  9  8  2  0
 10 11  2  0
 13 14  2  0
 13 12  1  0
 15 13  1  0
 17 16  1  6
 16 15  1  0
 17 19  1  0
 18 10  1  0
 18 17  1  0
 19 20  2  0
 21 19  1  0
 21 22  1  0
 22 27  1  0
 23 24  1  0
 22 23  1  1
 24 25  1  0
 25 29  1  0
 25 26  2  0
 27 28  1  0
 30 27  2  0
M  END
$$$$
