TCE.pdb
     RDKit          3D

 23 22  0  0  1  0  0  0  0  0999 V2000
   20.8074   -9.9132  -13.4061 C   0  0  0  0  0  0  0  0  0  0  0  0
   20.1921   -9.9290  -14.7806 C   0  0  1  0  0  0  0  0  0  0  0  0
   21.0192  -10.7309  -15.5955 O   0  0  0  0  0  0  0  0  0  0  0  0
   18.7853  -10.5415  -14.7893 C   0  0  2  0  0  0  0  0  0  0  0  0
   18.3510  -10.4466  -16.1919 N   0  0  0  0  0  0  0  0  0  0  0  0
   17.8280   -9.7263  -13.9875 C   0  0  0  0  0  0  0  0  0  0  0  0
   17.4791   -8.5795  -14.4153 O   0  0  0  0  0  0  0  0  0  0  0  0
   17.3100  -10.2201  -12.7651 N   0  0  0  0  0  0  0  0  0  0  0  0
   16.3987   -9.4282  -11.9494 C   0  0  1  0  0  0  0  0  0  0  0  0
   15.5345  -10.3426  -11.1107 C   0  0  0  0  0  0  0  0  0  0  0  0
   14.4727   -9.4793   -9.9493 S   0  0  0  0  0  0  0  0  0  0  0  0
   17.1534   -8.5322  -11.0421 C   0  0  0  0  0  0  0  0  0  0  0  0
   17.9534   -9.0278  -10.1669 O   0  0  0  0  0  0  0  0  0  0  0  0
   17.0965   -7.1203  -11.0269 N   0  0  0  0  0  0  0  0  0  0  0  0
   17.9058   -6.2987  -10.1488 C   0  0  1  0  0  0  0  0  0  0  0  0
   18.8778   -5.4373  -10.9337 C   0  0  0  0  0  0  0  0  0  0  0  0
   19.9804   -6.2757  -11.5268 C   0  0  0  0  0  0  0  0  0  0  0  0
   20.9458   -5.4806  -12.2935 C   0  0  0  0  0  0  0  0  0  0  0  0
   20.5806   -4.8918  -13.3431 O   0  0  0  0  0  0  0  0  0  0  0  0
   17.0072   -5.4876   -9.3069 C   0  0  0  0  0  0  0  0  0  0  0  0
   15.6513   -5.4638   -9.5645 O   0  0  0  0  0  0  0  0  0  0  0  0
   22.2638   -5.3550  -11.8949 O   0  0  0  0  0  0  0  0  0  0  0  0
   17.4316   -4.8011   -8.3430 O   0  0  0  0  0  0  0  0  0  0  0  0
  2  1  1  1
  3  2  1  0
  4  2  1  0
  4  5  1  6
  6  8  1  0
  6  4  1  0
  7  6  2  0
  9 12  1  0
  9  8  1  0
  9 10  1  1
 11 10  1  0
 12 14  1  0
 13 12  2  0
 14 15  1  0
 15 20  1  0
 15 16  1  6
 16 17  1  0
 18 22  1  0
 18 17  1  0
 19 18  2  0
 20 21  1  0
 23 20  2  0
M  END
$$$$
