TCE.pdb
     RDKit          3D

 23 22  0  0  1  0  0  0  0  0999 V2000
   16.4312  -11.0259  -11.6049 C   0  0  0  0  0  0  0  0  0  0  0  0
   15.0080  -11.1488  -11.1278 C   0  0  1  0  0  0  0  0  0  0  0  0
   14.8008  -12.5024  -10.7870 O   0  0  0  0  0  0  0  0  0  0  0  0
   14.7297  -10.3004   -9.8799 C   0  0  2  0  0  0  0  0  0  0  0  0
   13.3224  -10.5783   -9.5522 N   0  0  0  0  0  0  0  0  0  0  0  0
   14.8212   -8.8421  -10.1775 C   0  0  0  0  0  0  0  0  0  0  0  0
   13.8995   -8.2882  -10.8584 O   0  0  0  0  0  0  0  0  0  0  0  0
   15.9185   -8.0791   -9.7081 N   0  0  0  0  0  0  0  0  0  0  0  0
   16.0905   -6.6820  -10.0842 C   0  0  1  0  0  0  0  0  0  0  0  0
   15.9367   -5.8000   -8.8656 C   0  0  0  0  0  0  0  0  0  0  0  0
   16.6722   -6.4798   -7.3762 S   0  0  0  0  0  0  0  0  0  0  0  0
   17.4372   -6.4574  -10.6598 C   0  0  0  0  0  0  0  0  0  0  0  0
   18.4432   -7.1287  -10.2251 O   0  0  0  0  0  0  0  0  0  0  0  0
   17.7630   -5.5450  -11.6885 N   0  0  0  0  0  0  0  0  0  0  0  0
   19.0549   -5.5109  -12.3450 C   0  0  1  0  0  0  0  0  0  0  0  0
   19.4525   -6.8820  -12.8599 C   0  0  0  0  0  0  0  0  0  0  0  0
   20.7950   -6.8310  -13.5420 C   0  0  0  0  0  0  0  0  0  0  0  0
   21.2866   -8.1594  -13.9239 C   0  0  0  0  0  0  0  0  0  0  0  0
   21.2956   -8.5009  -15.1342 O   0  0  0  0  0  0  0  0  0  0  0  0
   19.0042   -4.5101  -13.4266 C   0  0  0  0  0  0  0  0  0  0  0  0
   17.7870   -4.0824  -13.9176 O   0  0  0  0  0  0  0  0  0  0  0  0
   21.7473   -9.0623  -12.9835 O   0  0  0  0  0  0  0  0  0  0  0  0
   20.0445   -4.0182  -13.9327 O   0  0  0  0  0  0  0  0  0  0  0  0
  2  1  1  1
  3  2  1  0
  4  2  1  0
  4  5  1  6
  6  8  1  0
  6  4  1  0
  7  6  2  0
  9 12  1  0
  9  8  1  0
  9 10  1  1
 11 10  1  0
 12 14  1  0
 13 12  2  0
 14 15  1  0
 15 20  1  0
 15 16  1  6
 16 17  1  0
 18 22  1  0
 18 17  1  0
 19 18  2  0
 20 21  1  0
 23 20  2  0
M  END
$$$$
