TCE.pdb
     RDKit          3D

 23 22  0  0  1  0  0  0  0  0999 V2000
   19.8485  -12.8853  -20.4874 C   0  0  0  0  0  0  0  0  0  0  0  0
   19.8141  -13.5579  -19.1404 C   0  0  1  0  0  0  0  0  0  0  0  0
   20.3613  -14.8479  -19.3075 O   0  0  0  0  0  0  0  0  0  0  0  0
   20.6573  -12.8203  -18.0919 C   0  0  2  0  0  0  0  0  0  0  0  0
   20.6619  -13.7175  -16.9257 N   0  0  0  0  0  0  0  0  0  0  0  0
   20.0032  -11.5531  -17.6559 C   0  0  0  0  0  0  0  0  0  0  0  0
   19.7707  -10.6459  -18.5176 O   0  0  0  0  0  0  0  0  0  0  0  0
   19.6423  -11.3588  -16.2999 N   0  0  0  0  0  0  0  0  0  0  0  0
   19.0927  -10.0931  -15.8323 C   0  0  1  0  0  0  0  0  0  0  0  0
   18.0763  -10.3466  -14.7419 C   0  0  0  0  0  0  0  0  0  0  0  0
   16.7361  -11.4347  -15.2334 S   0  0  0  0  0  0  0  0  0  0  0  0
   20.1640   -9.2284  -15.2844 C   0  0  0  0  0  0  0  0  0  0  0  0
   21.1128   -9.7430  -14.5869 O   0  0  0  0  0  0  0  0  0  0  0  0
   20.2730   -7.8293  -15.4500 N   0  0  0  0  0  0  0  0  0  0  0  0
   21.3955   -7.0533  -14.9611 C   0  0  1  0  0  0  0  0  0  0  0  0
   21.7482   -5.9259  -15.9138 C   0  0  0  0  0  0  0  0  0  0  0  0
   22.8155   -5.0398  -15.3257 C   0  0  0  0  0  0  0  0  0  0  0  0
   23.1189   -3.8809  -16.1725 C   0  0  0  0  0  0  0  0  0  0  0  0
   22.7416   -3.8646  -17.3720 O   0  0  0  0  0  0  0  0  0  0  0  0
   21.0671   -6.5529  -13.6136 C   0  0  0  0  0  0  0  0  0  0  0  0
   22.0680   -6.3661  -12.6814 O   0  0  0  0  0  0  0  0  0  0  0  0
   23.8163   -2.7895  -15.6887 O   0  0  0  0  0  0  0  0  0  0  0  0
   19.8888   -6.2828  -13.2685 O   0  0  0  0  0  0  0  0  0  0  0  0
  2  1  1  6
  3  2  1  0
  4  2  1  0
  4  5  1  1
  6  8  1  0
  6  4  1  0
  7  6  2  0
  9 12  1  0
  9  8  1  0
  9 10  1  1
 11 10  1  0
 12 14  1  0
 13 12  2  0
 14 15  1  0
 15 20  1  0
 15 16  1  6
 16 17  1  0
 18 22  1  0
 18 17  1  0
 19 18  2  0
 20 21  1  0
 23 20  2  0
M  END
$$$$
