TCE.pdb
     RDKit          3D

 23 22  0  0  1  0  0  0  0  0999 V2000
   14.6837  -14.2430  -13.8578 C   0  0  0  0  0  0  0  0  0  0  0  0
   14.5125  -12.8203  -13.3945 C   0  0  1  0  0  0  0  0  0  0  0  0
   13.4432  -12.8103  -12.4738 O   0  0  0  0  0  0  0  0  0  0  0  0
   15.7571  -12.2804  -12.6777 C   0  0  2  0  0  0  0  0  0  0  0  0
   15.9063  -13.1457  -11.4970 N   0  0  0  0  0  0  0  0  0  0  0  0
   15.5391  -10.8954  -12.1699 C   0  0  0  0  0  0  0  0  0  0  0  0
   15.5082   -9.9284  -12.9968 O   0  0  0  0  0  0  0  0  0  0  0  0
   15.3664  -10.6555  -10.7845 N   0  0  0  0  0  0  0  0  0  0  0  0
   15.0820   -9.3213  -10.2727 C   0  0  1  0  0  0  0  0  0  0  0  0
   14.3762   -9.4230   -8.9393 C   0  0  0  0  0  0  0  0  0  0  0  0
   12.8629  -10.3870   -8.9872 S   0  0  0  0  0  0  0  0  0  0  0  0
   16.3363   -8.5556  -10.0833 C   0  0  0  0  0  0  0  0  0  0  0  0
   17.2510   -9.0024   -9.2990 O   0  0  0  0  0  0  0  0  0  0  0  0
   16.6644   -7.3269  -10.6994 N   0  0  0  0  0  0  0  0  0  0  0  0
   17.9092   -6.6230  -10.4622 C   0  0  1  0  0  0  0  0  0  0  0  0
   18.8946   -6.8401  -11.5956 C   0  0  0  0  0  0  0  0  0  0  0  0
   20.1434   -6.0237  -11.3854 C   0  0  0  0  0  0  0  0  0  0  0  0
   21.1524   -6.2551  -12.4248 C   0  0  0  0  0  0  0  0  0  0  0  0
   21.1162   -7.3084  -13.1109 O   0  0  0  0  0  0  0  0  0  0  0  0
   17.6078   -5.1938  -10.2609 C   0  0  0  0  0  0  0  0  0  0  0  0
   18.4782   -4.3967   -9.5449 O   0  0  0  0  0  0  0  0  0  0  0  0
   22.1572   -5.3400  -12.6795 O   0  0  0  0  0  0  0  0  0  0  0  0
   16.5692   -4.6571  -10.7234 O   0  0  0  0  0  0  0  0  0  0  0  0
  2  1  1  1
  3  2  1  0
  4  2  1  0
  4  5  1  1
  6  8  1  0
  6  4  1  0
  7  6  2  0
  9 12  1  0
  9  8  1  0
  9 10  1  1
 11 10  1  0
 12 14  1  0
 13 12  2  0
 14 15  1  0
 15 20  1  0
 15 16  1  6
 16 17  1  0
 18 22  1  0
 18 17  1  0
 19 18  2  0
 20 21  1  0
 23 20  2  0
M  END
$$$$
