TCE.pdb
     RDKit          3D

 23 22  0  0  1  0  0  0  0  0999 V2000
   17.6882  -10.0931  -11.3637 C   0  0  0  0  0  0  0  0  0  0  0  0
   16.3549  -10.7735  -11.5297 C   0  0  1  0  0  0  0  0  0  0  0  0
   16.6121  -12.1478  -11.7205 O   0  0  0  0  0  0  0  0  0  0  0  0
   15.4613  -10.6286  -10.2908 C   0  0  2  0  0  0  0  0  0  0  0  0
   14.2853  -11.4623  -10.5856 N   0  0  0  0  0  0  0  0  0  0  0  0
   14.9674   -9.2305  -10.1321 C   0  0  0  0  0  0  0  0  0  0  0  0
   14.1603   -8.7556  -10.9939 O   0  0  0  0  0  0  0  0  0  0  0  0
   15.3882   -8.4386   -9.0356 N   0  0  0  0  0  0  0  0  0  0  0  0
   15.0441   -7.0260   -8.9406 C   0  0  1  0  0  0  0  0  0  0  0  0
   15.0011   -6.6049   -7.4889 C   0  0  0  0  0  0  0  0  0  0  0  0
   13.5795   -7.2315   -6.5900 S   0  0  0  0  0  0  0  0  0  0  0  0
   16.0504   -6.1944   -9.6414 C   0  0  0  0  0  0  0  0  0  0  0  0
   17.2809   -6.5635   -9.6735 O   0  0  0  0  0  0  0  0  0  0  0  0
   15.8025   -4.9789  -10.3183 N   0  0  0  0  0  0  0  0  0  0  0  0
   16.6609   -4.4589  -11.3643 C   0  0  1  0  0  0  0  0  0  0  0  0
   16.9521   -5.5113  -12.4182 C   0  0  0  0  0  0  0  0  0  0  0  0
   17.7520   -4.9274  -13.5537 C   0  0  0  0  0  0  0  0  0  0  0  0
   18.0222   -5.9026  -14.6157 C   0  0  0  0  0  0  0  0  0  0  0  0
   17.8001   -7.1244  -14.4169 O   0  0  0  0  0  0  0  0  0  0  0  0
   16.0219   -3.2626  -11.9426 C   0  0  0  0  0  0  0  0  0  0  0  0
   16.7962   -2.2050  -12.3756 O   0  0  0  0  0  0  0  0  0  0  0  0
   18.5203   -5.5177  -15.8468 O   0  0  0  0  0  0  0  0  0  0  0  0
   14.7745   -3.1613  -12.0615 O   0  0  0  0  0  0  0  0  0  0  0  0
  2  1  1  1
  3  2  1  0
  4  2  1  0
  4  5  1  6
  6  8  1  0
  6  4  1  0
  7  6  2  0
  9 12  1  0
  9  8  1  0
  9 10  1  1
 11 10  1  0
 12 14  1  0
 13 12  2  0
 14 15  1  0
 15 20  1  0
 15 16  1  6
 16 17  1  0
 18 22  1  0
 18 17  1  0
 19 18  2  0
 20 21  1  0
 23 20  2  0
M  END
$$$$
