TCE.pdb
     RDKit          3D

 23 22  0  0  1  0  0  0  0  0999 V2000
   19.5187  -13.3579  -19.6215 C   0  0  0  0  0  0  0  0  0  0  0  0
   19.3059  -12.3690  -18.5057 C   0  0  1  0  0  0  0  0  0  0  0  0
   18.0388  -12.6409  -17.9473 O   0  0  0  0  0  0  0  0  0  0  0  0
   20.3515  -12.5046  -17.3909 C   0  0  2  0  0  0  0  0  0  0  0  0
   20.0594  -13.8056  -16.7687 N   0  0  0  0  0  0  0  0  0  0  0  0
   20.1617  -11.4708  -16.3332 C   0  0  0  0  0  0  0  0  0  0  0  0
   19.3140  -11.6784  -15.4068 O   0  0  0  0  0  0  0  0  0  0  0  0
   20.9155  -10.2716  -16.3553 N   0  0  0  0  0  0  0  0  0  0  0  0
   20.6258   -9.1736  -15.4425 C   0  0  1  0  0  0  0  0  0  0  0  0
   21.8457   -8.8691  -14.6025 C   0  0  0  0  0  0  0  0  0  0  0  0
   21.6260   -7.4947  -13.4694 S   0  0  0  0  0  0  0  0  0  0  0  0
   20.2565   -7.9517  -16.1949 C   0  0  0  0  0  0  0  0  0  0  0  0
   21.0351   -7.5009  -17.1125 O   0  0  0  0  0  0  0  0  0  0  0  0
   19.0839   -7.1840  -16.0150 N   0  0  0  0  0  0  0  0  0  0  0  0
   18.7512   -6.0327  -16.8305 C   0  0  1  0  0  0  0  0  0  0  0  0
   17.2607   -5.7484  -16.8084 C   0  0  0  0  0  0  0  0  0  0  0  0
   16.4931   -6.8528  -17.4878 C   0  0  0  0  0  0  0  0  0  0  0  0
   15.0438   -6.6267  -17.4730 C   0  0  0  0  0  0  0  0  0  0  0  0
   14.2863   -7.3672  -18.1508 O   0  0  0  0  0  0  0  0  0  0  0  0
   19.5386   -4.8798  -16.3563 C   0  0  0  0  0  0  0  0  0  0  0  0
   20.2675   -4.9729  -15.1876 O   0  0  0  0  0  0  0  0  0  0  0  0
   14.4738   -5.6113  -16.7273 O   0  0  0  0  0  0  0  0  0  0  0  0
   19.5761   -3.7911  -16.9838 O   0  0  0  0  0  0  0  0  0  0  0  0
  2  1  1  6
  3  2  1  0
  4  2  1  0
  4  5  1  1
  6  8  1  0
  6  4  1  0
  7  6  2  0
  9 12  1  0
  9  8  1  0
  9 10  1  6
 11 10  1  0
 12 14  1  0
 13 12  2  0
 14 15  1  0
 15 20  1  0
 15 16  1  1
 16 17  1  0
 18 22  1  0
 18 17  1  0
 19 18  2  0
 20 21  1  0
 23 20  2  0
M  END
$$$$
