TCE.pdb
     RDKit          3D

 23 22  0  0  1  0  0  0  0  0999 V2000
   20.0724   -9.4399  -20.0979 C   0  0  0  0  0  0  0  0  0  0  0  0
   19.2428  -10.6006  -19.6156 C   0  0  1  0  0  0  0  0  0  0  0  0
   18.6591  -11.1942  -20.7549 O   0  0  0  0  0  0  0  0  0  0  0  0
   20.0828  -11.6699  -18.9047 C   0  0  2  0  0  0  0  0  0  0  0  0
   19.1031  -12.6767  -18.4669 N   0  0  0  0  0  0  0  0  0  0  0  0
   20.7252  -11.1315  -17.6714 C   0  0  0  0  0  0  0  0  0  0  0  0
   19.9961  -10.8281  -16.6733 O   0  0  0  0  0  0  0  0  0  0  0  0
   22.1298  -10.9600  -17.6076 N   0  0  0  0  0  0  0  0  0  0  0  0
   22.7687  -10.3337  -16.4576 C   0  0  1  0  0  0  0  0  0  0  0  0
   24.2313  -10.7151  -16.4123 C   0  0  0  0  0  0  0  0  0  0  0  0
   25.1772   -9.8303  -15.1698 S   0  0  0  0  0  0  0  0  0  0  0  0
   22.6705   -8.8578  -16.5444 C   0  0  0  0  0  0  0  0  0  0  0  0
   22.7902   -8.2704  -17.6811 O   0  0  0  0  0  0  0  0  0  0  0  0
   22.4451   -7.9722  -15.4665 N   0  0  0  0  0  0  0  0  0  0  0  0
   22.2787   -6.5416  -15.6309 C   0  0  1  0  0  0  0  0  0  0  0  0
   20.9816   -6.2119  -16.3464 C   0  0  0  0  0  0  0  0  0  0  0  0
   20.7584   -4.7226  -16.3947 C   0  0  0  0  0  0  0  0  0  0  0  0
   19.4863   -4.3614  -17.0297 C   0  0  0  0  0  0  0  0  0  0  0  0
   19.3897   -4.3582  -18.2836 O   0  0  0  0  0  0  0  0  0  0  0  0
   22.3517   -5.9061  -14.3025 C   0  0  0  0  0  0  0  0  0  0  0  0
   22.5670   -4.5468  -14.1961 O   0  0  0  0  0  0  0  0  0  0  0  0
   18.3730   -4.0191  -16.2845 O   0  0  0  0  0  0  0  0  0  0  0  0
   22.2233   -6.5630  -13.2383 O   0  0  0  0  0  0  0  0  0  0  0  0
  2  1  1  6
  3  2  1  0
  4  2  1  0
  4  5  1  1
  6  8  1  0
  6  4  1  0
  7  6  2  0
  9 12  1  0
  9  8  1  0
  9 10  1  6
 11 10  1  0
 12 14  1  0
 13 12  2  0
 14 15  1  0
 15 20  1  0
 15 16  1  1
 16 17  1  0
 18 22  1  0
 18 17  1  0
 19 18  2  0
 20 21  1  0
 23 20  2  0
M  END
$$$$
