TCE.pdb
     RDKit          3D

 23 22  0  0  1  0  0  0  0  0999 V2000
   27.8509   -8.4754  -18.4207 C   0  0  0  0  0  0  0  0  0  0  0  0
   27.3606   -9.3540  -19.5413 C   0  0  1  0  0  0  0  0  0  0  0  0
   28.4952   -9.7630  -20.2737 O   0  0  0  0  0  0  0  0  0  0  0  0
   26.6478  -10.6142  -19.0331 C   0  0  2  0  0  0  0  0  0  0  0  0
   26.1880  -11.2947  -20.2540 N   0  0  0  0  0  0  0  0  0  0  0  0
   25.4278  -10.2738  -18.2461 C   0  0  0  0  0  0  0  0  0  0  0  0
   24.3835   -9.8809  -18.8583 O   0  0  0  0  0  0  0  0  0  0  0  0
   25.4274  -10.3869  -16.8341 N   0  0  0  0  0  0  0  0  0  0  0  0
   24.2739   -9.9868  -16.0388 C   0  0  1  0  0  0  0  0  0  0  0  0
   24.2767  -10.7291  -14.7214 C   0  0  0  0  0  0  0  0  0  0  0  0
   22.9500  -10.2494  -13.6117 S   0  0  0  0  0  0  0  0  0  0  0  0
   24.3109   -8.5323  -15.7588 C   0  0  0  0  0  0  0  0  0  0  0  0
   25.4300   -7.9539  -15.5049 O   0  0  0  0  0  0  0  0  0  0  0  0
   23.2008   -7.6581  -15.7403 N   0  0  0  0  0  0  0  0  0  0  0  0
   23.3053   -6.2421  -15.4480 C   0  0  1  0  0  0  0  0  0  0  0  0
   23.2455   -5.4078  -16.7142 C   0  0  0  0  0  0  0  0  0  0  0  0
   23.2746   -3.9366  -16.3899 C   0  0  0  0  0  0  0  0  0  0  0  0
   23.1171   -3.0918  -17.5788 C   0  0  0  0  0  0  0  0  0  0  0  0
   22.1532   -2.2876  -17.6537 O   0  0  0  0  0  0  0  0  0  0  0  0
   22.2367   -5.8799  -14.4990 C   0  0  0  0  0  0  0  0  0  0  0  0
   22.4143   -4.8258  -13.6255 O   0  0  0  0  0  0  0  0  0  0  0  0
   24.0064   -3.1511  -18.6359 O   0  0  0  0  0  0  0  0  0  0  0  0
   21.1460   -6.5032  -14.4493 O   0  0  0  0  0  0  0  0  0  0  0  0
  2  1  1  1
  3  2  1  0
  4  2  1  0
  4  5  1  6
  6  8  1  0
  6  4  1  0
  7  6  2  0
  9 12  1  0
  9  8  1  0
  9 10  1  1
 11 10  1  0
 12 14  1  0
 13 12  2  0
 14 15  1  0
 15 20  1  0
 15 16  1  6
 16 17  1  0
 18 22  1  0
 18 17  1  0
 19 18  2  0
 20 21  1  0
 23 20  2  0
M  END
$$$$
