TCE.pdb
     RDKit          3D

 23 22  0  0  1  0  0  0  0  0999 V2000
   18.8926  -10.2984  -12.6770 C   0  0  0  0  0  0  0  0  0  0  0  0
   17.8900   -9.3193  -12.1253 C   0  0  1  0  0  0  0  0  0  0  0  0
   17.1946   -8.7743  -13.2256 O   0  0  0  0  0  0  0  0  0  0  0  0
   16.8624   -9.9860  -11.2013 C   0  0  2  0  0  0  0  0  0  0  0  0
   16.1096  -10.8932  -12.0818 N   0  0  0  0  0  0  0  0  0  0  0  0
   15.8833   -8.9965  -10.6665 C   0  0  0  0  0  0  0  0  0  0  0  0
   14.8382   -8.7298  -11.3420 O   0  0  0  0  0  0  0  0  0  0  0  0
   16.1099   -8.3606   -9.4212 N   0  0  0  0  0  0  0  0  0  0  0  0
   15.2487   -7.2847   -8.9481 C   0  0  1  0  0  0  0  0  0  0  0  0
   15.0990   -7.3703   -7.4459 C   0  0  0  0  0  0  0  0  0  0  0  0
   14.2585   -5.9625   -6.7157 S   0  0  0  0  0  0  0  0  0  0  0  0
   15.8275   -5.9638   -9.2882 C   0  0  0  0  0  0  0  0  0  0  0  0
   17.0441   -5.6939   -8.9741 O   0  0  0  0  0  0  0  0  0  0  0  0
   15.1645   -4.9098   -9.9564 N   0  0  0  0  0  0  0  0  0  0  0  0
   15.8060   -3.6574  -10.3044 C   0  0  1  0  0  0  0  0  0  0  0  0
   16.1784   -3.6139  -11.7749 C   0  0  0  0  0  0  0  0  0  0  0  0
   16.7584   -2.2728  -12.1427 C   0  0  0  0  0  0  0  0  0  0  0  0
   17.1988   -2.2109  -13.5407 C   0  0  0  0  0  0  0  0  0  0  0  0
   17.6929   -1.1479  -13.9962 O   0  0  0  0  0  0  0  0  0  0  0  0
   14.9058   -2.5509   -9.9315 C   0  0  0  0  0  0  0  0  0  0  0  0
   15.3703   -1.2509   -9.9296 O   0  0  0  0  0  0  0  0  0  0  0  0
   17.0871   -3.2985  -14.3871 O   0  0  0  0  0  0  0  0  0  0  0  0
   13.7064   -2.7438   -9.6078 O   0  0  0  0  0  0  0  0  0  0  0  0
  2  1  1  6
  3  2  1  0
  4  2  1  0
  4  5  1  6
  6  8  1  0
  6  4  1  0
  7  6  2  0
  9 12  1  0
  9  8  1  0
  9 10  1  1
 11 10  1  0
 12 14  1  0
 13 12  2  0
 14 15  1  0
 15 20  1  0
 15 16  1  6
 16 17  1  0
 18 22  1  0
 18 17  1  0
 19 18  2  0
 20 21  1  0
 23 20  2  0
M  END
$$$$
