WGA.pdb
     RDKit          3D

 24 25  0  0  1  0  0  0  0  0999 V2000
    7.5397  -16.6685   22.9847 N   0  0  0  0  0  0  0  0  0  0  0  0
    8.7742  -16.1062   23.4706 C   0  0  1  0  0  0  0  0  0  0  0  0
    8.8069  -15.9271   24.9610 C   0  0  0  0  0  0  0  0  0  0  0  0
    7.6634  -15.1809   25.5128 C   0  0  0  0  0  0  0  0  0  0  0  0
    6.4687  -15.7049   25.9974 C   0  0  0  0  0  0  0  0  0  0  0  0
    5.6637  -14.7312   26.4424 N   0  0  0  0  0  0  0  0  0  0  0  0
    6.2862  -13.5590   26.2699 C   0  0  0  0  0  0  0  0  0  0  0  0
    5.8795  -12.2790   26.5611 C   0  0  0  0  0  0  0  0  0  0  0  0
    6.6751  -11.2075   26.2974 C   0  0  0  0  0  0  0  0  0  0  0  0
    7.9034  -11.4484   25.7278 C   0  0  0  0  0  0  0  0  0  0  0  0
    8.3280  -12.7323   25.4285 C   0  0  0  0  0  0  0  0  0  0  0  0
    7.5305  -13.8192   25.6926 C   0  0  0  0  0  0  0  0  0  0  0  0
    9.9754  -16.7844   22.9497 C   0  0  0  0  0  0  0  0  0  0  0  0
   10.8920  -17.1033   23.7340 O   0  0  0  0  0  0  0  0  0  0  0  0
   10.1366  -17.0951   21.5736 N   0  0  0  0  0  0  0  0  0  0  0  0
   11.3467  -17.7219   21.0847 C   0  0  0  0  0  0  0  0  0  0  0  0
   12.5212  -16.9484   21.5424 C   0  0  0  0  0  0  0  0  0  0  0  0
   13.0138  -16.0442   20.8279 O   0  0  0  0  0  0  0  0  0  0  0  0
   14.1808  -16.0251   24.6343 C   0  0  0  0  0  0  0  0  0  0  0  0
   14.2955  -16.4655   23.1868 C   0  0  2  0  0  0  0  0  0  0  0  0
   13.1250  -17.2066   22.8025 N   0  0  0  0  0  0  0  0  0  0  0  0
   15.4836  -17.3302   23.0106 C   0  0  0  0  0  0  0  0  0  0  0  0
   15.3401  -18.5445   22.7529 O   0  0  0  0  0  0  0  0  0  0  0  0
   16.7660  -16.7930   23.1316 O   0  0  0  0  0  0  0  0  0  0  0  0
  2  1  1  1
  2  3  1  0
  4  5  2  0
  4  3  1  0
  6  5  1  0
  7 12  2  0
  7  6  1  0
  8  7  1  0
  9 10  1  0
  9  8  2  0
 10 11  2  0
 11 12  1  0
 12  4  1  0
 13  2  1  0
 13 15  1  0
 14 13  2  0
 16 15  1  0
 17 16  1  0
 18 17  2  0
 20 19  1  1
 20 21  1  0
 20 22  1  0
 21 17  1  0
 22 24  1  0
 23 22  2  0
M  END
$$$$
