WGA.pdb
     RDKit          3D

 24 25  0  0  1  0  0  0  0  0999 V2000
    7.8062  -17.2685   23.3033 N   0  0  0  0  0  0  0  0  0  0  0  0
    8.4504  -16.1702   22.6289 C   0  0  1  0  0  0  0  0  0  0  0  0
    7.7250  -14.8642   22.7797 C   0  0  0  0  0  0  0  0  0  0  0  0
    7.1129  -14.6536   24.1026 C   0  0  0  0  0  0  0  0  0  0  0  0
    6.5987  -15.6231   24.9583 C   0  0  0  0  0  0  0  0  0  0  0  0
    6.1408  -15.0702   26.0891 N   0  0  0  0  0  0  0  0  0  0  0  0
    6.3330  -13.7476   26.0186 C   0  0  0  0  0  0  0  0  0  0  0  0
    6.0329  -12.7511   26.9162 C   0  0  0  0  0  0  0  0  0  0  0  0
    6.3112  -11.4476   26.6441 C   0  0  0  0  0  0  0  0  0  0  0  0
    6.9042  -11.1592   25.4373 C   0  0  0  0  0  0  0  0  0  0  0  0
    7.2131  -12.1518   24.5222 C   0  0  0  0  0  0  0  0  0  0  0  0
    6.9360  -13.4703   24.7902 C   0  0  0  0  0  0  0  0  0  0  0  0
    9.8911  -16.0615   22.9241 C   0  0  0  0  0  0  0  0  0  0  0  0
   10.5859  -15.2300   22.3053 O   0  0  0  0  0  0  0  0  0  0  0  0
   10.5313  -16.8741   23.8966 N   0  0  0  0  0  0  0  0  0  0  0  0
   11.9337  -16.6999   24.2115 C   0  0  0  0  0  0  0  0  0  0  0  0
   12.0694  -16.2155   25.6023 C   0  0  0  0  0  0  0  0  0  0  0  0
   13.1982  -16.0916   26.1327 O   0  0  0  0  0  0  0  0  0  0  0  0
   10.1963  -14.2532   28.0186 C   0  0  0  0  0  0  0  0  0  0  0  0
   11.1030  -15.4362   27.7340 C   0  0  2  0  0  0  0  0  0  0  0  0
   10.9272  -15.8771   26.3769 N   0  0  0  0  0  0  0  0  0  0  0  0
   10.7771  -16.5575   28.6431 C   0  0  0  0  0  0  0  0  0  0  0  0
   10.3141  -17.6223   28.1811 O   0  0  0  0  0  0  0  0  0  0  0  0
   10.9854  -16.4296   30.0172 O   0  0  0  0  0  0  0  0  0  0  0  0
  2  1  1  1
  2  3  1  0
  4  5  2  0
  4  3  1  0
  6  5  1  0
  7 12  2  0
  7  6  1  0
  8  7  1  0
  9 10  1  0
  9  8  2  0
 10 11  2  0
 11 12  1  0
 12  4  1  0
 13  2  1  0
 13 15  1  0
 14 13  2  0
 16 15  1  0
 17 16  1  0
 18 17  2  0
 20 19  1  1
 20 21  1  0
 20 22  1  0
 21 17  1  0
 22 24  1  0
 23 22  2  0
M  END
$$$$
