WGA.pdb
     RDKit          3D

 24 25  0  0  1  0  0  0  0  0999 V2000
    6.5213  -17.7453   23.6884 N   0  0  0  0  0  0  0  0  0  0  0  0
    7.3705  -16.7096   23.1572 C   0  0  1  0  0  0  0  0  0  0  0  0
    8.1095  -15.9387   24.2128 C   0  0  0  0  0  0  0  0  0  0  0  0
    7.2522  -15.1131   25.0802 C   0  0  0  0  0  0  0  0  0  0  0  0
    6.2184  -15.5475   25.9044 C   0  0  0  0  0  0  0  0  0  0  0  0
    5.6700  -14.5207   26.5671 N   0  0  0  0  0  0  0  0  0  0  0  0
    6.3089  -13.4002   26.2100 C   0  0  0  0  0  0  0  0  0  0  0  0
    6.1187  -12.0976   26.6048 C   0  0  0  0  0  0  0  0  0  0  0  0
    6.8862  -11.0897   26.1092 C   0  0  0  0  0  0  0  0  0  0  0  0
    7.8615  -11.4184   25.1971 C   0  0  0  0  0  0  0  0  0  0  0  0
    8.0660  -12.7261   24.7892 C   0  0  0  0  0  0  0  0  0  0  0  0
    7.2956  -13.7493   25.2859 C   0  0  0  0  0  0  0  0  0  0  0  0
    8.2484  -17.1700   22.0656 C   0  0  0  0  0  0  0  0  0  0  0  0
    8.5029  -18.3862   21.9508 O   0  0  0  0  0  0  0  0  0  0  0  0
    8.8252  -16.2760   21.1254 N   0  0  0  0  0  0  0  0  0  0  0  0
    9.7576  -16.7446   20.1217 C   0  0  0  0  0  0  0  0  0  0  0  0
   11.0972  -16.9003   20.7288 C   0  0  0  0  0  0  0  0  0  0  0  0
   12.1017  -17.1380   20.0178 O   0  0  0  0  0  0  0  0  0  0  0  0
   12.7867  -16.0006   23.8633 C   0  0  0  0  0  0  0  0  0  0  0  0
   12.6066  -16.9329   22.6797 C   0  0  2  0  0  0  0  0  0  0  0  0
   11.2852  -16.7858   22.1326 N   0  0  0  0  0  0  0  0  0  0  0  0
   12.7897  -18.3381   23.1063 C   0  0  0  0  0  0  0  0  0  0  0  0
   11.8263  -19.1331   23.0691 O   0  0  0  0  0  0  0  0  0  0  0  0
   14.0369  -18.7792   23.5509 O   0  0  0  0  0  0  0  0  0  0  0  0
  2  1  1  1
  2  3  1  0
  4  5  2  0
  4  3  1  0
  6  5  1  0
  7 12  2  0
  7  6  1  0
  8  7  1  0
  9 10  1  0
  9  8  2  0
 10 11  2  0
 11 12  1  0
 12  4  1  0
 13  2  1  0
 13 15  1  0
 14 13  2  0
 16 15  1  0
 17 16  1  0
 18 17  2  0
 20 19  1  1
 20 21  1  0
 20 22  1  0
 21 17  1  0
 22 24  1  0
 23 22  2  0
M  END
$$$$
