WGA.pdb
     RDKit          3D

 24 25  0  0  1  0  0  0  0  0999 V2000
    6.7971  -17.6688   23.6269 N   0  0  0  0  0  0  0  0  0  0  0  0
    7.6873  -16.6348   23.1638 C   0  0  1  0  0  0  0  0  0  0  0  0
    8.2995  -15.8284   24.2726 C   0  0  0  0  0  0  0  0  0  0  0  0
    7.3289  -15.1014   25.1083 C   0  0  0  0  0  0  0  0  0  0  0  0
    6.2607  -15.6377   25.8211 C   0  0  0  0  0  0  0  0  0  0  0  0
    5.6017  -14.6817   26.4888 N   0  0  0  0  0  0  0  0  0  0  0  0
    6.1993  -13.5094   26.2441 C   0  0  0  0  0  0  0  0  0  0  0  0
    5.9016  -12.2436   26.6890 C   0  0  0  0  0  0  0  0  0  0  0  0
    6.6448  -11.1687   26.3111 C   0  0  0  0  0  0  0  0  0  0  0  0
    7.7069  -11.3913   25.4665 C   0  0  0  0  0  0  0  0  0  0  0  0
    8.0202  -12.6607   25.0095 C   0  0  0  0  0  0  0  0  0  0  0  0
    7.2749  -13.7510   25.3874 C   0  0  0  0  0  0  0  0  0  0  0  0
    8.6828  -17.1096   22.1852 C   0  0  0  0  0  0  0  0  0  0  0  0
    8.9642  -18.3241   22.1320 O   0  0  0  0  0  0  0  0  0  0  0  0
    9.3451  -16.2314   21.2872 N   0  0  0  0  0  0  0  0  0  0  0  0
   10.3705  -16.7153   20.3869 C   0  0  0  0  0  0  0  0  0  0  0  0
   11.6538  -16.8219   21.1142 C   0  0  0  0  0  0  0  0  0  0  0  0
   12.7393  -16.9084   20.4937 O   0  0  0  0  0  0  0  0  0  0  0  0
   13.1159  -15.9056   24.2645 C   0  0  0  0  0  0  0  0  0  0  0  0
   12.9599  -16.9768   23.2012 C   0  0  2  0  0  0  0  0  0  0  0  0
   11.6946  -16.8294   22.5346 N   0  0  0  0  0  0  0  0  0  0  0  0
   13.0165  -18.3200   23.8200 C   0  0  0  0  0  0  0  0  0  0  0  0
   12.0145  -19.0661   23.7869 O   0  0  0  0  0  0  0  0  0  0  0  0
   14.1872  -18.7571   24.4414 O   0  0  0  0  0  0  0  0  0  0  0  0
  2  1  1  1
  2  3  1  0
  4  5  2  0
  4  3  1  0
  6  5  1  0
  7 12  2  0
  7  6  1  0
  8  7  1  0
  9 10  1  0
  9  8  2  0
 10 11  2  0
 11 12  1  0
 12  4  1  0
 13  2  1  0
 13 15  1  0
 14 13  2  0
 16 15  1  0
 17 16  1  0
 18 17  2  0
 20 19  1  1
 20 21  1  0
 20 22  1  0
 21 17  1  0
 22 24  1  0
 23 22  2  0
M  END
$$$$
