NSK.pdb
     RDKit          3D

 24 23  0  0  1  0  0  0  0  0999 V2000
   13.1792   -9.2758  -10.2392 N   0  0  0  0  0  0  0  0  0  0  0  0
   14.2048   -9.5547  -11.1887 C   0  0  0  0  0  0  0  0  0  0  0  0
   13.9255  -10.3032  -12.1572 O   0  0  0  0  0  0  0  0  0  0  0  0
   15.5405   -8.9645  -11.0129 C   0  0  0  0  0  0  0  0  0  0  0  0
   16.6688   -9.8992  -11.3252 C   0  0  2  0  0  0  0  0  0  0  0  0
   16.7141  -11.0452  -10.4577 N   0  0  0  0  0  0  0  0  0  0  0  0
   17.9593   -9.1755  -11.2852 C   0  0  0  0  0  0  0  0  0  0  0  0
   18.4814   -9.0060  -10.1434 O   0  0  0  0  0  0  0  0  0  0  0  0
   20.6330   -9.9126  -13.8871 O   0  0  0  0  0  0  0  0  0  0  0  0
   20.8752   -9.2698  -12.6753 C   0  0  0  0  0  0  0  0  0  0  0  0
   19.8930   -8.1522  -12.4235 C   0  0  2  0  0  0  0  0  0  0  0  0
   18.5543   -8.7075  -12.4788 N   0  0  0  0  0  0  0  0  0  0  0  0
   19.9742   -7.0888  -13.4592 C   0  0  0  0  0  0  0  0  0  0  0  0
   19.5636   -7.3029  -14.6268 O   0  0  0  0  0  0  0  0  0  0  0  0
   20.5116   -5.8125  -13.1627 N   0  0  0  0  0  0  0  0  0  0  0  0
   20.7904   -4.7783  -14.1278 C   0  0  1  0  0  0  0  0  0  0  0  0
   19.8257   -3.6505  -13.9811 C   0  0  0  0  0  0  0  0  0  0  0  0
   18.4350   -3.9902  -14.4360 C   0  0  0  0  0  0  0  0  0  0  0  0
   17.4943   -2.8305  -14.2038 C   0  0  0  0  0  0  0  0  0  0  0  0
   16.0755   -3.1858  -14.5990 C   0  0  0  0  0  0  0  0  0  0  0  0
   15.1370   -2.1096  -14.3644 N   0  0  0  0  0  0  0  0  0  0  0  0
   22.2012   -4.2680  -13.9458 C   0  0  0  0  0  0  0  0  0  0  0  0
   22.9781   -4.7262  -12.8891 O   0  0  0  0  0  0  0  0  0  0  0  0
   22.7046   -3.4355  -14.7214 O   0  0  0  0  0  0  0  0  0  0  0  0
  1  2  1  0
  2  3  2  0
  4  2  1  0
  4  5  1  0
  5  6  1  1
  7  5  1  0
  7  8  2  0
  9 10  1  0
 11 10  1  6
 11 12  1  0
 12  7  1  0
 13 11  1  0
 14 13  2  0
 15 13  1  0
 16 15  1  0
 16 22  1  0
 16 17  1  1
 18 17  1  0
 19 18  1  0
 20 19  1  0
 21 20  1  0
 22 23  1  0
 24 22  2  0
M  END
$$$$
