NSK.pdb
     RDKit          3D

 24 23  0  0  1  0  0  0  0  0999 V2000
   18.5200  -16.8348  -14.9526 N   0  0  0  0  0  0  0  0  0  0  0  0
   17.9849  -15.8920  -15.8777 C   0  0  0  0  0  0  0  0  0  0  0  0
   16.7411  -15.8718  -16.0479 O   0  0  0  0  0  0  0  0  0  0  0  0
   18.8897  -14.9802  -16.5941 C   0  0  0  0  0  0  0  0  0  0  0  0
   18.2130  -14.1332  -17.6280 C   0  0  2  0  0  0  0  0  0  0  0  0
   17.9570  -14.8336  -18.8576 N   0  0  0  0  0  0  0  0  0  0  0  0
   19.0076  -12.9124  -17.8901 C   0  0  0  0  0  0  0  0  0  0  0  0
   19.7179  -12.9101  -18.9392 O   0  0  0  0  0  0  0  0  0  0  0  0
   17.8689   -9.1153  -16.7797 O   0  0  0  0  0  0  0  0  0  0  0  0
   18.6746   -9.5858  -17.8140 C   0  0  0  0  0  0  0  0  0  0  0  0
   19.6759  -10.6056  -17.3296 C   0  0  2  0  0  0  0  0  0  0  0  0
   18.9568  -11.8198  -16.9948 N   0  0  0  0  0  0  0  0  0  0  0  0
   20.3845  -10.1581  -16.1016 C   0  0  0  0  0  0  0  0  0  0  0  0
   19.8695  -10.3310  -14.9692 O   0  0  0  0  0  0  0  0  0  0  0  0
   21.6516   -9.5293  -16.1712 N   0  0  0  0  0  0  0  0  0  0  0  0
   22.3927   -9.0158  -15.0461 C   0  0  1  0  0  0  0  0  0  0  0  0
   23.8346   -8.8619  -15.3945 C   0  0  0  0  0  0  0  0  0  0  0  0
   24.5697  -10.1683  -15.4889 C   0  0  0  0  0  0  0  0  0  0  0  0
   26.0070   -9.9488  -15.9011 C   0  0  0  0  0  0  0  0  0  0  0  0
   26.7512  -11.2629  -16.0219 C   0  0  0  0  0  0  0  0  0  0  0  0
   28.0899  -11.1080  -16.5490 N   0  0  0  0  0  0  0  0  0  0  0  0
   21.8268   -7.6809  -14.6200 C   0  0  0  0  0  0  0  0  0  0  0  0
   21.9139   -7.2775  -13.2935 O   0  0  0  0  0  0  0  0  0  0  0  0
   21.2736   -6.9131  -15.4277 O   0  0  0  0  0  0  0  0  0  0  0  0
  1  2  1  0
  2  3  2  0
  4  2  1  0
  4  5  1  0
  5  6  1  6
  7  5  1  0
  7  8  2  0
  9 10  1  0
 11 10  1  1
 11 12  1  0
 12  7  1  0
 13 11  1  0
 14 13  2  0
 15 13  1  0
 16 15  1  0
 16 22  1  0
 16 17  1  6
 18 17  1  0
 19 18  1  0
 20 19  1  0
 21 20  1  0
 22 23  1  0
 24 22  2  0
M  END
$$$$
