NSK.pdb
     RDKit          3D

 24 23  0  0  1  0  0  0  0  0999 V2000
   17.4116  -11.4970  -19.8138 N   0  0  0  0  0  0  0  0  0  0  0  0
   18.6430  -11.7538  -19.1437 C   0  0  0  0  0  0  0  0  0  0  0  0
   19.2660  -12.8042  -19.4345 O   0  0  0  0  0  0  0  0  0  0  0  0
   19.1442  -10.7944  -18.1478 C   0  0  0  0  0  0  0  0  0  0  0  0
   19.6480  -11.4276  -16.8871 C   0  0  2  0  0  0  0  0  0  0  0  0
   18.6047  -12.0134  -16.0892 N   0  0  0  0  0  0  0  0  0  0  0  0
   20.4111  -10.4424  -16.0886 C   0  0  0  0  0  0  0  0  0  0  0  0
   19.7412   -9.6959  -15.3147 O   0  0  0  0  0  0  0  0  0  0  0  0
   24.1595  -11.0409  -14.5536 O   0  0  0  0  0  0  0  0  0  0  0  0
   23.9854   -9.8818  -15.3062 C   0  0  0  0  0  0  0  0  0  0  0  0
   22.5411   -9.4462  -15.3451 C   0  0  2  0  0  0  0  0  0  0  0  0
   21.8173  -10.3614  -16.2066 N   0  0  0  0  0  0  0  0  0  0  0  0
   22.3807   -8.0822  -15.9143 C   0  0  0  0  0  0  0  0  0  0  0  0
   22.1373   -7.9256  -17.1365 O   0  0  0  0  0  0  0  0  0  0  0  0
   22.4957   -6.9279  -15.1019 N   0  0  0  0  0  0  0  0  0  0  0  0
   22.2782   -5.5719  -15.5409 C   0  0  1  0  0  0  0  0  0  0  0  0
   20.8962   -5.4099  -16.0777 C   0  0  0  0  0  0  0  0  0  0  0  0
   20.5854   -4.0071  -16.5154 C   0  0  0  0  0  0  0  0  0  0  0  0
   19.1731   -3.9084  -17.0440 C   0  0  0  0  0  0  0  0  0  0  0  0
   18.8453   -2.4938  -17.4764 C   0  0  0  0  0  0  0  0  0  0  0  0
   17.4769   -2.3416  -17.9214 N   0  0  0  0  0  0  0  0  0  0  0  0
   22.4927   -4.6153  -14.3907 C   0  0  0  0  0  0  0  0  0  0  0  0
   22.9858   -3.3384  -14.6278 O   0  0  0  0  0  0  0  0  0  0  0  0
   22.2404   -4.9338  -13.2148 O   0  0  0  0  0  0  0  0  0  0  0  0
  1  2  1  0
  2  3  2  0
  4  2  1  0
  4  5  1  0
  5  6  1  1
  7  5  1  0
  7  8  2  0
  9 10  1  0
 11 10  1  6
 11 12  1  0
 12  7  1  0
 13 11  1  0
 14 13  2  0
 15 13  1  0
 16 15  1  0
 16 22  1  0
 16 17  1  1
 18 17  1  0
 19 18  1  0
 20 19  1  0
 21 20  1  0
 22 23  1  0
 24 22  2  0
M  END
$$$$
