NSK.pdb
     RDKit          3D

 24 23  0  0  1  0  0  0  0  0999 V2000
   23.4376  -13.4665  -19.6555 N   0  0  0  0  0  0  0  0  0  0  0  0
   23.8479  -12.2773  -18.9858 C   0  0  0  0  0  0  0  0  0  0  0  0
   25.0769  -12.0285  -18.9232 O   0  0  0  0  0  0  0  0  0  0  0  0
   22.8360  -11.3859  -18.3984 C   0  0  0  0  0  0  0  0  0  0  0  0
   22.8371  -11.3613  -16.9006 C   0  0  2  0  0  0  0  0  0  0  0  0
   22.5987  -12.6510  -16.3109 N   0  0  0  0  0  0  0  0  0  0  0  0
   21.8466  -10.3802  -16.4037 C   0  0  0  0  0  0  0  0  0  0  0  0
   20.6515  -10.7852  -16.2916 O   0  0  0  0  0  0  0  0  0  0  0  0
   21.8142   -8.2868  -13.2325 O   0  0  0  0  0  0  0  0  0  0  0  0
   20.8497   -8.5983  -14.1880 C   0  0  0  0  0  0  0  0  0  0  0  0
   21.2527   -8.1374  -15.5673 C   0  0  2  0  0  0  0  0  0  0  0  0
   22.2446   -9.0631  -16.0800 N   0  0  0  0  0  0  0  0  0  0  0  0
   21.8749   -6.7873  -15.5492 C   0  0  0  0  0  0  0  0  0  0  0  0
   23.0519   -6.6329  -15.1387 O   0  0  0  0  0  0  0  0  0  0  0  0
   21.1654   -5.6443  -15.9915 N   0  0  0  0  0  0  0  0  0  0  0  0
   21.6709   -4.2940  -15.9889 C   0  0  1  0  0  0  0  0  0  0  0  0
   20.7996   -3.4065  -16.8119 C   0  0  0  0  0  0  0  0  0  0  0  0
   20.8369   -3.7258  -18.2791 C   0  0  0  0  0  0  0  0  0  0  0  0
   19.5061   -3.4259  -18.9295 C   0  0  0  0  0  0  0  0  0  0  0  0
   19.5412   -3.7209  -20.4151 C   0  0  0  0  0  0  0  0  0  0  0  0
   18.3036   -3.3877  -21.0869 N   0  0  0  0  0  0  0  0  0  0  0  0
   21.7383   -3.7699  -14.5730 C   0  0  0  0  0  0  0  0  0  0  0  0
   22.7594   -2.9065  -14.1964 O   0  0  0  0  0  0  0  0  0  0  0  0
   20.8976   -4.0888  -13.7130 O   0  0  0  0  0  0  0  0  0  0  0  0
  1  2  1  0
  2  3  2  0
  4  2  1  0
  4  5  1  0
  5  6  1  1
  7  5  1  0
  7  8  2  0
  9 10  1  0
 11 10  1  1
 11 12  1  0
 12  7  1  0
 13 11  1  0
 14 13  2  0
 15 13  1  0
 16 15  1  0
 16 22  1  0
 16 17  1  6
 18 17  1  0
 19 18  1  0
 20 19  1  0
 21 20  1  0
 22 23  1  0
 24 22  2  0
M  END
$$$$
