WSP.pdb
     RDKit          3D

 28 30  0  0  1  0  0  0  0  0999 V2000
    6.1068  -17.6773   24.7877 N   0  0  0  0  0  0  0  0  0  0  0  0
    6.6727  -16.4035   24.4039 C   0  0  1  0  0  0  0  0  0  0  0  0
    7.9575  -16.1462   25.1977 C   0  0  0  0  0  0  0  0  0  0  0  0
    7.6303  -15.3898   26.4325 C   0  0  0  0  0  0  0  0  0  0  0  0
    7.4089  -15.8827   27.7230 C   0  0  0  0  0  0  0  0  0  0  0  0
    7.1485  -14.8059   28.4769 N   0  0  0  0  0  0  0  0  0  0  0  0
    7.1955  -13.6754   27.7304 C   0  0  0  0  0  0  0  0  0  0  0  0
    7.0054  -12.3307   28.0262 C   0  0  0  0  0  0  0  0  0  0  0  0
    7.1216  -11.3718   27.0296 C   0  0  0  0  0  0  0  0  0  0  0  0
    7.4225  -11.7079   25.7401 C   0  0  0  0  0  0  0  0  0  0  0  0
    7.6091  -13.0456   25.4573 C   0  0  0  0  0  0  0  0  0  0  0  0
    7.4973  -14.0112   26.4362 C   0  0  0  0  0  0  0  0  0  0  0  0
    6.9734  -16.4557   22.9518 C   0  0  0  0  0  0  0  0  0  0  0  0
    7.0688  -17.5810   22.3521 O   0  0  0  0  0  0  0  0  0  0  0  0
    8.2430  -13.9917   19.0179 O   0  0  0  0  0  0  0  0  0  0  0  0
    7.7200  -13.9669   20.3006 C   0  0  0  0  0  0  0  0  0  0  0  0
    7.6003  -15.4258   20.7597 C   0  0  2  0  0  0  0  0  0  0  0  0
    7.1678  -15.3019   22.1609 N   0  0  0  0  0  0  0  0  0  0  0  0
    8.9069  -16.1192   20.7701 C   0  0  0  0  0  0  0  0  0  0  0  0
    9.7313  -15.7434   21.6919 O   0  0  0  0  0  0  0  0  0  0  0  0
    9.3032  -17.1383   19.8652 N   0  0  0  0  0  0  0  0  0  0  0  0
    8.4006  -17.7965   18.9425 C   0  0  0  0  0  0  0  0  0  0  0  0
    9.3415  -18.1679   17.8173 C   0  0  0  0  0  0  0  0  0  0  0  0
   10.4860  -18.7775   18.6388 C   0  0  0  0  0  0  0  0  0  0  0  0
   10.6282  -17.6698   19.6990 C   0  0  1  0  0  0  0  0  0  0  0  0
   11.5549  -16.6733   19.0525 C   0  0  0  0  0  0  0  0  0  0  0  0
   11.1484  -15.5747   18.5851 O   0  0  0  0  0  0  0  0  0  0  0  0
   12.8871  -16.9771   18.9722 O   0  0  0  0  0  0  0  0  0  0  0  0
  2  1  1  1
  2  3  1  0
  3  4  1  0
  4  5  2  0
  5  6  1  0
  7  6  1  0
  8  7  2  0
  9  8  1  0
 10 11  1  0
 10  9  2  0
 11 12  2  0
 12  4  1  0
 12  7  1  0
 13  2  1  0
 13 18  1  0
 14 13  2  0
 15 16  1  0
 17 16  1  1
 17 18  1  0
 19 17  1  0
 20 19  2  0
 21 19  1  0
 21 22  1  0
 23 22  1  0
 24 23  1  0
 24 25  1  0
 25 21  1  0
 25 26  1  6
 27 26  2  0
 28 26  1  0
M  END
$$$$
