WSP.pdb
     RDKit          3D

 28 30  0  0  1  0  0  0  0  0999 V2000
    5.5938  -17.0226   24.1413 N   0  0  0  0  0  0  0  0  0  0  0  0
    6.3969  -15.9137   23.6769 C   0  0  1  0  0  0  0  0  0  0  0  0
    7.7375  -15.8978   24.4180 C   0  0  0  0  0  0  0  0  0  0  0  0
    7.5692  -15.2161   25.7260 C   0  0  0  0  0  0  0  0  0  0  0  0
    7.3467  -15.7872   26.9837 C   0  0  0  0  0  0  0  0  0  0  0  0
    7.2634  -14.7556   27.8348 N   0  0  0  0  0  0  0  0  0  0  0  0
    7.4211  -13.5795   27.1794 C   0  0  0  0  0  0  0  0  0  0  0  0
    7.4206  -12.2522   27.5920 C   0  0  0  0  0  0  0  0  0  0  0  0
    7.6129  -11.2328   26.6701 C   0  0  0  0  0  0  0  0  0  0  0  0
    7.8070  -11.4912   25.3426 C   0  0  0  0  0  0  0  0  0  0  0  0
    7.8056  -12.8121   24.9438 C   0  0  0  0  0  0  0  0  0  0  0  0
    7.6159  -13.8372   25.8473 C   0  0  0  0  0  0  0  0  0  0  0  0
    6.6222  -16.0905   22.2210 C   0  0  0  0  0  0  0  0  0  0  0  0
    6.5818  -17.2568   21.6982 O   0  0  0  0  0  0  0  0  0  0  0  0
    8.5053  -13.3433   19.7214 O   0  0  0  0  0  0  0  0  0  0  0  0
    7.2808  -13.8599   19.3298 C   0  0  0  0  0  0  0  0  0  0  0  0
    7.1831  -15.2704   19.9250 C   0  0  2  0  0  0  0  0  0  0  0  0
    6.8875  -15.0158   21.3440 N   0  0  0  0  0  0  0  0  0  0  0  0
    8.4741  -15.9908   19.8746 C   0  0  0  0  0  0  0  0  0  0  0  0
    9.3449  -15.6392   20.7627 O   0  0  0  0  0  0  0  0  0  0  0  0
    8.8097  -17.0109   18.9467 N   0  0  0  0  0  0  0  0  0  0  0  0
    7.8765  -17.5763   17.9934 C   0  0  0  0  0  0  0  0  0  0  0  0
    8.8056  -17.9843   16.8711 C   0  0  0  0  0  0  0  0  0  0  0  0
    9.8900  -18.6978   17.6906 C   0  0  0  0  0  0  0  0  0  0  0  0
   10.0953  -17.6327   18.7836 C   0  0  1  0  0  0  0  0  0  0  0  0
   11.1017  -16.6890   18.1784 C   0  0  0  0  0  0  0  0  0  0  0  0
   12.3401  -16.9280   18.1791 O   0  0  0  0  0  0  0  0  0  0  0  0
   10.6492  -15.5301   17.6076 O   0  0  0  0  0  0  0  0  0  0  0  0
  2  1  1  1
  2  3  1  0
  3  4  1  0
  4  5  2  0
  5  6  1  0
  7  6  1  0
  8  7  2  0
  9  8  1  0
 10 11  1  0
 10  9  2  0
 11 12  2  0
 12  4  1  0
 12  7  1  0
 13  2  1  0
 13 18  1  0
 14 13  2  0
 15 16  1  0
 17 16  1  6
 17 18  1  0
 19 17  1  0
 20 19  2  0
 21 19  1  0
 21 22  1  0
 23 22  1  0
 24 23  1  0
 24 25  1  0
 25 21  1  0
 25 26  1  6
 27 26  2  0
 28 26  1  0
M  END
$$$$
