WSP.pdb
     RDKit          3D

 28 30  0  0  1  0  0  0  0  0999 V2000
    6.8736  -17.5114   25.4692 N   0  0  0  0  0  0  0  0  0  0  0  0
    7.2274  -16.4412   24.5639 C   0  0  1  0  0  0  0  0  0  0  0  0
    8.3246  -15.5741   25.1893 C   0  0  0  0  0  0  0  0  0  0  0  0
    7.7524  -14.7901   26.3126 C   0  0  0  0  0  0  0  0  0  0  0  0
    7.4934  -15.2070   27.6228 C   0  0  0  0  0  0  0  0  0  0  0  0
    6.9788  -14.1366   28.2431 N   0  0  0  0  0  0  0  0  0  0  0  0
    6.9035  -13.0815   27.3955 C   0  0  0  0  0  0  0  0  0  0  0  0
    6.4566  -11.7734   27.5410 C   0  0  0  0  0  0  0  0  0  0  0  0
    6.5032  -10.8946   26.4678 C   0  0  0  0  0  0  0  0  0  0  0  0
    6.9827  -11.2759   25.2466 C   0  0  0  0  0  0  0  0  0  0  0  0
    7.4237  -12.5765   25.1131 C   0  0  0  0  0  0  0  0  0  0  0  0
    7.3842  -13.4626   26.1697 C   0  0  0  0  0  0  0  0  0  0  0  0
    7.7177  -17.0518   23.3035 C   0  0  0  0  0  0  0  0  0  0  0  0
    8.2328  -18.2222   23.3106 O   0  0  0  0  0  0  0  0  0  0  0  0
    8.0311  -14.8122   20.1168 O   0  0  0  0  0  0  0  0  0  0  0  0
    7.7651  -16.1119   19.7173 C   0  0  0  0  0  0  0  0  0  0  0  0
    8.2301  -17.0301   20.8549 C   0  0  2  0  0  0  0  0  0  0  0  0
    7.6495  -16.4011   22.0520 N   0  0  0  0  0  0  0  0  0  0  0  0
    9.6993  -17.0111   21.0258 C   0  0  0  0  0  0  0  0  0  0  0  0
   10.1917  -15.9166   21.5056 O   0  0  0  0  0  0  0  0  0  0  0  0
   10.5768  -18.0808   20.7095 N   0  0  0  0  0  0  0  0  0  0  0  0
   10.1326  -19.3956   20.2934 C   0  0  0  0  0  0  0  0  0  0  0  0
   11.2915  -19.8438   19.4301 C   0  0  0  0  0  0  0  0  0  0  0  0
   12.4547  -19.4745   20.3611 C   0  0  0  0  0  0  0  0  0  0  0  0
   12.0136  -18.0462   20.7308 C   0  0  1  0  0  0  0  0  0  0  0  0
   12.5706  -17.2003   19.6156 C   0  0  0  0  0  0  0  0  0  0  0  0
   11.8742  -16.8362   18.6291 O   0  0  0  0  0  0  0  0  0  0  0  0
   13.8825  -16.8153   19.6808 O   0  0  0  0  0  0  0  0  0  0  0  0
  2  1  1  1
  2  3  1  0
  3  4  1  0
  4  5  2  0
  5  6  1  0
  7  6  1  0
  8  7  2  0
  9  8  1  0
 10 11  1  0
 10  9  2  0
 11 12  2  0
 12  4  1  0
 12  7  1  0
 13  2  1  0
 13 18  1  0
 14 13  2  0
 15 16  1  0
 17 16  1  6
 17 18  1  0
 19 17  1  0
 20 19  2  0
 21 19  1  0
 21 22  1  0
 23 22  1  0
 24 23  1  0
 24 25  1  0
 25 21  1  0
 25 26  1  6
 27 26  2  0
 28 26  1  0
M  END
$$$$
