WSP.pdb
     RDKit          3D

 28 30  0  0  1  0  0  0  0  0999 V2000
    9.8308  -17.9758   25.5553 N   0  0  0  0  0  0  0  0  0  0  0  0
    9.1548  -16.7754   25.1169 C   0  0  1  0  0  0  0  0  0  0  0  0
    9.0698  -15.7756   26.2745 C   0  0  0  0  0  0  0  0  0  0  0  0
    7.6931  -15.2252   26.3498 C   0  0  0  0  0  0  0  0  0  0  0  0
    6.4768  -15.9165   26.3388 C   0  0  0  0  0  0  0  0  0  0  0  0
    5.5290  -14.9731   26.4250 N   0  0  0  0  0  0  0  0  0  0  0  0
    6.0856  -13.7388   26.4888 C   0  0  0  0  0  0  0  0  0  0  0  0
    5.5535  -12.4584   26.5858 C   0  0  0  0  0  0  0  0  0  0  0  0
    6.3924  -11.3539   26.6343 C   0  0  0  0  0  0  0  0  0  0  0  0
    7.7519  -11.4811   26.5892 C   0  0  0  0  0  0  0  0  0  0  0  0
    8.2696  -12.7565   26.4928 C   0  0  0  0  0  0  0  0  0  0  0  0
    7.4497  -13.8650   26.4436 C   0  0  0  0  0  0  0  0  0  0  0  0
    9.9363  -16.1933   23.9979 C   0  0  0  0  0  0  0  0  0  0  0  0
   10.8959  -15.3816   24.2340 O   0  0  0  0  0  0  0  0  0  0  0  0
   11.3650  -17.3778   21.0033 O   0  0  0  0  0  0  0  0  0  0  0  0
   11.4397  -16.0024   21.1523 C   0  0  0  0  0  0  0  0  0  0  0  0
   10.0481  -15.5267   21.5892 C   0  0  2  0  0  0  0  0  0  0  0  0
    9.6801  -16.4883   22.6408 N   0  0  0  0  0  0  0  0  0  0  0  0
    9.0454  -15.6612   20.5101 C   0  0  0  0  0  0  0  0  0  0  0  0
    8.6018  -16.8579   20.3057 O   0  0  0  0  0  0  0  0  0  0  0  0
    8.5520  -14.5976   19.7102 N   0  0  0  0  0  0  0  0  0  0  0  0
    8.8605  -13.2010   19.9415 C   0  0  0  0  0  0  0  0  0  0  0  0
    8.7610  -12.6367   18.5412 C   0  0  0  0  0  0  0  0  0  0  0  0
    7.4285  -13.2663   18.1117 C   0  0  0  0  0  0  0  0  0  0  0  0
    7.6996  -14.7146   18.5588 C   0  0  1  0  0  0  0  0  0  0  0  0
    8.4232  -15.3214   17.3850 C   0  0  0  0  0  0  0  0  0  0  0  0
    9.6782  -15.4421   17.3518 O   0  0  0  0  0  0  0  0  0  0  0  0
    7.6856  -15.7563   16.3170 O   0  0  0  0  0  0  0  0  0  0  0  0
  2  1  1  1
  2  3  1  0
  3  4  1  0
  4  5  2  0
  5  6  1  0
  7  6  1  0
  8  7  2  0
  9  8  1  0
 10 11  1  0
 10  9  2  0
 11 12  2  0
 12  4  1  0
 12  7  1  0
 13  2  1  0
 13 18  1  0
 14 13  2  0
 15 16  1  0
 17 16  1  6
 17 18  1  0
 19 17  1  0
 20 19  2  0
 21 19  1  0
 21 22  1  0
 23 22  1  0
 24 23  1  0
 24 25  1  0
 25 21  1  0
 25 26  1  6
 27 26  2  0
 28 26  1  0
M  END
$$$$
