WSP.pdb
     RDKit          3D

 28 30  0  0  1  0  0  0  0  0999 V2000
    5.7745  -18.7507   22.0534 N   0  0  0  0  0  0  0  0  0  0  0  0
    6.4914  -17.5241   22.3209 C   0  0  1  0  0  0  0  0  0  0  0  0
    5.6795  -16.3277   21.8146 C   0  0  0  0  0  0  0  0  0  0  0  0
    6.4100  -15.0720   22.1204 C   0  0  0  0  0  0  0  0  0  0  0  0
    6.5047  -14.3946   23.3409 C   0  0  0  0  0  0  0  0  0  0  0  0
    7.2691  -13.3216   23.0956 N   0  0  0  0  0  0  0  0  0  0  0  0
    7.6535  -13.2941   21.7960 C   0  0  0  0  0  0  0  0  0  0  0  0
    8.4330  -12.4159   21.0522 C   0  0  0  0  0  0  0  0  0  0  0  0
    8.6608  -12.6526   19.7038 C   0  0  0  0  0  0  0  0  0  0  0  0
    8.1357  -13.7408   19.0662 C   0  0  0  0  0  0  0  0  0  0  0  0
    7.3634  -14.6061   19.8138 C   0  0  0  0  0  0  0  0  0  0  0  0
    7.1273  -14.3854   21.1549 C   0  0  0  0  0  0  0  0  0  0  0  0
    6.6893  -17.4208   23.7879 C   0  0  0  0  0  0  0  0  0  0  0  0
    5.6824  -17.3222   24.5700 O   0  0  0  0  0  0  0  0  0  0  0  0
    9.2226  -19.1853   26.1015 O   0  0  0  0  0  0  0  0  0  0  0  0
    8.0542  -18.5390   26.4711 C   0  0  0  0  0  0  0  0  0  0  0  0
    8.0987  -17.1433   25.8361 C   0  0  2  0  0  0  0  0  0  0  0  0
    7.9630  -17.4248   24.3980 N   0  0  0  0  0  0  0  0  0  0  0  0
    9.4086  -16.4827   26.0256 C   0  0  0  0  0  0  0  0  0  0  0  0
   10.4061  -17.0351   25.4169 O   0  0  0  0  0  0  0  0  0  0  0  0
    9.6363  -15.3189   26.8055 N   0  0  0  0  0  0  0  0  0  0  0  0
    8.5813  -14.5311   27.4102 C   0  0  0  0  0  0  0  0  0  0  0  0
    9.2902  -13.9589   28.6183 C   0  0  0  0  0  0  0  0  0  0  0  0
   10.5822  -13.4757   27.9449 C   0  0  0  0  0  0  0  0  0  0  0  0
   10.9115  -14.7433   27.1349 C   0  0  1  0  0  0  0  0  0  0  0  0
   11.6787  -15.5999   28.1081 C   0  0  0  0  0  0  0  0  0  0  0  0
   12.8727  -15.3540   28.4318 O   0  0  0  0  0  0  0  0  0  0  0  0
   11.0513  -16.6848   28.6585 O   0  0  0  0  0  0  0  0  0  0  0  0
  2  1  1  1
  2  3  1  0
  3  4  1  0
  4  5  2  0
  5  6  1  0
  7  6  1  0
  8  7  2  0
  9  8  1  0
 10 11  1  0
 10  9  2  0
 11 12  2  0
 12  4  1  0
 12  7  1  0
 13  2  1  0
 13 18  1  0
 14 13  2  0
 15 16  1  0
 17 16  1  1
 17 18  1  0
 19 17  1  0
 20 19  2  0
 21 19  1  0
 21 22  1  0
 23 22  1  0
 24 23  1  0
 24 25  1  0
 25 21  1  0
 25 26  1  1
 27 26  2  0
 28 26  1  0
M  END
$$$$
