WSP.pdb
     RDKit          3D

 28 30  0  0  1  0  0  0  0  0999 V2000
    5.9840  -16.9809   24.2767 N   0  0  0  0  0  0  0  0  0  0  0  0
    6.6346  -15.8052   23.7432 C   0  0  1  0  0  0  0  0  0  0  0  0
    7.9929  -15.6098   24.4239 C   0  0  0  0  0  0  0  0  0  0  0  0
    7.7879  -15.0294   25.7749 C   0  0  0  0  0  0  0  0  0  0  0  0
    7.8042  -15.6793   27.0137 C   0  0  0  0  0  0  0  0  0  0  0  0
    7.5657  -14.7232   27.9218 N   0  0  0  0  0  0  0  0  0  0  0  0
    7.4026  -13.5199   27.3194 C   0  0  0  0  0  0  0  0  0  0  0  0
    7.1419  -12.2421   27.8002 C   0  0  0  0  0  0  0  0  0  0  0  0
    7.0249  -11.1742   26.9215 C   0  0  0  0  0  0  0  0  0  0  0  0
    7.1593  -11.3359   25.5716 C   0  0  0  0  0  0  0  0  0  0  0  0
    7.4178  -12.6085   25.1049 C   0  0  0  0  0  0  0  0  0  0  0  0
    7.5371  -13.6807   25.9648 C   0  0  0  0  0  0  0  0  0  0  0  0
    6.8203  -16.0076   22.2850 C   0  0  0  0  0  0  0  0  0  0  0  0
    6.7604  -17.1822   21.7833 O   0  0  0  0  0  0  0  0  0  0  0  0
    8.5039  -13.2629   19.7808 O   0  0  0  0  0  0  0  0  0  0  0  0
    7.3143  -13.8149   19.3338 C   0  0  0  0  0  0  0  0  0  0  0  0
    7.2192  -15.2190   19.9445 C   0  0  2  0  0  0  0  0  0  0  0  0
    7.0676  -14.9492   21.3833 N   0  0  0  0  0  0  0  0  0  0  0  0
    8.4715  -15.9886   19.7784 C   0  0  0  0  0  0  0  0  0  0  0  0
    9.4183  -15.7010   20.6099 O   0  0  0  0  0  0  0  0  0  0  0  0
    8.6957  -16.9911   18.7990 N   0  0  0  0  0  0  0  0  0  0  0  0
    7.6650  -17.5120   17.9240 C   0  0  0  0  0  0  0  0  0  0  0  0
    8.4760  -17.9099   16.7102 C   0  0  0  0  0  0  0  0  0  0  0  0
    9.6151  -18.6668   17.4074 C   0  0  0  0  0  0  0  0  0  0  0  0
    9.9458  -17.6350   18.5015 C   0  0  1  0  0  0  0  0  0  0  0  0
   10.9130  -16.6970   17.8276 C   0  0  0  0  0  0  0  0  0  0  0  0
   10.5564  -15.5869   17.3468 O   0  0  0  0  0  0  0  0  0  0  0  0
   12.2272  -17.0689   17.7364 O   0  0  0  0  0  0  0  0  0  0  0  0
  2  1  1  1
  2  3  1  0
  3  4  1  0
  4  5  2  0
  5  6  1  0
  7  6  1  0
  8  7  2  0
  9  8  1  0
 10 11  1  0
 10  9  2  0
 11 12  2  0
 12  4  1  0
 12  7  1  0
 13  2  1  0
 13 18  1  0
 14 13  2  0
 15 16  1  0
 17 16  1  6
 17 18  1  0
 19 17  1  0
 20 19  2  0
 21 19  1  0
 21 22  1  0
 23 22  1  0
 24 23  1  0
 24 25  1  0
 25 21  1  0
 25 26  1  6
 27 26  2  0
 28 26  1  0
M  END
$$$$
