WSP.pdb
     RDKit          3D

 28 30  0  0  1  0  0  0  0  0999 V2000
    6.2392  -18.3948   22.5467 N   0  0  0  0  0  0  0  0  0  0  0  0
    6.9416  -17.2204   23.0130 C   0  0  1  0  0  0  0  0  0  0  0  0
    6.1438  -15.9625   22.6552 C   0  0  0  0  0  0  0  0  0  0  0  0
    6.9810  -14.7616   22.9019 C   0  0  0  0  0  0  0  0  0  0  0  0
    8.0786  -14.2992   22.1677 C   0  0  0  0  0  0  0  0  0  0  0  0
    8.4851  -13.1872   22.7953 N   0  0  0  0  0  0  0  0  0  0  0  0
    7.7049  -12.9332   23.8742 C   0  0  0  0  0  0  0  0  0  0  0  0
    7.7055  -11.9277   24.8340 C   0  0  0  0  0  0  0  0  0  0  0  0
    6.7580  -11.9279   25.8481 C   0  0  0  0  0  0  0  0  0  0  0  0
    5.8036  -12.9012   25.9402 C   0  0  0  0  0  0  0  0  0  0  0  0
    5.8121  -13.8945   24.9824 C   0  0  0  0  0  0  0  0  0  0  0  0
    6.7469  -13.9090   23.9679 C   0  0  0  0  0  0  0  0  0  0  0  0
    7.0871  -17.3292   24.4856 C   0  0  0  0  0  0  0  0  0  0  0  0
    6.0681  -17.1964   25.2467 O   0  0  0  0  0  0  0  0  0  0  0  0
    9.1023  -19.6460   26.4579 O   0  0  0  0  0  0  0  0  0  0  0  0
    8.2318  -18.8055   27.1327 C   0  0  0  0  0  0  0  0  0  0  0  0
    8.4579  -17.3935   26.5774 C   0  0  2  0  0  0  0  0  0  0  0  0
    8.3219  -17.5792   25.1239 N   0  0  0  0  0  0  0  0  0  0  0  0
    9.8329  -16.9074   26.8245 C   0  0  0  0  0  0  0  0  0  0  0  0
   10.7673  -17.5212   26.1758 O   0  0  0  0  0  0  0  0  0  0  0  0
   10.1840  -15.8448   27.6975 N   0  0  0  0  0  0  0  0  0  0  0  0
    9.2195  -15.0011   28.3736 C   0  0  0  0  0  0  0  0  0  0  0  0
    9.9837  -14.6125   29.6202 C   0  0  0  0  0  0  0  0  0  0  0  0
   11.3220  -14.2172   28.9804 C   0  0  0  0  0  0  0  0  0  0  0  0
   11.5134  -15.4403   28.0648 C   0  0  1  0  0  0  0  0  0  0  0  0
   12.1812  -16.4538   28.9573 C   0  0  0  0  0  0  0  0  0  0  0  0
   11.5618  -17.4371   29.4473 O   0  0  0  0  0  0  0  0  0  0  0  0
   13.5105  -16.2964   29.2437 O   0  0  0  0  0  0  0  0  0  0  0  0
  2  1  1  1
  2  3  1  0
  3  4  1  0
  4  5  2  0
  5  6  1  0
  7  6  1  0
  8  7  2  0
  9  8  1  0
 10 11  1  0
 10  9  2  0
 11 12  2  0
 12  4  1  0
 12  7  1  0
 13  2  1  0
 13 18  1  0
 14 13  2  0
 15 16  1  0
 17 16  1  1
 17 18  1  0
 19 17  1  0
 20 19  2  0
 21 19  1  0
 21 22  1  0
 23 22  1  0
 24 23  1  0
 24 25  1  0
 25 21  1  0
 25 26  1  1
 27 26  2  0
 28 26  1  0
M  END
$$$$
