RLP.pdb
     RDKit          3D

 27 27  0  0  1  0  0  0  0  0999 V2000
    8.7718  -12.9600   15.4470 N   0  0  0  0  0  0  0  0  0  0  0  0
    8.2249  -13.4985   16.6680 C   0  0  0  0  0  0  0  0  0  0  0  0
    8.0171  -12.7225   17.6655 N   0  0  0  0  0  0  0  0  0  0  0  0
    7.9203  -14.8813   16.7573 N   0  0  0  0  0  0  0  0  0  0  0  0
    7.4058  -15.5076   17.9446 C   0  0  0  0  0  0  0  0  0  0  0  0
    8.4459  -16.2284   18.7311 C   0  0  0  0  0  0  0  0  0  0  0  0
    8.9796  -15.4844   19.9178 C   0  0  0  0  0  0  0  0  0  0  0  0
    8.8649  -16.1525   21.2249 C   0  0  2  0  0  0  0  0  0  0  0  0
    7.7154  -17.0268   21.2908 N   0  0  0  0  0  0  0  0  0  0  0  0
    8.8443  -15.2696   22.3956 C   0  0  0  0  0  0  0  0  0  0  0  0
    8.6979  -14.0364   22.2172 O   0  0  0  0  0  0  0  0  0  0  0  0
    7.5658  -13.0339   18.5357 C   0  0  0  0  0  0  0  0  0  0  0  0
    5.6717  -13.6802   26.4728 C   0  0  1  0  0  0  0  0  0  0  0  0
    7.0806  -13.5070   26.0218 C   0  0  0  0  0  0  0  0  0  0  0  0
    7.4419  -12.0605   25.7605 C   0  0  0  0  0  0  0  0  0  0  0  0
    7.3558  -14.3854   24.8395 C   0  0  2  0  0  0  0  0  0  0  0  0
    8.7911  -14.8609   24.9027 N   0  0  0  0  0  0  0  0  0  0  0  0
    8.9802  -15.7187   23.7297 C   0  0  0  0  0  0  0  0  0  0  0  0
    9.0689  -15.6350   26.1606 O   0  0  0  0  0  0  0  0  0  0  0  0
    8.3441  -16.6553   26.2887 N   0  0  0  0  0  0  0  0  0  0  0  0
   10.0554  -15.2254   27.0826 C   0  0  0  0  0  0  0  0  0  0  0  0
   10.7518  -13.9181   27.0939 C   0  0  0  0  0  0  0  0  0  0  0  0
   11.0323  -13.6315   28.5303 C   0  0  0  0  0  0  0  0  0  0  0  0
   10.5963  -14.8625   29.2713 C   0  0  2  0  0  0  0  0  0  0  0  0
   10.6856  -15.9327   28.1450 C   0  0  0  0  0  0  0  0  0  0  0  0
   10.1286  -17.1813   28.6131 O   0  0  0  0  0  0  0  0  0  0  0  0
    8.8532  -17.3098   28.4989 O   0  0  0  0  0  0  0  0  0  0  0  0
  2  1  1  0
  2  3  2  0
  4  2  1  0
  5  4  1  0
  6  5  1  0
  7  6  1  0
  8  7  1  0
  8  9  1  6
 10 17  1  0
 10  8  1  0
 11 10  2  0
 13 12  1  1
 14 13  1  0
 15 13  1  0
 16 17  1  0
 16 15  1  6
 18 16  1  0
 19 18  2  0
 20 18  1  0
 20 24  1  0
 21 22  1  0
 21 20  1  0
 22 23  1  0
 23 24  1  0
 24 25  1  1
 25 27  1  0
 26 25  2  0
M  END
$$$$
