RLP.pdb
     RDKit          3D

 27 27  0  0  1  0  0  0  0  0999 V2000
   10.2493  -14.3407   17.3884 N   0  0  0  0  0  0  0  0  0  0  0  0
    9.2654  -13.8741   16.4430 C   0  0  0  0  0  0  0  0  0  0  0  0
    9.3799  -14.1822   15.2052 N   0  0  0  0  0  0  0  0  0  0  0  0
    8.1781  -13.0786   16.8881 N   0  0  0  0  0  0  0  0  0  0  0  0
    7.8447  -12.8906   18.2738 C   0  0  0  0  0  0  0  0  0  0  0  0
    7.7824  -14.1639   19.0451 C   0  0  0  0  0  0  0  0  0  0  0  0
    7.2774  -14.0356   20.4505 C   0  0  0  0  0  0  0  0  0  0  0  0
    7.8227  -14.9807   21.4391 C   0  0  2  0  0  0  0  0  0  0  0  0
    7.0340  -16.1888   21.5305 N   0  0  0  0  0  0  0  0  0  0  0  0
    8.0176  -14.4501   22.7923 C   0  0  0  0  0  0  0  0  0  0  0  0
    7.7882  -13.2345   23.0012 O   0  0  0  0  0  0  0  0  0  0  0  0
    8.6884  -13.9140   14.4927 C   0  0  0  0  0  0  0  0  0  0  0  0
    7.6714  -12.2182   25.5525 C   0  0  2  0  0  0  0  0  0  0  0  0
    6.5684  -13.1901   25.3130 C   0  0  0  0  0  0  0  0  0  0  0  0
    5.2809  -12.8031   26.0086 C   0  0  0  0  0  0  0  0  0  0  0  0
    7.0146  -14.5753   25.6697 C   0  0  2  0  0  0  0  0  0  0  0  0
    8.4663  -14.7419   25.2760 N   0  0  0  0  0  0  0  0  0  0  0  0
    8.4526  -15.2248   23.8926 C   0  0  0  0  0  0  0  0  0  0  0  0
    9.1764  -15.7270   26.1615 O   0  0  0  0  0  0  0  0  0  0  0  0
    8.8593  -16.9226   25.9322 N   0  0  0  0  0  0  0  0  0  0  0  0
   10.1023  -15.3118   27.1421 C   0  0  0  0  0  0  0  0  0  0  0  0
   10.7059  -13.9642   27.2590 C   0  0  0  0  0  0  0  0  0  0  0  0
   10.9198  -13.7516   28.7194 C   0  0  0  0  0  0  0  0  0  0  0  0
   10.5465  -15.0539   29.3672 C   0  0  2  0  0  0  0  0  0  0  0  0
   10.7455  -16.0416   28.1812 C   0  0  0  0  0  0  0  0  0  0  0  0
   10.2615  -17.3521   28.5512 O   0  0  0  0  0  0  0  0  0  0  0  0
    9.0427  -17.6155   28.2329 O   0  0  0  0  0  0  0  0  0  0  0  0
  2  1  1  0
  2  3  2  0
  4  2  1  0
  5  4  1  0
  6  5  1  0
  7  6  1  0
  8  7  1  0
  8  9  1  1
 10 17  1  0
 10  8  1  0
 11 10  2  0
 13 12  1  6
 14 13  1  0
 15 13  1  0
 16 17  1  0
 16 15  1  6
 18 16  1  0
 19 18  2  0
 20 18  1  0
 20 24  1  0
 21 22  1  0
 21 20  1  0
 22 23  1  0
 23 24  1  0
 24 25  1  1
 25 27  1  0
 26 25  2  0
M  END
$$$$
