RLP.pdb
     RDKit          3D

 27 27  0  0  1  0  0  0  0  0999 V2000
    7.6287  -13.4611   16.0608 N   0  0  0  0  0  0  0  0  0  0  0  0
    8.6956  -13.8006   16.9698 C   0  0  0  0  0  0  0  0  0  0  0  0
    9.2876  -12.8739   17.6263 N   0  0  0  0  0  0  0  0  0  0  0  0
    9.0823  -15.1560   17.1320 N   0  0  0  0  0  0  0  0  0  0  0  0
    8.6919  -15.9660   18.2536 C   0  0  0  0  0  0  0  0  0  0  0  0
    9.8415  -16.6204   18.9393 C   0  0  0  0  0  0  0  0  0  0  0  0
   10.2444  -16.0009   20.2434 C   0  0  0  0  0  0  0  0  0  0  0  0
    9.5405  -16.4741   21.4469 C   0  0  2  0  0  0  0  0  0  0  0  0
    8.1935  -16.9098   21.1542 N   0  0  0  0  0  0  0  0  0  0  0  0
    9.4902  -15.5332   22.5706 C   0  0  0  0  0  0  0  0  0  0  0  0
   10.3150  -14.5885   22.6023 O   0  0  0  0  0  0  0  0  0  0  0  0
   10.0818  -13.0499   18.2557 C   0  0  0  0  0  0  0  0  0  0  0  0
    5.7810  -13.0818   26.6101 C   0  0  1  0  0  0  0  0  0  0  0  0
    7.1594  -13.1871   26.0558 C   0  0  0  0  0  0  0  0  0  0  0  0
    7.7386  -11.8462   25.6584 C   0  0  0  0  0  0  0  0  0  0  0  0
    7.1891  -14.1764   24.9308 C   0  0  2  0  0  0  0  0  0  0  0  0
    8.5870  -14.7433   24.8102 N   0  0  0  0  0  0  0  0  0  0  0  0
    8.5635  -15.6190   23.6355 C   0  0  0  0  0  0  0  0  0  0  0  0
    8.9806  -15.5255   26.0317 O   0  0  0  0  0  0  0  0  0  0  0  0
    8.3672  -16.6182   26.1432 N   0  0  0  0  0  0  0  0  0  0  0  0
    9.9486  -15.0474   26.9403 C   0  0  0  0  0  0  0  0  0  0  0  0
   10.6889  -13.7687   26.8357 C   0  0  0  0  0  0  0  0  0  0  0  0
   10.9298  -13.3347   28.2419 C   0  0  0  0  0  0  0  0  0  0  0  0
   10.4264  -14.4629   29.0955 C   0  0  2  0  0  0  0  0  0  0  0  0
   10.5172  -15.6526   28.0964 C   0  0  0  0  0  0  0  0  0  0  0  0
    9.9017  -16.8246   28.6761 O   0  0  0  0  0  0  0  0  0  0  0  0
   10.6832  -17.6065   29.3348 O   0  0  0  0  0  0  0  0  0  0  0  0
  2  1  1  0
  2  3  2  0
  4  2  1  0
  5  4  1  0
  6  5  1  0
  7  6  1  0
  8  7  1  0
  8  9  1  6
 10 17  1  0
 10  8  1  0
 11 10  2  0
 13 12  1  1
 14 13  1  0
 15 13  1  0
 16 17  1  0
 16 15  1  6
 18 16  1  0
 19 18  2  0
 20 18  1  0
 20 24  1  0
 21 22  1  0
 21 20  1  0
 22 23  1  0
 23 24  1  0
 24 25  1  1
 25 27  1  0
 26 25  2  0
M  END
$$$$
