RLP.pdb
     RDKit          3D

 27 27  0  0  1  0  0  0  0  0999 V2000
    9.3642  -14.5319   15.8562 N   0  0  0  0  0  0  0  0  0  0  0  0
    8.7106  -13.5926   16.7338 C   0  0  0  0  0  0  0  0  0  0  0  0
    7.5310  -13.1793   16.4543 N   0  0  0  0  0  0  0  0  0  0  0  0
    9.3757  -13.1328   17.8997 N   0  0  0  0  0  0  0  0  0  0  0  0
    9.5933  -13.9465   19.0647 C   0  0  0  0  0  0  0  0  0  0  0  0
    8.6980  -13.5994   20.2040 C   0  0  0  0  0  0  0  0  0  0  0  0
    7.7926  -14.7019   20.6641 C   0  0  0  0  0  0  0  0  0  0  0  0
    8.3450  -15.6438   21.6519 C   0  0  2  0  0  0  0  0  0  0  0  0
    7.4658  -16.7675   21.8840 N   0  0  0  0  0  0  0  0  0  0  0  0
    8.7144  -15.0676   22.9488 C   0  0  0  0  0  0  0  0  0  0  0  0
    9.8339  -14.5133   23.0646 O   0  0  0  0  0  0  0  0  0  0  0  0
    7.0505  -12.4452   16.9909 C   0  0  0  0  0  0  0  0  0  0  0  0
    7.6353  -11.8737   25.8145 C   0  0  2  0  0  0  0  0  0  0  0  0
    6.5516  -12.8804   25.6396 C   0  0  0  0  0  0  0  0  0  0  0  0
    5.2447  -12.4554   26.2742 C   0  0  0  0  0  0  0  0  0  0  0  0
    7.0103  -14.2220   26.1240 C   0  0  2  0  0  0  0  0  0  0  0  0
    8.2914  -14.5924   25.4086 N   0  0  0  0  0  0  0  0  0  0  0  0
    7.8843  -15.0944   24.0935 C   0  0  0  0  0  0  0  0  0  0  0  0
    9.0611  -15.6486   26.1508 O   0  0  0  0  0  0  0  0  0  0  0  0
    8.6727  -16.8184   25.8987 N   0  0  0  0  0  0  0  0  0  0  0  0
   10.1109  -15.3200   27.0345 C   0  0  0  0  0  0  0  0  0  0  0  0
   10.8548  -14.0396   27.0698 C   0  0  0  0  0  0  0  0  0  0  0  0
   11.2236  -13.8354   28.5003 C   0  0  0  0  0  0  0  0  0  0  0  0
   10.7834  -15.0865   29.2043 C   0  0  2  0  0  0  0  0  0  0  0  0
   10.7714  -16.1011   28.0243 C   0  0  0  0  0  0  0  0  0  0  0  0
   10.1949  -17.3518   28.4621 O   0  0  0  0  0  0  0  0  0  0  0  0
    8.9520  -17.5309   28.1806 O   0  0  0  0  0  0  0  0  0  0  0  0
  2  1  1  0
  2  3  2  0
  4  2  1  0
  5  4  1  0
  6  5  1  0
  7  6  1  0
  8  7  1  0
  8  9  1  1
 10 17  1  0
 10  8  1  0
 11 10  2  0
 13 12  1  6
 14 13  1  0
 15 13  1  0
 16 17  1  0
 16 15  1  6
 18 16  1  0
 19 18  2  0
 20 18  1  0
 20 24  1  0
 21 22  1  0
 21 20  1  0
 22 23  1  0
 23 24  1  0
 24 25  1  1
 25 27  1  0
 26 25  2  0
M  END
$$$$
