RLP.pdb
     RDKit          3D

 27 27  0  0  1  0  0  0  0  0999 V2000
    9.5763  -14.1540   16.8679 N   0  0  0  0  0  0  0  0  0  0  0  0
    8.5150  -13.4503   17.5447 C   0  0  0  0  0  0  0  0  0  0  0  0
    8.6390  -12.1991   17.7884 N   0  0  0  0  0  0  0  0  0  0  0  0
    7.3418  -14.1459   17.9356 N   0  0  0  0  0  0  0  0  0  0  0  0
    7.2645  -14.9831   19.1017 C   0  0  0  0  0  0  0  0  0  0  0  0
    8.3781  -14.7585   20.0659 C   0  0  0  0  0  0  0  0  0  0  0  0
    9.0164  -16.0026   20.6059 C   0  0  0  0  0  0  0  0  0  0  0  0
    8.5138  -16.4975   21.8982 C   0  0  2  0  0  0  0  0  0  0  0  0
    7.0812  -16.6907   21.8877 N   0  0  0  0  0  0  0  0  0  0  0  0
    8.8651  -15.6924   23.0725 C   0  0  0  0  0  0  0  0  0  0  0  0
    9.9887  -15.1356   23.1066 O   0  0  0  0  0  0  0  0  0  0  0  0
    7.9040  -11.6384   18.2393 C   0  0  0  0  0  0  0  0  0  0  0  0
    7.6711  -12.0663   25.2907 C   0  0  2  0  0  0  0  0  0  0  0  0
    6.6127  -13.1134   25.3346 C   0  0  0  0  0  0  0  0  0  0  0  0
    5.3075  -12.6079   25.9108 C   0  0  0  0  0  0  0  0  0  0  0  0
    7.1186  -14.3289   26.0500 C   0  0  2  0  0  0  0  0  0  0  0  0
    8.4079  -14.7820   25.4001 N   0  0  0  0  0  0  0  0  0  0  0  0
    8.0127  -15.4981   24.1842 C   0  0  0  0  0  0  0  0  0  0  0  0
    9.1998  -15.6880   26.3006 O   0  0  0  0  0  0  0  0  0  0  0  0
    8.9556  -16.9088   26.1195 N   0  0  0  0  0  0  0  0  0  0  0  0
   10.1185  -15.1804   27.2437 C   0  0  0  0  0  0  0  0  0  0  0  0
   10.7162  -13.8250   27.2393 C   0  0  0  0  0  0  0  0  0  0  0  0
   10.9211  -13.4782   28.6751 C   0  0  0  0  0  0  0  0  0  0  0  0
   10.5494  -14.7170   29.4378 C   0  0  2  0  0  0  0  0  0  0  0  0
   10.7589  -15.8087   28.3487 C   0  0  0  0  0  0  0  0  0  0  0  0
   10.2780  -17.0818   28.8351 O   0  0  0  0  0  0  0  0  0  0  0  0
    9.1575  -17.4865   28.3484 O   0  0  0  0  0  0  0  0  0  0  0  0
  2  1  1  0
  2  3  2  0
  4  2  1  0
  5  4  1  0
  6  5  1  0
  7  6  1  0
  8  7  1  0
  8  9  1  6
 10 17  1  0
 10  8  1  0
 11 10  2  0
 13 12  1  6
 14 13  1  0
 15 13  1  0
 16 17  1  0
 16 15  1  6
 18 16  1  0
 19 18  2  0
 20 18  1  0
 20 24  1  0
 21 22  1  0
 21 20  1  0
 22 23  1  0
 23 24  1  0
 24 25  1  1
 25 27  1  0
 26 25  2  0
M  END
$$$$
