RLP.pdb
     RDKit          3D

 27 27  0  0  1  0  0  0  0  0999 V2000
   10.7147  -20.4392   25.2525 N   0  0  0  0  0  0  0  0  0  0  0  0
   10.2630  -21.2826   24.1735 C   0  0  0  0  0  0  0  0  0  0  0  0
    9.7557  -22.4290   24.4351 N   0  0  0  0  0  0  0  0  0  0  0  0
   10.3821  -20.8387   22.8312 N   0  0  0  0  0  0  0  0  0  0  0  0
   10.8991  -19.5489   22.4626 C   0  0  0  0  0  0  0  0  0  0  0  0
    9.9086  -18.4473   22.6212 C   0  0  0  0  0  0  0  0  0  0  0  0
    9.7762  -17.5321   21.4415 C   0  0  0  0  0  0  0  0  0  0  0  0
    8.9175  -16.3487   21.6144 C   0  0  2  0  0  0  0  0  0  0  0  0
    8.9793  -15.4598   20.4760 N   0  0  0  0  0  0  0  0  0  0  0  0
    9.1484  -15.5623   22.8305 C   0  0  0  0  0  0  0  0  0  0  0  0
   10.1772  -14.8478   22.8992 O   0  0  0  0  0  0  0  0  0  0  0  0
    9.4517  -23.0889   23.7071 C   0  0  0  0  0  0  0  0  0  0  0  0
    8.0349  -12.1310   25.2364 C   0  0  1  0  0  0  0  0  0  0  0  0
    6.8850  -13.0694   25.1115 C   0  0  0  0  0  0  0  0  0  0  0  0
    5.5944  -12.4954   25.6559 C   0  0  0  0  0  0  0  0  0  0  0  0
    7.2271  -14.3902   25.7310 C   0  0  2  0  0  0  0  0  0  0  0  0
    8.5668  -14.8513   25.1993 N   0  0  0  0  0  0  0  0  0  0  0  0
    8.2793  -15.5542   23.9462 C   0  0  0  0  0  0  0  0  0  0  0  0
    9.2635  -15.7718   26.1616 O   0  0  0  0  0  0  0  0  0  0  0  0
    8.9741  -16.9841   25.9904 N   0  0  0  0  0  0  0  0  0  0  0  0
   10.1494  -15.2852   27.1463 C   0  0  0  0  0  0  0  0  0  0  0  0
   10.7397  -13.9276   27.1965 C   0  0  0  0  0  0  0  0  0  0  0  0
   10.8975  -13.6180   28.6467 C   0  0  0  0  0  0  0  0  0  0  0  0
   10.5086  -14.8783   29.3644 C   0  0  2  0  0  0  0  0  0  0  0  0
   10.7581  -15.9398   28.2540 C   0  0  0  0  0  0  0  0  0  0  0  0
   10.2690  -17.2274   28.6912 O   0  0  0  0  0  0  0  0  0  0  0  0
   11.1054  -17.9597   29.3395 O   0  0  0  0  0  0  0  0  0  0  0  0
  2  1  1  0
  2  3  2  0
  4  2  1  0
  5  4  1  0
  6  5  1  0
  7  6  1  0
  8  7  1  0
  8  9  1  6
 10 17  1  0
 10  8  1  0
 11 10  2  0
 13 12  1  6
 14 13  1  0
 15 13  1  0
 16 17  1  0
 16 15  1  6
 18 16  1  0
 19 18  2  0
 20 18  1  0
 20 24  1  0
 21 22  1  0
 21 20  1  0
 22 23  1  0
 23 24  1  0
 24 25  1  1
 25 27  1  0
 26 25  2  0
M  END
$$$$
