RLP.pdb
     RDKit          3D

 27 27  0  0  1  0  0  0  0  0999 V2000
   10.6455  -22.2624   20.6241 N   0  0  0  0  0  0  0  0  0  0  0  0
    9.5564  -21.8386   19.7791 C   0  0  0  0  0  0  0  0  0  0  0  0
    9.3983  -22.3808   18.6296 N   0  0  0  0  0  0  0  0  0  0  0  0
    8.6678  -20.8263   20.2246 N   0  0  0  0  0  0  0  0  0  0  0  0
    8.9039  -19.4208   20.0359 C   0  0  0  0  0  0  0  0  0  0  0  0
   10.0262  -18.8935   20.8619 C   0  0  0  0  0  0  0  0  0  0  0  0
    9.6209  -17.9981   21.9936 C   0  0  0  0  0  0  0  0  0  0  0  0
    9.3821  -16.5828   21.6654 C   0  0  2  0  0  0  0  0  0  0  0  0
   10.2776  -16.1035   20.6367 N   0  0  0  0  0  0  0  0  0  0  0  0
    9.4283  -15.6474   22.7939 C   0  0  0  0  0  0  0  0  0  0  0  0
   10.5186  -15.0925   23.0719 O   0  0  0  0  0  0  0  0  0  0  0  0
    8.6871  -22.0706   17.9545 C   0  0  0  0  0  0  0  0  0  0  0  0
    5.6432  -12.6006   26.5396 C   0  0  1  0  0  0  0  0  0  0  0  0
    7.0226  -12.8418   26.0322 C   0  0  0  0  0  0  0  0  0  0  0  0
    7.7307  -11.5681   25.6225 C   0  0  0  0  0  0  0  0  0  0  0  0
    6.9974  -13.8587   24.9320 C   0  0  2  0  0  0  0  0  0  0  0  0
    8.3821  -14.4487   24.7749 N   0  0  0  0  0  0  0  0  0  0  0  0
    8.3132  -15.3236   23.6014 C   0  0  0  0  0  0  0  0  0  0  0  0
    8.7944  -15.2378   25.9857 O   0  0  0  0  0  0  0  0  0  0  0  0
    8.1231  -16.2893   26.1482 N   0  0  0  0  0  0  0  0  0  0  0  0
    9.8383  -14.8084   26.8325 C   0  0  0  0  0  0  0  0  0  0  0  0
   10.6572  -13.5862   26.6592 C   0  0  0  0  0  0  0  0  0  0  0  0
   10.9994  -13.1400   28.0403 C   0  0  0  0  0  0  0  0  0  0  0  0
   10.4657  -14.2124   28.9457 C   0  0  2  0  0  0  0  0  0  0  0  0
   10.4238  -15.4265   27.9731 C   0  0  0  0  0  0  0  0  0  0  0  0
    9.7612  -16.5407   28.6118 O   0  0  0  0  0  0  0  0  0  0  0  0
    8.5004  -16.6566   28.3815 O   0  0  0  0  0  0  0  0  0  0  0  0
  2  1  1  0
  2  3  2  0
  4  2  1  0
  5  4  1  0
  6  5  1  0
  7  6  1  0
  8  7  1  0
  8  9  1  6
 10 17  1  0
 10  8  1  0
 11 10  2  0
 13 12  1  1
 14 13  1  0
 15 13  1  0
 16 17  1  0
 16 15  1  6
 18 16  1  0
 19 18  2  0
 20 18  1  0
 20 24  1  0
 21 22  1  0
 21 20  1  0
 22 23  1  0
 23 24  1  0
 24 25  1  1
 25 27  1  0
 26 25  2  0
M  END
$$$$
