RLP.pdb
     RDKit          3D

 27 27  0  0  1  0  0  0  0  0999 V2000
    8.5358  -12.8353   18.5706 N   0  0  0  0  0  0  0  0  0  0  0  0
    8.4984  -13.5921   17.3436 C   0  0  0  0  0  0  0  0  0  0  0  0
    8.2937  -12.9884   16.2328 N   0  0  0  0  0  0  0  0  0  0  0  0
    8.6885  -14.9978   17.3733 N   0  0  0  0  0  0  0  0  0  0  0  0
    8.6373  -15.7823   18.5769 C   0  0  0  0  0  0  0  0  0  0  0  0
    9.8882  -15.7105   19.3833 C   0  0  0  0  0  0  0  0  0  0  0  0
    9.9517  -16.6504   20.5492 C   0  0  0  0  0  0  0  0  0  0  0  0
    8.7936  -16.6571   21.4584 C   0  0  2  0  0  0  0  0  0  0  0  0
    7.5406  -16.5506   20.7454 N   0  0  0  0  0  0  0  0  0  0  0  0
    8.8095  -15.6483   22.5226 C   0  0  0  0  0  0  0  0  0  0  0  0
    9.3115  -14.5245   22.2796 O   0  0  0  0  0  0  0  0  0  0  0  0
    8.2055  -13.4798   15.3336 C   0  0  0  0  0  0  0  0  0  0  0  0
    5.7865  -12.9174   26.6794 C   0  0  1  0  0  0  0  0  0  0  0  0
    7.1293  -13.1605   26.0824 C   0  0  0  0  0  0  0  0  0  0  0  0
    7.7640  -11.9028   25.5285 C   0  0  0  0  0  0  0  0  0  0  0  0
    7.0501  -14.2554   25.0625 C   0  0  2  0  0  0  0  0  0  0  0  0
    8.4154  -14.8914   24.9158 N   0  0  0  0  0  0  0  0  0  0  0  0
    8.2908  -15.8580   23.8215 C   0  0  0  0  0  0  0  0  0  0  0  0
    8.8461  -15.5881   26.1759 O   0  0  0  0  0  0  0  0  0  0  0  0
    8.2292  -16.6640   26.3867 N   0  0  0  0  0  0  0  0  0  0  0  0
    9.8490  -15.0557   27.0138 C   0  0  0  0  0  0  0  0  0  0  0  0
   10.5114  -13.7402   26.8566 C   0  0  0  0  0  0  0  0  0  0  0  0
   10.8274  -13.2881   28.2421 C   0  0  0  0  0  0  0  0  0  0  0  0
   10.4457  -14.4377   29.1295 C   0  0  2  0  0  0  0  0  0  0  0  0
   10.5288  -15.6251   28.1272 C   0  0  0  0  0  0  0  0  0  0  0  0
   10.0185  -16.8255   28.7494 O   0  0  0  0  0  0  0  0  0  0  0  0
    8.7816  -17.0985   28.5220 O   0  0  0  0  0  0  0  0  0  0  0  0
  2  1  1  0
  2  3  2  0
  4  2  1  0
  5  4  1  0
  6  5  1  0
  7  6  1  0
  8  7  1  0
  8  9  1  6
 10 17  1  0
 10  8  1  0
 11 10  2  0
 13 12  1  1
 14 13  1  0
 15 13  1  0
 16 17  1  0
 16 15  1  6
 18 16  1  0
 19 18  2  0
 20 18  1  0
 20 24  1  0
 21 22  1  0
 21 20  1  0
 22 23  1  0
 23 24  1  0
 24 25  1  1
 25 27  1  0
 26 25  2  0
M  END
$$$$
