RFS.pdb
     RDKit          3D

 29 29  0  0  1  0  0  0  0  0999 V2000
    8.2840  -15.2831   17.0784 N   0  0  0  0  0  0  0  0  0  0  0  0
    8.4657  -13.9644   16.5973 C   0  0  0  0  0  0  0  0  0  0  0  0
    8.9147  -13.7652   15.3969 N   0  0  0  0  0  0  0  0  0  0  0  0
    8.1628  -12.8355   17.4112 N   0  0  0  0  0  0  0  0  0  0  0  0
    7.5785  -12.9897   18.7416 C   0  0  0  0  0  0  0  0  0  0  0  0
    8.6511  -13.4873   19.6775 C   0  0  0  0  0  0  0  0  0  0  0  0
    8.1308  -13.7954   21.0572 C   0  0  0  0  0  0  0  0  0  0  0  0
    8.2989  -15.2528   21.4132 C   0  0  2  0  0  0  0  0  0  0  0  0
    7.0558  -15.9206   21.0890 N   0  0  0  0  0  0  0  0  0  0  0  0
    8.6449  -15.4508   22.8318 C   0  0  0  0  0  0  0  0  0  0  0  0
    9.7888  -15.1021   23.2221 O   0  0  0  0  0  0  0  0  0  0  0  0
    8.9870  -12.8241   14.9863 N   0  0  0  0  0  0  0  0  0  0  0  0
    7.7807  -16.0074   23.7938 C   0  0  1  0  0  0  0  0  0  0  0  0
    8.1148  -16.1242   25.2016 C   0  0  0  0  0  0  0  0  0  0  0  0
    7.0250  -15.6348   26.0951 C   0  0  0  0  0  0  0  0  0  0  0  0
    6.8406  -14.1681   26.0687 C   0  0  0  0  0  0  0  0  0  0  0  0
    5.8532  -13.4872   25.4349 C   0  0  0  0  0  0  0  0  0  0  0  0
    5.8112  -12.0911   25.5014 C   0  0  0  0  0  0  0  0  0  0  0  0
    6.7528  -11.3753   26.1992 C   0  0  0  0  0  0  0  0  0  0  0  0
    7.7694  -12.0539   26.8533 C   0  0  0  0  0  0  0  0  0  0  0  0
    7.7889  -13.4197   26.7734 C   0  0  0  0  0  0  0  0  0  0  0  0
    8.6232  -17.4741   25.4977 O   0  0  0  0  0  0  0  0  0  0  0  0
    7.8758  -18.4555   25.3295 O   0  0  0  0  0  0  0  0  0  0  0  0
   12.3492  -18.2939   25.0372 C   0  0  0  0  0  0  0  0  0  0  0  0
   11.5399  -19.4002   25.3056 C   0  0  1  0  0  0  0  0  0  0  0  0
   10.5031  -18.9469   26.3123 N   0  0  0  0  0  0  0  0  0  0  0  0
    9.9322  -17.6673   25.9616 C   0  0  0  0  0  0  0  0  0  0  0  0
   11.2133  -18.8106   27.5969 O   0  0  0  0  0  0  0  0  0  0  0  0
   11.8117  -19.8868   28.2195 O   0  0  0  0  0  0  0  0  0  0  0  0
  1  2  1  0
  2  3  2  0
  4  2  1  0
  4  5  1  0
  6  5  1  0
  7  6  1  0
  8  7  1  0
  8  9  1  1
 10 11  2  0
 10  8  1  0
 12 10  1  0
 13 12  1  0
 13 14  1  1
 15 14  1  0
 15 16  2  0
 17 16  1  0
 18 17  2  0
 19 20  2  0
 19 18  1  0
 20 15  1  0
 21 13  1  0
 21 26  1  0
 22 21  2  0
 23 24  1  0
 25 24  1  6
 25 26  1  0
 25 27  1  0
 27 29  2  0
 27 28  1  0
M  END
$$$$
