RFS.pdb
     RDKit          3D

 29 29  0  0  1  0  0  0  0  0999 V2000
    7.3774  -13.3544   19.9954 N   0  0  0  0  0  0  0  0  0  0  0  0
    8.0372  -13.1857   18.7546 C   0  0  0  0  0  0  0  0  0  0  0  0
    8.0175  -12.0344   18.1578 N   0  0  0  0  0  0  0  0  0  0  0  0
    8.7318  -14.2651   18.1374 N   0  0  0  0  0  0  0  0  0  0  0  0
    8.7535  -15.5985   18.7347 C   0  0  0  0  0  0  0  0  0  0  0  0
    7.7525  -15.6312   19.8620 C   0  0  0  0  0  0  0  0  0  0  0  0
    8.3867  -15.4536   21.2168 C   0  0  0  0  0  0  0  0  0  0  0  0
    8.4252  -16.7451   21.9975 C   0  0  2  0  0  0  0  0  0  0  0  0
    7.1040  -17.3327   21.9216 N   0  0  0  0  0  0  0  0  0  0  0  0
    8.8290  -16.5445   23.4004 C   0  0  0  0  0  0  0  0  0  0  0  0
   10.0030  -16.1581   23.6347 O   0  0  0  0  0  0  0  0  0  0  0  0
    8.5014  -11.8702   17.2642 N   0  0  0  0  0  0  0  0  0  0  0  0
    7.9892  -16.7554   24.5105 C   0  0  1  0  0  0  0  0  0  0  0  0
    8.4090  -16.5524   25.8851 C   0  0  0  0  0  0  0  0  0  0  0  0
    7.3675  -15.8763   26.7119 C   0  0  0  0  0  0  0  0  0  0  0  0
    7.1161  -14.4707   26.3287 C   0  0  0  0  0  0  0  0  0  0  0  0
    6.0723  -14.0046   25.5981 C   0  0  0  0  0  0  0  0  0  0  0  0
    5.9702  -12.6392   25.3147 C   0  0  0  0  0  0  0  0  0  0  0  0
    6.9080  -11.7399   25.7596 C   0  0  0  0  0  0  0  0  0  0  0  0
    7.9816  -12.1976   26.5076 C   0  0  0  0  0  0  0  0  0  0  0  0
    8.0593  -13.5380   26.7716 C   0  0  0  0  0  0  0  0  0  0  0  0
    8.9550  -17.8004   26.4442 O   0  0  0  0  0  0  0  0  0  0  0  0
    8.1737  -18.6515   26.9083 O   0  0  0  0  0  0  0  0  0  0  0  0
   12.5703  -18.8703   25.2895 C   0  0  0  0  0  0  0  0  0  0  0  0
   11.8313  -19.8989   25.8787 C   0  0  1  0  0  0  0  0  0  0  0  0
   10.9567  -19.2563   26.9351 N   0  0  0  0  0  0  0  0  0  0  0  0
   10.3361  -18.0423   26.4579 C   0  0  0  0  0  0  0  0  0  0  0  0
   11.8517  -18.9192   28.0569 O   0  0  0  0  0  0  0  0  0  0  0  0
   12.5276  -19.8882   28.7697 O   0  0  0  0  0  0  0  0  0  0  0  0
  1  2  1  0
  2  3  2  0
  4  2  1  0
  4  5  1  0
  6  5  1  0
  7  6  1  0
  8  7  1  0
  8  9  1  1
 10 11  2  0
 10  8  1  0
 12 10  1  0
 13 12  1  0
 13 14  1  1
 15 14  1  0
 15 16  2  0
 17 16  1  0
 18 17  2  0
 19 20  2  0
 19 18  1  0
 20 15  1  0
 21 13  1  0
 21 26  1  0
 22 21  2  0
 23 24  1  0
 25 24  1  6
 25 26  1  0
 25 27  1  0
 27 29  2  0
 27 28  1  0
M  END
$$$$
