RFS.pdb
     RDKit          3D

 29 29  0  0  1  0  0  0  0  0999 V2000
    7.2164  -15.5300   15.5904 N   0  0  0  0  0  0  0  0  0  0  0  0
    8.4566  -16.1563   15.8601 C   0  0  0  0  0  0  0  0  0  0  0  0
    8.7562  -17.2812   15.2882 N   0  0  0  0  0  0  0  0  0  0  0  0
    9.3964  -15.5726   16.7572 N   0  0  0  0  0  0  0  0  0  0  0  0
    9.1639  -14.2610   17.3578 C   0  0  0  0  0  0  0  0  0  0  0  0
    7.8491  -14.3018   18.0951 C   0  0  0  0  0  0  0  0  0  0  0  0
    7.9758  -14.8487   19.4930 C   0  0  0  0  0  0  0  0  0  0  0  0
    7.7998  -13.7746   20.5392 C   0  0  2  0  0  0  0  0  0  0  0  0
    8.4310  -12.5739   20.0328 N   0  0  0  0  0  0  0  0  0  0  0  0
    8.3720  -14.1570   21.8422 C   0  0  0  0  0  0  0  0  0  0  0  0
    9.5595  -13.8266   22.0933 O   0  0  0  0  0  0  0  0  0  0  0  0
    9.6128  -17.8036   15.5179 N   0  0  0  0  0  0  0  0  0  0  0  0
    7.6807  -14.8727   22.8382 C   0  0  1  0  0  0  0  0  0  0  0  0
    8.2591  -15.2239   24.1224 C   0  0  0  0  0  0  0  0  0  0  0  0
    7.2926  -15.0771   25.2492 C   0  0  0  0  0  0  0  0  0  0  0  0
    6.9962  -13.6734   25.6066 C   0  0  0  0  0  0  0  0  0  0  0  0
    5.8714  -12.9798   25.2999 C   0  0  0  0  0  0  0  0  0  0  0  0
    5.7353  -11.6498   25.7096 C   0  0  0  0  0  0  0  0  0  0  0  0
    6.7198  -11.0128   26.4244 C   0  0  0  0  0  0  0  0  0  0  0  0
    7.8763  -11.7055   26.7471 C   0  0  0  0  0  0  0  0  0  0  0  0
    7.9859  -13.0057   26.3349 C   0  0  0  0  0  0  0  0  0  0  0  0
    8.9456  -16.5238   24.0373 O   0  0  0  0  0  0  0  0  0  0  0  0
    8.2949  -17.5349   23.7143 O   0  0  0  0  0  0  0  0  0  0  0  0
   12.9713  -16.5010   24.2028 C   0  0  0  0  0  0  0  0  0  0  0  0
   12.4388  -17.6537   23.6209 C   0  0  1  0  0  0  0  0  0  0  0  0
   11.0737  -17.8641   24.2423 N   0  0  0  0  0  0  0  0  0  0  0  0
   10.3162  -16.6362   24.3115 C   0  0  0  0  0  0  0  0  0  0  0  0
   11.3190  -18.3450   25.6141 O   0  0  0  0  0  0  0  0  0  0  0  0
   12.0267  -19.5021   25.8677 O   0  0  0  0  0  0  0  0  0  0  0  0
  1  2  1  0
  2  3  2  0
  4  2  1  0
  4  5  1  0
  6  5  1  0
  7  6  1  0
  8  7  1  0
  8  9  1  6
 10 11  2  0
 10  8  1  0
 12 10  1  0
 13 12  1  0
 13 14  1  1
 15 14  1  0
 15 16  2  0
 17 16  1  0
 18 17  2  0
 19 20  2  0
 19 18  1  0
 20 15  1  0
 21 13  1  0
 21 26  1  0
 22 21  2  0
 23 24  1  0
 25 24  1  6
 25 26  1  0
 25 27  1  0
 27 29  2  0
 27 28  1  0
M  END
$$$$
