RFS.pdb
     RDKit          3D

 29 29  0  0  1  0  0  0  0  0999 V2000
    8.6750  -12.9095   15.7286 N   0  0  0  0  0  0  0  0  0  0  0  0
    8.1789  -14.2165   15.9499 C   0  0  0  0  0  0  0  0  0  0  0  0
    7.0220  -14.5628   15.4768 N   0  0  0  0  0  0  0  0  0  0  0  0
    8.9303  -15.1737   16.6899 N   0  0  0  0  0  0  0  0  0  0  0  0
   10.2186  -14.8331   17.2894 C   0  0  0  0  0  0  0  0  0  0  0  0
   10.7070  -16.0234   18.0758 C   0  0  0  0  0  0  0  0  0  0  0  0
   11.0509  -15.6845   19.5027 C   0  0  0  0  0  0  0  0  0  0  0  0
   10.3106  -16.5582   20.4863 C   0  0  2  0  0  0  0  0  0  0  0  0
    9.0610  -16.9426   19.8640 N   0  0  0  0  0  0  0  0  0  0  0  0
   10.0681  -15.8803   21.7720 C   0  0  0  0  0  0  0  0  0  0  0  0
   11.0604  -15.4727   22.4289 O   0  0  0  0  0  0  0  0  0  0  0  0
    6.6433  -15.5131   15.5914 N   0  0  0  0  0  0  0  0  0  0  0  0
    8.7941  -15.6524   22.3262 C   0  0  2  0  0  0  0  0  0  0  0  0
    8.5810  -15.0341   23.6221 C   0  0  0  0  0  0  0  0  0  0  0  0
    7.5035  -14.0027   23.5983 C   0  0  0  0  0  0  0  0  0  0  0  0
    7.1927  -13.4289   24.9250 C   0  0  0  0  0  0  0  0  0  0  0  0
    6.2454  -13.8632   25.7936 C   0  0  0  0  0  0  0  0  0  0  0  0
    6.0680  -13.2132   27.0188 C   0  0  0  0  0  0  0  0  0  0  0  0
    6.8346  -12.1315   27.3771 C   0  0  0  0  0  0  0  0  0  0  0  0
    7.8076  -11.6735   26.5025 C   0  0  0  0  0  0  0  0  0  0  0  0
    7.9619  -12.3261   25.3098 C   0  0  0  0  0  0  0  0  0  0  0  0
    8.4541  -16.0638   24.6669 O   0  0  0  0  0  0  0  0  0  0  0  0
    7.4066  -16.7333   24.7366 O   0  0  0  0  0  0  0  0  0  0  0  0
   11.8181  -17.4697   26.0584 C   0  0  0  0  0  0  0  0  0  0  0  0
   10.7203  -18.2997   26.2963 C   0  0  1  0  0  0  0  0  0  0  0  0
    9.5295  -17.3918   26.5236 N   0  0  0  0  0  0  0  0  0  0  0  0
    9.4934  -16.3006   25.5779 C   0  0  0  0  0  0  0  0  0  0  0  0
    9.6922  -16.8362   27.8793 O   0  0  0  0  0  0  0  0  0  0  0  0
    9.7836  -15.4783   28.1069 O   0  0  0  0  0  0  0  0  0  0  0  0
  1  2  1  0
  2  3  2  0
  4  2  1  0
  4  5  1  0
  6  5  1  0
  7  6  1  0
  8  7  1  0
  8  9  1  6
 10 11  2  0
 10  8  1  0
 12 10  1  0
 13 12  1  0
 13 14  1  6
 15 14  1  0
 15 16  2  0
 17 16  1  0
 18 17  2  0
 19 20  2  0
 19 18  1  0
 20 15  1  0
 21 13  1  0
 21 26  1  0
 22 21  2  0
 23 24  1  0
 25 24  1  6
 25 26  1  0
 25 27  1  0
 27 29  2  0
 27 28  1  0
M  END
$$$$
