RFS.pdb
     RDKit          3D

 29 29  0  0  1  0  0  0  0  0999 V2000
    8.5852  -15.4730   14.4950 N   0  0  0  0  0  0  0  0  0  0  0  0
    8.2526  -14.1074   14.6620 C   0  0  0  0  0  0  0  0  0  0  0  0
    8.2387  -13.3107   13.6386 N   0  0  0  0  0  0  0  0  0  0  0  0
    7.9283  -13.5802   15.9447 N   0  0  0  0  0  0  0  0  0  0  0  0
    7.8045  -14.4456   17.1155 C   0  0  0  0  0  0  0  0  0  0  0  0
    9.1840  -14.9038   17.5165 C   0  0  0  0  0  0  0  0  0  0  0  0
    9.5464  -14.5144   18.9258 C   0  0  0  0  0  0  0  0  0  0  0  0
    9.1010  -15.5486   19.9312 C   0  0  2  0  0  0  0  0  0  0  0  0
    7.7329  -15.8981   19.6110 N   0  0  0  0  0  0  0  0  0  0  0  0
    9.2069  -15.0677   21.3201 C   0  0  0  0  0  0  0  0  0  0  0  0
   10.3530  -14.8533   21.7923 O   0  0  0  0  0  0  0  0  0  0  0  0
    7.9432  -12.3274   13.7116 N   0  0  0  0  0  0  0  0  0  0  0  0
    8.1085  -14.8275   22.1674 C   0  0  1  0  0  0  0  0  0  0  0  0
    8.2378  -14.4758   23.5697 C   0  0  0  0  0  0  0  0  0  0  0  0
    7.2836  -13.4076   23.9864 C   0  0  0  0  0  0  0  0  0  0  0  0
    7.3380  -13.0832   25.4278 C   0  0  0  0  0  0  0  0  0  0  0  0
    8.4438  -12.7601   26.1441 C   0  0  0  0  0  0  0  0  0  0  0  0
    8.3359  -12.4771   27.5092 C   0  0  0  0  0  0  0  0  0  0  0  0
    7.1265  -12.5163   28.1588 C   0  0  0  0  0  0  0  0  0  0  0  0
    5.9855  -12.8445   27.4432 C   0  0  0  0  0  0  0  0  0  0  0  0
    6.1170  -13.1172   26.1088 C   0  0  0  0  0  0  0  0  0  0  0  0
    8.2401  -15.6888   24.4045 O   0  0  0  0  0  0  0  0  0  0  0  0
    7.2267  -16.4117   24.4291 O   0  0  0  0  0  0  0  0  0  0  0  0
   10.6280  -19.3348   26.0295 C   0  0  0  0  0  0  0  0  0  0  0  0
   10.5456  -18.1883   25.2359 C   0  0  1  0  0  0  0  0  0  0  0  0
    9.5190  -17.2832   25.8843 N   0  0  0  0  0  0  0  0  0  0  0  0
    9.3641  -16.0396   25.1660 C   0  0  0  0  0  0  0  0  0  0  0  0
   10.0302  -16.9873   27.2350 O   0  0  0  0  0  0  0  0  0  0  0  0
    9.8558  -17.8592   28.2901 O   0  0  0  0  0  0  0  0  0  0  0  0
  1  2  1  0
  2  3  2  0
  4  2  1  0
  4  5  1  0
  6  5  1  0
  7  6  1  0
  8  7  1  0
  8  9  1  6
 10 11  2  0
 10  8  1  0
 12 10  1  0
 13 12  1  0
 13 14  1  1
 15 14  1  0
 15 16  2  0
 17 16  1  0
 18 17  2  0
 19 20  2  0
 19 18  1  0
 20 15  1  0
 21 13  1  0
 21 26  1  0
 22 21  2  0
 23 24  1  0
 25 24  1  6
 25 26  1  0
 25 27  1  0
 27 29  2  0
 27 28  1  0
M  END
$$$$
