RFS.pdb
     RDKit          3D

 29 29  0  0  1  0  0  0  0  0999 V2000
    9.6918  -17.8336   15.2240 N   0  0  0  0  0  0  0  0  0  0  0  0
    8.7015  -16.8874   14.8673 C   0  0  0  0  0  0  0  0  0  0  0  0
    8.7555  -16.2902   13.7173 N   0  0  0  0  0  0  0  0  0  0  0  0
    7.6324  -16.5710   15.7536 N   0  0  0  0  0  0  0  0  0  0  0  0
    7.5429  -15.2661   16.4050 C   0  0  0  0  0  0  0  0  0  0  0  0
    8.8409  -15.0047   17.1267 C   0  0  0  0  0  0  0  0  0  0  0  0
    8.7335  -15.1948   18.6172 C   0  0  0  0  0  0  0  0  0  0  0  0
    8.1330  -13.9896   19.2997 C   0  0  2  0  0  0  0  0  0  0  0  0
    8.6690  -12.8141   18.6462 N   0  0  0  0  0  0  0  0  0  0  0  0
    8.4170  -13.9601   20.7454 C   0  0  0  0  0  0  0  0  0  0  0  0
    9.5989  -14.1615   21.1262 O   0  0  0  0  0  0  0  0  0  0  0  0
    8.1059  -15.5346   13.4593 N   0  0  0  0  0  0  0  0  0  0  0  0
    7.4532  -13.7206   21.7433 C   0  0  2  0  0  0  0  0  0  0  0  0
    7.7459  -13.7450   23.1648 C   0  0  0  0  0  0  0  0  0  0  0  0
    6.8721  -12.8249   23.9490 C   0  0  0  0  0  0  0  0  0  0  0  0
    7.1422  -12.8343   25.4026 C   0  0  0  0  0  0  0  0  0  0  0  0
    8.3561  -12.9321   26.0002 C   0  0  0  0  0  0  0  0  0  0  0  0
    8.4523  -12.9277   27.3952 C   0  0  0  0  0  0  0  0  0  0  0  0
    7.3390  -12.8258   28.1928 C   0  0  0  0  0  0  0  0  0  0  0  0
    6.0900  -12.7249   27.6001 C   0  0  0  0  0  0  0  0  0  0  0  0
    6.0220  -12.7315   26.2335 C   0  0  0  0  0  0  0  0  0  0  0  0
    7.8083  -15.1333   23.6517 O   0  0  0  0  0  0  0  0  0  0  0  0
    6.8166  -15.8725   23.5095 O   0  0  0  0  0  0  0  0  0  0  0  0
   11.1534  -17.0451   23.7005 C   0  0  0  0  0  0  0  0  0  0  0  0
   10.0292  -17.8236   23.9852 C   0  0  1  0  0  0  0  0  0  0  0  0
    9.1015  -16.9611   24.8154 N   0  0  0  0  0  0  0  0  0  0  0  0
    8.9652  -15.6314   24.2679 C   0  0  0  0  0  0  0  0  0  0  0  0
    9.7212  -16.8609   26.1492 O   0  0  0  0  0  0  0  0  0  0  0  0
    9.9504  -17.9722   26.9343 O   0  0  0  0  0  0  0  0  0  0  0  0
  1  2  1  0
  2  3  2  0
  4  2  1  0
  4  5  1  0
  6  5  1  0
  7  6  1  0
  8  7  1  0
  8  9  1  6
 10 11  2  0
 10  8  1  0
 12 10  1  0
 13 12  1  0
 13 14  1  6
 15 14  1  0
 15 16  2  0
 17 16  1  0
 18 17  2  0
 19 20  2  0
 19 18  1  0
 20 15  1  0
 21 13  1  0
 21 26  1  0
 22 21  2  0
 23 24  1  0
 25 24  1  6
 25 26  1  0
 25 27  1  0
 27 29  2  0
 27 28  1  0
M  END
$$$$
