RFS.pdb
     RDKit          3D

 29 29  0  0  1  0  0  0  0  0999 V2000
    7.9997  -15.4081   17.0049 N   0  0  0  0  0  0  0  0  0  0  0  0
    8.3383  -14.1068   16.5631 C   0  0  0  0  0  0  0  0  0  0  0  0
    8.8627  -13.9332   15.3896 N   0  0  0  0  0  0  0  0  0  0  0  0
    8.1138  -12.9676   17.3880 N   0  0  0  0  0  0  0  0  0  0  0  0
    8.7815  -12.8178   18.6791 C   0  0  0  0  0  0  0  0  0  0  0  0
    7.7345  -12.8562   19.7635 C   0  0  0  0  0  0  0  0  0  0  0  0
    8.3000  -13.2085   21.1145 C   0  0  0  0  0  0  0  0  0  0  0  0
    8.3531  -14.7011   21.3343 C   0  0  2  0  0  0  0  0  0  0  0  0
    7.0776  -15.2429   20.9146 N   0  0  0  0  0  0  0  0  0  0  0  0
    8.6364  -15.0553   22.7363 C   0  0  0  0  0  0  0  0  0  0  0  0
    9.7408  -14.7085   23.2286 O   0  0  0  0  0  0  0  0  0  0  0  0
    9.1991  -13.0150   15.0683 N   0  0  0  0  0  0  0  0  0  0  0  0
    7.7530  -15.7608   23.5753 C   0  0  1  0  0  0  0  0  0  0  0  0
    8.0136  -16.0195   24.9797 C   0  0  0  0  0  0  0  0  0  0  0  0
    6.8850  -15.6025   25.8616 C   0  0  0  0  0  0  0  0  0  0  0  0
    6.8861  -14.1626   26.1971 C   0  0  0  0  0  0  0  0  0  0  0  0
    7.9032  -13.4627   26.7593 C   0  0  0  0  0  0  0  0  0  0  0  0
    7.7538  -12.0968   27.0189 C   0  0  0  0  0  0  0  0  0  0  0  0
    6.5915  -11.4301   26.7181 C   0  0  0  0  0  0  0  0  0  0  0  0
    5.5412  -12.1287   26.1431 C   0  0  0  0  0  0  0  0  0  0  0  0
    5.7117  -13.4642   25.8989 C   0  0  0  0  0  0  0  0  0  0  0  0
    8.4917  -17.3996   25.1668 O   0  0  0  0  0  0  0  0  0  0  0  0
    7.7369  -18.3482   24.8826 O   0  0  0  0  0  0  0  0  0  0  0  0
   12.3284  -18.2715   25.2258 C   0  0  0  0  0  0  0  0  0  0  0  0
   11.4855  -19.3833   25.2920 C   0  0  1  0  0  0  0  0  0  0  0  0
   10.2604  -18.9547   26.0726 N   0  0  0  0  0  0  0  0  0  0  0  0
    9.7802  -17.6577   25.6558 C   0  0  0  0  0  0  0  0  0  0  0  0
   10.6830  -18.8706   27.4824 O   0  0  0  0  0  0  0  0  0  0  0  0
   11.2029  -19.9569   28.1559 O   0  0  0  0  0  0  0  0  0  0  0  0
  1  2  1  0
  2  3  2  0
  4  2  1  0
  4  5  1  0
  6  5  1  0
  7  6  1  0
  8  7  1  0
  8  9  1  1
 10 11  2  0
 10  8  1  0
 12 10  1  0
 13 12  1  0
 13 14  1  1
 15 14  1  0
 15 16  2  0
 17 16  1  0
 18 17  2  0
 19 20  2  0
 19 18  1  0
 20 15  1  0
 21 13  1  0
 21 26  1  0
 22 21  2  0
 23 24  1  0
 25 24  1  6
 25 26  1  0
 25 27  1  0
 27 29  2  0
 27 28  1  0
M  END
$$$$
