RFS.pdb
     RDKit          3D

 29 29  0  0  1  0  0  0  0  0999 V2000
    7.0264  -12.9109   19.7465 N   0  0  0  0  0  0  0  0  0  0  0  0
    8.1598  -13.0676   18.9134 C   0  0  0  0  0  0  0  0  0  0  0  0
    8.9101  -12.0469   18.6356 N   0  0  0  0  0  0  0  0  0  0  0  0
    8.5006  -14.3372   18.3652 N   0  0  0  0  0  0  0  0  0  0  0  0
    8.1408  -15.5813   19.0420 C   0  0  0  0  0  0  0  0  0  0  0  0
    9.3372  -16.0601   19.8251 C   0  0  0  0  0  0  0  0  0  0  0  0
    9.2777  -15.6787   21.2812 C   0  0  0  0  0  0  0  0  0  0  0  0
    8.7544  -16.8043   22.1403 C   0  0  2  0  0  0  0  0  0  0  0  0
    7.3226  -16.8711   21.9360 N   0  0  0  0  0  0  0  0  0  0  0  0
    9.0714  -16.6191   23.5674 C   0  0  0  0  0  0  0  0  0  0  0  0
   10.2475  -16.3028   23.8821 O   0  0  0  0  0  0  0  0  0  0  0  0
    9.7264  -12.1180   18.0127 N   0  0  0  0  0  0  0  0  0  0  0  0
    8.1453  -16.7717   24.6168 C   0  0  1  0  0  0  0  0  0  0  0  0
    8.4774  -16.5738   26.0160 C   0  0  0  0  0  0  0  0  0  0  0  0
    7.4030  -15.8632   26.7684 C   0  0  0  0  0  0  0  0  0  0  0  0
    7.1943  -14.4640   26.3390 C   0  0  0  0  0  0  0  0  0  0  0  0
    6.1445  -13.9833   25.6268 C   0  0  0  0  0  0  0  0  0  0  0  0
    6.0870  -12.6265   25.2936 C   0  0  0  0  0  0  0  0  0  0  0  0
    7.0753  -11.7505   25.6703 C   0  0  0  0  0  0  0  0  0  0  0  0
    8.1558  -12.2235   26.3985 C   0  0  0  0  0  0  0  0  0  0  0  0
    8.1893  -13.5549   26.7122 C   0  0  0  0  0  0  0  0  0  0  0  0
    8.9474  -17.8343   26.6147 O   0  0  0  0  0  0  0  0  0  0  0  0
    8.1436  -18.7733   26.7637 O   0  0  0  0  0  0  0  0  0  0  0  0
   11.9581  -19.1892   25.5563 C   0  0  0  0  0  0  0  0  0  0  0  0
   12.0615  -19.6725   26.8628 C   0  0  2  0  0  0  0  0  0  0  0  0
   10.8325  -19.1889   27.6041 N   0  0  0  0  0  0  0  0  0  0  0  0
   10.2823  -17.9904   27.0147 C   0  0  0  0  0  0  0  0  0  0  0  0
   11.2777  -18.8790   28.9748 O   0  0  0  0  0  0  0  0  0  0  0  0
   11.8905  -19.8212   29.7752 O   0  0  0  0  0  0  0  0  0  0  0  0
  1  2  1  0
  2  3  2  0
  4  2  1  0
  4  5  1  0
  6  5  1  0
  7  6  1  0
  8  7  1  0
  8  9  1  1
 10 11  2  0
 10  8  1  0
 12 10  1  0
 13 12  1  0
 13 14  1  1
 15 14  1  0
 15 16  2  0
 17 16  1  0
 18 17  2  0
 19 20  2  0
 19 18  1  0
 20 15  1  0
 21 13  1  0
 21 26  1  0
 22 21  2  0
 23 24  1  0
 25 24  1  6
 25 26  1  0
 25 27  1  0
 27 29  2  0
 27 28  1  0
M  END
$$$$
