RFS.pdb
     RDKit          3D

 29 29  0  0  1  0  0  0  0  0999 V2000
    7.9105  -13.5673   14.8268 N   0  0  0  0  0  0  0  0  0  0  0  0
    7.8256  -13.3919   16.2287 C   0  0  0  0  0  0  0  0  0  0  0  0
    8.3953  -12.3726   16.7932 N   0  0  0  0  0  0  0  0  0  0  0  0
    7.1196  -14.3208   17.0455 N   0  0  0  0  0  0  0  0  0  0  0  0
    7.1104  -14.2021   18.5018 C   0  0  0  0  0  0  0  0  0  0  0  0
    8.5071  -14.4585   19.0089 C   0  0  0  0  0  0  0  0  0  0  0  0
    8.6113  -14.3808   20.5097 C   0  0  0  0  0  0  0  0  0  0  0  0
    8.7658  -15.7448   21.1378 C   0  0  2  0  0  0  0  0  0  0  0  0
    7.5598  -16.4912   20.8464 N   0  0  0  0  0  0  0  0  0  0  0  0
    8.9989  -15.6736   22.5911 C   0  0  0  0  0  0  0  0  0  0  0  0
    9.9755  -14.9987   23.0071 O   0  0  0  0  0  0  0  0  0  0  0  0
    8.4635  -12.2777   17.8158 N   0  0  0  0  0  0  0  0  0  0  0  0
    8.2009  -16.3119   23.5595 C   0  0  1  0  0  0  0  0  0  0  0  0
    8.4229  -16.1919   24.9890 C   0  0  0  0  0  0  0  0  0  0  0  0
    7.2331  -15.6594   25.7143 C   0  0  0  0  0  0  0  0  0  0  0  0
    7.2629  -14.1960   25.9230 C   0  0  0  0  0  0  0  0  0  0  0  0
    8.0218  -13.5214   26.8225 C   0  0  0  0  0  0  0  0  0  0  0  0
    7.9398  -12.1278   26.9027 C   0  0  0  0  0  0  0  0  0  0  0  0
    7.1018  -11.4083   26.0866 C   0  0  0  0  0  0  0  0  0  0  0  0
    6.3185  -12.0804   25.1612 C   0  0  0  0  0  0  0  0  0  0  0  0
    6.4166  -13.4438   25.1020 C   0  0  0  0  0  0  0  0  0  0  0  0
    8.9905  -17.4399   25.5263 O   0  0  0  0  0  0  0  0  0  0  0  0
    8.2758  -18.4578   25.5826 O   0  0  0  0  0  0  0  0  0  0  0  0
   12.7424  -17.5859   25.5001 C   0  0  0  0  0  0  0  0  0  0  0  0
   12.3979  -18.7912   26.1162 C   0  0  1  0  0  0  0  0  0  0  0  0
   10.9496  -18.6644   26.5408 N   0  0  0  0  0  0  0  0  0  0  0  0
   10.3193  -17.4967   25.9705 C   0  0  0  0  0  0  0  0  0  0  0  0
   10.9650  -18.5232   28.0082 O   0  0  0  0  0  0  0  0  0  0  0  0
   11.5079  -19.4893   28.8301 O   0  0  0  0  0  0  0  0  0  0  0  0
  1  2  1  0
  2  3  2  0
  4  2  1  0
  4  5  1  0
  6  5  1  0
  7  6  1  0
  8  7  1  0
  8  9  1  1
 10 11  2  0
 10  8  1  0
 12 10  1  0
 13 12  1  0
 13 14  1  1
 15 14  1  0
 15 16  2  0
 17 16  1  0
 18 17  2  0
 19 20  2  0
 19 18  1  0
 20 15  1  0
 21 13  1  0
 21 26  1  0
 22 21  2  0
 23 24  1  0
 25 24  1  6
 25 26  1  0
 25 27  1  0
 27 29  2  0
 27 28  1  0
M  END
$$$$
