TVQ.pdb
     RDKit          3D

 24 23  0  0  1  0  0  0  0  0999 V2000
    6.3013  -16.6793   20.3668 C   0  0  0  0  0  0  0  0  0  0  0  0
    7.0270  -16.3168   21.6481 C   0  0  1  0  0  0  0  0  0  0  0  0
    8.0491  -17.1914   21.9372 O   0  0  0  0  0  0  0  0  0  0  0  0
    7.4857  -14.8779   21.6268 C   0  0  2  0  0  0  0  0  0  0  0  0
    8.3527  -14.6687   20.4862 N   0  0  0  0  0  0  0  0  0  0  0  0
    8.1468  -14.4428   22.8558 C   0  0  0  0  0  0  0  0  0  0  0  0
    9.4075  -14.4994   22.9277 O   0  0  0  0  0  0  0  0  0  0  0  0
    5.9656  -13.3102   26.2390 C   0  0  0  0  0  0  0  0  0  0  0  0
    7.3143  -12.6895   26.0595 C   0  0  1  0  0  0  0  0  0  0  0  0
    7.9504  -12.1490   27.2863 C   0  0  0  0  0  0  0  0  0  0  0  0
    8.2341  -13.5837   25.2183 C   0  0  2  0  0  0  0  0  0  0  0  0
    7.4805  -13.9513   24.0002 N   0  0  0  0  0  0  0  0  0  0  0  0
    8.5741  -14.7941   25.9633 C   0  0  0  0  0  0  0  0  0  0  0  0
    7.7771  -15.7779   26.0969 O   0  0  0  0  0  0  0  0  0  0  0  0
   13.2395  -18.5304   25.8704 N   0  0  0  0  0  0  0  0  0  0  0  0
   12.7009  -17.5878   24.9573 C   0  0  0  0  0  0  0  0  0  0  0  0
   13.0141  -17.7017   23.7504 O   0  0  0  0  0  0  0  0  0  0  0  0
   11.8123  -16.5317   25.4527 C   0  0  0  0  0  0  0  0  0  0  0  0
   11.5543  -16.5640   26.9184 C   0  0  0  0  0  0  0  0  0  0  0  0
   10.1943  -16.1249   27.3516 C   0  0  2  0  0  0  0  0  0  0  0  0
    9.8364  -14.9277   26.5819 N   0  0  0  0  0  0  0  0  0  0  0  0
   10.1355  -15.7657   28.7764 C   0  0  0  0  0  0  0  0  0  0  0  0
   10.2069  -16.7580   29.7313 O   0  0  0  0  0  0  0  0  0  0  0  0
   10.0215  -14.5742   29.1220 O   0  0  0  0  0  0  0  0  0  0  0  0
  2  3  1  0
  2  1  1  6
  4  2  1  0
  4  5  1  6
  6 12  1  0
  6  4  1  0
  7  6  2  0
  9  8  1  1
  9 11  1  0
  9 10  1  0
 11 12  1  6
 13 11  1  0
 14 13  2  0
 16 17  2  0
 16 15  1  0
 18 16  1  0
 19 18  1  0
 20 21  1  0
 20 19  1  6
 21 13  1  0
 22 20  1  0
 23 22  1  0
 24 22  2  0
M  END
$$$$
