TVQ.pdb
     RDKit          3D

 24 23  0  0  1  0  0  0  0  0999 V2000
    6.4584  -10.6260   26.6533 C   0  0  0  0  0  0  0  0  0  0  0  0
    7.1555  -11.8509   26.0935 C   0  0  1  0  0  0  0  0  0  0  0  0
    7.9666  -12.4626   27.0215 O   0  0  0  0  0  0  0  0  0  0  0  0
    6.1643  -12.8064   25.4724 C   0  0  2  0  0  0  0  0  0  0  0  0
    5.2534  -13.2814   26.4926 N   0  0  0  0  0  0  0  0  0  0  0  0
    6.7782  -13.9336   24.7729 C   0  0  0  0  0  0  0  0  0  0  0  0
    6.9207  -15.0311   25.3838 O   0  0  0  0  0  0  0  0  0  0  0  0
    8.6842  -13.4674   21.0815 C   0  0  0  0  0  0  0  0  0  0  0  0
    8.0406  -14.7934   21.3351 C   0  0  1  0  0  0  0  0  0  0  0  0
    8.5703  -15.9349   20.5488 C   0  0  0  0  0  0  0  0  0  0  0  0
    7.9106  -15.0737   22.8377 C   0  0  2  0  0  0  0  0  0  0  0  0
    7.2379  -13.9014   23.4377 N   0  0  0  0  0  0  0  0  0  0  0  0
    9.2354  -15.2320   23.4342 C   0  0  0  0  0  0  0  0  0  0  0  0
   10.0014  -14.2509   23.7021 O   0  0  0  0  0  0  0  0  0  0  0  0
   12.2397  -16.7426   29.1694 N   0  0  0  0  0  0  0  0  0  0  0  0
   11.1466  -16.9688   28.2942 C   0  0  0  0  0  0  0  0  0  0  0  0
   10.0036  -16.6524   28.6961 O   0  0  0  0  0  0  0  0  0  0  0  0
   11.3913  -17.5559   26.9729 C   0  0  0  0  0  0  0  0  0  0  0  0
   10.3624  -17.2396   25.9447 C   0  0  0  0  0  0  0  0  0  0  0  0
   10.8768  -16.6970   24.6520 C   0  0  2  0  0  0  0  0  0  0  0  0
    9.7345  -16.5149   23.7486 N   0  0  0  0  0  0  0  0  0  0  0  0
   11.8236  -17.6044   23.9865 C   0  0  0  0  0  0  0  0  0  0  0  0
   13.1500  -17.5987   24.3634 O   0  0  0  0  0  0  0  0  0  0  0  0
   11.4335  -18.3739   23.0877 O   0  0  0  0  0  0  0  0  0  0  0  0
  2  3  1  0
  2  1  1  1
  4  2  1  0
  4  5  1  1
  6 12  1  0
  6  4  1  0
  7  6  2  0
  9  8  1  1
  9 11  1  0
  9 10  1  0
 11 12  1  1
 13 11  1  0
 14 13  2  0
 16 17  2  0
 16 15  1  0
 18 16  1  0
 19 18  1  0
 20 21  1  0
 20 19  1  1
 21 13  1  0
 22 20  1  0
 23 22  1  0
 24 22  2  0
M  END
$$$$
