TVQ.pdb
     RDKit          3D

 24 23  0  0  1  0  0  0  0  0999 V2000
    6.7360  -19.3275   16.8573 C   0  0  0  0  0  0  0  0  0  0  0  0
    7.6067  -18.5895   17.8557 C   0  0  1  0  0  0  0  0  0  0  0  0
    8.7966  -19.2380   18.0938 O   0  0  0  0  0  0  0  0  0  0  0  0
    7.8047  -17.1491   17.4468 C   0  0  2  0  0  0  0  0  0  0  0  0
    8.4240  -17.1036   16.1388 N   0  0  0  0  0  0  0  0  0  0  0  0
    8.5755  -16.3566   18.4031 C   0  0  0  0  0  0  0  0  0  0  0  0
    9.8229  -16.2369   18.2367 O   0  0  0  0  0  0  0  0  0  0  0  0
    7.5591  -12.8091   19.9316 C   0  0  0  0  0  0  0  0  0  0  0  0
    7.9971  -13.7685   20.9920 C   0  0  1  0  0  0  0  0  0  0  0  0
    6.9347  -14.2600   21.9039 C   0  0  0  0  0  0  0  0  0  0  0  0
    8.8870  -14.8752   20.4120 C   0  0  2  0  0  0  0  0  0  0  0  0
    8.0322  -15.6953   19.5267 N   0  0  0  0  0  0  0  0  0  0  0  0
    9.4138  -15.7105   21.4893 C   0  0  0  0  0  0  0  0  0  0  0  0
    8.8746  -16.8062   21.8495 O   0  0  0  0  0  0  0  0  0  0  0  0
   16.0875  -17.0409   24.4239 N   0  0  0  0  0  0  0  0  0  0  0  0
   15.1270  -16.3654   23.6281 C   0  0  0  0  0  0  0  0  0  0  0  0
   15.5319  -15.4434   22.8840 O   0  0  0  0  0  0  0  0  0  0  0  0
   13.7181  -16.7649   23.7056 C   0  0  0  0  0  0  0  0  0  0  0  0
   12.7860  -15.9422   22.8868 C   0  0  0  0  0  0  0  0  0  0  0  0
   11.3377  -16.2871   23.0024 C   0  0  2  0  0  0  0  0  0  0  0  0
   10.5758  -15.3278   22.1942 N   0  0  0  0  0  0  0  0  0  0  0  0
   10.8359  -16.1965   24.3818 C   0  0  0  0  0  0  0  0  0  0  0  0
   11.0884  -17.2241   25.2660 O   0  0  0  0  0  0  0  0  0  0  0  0
   10.1863  -15.2000   24.7521 O   0  0  0  0  0  0  0  0  0  0  0  0
  2  3  1  0
  2  1  1  6
  4  2  1  0
  4  5  1  6
  6 12  1  0
  6  4  1  0
  7  6  2  0
  9  8  1  6
  9 11  1  0
  9 10  1  0
 11 12  1  6
 13 11  1  0
 14 13  2  0
 16 17  2  0
 16 15  1  0
 18 16  1  0
 19 18  1  0
 20 21  1  0
 20 19  1  1
 21 13  1  0
 22 20  1  0
 23 22  1  0
 24 22  2  0
M  END
$$$$
