TVQ.pdb
     RDKit          3D

 24 23  0  0  1  0  0  0  0  0999 V2000
    8.4014  -19.4821   19.1159 C   0  0  0  0  0  0  0  0  0  0  0  0
    8.8332  -18.9956   17.7460 C   0  0  1  0  0  0  0  0  0  0  0  0
    8.4804  -19.8698   16.7438 O   0  0  0  0  0  0  0  0  0  0  0  0
    8.3435  -17.5905   17.4868 C   0  0  2  0  0  0  0  0  0  0  0  0
    8.7085  -17.1968   16.1421 N   0  0  0  0  0  0  0  0  0  0  0  0
    8.8201  -16.6032   18.4537 C   0  0  0  0  0  0  0  0  0  0  0  0
   10.0454  -16.2927   18.4605 O   0  0  0  0  0  0  0  0  0  0  0  0
    7.8424  -13.5313   22.2572 C   0  0  0  0  0  0  0  0  0  0  0  0
    7.4793  -14.1605   20.9500 C   0  0  1  0  0  0  0  0  0  0  0  0
    6.9184  -13.2487   19.9224 C   0  0  0  0  0  0  0  0  0  0  0  0
    8.6029  -15.0695   20.4355 C   0  0  2  0  0  0  0  0  0  0  0  0
    8.0079  -15.9488   19.4062 N   0  0  0  0  0  0  0  0  0  0  0  0
    9.1267  -15.8859   21.5286 C   0  0  0  0  0  0  0  0  0  0  0  0
    8.5457  -16.9351   21.9559 O   0  0  0  0  0  0  0  0  0  0  0  0
   15.7757  -17.0479   24.5234 N   0  0  0  0  0  0  0  0  0  0  0  0
   14.8638  -16.8263   23.4596 C   0  0  0  0  0  0  0  0  0  0  0  0
   15.3288  -16.4272   22.3677 O   0  0  0  0  0  0  0  0  0  0  0  0
   13.4336  -17.0681   23.6747 C   0  0  0  0  0  0  0  0  0  0  0  0
   12.5244  -16.2771   22.8009 C   0  0  0  0  0  0  0  0  0  0  0  0
   11.0623  -16.4933   23.0146 C   0  0  2  0  0  0  0  0  0  0  0  0
   10.3335  -15.5367   22.1733 N   0  0  0  0  0  0  0  0  0  0  0  0
   10.6466  -16.2615   24.4060 C   0  0  0  0  0  0  0  0  0  0  0  0
   10.8533  -17.2448   25.3503 O   0  0  0  0  0  0  0  0  0  0  0  0
   10.1105  -15.1854   24.7327 O   0  0  0  0  0  0  0  0  0  0  0  0
  2  3  1  0
  2  1  1  1
  4  2  1  0
  4  5  1  6
  6 12  1  0
  6  4  1  0
  7  6  2  0
  9  8  1  1
  9 11  1  0
  9 10  1  0
 11 12  1  6
 13 11  1  0
 14 13  2  0
 16 17  2  0
 16 15  1  0
 18 16  1  0
 19 18  1  0
 20 21  1  0
 20 19  1  1
 21 13  1  0
 22 20  1  0
 23 22  1  0
 24 22  2  0
M  END
$$$$
