TVQ.pdb
     RDKit          3D

 24 23  0  0  1  0  0  0  0  0999 V2000
    6.0121  -15.7985   19.8234 C   0  0  0  0  0  0  0  0  0  0  0  0
    6.6722  -15.6340   21.1787 C   0  0  1  0  0  0  0  0  0  0  0  0
    7.6279  -16.5948   21.4166 O   0  0  0  0  0  0  0  0  0  0  0  0
    7.2039  -14.2320   21.3598 C   0  0  2  0  0  0  0  0  0  0  0  0
    8.1302  -13.9292   20.2890 N   0  0  0  0  0  0  0  0  0  0  0  0
    7.8310  -13.9934   22.6585 C   0  0  0  0  0  0  0  0  0  0  0  0
    9.0889  -14.0715   22.7563 O   0  0  0  0  0  0  0  0  0  0  0  0
    7.4433  -12.9203   27.5134 C   0  0  0  0  0  0  0  0  0  0  0  0
    6.9581  -12.8179   26.1024 C   0  0  1  0  0  0  0  0  0  0  0  0
    6.6595  -11.4487   25.6146 C   0  0  0  0  0  0  0  0  0  0  0  0
    7.8292  -13.6469   25.1499 C   0  0  2  0  0  0  0  0  0  0  0  0
    7.1340  -13.6746   23.8450 N   0  0  0  0  0  0  0  0  0  0  0  0
    7.9672  -15.0108   25.6563 C   0  0  0  0  0  0  0  0  0  0  0  0
    6.9903  -15.8219   25.7505 O   0  0  0  0  0  0  0  0  0  0  0  0
   11.3078  -17.8104   22.9006 N   0  0  0  0  0  0  0  0  0  0  0  0
   12.1353  -17.3814   23.9698 C   0  0  0  0  0  0  0  0  0  0  0  0
   13.3108  -17.0463   23.6982 O   0  0  0  0  0  0  0  0  0  0  0  0
   11.5927  -17.3477   25.3317 C   0  0  0  0  0  0  0  0  0  0  0  0
   10.1335  -17.6236   25.4336 C   0  0  0  0  0  0  0  0  0  0  0  0
    9.4040  -16.8896   26.5102 C   0  0  2  0  0  0  0  0  0  0  0  0
    9.2246  -15.5004   26.0723 N   0  0  0  0  0  0  0  0  0  0  0  0
   10.1412  -16.8581   27.7823 C   0  0  0  0  0  0  0  0  0  0  0  0
   10.6186  -15.6567   28.2620 O   0  0  0  0  0  0  0  0  0  0  0  0
   10.3353  -17.9079   28.4245 O   0  0  0  0  0  0  0  0  0  0  0  0
  2  3  1  0
  2  1  1  6
  4  2  1  0
  4  5  1  6
  6 12  1  0
  6  4  1  0
  7  6  2  0
  9  8  1  1
  9 11  1  0
  9 10  1  0
 11 12  1  6
 13 11  1  0
 14 13  2  0
 16 17  2  0
 16 15  1  0
 18 16  1  0
 19 18  1  0
 20 21  1  0
 20 19  1  6
 21 13  1  0
 22 20  1  0
 23 22  1  0
 24 22  2  0
M  END
$$$$
