TVQ.pdb
     RDKit          3D

 24 23  0  0  1  0  0  0  0  0999 V2000
    7.7895  -19.2303   19.2422 C   0  0  0  0  0  0  0  0  0  0  0  0
    8.2432  -18.7967   17.8617 C   0  0  1  0  0  0  0  0  0  0  0  0
    7.7400  -19.6031   16.8669 O   0  0  0  0  0  0  0  0  0  0  0  0
    7.9489  -17.3343   17.6251 C   0  0  2  0  0  0  0  0  0  0  0  0
    8.2996  -16.9896   16.2633 N   0  0  0  0  0  0  0  0  0  0  0  0
    8.6102  -16.4314   18.5655 C   0  0  0  0  0  0  0  0  0  0  0  0
    9.8618  -16.2725   18.4868 O   0  0  0  0  0  0  0  0  0  0  0  0
    7.4359  -12.8117   19.9723 C   0  0  0  0  0  0  0  0  0  0  0  0
    7.7731  -13.7885   21.0534 C   0  0  1  0  0  0  0  0  0  0  0  0
    6.6292  -14.2997   21.8485 C   0  0  0  0  0  0  0  0  0  0  0  0
    8.7207  -14.8818   20.5438 C   0  0  2  0  0  0  0  0  0  0  0  0
    7.9538  -15.7019   19.5814 N   0  0  0  0  0  0  0  0  0  0  0  0
    9.1606  -15.7218   21.6559 C   0  0  0  0  0  0  0  0  0  0  0  0
    8.5693  -16.7974   21.9939 O   0  0  0  0  0  0  0  0  0  0  0  0
   15.4208  -17.7057   22.5773 N   0  0  0  0  0  0  0  0  0  0  0  0
   14.7940  -16.8850   23.5497 C   0  0  0  0  0  0  0  0  0  0  0  0
   15.5032  -16.0420   24.1448 O   0  0  0  0  0  0  0  0  0  0  0  0
   13.3620  -17.0520   23.8182 C   0  0  0  0  0  0  0  0  0  0  0  0
   12.4633  -16.2169   22.9752 C   0  0  0  0  0  0  0  0  0  0  0  0
   11.0014  -16.3495   23.2499 C   0  0  2  0  0  0  0  0  0  0  0  0
   10.2922  -15.3667   22.4222 N   0  0  0  0  0  0  0  0  0  0  0  0
   10.6552  -16.0750   24.6525 C   0  0  0  0  0  0  0  0  0  0  0  0
   10.9223  -17.0237   25.6170 O   0  0  0  0  0  0  0  0  0  0  0  0
   10.1237  -14.9941   24.9707 O   0  0  0  0  0  0  0  0  0  0  0  0
  2  3  1  0
  2  1  1  1
  4  2  1  0
  4  5  1  6
  6 12  1  0
  6  4  1  0
  7  6  2  0
  9  8  1  6
  9 11  1  0
  9 10  1  0
 11 12  1  6
 13 11  1  0
 14 13  2  0
 16 17  2  0
 16 15  1  0
 18 16  1  0
 19 18  1  0
 20 21  1  0
 20 19  1  1
 21 13  1  0
 22 20  1  0
 23 22  1  0
 24 22  2  0
M  END
$$$$
