TVQ.pdb
     RDKit          3D

 24 23  0  0  1  0  0  0  0  0999 V2000
    7.5110  -19.1884   19.2820 C   0  0  0  0  0  0  0  0  0  0  0  0
    8.2520  -18.9303   17.9844 C   0  0  1  0  0  0  0  0  0  0  0  0
    7.8716  -19.7934   16.9826 O   0  0  0  0  0  0  0  0  0  0  0  0
    8.1418  -17.4814   17.5722 C   0  0  2  0  0  0  0  0  0  0  0  0
    8.8166  -17.2914   16.3054 N   0  0  0  0  0  0  0  0  0  0  0  0
    8.6486  -16.5368   18.5660 C   0  0  0  0  0  0  0  0  0  0  0  0
    9.8938  -16.4751   18.7752 O   0  0  0  0  0  0  0  0  0  0  0  0
    7.7235  -13.1462   22.1091 C   0  0  0  0  0  0  0  0  0  0  0  0
    7.3999  -13.7887   20.7979 C   0  0  1  0  0  0  0  0  0  0  0  0
    7.0717  -12.8649   19.6840 C   0  0  0  0  0  0  0  0  0  0  0  0
    8.4278  -14.8681   20.4351 C   0  0  2  0  0  0  0  0  0  0  0  0
    7.8457  -15.6638   19.3330 N   0  0  0  0  0  0  0  0  0  0  0  0
    8.6702  -15.7358   21.5858 C   0  0  0  0  0  0  0  0  0  0  0  0
    7.8043  -16.5520   22.0385 O   0  0  0  0  0  0  0  0  0  0  0  0
   14.0577  -18.0658   22.1758 N   0  0  0  0  0  0  0  0  0  0  0  0
   12.9231  -18.7343   21.6486 C   0  0  0  0  0  0  0  0  0  0  0  0
   13.1201  -19.6402   20.8068 O   0  0  0  0  0  0  0  0  0  0  0  0
   11.5834  -18.3458   22.1008 C   0  0  0  0  0  0  0  0  0  0  0  0
   11.5527  -17.2382   23.0949 C   0  0  0  0  0  0  0  0  0  0  0  0
   10.2126  -16.6337   23.3574 C   0  0  2  0  0  0  0  0  0  0  0  0
    9.9098  -15.7058   22.2614 N   0  0  0  0  0  0  0  0  0  0  0  0
   10.1667  -15.8650   24.6101 C   0  0  0  0  0  0  0  0  0  0  0  0
    9.9454  -14.5046   24.5654 O   0  0  0  0  0  0  0  0  0  0  0  0
   10.3267  -16.4354   25.7061 O   0  0  0  0  0  0  0  0  0  0  0  0
  2  3  1  0
  2  1  1  1
  4  2  1  0
  4  5  1  6
  6 12  1  0
  6  4  1  0
  7  6  2  0
  9  8  1  1
  9 11  1  0
  9 10  1  0
 11 12  1  6
 13 11  1  0
 14 13  2  0
 16 17  2  0
 16 15  1  0
 18 16  1  0
 19 18  1  0
 20 21  1  0
 20 19  1  6
 21 13  1  0
 22 20  1  0
 23 22  1  0
 24 22  2  0
M  END
$$$$
