GMW.pdb
     RDKit          3D

 27 28  0  0  1  0  0  0  0  0999 V2000
    7.3962  -19.9585   20.1664 N   0  0  0  0  0  0  0  0  0  0  0  0
    6.6860  -18.8061   20.6818 C   0  0  0  0  0  0  0  0  0  0  0  0
    7.5311  -17.6124   20.4804 C   0  0  0  0  0  0  0  0  0  0  0  0
    7.6688  -17.1195   19.3481 O   0  0  0  0  0  0  0  0  0  0  0  0
    7.8056  -12.2066   18.2628 C   0  0  0  0  0  0  0  0  0  0  0  0
    8.2406  -13.0996   19.7569 S   0  0  0  0  0  0  0  0  0  0  0  0
    6.8972  -14.0526   20.4371 C   0  0  0  0  0  0  0  0  0  0  0  0
    7.1727  -14.7802   21.6975 C   0  0  0  0  0  0  0  0  0  0  0  0
    8.3927  -15.6213   21.7552 C   0  0  2  0  0  0  0  0  0  0  0  0
    8.1860  -17.0417   21.6263 N   0  0  0  0  0  0  0  0  0  0  0  0
    9.1995  -15.4001   23.0075 C   0  0  0  0  0  0  0  0  0  0  0  0
    9.8331  -14.3318   23.1580 O   0  0  0  0  0  0  0  0  0  0  0  0
    9.2530  -16.3909   24.0262 N   0  0  0  0  0  0  0  0  0  0  0  0
   10.0692  -16.2644   25.2289 C   0  0  1  0  0  0  0  0  0  0  0  0
    9.1060  -16.4278   26.3802 C   0  0  0  0  0  0  0  0  0  0  0  0
    7.9219  -15.5323   26.2563 C   0  0  0  0  0  0  0  0  0  0  0  0
    6.6460  -15.9870   25.9457 C   0  0  0  0  0  0  0  0  0  0  0  0
    5.7896  -14.9647   25.9517 N   0  0  0  0  0  0  0  0  0  0  0  0
    6.4824  -13.8564   26.2588 C   0  0  0  0  0  0  0  0  0  0  0  0
    6.0897  -12.5189   26.3919 C   0  0  0  0  0  0  0  0  0  0  0  0
    7.0239  -11.5612   26.7085 C   0  0  0  0  0  0  0  0  0  0  0  0
    8.3456  -11.9029   26.8968 C   0  0  0  0  0  0  0  0  0  0  0  0
    8.7562  -13.2224   26.7699 C   0  0  0  0  0  0  0  0  0  0  0  0
    7.8129  -14.1818   26.4527 C   0  0  0  0  0  0  0  0  0  0  0  0
   11.2281  -17.1347   25.2262 C   0  0  0  0  0  0  0  0  0  0  0  0
   11.4541  -18.0423   24.3921 O   0  0  0  0  0  0  0  0  0  0  0  0
   12.2116  -16.9879   26.2240 O   0  0  0  0  0  0  0  0  0  0  0  0
  2  1  1  0
  2  3  1  0
  3  4  2  0
  6  7  1  0
  6  5  1  0
  9  8  1  1
  8  7  1  0
 10  3  1  0
 10  9  1  0
 11  9  1  0
 11 12  2  0
 13 11  1  0
 14 13  1  0
 14 15  1  1
 16 15  1  0
 16 17  2  0
 18 17  1  0
 19 18  1  0
 20 19  2  0
 21 20  1  0
 22 21  2  0
 22 23  1  0
 23 24  2  0
 24 19  1  0
 24 16  1  0
 25 14  1  0
 26 25  2  0
 27 25  1  0
M  END
$$$$
