GMW.pdb
     RDKit          3D

 27 28  0  0  1  0  0  0  0  0999 V2000
    7.3671  -19.7727   20.1162 N   0  0  0  0  0  0  0  0  0  0  0  0
    7.2818  -18.9662   21.3162 C   0  0  0  0  0  0  0  0  0  0  0  0
    8.0893  -17.7469   21.1139 C   0  0  0  0  0  0  0  0  0  0  0  0
    9.0426  -17.7455   20.3170 O   0  0  0  0  0  0  0  0  0  0  0  0
    8.4446  -12.2945   18.3912 C   0  0  0  0  0  0  0  0  0  0  0  0
    6.8699  -12.7015   19.1484 S   0  0  0  0  0  0  0  0  0  0  0  0
    6.9112  -14.1890   20.1290 C   0  0  0  0  0  0  0  0  0  0  0  0
    7.7089  -14.1385   21.3760 C   0  0  0  0  0  0  0  0  0  0  0  0
    8.4908  -15.3438   21.7432 C   0  0  2  0  0  0  0  0  0  0  0  0
    7.7416  -16.5692   21.8621 N   0  0  0  0  0  0  0  0  0  0  0  0
    9.2695  -15.1717   23.0208 C   0  0  0  0  0  0  0  0  0  0  0  0
    9.8853  -14.1038   23.2342 O   0  0  0  0  0  0  0  0  0  0  0  0
    9.3163  -16.2086   23.9927 N   0  0  0  0  0  0  0  0  0  0  0  0
   10.1401  -16.1471   25.1953 C   0  0  1  0  0  0  0  0  0  0  0  0
    9.1706  -16.2696   26.3464 C   0  0  0  0  0  0  0  0  0  0  0  0
    7.9693  -15.4072   26.1659 C   0  0  0  0  0  0  0  0  0  0  0  0
    6.7259  -15.8953   25.7826 C   0  0  0  0  0  0  0  0  0  0  0  0
    5.8409  -14.8982   25.7508 N   0  0  0  0  0  0  0  0  0  0  0  0
    6.4833  -13.7735   26.1046 C   0  0  0  0  0  0  0  0  0  0  0  0
    6.0450  -12.4493   26.2276 C   0  0  0  0  0  0  0  0  0  0  0  0
    6.9323  -11.4684   26.6027 C   0  0  0  0  0  0  0  0  0  0  0  0
    8.2513  -11.7738   26.8597 C   0  0  0  0  0  0  0  0  0  0  0  0
    8.7066  -13.0796   26.7439 C   0  0  0  0  0  0  0  0  0  0  0  0
    7.8103  -14.0625   26.3678 C   0  0  0  0  0  0  0  0  0  0  0  0
   11.2459  -17.0839   25.1781 C   0  0  0  0  0  0  0  0  0  0  0  0
   11.3964  -18.0162   24.3542 O   0  0  0  0  0  0  0  0  0  0  0  0
   12.2623  -16.9794   26.1477 O   0  0  0  0  0  0  0  0  0  0  0  0
  2  1  1  0
  2  3  1  0
  3  4  2  0
  6  7  1  0
  6  5  1  0
  9  8  1  1
  8  7  1  0
 10  3  1  0
 10  9  1  0
 11  9  1  0
 11 12  2  0
 13 11  1  0
 14 13  1  0
 14 15  1  1
 16 15  1  0
 16 17  2  0
 18 17  1  0
 19 18  1  0
 20 19  2  0
 21 20  1  0
 22 21  2  0
 22 23  1  0
 23 24  2  0
 24 19  1  0
 24 16  1  0
 25 14  1  0
 26 25  2  0
 27 25  1  0
M  END
$$$$
