GMW.pdb
     RDKit          3D

 27 28  0  0  1  0  0  0  0  0999 V2000
    2.6886  -19.1672   21.6141 N   0  0  0  0  0  0  0  0  0  0  0  0
    4.0333  -18.7078   21.3338 C   0  0  0  0  0  0  0  0  0  0  0  0
    4.7192  -18.4694   22.6192 C   0  0  0  0  0  0  0  0  0  0  0  0
    4.2835  -17.6261   23.4210 O   0  0  0  0  0  0  0  0  0  0  0  0
    7.7863  -18.8386   28.8145 C   0  0  0  0  0  0  0  0  0  0  0  0
    6.9134  -19.7062   27.5091 S   0  0  0  0  0  0  0  0  0  0  0  0
    7.9136  -20.0245   26.0690 C   0  0  0  0  0  0  0  0  0  0  0  0
    7.1916  -20.2138   24.7896 C   0  0  0  0  0  0  0  0  0  0  0  0
    6.6824  -19.0038   24.1000 C   0  0  2  0  0  0  0  0  0  0  0  0
    5.8990  -19.2372   22.9131 N   0  0  0  0  0  0  0  0  0  0  0  0
    7.7750  -18.0356   23.7297 C   0  0  0  0  0  0  0  0  0  0  0  0
    8.2855  -18.0815   22.5884 O   0  0  0  0  0  0  0  0  0  0  0  0
    8.2378  -17.0658   24.6611 N   0  0  0  0  0  0  0  0  0  0  0  0
    9.3942  -16.2090   24.4220 C   0  0  1  0  0  0  0  0  0  0  0  0
    9.3533  -15.1730   25.5198 C   0  0  0  0  0  0  0  0  0  0  0  0
    7.9714  -14.6801   25.7788 C   0  0  0  0  0  0  0  0  0  0  0  0
    6.8509  -15.5020   25.7738 C   0  0  0  0  0  0  0  0  0  0  0  0
    5.7675  -14.7885   26.0832 N   0  0  0  0  0  0  0  0  0  0  0  0
    6.1608  -13.5212   26.2881 C   0  0  0  0  0  0  0  0  0  0  0  0
    5.4446  -12.3661   26.6250 C   0  0  0  0  0  0  0  0  0  0  0  0
    6.1060  -11.1689   26.7646 C   0  0  0  0  0  0  0  0  0  0  0  0
    7.4690  -11.0921   26.5763 C   0  0  0  0  0  0  0  0  0  0  0  0
    8.1980  -12.2246   26.2421 C   0  0  0  0  0  0  0  0  0  0  0  0
    7.5286  -13.4262   26.1043 C   0  0  0  0  0  0  0  0  0  0  0  0
   10.6320  -16.9485   24.2760 C   0  0  0  0  0  0  0  0  0  0  0  0
   11.6965  -16.4966   23.7930 O   0  0  0  0  0  0  0  0  0  0  0  0
   10.6950  -18.2911   24.6975 O   0  0  0  0  0  0  0  0  0  0  0  0
  2  1  1  0
  2  3  1  0
  3  4  2  0
  6  7  1  0
  6  5  1  0
  9  8  1  6
  8  7  1  0
 10  3  1  0
 10  9  1  0
 11  9  1  0
 11 12  2  0
 13 11  1  0
 14 13  1  0
 14 15  1  1
 16 15  1  0
 16 17  2  0
 18 17  1  0
 19 18  1  0
 20 19  2  0
 21 20  1  0
 22 21  2  0
 22 23  1  0
 23 24  2  0
 24 19  1  0
 24 16  1  0
 25 14  1  0
 26 25  2  0
 27 25  1  0
M  END
$$$$
