GMW.pdb
     RDKit          3D

 27 28  0  0  1  0  0  0  0  0999 V2000
    7.1012  -13.1000   18.0801 N   0  0  0  0  0  0  0  0  0  0  0  0
    8.2384  -13.3186   18.9500 C   0  0  0  0  0  0  0  0  0  0  0  0
    7.9374  -14.4676   19.8268 C   0  0  0  0  0  0  0  0  0  0  0  0
    7.0068  -15.2443   19.5534 O   0  0  0  0  0  0  0  0  0  0  0  0
   13.1595  -17.3833   18.3225 C   0  0  0  0  0  0  0  0  0  0  0  0
   11.7253  -17.9384   19.2463 S   0  0  0  0  0  0  0  0  0  0  0  0
   10.8673  -16.6254   20.0922 C   0  0  0  0  0  0  0  0  0  0  0  0
    9.5784  -16.9795   20.7303 C   0  0  0  0  0  0  0  0  0  0  0  0
    8.9327  -15.9597   21.5918 C   0  0  2  0  0  0  0  0  0  0  0  0
    8.7479  -14.6591   20.9991 N   0  0  0  0  0  0  0  0  0  0  0  0
    9.6517  -15.7555   22.8993 C   0  0  0  0  0  0  0  0  0  0  0  0
   10.7170  -15.1000   22.9270 O   0  0  0  0  0  0  0  0  0  0  0  0
    9.1365  -16.2985   24.1084 N   0  0  0  0  0  0  0  0  0  0  0  0
    9.8118  -16.1780   25.3960 C   0  0  1  0  0  0  0  0  0  0  0  0
    8.7048  -16.1455   26.4225 C   0  0  0  0  0  0  0  0  0  0  0  0
    7.6196  -15.1947   26.0515 C   0  0  0  0  0  0  0  0  0  0  0  0
    6.3885  -15.5956   25.5466 C   0  0  0  0  0  0  0  0  0  0  0  0
    5.6116  -14.5289   25.3542 N   0  0  0  0  0  0  0  0  0  0  0  0
    6.3122  -13.4444   25.7227 C   0  0  0  0  0  0  0  0  0  0  0  0
    5.9899  -12.0817   25.7205 C   0  0  0  0  0  0  0  0  0  0  0  0
    6.9165  -11.1602   26.1476 C   0  0  0  0  0  0  0  0  0  0  0  0
    8.1619  -11.5628   26.5789 C   0  0  0  0  0  0  0  0  0  0  0  0
    8.5019  -12.9082   26.5894 C   0  0  0  0  0  0  0  0  0  0  0  0
    7.5663  -13.8309   26.1603 C   0  0  0  0  0  0  0  0  0  0  0  0
   10.8476  -17.1725   25.5926 C   0  0  0  0  0  0  0  0  0  0  0  0
   11.0242  -18.1889   24.8811 O   0  0  0  0  0  0  0  0  0  0  0  0
   11.7570  -17.0296   26.6589 O   0  0  0  0  0  0  0  0  0  0  0  0
  2  1  1  0
  2  3  1  0
  3  4  2  0
  6  7  1  0
  6  5  1  0
  9  8  1  6
  8  7  1  0
 10  3  1  0
 10  9  1  0
 11  9  1  0
 11 12  2  0
 13 11  1  0
 14 13  1  0
 14 15  1  1
 16 15  1  0
 16 17  2  0
 18 17  1  0
 19 18  1  0
 20 19  2  0
 21 20  1  0
 22 21  2  0
 22 23  1  0
 23 24  2  0
 24 19  1  0
 24 16  1  0
 25 14  1  0
 26 25  2  0
 27 25  1  0
M  END
$$$$
