GMW.pdb
     RDKit          3D

 27 28  0  0  1  0  0  0  0  0999 V2000
    6.7747  -19.3177   21.6309 N   0  0  0  0  0  0  0  0  0  0  0  0
    8.0335  -19.9230   21.2475 C   0  0  0  0  0  0  0  0  0  0  0  0
    9.0441  -18.8537   21.1259 C   0  0  0  0  0  0  0  0  0  0  0  0
   10.0443  -19.0086   20.4051 O   0  0  0  0  0  0  0  0  0  0  0  0
    5.7799  -12.7809   20.9178 C   0  0  0  0  0  0  0  0  0  0  0  0
    7.3807  -13.4072   20.4040 S   0  0  0  0  0  0  0  0  0  0  0  0
    7.9580  -14.7813   21.3809 C   0  0  0  0  0  0  0  0  0  0  0  0
    9.2759  -15.3485   21.0128 C   0  0  0  0  0  0  0  0  0  0  0  0
    9.7551  -16.5282   21.7730 C   0  0  2  0  0  0  0  0  0  0  0  0
    8.8376  -17.6359   21.8622 N   0  0  0  0  0  0  0  0  0  0  0  0
   10.1814  -16.1883   23.1769 C   0  0  0  0  0  0  0  0  0  0  0  0
   11.0911  -15.3502   23.3644 O   0  0  0  0  0  0  0  0  0  0  0  0
    9.5635  -16.8079   24.2978 N   0  0  0  0  0  0  0  0  0  0  0  0
   10.0238  -16.6289   25.6706 C   0  0  1  0  0  0  0  0  0  0  0  0
    8.7718  -16.6526   26.5145 C   0  0  0  0  0  0  0  0  0  0  0  0
    7.7967  -15.6028   26.1063 C   0  0  0  0  0  0  0  0  0  0  0  0
    6.5575  -15.8845   25.5441 C   0  0  0  0  0  0  0  0  0  0  0  0
    5.8919  -14.7491   25.3290 N   0  0  0  0  0  0  0  0  0  0  0  0
    6.6727  -13.7366   25.7389 C   0  0  0  0  0  0  0  0  0  0  0  0
    6.4783  -12.3499   25.7368 C   0  0  0  0  0  0  0  0  0  0  0  0
    7.4663  -11.5211   26.2135 C   0  0  0  0  0  0  0  0  0  0  0  0
    8.6486  -12.0404   26.6945 C   0  0  0  0  0  0  0  0  0  0  0  0
    8.8620  -13.4116   26.7059 C   0  0  0  0  0  0  0  0  0  0  0  0
    7.8650  -14.2407   26.2268 C   0  0  0  0  0  0  0  0  0  0  0  0
   11.0744  -17.5540   26.0456 C   0  0  0  0  0  0  0  0  0  0  0  0
   11.7664  -17.4850   27.0881 O   0  0  0  0  0  0  0  0  0  0  0  0
   11.3816  -18.6385   25.2007 O   0  0  0  0  0  0  0  0  0  0  0  0
  2  1  1  0
  2  3  1  0
  3  4  2  0
  6  7  1  0
  6  5  1  0
  9  8  1  1
  8  7  1  0
 10  3  1  0
 10  9  1  0
 11  9  1  0
 11 12  2  0
 13 11  1  0
 14 13  1  0
 14 15  1  1
 16 15  1  0
 16 17  2  0
 18 17  1  0
 19 18  1  0
 20 19  2  0
 21 20  1  0
 22 21  2  0
 22 23  1  0
 23 24  2  0
 24 19  1  0
 24 16  1  0
 25 14  1  0
 26 25  2  0
 27 25  1  0
M  END
$$$$
