GMW.pdb
     RDKit          3D

 27 28  0  0  1  0  0  0  0  0999 V2000
    7.0558  -19.4892   19.5028 N   0  0  0  0  0  0  0  0  0  0  0  0
    6.5812  -18.6844   20.6096 C   0  0  0  0  0  0  0  0  0  0  0  0
    7.4784  -17.5210   20.7551 C   0  0  0  0  0  0  0  0  0  0  0  0
    8.7063  -17.6485   20.6141 O   0  0  0  0  0  0  0  0  0  0  0  0
    8.2929  -12.1713   17.6114 C   0  0  0  0  0  0  0  0  0  0  0  0
    8.5145  -12.8597   19.2533 S   0  0  0  0  0  0  0  0  0  0  0  0
    6.9836  -13.2513   20.0771 C   0  0  0  0  0  0  0  0  0  0  0  0
    7.0909  -13.8036   21.4473 C   0  0  0  0  0  0  0  0  0  0  0  0
    7.6729  -15.1589   21.6005 C   0  0  2  0  0  0  0  0  0  0  0  0
    6.8922  -16.2446   21.0632 N   0  0  0  0  0  0  0  0  0  0  0  0
    7.9895  -15.5034   23.0320 C   0  0  0  0  0  0  0  0  0  0  0  0
    7.1698  -15.2232   23.9346 O   0  0  0  0  0  0  0  0  0  0  0  0
    9.2112  -16.1450   23.3755 N   0  0  0  0  0  0  0  0  0  0  0  0
   10.0024  -15.7923   24.5496 C   0  0  1  0  0  0  0  0  0  0  0  0
    9.1633  -16.2111   25.7331 C   0  0  0  0  0  0  0  0  0  0  0  0
    7.9455  -15.3670   25.8878 C   0  0  0  0  0  0  0  0  0  0  0  0
    6.6571  -15.8289   25.6474 C   0  0  0  0  0  0  0  0  0  0  0  0
    5.7757  -14.8644   25.9148 N   0  0  0  0  0  0  0  0  0  0  0  0
    6.4645  -13.7865   26.3228 C   0  0  0  0  0  0  0  0  0  0  0  0
    6.0483  -12.5087   26.7161 C   0  0  0  0  0  0  0  0  0  0  0  0
    6.9825  -11.5688   27.0824 C   0  0  0  0  0  0  0  0  0  0  0  0
    8.3271  -11.8704   27.0669 C   0  0  0  0  0  0  0  0  0  0  0  0
    8.7612  -13.1306   26.6807 C   0  0  0  0  0  0  0  0  0  0  0  0
    7.8179  -14.0724   26.3146 C   0  0  0  0  0  0  0  0  0  0  0  0
   11.3561  -16.3076   24.5014 C   0  0  0  0  0  0  0  0  0  0  0  0
   11.8348  -17.0094   23.5801 O   0  0  0  0  0  0  0  0  0  0  0  0
   12.2474  -16.0231   25.5544 O   0  0  0  0  0  0  0  0  0  0  0  0
  2  1  1  0
  2  3  1  0
  3  4  2  0
  6  7  1  0
  6  5  1  0
  9  8  1  1
  8  7  1  0
 10  3  1  0
 10  9  1  0
 11  9  1  0
 11 12  2  0
 13 11  1  0
 14 13  1  0
 14 15  1  1
 16 15  1  0
 16 17  2  0
 18 17  1  0
 19 18  1  0
 20 19  2  0
 21 20  1  0
 22 21  2  0
 22 23  1  0
 23 24  2  0
 24 19  1  0
 24 16  1  0
 25 14  1  0
 26 25  2  0
 27 25  1  0
M  END
$$$$
