WMF.pdb
     RDKit          3D

 34 36  0  0  1  0  0  0  0  0999 V2000
    5.6505  -18.0319   24.1528 N   0  0  0  0  0  0  0  0  0  0  0  0
    6.8226  -17.2648   23.7474 C   0  0  1  0  0  0  0  0  0  0  0  0
    7.4408  -16.5671   24.9202 C   0  0  0  0  0  0  0  0  0  0  0  0
    6.6013  -15.6133   25.6365 C   0  0  0  0  0  0  0  0  0  0  0  0
    5.3494  -15.9297   26.1825 C   0  0  0  0  0  0  0  0  0  0  0  0
    4.8440  -14.8146   26.7318 N   0  0  0  0  0  0  0  0  0  0  0  0
    5.6773  -13.7782   26.5877 C   0  0  0  0  0  0  0  0  0  0  0  0
    5.6300  -12.4524   26.9809 C   0  0  0  0  0  0  0  0  0  0  0  0
    6.6687  -11.5739   26.7126 C   0  0  0  0  0  0  0  0  0  0  0  0
    7.7496  -12.0750   26.0380 C   0  0  0  0  0  0  0  0  0  0  0  0
    7.8020  -13.3942   25.6429 C   0  0  0  0  0  0  0  0  0  0  0  0
    6.7636  -14.2733   25.9105 C   0  0  0  0  0  0  0  0  0  0  0  0
    7.7976  -17.9984   22.9657 C   0  0  0  0  0  0  0  0  0  0  0  0
    7.3810  -18.9668   22.2792 O   0  0  0  0  0  0  0  0  0  0  0  0
    8.9829  -11.9474   19.4136 C   0  0  0  0  0  0  0  0  0  0  0  0
    8.4237  -13.0378   20.7289 S   0  0  0  0  0  0  0  0  0  0  0  0
    9.3235  -14.5851   20.7513 C   0  0  0  0  0  0  0  0  0  0  0  0
    8.9978  -15.4964   21.8696 C   0  0  0  0  0  0  0  0  0  0  0  0
    9.7185  -16.7969   21.9343 C   0  0  2  0  0  0  0  0  0  0  0  0
    9.2054  -17.6988   22.9209 N   0  0  0  0  0  0  0  0  0  0  0  0
   11.1983  -16.6224   22.0408 C   0  0  0  0  0  0  0  0  0  0  0  0
   11.8227  -15.9153   21.2199 O   0  0  0  0  0  0  0  0  0  0  0  0
   11.9496  -17.2473   23.0703 N   0  0  0  0  0  0  0  0  0  0  0  0
   12.1434  -16.6116   24.3745 C   0  0  1  0  0  0  0  0  0  0  0  0
   10.8337  -15.9839   24.7163 C   0  0  0  0  0  0  0  0  0  0  0  0
   10.8241  -15.1073   25.8932 C   0  0  0  0  0  0  0  0  0  0  0  0
   11.2247  -13.7981   25.7382 C   0  0  0  0  0  0  0  0  0  0  0  0
   11.2567  -12.8880   26.7872 C   0  0  0  0  0  0  0  0  0  0  0  0
   10.8627  -13.3489   28.0312 C   0  0  0  0  0  0  0  0  0  0  0  0
   10.4571  -14.6668   28.1983 C   0  0  0  0  0  0  0  0  0  0  0  0
   10.4321  -15.5638   27.1326 C   0  0  0  0  0  0  0  0  0  0  0  0
   12.4840  -17.6157   25.4121 C   0  0  0  0  0  0  0  0  0  0  0  0
   12.2859  -18.9641   25.2663 O   0  0  0  0  0  0  0  0  0  0  0  0
   12.9850  -17.1834   26.4898 O   0  0  0  0  0  0  0  0  0  0  0  0
  2  1  1  1
  2  3  1  0
  3  4  1  0
  4  5  2  0
  6  5  1  0
  7  6  1  0
  8  7  2  0
  9  8  1  0
 10  9  2  0
 10 11  1  0
 11 12  2  0
 12  7  1  0
 12  4  1  0
 13  2  1  0
 13 14  2  0
 16 15  1  0
 17 16  1  0
 18 17  1  0
 19 18  1  1
 20 19  1  0
 20 13  1  0
 21 19  1  0
 22 21  2  0
 23 21  1  0
 24 25  1  1
 24 23  1  0
 25 26  1  0
 26 31  2  0
 27 28  2  0
 27 26  1  0
 28 29  1  0
 29 30  2  0
 31 30  1  0
 32 24  1  0
 32 33  1  0
 34 32  2  0
M  END
$$$$
