WMF.pdb
     RDKit          3D

 34 36  0  0  1  0  0  0  0  0999 V2000
    7.1764  -19.7843   24.2353 N   0  0  0  0  0  0  0  0  0  0  0  0
    6.8111  -18.8104   23.2131 C   0  0  1  0  0  0  0  0  0  0  0  0
    5.6506  -17.9736   23.6577 C   0  0  0  0  0  0  0  0  0  0  0  0
    5.8887  -17.0512   24.7621 C   0  0  0  0  0  0  0  0  0  0  0  0
    6.0059  -17.4488   26.1015 C   0  0  0  0  0  0  0  0  0  0  0  0
    6.1821  -16.3466   26.8462 N   0  0  0  0  0  0  0  0  0  0  0  0
    6.1905  -15.2429   26.0906 C   0  0  0  0  0  0  0  0  0  0  0  0
    6.3510  -13.8966   26.3676 C   0  0  0  0  0  0  0  0  0  0  0  0
    6.3377  -12.9386   25.3654 C   0  0  0  0  0  0  0  0  0  0  0  0
    6.1578  -13.3817   24.0825 C   0  0  0  0  0  0  0  0  0  0  0  0
    5.9965  -14.7209   23.8006 C   0  0  0  0  0  0  0  0  0  0  0  0
    6.0093  -15.6797   24.8022 C   0  0  0  0  0  0  0  0  0  0  0  0
    7.9074  -18.0087   22.7079 C   0  0  0  0  0  0  0  0  0  0  0  0
    8.9793  -18.6034   22.4255 O   0  0  0  0  0  0  0  0  0  0  0  0
    7.1191  -11.9326   20.2220 C   0  0  0  0  0  0  0  0  0  0  0  0
    8.8257  -12.2626   19.7638 S   0  0  0  0  0  0  0  0  0  0  0  0
    9.3751  -13.8725   20.3210 C   0  0  0  0  0  0  0  0  0  0  0  0
    8.4672  -14.5670   21.2595 C   0  0  0  0  0  0  0  0  0  0  0  0
    8.8514  -15.9321   21.7109 C   0  0  2  0  0  0  0  0  0  0  0  0
    7.8566  -16.5834   22.5085 N   0  0  0  0  0  0  0  0  0  0  0  0
   10.2002  -15.9604   22.3524 C   0  0  0  0  0  0  0  0  0  0  0  0
   11.2002  -15.4905   21.7671 O   0  0  0  0  0  0  0  0  0  0  0  0
   10.3995  -16.5176   23.6427 N   0  0  0  0  0  0  0  0  0  0  0  0
   11.6513  -16.3273   24.3771 C   0  0  1  0  0  0  0  0  0  0  0  0
   11.3169  -16.5615   25.8123 C   0  0  0  0  0  0  0  0  0  0  0  0
   11.1727  -15.3628   26.6467 C   0  0  0  0  0  0  0  0  0  0  0  0
   10.3395  -15.4237   27.7424 C   0  0  0  0  0  0  0  0  0  0  0  0
   10.1298  -14.3461   28.5936 C   0  0  0  0  0  0  0  0  0  0  0  0
   10.8026  -13.1730   28.2997 C   0  0  0  0  0  0  0  0  0  0  0  0
   11.6449  -13.1010   27.1975 C   0  0  0  0  0  0  0  0  0  0  0  0
   11.8416  -14.1939   26.3562 C   0  0  0  0  0  0  0  0  0  0  0  0
   12.6747  -17.3134   23.9518 C   0  0  0  0  0  0  0  0  0  0  0  0
   12.5131  -18.1793   22.9017 O   0  0  0  0  0  0  0  0  0  0  0  0
   13.7542  -17.3439   24.6099 O   0  0  0  0  0  0  0  0  0  0  0  0
  2  1  1  1
  2  3  1  0
  3  4  1  0
  4  5  2  0
  6  5  1  0
  7  6  1  0
  8  7  2  0
  9  8  1  0
 10  9  2  0
 10 11  1  0
 11 12  2  0
 12  7  1  0
 12  4  1  0
 13  2  1  0
 13 14  2  0
 16 15  1  0
 17 16  1  0
 18 17  1  0
 19 18  1  1
 20 19  1  0
 20 13  1  0
 21 19  1  0
 22 21  2  0
 23 21  1  0
 24 25  1  1
 24 23  1  0
 25 26  1  0
 26 31  2  0
 27 28  2  0
 27 26  1  0
 28 29  1  0
 29 30  2  0
 31 30  1  0
 32 24  1  0
 32 33  1  0
 34 32  2  0
M  END
$$$$
