WMF.pdb
     RDKit          3D

 34 36  0  0  1  0  0  0  0  0999 V2000
    5.7699  -18.9048   23.5025 N   0  0  0  0  0  0  0  0  0  0  0  0
    6.8289  -17.9353   23.2468 C   0  0  1  0  0  0  0  0  0  0  0  0
    7.4838  -17.5049   24.5237 C   0  0  0  0  0  0  0  0  0  0  0  0
    6.9029  -16.3543   25.2064 C   0  0  0  0  0  0  0  0  0  0  0  0
    5.6739  -16.3837   25.8807 C   0  0  0  0  0  0  0  0  0  0  0  0
    5.4327  -15.1518   26.3546 N   0  0  0  0  0  0  0  0  0  0  0  0
    6.4200  -14.3057   26.0408 C   0  0  0  0  0  0  0  0  0  0  0  0
    6.6497  -12.9664   26.3020 C   0  0  0  0  0  0  0  0  0  0  0  0
    7.7976  -12.3237   25.8641 C   0  0  0  0  0  0  0  0  0  0  0  0
    8.7001  -13.0730   25.1580 C   0  0  0  0  0  0  0  0  0  0  0  0
    8.4764  -14.4069   24.8938 C   0  0  0  0  0  0  0  0  0  0  0  0
    7.3286  -15.0503   25.3310 C   0  0  0  0  0  0  0  0  0  0  0  0
    7.7923  -18.3286   22.2385 C   0  0  0  0  0  0  0  0  0  0  0  0
    8.3774  -19.4314   22.3936 O   0  0  0  0  0  0  0  0  0  0  0  0
    8.8602  -11.5921   19.8091 C   0  0  0  0  0  0  0  0  0  0  0  0
    8.6741  -13.3707   19.9914 S   0  0  0  0  0  0  0  0  0  0  0  0
    7.7383  -13.8052   21.4542 C   0  0  0  0  0  0  0  0  0  0  0  0
    7.5013  -15.2512   21.6539 C   0  0  0  0  0  0  0  0  0  0  0  0
    8.5689  -16.1934   21.2209 C   0  0  2  0  0  0  0  0  0  0  0  0
    8.1271  -17.5476   21.0758 N   0  0  0  0  0  0  0  0  0  0  0  0
    9.7984  -16.0853   22.0625 C   0  0  0  0  0  0  0  0  0  0  0  0
   10.8183  -15.4994   21.6380 O   0  0  0  0  0  0  0  0  0  0  0  0
    9.8581  -16.6390   23.3681 N   0  0  0  0  0  0  0  0  0  0  0  0
   10.5785  -15.9719   24.4538 C   0  0  1  0  0  0  0  0  0  0  0  0
    9.6003  -15.8530   25.5742 C   0  0  0  0  0  0  0  0  0  0  0  0
   10.1129  -15.2747   26.8217 C   0  0  0  0  0  0  0  0  0  0  0  0
    9.9588  -13.9212   27.0282 C   0  0  0  0  0  0  0  0  0  0  0  0
   10.4110  -13.2744   28.1715 C   0  0  0  0  0  0  0  0  0  0  0  0
   11.0409  -14.0532   29.1264 C   0  0  0  0  0  0  0  0  0  0  0  0
   11.2014  -15.4186   28.9280 C   0  0  0  0  0  0  0  0  0  0  0  0
   10.7402  -16.0481   27.7740 C   0  0  0  0  0  0  0  0  0  0  0  0
   11.7346  -16.7845   24.9052 C   0  0  0  0  0  0  0  0  0  0  0  0
   12.0424  -18.0224   24.4036 O   0  0  0  0  0  0  0  0  0  0  0  0
   12.4686  -16.2902   25.8087 O   0  0  0  0  0  0  0  0  0  0  0  0
  2  1  1  1
  2  3  1  0
  3  4  1  0
  4  5  2  0
  6  5  1  0
  7  6  1  0
  8  7  2  0
  9  8  1  0
 10  9  2  0
 10 11  1  0
 11 12  2  0
 12  7  1  0
 12  4  1  0
 13  2  1  0
 13 14  2  0
 16 15  1  0
 17 16  1  0
 18 17  1  0
 19 18  1  1
 20 19  1  0
 20 13  1  0
 21 19  1  0
 22 21  2  0
 23 21  1  0
 24 25  1  1
 24 23  1  0
 25 26  1  0
 26 31  2  0
 27 28  2  0
 27 26  1  0
 28 29  1  0
 29 30  2  0
 31 30  1  0
 32 24  1  0
 32 33  1  0
 34 32  2  0
M  END
$$$$
