WMF.pdb
     RDKit          3D

 34 36  0  0  1  0  0  0  0  0999 V2000
    6.5896  -19.1805   24.9481 N   0  0  0  0  0  0  0  0  0  0  0  0
    6.7847  -17.7527   24.7244 C   0  0  1  0  0  0  0  0  0  0  0  0
    7.1687  -17.0568   25.9944 C   0  0  0  0  0  0  0  0  0  0  0  0
    6.4274  -15.8469   26.3323 C   0  0  0  0  0  0  0  0  0  0  0  0
    5.1250  -15.8473   26.8513 C   0  0  0  0  0  0  0  0  0  0  0  0
    4.7418  -14.5709   27.0078 N   0  0  0  0  0  0  0  0  0  0  0  0
    5.7034  -13.7222   26.6279 C   0  0  0  0  0  0  0  0  0  0  0  0
    5.8069  -12.3424   26.6083 C   0  0  0  0  0  0  0  0  0  0  0  0
    6.9572  -11.7029   26.1721 C   0  0  0  0  0  0  0  0  0  0  0  0
    7.9928  -12.4973   25.7586 C   0  0  0  0  0  0  0  0  0  0  0  0
    7.8953  -13.8718   25.7749 C   0  0  0  0  0  0  0  0  0  0  0  0
    6.7452  -14.5122   26.2107 C   0  0  0  0  0  0  0  0  0  0  0  0
    7.6659  -17.4174   23.6240 C   0  0  0  0  0  0  0  0  0  0  0  0
    8.5273  -18.2711   23.2895 O   0  0  0  0  0  0  0  0  0  0  0  0
    9.0192  -11.6663   19.2212 C   0  0  0  0  0  0  0  0  0  0  0  0
    8.2923  -13.2104   18.6564 S   0  0  0  0  0  0  0  0  0  0  0  0
    8.8241  -14.6071   19.6417 C   0  0  0  0  0  0  0  0  0  0  0  0
    8.0287  -14.8677   20.8609 C   0  0  0  0  0  0  0  0  0  0  0  0
    8.4427  -16.0052   21.7268 C   0  0  2  0  0  0  0  0  0  0  0  0
    7.6259  -16.1793   22.8898 N   0  0  0  0  0  0  0  0  0  0  0  0
    9.8990  -15.9677   22.0572 C   0  0  0  0  0  0  0  0  0  0  0  0
   10.7638  -15.9974   21.1545 O   0  0  0  0  0  0  0  0  0  0  0  0
   10.3565  -15.8973   23.3991 N   0  0  0  0  0  0  0  0  0  0  0  0
   11.7742  -15.7242   23.7198 C   0  0  1  0  0  0  0  0  0  0  0  0
   11.8110  -14.8459   24.9255 C   0  0  0  0  0  0  0  0  0  0  0  0
   10.9605  -15.2546   26.0495 C   0  0  0  0  0  0  0  0  0  0  0  0
    9.5980  -15.0843   25.9357 C   0  0  0  0  0  0  0  0  0  0  0  0
    8.7057  -15.4337   26.9415 C   0  0  0  0  0  0  0  0  0  0  0  0
    9.2419  -15.9742   28.0972 C   0  0  0  0  0  0  0  0  0  0  0  0
   10.6141  -16.1500   28.2221 C   0  0  0  0  0  0  0  0  0  0  0  0
   11.4920  -15.7930   27.2010 C   0  0  0  0  0  0  0  0  0  0  0  0
   12.4095  -17.0238   24.0484 C   0  0  0  0  0  0  0  0  0  0  0  0
   13.7298  -17.1661   24.3877 O   0  0  0  0  0  0  0  0  0  0  0  0
   11.6739  -18.0517   24.0065 O   0  0  0  0  0  0  0  0  0  0  0  0
  2  1  1  1
  2  3  1  0
  3  4  1  0
  4  5  2  0
  6  5  1  0
  7  6  1  0
  8  7  2  0
  9  8  1  0
 10  9  2  0
 10 11  1  0
 11 12  2  0
 12  7  1  0
 12  4  1  0
 13  2  1  0
 13 14  2  0
 16 15  1  0
 17 16  1  0
 18 17  1  0
 19 18  1  1
 20 19  1  0
 20 13  1  0
 21 19  1  0
 22 21  2  0
 23 21  1  0
 24 25  1  1
 24 23  1  0
 25 26  1  0
 26 31  2  0
 27 28  2  0
 27 26  1  0
 28 29  1  0
 29 30  2  0
 31 30  1  0
 32 24  1  0
 32 33  1  0
 34 32  2  0
M  END
$$$$
