WMF.pdb
     RDKit          3D

 34 36  0  0  1  0  0  0  0  0999 V2000
    6.8401  -19.9893   21.3959 N   0  0  0  0  0  0  0  0  0  0  0  0
    6.5667  -18.6145   21.7985 C   0  0  1  0  0  0  0  0  0  0  0  0
    5.6446  -18.5729   22.9785 C   0  0  0  0  0  0  0  0  0  0  0  0
    4.3461  -19.2187   22.8226 C   0  0  0  0  0  0  0  0  0  0  0  0
    3.7810  -20.0785   23.7750 C   0  0  0  0  0  0  0  0  0  0  0  0
    2.6082  -20.5168   23.2924 N   0  0  0  0  0  0  0  0  0  0  0  0
    2.3559  -20.0048   22.0827 C   0  0  0  0  0  0  0  0  0  0  0  0
    1.3027  -20.1281   21.1938 C   0  0  0  0  0  0  0  0  0  0  0  0
    1.2858  -19.4516   19.9836 C   0  0  0  0  0  0  0  0  0  0  0  0
    2.3608  -18.6518   19.7022 C   0  0  0  0  0  0  0  0  0  0  0  0
    3.4131  -18.5257   20.5830 C   0  0  0  0  0  0  0  0  0  0  0  0
    3.4309  -19.2022   21.7933 C   0  0  0  0  0  0  0  0  0  0  0  0
    7.7392  -17.7838   21.9855 C   0  0  0  0  0  0  0  0  0  0  0  0
    8.8574  -18.3587   22.0251 O   0  0  0  0  0  0  0  0  0  0  0  0
    6.7847  -11.8702   18.9076 C   0  0  0  0  0  0  0  0  0  0  0  0
    7.9405  -12.1660   20.2523 S   0  0  0  0  0  0  0  0  0  0  0  0
    8.0057  -13.8929   20.7189 C   0  0  0  0  0  0  0  0  0  0  0  0
    8.8746  -14.2097   21.8729 C   0  0  0  0  0  0  0  0  0  0  0  0
    8.9330  -15.6260   22.3265 C   0  0  2  0  0  0  0  0  0  0  0  0
    7.7141  -16.3513   22.1302 N   0  0  0  0  0  0  0  0  0  0  0  0
    9.4513  -15.7555   23.7215 C   0  0  0  0  0  0  0  0  0  0  0  0
   10.5905  -15.3386   24.0251 O   0  0  0  0  0  0  0  0  0  0  0  0
    8.6775  -16.3525   24.7509 N   0  0  0  0  0  0  0  0  0  0  0  0
    9.1711  -16.4492   26.1257 C   0  0  1  0  0  0  0  0  0  0  0  0
    8.0833  -15.8971   26.9848 C   0  0  0  0  0  0  0  0  0  0  0  0
    7.8395  -14.4543   26.8722 C   0  0  0  0  0  0  0  0  0  0  0  0
    6.5795  -14.0290   26.5117 C   0  0  0  0  0  0  0  0  0  0  0  0
    6.2450  -12.6878   26.3730 C   0  0  0  0  0  0  0  0  0  0  0  0
    7.2454  -11.7626   26.6145 C   0  0  0  0  0  0  0  0  0  0  0  0
    8.5190  -12.1808   26.9785 C   0  0  0  0  0  0  0  0  0  0  0  0
    8.8338  -13.5312   27.1123 C   0  0  0  0  0  0  0  0  0  0  0  0
    9.4179  -17.8617   26.5058 C   0  0  0  0  0  0  0  0  0  0  0  0
   10.0196  -18.2453   27.6760 O   0  0  0  0  0  0  0  0  0  0  0  0
    9.0455  -18.7519   25.6883 O   0  0  0  0  0  0  0  0  0  0  0  0
  2  1  1  1
  2  3  1  0
  3  4  1  0
  4  5  2  0
  6  5  1  0
  7  6  1  0
  8  7  2  0
  9  8  1  0
 10  9  2  0
 10 11  1  0
 11 12  2  0
 12  7  1  0
 12  4  1  0
 13  2  1  0
 13 14  2  0
 16 15  1  0
 17 16  1  0
 18 17  1  0
 19 18  1  1
 20 19  1  0
 20 13  1  0
 21 19  1  0
 22 21  2  0
 23 21  1  0
 24 25  1  1
 24 23  1  0
 25 26  1  0
 26 31  2  0
 27 28  2  0
 27 26  1  0
 28 29  1  0
 29 30  2  0
 31 30  1  0
 32 24  1  0
 32 33  1  0
 34 32  2  0
M  END
$$$$
