WMF.pdb
     RDKit          3D

 34 36  0  0  1  0  0  0  0  0999 V2000
    6.4150  -18.0116   24.3922 N   0  0  0  0  0  0  0  0  0  0  0  0
    7.2160  -16.8304   24.0922 C   0  0  1  0  0  0  0  0  0  0  0  0
    7.5939  -16.1039   25.3468 C   0  0  0  0  0  0  0  0  0  0  0  0
    6.6442  -15.1166   25.8474 C   0  0  0  0  0  0  0  0  0  0  0  0
    5.3703  -15.4359   26.3384 C   0  0  0  0  0  0  0  0  0  0  0  0
    4.7580  -14.2905   26.6756 N   0  0  0  0  0  0  0  0  0  0  0  0
    5.5407  -13.2312   26.4420 C   0  0  0  0  0  0  0  0  0  0  0  0
    5.3854  -11.8689   26.6286 C   0  0  0  0  0  0  0  0  0  0  0  0
    6.3917  -10.9693   26.3116 C   0  0  0  0  0  0  0  0  0  0  0  0
    7.5525  -11.4872   25.8028 C   0  0  0  0  0  0  0  0  0  0  0  0
    7.7127  -12.8428   25.6138 C   0  0  0  0  0  0  0  0  0  0  0  0
    6.7067  -13.7431   25.9302 C   0  0  0  0  0  0  0  0  0  0  0  0
    8.3539  -17.0629   23.2257 C   0  0  0  0  0  0  0  0  0  0  0  0
    8.8818  -18.2044   23.2547 O   0  0  0  0  0  0  0  0  0  0  0  0
    7.2391  -12.7001   19.2985 C   0  0  0  0  0  0  0  0  0  0  0  0
    8.7247  -13.2584   20.1426 S   0  0  0  0  0  0  0  0  0  0  0  0
    9.1342  -14.9535   19.7386 C   0  0  0  0  0  0  0  0  0  0  0  0
   10.3281  -15.5009   20.4183 C   0  0  0  0  0  0  0  0  0  0  0  0
   10.1094  -16.3833   21.5967 C   0  0  2  0  0  0  0  0  0  0  0  0
    8.9221  -16.0818   22.3378 N   0  0  0  0  0  0  0  0  0  0  0  0
   11.3167  -16.4728   22.4720 C   0  0  0  0  0  0  0  0  0  0  0  0
   12.3920  -15.9270   22.1413 O   0  0  0  0  0  0  0  0  0  0  0  0
   11.2920  -17.1756   23.7049 N   0  0  0  0  0  0  0  0  0  0  0  0
   12.4954  -17.3355   24.5228 C   0  0  1  0  0  0  0  0  0  0  0  0
   12.8104  -15.9748   25.0478 C   0  0  0  0  0  0  0  0  0  0  0  0
   11.8609  -15.4209   26.0200 C   0  0  0  0  0  0  0  0  0  0  0  0
   10.9299  -14.5062   25.5785 C   0  0  0  0  0  0  0  0  0  0  0  0
    9.9901  -13.9192   26.4164 C   0  0  0  0  0  0  0  0  0  0  0  0
   10.0174  -14.2912   27.7491 C   0  0  0  0  0  0  0  0  0  0  0  0
   10.9519  -15.2124   28.2046 C   0  0  0  0  0  0  0  0  0  0  0  0
   11.8860  -15.7898   27.3473 C   0  0  0  0  0  0  0  0  0  0  0  0
   12.2469  -18.2491   25.6648 C   0  0  0  0  0  0  0  0  0  0  0  0
   11.0452  -18.8625   25.9066 O   0  0  0  0  0  0  0  0  0  0  0  0
   13.2126  -18.4621   26.4531 O   0  0  0  0  0  0  0  0  0  0  0  0
  2  1  1  1
  2  3  1  0
  3  4  1  0
  4  5  2  0
  6  5  1  0
  7  6  1  0
  8  7  2  0
  9  8  1  0
 10  9  2  0
 10 11  1  0
 11 12  2  0
 12  7  1  0
 12  4  1  0
 13  2  1  0
 13 14  2  0
 16 15  1  0
 17 16  1  0
 18 17  1  0
 19 18  1  6
 20 19  1  0
 20 13  1  0
 21 19  1  0
 22 21  2  0
 23 21  1  0
 24 25  1  1
 24 23  1  0
 25 26  1  0
 26 31  2  0
 27 28  2  0
 27 26  1  0
 28 29  1  0
 29 30  2  0
 31 30  1  0
 32 24  1  0
 32 33  1  0
 34 32  2  0
M  END
$$$$
