WMF.pdb
     RDKit          3D

 34 36  0  0  1  0  0  0  0  0999 V2000
    6.6010  -18.6012   24.8632 N   0  0  0  0  0  0  0  0  0  0  0  0
    7.0925  -17.2684   24.5333 C   0  0  1  0  0  0  0  0  0  0  0  0
    7.4737  -16.5142   25.7704 C   0  0  0  0  0  0  0  0  0  0  0  0
    6.6447  -15.3674   26.1241 C   0  0  0  0  0  0  0  0  0  0  0  0
    5.4036  -15.4688   26.7683 C   0  0  0  0  0  0  0  0  0  0  0  0
    4.9053  -14.2302   26.9033 N   0  0  0  0  0  0  0  0  0  0  0  0
    5.7332  -13.3123   26.3923 C   0  0  0  0  0  0  0  0  0  0  0  0
    5.6896  -11.9323   26.2995 C   0  0  0  0  0  0  0  0  0  0  0  0
    6.7209  -11.2065   25.7234 C   0  0  0  0  0  0  0  0  0  0  0  0
    7.7909  -11.9154   25.2467 C   0  0  0  0  0  0  0  0  0  0  0  0
    7.8396  -13.2898   25.3353 C   0  0  0  0  0  0  0  0  0  0  0  0
    6.8085  -14.0164   25.9110 C   0  0  0  0  0  0  0  0  0  0  0  0
    8.1294  -17.2283   23.5218 C   0  0  0  0  0  0  0  0  0  0  0  0
    8.8692  -18.2394   23.4087 O   0  0  0  0  0  0  0  0  0  0  0  0
    8.8245  -11.6487   19.9803 C   0  0  0  0  0  0  0  0  0  0  0  0
    7.9482  -13.0686   19.3115 S   0  0  0  0  0  0  0  0  0  0  0  0
    7.9584  -14.4600   20.4376 C   0  0  0  0  0  0  0  0  0  0  0  0
    9.2466  -15.1771   20.5541 C   0  0  0  0  0  0  0  0  0  0  0  0
    9.3684  -16.2121   21.6167 C   0  0  2  0  0  0  0  0  0  0  0  0
    8.3726  -16.1154   22.6409 N   0  0  0  0  0  0  0  0  0  0  0  0
   10.7511  -16.2927   22.1762 C   0  0  0  0  0  0  0  0  0  0  0  0
   11.7418  -16.4247   21.4247 O   0  0  0  0  0  0  0  0  0  0  0  0
   10.9944  -16.2233   23.5729 N   0  0  0  0  0  0  0  0  0  0  0  0
   12.3432  -16.3569   24.1258 C   0  0  1  0  0  0  0  0  0  0  0  0
   12.5186  -15.1966   25.0472 C   0  0  0  0  0  0  0  0  0  0  0  0
   11.5399  -15.0805   26.1347 C   0  0  0  0  0  0  0  0  0  0  0  0
   11.7508  -15.8074   27.2861 C   0  0  0  0  0  0  0  0  0  0  0  0
   10.8846  -15.7724   28.3715 C   0  0  0  0  0  0  0  0  0  0  0  0
    9.7688  -14.9615   28.2592 C   0  0  0  0  0  0  0  0  0  0  0  0
    9.5468  -14.2248   27.1027 C   0  0  0  0  0  0  0  0  0  0  0  0
   10.4284  -14.2738   26.0252 C   0  0  0  0  0  0  0  0  0  0  0  0
   12.4802  -17.6147   24.9003 C   0  0  0  0  0  0  0  0  0  0  0  0
   13.6397  -18.0141   25.5124 O   0  0  0  0  0  0  0  0  0  0  0  0
   11.4558  -18.3510   24.9894 O   0  0  0  0  0  0  0  0  0  0  0  0
  2  1  1  1
  2  3  1  0
  3  4  1  0
  4  5  2  0
  6  5  1  0
  7  6  1  0
  8  7  2  0
  9  8  1  0
 10  9  2  0
 10 11  1  0
 11 12  2  0
 12  7  1  0
 12  4  1  0
 13  2  1  0
 13 14  2  0
 16 15  1  0
 17 16  1  0
 18 17  1  0
 19 18  1  6
 20 19  1  0
 20 13  1  0
 21 19  1  0
 22 21  2  0
 23 21  1  0
 24 25  1  1
 24 23  1  0
 25 26  1  0
 26 31  2  0
 27 28  2  0
 27 26  1  0
 28 29  1  0
 29 30  2  0
 31 30  1  0
 32 24  1  0
 32 33  1  0
 34 32  2  0
M  END
$$$$
