IND.pdb
     RDKit          3D

 25 24  0  0  1  0  0  0  0  0999 V2000
    7.5376  -12.1589   27.7230 C   0  0  0  0  0  0  0  0  0  0  0  0
    6.5294  -12.9885   26.8874 C   0  0  0  0  0  0  0  0  0  0  0  0
    7.3392  -13.6895   25.8464 C   0  0  2  0  0  0  0  0  0  0  0  0
    8.2298  -12.6466   25.1843 C   0  0  0  0  0  0  0  0  0  0  0  0
    6.6396  -14.5527   24.8809 C   0  0  2  0  0  0  0  0  0  0  0  0
    5.9554  -15.6126   25.6901 N   0  0  0  0  0  0  0  0  0  0  0  0
    7.3827  -15.2322   23.8351 C   0  0  0  0  0  0  0  0  0  0  0  0
    7.5778  -16.5094   23.9493 O   0  0  0  0  0  0  0  0  0  0  0  0
    7.2174  -12.7195   19.7330 N   0  0  0  0  0  0  0  0  0  0  0  0
    7.2408  -14.1402   19.9236 C   0  0  0  0  0  0  0  0  0  0  0  0
    6.1702  -14.7265   19.6884 O   0  0  0  0  0  0  0  0  0  0  0  0
    8.5089  -14.7092   20.3657 C   0  0  0  0  0  0  0  0  0  0  0  0
    8.4872  -15.5653   21.5874 C   0  0  2  0  0  0  0  0  0  0  0  0
    7.9477  -14.7020   22.6587 N   0  0  0  0  0  0  0  0  0  0  0  0
    9.7698  -16.1548   21.9760 C   0  0  0  0  0  0  0  0  0  0  0  0
   10.3966  -16.8881   21.1796 O   0  0  0  0  0  0  0  0  0  0  0  0
   10.3944  -15.9579   23.2441 N   0  0  0  0  0  0  0  0  0  0  0  0
   11.6777  -16.4494   23.6352 C   0  0  1  0  0  0  0  0  0  0  0  0
   12.7876  -15.4869   23.3606 C   0  0  0  0  0  0  0  0  0  0  0  0
   14.1387  -16.0079   23.4952 C   0  0  0  0  0  0  0  0  0  0  0  0
   14.3932  -17.2392   23.3580 O   0  0  0  0  0  0  0  0  0  0  0  0
   11.7215  -16.8586   25.0785 C   0  0  0  0  0  0  0  0  0  0  0  0
   10.7546  -16.5853   25.8491 O   0  0  0  0  0  0  0  0  0  0  0  0
   15.2643  -15.2128   23.7839 O   0  0  0  0  0  0  0  0  0  0  0  0
   12.7785  -17.5355   25.6571 O   0  0  0  0  0  0  0  0  0  0  0  0
  1  2  1  0
  2  3  1  0
  3  5  1  0
  3  4  1  6
  5  6  1  1
  7  5  1  0
  7  8  2  0
 10 12  1  0
 10  9  1  0
 11 10  2  0
 13 12  1  6
 13 14  1  0
 13 15  1  0
 14  7  1  0
 15 17  1  0
 16 15  2  0
 17 18  1  0
 18 22  1  0
 18 19  1  1
 20 19  1  0
 20 24  1  0
 21 20  2  0
 22 23  2  0
 22 25  1  0
M  END
$$$$
