IND.pdb
     RDKit          3D

 25 24  0  0  1  0  0  0  0  0999 V2000
    7.9516  -12.1914   27.6802 C   0  0  0  0  0  0  0  0  0  0  0  0
    6.7664  -12.8424   26.9223 C   0  0  0  0  0  0  0  0  0  0  0  0
    7.3777  -13.7854   25.9384 C   0  0  2  0  0  0  0  0  0  0  0  0
    8.4185  -13.0049   25.1465 C   0  0  0  0  0  0  0  0  0  0  0  0
    6.4817  -14.5859   25.0881 C   0  0  2  0  0  0  0  0  0  0  0  0
    5.6405  -15.4017   26.0226 N   0  0  0  0  0  0  0  0  0  0  0  0
    7.0316  -15.5016   24.1048 C   0  0  0  0  0  0  0  0  0  0  0  0
    7.1958  -16.7427   24.4438 O   0  0  0  0  0  0  0  0  0  0  0  0
    8.4240  -16.4734   18.4776 N   0  0  0  0  0  0  0  0  0  0  0  0
    9.1901  -16.3564   19.6838 C   0  0  0  0  0  0  0  0  0  0  0  0
   10.2801  -16.9541   19.6820 O   0  0  0  0  0  0  0  0  0  0  0  0
    8.5952  -15.5570   20.7488 C   0  0  0  0  0  0  0  0  0  0  0  0
    8.0439  -16.2870   21.9274 C   0  0  2  0  0  0  0  0  0  0  0  0
    7.4290  -15.2464   22.7778 N   0  0  0  0  0  0  0  0  0  0  0  0
    9.0036  -17.0927   22.6846 C   0  0  0  0  0  0  0  0  0  0  0  0
    8.9333  -18.3416   22.6689 O   0  0  0  0  0  0  0  0  0  0  0  0
   10.0597  -16.5514   23.4775 N   0  0  0  0  0  0  0  0  0  0  0  0
   11.3464  -17.1390   23.6793 C   0  0  1  0  0  0  0  0  0  0  0  0
   12.3464  -16.7418   22.6421 C   0  0  0  0  0  0  0  0  0  0  0  0
   13.6892  -17.2759   22.8056 C   0  0  0  0  0  0  0  0  0  0  0  0
   13.9009  -18.5170   22.9265 O   0  0  0  0  0  0  0  0  0  0  0  0
   11.9036  -16.8493   25.0424 C   0  0  0  0  0  0  0  0  0  0  0  0
   11.7712  -15.6989   25.5548 O   0  0  0  0  0  0  0  0  0  0  0  0
   14.8525  -16.4838   22.8443 O   0  0  0  0  0  0  0  0  0  0  0  0
   12.5797  -17.7763   25.8129 O   0  0  0  0  0  0  0  0  0  0  0  0
  1  2  1  0
  2  3  1  0
  3  5  1  0
  3  4  1  6
  5  6  1  1
  7  5  1  0
  7  8  2  0
 10 12  1  0
 10  9  1  0
 11 10  2  0
 13 12  1  6
 13 14  1  0
 13 15  1  0
 14  7  1  0
 15 17  1  0
 16 15  2  0
 17 18  1  0
 18 22  1  0
 18 19  1  6
 20 19  1  0
 20 24  1  0
 21 20  2  0
 22 23  2  0
 22 25  1  0
M  END
$$$$
