IND.pdb
     RDKit          3D

 25 24  0  0  1  0  0  0  0  0999 V2000
    7.4570  -11.6548   27.0475 C   0  0  0  0  0  0  0  0  0  0  0  0
    6.6811  -12.9607   26.7382 C   0  0  0  0  0  0  0  0  0  0  0  0
    7.4432  -13.6419   25.6492 C   0  0  2  0  0  0  0  0  0  0  0  0
    7.5190  -12.6760   24.4742 C   0  0  0  0  0  0  0  0  0  0  0  0
    7.0377  -15.0017   25.2576 C   0  0  2  0  0  0  0  0  0  0  0  0
    6.7603  -15.7368   26.5339 N   0  0  0  0  0  0  0  0  0  0  0  0
    7.9329  -15.8349   24.4751 C   0  0  0  0  0  0  0  0  0  0  0  0
    9.1239  -16.0608   24.9364 O   0  0  0  0  0  0  0  0  0  0  0  0
    7.0737  -16.0208   19.7334 N   0  0  0  0  0  0  0  0  0  0  0  0
    7.4047  -14.7809   20.3725 C   0  0  0  0  0  0  0  0  0  0  0  0
    6.9554  -13.7614   19.8211 O   0  0  0  0  0  0  0  0  0  0  0  0
    8.2199  -14.8760   21.5782 C   0  0  0  0  0  0  0  0  0  0  0  0
    8.5678  -16.2431   22.0641 C   0  0  2  0  0  0  0  0  0  0  0  0
    7.7019  -16.4710   23.2398 N   0  0  0  0  0  0  0  0  0  0  0  0
    9.9775  -16.4637   22.3923 C   0  0  0  0  0  0  0  0  0  0  0  0
   10.8396  -16.5037   21.4867 O   0  0  0  0  0  0  0  0  0  0  0  0
   10.4758  -16.6478   23.7170 N   0  0  0  0  0  0  0  0  0  0  0  0
   11.8371  -16.8890   24.0779 C   0  0  1  0  0  0  0  0  0  0  0  0
   12.7602  -15.7861   23.6714 C   0  0  0  0  0  0  0  0  0  0  0  0
   14.1469  -16.1598   23.4423 C   0  0  0  0  0  0  0  0  0  0  0  0
   14.5073  -17.3705   23.3781 O   0  0  0  0  0  0  0  0  0  0  0  0
   12.0039  -17.1605   25.5445 C   0  0  0  0  0  0  0  0  0  0  0  0
   11.0170  -17.0506   26.3302 O   0  0  0  0  0  0  0  0  0  0  0  0
   15.1945  -15.2343   23.2743 O   0  0  0  0  0  0  0  0  0  0  0  0
   13.1992  -17.5338   26.1293 O   0  0  0  0  0  0  0  0  0  0  0  0
  1  2  1  0
  2  3  1  0
  3  5  1  0
  3  4  1  6
  5  6  1  1
  7  5  1  0
  7  8  2  0
 10 12  1  0
 10  9  1  0
 11 10  2  0
 13 12  1  1
 13 14  1  0
 13 15  1  0
 14  7  1  0
 15 17  1  0
 16 15  2  0
 17 18  1  0
 18 22  1  0
 18 19  1  1
 20 19  1  0
 20 24  1  0
 21 20  2  0
 22 23  2  0
 22 25  1  0
M  END
$$$$
