IND.pdb
     RDKit          3D

 25 24  0  0  1  0  0  0  0  0999 V2000
    6.2769  -11.3728   26.5523 C   0  0  0  0  0  0  0  0  0  0  0  0
    6.7202  -12.6568   27.2992 C   0  0  0  0  0  0  0  0  0  0  0  0
    7.4085  -13.5059   26.2812 C   0  0  2  0  0  0  0  0  0  0  0  0
    8.5351  -12.6744   25.6821 C   0  0  0  0  0  0  0  0  0  0  0  0
    6.5863  -14.1858   25.2671 C   0  0  2  0  0  0  0  0  0  0  0  0
    5.5840  -15.0034   26.0241 N   0  0  0  0  0  0  0  0  0  0  0  0
    7.2059  -15.0689   24.2955 C   0  0  0  0  0  0  0  0  0  0  0  0
    7.0645  -16.3490   24.4493 O   0  0  0  0  0  0  0  0  0  0  0  0
    7.5201  -12.9689   20.1304 N   0  0  0  0  0  0  0  0  0  0  0  0
    7.4141  -14.3834   20.3382 C   0  0  0  0  0  0  0  0  0  0  0  0
    6.3255  -14.8889   20.0144 O   0  0  0  0  0  0  0  0  0  0  0  0
    8.5891  -15.0412   20.8987 C   0  0  0  0  0  0  0  0  0  0  0  0
    8.4172  -15.7666   22.1911 C   0  0  2  0  0  0  0  0  0  0  0  0
    7.9672  -14.7421   23.1564 N   0  0  0  0  0  0  0  0  0  0  0  0
    9.5973  -16.4789   22.6844 C   0  0  0  0  0  0  0  0  0  0  0  0
    9.9316  -17.5746   22.1817 O   0  0  0  0  0  0  0  0  0  0  0  0
   10.4368  -16.0108   23.7395 N   0  0  0  0  0  0  0  0  0  0  0  0
   11.5121  -16.7331   24.3425 C   0  0  1  0  0  0  0  0  0  0  0  0
   12.7599  -15.9232   24.4870 C   0  0  0  0  0  0  0  0  0  0  0  0
   13.5491  -15.7372   23.2797 C   0  0  0  0  0  0  0  0  0  0  0  0
   13.2158  -16.2648   22.1796 O   0  0  0  0  0  0  0  0  0  0  0  0
   11.1395  -17.3125   25.6759 C   0  0  0  0  0  0  0  0  0  0  0  0
   11.9398  -18.0834   26.2830 O   0  0  0  0  0  0  0  0  0  0  0  0
   14.7295  -14.9719   23.2206 O   0  0  0  0  0  0  0  0  0  0  0  0
    9.9414  -17.0629   26.3183 O   0  0  0  0  0  0  0  0  0  0  0  0
  1  2  1  0
  2  3  1  0
  3  5  1  0
  3  4  1  6
  5  6  1  1
  7  5  1  0
  7  8  2  0
 10 12  1  0
 10  9  1  0
 11 10  2  0
 13 12  1  6
 13 14  1  0
 13 15  1  0
 14  7  1  0
 15 17  1  0
 16 15  2  0
 17 18  1  0
 18 22  1  0
 18 19  1  1
 20 19  1  0
 20 24  1  0
 21 20  2  0
 22 23  2  0
 22 25  1  0
M  END
$$$$
