IND.pdb
     RDKit          3D

 25 24  0  0  1  0  0  0  0  0999 V2000
    8.4621  -11.4096   19.1435 C   0  0  0  0  0  0  0  0  0  0  0  0
    9.2418  -12.6564   19.6340 C   0  0  0  0  0  0  0  0  0  0  0  0
    8.3053  -13.8103   19.4841 C   0  0  2  0  0  0  0  0  0  0  0  0
    7.0497  -13.4838   20.2817 C   0  0  0  0  0  0  0  0  0  0  0  0
    8.8197  -15.1655   19.7402 C   0  0  2  0  0  0  0  0  0  0  0  0
    8.7781  -15.3521   21.2268 N   0  0  0  0  0  0  0  0  0  0  0  0
   10.1541  -15.5356   19.3043 C   0  0  0  0  0  0  0  0  0  0  0  0
   10.2844  -16.1320   18.1599 O   0  0  0  0  0  0  0  0  0  0  0  0
   13.9727  -15.4675   16.1825 N   0  0  0  0  0  0  0  0  0  0  0  0
   13.8920  -14.5724   17.2995 C   0  0  0  0  0  0  0  0  0  0  0  0
   14.8769  -13.8308   17.4595 O   0  0  0  0  0  0  0  0  0  0  0  0
   12.6735  -14.6475   18.0974 C   0  0  0  0  0  0  0  0  0  0  0  0
   12.6802  -15.5650   19.2740 C   0  0  2  0  0  0  0  0  0  0  0  0
   11.3881  -15.3365   19.9538 N   0  0  0  0  0  0  0  0  0  0  0  0
   13.8028  -15.4060   20.2003 C   0  0  0  0  0  0  0  0  0  0  0  0
   14.9780  -15.3801   19.7722 O   0  0  0  0  0  0  0  0  0  0  0  0
   13.6662  -15.2743   21.6148 N   0  0  0  0  0  0  0  0  0  0  0  0
   14.1423  -16.1978   22.5957 C   0  0  1  0  0  0  0  0  0  0  0  0
   13.1293  -17.2282   22.9775 C   0  0  0  0  0  0  0  0  0  0  0  0
   12.8568  -17.3661   24.3995 C   0  0  0  0  0  0  0  0  0  0  0  0
   13.4969  -16.7039   25.2664 O   0  0  0  0  0  0  0  0  0  0  0  0
   15.4106  -16.8809   22.1749 C   0  0  0  0  0  0  0  0  0  0  0  0
   15.3813  -17.8043   21.3089 O   0  0  0  0  0  0  0  0  0  0  0  0
   11.8799  -18.2275   24.9342 O   0  0  0  0  0  0  0  0  0  0  0  0
   16.6589  -16.5706   22.6807 O   0  0  0  0  0  0  0  0  0  0  0  0
  1  2  1  0
  2  3  1  0
  3  5  1  0
  3  4  1  1
  5  6  1  1
  7  5  1  0
  7  8  2  0
 10 12  1  0
 10  9  1  0
 11 10  2  0
 13 12  1  6
 13 14  1  0
 13 15  1  0
 14  7  1  0
 15 17  1  0
 16 15  2  0
 17 18  1  0
 18 22  1  0
 18 19  1  6
 20 19  1  0
 20 24  1  0
 21 20  2  0
 22 23  2  0
 22 25  1  0
M  END
$$$$
