IND.pdb
     RDKit          3D

 25 24  0  0  1  0  0  0  0  0999 V2000
    8.2973  -11.8620   20.8726 C   0  0  0  0  0  0  0  0  0  0  0  0
    7.6826  -12.7705   19.7773 C   0  0  0  0  0  0  0  0  0  0  0  0
    8.6436  -13.8992   19.5943 C   0  0  2  0  0  0  0  0  0  0  0  0
   10.0124  -13.2910   19.3190 C   0  0  0  0  0  0  0  0  0  0  0  0
    8.2870  -14.9753   18.6554 C   0  0  2  0  0  0  0  0  0  0  0  0
    6.9269  -15.4523   19.0665 N   0  0  0  0  0  0  0  0  0  0  0  0
    9.1300  -16.1513   18.5367 C   0  0  0  0  0  0  0  0  0  0  0  0
    8.9818  -17.1047   19.4034 O   0  0  0  0  0  0  0  0  0  0  0  0
   13.4994  -17.5632   15.2429 N   0  0  0  0  0  0  0  0  0  0  0  0
   12.1839  -17.0730   15.5335 C   0  0  0  0  0  0  0  0  0  0  0  0
   11.9489  -15.9162   15.1437 O   0  0  0  0  0  0  0  0  0  0  0  0
   11.2985  -17.9888   16.2438 C   0  0  0  0  0  0  0  0  0  0  0  0
   10.9596  -17.6557   17.6581 C   0  0  2  0  0  0  0  0  0  0  0  0
   10.1261  -16.4377   17.5828 N   0  0  0  0  0  0  0  0  0  0  0  0
   12.0981  -17.4650   18.5587 C   0  0  0  0  0  0  0  0  0  0  0  0
   12.9683  -18.3560   18.6765 O   0  0  0  0  0  0  0  0  0  0  0  0
   12.3095  -16.2976   19.3521 N   0  0  0  0  0  0  0  0  0  0  0  0
   13.4392  -16.0421   20.1887 C   0  0  1  0  0  0  0  0  0  0  0  0
   14.2607  -14.8798   19.7330 C   0  0  0  0  0  0  0  0  0  0  0  0
   15.4145  -14.5468   20.5534 C   0  0  0  0  0  0  0  0  0  0  0  0
   15.8687  -15.3494   21.4190 O   0  0  0  0  0  0  0  0  0  0  0  0
   13.0574  -15.8465   21.6269 C   0  0  0  0  0  0  0  0  0  0  0  0
   11.8601  -15.5769   21.9385 O   0  0  0  0  0  0  0  0  0  0  0  0
   16.1186  -13.3307   20.4657 O   0  0  0  0  0  0  0  0  0  0  0  0
   13.9467  -15.9386   22.6809 O   0  0  0  0  0  0  0  0  0  0  0  0
  1  2  1  0
  2  3  1  0
  3  5  1  0
  3  4  1  6
  5  6  1  1
  7  5  1  0
  7  8  2  0
 10 12  1  0
 10  9  1  0
 11 10  2  0
 13 12  1  6
 13 14  1  0
 13 15  1  0
 14  7  1  0
 15 17  1  0
 16 15  2  0
 17 18  1  0
 18 22  1  0
 18 19  1  6
 20 19  1  0
 20 24  1  0
 21 20  2  0
 22 23  2  0
 22 25  1  0
M  END
$$$$
