IND.pdb
     RDKit          3D

 25 24  0  0  1  0  0  0  0  0999 V2000
    6.5734  -11.8800   27.3835 C   0  0  0  0  0  0  0  0  0  0  0  0
    6.9710  -13.3556   27.6432 C   0  0  0  0  0  0  0  0  0  0  0  0
    7.4070  -13.9009   26.3227 C   0  0  2  0  0  0  0  0  0  0  0  0
    8.4199  -12.9246   25.7394 C   0  0  0  0  0  0  0  0  0  0  0  0
    6.3718  -14.3082   25.3588 C   0  0  2  0  0  0  0  0  0  0  0  0
    5.6237  -15.4356   26.0035 N   0  0  0  0  0  0  0  0  0  0  0  0
    6.7460  -14.7544   24.0288 C   0  0  0  0  0  0  0  0  0  0  0  0
    6.7581  -16.0287   23.7880 O   0  0  0  0  0  0  0  0  0  0  0  0
    8.7393  -12.8654   18.6083 N   0  0  0  0  0  0  0  0  0  0  0  0
    7.8804  -13.8109   19.2591 C   0  0  0  0  0  0  0  0  0  0  0  0
    7.5636  -14.8002   18.5763 O   0  0  0  0  0  0  0  0  0  0  0  0
    7.4925  -13.4915   20.6284 C   0  0  0  0  0  0  0  0  0  0  0  0
    7.4809  -14.6097   21.6160 C   0  0  2  0  0  0  0  0  0  0  0  0
    7.1099  -13.9880   22.9044 N   0  0  0  0  0  0  0  0  0  0  0  0
    8.7264  -15.3704   21.7327 C   0  0  0  0  0  0  0  0  0  0  0  0
    9.0482  -16.1973   20.8509 O   0  0  0  0  0  0  0  0  0  0  0  0
    9.6464  -15.2461   22.8168 N   0  0  0  0  0  0  0  0  0  0  0  0
   10.8948  -15.9295   22.9434 C   0  0  1  0  0  0  0  0  0  0  0  0
   12.0765  -15.0563   22.6703 C   0  0  0  0  0  0  0  0  0  0  0  0
   13.3828  -15.6804   22.8085 C   0  0  0  0  0  0  0  0  0  0  0  0
   13.6579  -16.7788   22.2450 O   0  0  0  0  0  0  0  0  0  0  0  0
   11.0596  -16.5824   24.2847 C   0  0  0  0  0  0  0  0  0  0  0  0
   10.3915  -16.1741   25.2798 O   0  0  0  0  0  0  0  0  0  0  0  0
   14.4397  -15.1364   23.5632 O   0  0  0  0  0  0  0  0  0  0  0  0
   11.9203  -17.6356   24.5298 O   0  0  0  0  0  0  0  0  0  0  0  0
  1  2  1  0
  2  3  1  0
  3  5  1  0
  3  4  1  6
  5  6  1  1
  7  5  1  0
  7  8  2  0
 10 12  1  0
 10  9  1  0
 11 10  2  0
 13 12  1  6
 13 14  1  0
 13 15  1  0
 14  7  1  0
 15 17  1  0
 16 15  2  0
 17 18  1  0
 18 22  1  0
 18 19  1  1
 20 19  1  0
 20 24  1  0
 21 20  2  0
 22 23  2  0
 22 25  1  0
M  END
$$$$
