IND.pdb
     RDKit          3D

 25 24  0  0  1  0  0  0  0  0999 V2000
    8.2362  -11.6969   19.6027 C   0  0  0  0  0  0  0  0  0  0  0  0
    7.5726  -13.0977   19.5787 C   0  0  0  0  0  0  0  0  0  0  0  0
    8.5306  -14.0165   20.2635 C   0  0  2  0  0  0  0  0  0  0  0  0
    9.8864  -13.8431   19.5918 C   0  0  0  0  0  0  0  0  0  0  0  0
    8.1444  -15.4264   20.4361 C   0  0  2  0  0  0  0  0  0  0  0  0
    6.7157  -15.4139   20.8889 N   0  0  0  0  0  0  0  0  0  0  0  0
    8.8738  -16.2766   21.3596 C   0  0  0  0  0  0  0  0  0  0  0  0
    8.6731  -16.1183   22.6312 O   0  0  0  0  0  0  0  0  0  0  0  0
    8.1064  -20.4543   21.2552 N   0  0  0  0  0  0  0  0  0  0  0  0
    8.7644  -19.7230   22.2980 C   0  0  0  0  0  0  0  0  0  0  0  0
    8.0552  -19.4404   23.2790 O   0  0  0  0  0  0  0  0  0  0  0  0
   10.1707  -19.4078   22.0740 C   0  0  0  0  0  0  0  0  0  0  0  0
   10.5718  -17.9727   22.1490 C   0  0  2  0  0  0  0  0  0  0  0  0
    9.8041  -17.2971   21.0820 N   0  0  0  0  0  0  0  0  0  0  0  0
   12.0054  -17.7036   22.0232 C   0  0  0  0  0  0  0  0  0  0  0  0
   12.6512  -18.1542   21.0511 O   0  0  0  0  0  0  0  0  0  0  0  0
   12.7654  -16.9384   22.9580 N   0  0  0  0  0  0  0  0  0  0  0  0
   14.1817  -16.9957   23.1380 C   0  0  1  0  0  0  0  0  0  0  0  0
   14.8456  -15.6613   23.0270 C   0  0  0  0  0  0  0  0  0  0  0  0
   15.0763  -15.1682   21.6784 C   0  0  0  0  0  0  0  0  0  0  0  0
   14.3474  -14.2713   21.1646 O   0  0  0  0  0  0  0  0  0  0  0  0
   14.5707  -17.6368   24.4380 C   0  0  0  0  0  0  0  0  0  0  0  0
   15.7862  -17.8911   24.6858 O   0  0  0  0  0  0  0  0  0  0  0  0
   16.1063  -15.6295   20.8365 O   0  0  0  0  0  0  0  0  0  0  0  0
   13.6697  -17.9883   25.4254 O   0  0  0  0  0  0  0  0  0  0  0  0
  1  2  1  0
  2  3  1  0
  3  5  1  0
  3  4  1  6
  5  6  1  1
  7  5  1  0
  7  8  2  0
 10 12  1  0
 10  9  1  0
 11 10  2  0
 13 12  1  6
 13 14  1  0
 13 15  1  0
 14  7  1  0
 15 17  1  0
 16 15  2  0
 17 18  1  0
 18 22  1  0
 18 19  1  1
 20 19  1  0
 20 24  1  0
 21 20  2  0
 22 23  2  0
 22 25  1  0
M  END
$$$$
