IND.pdb
     RDKit          3D

 25 24  0  0  1  0  0  0  0  0999 V2000
    7.3058  -12.2592   27.7939 C   0  0  0  0  0  0  0  0  0  0  0  0
    6.3958  -13.1931   26.9556 C   0  0  0  0  0  0  0  0  0  0  0  0
    7.2713  -13.7723   25.8930 C   0  0  2  0  0  0  0  0  0  0  0  0
    7.9830  -12.6131   25.2081 C   0  0  0  0  0  0  0  0  0  0  0  0
    6.6795  -14.7312   24.9459 C   0  0  2  0  0  0  0  0  0  0  0  0
    6.0865  -15.8268   25.7791 N   0  0  0  0  0  0  0  0  0  0  0  0
    7.5068  -15.3674   23.9367 C   0  0  0  0  0  0  0  0  0  0  0  0
    7.7669  -16.6319   24.0618 O   0  0  0  0  0  0  0  0  0  0  0  0
    7.2011  -12.9111   19.9103 N   0  0  0  0  0  0  0  0  0  0  0  0
    7.3779  -14.3301   20.0126 C   0  0  0  0  0  0  0  0  0  0  0  0
    6.3973  -15.0145   19.6729 O   0  0  0  0  0  0  0  0  0  0  0  0
    8.6763  -14.7833   20.4988 C   0  0  0  0  0  0  0  0  0  0  0  0
    8.6899  -15.6388   21.7210 C   0  0  2  0  0  0  0  0  0  0  0  0
    8.0952  -14.8056   22.7868 N   0  0  0  0  0  0  0  0  0  0  0  0
    9.9989  -16.1582   22.1214 C   0  0  0  0  0  0  0  0  0  0  0  0
   10.6267  -16.9385   21.3717 O   0  0  0  0  0  0  0  0  0  0  0  0
   10.6497  -15.8381   23.3506 N   0  0  0  0  0  0  0  0  0  0  0  0
   11.9297  -16.3120   23.7732 C   0  0  1  0  0  0  0  0  0  0  0  0
   13.0276  -15.3217   23.5550 C   0  0  0  0  0  0  0  0  0  0  0  0
   14.3729  -15.8648   23.4548 C   0  0  0  0  0  0  0  0  0  0  0  0
   14.5972  -17.1063   23.5454 O   0  0  0  0  0  0  0  0  0  0  0  0
   11.9354  -16.7510   25.2084 C   0  0  0  0  0  0  0  0  0  0  0  0
   12.9782  -17.2588   25.7164 O   0  0  0  0  0  0  0  0  0  0  0  0
   15.5254  -15.0817   23.2526 O   0  0  0  0  0  0  0  0  0  0  0  0
   10.8468  -16.6426   26.0530 O   0  0  0  0  0  0  0  0  0  0  0  0
  1  2  1  0
  2  3  1  0
  3  5  1  0
  3  4  1  6
  5  6  1  1
  7  5  1  0
  7  8  2  0
 10 12  1  0
 10  9  1  0
 11 10  2  0
 13 12  1  6
 13 14  1  0
 13 15  1  0
 14  7  1  0
 15 17  1  0
 16 15  2  0
 17 18  1  0
 18 22  1  0
 18 19  1  1
 20 19  1  0
 20 24  1  0
 21 20  2  0
 22 23  2  0
 22 25  1  0
M  END
$$$$
