IND.pdb
     RDKit          3D

 25 24  0  0  1  0  0  0  0  0999 V2000
    7.6423  -12.0217   19.8108 C   0  0  0  0  0  0  0  0  0  0  0  0
    8.1762  -12.7295   18.5392 C   0  0  0  0  0  0  0  0  0  0  0  0
    8.9330  -13.9233   19.0220 C   0  0  2  0  0  0  0  0  0  0  0  0
    9.9660  -13.4312   20.0270 C   0  0  0  0  0  0  0  0  0  0  0  0
    9.4907  -14.8485   18.0222 C   0  0  2  0  0  0  0  0  0  0  0  0
    8.4190  -15.0437   16.9927 N   0  0  0  0  0  0  0  0  0  0  0  0
    9.9414  -16.1700   18.4198 C   0  0  0  0  0  0  0  0  0  0  0  0
    9.2204  -17.1937   18.0818 O   0  0  0  0  0  0  0  0  0  0  0  0
   12.9828  -18.4859   15.2434 N   0  0  0  0  0  0  0  0  0  0  0  0
   12.0328  -18.3343   16.3063 C   0  0  0  0  0  0  0  0  0  0  0  0
   11.0246  -19.0571   16.2261 O   0  0  0  0  0  0  0  0  0  0  0  0
   12.3700  -17.3583   17.3364 C   0  0  0  0  0  0  0  0  0  0  0  0
   11.9525  -17.6662   18.7352 C   0  0  2  0  0  0  0  0  0  0  0  0
   11.0933  -16.5353   19.1435 N   0  0  0  0  0  0  0  0  0  0  0  0
   13.0393  -17.8800   19.6928 C   0  0  0  0  0  0  0  0  0  0  0  0
   13.9565  -18.6917   19.4385 O   0  0  0  0  0  0  0  0  0  0  0  0
   13.1463  -17.2133   20.9501 N   0  0  0  0  0  0  0  0  0  0  0  0
   14.2248  -16.3746   21.3686 C   0  0  1  0  0  0  0  0  0  0  0  0
   14.6110  -15.3551   20.3464 C   0  0  0  0  0  0  0  0  0  0  0  0
   15.7364  -14.4986   20.6857 C   0  0  0  0  0  0  0  0  0  0  0  0
   16.3577  -14.6198   21.7806 O   0  0  0  0  0  0  0  0  0  0  0  0
   13.9464  -15.6879   22.6738 C   0  0  0  0  0  0  0  0  0  0  0  0
   14.8570  -15.0265   23.2540 O   0  0  0  0  0  0  0  0  0  0  0  0
   16.2297  -13.4784   19.8500 O   0  0  0  0  0  0  0  0  0  0  0  0
   12.7251  -15.7243   23.3199 O   0  0  0  0  0  0  0  0  0  0  0  0
  1  2  1  0
  2  3  1  0
  3  5  1  0
  3  4  1  6
  5  6  1  6
  7  5  1  0
  7  8  2  0
 10 12  1  0
 10  9  1  0
 11 10  2  0
 13 12  1  6
 13 14  1  0
 13 15  1  0
 14  7  1  0
 15 17  1  0
 16 15  2  0
 17 18  1  0
 18 22  1  0
 18 19  1  6
 20 19  1  0
 20 24  1  0
 21 20  2  0
 22 23  2  0
 22 25  1  0
M  END
$$$$
