IND.pdb
     RDKit          3D

 25 24  0  0  1  0  0  0  0  0999 V2000
    8.0588  -12.1528   27.9532 C   0  0  0  0  0  0  0  0  0  0  0  0
    6.8671  -12.9133   27.3172 C   0  0  0  0  0  0  0  0  0  0  0  0
    7.4417  -13.7045   26.1881 C   0  0  2  0  0  0  0  0  0  0  0  0
    8.2730  -12.7503   25.3408 C   0  0  0  0  0  0  0  0  0  0  0  0
    6.5342  -14.5471   25.3923 C   0  0  2  0  0  0  0  0  0  0  0  0
    5.8969  -15.4995   26.3582 N   0  0  0  0  0  0  0  0  0  0  0  0
    7.0505  -15.3418   24.2925 C   0  0  0  0  0  0  0  0  0  0  0  0
    7.2006  -16.6175   24.4724 O   0  0  0  0  0  0  0  0  0  0  0  0
    7.9950  -12.7690   20.2952 N   0  0  0  0  0  0  0  0  0  0  0  0
    8.5739  -14.0784   20.3699 C   0  0  0  0  0  0  0  0  0  0  0  0
    9.8007  -14.1299   20.1756 O   0  0  0  0  0  0  0  0  0  0  0  0
    7.6547  -15.1725   20.6619 C   0  0  0  0  0  0  0  0  0  0  0  0
    7.8361  -15.8933   21.9555 C   0  0  2  0  0  0  0  0  0  0  0  0
    7.4272  -14.9302   22.9991 N   0  0  0  0  0  0  0  0  0  0  0  0
    9.1798  -16.4151   22.2119 C   0  0  0  0  0  0  0  0  0  0  0  0
    9.6210  -17.3806   21.5499 O   0  0  0  0  0  0  0  0  0  0  0  0
   10.0701  -15.8950   23.1987 N   0  0  0  0  0  0  0  0  0  0  0  0
   11.3233  -16.4627   23.5843 C   0  0  1  0  0  0  0  0  0  0  0  0
   12.4806  -15.5424   23.3667 C   0  0  0  0  0  0  0  0  0  0  0  0
   13.3529  -15.8598   22.2472 C   0  0  0  0  0  0  0  0  0  0  0  0
   13.1415  -16.8598   21.5022 O   0  0  0  0  0  0  0  0  0  0  0  0
   11.3265  -16.9359   25.0085 C   0  0  0  0  0  0  0  0  0  0  0  0
   12.2901  -17.6297   25.4485 O   0  0  0  0  0  0  0  0  0  0  0  0
   14.4874  -15.1044   21.8940 O   0  0  0  0  0  0  0  0  0  0  0  0
   10.3181  -16.6652   25.9141 O   0  0  0  0  0  0  0  0  0  0  0  0
  1  2  1  0
  2  3  1  0
  3  5  1  0
  3  4  1  6
  5  6  1  1
  7  5  1  0
  7  8  2  0
 10 12  1  0
 10  9  1  0
 11 10  2  0
 13 12  1  6
 13 14  1  0
 13 15  1  0
 14  7  1  0
 15 17  1  0
 16 15  2  0
 17 18  1  0
 18 22  1  0
 18 19  1  1
 20 19  1  0
 20 24  1  0
 21 20  2  0
 22 23  2  0
 22 25  1  0
M  END
$$$$
