IND.pdb
     RDKit          3D

 25 24  0  0  1  0  0  0  0  0999 V2000
    8.2436  -11.5532   27.4447 C   0  0  0  0  0  0  0  0  0  0  0  0
    7.8706  -13.0452   27.2501 C   0  0  0  0  0  0  0  0  0  0  0  0
    7.3210  -13.1529   25.8655 C   0  0  2  0  0  0  0  0  0  0  0  0
    6.1316  -12.2062   25.7733 C   0  0  0  0  0  0  0  0  0  0  0  0
    7.0385  -14.4939   25.3282 C   0  0  2  0  0  0  0  0  0  0  0  0
    8.1176  -15.3896   25.8569 N   0  0  0  0  0  0  0  0  0  0  0  0
    6.9754  -14.7084   23.8937 C   0  0  0  0  0  0  0  0  0  0  0  0
    6.3717  -13.8215   23.1648 O   0  0  0  0  0  0  0  0  0  0  0  0
    7.4382  -12.4116   19.8804 N   0  0  0  0  0  0  0  0  0  0  0  0
    7.3166  -13.7661   20.3339 C   0  0  0  0  0  0  0  0  0  0  0  0
    6.6032  -14.5012   19.6297 O   0  0  0  0  0  0  0  0  0  0  0  0
    8.0407  -14.1033   21.5543 C   0  0  0  0  0  0  0  0  0  0  0  0
    8.2232  -15.5511   21.8650 C   0  0  2  0  0  0  0  0  0  0  0  0
    7.4938  -15.7731   23.1310 N   0  0  0  0  0  0  0  0  0  0  0  0
    9.6092  -16.0127   21.9629 C   0  0  0  0  0  0  0  0  0  0  0  0
   10.3931  -15.8715   20.9983 O   0  0  0  0  0  0  0  0  0  0  0  0
   10.1684  -16.6406   23.1162 N   0  0  0  0  0  0  0  0  0  0  0  0
   11.5532  -16.9150   23.3365 C   0  0  1  0  0  0  0  0  0  0  0  0
   12.4327  -15.7264   23.1190 C   0  0  0  0  0  0  0  0  0  0  0  0
   13.8658  -15.9707   23.1605 C   0  0  0  0  0  0  0  0  0  0  0  0
   14.3780  -17.0103   22.6538 O   0  0  0  0  0  0  0  0  0  0  0  0
   11.8169  -17.4847   24.6997 C   0  0  0  0  0  0  0  0  0  0  0  0
   10.8942  -17.5198   25.5662 O   0  0  0  0  0  0  0  0  0  0  0  0
   14.7969  -15.0966   23.7532 O   0  0  0  0  0  0  0  0  0  0  0  0
   13.0381  -17.9924   25.1010 O   0  0  0  0  0  0  0  0  0  0  0  0
  1  2  1  0
  2  3  1  0
  3  5  1  0
  3  4  1  1
  5  6  1  6
  7  5  1  0
  7  8  2  0
 10 12  1  0
 10  9  1  0
 11 10  2  0
 13 12  1  1
 13 14  1  0
 13 15  1  0
 14  7  1  0
 15 17  1  0
 16 15  2  0
 17 18  1  0
 18 22  1  0
 18 19  1  1
 20 19  1  0
 20 24  1  0
 21 20  2  0
 22 23  2  0
 22 25  1  0
M  END
$$$$
