SWS.pdb
     RDKit          3D

 27 28  0  0  1  0  0  0  0  0999 V2000
    8.3433  -17.4311   19.6592 O   0  0  0  0  0  0  0  0  0  0  0  0
    7.0869  -17.3290   20.2750 C   0  0  0  0  0  0  0  0  0  0  0  0
    6.9695  -15.9298   20.8214 C   0  0  2  0  0  0  0  0  0  0  0  0
    6.8660  -14.9284   19.8090 N   0  0  0  0  0  0  0  0  0  0  0  0
    8.0440  -15.6082   21.7892 C   0  0  0  0  0  0  0  0  0  0  0  0
    8.9181  -14.7429   21.4658 O   0  0  0  0  0  0  0  0  0  0  0  0
    8.1664  -16.2018   23.0584 N   0  0  0  0  0  0  0  0  0  0  0  0
    9.2968  -15.9171   23.9779 C   0  0  1  0  0  0  0  0  0  0  0  0
    8.7076  -15.9911   25.3306 C   0  0  0  0  0  0  0  0  0  0  0  0
    7.6233  -15.0619   25.6684 C   0  0  0  0  0  0  0  0  0  0  0  0
    6.2698  -15.3242   25.7506 C   0  0  0  0  0  0  0  0  0  0  0  0
    5.6026  -14.2045   26.0810 N   0  0  0  0  0  0  0  0  0  0  0  0
    6.4842  -13.1989   26.2216 C   0  0  0  0  0  0  0  0  0  0  0  0
    6.3016  -11.8751   26.5650 C   0  0  0  0  0  0  0  0  0  0  0  0
    7.4032  -11.0550   26.6566 C   0  0  0  0  0  0  0  0  0  0  0  0
    8.6890  -11.5320   26.4107 C   0  0  0  0  0  0  0  0  0  0  0  0
    8.8145  -12.8690   26.0692 C   0  0  0  0  0  0  0  0  0  0  0  0
    7.7371  -13.7217   25.9674 C   0  0  0  0  0  0  0  0  0  0  0  0
   10.4483  -16.7409   23.6638 C   0  0  0  0  0  0  0  0  0  0  0  0
   10.3119  -17.9834   23.3923 O   0  0  0  0  0  0  0  0  0  0  0  0
   14.3642  -15.2567   23.5550 O   0  0  0  0  0  0  0  0  0  0  0  0
   14.0167  -16.3266   22.7683 C   0  0  0  0  0  0  0  0  0  0  0  0
   12.8866  -17.1658   23.4249 C   0  0  2  0  0  0  0  0  0  0  0  0
   11.7774  -16.2382   23.6265 N   0  0  0  0  0  0  0  0  0  0  0  0
   13.3783  -17.7613   24.6734 C   0  0  0  0  0  0  0  0  0  0  0  0
   14.4753  -18.6290   24.6789 O   0  0  0  0  0  0  0  0  0  0  0  0
   12.8594  -17.5369   25.7893 O   0  0  0  0  0  0  0  0  0  0  0  0
  2  1  1  0
  3  2  1  0
  3  4  1  6
  5  3  1  0
  6  5  2  0
  7  5  1  0
  8  7  1  0
  9 10  1  0
  8  9  1  1
 10 18  1  0
 11 12  1  0
 11 10  2  0
 12 13  1  0
 13 18  2  0
 13 14  1  0
 14 15  2  0
 15 16  1  0
 17 16  2  0
 18 17  1  0
 19 24  1  0
 19  8  1  0
 20 19  2  0
 22 21  1  0
 23 24  1  0
 23 22  1  1
 25 23  1  0
 26 25  1  0
 27 25  2  0
M  END
$$$$
