SWS.pdb
     RDKit          3D

 27 28  0  0  1  0  0  0  0  0999 V2000
    7.9895  -17.6548   20.2902 O   0  0  0  0  0  0  0  0  0  0  0  0
    7.6128  -16.4174   19.7470 C   0  0  0  0  0  0  0  0  0  0  0  0
    7.1451  -15.5522   20.8884 C   0  0  2  0  0  0  0  0  0  0  0  0
    6.5986  -14.3014   20.4700 N   0  0  0  0  0  0  0  0  0  0  0  0
    8.1902  -15.3647   21.9215 C   0  0  0  0  0  0  0  0  0  0  0  0
    8.9780  -14.3714   21.8198 O   0  0  0  0  0  0  0  0  0  0  0  0
    8.3745  -16.2208   23.0220 N   0  0  0  0  0  0  0  0  0  0  0  0
    9.4120  -15.9918   24.0591 C   0  0  1  0  0  0  0  0  0  0  0  0
    8.6911  -16.1092   25.3432 C   0  0  0  0  0  0  0  0  0  0  0  0
    7.5717  -15.1952   25.5981 C   0  0  0  0  0  0  0  0  0  0  0  0
    6.2201  -15.4791   25.5914 C   0  0  0  0  0  0  0  0  0  0  0  0
    5.5144  -14.3677   25.8653 N   0  0  0  0  0  0  0  0  0  0  0  0
    6.3684  -13.3465   26.0553 C   0  0  0  0  0  0  0  0  0  0  0  0
    6.1420  -12.0231   26.3728 C   0  0  0  0  0  0  0  0  0  0  0  0
    7.2217  -11.1841   26.5305 C   0  0  0  0  0  0  0  0  0  0  0  0
    8.5286  -11.6419   26.3765 C   0  0  0  0  0  0  0  0  0  0  0  0
    8.6981  -12.9795   26.0571 C   0  0  0  0  0  0  0  0  0  0  0  0
    7.6437  -13.8507   25.8912 C   0  0  0  0  0  0  0  0  0  0  0  0
   10.5782  -16.8218   23.8262 C   0  0  0  0  0  0  0  0  0  0  0  0
   10.5535  -18.0749   24.0817 O   0  0  0  0  0  0  0  0  0  0  0  0
   14.2067  -15.2321   22.5939 O   0  0  0  0  0  0  0  0  0  0  0  0
   13.9176  -16.5119   22.1904 C   0  0  0  0  0  0  0  0  0  0  0  0
   12.9485  -17.2107   23.1829 C   0  0  2  0  0  0  0  0  0  0  0  0
   11.7995  -16.3178   23.3016 N   0  0  0  0  0  0  0  0  0  0  0  0
   13.6355  -17.4439   24.4592 C   0  0  0  0  0  0  0  0  0  0  0  0
   14.7557  -18.2777   24.5367 O   0  0  0  0  0  0  0  0  0  0  0  0
   13.2716  -16.9238   25.5371 O   0  0  0  0  0  0  0  0  0  0  0  0
  2  1  1  0
  3  2  1  0
  3  4  1  6
  5  3  1  0
  6  5  2  0
  7  5  1  0
  8  7  1  0
  9 10  1  0
  8  9  1  1
 10 18  1  0
 11 12  1  0
 11 10  2  0
 12 13  1  0
 13 18  2  0
 13 14  1  0
 14 15  2  0
 15 16  1  0
 17 16  2  0
 18 17  1  0
 19 24  1  0
 19  8  1  0
 20 19  2  0
 22 21  1  0
 23 24  1  0
 23 22  1  6
 25 23  1  0
 26 25  1  0
 27 25  2  0
M  END
$$$$
