SWS.pdb
     RDKit          3D

 27 28  0  0  1  0  0  0  0  0999 V2000
    6.4239  -18.3375   19.6453 O   0  0  0  0  0  0  0  0  0  0  0  0
    7.5318  -17.7060   20.2300 C   0  0  0  0  0  0  0  0  0  0  0  0
    7.0103  -16.5448   21.0361 C   0  0  2  0  0  0  0  0  0  0  0  0
    6.4490  -15.5023   20.2384 N   0  0  0  0  0  0  0  0  0  0  0  0
    8.0189  -16.0149   21.9829 C   0  0  0  0  0  0  0  0  0  0  0  0
    8.7129  -15.0074   21.6351 O   0  0  0  0  0  0  0  0  0  0  0  0
    8.2660  -16.5561   23.2574 N   0  0  0  0  0  0  0  0  0  0  0  0
    9.3700  -16.0891   24.1333 C   0  0  1  0  0  0  0  0  0  0  0  0
    8.7710  -16.0093   25.4814 C   0  0  0  0  0  0  0  0  0  0  0  0
    7.5923  -15.1555   25.6689 C   0  0  0  0  0  0  0  0  0  0  0  0
    6.2603  -15.5170   25.6179 C   0  0  0  0  0  0  0  0  0  0  0  0
    5.4823  -14.4420   25.8349 N   0  0  0  0  0  0  0  0  0  0  0  0
    6.2687  -13.3689   26.0305 C   0  0  0  0  0  0  0  0  0  0  0  0
    5.9552  -12.0534   26.3039 C   0  0  0  0  0  0  0  0  0  0  0  0
    6.9784  -11.1499   26.4806 C   0  0  0  0  0  0  0  0  0  0  0  0
    8.3142  -11.5352   26.3890 C   0  0  0  0  0  0  0  0  0  0  0  0
    8.5720  -12.8680   26.1119 C   0  0  0  0  0  0  0  0  0  0  0  0
    7.5762  -13.8025   25.9288 C   0  0  0  0  0  0  0  0  0  0  0  0
   10.5663  -16.8856   23.9389 C   0  0  0  0  0  0  0  0  0  0  0  0
   10.5158  -18.1634   23.9676 O   0  0  0  0  0  0  0  0  0  0  0  0
   14.1805  -15.1827   22.9452 O   0  0  0  0  0  0  0  0  0  0  0  0
   13.9672  -16.4906   22.5869 C   0  0  0  0  0  0  0  0  0  0  0  0
   13.0071  -17.1983   23.5818 C   0  0  2  0  0  0  0  0  0  0  0  0
   11.8476  -16.3189   23.6990 N   0  0  0  0  0  0  0  0  0  0  0  0
   13.6977  -17.4201   24.8583 C   0  0  0  0  0  0  0  0  0  0  0  0
   14.8470  -18.2137   24.9313 O   0  0  0  0  0  0  0  0  0  0  0  0
   13.3115  -16.9249   25.9401 O   0  0  0  0  0  0  0  0  0  0  0  0
  2  1  1  0
  3  2  1  0
  3  4  1  6
  5  3  1  0
  6  5  2  0
  7  5  1  0
  8  7  1  0
  9 10  1  0
  8  9  1  1
 10 18  1  0
 11 12  1  0
 11 10  2  0
 12 13  1  0
 13 18  2  0
 13 14  1  0
 14 15  2  0
 15 16  1  0
 17 16  2  0
 18 17  1  0
 19 24  1  0
 19  8  1  0
 20 19  2  0
 22 21  1  0
 23 24  1  0
 23 22  1  6
 25 23  1  0
 26 25  1  0
 27 25  2  0
M  END
$$$$
