SWS.pdb
     RDKit          3D

 27 28  0  0  1  0  0  0  0  0999 V2000
    9.5998  -19.1924   19.9785 O   0  0  0  0  0  0  0  0  0  0  0  0
    9.9902  -18.4038   18.8858 C   0  0  0  0  0  0  0  0  0  0  0  0
    9.1765  -17.1368   18.9358 C   0  0  2  0  0  0  0  0  0  0  0  0
    9.4007  -16.2701   17.8237 N   0  0  0  0  0  0  0  0  0  0  0  0
    9.3310  -16.4154   20.2205 C   0  0  0  0  0  0  0  0  0  0  0  0
   10.3211  -15.6302   20.3646 O   0  0  0  0  0  0  0  0  0  0  0  0
    8.4466  -16.5404   21.3070 N   0  0  0  0  0  0  0  0  0  0  0  0
    8.6672  -15.8644   22.6103 C   0  0  1  0  0  0  0  0  0  0  0  0
    7.3300  -15.3839   23.0146 C   0  0  0  0  0  0  0  0  0  0  0  0
    7.1020  -15.0726   24.4304 C   0  0  0  0  0  0  0  0  0  0  0  0
    6.7949  -15.9443   25.4567 C   0  0  0  0  0  0  0  0  0  0  0  0
    6.6557  -15.2674   26.6102 N   0  0  0  0  0  0  0  0  0  0  0  0
    6.8644  -13.9600   26.3747 C   0  0  0  0  0  0  0  0  0  0  0  0
    6.8518  -12.8729   27.2242 C   0  0  0  0  0  0  0  0  0  0  0  0
    7.1240  -11.6255   26.7102 C   0  0  0  0  0  0  0  0  0  0  0  0
    7.4094  -11.4408   25.3590 C   0  0  0  0  0  0  0  0  0  0  0  0
    7.4079  -12.5665   24.5512 C   0  0  0  0  0  0  0  0  0  0  0  0
    7.1408  -13.8314   25.0275 C   0  0  0  0  0  0  0  0  0  0  0  0
    9.4178  -16.7096   23.5189 C   0  0  0  0  0  0  0  0  0  0  0  0
    9.0680  -17.9221   23.7274 O   0  0  0  0  0  0  0  0  0  0  0  0
   12.9484  -15.4566   25.2185 O   0  0  0  0  0  0  0  0  0  0  0  0
   12.7701  -16.8032   25.0203 C   0  0  0  0  0  0  0  0  0  0  0  0
   11.2689  -17.1920   25.1075 C   0  0  2  0  0  0  0  0  0  0  0  0
   10.5728  -16.2662   24.2188 N   0  0  0  0  0  0  0  0  0  0  0  0
   10.8186  -17.1056   26.5022 C   0  0  0  0  0  0  0  0  0  0  0  0
   11.3636  -17.9307   27.4914 O   0  0  0  0  0  0  0  0  0  0  0  0
    9.9374  -16.3062   26.8884 O   0  0  0  0  0  0  0  0  0  0  0  0
  2  1  1  0
  3  2  1  0
  3  4  1  6
  5  3  1  0
  6  5  2  0
  7  5  1  0
  8  7  1  0
  9 10  1  0
  8  9  1  1
 10 18  1  0
 11 12  1  0
 11 10  2  0
 12 13  1  0
 13 18  2  0
 13 14  1  0
 14 15  2  0
 15 16  1  0
 17 16  2  0
 18 17  1  0
 19 24  1  0
 19  8  1  0
 20 19  2  0
 22 21  1  0
 23 24  1  0
 23 22  1  1
 25 23  1  0
 26 25  1  0
 27 25  2  0
M  END
$$$$
