SWS.pdb
     RDKit          3D

 27 28  0  0  1  0  0  0  0  0999 V2000
    8.0771  -17.4620   19.6175 O   0  0  0  0  0  0  0  0  0  0  0  0
    6.9347  -17.2754   20.4103 C   0  0  0  0  0  0  0  0  0  0  0  0
    6.9690  -15.8567   20.9164 C   0  0  2  0  0  0  0  0  0  0  0  0
    6.9148  -14.8786   19.8779 N   0  0  0  0  0  0  0  0  0  0  0  0
    8.1085  -15.6093   21.8303 C   0  0  0  0  0  0  0  0  0  0  0  0
    9.0550  -14.8567   21.4362 O   0  0  0  0  0  0  0  0  0  0  0  0
    8.2179  -16.1568   23.1212 N   0  0  0  0  0  0  0  0  0  0  0  0
    9.3646  -15.8785   24.0223 C   0  0  1  0  0  0  0  0  0  0  0  0
    8.7870  -15.8995   25.3818 C   0  0  0  0  0  0  0  0  0  0  0  0
    7.6374  -15.0315   25.6621 C   0  0  0  0  0  0  0  0  0  0  0  0
    6.3010  -15.3762   25.7138 C   0  0  0  0  0  0  0  0  0  0  0  0
    5.5559  -14.2922   25.9930 N   0  0  0  0  0  0  0  0  0  0  0  0
    6.3687  -13.2296   26.1293 C   0  0  0  0  0  0  0  0  0  0  0  0
    6.0941  -11.9112   26.4292 C   0  0  0  0  0  0  0  0  0  0  0  0
    7.1394  -11.0212   26.5281 C   0  0  0  0  0  0  0  0  0  0  0  0
    8.4591  -11.4229   26.3322 C   0  0  0  0  0  0  0  0  0  0  0  0
    8.6775  -12.7580   26.0329 C   0  0  0  0  0  0  0  0  0  0  0  0
    7.6587  -13.6793   25.9255 C   0  0  0  0  0  0  0  0  0  0  0  0
   10.4901  -16.7419   23.7205 C   0  0  0  0  0  0  0  0  0  0  0  0
   10.3573  -18.0141   23.7114 O   0  0  0  0  0  0  0  0  0  0  0  0
   14.1875  -15.2040   22.8014 O   0  0  0  0  0  0  0  0  0  0  0  0
   13.9509  -16.4962   22.4030 C   0  0  0  0  0  0  0  0  0  0  0  0
   12.9036  -17.1860   23.3196 C   0  0  2  0  0  0  0  0  0  0  0  0
   11.7873  -16.2496   23.4115 N   0  0  0  0  0  0  0  0  0  0  0  0
   13.5130  -17.4907   24.6200 C   0  0  0  0  0  0  0  0  0  0  0  0
   14.5668  -18.4038   24.7295 O   0  0  0  0  0  0  0  0  0  0  0  0
   13.1376  -16.9655   25.6914 O   0  0  0  0  0  0  0  0  0  0  0  0
  2  1  1  0
  3  2  1  0
  3  4  1  6
  5  3  1  0
  6  5  2  0
  7  5  1  0
  8  7  1  0
  9 10  1  0
  8  9  1  1
 10 18  1  0
 11 12  1  0
 11 10  2  0
 12 13  1  0
 13 18  2  0
 13 14  1  0
 14 15  2  0
 15 16  1  0
 17 16  2  0
 18 17  1  0
 19 24  1  0
 19  8  1  0
 20 19  2  0
 22 21  1  0
 23 24  1  0
 23 22  1  6
 25 23  1  0
 26 25  1  0
 27 25  2  0
M  END
$$$$
