SWS.pdb
     RDKit          3D

 27 28  0  0  1  0  0  0  0  0999 V2000
    8.7199  -16.1416   18.8961 O   0  0  0  0  0  0  0  0  0  0  0  0
    7.4726  -16.2531   19.5284 C   0  0  0  0  0  0  0  0  0  0  0  0
    7.2869  -15.0180   20.3712 C   0  0  2  0  0  0  0  0  0  0  0  0
    7.3200  -13.8043   19.6204 N   0  0  0  0  0  0  0  0  0  0  0  0
    8.2248  -14.9685   21.5169 C   0  0  0  0  0  0  0  0  0  0  0  0
    9.1289  -14.0740   21.5275 O   0  0  0  0  0  0  0  0  0  0  0  0
    8.1846  -15.8543   22.6086 N   0  0  0  0  0  0  0  0  0  0  0  0
    9.2030  -15.8520   23.6889 C   0  0  1  0  0  0  0  0  0  0  0  0
    8.4435  -16.1484   24.9209 C   0  0  0  0  0  0  0  0  0  0  0  0
    7.4062  -15.2002   25.3431 C   0  0  0  0  0  0  0  0  0  0  0  0
    6.0383  -15.3889   25.3709 C   0  0  0  0  0  0  0  0  0  0  0  0
    5.4284  -14.2758   25.8149 N   0  0  0  0  0  0  0  0  0  0  0  0
    6.3624  -13.3468   26.0849 C   0  0  0  0  0  0  0  0  0  0  0  0
    6.2477  -12.0617   26.5737 C   0  0  0  0  0  0  0  0  0  0  0  0
    7.3918  -11.3243   26.7776 C   0  0  0  0  0  0  0  0  0  0  0  0
    8.6538  -11.8464   26.5018 C   0  0  0  0  0  0  0  0  0  0  0  0
    8.7108  -13.1414   26.0123 C   0  0  0  0  0  0  0  0  0  0  0  0
    7.5892  -13.9114   25.7950 C   0  0  0  0  0  0  0  0  0  0  0  0
   10.3375  -16.6860   23.3417 C   0  0  0  0  0  0  0  0  0  0  0  0
   10.1672  -17.8464   22.8314 O   0  0  0  0  0  0  0  0  0  0  0  0
   14.2856  -15.3845   23.4096 O   0  0  0  0  0  0  0  0  0  0  0  0
   13.9184  -16.4807   22.6693 C   0  0  0  0  0  0  0  0  0  0  0  0
   12.7576  -17.2571   23.3492 C   0  0  2  0  0  0  0  0  0  0  0  0
   11.6871  -16.2809   23.5296 N   0  0  0  0  0  0  0  0  0  0  0  0
   13.2289  -17.8403   24.6114 C   0  0  0  0  0  0  0  0  0  0  0  0
   14.2561  -18.7893   24.6315 O   0  0  0  0  0  0  0  0  0  0  0  0
   12.7528  -17.5335   25.7267 O   0  0  0  0  0  0  0  0  0  0  0  0
  2  1  1  0
  3  2  1  0
  3  4  1  6
  5  3  1  0
  6  5  2  0
  7  5  1  0
  8  7  1  0
  9 10  1  0
  8  9  1  1
 10 18  1  0
 11 12  1  0
 11 10  2  0
 12 13  1  0
 13 18  2  0
 13 14  1  0
 14 15  2  0
 15 16  1  0
 17 16  2  0
 18 17  1  0
 19 24  1  0
 19  8  1  0
 20 19  2  0
 22 21  1  0
 23 24  1  0
 23 22  1  1
 25 23  1  0
 26 25  1  0
 27 25  2  0
M  END
$$$$
