SWS.pdb
     RDKit          3D

 27 28  0  0  1  0  0  0  0  0999 V2000
    9.5595  -18.3062   18.6795 O   0  0  0  0  0  0  0  0  0  0  0  0
    8.2945  -17.8304   18.3034 C   0  0  0  0  0  0  0  0  0  0  0  0
    8.3426  -16.3263   18.3777 C   0  0  2  0  0  0  0  0  0  0  0  0
    9.1965  -15.7334   17.3992 N   0  0  0  0  0  0  0  0  0  0  0  0
    8.6622  -15.8370   19.7390 C   0  0  0  0  0  0  0  0  0  0  0  0
    9.8562  -15.4814   19.9953 O   0  0  0  0  0  0  0  0  0  0  0  0
    7.7241  -15.7372   20.7821 N   0  0  0  0  0  0  0  0  0  0  0  0
    8.0966  -15.3676   22.1710 C   0  0  1  0  0  0  0  0  0  0  0  0
    6.8116  -15.0751   22.8386 C   0  0  0  0  0  0  0  0  0  0  0  0
    6.8145  -14.8666   24.2912 C   0  0  0  0  0  0  0  0  0  0  0  0
    6.6630  -15.8098   25.2886 C   0  0  0  0  0  0  0  0  0  0  0  0
    6.7167  -15.2178   26.4948 N   0  0  0  0  0  0  0  0  0  0  0  0
    6.9016  -13.8970   26.3227 C   0  0  0  0  0  0  0  0  0  0  0  0
    7.0373  -12.8741   27.2385 C   0  0  0  0  0  0  0  0  0  0  0  0
    7.2402  -11.5930   26.7779 C   0  0  0  0  0  0  0  0  0  0  0  0
    7.3102  -11.3116   25.4151 C   0  0  0  0  0  0  0  0  0  0  0  0
    7.1669  -12.3761   24.5398 C   0  0  0  0  0  0  0  0  0  0  0  0
    6.9628  -13.6718   24.9613 C   0  0  0  0  0  0  0  0  0  0  0  0
    8.9868  -16.3526   22.7548 C   0  0  0  0  0  0  0  0  0  0  0  0
    8.8088  -17.6022   22.5481 O   0  0  0  0  0  0  0  0  0  0  0  0
   13.2948  -17.5926   24.2467 O   0  0  0  0  0  0  0  0  0  0  0  0
   12.3997  -16.6489   23.8079 C   0  0  0  0  0  0  0  0  0  0  0  0
   10.9376  -17.0709   24.1190 C   0  0  2  0  0  0  0  0  0  0  0  0
   10.0990  -16.0091   23.5706 N   0  0  0  0  0  0  0  0  0  0  0  0
   10.7745  -17.2487   25.5672 C   0  0  0  0  0  0  0  0  0  0  0  0
   11.4285  -18.2806   26.2481 O   0  0  0  0  0  0  0  0  0  0  0  0
   10.0556  -16.5054   26.2710 O   0  0  0  0  0  0  0  0  0  0  0  0
  2  1  1  0
  3  2  1  0
  3  4  1  6
  5  3  1  0
  6  5  2  0
  7  5  1  0
  8  7  1  0
  9 10  1  0
  8  9  1  1
 10 18  1  0
 11 12  1  0
 11 10  2  0
 12 13  1  0
 13 18  2  0
 13 14  1  0
 14 15  2  0
 15 16  1  0
 17 16  2  0
 18 17  1  0
 19 24  1  0
 19  8  1  0
 20 19  2  0
 22 21  1  0
 23 24  1  0
 23 22  1  1
 25 23  1  0
 26 25  1  0
 27 25  2  0
M  END
$$$$
