SWS.pdb
     RDKit          3D

 27 28  0  0  1  0  0  0  0  0999 V2000
   11.1335  -18.5577   19.3627 O   0  0  0  0  0  0  0  0  0  0  0  0
    9.8791  -18.1245   18.9076 C   0  0  0  0  0  0  0  0  0  0  0  0
    9.8880  -16.6182   18.9394 C   0  0  2  0  0  0  0  0  0  0  0  0
   10.9502  -16.0374   18.1826 N   0  0  0  0  0  0  0  0  0  0  0  0
    9.8540  -16.0812   20.3197 C   0  0  0  0  0  0  0  0  0  0  0  0
   10.9395  -15.6759   20.8442 O   0  0  0  0  0  0  0  0  0  0  0  0
    8.6885  -15.9874   21.1014 N   0  0  0  0  0  0  0  0  0  0  0  0
    8.7057  -15.5985   22.5341 C   0  0  1  0  0  0  0  0  0  0  0  0
    7.3293  -15.1412   22.8151 C   0  0  0  0  0  0  0  0  0  0  0  0
    6.9665  -14.8417   24.2051 C   0  0  0  0  0  0  0  0  0  0  0  0
    6.4421  -15.6981   25.1533 C   0  0  0  0  0  0  0  0  0  0  0  0
    6.2393  -15.0390   26.3077 N   0  0  0  0  0  0  0  0  0  0  0  0
    6.6185  -13.7586   26.1495 C   0  0  0  0  0  0  0  0  0  0  0  0
    6.6231  -12.6991   27.0332 C   0  0  0  0  0  0  0  0  0  0  0  0
    7.0923  -11.4785   26.6039 C   0  0  0  0  0  0  0  0  0  0  0  0
    7.5588  -11.2936   25.3040 C   0  0  0  0  0  0  0  0  0  0  0  0
    7.5310  -12.3910   24.4586 C   0  0  0  0  0  0  0  0  0  0  0  0
    7.0694  -13.6286   24.8504 C   0  0  0  0  0  0  0  0  0  0  0  0
    9.2826  -16.6459   23.3548 C   0  0  0  0  0  0  0  0  0  0  0  0
    9.3653  -17.8471   22.9233 O   0  0  0  0  0  0  0  0  0  0  0  0
   12.7462  -18.0104   23.8949 O   0  0  0  0  0  0  0  0  0  0  0  0
   12.1317  -16.9084   24.4357 C   0  0  0  0  0  0  0  0  0  0  0  0
   10.8304  -17.3007   25.1874 C   0  0  2  0  0  0  0  0  0  0  0  0
    9.7935  -16.4176   24.6615 N   0  0  0  0  0  0  0  0  0  0  0  0
   11.0355  -17.1565   26.6340 C   0  0  0  0  0  0  0  0  0  0  0  0
   11.9223  -17.9877   27.3259 O   0  0  0  0  0  0  0  0  0  0  0  0
   10.4433  -16.2999   27.3269 O   0  0  0  0  0  0  0  0  0  0  0  0
  2  1  1  0
  3  2  1  0
  3  4  1  1
  5  3  1  0
  6  5  2  0
  7  5  1  0
  8  7  1  0
  9 10  1  0
  8  9  1  1
 10 18  1  0
 11 12  1  0
 11 10  2  0
 12 13  1  0
 13 18  2  0
 13 14  1  0
 14 15  2  0
 15 16  1  0
 17 16  2  0
 18 17  1  0
 19 24  1  0
 19  8  1  0
 20 19  2  0
 22 21  1  0
 23 24  1  0
 23 22  1  6
 25 23  1  0
 26 25  1  0
 27 25  2  0
M  END
$$$$
