PWC.pdb
     RDKit          3D

 28 30  0  0  1  0  0  0  0  0999 V2000
   27.4769  -19.6225  -14.3658 N   0  0  0  0  0  0  0  0  0  0  0  0
   28.8515  -19.2299  -14.2139 C   0  0  0  0  0  0  0  0  0  0  0  0
   29.7114  -20.4539  -14.2513 C   0  0  0  0  0  0  0  0  0  0  0  0
   28.7602  -21.6010  -14.1504 C   0  0  0  0  0  0  0  0  0  0  0  0
   27.3742  -21.0134  -14.0679 C   0  0  1  0  0  0  0  0  0  0  0  0
   26.7455  -21.2093  -12.7437 C   0  0  0  0  0  0  0  0  0  0  0  0
   26.1899  -22.2985  -12.4848 O   0  0  0  0  0  0  0  0  0  0  0  0
   26.7504  -20.1984  -11.7502 N   0  0  0  0  0  0  0  0  0  0  0  0
   25.9758  -20.2822  -10.5342 C   0  0  1  0  0  0  0  0  0  0  0  0
   26.5102  -19.3468   -9.4658 C   0  0  0  0  0  0  0  0  0  0  0  0
   26.4452  -20.0684   -8.1687 C   0  0  0  0  0  0  0  0  0  0  0  0
   25.5103  -21.0409   -7.8514 C   0  0  0  0  0  0  0  0  0  0  0  0
   25.7915  -21.4315   -6.6085 N   0  0  0  0  0  0  0  0  0  0  0  0
   26.8555  -20.7617   -6.1139 C   0  0  0  0  0  0  0  0  0  0  0  0
   27.5415  -20.7830   -4.9114 C   0  0  0  0  0  0  0  0  0  0  0  0
   28.6368  -19.9604   -4.6671 C   0  0  0  0  0  0  0  0  0  0  0  0
   29.0553  -19.0891   -5.6630 C   0  0  0  0  0  0  0  0  0  0  0  0
   28.3636  -19.0836   -6.8439 C   0  0  0  0  0  0  0  0  0  0  0  0
   27.2852  -19.8898   -7.0919 C   0  0  0  0  0  0  0  0  0  0  0  0
   24.5269  -20.0463  -10.7866 C   0  0  0  0  0  0  0  0  0  0  0  0
   24.1627  -18.9121  -11.1925 O   0  0  0  0  0  0  0  0  0  0  0  0
   23.5585  -21.0633  -10.5806 N   0  0  0  0  0  0  0  0  0  0  0  0
   22.1915  -20.9618  -10.9936 C   0  0  1  0  0  0  0  0  0  0  0  0
   21.7766  -21.9715  -12.0169 C   0  0  0  0  0  0  0  0  0  0  0  0
   22.3921  -21.4439  -13.6418 S   0  0  0  0  0  0  0  0  0  0  0  0
   21.2565  -21.0090   -9.8157 C   0  0  0  0  0  0  0  0  0  0  0  0
   21.6598  -21.1178   -8.6471 O   0  0  0  0  0  0  0  0  0  0  0  0
   19.8937  -20.9258  -10.0744 O   0  0  0  0  0  0  0  0  0  0  0  0
  1  2  1  0
  3  2  1  0
  4  5  1  0
  4  3  1  0
  5  1  1  0
  6  8  1  0
  5  6  1  1
  7  6  2  0
  9  8  1  0
 10 11  1  0
  9 10  1  1
 11 12  2  0
 11 19  1  0
 12 13  1  0
 13 14  1  0
 14 15  2  0
 15 16  1  0
 17 16  2  0
 18 17  1  0
 19 18  2  0
 19 14  1  0
 20  9  1  0
 20 21  2  0
 22 20  1  0
 23 24  1  6
 23 22  1  0
 25 24  1  0
 26 23  1  0
 27 26  2  0
 28 26  1  0
M  END
$$$$
