PWC.pdb
     RDKit          3D

 28 30  0  0  1  0  0  0  0  0999 V2000
   28.2912  -21.2055  -14.0683 N   0  0  0  0  0  0  0  0  0  0  0  0
   27.5464  -21.2599  -15.2967 C   0  0  0  0  0  0  0  0  0  0  0  0
   27.4749  -19.8841  -15.8807 C   0  0  0  0  0  0  0  0  0  0  0  0
   27.9682  -18.9771  -14.8015 C   0  0  0  0  0  0  0  0  0  0  0  0
   28.3227  -19.8504  -13.6248 C   0  0  1  0  0  0  0  0  0  0  0  0
   27.4091  -19.6652  -12.4767 C   0  0  0  0  0  0  0  0  0  0  0  0
   26.8196  -18.5725  -12.3333 O   0  0  0  0  0  0  0  0  0  0  0  0
   27.1763  -20.6902  -11.5258 N   0  0  0  0  0  0  0  0  0  0  0  0
   26.4518  -20.4762  -10.2950 C   0  0  1  0  0  0  0  0  0  0  0  0
   25.2910  -21.4432  -10.1547 C   0  0  0  0  0  0  0  0  0  0  0  0
   24.2367  -21.0154  -11.1102 C   0  0  0  0  0  0  0  0  0  0  0  0
   23.2450  -20.0889  -10.8299 C   0  0  0  0  0  0  0  0  0  0  0  0
   22.5095  -19.9894  -11.9370 N   0  0  0  0  0  0  0  0  0  0  0  0
   22.9770  -20.8019  -12.9099 C   0  0  0  0  0  0  0  0  0  0  0  0
   22.5958  -21.0740  -14.2129 C   0  0  0  0  0  0  0  0  0  0  0  0
   23.2816  -21.9830  -15.0124 C   0  0  0  0  0  0  0  0  0  0  0  0
   24.3850  -22.6392  -14.4854 C   0  0  0  0  0  0  0  0  0  0  0  0
   24.7451  -22.3560  -13.1957 C   0  0  0  0  0  0  0  0  0  0  0  0
   24.0757  -21.4630  -12.4027 C   0  0  0  0  0  0  0  0  0  0  0  0
   27.3512  -20.5325   -9.1091 C   0  0  0  0  0  0  0  0  0  0  0  0
   28.2272  -21.4348   -9.0594 O   0  0  0  0  0  0  0  0  0  0  0  0
   27.2420  -19.5997   -8.0449 N   0  0  0  0  0  0  0  0  0  0  0  0
   27.7372  -19.8335   -6.7222 C   0  0  1  0  0  0  0  0  0  0  0  0
   28.1380  -18.5960   -5.9827 C   0  0  0  0  0  0  0  0  0  0  0  0
   29.3641  -17.6944   -6.9732 S   0  0  0  0  0  0  0  0  0  0  0  0
   26.7585  -20.6290   -5.9015 C   0  0  0  0  0  0  0  0  0  0  0  0
   25.6242  -20.9200   -6.3123 O   0  0  0  0  0  0  0  0  0  0  0  0
   27.1660  -21.0411   -4.6385 O   0  0  0  0  0  0  0  0  0  0  0  0
  1  2  1  0
  3  2  1  0
  4  5  1  0
  4  3  1  0
  5  1  1  0
  6  8  1  0
  5  6  1  1
  7  6  2  0
  9  8  1  0
 10 11  1  0
  9 10  1  1
 11 12  2  0
 11 19  1  0
 12 13  1  0
 13 14  1  0
 14 15  2  0
 15 16  1  0
 17 16  2  0
 18 17  1  0
 19 18  2  0
 19 14  1  0
 20  9  1  0
 20 21  2  0
 22 20  1  0
 23 24  1  1
 23 22  1  0
 25 24  1  0
 26 23  1  0
 27 26  2  0
 28 26  1  0
M  END
$$$$
