PWC.pdb
     RDKit          3D

 28 30  0  0  1  0  0  0  0  0999 V2000
   27.2070  -20.3002  -16.5239 N   0  0  0  0  0  0  0  0  0  0  0  0
   27.8594  -19.1315  -17.0488 C   0  0  0  0  0  0  0  0  0  0  0  0
   29.1355  -18.9118  -16.2991 C   0  0  0  0  0  0  0  0  0  0  0  0
   29.0639  -19.8374  -15.1291 C   0  0  0  0  0  0  0  0  0  0  0  0
   27.7544  -20.5768  -15.2364 C   0  0  1  0  0  0  0  0  0  0  0  0
   26.7931  -20.1981  -14.1783 C   0  0  0  0  0  0  0  0  0  0  0  0
   26.2083  -19.0957  -14.2482 O   0  0  0  0  0  0  0  0  0  0  0  0
   26.5090  -21.0469  -13.0792 N   0  0  0  0  0  0  0  0  0  0  0  0
   25.3849  -20.8453  -12.1954 C   0  0  1  0  0  0  0  0  0  0  0  0
   24.1759  -21.6487  -12.6371 C   0  0  0  0  0  0  0  0  0  0  0  0
   22.9949  -20.7497  -12.5705 C   0  0  0  0  0  0  0  0  0  0  0  0
   22.1278  -20.6627  -11.4930 C   0  0  0  0  0  0  0  0  0  0  0  0
   21.2126  -19.7536  -11.8284 N   0  0  0  0  0  0  0  0  0  0  0  0
   21.4475  -19.2546  -13.0617 C   0  0  0  0  0  0  0  0  0  0  0  0
   20.8224  -18.3140  -13.8627 C   0  0  0  0  0  0  0  0  0  0  0  0
   21.2968  -17.9839  -15.1284 C   0  0  0  0  0  0  0  0  0  0  0  0
   22.4352  -18.6196  -15.6036 C   0  0  0  0  0  0  0  0  0  0  0  0
   23.0378  -19.5460  -14.7964 C   0  0  0  0  0  0  0  0  0  0  0  0
   22.5773  -19.8761  -13.5500 C   0  0  0  0  0  0  0  0  0  0  0  0
   25.7397  -21.1339  -10.7779 C   0  0  0  0  0  0  0  0  0  0  0  0
   26.2290  -22.2586  -10.4961 O   0  0  0  0  0  0  0  0  0  0  0  0
   25.5393  -20.1770   -9.7490 N   0  0  0  0  0  0  0  0  0  0  0  0
   25.8223  -20.4176   -8.3664 C   0  0  1  0  0  0  0  0  0  0  0  0
   26.1677  -19.1913   -7.5819 C   0  0  0  0  0  0  0  0  0  0  0  0
   27.4266  -18.2505   -8.4917 S   0  0  0  0  0  0  0  0  0  0  0  0
   24.6968  -21.1574   -7.6956 C   0  0  0  0  0  0  0  0  0  0  0  0
   24.7651  -21.5550   -6.5220 O   0  0  0  0  0  0  0  0  0  0  0  0
   23.5480  -21.3913   -8.4417 O   0  0  0  0  0  0  0  0  0  0  0  0
  1  2  1  0
  3  2  1  0
  4  5  1  0
  4  3  1  0
  5  1  1  0
  6  8  1  0
  5  6  1  1
  7  6  2  0
  9  8  1  0
 10 11  1  0
  9 10  1  6
 11 12  2  0
 11 19  1  0
 12 13  1  0
 13 14  1  0
 14 15  2  0
 15 16  1  0
 17 16  2  0
 18 17  1  0
 19 18  2  0
 19 14  1  0
 20  9  1  0
 20 21  2  0
 22 20  1  0
 23 24  1  1
 23 22  1  0
 25 24  1  0
 26 23  1  0
 27 26  2  0
 28 26  1  0
M  END
$$$$
