PWC.pdb
     RDKit          3D

 28 30  0  0  1  0  0  0  0  0999 V2000
   27.1691  -19.0648  -14.3908 N   0  0  0  0  0  0  0  0  0  0  0  0
   28.5210  -18.7469  -14.0192 C   0  0  0  0  0  0  0  0  0  0  0  0
   29.4084  -19.8911  -14.3966 C   0  0  0  0  0  0  0  0  0  0  0  0
   28.4784  -21.0053  -14.7489 C   0  0  0  0  0  0  0  0  0  0  0  0
   27.0772  -20.4757  -14.5771 C   0  0  1  0  0  0  0  0  0  0  0  0
   26.3638  -21.0977  -13.4408 C   0  0  0  0  0  0  0  0  0  0  0  0
   26.1237  -22.3240  -13.4659 O   0  0  0  0  0  0  0  0  0  0  0  0
   25.9391  -20.3473  -12.3158 N   0  0  0  0  0  0  0  0  0  0  0  0
   25.0498  -20.8721  -11.3062 C   0  0  1  0  0  0  0  0  0  0  0  0
   25.3971  -20.3440   -9.9269 C   0  0  0  0  0  0  0  0  0  0  0  0
   26.7889  -20.7672   -9.6250 C   0  0  0  0  0  0  0  0  0  0  0  0
   27.5814  -21.5338  -10.4645 C   0  0  0  0  0  0  0  0  0  0  0  0
   28.7437  -21.6921   -9.8317 N   0  0  0  0  0  0  0  0  0  0  0  0
   28.7375  -21.0683   -8.6333 C   0  0  0  0  0  0  0  0  0  0  0  0
   29.6598  -20.9223   -7.6110 C   0  0  0  0  0  0  0  0  0  0  0  0
   29.3777  -20.2026   -6.4540 C   0  0  0  0  0  0  0  0  0  0  0  0
   28.1293  -19.6114   -6.3208 C   0  0  0  0  0  0  0  0  0  0  0  0
   27.2322  -19.7678   -7.3425 C   0  0  0  0  0  0  0  0  0  0  0  0
   27.5022  -20.4741   -8.4839 C   0  0  0  0  0  0  0  0  0  0  0  0
   23.6217  -20.6148  -11.6421 C   0  0  0  0  0  0  0  0  0  0  0  0
   23.0344  -19.6535  -11.0811 O   0  0  0  0  0  0  0  0  0  0  0  0
   22.9167  -21.4230  -12.5718 N   0  0  0  0  0  0  0  0  0  0  0  0
   21.6901  -21.0353  -13.2000 C   0  0  1  0  0  0  0  0  0  0  0  0
   21.7593  -19.7421  -13.9495 C   0  0  0  0  0  0  0  0  0  0  0  0
   20.1204  -19.3793  -14.6421 S   0  0  0  0  0  0  0  0  0  0  0  0
   21.1645  -22.1225  -14.0975 C   0  0  0  0  0  0  0  0  0  0  0  0
   21.8902  -23.0189  -14.5558 O   0  0  0  0  0  0  0  0  0  0  0  0
   19.8105  -22.0986  -14.4095 O   0  0  0  0  0  0  0  0  0  0  0  0
  1  2  1  0
  3  2  1  0
  4  5  1  0
  4  3  1  0
  5  1  1  0
  6  8  1  0
  5  6  1  1
  7  6  2  0
  9  8  1  0
 10 11  1  0
  9 10  1  1
 11 12  2  0
 11 19  1  0
 12 13  1  0
 13 14  1  0
 14 15  2  0
 15 16  1  0
 17 16  2  0
 18 17  1  0
 19 18  2  0
 19 14  1  0
 20  9  1  0
 20 21  2  0
 22 20  1  0
 23 24  1  6
 23 22  1  0
 25 24  1  0
 26 23  1  0
 27 26  2  0
 28 26  1  0
M  END
$$$$
