PWC.pdb
     RDKit          3D

 28 30  0  0  1  0  0  0  0  0999 V2000
   28.7346  -20.9398  -14.3236 N   0  0  0  0  0  0  0  0  0  0  0  0
   28.1796  -20.3162  -15.4941 C   0  0  0  0  0  0  0  0  0  0  0  0
   27.9402  -18.8681  -15.2034 C   0  0  0  0  0  0  0  0  0  0  0  0
   28.1167  -18.7332  -13.7265 C   0  0  0  0  0  0  0  0  0  0  0  0
   28.4640  -20.1030  -13.2010 C   0  0  1  0  0  0  0  0  0  0  0  0
   27.3891  -20.6891  -12.3715 C   0  0  0  0  0  0  0  0  0  0  0  0
   26.7578  -21.6800  -12.7980 O   0  0  0  0  0  0  0  0  0  0  0  0
   27.0464  -20.1635  -11.1006 N   0  0  0  0  0  0  0  0  0  0  0  0
   25.9238  -20.6383  -10.3260 C   0  0  1  0  0  0  0  0  0  0  0  0
   25.9052  -20.0278   -8.9371 C   0  0  0  0  0  0  0  0  0  0  0  0
   27.1969  -20.3649   -8.2848 C   0  0  0  0  0  0  0  0  0  0  0  0
   28.2003  -21.1247   -8.8646 C   0  0  0  0  0  0  0  0  0  0  0  0
   29.1782  -21.1951   -7.9617 N   0  0  0  0  0  0  0  0  0  0  0  0
   28.8546  -20.5216   -6.8361 C   0  0  0  0  0  0  0  0  0  0  0  0
   29.4926  -20.2842   -5.6304 C   0  0  0  0  0  0  0  0  0  0  0  0
   28.9080  -19.5310   -4.6170 C   0  0  0  0  0  0  0  0  0  0  0  0
   27.6423  -19.0002   -4.8222 C   0  0  0  0  0  0  0  0  0  0  0  0
   27.0290  -19.2466   -6.0207 C   0  0  0  0  0  0  0  0  0  0  0  0
   27.5975  -19.9864   -7.0226 C   0  0  0  0  0  0  0  0  0  0  0  0
   24.6323  -20.4157  -11.0339 C   0  0  0  0  0  0  0  0  0  0  0  0
   24.1472  -19.2546  -11.0519 O   0  0  0  0  0  0  0  0  0  0  0  0
   23.9444  -21.4749  -11.6816 N   0  0  0  0  0  0  0  0  0  0  0  0
   22.7771  -21.2941  -12.4905 C   0  0  1  0  0  0  0  0  0  0  0  0
   22.6160  -22.3058  -13.5810 C   0  0  0  0  0  0  0  0  0  0  0  0
   23.8499  -23.6176  -13.3485 S   0  0  0  0  0  0  0  0  0  0  0  0
   21.5296  -21.2396  -11.6509 C   0  0  0  0  0  0  0  0  0  0  0  0
   21.5259  -21.5193  -10.4419 O   0  0  0  0  0  0  0  0  0  0  0  0
   20.3498  -20.8584  -12.2785 O   0  0  0  0  0  0  0  0  0  0  0  0
  1  2  1  0
  3  2  1  0
  4  5  1  0
  4  3  1  0
  5  1  1  0
  6  8  1  0
  5  6  1  6
  7  6  2  0
  9  8  1  0
 10 11  1  0
  9 10  1  1
 11 12  2  0
 11 19  1  0
 12 13  1  0
 13 14  1  0
 14 15  2  0
 15 16  1  0
 17 16  2  0
 18 17  1  0
 19 18  2  0
 19 14  1  0
 20  9  1  0
 20 21  2  0
 22 20  1  0
 23 24  1  6
 23 22  1  0
 25 24  1  0
 26 23  1  0
 27 26  2  0
 28 26  1  0
M  END
$$$$
