PWC.pdb
     RDKit          3D

 28 30  0  0  1  0  0  0  0  0999 V2000
   27.5955  -20.1351  -15.4081 N   0  0  0  0  0  0  0  0  0  0  0  0
   29.0102  -20.0757  -15.1591 C   0  0  0  0  0  0  0  0  0  0  0  0
   29.5844  -21.4504  -15.2988 C   0  0  0  0  0  0  0  0  0  0  0  0
   28.4024  -22.3610  -15.3641 C   0  0  0  0  0  0  0  0  0  0  0  0
   27.1747  -21.4908  -15.2714 C   0  0  1  0  0  0  0  0  0  0  0  0
   26.4361  -21.6733  -14.0033 C   0  0  0  0  0  0  0  0  0  0  0  0
   26.0415  -22.8152  -13.6833 O   0  0  0  0  0  0  0  0  0  0  0  0
   26.1575  -20.5914  -13.1310 N   0  0  0  0  0  0  0  0  0  0  0  0
   25.2249  -20.6826  -12.0321 C   0  0  1  0  0  0  0  0  0  0  0  0
   25.6571  -19.8219  -10.8597 C   0  0  0  0  0  0  0  0  0  0  0  0
   26.8978  -20.4193  -10.3017 C   0  0  0  0  0  0  0  0  0  0  0  0
   27.8187  -21.1539  -11.0317 C   0  0  0  0  0  0  0  0  0  0  0  0
   28.7738  -21.5070  -10.1717 N   0  0  0  0  0  0  0  0  0  0  0  0
   28.5137  -21.0380   -8.9317 C   0  0  0  0  0  0  0  0  0  0  0  0
   29.1614  -21.1141   -7.7102 C   0  0  0  0  0  0  0  0  0  0  0  0
   28.6517  -20.5172   -6.5614 C   0  0  0  0  0  0  0  0  0  0  0  0
   27.4533  -19.8222   -6.6432 C   0  0  0  0  0  0  0  0  0  0  0  0
   26.8292  -19.7590   -7.8595 C   0  0  0  0  0  0  0  0  0  0  0  0
   27.3242  -20.3434   -8.9943 C   0  0  0  0  0  0  0  0  0  0  0  0
   23.8355  -20.3586  -12.4601 C   0  0  0  0  0  0  0  0  0  0  0  0
   23.6710  -19.5596  -13.4184 O   0  0  0  0  0  0  0  0  0  0  0  0
   22.7051  -20.9260  -11.8161 N   0  0  0  0  0  0  0  0  0  0  0  0
   21.4745  -21.2305  -12.4813 C   0  0  1  0  0  0  0  0  0  0  0  0
   21.6090  -22.1815  -13.6286 C   0  0  0  0  0  0  0  0  0  0  0  0
   19.9655  -22.4691  -14.3454 S   0  0  0  0  0  0  0  0  0  0  0  0
   20.4371  -21.7339  -11.5148 C   0  0  0  0  0  0  0  0  0  0  0  0
   20.6173  -22.7345  -10.8032 O   0  0  0  0  0  0  0  0  0  0  0  0
   19.2398  -21.0328  -11.4357 O   0  0  0  0  0  0  0  0  0  0  0  0
  1  2  1  0
  3  2  1  0
  4  5  1  0
  4  3  1  0
  5  1  1  0
  6  8  1  0
  5  6  1  1
  7  6  2  0
  9  8  1  0
 10 11  1  0
  9 10  1  1
 11 12  2  0
 11 19  1  0
 12 13  1  0
 13 14  1  0
 14 15  2  0
 15 16  1  0
 17 16  2  0
 18 17  1  0
 19 18  2  0
 19 14  1  0
 20  9  1  0
 20 21  2  0
 22 20  1  0
 23 24  1  6
 23 22  1  0
 25 24  1  0
 26 23  1  0
 27 26  2  0
 28 26  1  0
M  END
$$$$
