PWC.pdb
     RDKit          3D

 28 30  0  0  1  0  0  0  0  0999 V2000
   27.7134  -19.5837  -14.6128 N   0  0  0  0  0  0  0  0  0  0  0  0
   29.1429  -19.7203  -14.6828 C   0  0  0  0  0  0  0  0  0  0  0  0
   29.4749  -21.1089  -15.1306 C   0  0  0  0  0  0  0  0  0  0  0  0
   28.1879  -21.8622  -15.0496 C   0  0  0  0  0  0  0  0  0  0  0  0
   27.1418  -20.8894  -14.5676 C   0  0  1  0  0  0  0  0  0  0  0  0
   26.6620  -21.1923  -13.2019 C   0  0  0  0  0  0  0  0  0  0  0  0
   26.0052  -22.2365  -13.0011 O   0  0  0  0  0  0  0  0  0  0  0  0
   26.9223  -20.3343  -12.1041 N   0  0  0  0  0  0  0  0  0  0  0  0
   26.3394  -20.5255  -10.7967 C   0  0  1  0  0  0  0  0  0  0  0  0
   27.1185  -19.7871   -9.7244 C   0  0  0  0  0  0  0  0  0  0  0  0
   26.6344  -20.2739   -8.4068 C   0  0  0  0  0  0  0  0  0  0  0  0
   25.5102  -21.0624   -8.2201 C   0  0  0  0  0  0  0  0  0  0  0  0
   25.4228  -21.2755   -6.9073 N   0  0  0  0  0  0  0  0  0  0  0  0
   26.4301  -20.6662   -6.2445 C   0  0  0  0  0  0  0  0  0  0  0  0
   26.7983  -20.5727   -4.9130 C   0  0  0  0  0  0  0  0  0  0  0  0
   27.9192  -19.8585   -4.5013 C   0  0  0  0  0  0  0  0  0  0  0  0
   28.6939  -19.2181   -5.4582 C   0  0  0  0  0  0  0  0  0  0  0  0
   28.3127  -19.3229   -6.7685 C   0  0  0  0  0  0  0  0  0  0  0  0
   27.2114  -20.0237   -7.1815 C   0  0  0  0  0  0  0  0  0  0  0  0
   24.8981  -20.1503  -10.7757 C   0  0  0  0  0  0  0  0  0  0  0  0
   24.5816  -18.9594  -11.0310 O   0  0  0  0  0  0  0  0  0  0  0  0
   23.8848  -21.0981  -10.4765 N   0  0  0  0  0  0  0  0  0  0  0  0
   22.5015  -20.9188  -10.7986 C   0  0  1  0  0  0  0  0  0  0  0  0
   22.0129  -21.7696  -11.9283 C   0  0  0  0  0  0  0  0  0  0  0  0
   20.7472  -20.8487  -12.8488 S   0  0  0  0  0  0  0  0  0  0  0  0
   21.6259  -21.1151   -9.5908 C   0  0  0  0  0  0  0  0  0  0  0  0
   22.0686  -21.5185   -8.5038 O   0  0  0  0  0  0  0  0  0  0  0  0
   20.2733  -20.8262   -9.7249 O   0  0  0  0  0  0  0  0  0  0  0  0
  1  2  1  0
  3  2  1  0
  4  5  1  0
  4  3  1  0
  5  1  1  0
  6  8  1  0
  5  6  1  1
  7  6  2  0
  9  8  1  0
 10 11  1  0
  9 10  1  1
 11 12  2  0
 11 19  1  0
 12 13  1  0
 13 14  1  0
 14 15  2  0
 15 16  1  0
 17 16  2  0
 18 17  1  0
 19 18  2  0
 19 14  1  0
 20  9  1  0
 20 21  2  0
 22 20  1  0
 23 24  1  6
 23 22  1  0
 25 24  1  0
 26 23  1  0
 27 26  2  0
 28 26  1  0
M  END
$$$$
