PWC.pdb
     RDKit          3D

 28 30  0  0  1  0  0  0  0  0999 V2000
   28.0391  -19.6675  -14.6006 N   0  0  0  0  0  0  0  0  0  0  0  0
   29.4432  -19.9618  -14.6929 C   0  0  0  0  0  0  0  0  0  0  0  0
   29.6127  -21.3525  -15.2185 C   0  0  0  0  0  0  0  0  0  0  0  0
   28.2484  -21.9578  -15.1648 C   0  0  0  0  0  0  0  0  0  0  0  0
   27.3222  -20.9002  -14.6201 C   0  0  1  0  0  0  0  0  0  0  0  0
   26.8169  -21.2211  -13.2678 C   0  0  0  0  0  0  0  0  0  0  0  0
   26.0279  -22.1791  -13.1202 O   0  0  0  0  0  0  0  0  0  0  0  0
   27.1979  -20.4753  -12.1242 N   0  0  0  0  0  0  0  0  0  0  0  0
   26.5411  -20.6011  -10.8442 C   0  0  1  0  0  0  0  0  0  0  0  0
   27.2931  -19.8591   -9.7552 C   0  0  0  0  0  0  0  0  0  0  0  0
   26.7034  -20.2622   -8.4524 C   0  0  0  0  0  0  0  0  0  0  0  0
   25.4942  -20.9224   -8.3029 C   0  0  0  0  0  0  0  0  0  0  0  0
   25.3282  -21.0957   -6.9918 N   0  0  0  0  0  0  0  0  0  0  0  0
   26.3655  -20.5822   -6.2950 C   0  0  0  0  0  0  0  0  0  0  0  0
   26.6840  -20.4987   -4.9501 C   0  0  0  0  0  0  0  0  0  0  0  0
   27.8562  -19.8986   -4.5009 C   0  0  0  0  0  0  0  0  0  0  0  0
   28.7356  -19.3657   -5.4329 C   0  0  0  0  0  0  0  0  0  0  0  0
   28.4020  -19.4586   -6.7570 C   0  0  0  0  0  0  0  0  0  0  0  0
   27.2508  -20.0474   -7.2069 C   0  0  0  0  0  0  0  0  0  0  0  0
   25.1171  -20.1696  -10.9109 C   0  0  0  0  0  0  0  0  0  0  0  0
   24.8609  -18.9891  -11.2639 O   0  0  0  0  0  0  0  0  0  0  0  0
   24.0540  -21.0527  -10.5875 N   0  0  0  0  0  0  0  0  0  0  0  0
   22.6793  -20.7958  -10.8936 C   0  0  1  0  0  0  0  0  0  0  0  0
   22.1049  -21.6804  -11.9549 C   0  0  0  0  0  0  0  0  0  0  0  0
   20.3292  -21.3327  -12.1078 S   0  0  0  0  0  0  0  0  0  0  0  0
   21.8217  -20.8505   -9.6585 C   0  0  0  0  0  0  0  0  0  0  0  0
   21.9623  -21.7219   -8.7861 O   0  0  0  0  0  0  0  0  0  0  0  0
   20.8418  -19.8758   -9.5140 O   0  0  0  0  0  0  0  0  0  0  0  0
  1  2  1  0
  3  2  1  0
  4  5  1  0
  4  3  1  0
  5  1  1  0
  6  8  1  0
  5  6  1  1
  7  6  2  0
  9  8  1  0
 10 11  1  0
  9 10  1  1
 11 12  2  0
 11 19  1  0
 12 13  1  0
 13 14  1  0
 14 15  2  0
 15 16  1  0
 17 16  2  0
 18 17  1  0
 19 18  2  0
 19 14  1  0
 20  9  1  0
 20 21  2  0
 22 20  1  0
 23 24  1  6
 23 22  1  0
 25 24  1  0
 26 23  1  0
 27 26  2  0
 28 26  1  0
M  END
$$$$
