WFT.pdb
     RDKit          3D

 33 35  0  0  1  0  0  0  0  0999 V2000
   24.4837  -21.0290  -17.5309 N   0  0  0  0  0  0  0  0  0  0  0  0
   24.2988  -20.0116  -16.5278 C   0  0  1  0  0  0  0  0  0  0  0  0
   22.8806  -19.4877  -16.6552 C   0  0  0  0  0  0  0  0  0  0  0  0
   22.8794  -18.2156  -17.4232 C   0  0  0  0  0  0  0  0  0  0  0  0
   23.4867  -17.0203  -17.0763 C   0  0  0  0  0  0  0  0  0  0  0  0
   23.2488  -16.1403  -18.0397 N   0  0  0  0  0  0  0  0  0  0  0  0
   22.4990  -16.7035  -19.0266 C   0  0  0  0  0  0  0  0  0  0  0  0
   22.0044  -16.1933  -20.2080 C   0  0  0  0  0  0  0  0  0  0  0  0
   21.2560  -16.9718  -21.0496 C   0  0  0  0  0  0  0  0  0  0  0  0
   21.0177  -18.2781  -20.6724 C   0  0  0  0  0  0  0  0  0  0  0  0
   21.5101  -18.7884  -19.4964 C   0  0  0  0  0  0  0  0  0  0  0  0
   22.2757  -18.0061  -18.6252 C   0  0  0  0  0  0  0  0  0  0  0  0
   24.6504  -20.5019  -15.1879 C   0  0  0  0  0  0  0  0  0  0  0  0
   24.1297  -21.5621  -14.7132 O   0  0  0  0  0  0  0  0  0  0  0  0
   25.5790  -19.8575  -14.3018 N   0  0  0  0  0  0  0  0  0  0  0  0
   25.6240  -20.1418  -12.9263 C   0  0  1  0  0  0  0  0  0  0  0  0
   26.7043  -19.3961  -12.1605 C   0  0  0  0  0  0  0  0  0  0  0  0
   26.7663  -19.8598  -10.7510 C   0  0  0  0  0  0  0  0  0  0  0  0
   27.3707  -21.0975  -10.5410 C   0  0  0  0  0  0  0  0  0  0  0  0
   27.4850  -21.6090   -9.2857 C   0  0  0  0  0  0  0  0  0  0  0  0
   26.9863  -20.8649   -8.2334 C   0  0  0  0  0  0  0  0  0  0  0  0
   26.3897  -19.6407   -8.4334 C   0  0  0  0  0  0  0  0  0  0  0  0
   26.2704  -19.1196   -9.7022 C   0  0  0  0  0  0  0  0  0  0  0  0
   24.3786  -20.1401  -12.1621 C   0  0  0  0  0  0  0  0  0  0  0  0
   23.6106  -19.1271  -12.2974 O   0  0  0  0  0  0  0  0  0  0  0  0
   21.3744  -20.4489  -12.6162 C   0  0  0  0  0  0  0  0  0  0  0  0
   21.4590  -21.3371  -11.4139 C   0  0  1  0  0  0  0  0  0  0  0  0
   21.5371  -22.6611  -11.8304 O   0  0  0  0  0  0  0  0  0  0  0  0
   22.6308  -20.9732  -10.5757 C   0  0  2  0  0  0  0  0  0  0  0  0
   23.9079  -21.1393  -11.2726 N   0  0  0  0  0  0  0  0  0  0  0  0
   22.6740  -21.6868   -9.2572 C   0  0  0  0  0  0  0  0  0  0  0  0
   21.7280  -21.6216   -8.4367 O   0  0  0  0  0  0  0  0  0  0  0  0
   23.7537  -22.4621   -8.8473 O   0  0  0  0  0  0  0  0  0  0  0  0
  2  1  1  6
  2  3  1  0
  3  4  1  0
  4  5  2  0
  5  6  1  0
  7  6  1  0
  8  7  2  0
  9  8  1  0
 10 11  1  0
 10  9  2  0
 11 12  2  0
 12  4  1  0
 12  7  1  0
 13  2  1  0
 13 14  2  0
 15 13  1  0
 16 15  1  0
 16 17  1  1
 18 23  1  0
 18 17  1  0
 19 18  2  0
 20 21  2  0
 20 19  1  0
 21 22  1  0
 22 23  2  0
 24 16  1  0
 25 24  2  0
 27 26  1  6
 27 28  1  0
 29 30  1  6
 29 27  1  0
 30 24  1  0
 31 29  1  0
 32 31  2  0
 33 31  1  0
M  END
$$$$
