WFT.pdb
     RDKit          3D

 33 35  0  0  1  0  0  0  0  0999 V2000
   27.8806  -21.0203  -14.3820 N   0  0  0  0  0  0  0  0  0  0  0  0
   26.7468  -20.1567  -14.1713 C   0  0  1  0  0  0  0  0  0  0  0  0
   26.2679  -19.6810  -15.5301 C   0  0  0  0  0  0  0  0  0  0  0  0
   27.2024  -18.6567  -16.0646 C   0  0  0  0  0  0  0  0  0  0  0  0
   28.1201  -18.8058  -17.0910 C   0  0  0  0  0  0  0  0  0  0  0  0
   28.7471  -17.6489  -17.2570 N   0  0  0  0  0  0  0  0  0  0  0  0
   28.2823  -16.7227  -16.3742 C   0  0  0  0  0  0  0  0  0  0  0  0
   28.6235  -15.4037  -16.1629 C   0  0  0  0  0  0  0  0  0  0  0  0
   28.0040  -14.6659  -15.1902 C   0  0  0  0  0  0  0  0  0  0  0  0
   27.0311  -15.2889  -14.4347 C   0  0  0  0  0  0  0  0  0  0  0  0
   26.6893  -16.6024  -14.6440 C   0  0  0  0  0  0  0  0  0  0  0  0
   27.3131  -17.3703  -15.6331 C   0  0  0  0  0  0  0  0  0  0  0  0
   25.7141  -20.8083  -13.3539 C   0  0  0  0  0  0  0  0  0  0  0  0
   25.5393  -22.0688  -13.3895 O   0  0  0  0  0  0  0  0  0  0  0  0
   24.8210  -20.1177  -12.4661 N   0  0  0  0  0  0  0  0  0  0  0  0
   23.8135  -20.7837  -11.7477 C   0  0  1  0  0  0  0  0  0  0  0  0
   23.6837  -20.3566  -10.2950 C   0  0  0  0  0  0  0  0  0  0  0  0
   24.9931  -20.4473   -9.6002 C   0  0  0  0  0  0  0  0  0  0  0  0
   25.4364  -21.7331   -9.2977 C   0  0  0  0  0  0  0  0  0  0  0  0
   26.6273  -21.9256   -8.6689 C   0  0  0  0  0  0  0  0  0  0  0  0
   27.3775  -20.8115   -8.3438 C   0  0  0  0  0  0  0  0  0  0  0  0
   26.9465  -19.5387   -8.6413 C   0  0  0  0  0  0  0  0  0  0  0  0
   25.7413  -19.3387   -9.2762 C   0  0  0  0  0  0  0  0  0  0  0  0
   22.4886  -20.9208  -12.3484 C   0  0  0  0  0  0  0  0  0  0  0  0
   21.8537  -19.8441  -12.6165 O   0  0  0  0  0  0  0  0  0  0  0  0
   21.2605  -23.2789  -15.3383 C   0  0  0  0  0  0  0  0  0  0  0  0
   20.2606  -23.2459  -14.2244 C   0  0  1  0  0  0  0  0  0  0  0  0
   20.3355  -24.4360  -13.5098 O   0  0  0  0  0  0  0  0  0  0  0  0
   20.5020  -22.0775  -13.3387 C   0  0  2  0  0  0  0  0  0  0  0  0
   21.8070  -22.1206  -12.6758 N   0  0  0  0  0  0  0  0  0  0  0  0
   19.4216  -21.8583  -12.3217 C   0  0  0  0  0  0  0  0  0  0  0  0
   19.6482  -21.9199  -11.0899 O   0  0  0  0  0  0  0  0  0  0  0  0
   18.1025  -21.5773  -12.6622 O   0  0  0  0  0  0  0  0  0  0  0  0
  2  1  1  6
  2  3  1  0
  3  4  1  0
  4  5  2  0
  5  6  1  0
  7  6  1  0
  8  7  2  0
  9  8  1  0
 10 11  1  0
 10  9  2  0
 11 12  2  0
 12  4  1  0
 12  7  1  0
 13  2  1  0
 13 14  2  0
 15 13  1  0
 16 15  1  0
 16 17  1  1
 18 23  1  0
 18 17  1  0
 19 18  2  0
 20 21  2  0
 20 19  1  0
 21 22  1  0
 22 23  2  0
 24 16  1  0
 25 24  2  0
 27 26  1  6
 27 28  1  0
 29 30  1  1
 29 27  1  0
 30 24  1  0
 31 29  1  0
 32 31  2  0
 33 31  1  0
M  END
$$$$
