WFT.pdb
     RDKit          3D

 33 35  0  0  1  0  0  0  0  0999 V2000
   26.3606  -21.5491  -12.7379 N   0  0  0  0  0  0  0  0  0  0  0  0
   25.7067  -20.8117  -11.6869 C   0  0  1  0  0  0  0  0  0  0  0  0
   24.2328  -21.1704  -11.7173 C   0  0  0  0  0  0  0  0  0  0  0  0
   23.5697  -20.4847  -12.8567 C   0  0  0  0  0  0  0  0  0  0  0  0
   23.9534  -20.4968  -14.1874 C   0  0  0  0  0  0  0  0  0  0  0  0
   23.0868  -19.7649  -14.8747 N   0  0  0  0  0  0  0  0  0  0  0  0
   22.1297  -19.2579  -14.0500 C   0  0  0  0  0  0  0  0  0  0  0  0
   21.0406  -18.4492  -14.2959 C   0  0  0  0  0  0  0  0  0  0  0  0
   20.2108  -18.0611  -13.2784 C   0  0  0  0  0  0  0  0  0  0  0  0
   20.5045  -18.5078  -12.0057 C   0  0  0  0  0  0  0  0  0  0  0  0
   21.5884  -19.3140  -11.7588 C   0  0  0  0  0  0  0  0  0  0  0  0
   22.4463  -19.7188  -12.7870 C   0  0  0  0  0  0  0  0  0  0  0  0
   26.3602  -21.0250  -10.3882 C   0  0  0  0  0  0  0  0  0  0  0  0
   26.2596  -22.1337   -9.7707 O   0  0  0  0  0  0  0  0  0  0  0  0
   27.1468  -20.0401   -9.6999 N   0  0  0  0  0  0  0  0  0  0  0  0
   27.4132  -20.1214   -8.3225 C   0  0  1  0  0  0  0  0  0  0  0  0
   28.4482  -19.1295   -7.8180 C   0  0  0  0  0  0  0  0  0  0  0  0
   28.7362  -19.3550   -6.3786 C   0  0  0  0  0  0  0  0  0  0  0  0
   28.3995  -18.3127   -5.5176 C   0  0  0  0  0  0  0  0  0  0  0  0
   28.6153  -18.4223   -4.1790 C   0  0  0  0  0  0  0  0  0  0  0  0
   29.1744  -19.5938   -3.7051 C   0  0  0  0  0  0  0  0  0  0  0  0
   29.5077  -20.6282   -4.5498 C   0  0  0  0  0  0  0  0  0  0  0  0
   29.2926  -20.5213   -5.9055 C   0  0  0  0  0  0  0  0  0  0  0  0
   26.2924  -20.1925   -7.3879 C   0  0  0  0  0  0  0  0  0  0  0  0
   25.4336  -19.2465   -7.4313 O   0  0  0  0  0  0  0  0  0  0  0  0
   23.2253  -21.9552   -7.1883 C   0  0  0  0  0  0  0  0  0  0  0  0
   23.8491  -22.1708   -5.8444 C   0  0  1  0  0  0  0  0  0  0  0  0
   24.4304  -23.4332   -5.8095 O   0  0  0  0  0  0  0  0  0  0  0  0
   24.8542  -21.1144   -5.5583 C   0  0  2  0  0  0  0  0  0  0  0  0
   26.0346  -21.1974   -6.4209 N   0  0  0  0  0  0  0  0  0  0  0  0
   25.2775  -21.0582   -4.1206 C   0  0  0  0  0  0  0  0  0  0  0  0
   24.4502  -20.9006   -3.1915 O   0  0  0  0  0  0  0  0  0  0  0  0
   26.6027  -21.1713   -3.7131 O   0  0  0  0  0  0  0  0  0  0  0  0
  2  1  1  6
  2  3  1  0
  3  4  1  0
  4  5  2  0
  5  6  1  0
  7  6  1  0
  8  7  2  0
  9  8  1  0
 10 11  1  0
 10  9  2  0
 11 12  2  0
 12  4  1  0
 12  7  1  0
 13  2  1  0
 13 14  2  0
 15 13  1  0
 16 15  1  0
 16 17  1  1
 18 23  1  0
 18 17  1  0
 19 18  2  0
 20 21  2  0
 20 19  1  0
 21 22  1  0
 22 23  2  0
 24 16  1  0
 25 24  2  0
 27 26  1  6
 27 28  1  0
 29 30  1  6
 29 27  1  0
 30 24  1  0
 31 29  1  0
 32 31  2  0
 33 31  1  0
M  END
$$$$
