WFT.pdb
     RDKit          3D

 33 35  0  0  1  0  0  0  0  0999 V2000
   26.1339  -20.9666  -17.6951 N   0  0  0  0  0  0  0  0  0  0  0  0
   26.4118  -20.0783  -16.5955 C   0  0  1  0  0  0  0  0  0  0  0  0
   25.4492  -18.9093  -16.6895 C   0  0  0  0  0  0  0  0  0  0  0  0
   25.7509  -18.1030  -17.9007 C   0  0  0  0  0  0  0  0  0  0  0  0
   24.9090  -17.8355  -18.9673 C   0  0  0  0  0  0  0  0  0  0  0  0
   25.5658  -17.0743  -19.8322 N   0  0  0  0  0  0  0  0  0  0  0  0
   26.8256  -16.8195  -19.3838 C   0  0  0  0  0  0  0  0  0  0  0  0
   27.8641  -16.0935  -19.9274 C   0  0  0  0  0  0  0  0  0  0  0  0
   29.0627  -15.9867  -19.2744 C   0  0  0  0  0  0  0  0  0  0  0  0
   29.1904  -16.6290  -18.0592 C   0  0  0  0  0  0  0  0  0  0  0  0
   28.1569  -17.3519  -17.5158 C   0  0  0  0  0  0  0  0  0  0  0  0
   26.9264  -17.4716  -18.1704 C   0  0  0  0  0  0  0  0  0  0  0  0
   26.3884  -20.7862  -15.3080 C   0  0  0  0  0  0  0  0  0  0  0  0
   25.6068  -21.7709  -15.1081 O   0  0  0  0  0  0  0  0  0  0  0  0
   27.2094  -20.4508  -14.1783 N   0  0  0  0  0  0  0  0  0  0  0  0
   26.7405  -20.5424  -12.8567 C   0  0  1  0  0  0  0  0  0  0  0  0
   27.6449  -19.8998  -11.8180 C   0  0  0  0  0  0  0  0  0  0  0  0
   27.1387  -20.1594  -10.4461 C   0  0  0  0  0  0  0  0  0  0  0  0
   26.4883  -19.0960   -9.8236 C   0  0  0  0  0  0  0  0  0  0  0  0
   25.9805  -19.2329   -8.5689 C   0  0  0  0  0  0  0  0  0  0  0  0
   26.1293  -20.4532   -7.9378 C   0  0  0  0  0  0  0  0  0  0  0  0
   26.7691  -21.5084   -8.5476 C   0  0  0  0  0  0  0  0  0  0  0  0
   27.2859  -21.3742   -9.8166 C   0  0  0  0  0  0  0  0  0  0  0  0
   25.3449  -20.2128  -12.5763 C   0  0  0  0  0  0  0  0  0  0  0  0
   24.9498  -19.0353  -12.8790 O   0  0  0  0  0  0  0  0  0  0  0  0
   22.5960  -20.4406  -14.2617 C   0  0  0  0  0  0  0  0  0  0  0  0
   22.0934  -20.9893  -12.9625 C   0  0  1  0  0  0  0  0  0  0  0  0
   22.0153  -22.3743  -13.0528 O   0  0  0  0  0  0  0  0  0  0  0  0
   22.9799  -20.5785  -11.8429 C   0  0  2  0  0  0  0  0  0  0  0  0
   24.3571  -21.0508  -11.9991 N   0  0  0  0  0  0  0  0  0  0  0  0
   22.4603  -20.9638  -10.4897 C   0  0  0  0  0  0  0  0  0  0  0  0
   23.1371  -21.6545   -9.6915 O   0  0  0  0  0  0  0  0  0  0  0  0
   21.2031  -20.5927  -10.0240 O   0  0  0  0  0  0  0  0  0  0  0  0
  2  1  1  6
  2  3  1  0
  3  4  1  0
  4  5  2  0
  5  6  1  0
  7  6  1  0
  8  7  2  0
  9  8  1  0
 10 11  1  0
 10  9  2  0
 11 12  2  0
 12  4  1  0
 12  7  1  0
 13  2  1  0
 13 14  2  0
 15 13  1  0
 16 15  1  0
 16 17  1  1
 18 23  1  0
 18 17  1  0
 19 18  2  0
 20 21  2  0
 20 19  1  0
 21 22  1  0
 22 23  2  0
 24 16  1  0
 25 24  2  0
 27 26  1  6
 27 28  1  0
 29 30  1  6
 29 27  1  0
 30 24  1  0
 31 29  1  0
 32 31  2  0
 33 31  1  0
M  END
$$$$
