WFT.pdb
     RDKit          3D

 33 35  0  0  1  0  0  0  0  0999 V2000
   26.1576  -19.4148  -18.5964 N   0  0  0  0  0  0  0  0  0  0  0  0
   25.5305  -19.0609  -17.3486 C   0  0  1  0  0  0  0  0  0  0  0  0
   24.0311  -19.2125  -17.5243 C   0  0  0  0  0  0  0  0  0  0  0  0
   23.5157  -18.1385  -18.4124 C   0  0  0  0  0  0  0  0  0  0  0  0
   23.3243  -18.1964  -19.7828 C   0  0  0  0  0  0  0  0  0  0  0  0
   22.8427  -17.0273  -20.1832 N   0  0  0  0  0  0  0  0  0  0  0  0
   22.7033  -16.1808  -19.1263 C   0  0  0  0  0  0  0  0  0  0  0  0
   22.2547  -14.8796  -19.0454 C   0  0  0  0  0  0  0  0  0  0  0  0
   22.2122  -14.2255  -17.8434 C   0  0  0  0  0  0  0  0  0  0  0  0
   22.6325  -14.9143  -16.7234 C   0  0  0  0  0  0  0  0  0  0  0  0
   23.0789  -16.2107  -16.8018 C   0  0  0  0  0  0  0  0  0  0  0  0
   23.1293  -16.8928  -18.0221 C   0  0  0  0  0  0  0  0  0  0  0  0
   26.0934  -19.8217  -16.2245 C   0  0  0  0  0  0  0  0  0  0  0  0
   25.8763  -21.0694  -16.0950 O   0  0  0  0  0  0  0  0  0  0  0  0
   26.9121  -19.2585  -15.1876 N   0  0  0  0  0  0  0  0  0  0  0  0
   26.8765  -19.7299  -13.8643 C   0  0  1  0  0  0  0  0  0  0  0  0
   27.8257  -19.0199  -12.9133 C   0  0  0  0  0  0  0  0  0  0  0  0
   27.7992  -19.6549  -11.5710 C   0  0  0  0  0  0  0  0  0  0  0  0
   28.6790  -20.7184  -11.3808 C   0  0  0  0  0  0  0  0  0  0  0  0
   28.7385  -21.3633  -10.1845 C   0  0  0  0  0  0  0  0  0  0  0  0
   27.9040  -20.9308   -9.1714 C   0  0  0  0  0  0  0  0  0  0  0  0
   27.0338  -19.8797   -9.3519 C   0  0  0  0  0  0  0  0  0  0  0  0
   26.9690  -19.2249  -10.5613 C   0  0  0  0  0  0  0  0  0  0  0  0
   25.5809  -19.9310  -13.2192 C   0  0  0  0  0  0  0  0  0  0  0  0
   24.8299  -18.9055  -13.0829 O   0  0  0  0  0  0  0  0  0  0  0  0
   22.5385  -21.1948  -14.2865 C   0  0  0  0  0  0  0  0  0  0  0  0
   22.7142  -21.8926  -12.9736 C   0  0  1  0  0  0  0  0  0  0  0  0
   23.1151  -23.2036  -13.2048 O   0  0  0  0  0  0  0  0  0  0  0  0
   23.7032  -21.1753  -12.1278 C   0  0  2  0  0  0  0  0  0  0  0  0
   25.0440  -21.1432  -12.7156 N   0  0  0  0  0  0  0  0  0  0  0  0
   23.7769  -21.6875  -10.7201 C   0  0  0  0  0  0  0  0  0  0  0  0
   22.7959  -21.6297   -9.9412 O   0  0  0  0  0  0  0  0  0  0  0  0
   24.9248  -22.2549  -10.1765 O   0  0  0  0  0  0  0  0  0  0  0  0
  2  1  1  6
  2  3  1  0
  3  4  1  0
  4  5  2  0
  5  6  1  0
  7  6  1  0
  8  7  2  0
  9  8  1  0
 10 11  1  0
 10  9  2  0
 11 12  2  0
 12  4  1  0
 12  7  1  0
 13  2  1  0
 13 14  2  0
 15 13  1  0
 16 15  1  0
 16 17  1  1
 18 23  1  0
 18 17  1  0
 19 18  2  0
 20 21  2  0
 20 19  1  0
 21 22  1  0
 22 23  2  0
 24 16  1  0
 25 24  2  0
 27 26  1  6
 27 28  1  0
 29 30  1  6
 29 27  1  0
 30 24  1  0
 31 29  1  0
 32 31  2  0
 33 31  1  0
M  END
$$$$
