WFT.pdb
     RDKit          3D

 33 35  0  0  1  0  0  0  0  0999 V2000
   25.2452  -19.1181  -11.5270 N   0  0  0  0  0  0  0  0  0  0  0  0
   25.9206  -20.3318  -11.9097 C   0  0  1  0  0  0  0  0  0  0  0  0
   25.6893  -21.3558  -10.8143 C   0  0  0  0  0  0  0  0  0  0  0  0
   26.3098  -20.8889   -9.5475 C   0  0  0  0  0  0  0  0  0  0  0  0
   25.6976  -20.2058   -8.5099 C   0  0  0  0  0  0  0  0  0  0  0  0
   26.6041  -19.9863   -7.5670 N   0  0  0  0  0  0  0  0  0  0  0  0
   27.8103  -20.4990   -7.9353 C   0  0  0  0  0  0  0  0  0  0  0  0
   29.0341  -20.5131   -7.3006 C   0  0  0  0  0  0  0  0  0  0  0  0
   30.1232  -21.0975   -7.8895 C   0  0  0  0  0  0  0  0  0  0  0  0
   29.9498  -21.6684   -9.1343 C   0  0  0  0  0  0  0  0  0  0  0  0
   28.7314  -21.6561   -9.7678 C   0  0  0  0  0  0  0  0  0  0  0  0
   27.6092  -21.0625   -9.1803 C   0  0  0  0  0  0  0  0  0  0  0  0
   25.5207  -20.7738  -13.2528 C   0  0  0  0  0  0  0  0  0  0  0  0
   24.2979  -20.7950  -13.6060 O   0  0  0  0  0  0  0  0  0  0  0  0
   26.4322  -21.2186  -14.2696 N   0  0  0  0  0  0  0  0  0  0  0  0
   26.0515  -21.3415  -15.6168 C   0  0  1  0  0  0  0  0  0  0  0  0
   26.9169  -20.5620  -16.5931 C   0  0  0  0  0  0  0  0  0  0  0  0
   26.8586  -19.1067  -16.3028 C   0  0  0  0  0  0  0  0  0  0  0  0
   25.7412  -18.4311  -16.7887 C   0  0  0  0  0  0  0  0  0  0  0  0
   25.5883  -17.0972  -16.5699 C   0  0  0  0  0  0  0  0  0  0  0  0
   26.5706  -16.4398  -15.8539 C   0  0  0  0  0  0  0  0  0  0  0  0
   27.6762  -17.1013  -15.3695 C   0  0  0  0  0  0  0  0  0  0  0  0
   27.8360  -18.4510  -15.5897 C   0  0  0  0  0  0  0  0  0  0  0  0
   25.7661  -22.6703  -16.1532 C   0  0  0  0  0  0  0  0  0  0  0  0
   26.7044  -23.5369  -16.0991 O   0  0  0  0  0  0  0  0  0  0  0  0
   24.0643  -25.5099  -14.9675 C   0  0  0  0  0  0  0  0  0  0  0  0
   23.4920  -25.3082  -16.3363 C   0  0  1  0  0  0  0  0  0  0  0  0
   22.2589  -24.6759  -16.2257 O   0  0  0  0  0  0  0  0  0  0  0  0
   24.4225  -24.5152  -17.1810 C   0  0  2  0  0  0  0  0  0  0  0  0
   24.5569  -23.1262  -16.7374 N   0  0  0  0  0  0  0  0  0  0  0  0
   24.0901  -24.5526  -18.6430 C   0  0  0  0  0  0  0  0  0  0  0  0
   23.7755  -23.5182  -19.2782 O   0  0  0  0  0  0  0  0  0  0  0  0
   24.1014  -25.7223  -19.3957 O   0  0  0  0  0  0  0  0  0  0  0  0
  2  1  1  1
  2  3  1  0
  3  4  1  0
  4  5  2  0
  5  6  1  0
  7  6  1  0
  8  7  2  0
  9  8  1  0
 10 11  1  0
 10  9  2  0
 11 12  2  0
 12  4  1  0
 12  7  1  0
 13  2  1  0
 13 14  2  0
 15 13  1  0
 16 15  1  0
 16 17  1  6
 18 23  1  0
 18 17  1  0
 19 18  2  0
 20 21  2  0
 20 19  1  0
 21 22  1  0
 22 23  2  0
 24 16  1  0
 25 24  2  0
 27 26  1  1
 27 28  1  0
 29 30  1  1
 29 27  1  0
 30 24  1  0
 31 29  1  0
 32 31  2  0
 33 31  1  0
M  END
$$$$
