WFT.pdb
     RDKit          3D

 33 35  0  0  1  0  0  0  0  0999 V2000
   24.4396  -19.5325   -9.1753 N   0  0  0  0  0  0  0  0  0  0  0  0
   25.7555  -20.0238   -9.4957 C   0  0  1  0  0  0  0  0  0  0  0  0
   26.0183  -21.2423   -8.6308 C   0  0  0  0  0  0  0  0  0  0  0  0
   26.1710  -20.8305   -7.2113 C   0  0  0  0  0  0  0  0  0  0  0  0
   25.1985  -20.8248   -6.2253 C   0  0  0  0  0  0  0  0  0  0  0  0
   25.7524  -20.3938   -5.1000 N   0  0  0  0  0  0  0  0  0  0  0  0
   27.0689  -20.1072   -5.2948 C   0  0  0  0  0  0  0  0  0  0  0  0
   28.0413  -19.6331   -4.4402 C   0  0  0  0  0  0  0  0  0  0  0  0
   29.3185  -19.4150   -4.8825 C   0  0  0  0  0  0  0  0  0  0  0  0
   29.5932  -19.6864   -6.2078 C   0  0  0  0  0  0  0  0  0  0  0  0
   28.6262  -20.1593   -7.0605 C   0  0  0  0  0  0  0  0  0  0  0  0
   27.3165  -20.3867   -6.6246 C   0  0  0  0  0  0  0  0  0  0  0  0
   25.9110  -20.2543  -10.9386 C   0  0  0  0  0  0  0  0  0  0  0  0
   24.9367  -20.6534  -11.6540 O   0  0  0  0  0  0  0  0  0  0  0  0
   27.1348  -20.0673  -11.6668 N   0  0  0  0  0  0  0  0  0  0  0  0
   27.1531  -19.6502  -13.0086 C   0  0  1  0  0  0  0  0  0  0  0  0
   28.2739  -18.6846  -13.3563 C   0  0  0  0  0  0  0  0  0  0  0  0
   28.1588  -18.2293  -14.7652 C   0  0  0  0  0  0  0  0  0  0  0  0
   29.0228  -18.8345  -15.6753 C   0  0  0  0  0  0  0  0  0  0  0  0
   28.9921  -18.4939  -16.9921 C   0  0  0  0  0  0  0  0  0  0  0  0
   28.0812  -17.5355  -17.3938 C   0  0  0  0  0  0  0  0  0  0  0  0
   27.2236  -16.9349  -16.5004 C   0  0  0  0  0  0  0  0  0  0  0  0
   27.2519  -17.2753  -15.1666 C   0  0  0  0  0  0  0  0  0  0  0  0
   27.0115  -20.6517  -14.0631 C   0  0  0  0  0  0  0  0  0  0  0  0
   27.8638  -21.6043  -14.0833 O   0  0  0  0  0  0  0  0  0  0  0  0
   25.0618  -23.5932  -14.6694 C   0  0  0  0  0  0  0  0  0  0  0  0
   24.8552  -22.7158  -15.8649 C   0  0  1  0  0  0  0  0  0  0  0  0
   23.6746  -21.9993  -15.7053 O   0  0  0  0  0  0  0  0  0  0  0  0
   26.0117  -21.8012  -16.0491 C   0  0  2  0  0  0  0  0  0  0  0  0
   26.0299  -20.6987  -15.0855 N   0  0  0  0  0  0  0  0  0  0  0  0
   26.1374  -21.2611  -17.4426 C   0  0  0  0  0  0  0  0  0  0  0  0
   26.3434  -22.0092  -18.4276 O   0  0  0  0  0  0  0  0  0  0  0  0
   26.0402  -19.9068  -17.7449 O   0  0  0  0  0  0  0  0  0  0  0  0
  2  1  1  6
  2  3  1  0
  3  4  1  0
  4  5  2  0
  5  6  1  0
  7  6  1  0
  8  7  2  0
  9  8  1  0
 10 11  1  0
 10  9  2  0
 11 12  2  0
 12  4  1  0
 12  7  1  0
 13  2  1  0
 13 14  2  0
 15 13  1  0
 16 15  1  0
 16 17  1  6
 18 23  1  0
 18 17  1  0
 19 18  2  0
 20 21  2  0
 20 19  1  0
 21 22  1  0
 22 23  2  0
 24 16  1  0
 25 24  2  0
 27 26  1  1
 27 28  1  0
 29 30  1  1
 29 27  1  0
 30 24  1  0
 31 29  1  0
 32 31  2  0
 33 31  1  0
M  END
$$$$
