SVC.pdb
     RDKit          3D

 20 19  0  0  1  0  0  0  0  0999 V2000
   15.7739  -10.2993  -17.8114 O   0  0  0  0  0  0  0  0  0  0  0  0
   16.5949  -10.0468  -16.7130 C   0  0  0  0  0  0  0  0  0  0  0  0
   17.6691  -11.0990  -16.5688 C   0  0  2  0  0  0  0  0  0  0  0  0
   17.0538  -12.3010  -16.0397 N   0  0  0  0  0  0  0  0  0  0  0  0
   18.7100  -10.5875  -15.6147 C   0  0  0  0  0  0  0  0  0  0  0  0
   18.5071  -10.5608  -14.3756 O   0  0  0  0  0  0  0  0  0  0  0  0
   23.3878   -9.4043  -14.7221 C   0  0  0  0  0  0  0  0  0  0  0  0
   22.2893  -10.0026  -15.5316 C   0  0  2  0  0  0  0  0  0  0  0  0
   22.4518   -9.7490  -16.9985 C   0  0  0  0  0  0  0  0  0  0  0  0
   20.9097   -9.4955  -15.1291 C   0  0  2  0  0  0  0  0  0  0  0  0
   19.9738  -10.1084  -16.0544 N   0  0  0  0  0  0  0  0  0  0  0  0
   20.9030   -8.0038  -15.3045 C   0  0  0  0  0  0  0  0  0  0  0  0
   20.8139   -7.4707  -16.4270 O   0  0  0  0  0  0  0  0  0  0  0  0
   21.0004   -7.1644  -14.1667 N   0  0  0  0  0  0  0  0  0  0  0  0
   21.0088   -5.7271  -14.3683 C   0  0  1  0  0  0  0  0  0  0  0  0
   19.6886   -5.1065  -13.9452 C   0  0  0  0  0  0  0  0  0  0  0  0
   19.7823   -3.3191  -14.0582 S   0  0  0  0  0  0  0  0  0  0  0  0
   22.1410   -5.1026  -13.6090 C   0  0  0  0  0  0  0  0  0  0  0  0
   22.4233   -5.4615  -12.4433 O   0  0  0  0  0  0  0  0  0  0  0  0
   22.9015   -4.1042  -14.1976 O   0  0  0  0  0  0  0  0  0  0  0  0
  2  1  1  0
  3  5  1  0
  3  2  1  0
  3  4  1  1
  5  6  2  0
  8  7  1  1
  8  9  1  0
  8 10  1  0
 10 12  1  0
 10 11  1  6
 11  5  1  0
 12 14  1  0
 12 13  2  0
 14 15  1  0
 15 18  1  0
 15 16  1  1
 17 16  1  0
 18 19  2  0
 18 20  1  0
M  END
$$$$
