SVC.pdb
     RDKit          3D

 20 19  0  0  1  0  0  0  0  0999 V2000
   14.4390  -11.1519  -12.1185 O   0  0  0  0  0  0  0  0  0  0  0  0
   15.6073  -10.6424  -12.6840 C   0  0  0  0  0  0  0  0  0  0  0  0
   15.5516  -10.6696  -14.1933 C   0  0  2  0  0  0  0  0  0  0  0  0
   15.5276  -12.0561  -14.6181 N   0  0  0  0  0  0  0  0  0  0  0  0
   16.7781   -9.9862  -14.7263 C   0  0  0  0  0  0  0  0  0  0  0  0
   17.8301  -10.6262  -14.9735 O   0  0  0  0  0  0  0  0  0  0  0  0
   16.1733   -6.3810  -16.4313 C   0  0  0  0  0  0  0  0  0  0  0  0
   17.3662   -7.1856  -16.8180 C   0  0  2  0  0  0  0  0  0  0  0  0
   17.0738   -8.1539  -17.9222 C   0  0  0  0  0  0  0  0  0  0  0  0
   17.9507   -7.9791  -15.6557 C   0  0  2  0  0  0  0  0  0  0  0  0
   16.8194   -8.5883  -14.9797 N   0  0  0  0  0  0  0  0  0  0  0  0
   18.6347   -7.0067  -14.7378 C   0  0  0  0  0  0  0  0  0  0  0  0
   18.0099   -6.3610  -13.8748 O   0  0  0  0  0  0  0  0  0  0  0  0
   20.0338   -6.8075  -14.8454 N   0  0  0  0  0  0  0  0  0  0  0  0
   20.6479   -5.7730  -14.0335 C   0  0  1  0  0  0  0  0  0  0  0  0
   21.9115   -6.2815  -13.3613 C   0  0  0  0  0  0  0  0  0  0  0  0
   22.6873   -4.9623  -12.4263 S   0  0  0  0  0  0  0  0  0  0  0  0
   20.9566   -4.5691  -14.8724 C   0  0  0  0  0  0  0  0  0  0  0  0
   21.3619   -4.6802  -16.0516 O   0  0  0  0  0  0  0  0  0  0  0  0
   20.7945   -3.2977  -14.3442 O   0  0  0  0  0  0  0  0  0  0  0  0
  2  1  1  0
  3  5  1  0
  3  2  1  0
  3  4  1  6
  5  6  2  0
  8  7  1  1
  8  9  1  0
  8 10  1  0
 10 12  1  0
 10 11  1  1
 11  5  1  0
 12 14  1  0
 12 13  2  0
 14 15  1  0
 15 18  1  0
 15 16  1  6
 17 16  1  0
 18 19  2  0
 18 20  1  0
M  END
$$$$
