SVC.pdb
     RDKit          3D

 20 19  0  0  1  0  0  0  0  0999 V2000
   18.5718  -21.4278  -13.9519 O   0  0  0  0  0  0  0  0  0  0  0  0
   19.2890  -20.2378  -13.8331 C   0  0  0  0  0  0  0  0  0  0  0  0
   20.7551  -20.4961  -13.5767 C   0  0  2  0  0  0  0  0  0  0  0  0
   21.3136  -21.1296  -14.7556 N   0  0  0  0  0  0  0  0  0  0  0  0
   20.8762  -21.4104  -12.3914 C   0  0  0  0  0  0  0  0  0  0  0  0
   21.0916  -22.6398  -12.5311 O   0  0  0  0  0  0  0  0  0  0  0  0
   20.9079  -19.7303   -8.5510 C   0  0  0  0  0  0  0  0  0  0  0  0
   21.6244  -21.0033   -8.8445 C   0  0  2  0  0  0  0  0  0  0  0  0
   23.0412  -20.7801   -9.2750 C   0  0  0  0  0  0  0  0  0  0  0  0
   20.9428  -21.8340   -9.9250 C   0  0  2  0  0  0  0  0  0  0  0  0
   20.7550  -20.9420  -11.0550 N   0  0  0  0  0  0  0  0  0  0  0  0
   19.6097  -22.2728   -9.3900 C   0  0  0  0  0  0  0  0  0  0  0  0
   18.5658  -21.6280   -9.6068 O   0  0  0  0  0  0  0  0  0  0  0  0
   19.5214  -23.4548   -8.6130 N   0  0  0  0  0  0  0  0  0  0  0  0
   18.2252  -23.8375   -8.0838 C   0  0  1  0  0  0  0  0  0  0  0  0
   17.7006  -25.0873   -8.7692 C   0  0  0  0  0  0  0  0  0  0  0  0
   18.9706  -26.3532   -8.8012 S   0  0  0  0  0  0  0  0  0  0  0  0
   18.3130  -24.0574   -6.6031 C   0  0  0  0  0  0  0  0  0  0  0  0
   19.4143  -24.0689   -6.0079 O   0  0  0  0  0  0  0  0  0  0  0  0
   17.1574  -24.2539   -5.8631 O   0  0  0  0  0  0  0  0  0  0  0  0
  2  1  1  0
  3  5  1  0
  3  2  1  0
  3  4  1  6
  5  6  2  0
  8  7  1  6
  8  9  1  0
  8 10  1  0
 10 12  1  0
 10 11  1  6
 11  5  1  0
 12 14  1  0
 12 13  2  0
 14 15  1  0
 15 18  1  0
 15 16  1  6
 17 16  1  0
 18 19  2  0
 18 20  1  0
M  END
$$$$
