SVC.pdb
     RDKit          3D

 20 19  0  0  1  0  0  0  0  0999 V2000
   24.8050  -13.0296  -15.3866 O   0  0  0  0  0  0  0  0  0  0  0  0
   24.4440  -11.8225  -15.9842 C   0  0  0  0  0  0  0  0  0  0  0  0
   23.0981  -11.9195  -16.6631 C   0  0  2  0  0  0  0  0  0  0  0  0
   23.2281  -12.8177  -17.7943 N   0  0  0  0  0  0  0  0  0  0  0  0
   22.7033  -10.5489  -17.1332 C   0  0  0  0  0  0  0  0  0  0  0  0
   23.2496  -10.0151  -18.1302 O   0  0  0  0  0  0  0  0  0  0  0  0
   18.9976   -9.1856  -16.2207 C   0  0  0  0  0  0  0  0  0  0  0  0
   19.8053   -8.6326  -17.3440 C   0  0  2  0  0  0  0  0  0  0  0  0
   19.7090   -9.4641  -18.5857 C   0  0  0  0  0  0  0  0  0  0  0  0
   21.2833   -8.4914  -17.0007 C   0  0  2  0  0  0  0  0  0  0  0  0
   21.6978   -9.7830  -16.4832 N   0  0  0  0  0  0  0  0  0  0  0  0
   21.4048   -7.4458  -15.9294 C   0  0  0  0  0  0  0  0  0  0  0  0
   21.2302   -7.7106  -14.7245 O   0  0  0  0  0  0  0  0  0  0  0  0
   21.7276   -6.1124  -16.2854 N   0  0  0  0  0  0  0  0  0  0  0  0
   21.8491   -5.1260  -15.2277 C   0  0  1  0  0  0  0  0  0  0  0  0
   23.0844   -4.2637  -15.4217 C   0  0  0  0  0  0  0  0  0  0  0  0
   24.5661   -5.2569  -15.2363 S   0  0  0  0  0  0  0  0  0  0  0  0
   20.6213   -4.2668  -15.1751 C   0  0  0  0  0  0  0  0  0  0  0  0
   19.8662   -4.1439  -16.1661 O   0  0  0  0  0  0  0  0  0  0  0  0
   20.3019   -3.5871  -14.0100 O   0  0  0  0  0  0  0  0  0  0  0  0
  2  1  1  0
  3  5  1  0
  3  2  1  0
  3  4  1  6
  5  6  2  0
  8  7  1  1
  8  9  1  0
  8 10  1  0
 10 12  1  0
 10 11  1  1
 11  5  1  0
 12 14  1  0
 12 13  2  0
 14 15  1  0
 15 18  1  0
 15 16  1  6
 17 16  1  0
 18 19  2  0
 18 20  1  0
M  END
$$$$
