SVC.pdb
     RDKit          3D

 20 19  0  0  1  0  0  0  0  0999 V2000
   17.7823  -10.6335  -18.9972 O   0  0  0  0  0  0  0  0  0  0  0  0
   18.2279  -10.2082  -17.7463 C   0  0  0  0  0  0  0  0  0  0  0  0
   19.3672  -11.0625  -17.2424 C   0  0  2  0  0  0  0  0  0  0  0  0
   18.8212  -12.3386  -16.8220 N   0  0  0  0  0  0  0  0  0  0  0  0
   20.0057  -10.3635  -16.0766 C   0  0  0  0  0  0  0  0  0  0  0  0
   19.4940  -10.3994  -14.9302 O   0  0  0  0  0  0  0  0  0  0  0  0
   23.9919   -9.1859  -16.2687 C   0  0  0  0  0  0  0  0  0  0  0  0
   23.2504   -9.4073  -14.9955 C   0  0  2  0  0  0  0  0  0  0  0  0
   23.2436  -10.8449  -14.5762 C   0  0  0  0  0  0  0  0  0  0  0  0
   21.8006   -8.9429  -15.0630 C   0  0  2  0  0  0  0  0  0  0  0  0
   21.2150   -9.6273  -16.2016 N   0  0  0  0  0  0  0  0  0  0  0  0
   21.8073   -7.4602  -15.3028 C   0  0  0  0  0  0  0  0  0  0  0  0
   22.1844   -6.9671  -16.3830 O   0  0  0  0  0  0  0  0  0  0  0  0
   21.3739   -6.5829  -14.2775 N   0  0  0  0  0  0  0  0  0  0  0  0
   21.4687   -5.1529  -14.5071 C   0  0  1  0  0  0  0  0  0  0  0  0
   20.0931   -4.5094  -14.5324 C   0  0  0  0  0  0  0  0  0  0  0  0
   19.0601   -5.3087  -15.7613 S   0  0  0  0  0  0  0  0  0  0  0  0
   22.3202   -4.5127  -13.4518 C   0  0  0  0  0  0  0  0  0  0  0  0
   22.7093   -5.1524  -12.4485 O   0  0  0  0  0  0  0  0  0  0  0  0
   22.6931   -3.1834  -13.5761 O   0  0  0  0  0  0  0  0  0  0  0  0
  2  1  1  0
  3  5  1  0
  3  2  1  0
  3  4  1  1
  5  6  2  0
  8  7  1  6
  8  9  1  0
  8 10  1  0
 10 12  1  0
 10 11  1  6
 11  5  1  0
 12 14  1  0
 12 13  2  0
 14 15  1  0
 15 18  1  0
 15 16  1  1
 17 16  1  0
 18 19  2  0
 18 20  1  0
M  END
$$$$
