SVC.pdb
     RDKit          3D

 20 19  0  0  1  0  0  0  0  0999 V2000
   14.3378   -5.2097   -7.2431 O   0  0  0  0  0  0  0  0  0  0  0  0
   15.2222   -6.2267   -7.6008 C   0  0  0  0  0  0  0  0  0  0  0  0
   14.6353   -7.1248   -8.6642 C   0  0  2  0  0  0  0  0  0  0  0  0
   13.7409   -8.0647   -8.0162 N   0  0  0  0  0  0  0  0  0  0  0  0
   15.7583   -7.8596   -9.3383 C   0  0  0  0  0  0  0  0  0  0  0  0
   16.4367   -8.7226   -8.7281 O   0  0  0  0  0  0  0  0  0  0  0  0
   15.4409   -8.7470  -13.1366 C   0  0  0  0  0  0  0  0  0  0  0  0
   16.4508   -9.3885  -12.2485 C   0  0  2  0  0  0  0  0  0  0  0  0
   15.8570  -10.4495  -11.3744 C   0  0  0  0  0  0  0  0  0  0  0  0
   17.1627   -8.3926  -11.3409 C   0  0  2  0  0  0  0  0  0  0  0  0
   16.1154   -7.6233  -10.6935 N   0  0  0  0  0  0  0  0  0  0  0  0
   17.9951   -7.4958  -12.2120 C   0  0  0  0  0  0  0  0  0  0  0  0
   17.5147   -6.4985  -12.7838 O   0  0  0  0  0  0  0  0  0  0  0  0
   19.3709   -7.7806  -12.3983 N   0  0  0  0  0  0  0  0  0  0  0  0
   20.1248   -6.9625  -13.3305 C   0  0  1  0  0  0  0  0  0  0  0  0
   21.6069   -6.9776  -12.9984 C   0  0  0  0  0  0  0  0  0  0  0  0
   21.8901   -6.2090  -11.4030 S   0  0  0  0  0  0  0  0  0  0  0  0
   19.9043   -7.4384  -14.7353 C   0  0  0  0  0  0  0  0  0  0  0  0
   19.4154   -8.5657  -14.9747 O   0  0  0  0  0  0  0  0  0  0  0  0
   20.2446   -6.6229  -15.8034 O   0  0  0  0  0  0  0  0  0  0  0  0
  2  1  1  0
  3  5  1  0
  3  2  1  0
  3  4  1  1
  5  6  2  0
  8  7  1  1
  8  9  1  0
  8 10  1  0
 10 12  1  0
 10 11  1  6
 11  5  1  0
 12 14  1  0
 12 13  2  0
 14 15  1  0
 15 18  1  0
 15 16  1  1
 17 16  1  0
 18 19  2  0
 18 20  1  0
M  END
$$$$
