GHG.pdb
     RDKit          3D

 19 19  0  0  1  0  0  0  0  0999 V2000
   28.0139  -22.7930  -16.5573 N   0  0  0  0  0  0  0  0  0  0  0  0
   27.4367  -21.5721  -16.1567 C   0  0  0  0  0  0  0  0  0  0  0  0
   26.8623  -21.6972  -14.7920 C   0  0  0  0  0  0  0  0  0  0  0  0
   26.7996  -22.8181  -14.2360 O   0  0  0  0  0  0  0  0  0  0  0  0
   26.3818  -20.5458  -14.1118 N   0  0  0  0  0  0  0  0  0  0  0  0
   25.7169  -20.5998  -12.8388 C   0  0  1  0  0  0  0  0  0  0  0  0
   26.4474  -19.7151  -11.8755 C   0  0  0  0  0  0  0  0  0  0  0  0
   27.8050  -20.2041  -11.5527 C   0  0  0  0  0  0  0  0  0  0  0  0
   28.9937  -19.7502  -12.0879 C   0  0  0  0  0  0  0  0  0  0  0  0
   30.0209  -20.4564  -11.5320 N   0  0  0  0  0  0  0  0  0  0  0  0
   29.4790  -21.3360  -10.6645 C   0  0  0  0  0  0  0  0  0  0  0  0
   28.1345  -21.1808  -10.6790 N   0  0  0  0  0  0  0  0  0  0  0  0
   24.3297  -20.0874  -12.9709 C   0  0  0  0  0  0  0  0  0  0  0  0
   24.0729  -19.1513  -13.7508 O   0  0  0  0  0  0  0  0  0  0  0  0
   23.2792  -20.6756  -12.1944 N   0  0  0  0  0  0  0  0  0  0  0  0
   21.9392  -20.1774  -12.2740 C   0  0  0  0  0  0  0  0  0  0  0  0
   21.0872  -21.1671  -12.9811 C   0  0  0  0  0  0  0  0  0  0  0  0
   21.3782  -21.5116  -14.1684 O   0  0  0  0  0  0  0  0  0  0  0  0
   19.9819  -21.7238  -12.3761 O   0  0  0  0  0  0  0  0  0  0  0  0
  1  2  1  0
  3  4  2  0
  3  2  1  0
  5  3  1  0
  6  5  1  0
  6  7  1  1
  8  7  1  0
  9  8  2  0
 10  9  1  0
 11 10  1  0
 11 12  2  0
 12  8  1  0
 13  6  1  0
 13 15  1  0
 14 13  2  0
 16 15  1  0
 17 16  1  0
 18 17  2  0
 19 17  1  0
M  END
$$$$
