GHG.pdb
     RDKit          3D

 19 19  0  0  1  0  0  0  0  0999 V2000
   11.5033  -11.9980  -10.1816 N   0  0  0  0  0  0  0  0  0  0  0  0
   11.7000  -11.3865  -11.4353 C   0  0  0  0  0  0  0  0  0  0  0  0
   13.1466  -11.1367  -11.6652 C   0  0  0  0  0  0  0  0  0  0  0  0
   13.8886  -10.8109  -10.7098 O   0  0  0  0  0  0  0  0  0  0  0  0
   13.6946  -11.2662  -12.9699 N   0  0  0  0  0  0  0  0  0  0  0  0
   15.0695  -10.9862  -13.2812 C   0  0  1  0  0  0  0  0  0  0  0  0
   15.6277  -12.1308  -14.0704 C   0  0  0  0  0  0  0  0  0  0  0  0
   15.8181  -13.3548  -13.2629 C   0  0  0  0  0  0  0  0  0  0  0  0
   15.2101  -14.5776  -13.4633 C   0  0  0  0  0  0  0  0  0  0  0  0
   15.6495  -15.4461  -12.5064 N   0  0  0  0  0  0  0  0  0  0  0  0
   16.5175  -14.7733  -11.7230 C   0  0  0  0  0  0  0  0  0  0  0  0
   16.6180  -13.5047  -12.1841 N   0  0  0  0  0  0  0  0  0  0  0  0
   15.1592   -9.7641  -14.1194 C   0  0  0  0  0  0  0  0  0  0  0  0
   14.3074   -9.5363  -14.9986 O   0  0  0  0  0  0  0  0  0  0  0  0
   16.2349   -8.8404  -13.9140 N   0  0  0  0  0  0  0  0  0  0  0  0
   16.3713   -7.6765  -14.7367 C   0  0  0  0  0  0  0  0  0  0  0  0
   17.6202   -6.9602  -14.3728 C   0  0  0  0  0  0  0  0  0  0  0  0
   18.3219   -7.3760  -13.3992 O   0  0  0  0  0  0  0  0  0  0  0  0
   18.0385   -5.8484  -15.0706 O   0  0  0  0  0  0  0  0  0  0  0  0
  1  2  1  0
  3  4  2  0
  3  2  1  0
  5  3  1  0
  6  5  1  0
  6  7  1  6
  8  7  1  0
  9  8  2  0
 10  9  1  0
 11 10  1  0
 11 12  2  0
 12  8  1  0
 13  6  1  0
 13 15  1  0
 14 13  2  0
 16 15  1  0
 17 16  1  0
 18 17  2  0
 19 17  1  0
M  END
$$$$
