GHG.pdb
     RDKit          3D

 19 19  0  0  1  0  0  0  0  0999 V2000
   28.7174  -21.2317  -16.4255 N   0  0  0  0  0  0  0  0  0  0  0  0
   27.7008  -20.3703  -15.9683 C   0  0  0  0  0  0  0  0  0  0  0  0
   26.8431  -21.0675  -14.9752 C   0  0  0  0  0  0  0  0  0  0  0  0
   26.7389  -22.3157  -14.9998 O   0  0  0  0  0  0  0  0  0  0  0  0
   26.1374  -20.3212  -13.9932 N   0  0  0  0  0  0  0  0  0  0  0  0
   25.3369  -20.9267  -12.9645 C   0  0  1  0  0  0  0  0  0  0  0  0
   25.7699  -20.3860  -11.6360 C   0  0  0  0  0  0  0  0  0  0  0  0
   27.1953  -20.6447  -11.3404 C   0  0  0  0  0  0  0  0  0  0  0  0
   27.6999  -21.6160  -10.4994 C   0  0  0  0  0  0  0  0  0  0  0  0
   29.0619  -21.5279  -10.4976 N   0  0  0  0  0  0  0  0  0  0  0  0
   29.3990  -20.5171  -11.3250 C   0  0  0  0  0  0  0  0  0  0  0  0
   28.2647  -19.9830  -11.8350 N   0  0  0  0  0  0  0  0  0  0  0  0
   23.9087  -20.5719  -13.1608 C   0  0  0  0  0  0  0  0  0  0  0  0
   23.5784  -19.4004  -13.4233 O   0  0  0  0  0  0  0  0  0  0  0  0
   22.9036  -21.5864  -13.0470 N   0  0  0  0  0  0  0  0  0  0  0  0
   21.5587  -21.3393  -13.4716 C   0  0  0  0  0  0  0  0  0  0  0  0
   20.7399  -20.9327  -12.3013 C   0  0  0  0  0  0  0  0  0  0  0  0
   20.1633  -19.8011  -12.3009 O   0  0  0  0  0  0  0  0  0  0  0  0
   20.5898  -21.7590  -11.2092 O   0  0  0  0  0  0  0  0  0  0  0  0
  1  2  1  0
  3  4  2  0
  3  2  1  0
  5  3  1  0
  6  5  1  0
  6  7  1  1
  8  7  1  0
  9  8  2  0
 10  9  1  0
 11 10  1  0
 11 12  2  0
 12  8  1  0
 13  6  1  0
 13 15  1  0
 14 13  2  0
 16 15  1  0
 17 16  1  0
 18 17  2  0
 19 17  1  0
M  END
$$$$
