GHG.pdb
     RDKit          3D

 19 19  0  0  1  0  0  0  0  0999 V2000
   22.2811  -18.5926  -15.1513 N   0  0  0  0  0  0  0  0  0  0  0  0
   23.5012  -17.9142  -14.9630 C   0  0  0  0  0  0  0  0  0  0  0  0
   24.5699  -18.8731  -14.5806 C   0  0  0  0  0  0  0  0  0  0  0  0
   25.7427  -18.4701  -14.4025 O   0  0  0  0  0  0  0  0  0  0  0  0
   24.2662  -20.2514  -14.4152 N   0  0  0  0  0  0  0  0  0  0  0  0
   25.2682  -21.2649  -14.2293 C   0  0  1  0  0  0  0  0  0  0  0  0
   24.7602  -22.2693  -13.2406 C   0  0  0  0  0  0  0  0  0  0  0  0
   24.6107  -21.7176  -11.8770 C   0  0  0  0  0  0  0  0  0  0  0  0
   23.4266  -21.4184  -11.2338 C   0  0  0  0  0  0  0  0  0  0  0  0
   23.7149  -20.9308   -9.9921 N   0  0  0  0  0  0  0  0  0  0  0  0
   25.0579  -20.9270   -9.8651 C   0  0  0  0  0  0  0  0  0  0  0  0
   25.5990  -21.4048  -11.0101 N   0  0  0  0  0  0  0  0  0  0  0  0
   25.5184  -21.9696  -15.5119 C   0  0  0  0  0  0  0  0  0  0  0  0
   24.5773  -22.2293  -16.2848 O   0  0  0  0  0  0  0  0  0  0  0  0
   26.8536  -22.3532  -15.8618 N   0  0  0  0  0  0  0  0  0  0  0  0
   27.1285  -23.0055  -17.1065 C   0  0  0  0  0  0  0  0  0  0  0  0
   28.5877  -23.2575  -17.2184 C   0  0  0  0  0  0  0  0  0  0  0  0
   29.1699  -23.9745  -16.3465 O   0  0  0  0  0  0  0  0  0  0  0  0
   29.3296  -22.7289  -18.2518 O   0  0  0  0  0  0  0  0  0  0  0  0
  1  2  1  0
  3  4  2  0
  3  2  1  0
  5  3  1  0
  6  5  1  0
  6  7  1  1
  8  7  1  0
  9  8  2  0
 10  9  1  0
 11 10  1  0
 11 12  2  0
 12  8  1  0
 13  6  1  0
 13 15  1  0
 14 13  2  0
 16 15  1  0
 17 16  1  0
 18 17  2  0
 19 17  1  0
M  END
$$$$
