GHG.pdb
     RDKit          3D

 19 19  0  0  1  0  0  0  0  0999 V2000
   27.1267  -24.3836  -17.2113 N   0  0  0  0  0  0  0  0  0  0  0  0
   27.1190  -23.0330  -16.8112 C   0  0  0  0  0  0  0  0  0  0  0  0
   26.2719  -22.8585  -15.6030 C   0  0  0  0  0  0  0  0  0  0  0  0
   25.4831  -23.7660  -15.2511 O   0  0  0  0  0  0  0  0  0  0  0  0
   26.3529  -21.6616  -14.8414 N   0  0  0  0  0  0  0  0  0  0  0  0
   25.6111  -21.4438  -13.6298 C   0  0  1  0  0  0  0  0  0  0  0  0
   26.4493  -20.6309  -12.6910 C   0  0  0  0  0  0  0  0  0  0  0  0
   25.8733  -20.5355  -11.3326 C   0  0  0  0  0  0  0  0  0  0  0  0
   25.8506  -21.5294  -10.3750 C   0  0  0  0  0  0  0  0  0  0  0  0
   25.2311  -21.0466   -9.2588 N   0  0  0  0  0  0  0  0  0  0  0  0
   24.8742  -19.7718   -9.5184 C   0  0  0  0  0  0  0  0  0  0  0  0
   25.2649  -19.4642  -10.7773 N   0  0  0  0  0  0  0  0  0  0  0  0
   24.3757  -20.6750  -13.9247 C   0  0  0  0  0  0  0  0  0  0  0  0
   24.4021  -19.7155  -14.7179 O   0  0  0  0  0  0  0  0  0  0  0  0
   23.1441  -21.0411  -13.2910 N   0  0  0  0  0  0  0  0  0  0  0  0
   21.9356  -20.3234  -13.5639 C   0  0  0  0  0  0  0  0  0  0  0  0
   21.4841  -20.6271  -14.9457 C   0  0  0  0  0  0  0  0  0  0  0  0
   21.3394  -19.6815  -15.7812 O   0  0  0  0  0  0  0  0  0  0  0  0
   21.2168  -21.9181  -15.3454 O   0  0  0  0  0  0  0  0  0  0  0  0
  1  2  1  0
  3  4  2  0
  3  2  1  0
  5  3  1  0
  6  5  1  0
  6  7  1  1
  8  7  1  0
  9  8  2  0
 10  9  1  0
 11 10  1  0
 11 12  2  0
 12  8  1  0
 13  6  1  0
 13 15  1  0
 14 13  2  0
 16 15  1  0
 17 16  1  0
 18 17  2  0
 19 17  1  0
M  END
$$$$
