GHG.pdb
     RDKit          3D

 19 19  0  0  1  0  0  0  0  0999 V2000
   21.1519  -20.8892  -10.9102 N   0  0  0  0  0  0  0  0  0  0  0  0
   22.2874  -21.6673  -11.2088 C   0  0  0  0  0  0  0  0  0  0  0  0
   23.4402  -20.7902  -11.5403 C   0  0  0  0  0  0  0  0  0  0  0  0
   23.2837  -19.5500  -11.6235 O   0  0  0  0  0  0  0  0  0  0  0  0
   24.7249  -21.3545  -11.7644 N   0  0  0  0  0  0  0  0  0  0  0  0
   25.8983  -20.5682  -12.0300 C   0  0  1  0  0  0  0  0  0  0  0  0
   27.0050  -21.0365  -11.1354 C   0  0  0  0  0  0  0  0  0  0  0  0
   26.8590  -20.5723   -9.7391 C   0  0  0  0  0  0  0  0  0  0  0  0
   25.8197  -19.8245   -9.2234 C   0  0  0  0  0  0  0  0  0  0  0  0
   26.0566  -19.6033   -7.8975 N   0  0  0  0  0  0  0  0  0  0  0  0
   27.2254  -20.2044   -7.5937 C   0  0  0  0  0  0  0  0  0  0  0  0
   27.7101  -20.7916   -8.7128 N   0  0  0  0  0  0  0  0  0  0  0  0
   26.3309  -20.7648  -13.4365 C   0  0  0  0  0  0  0  0  0  0  0  0
   26.5440  -21.9092  -13.8785 O   0  0  0  0  0  0  0  0  0  0  0  0
   26.5042  -19.6281  -14.2910 N   0  0  0  0  0  0  0  0  0  0  0  0
   26.8045  -19.7927  -15.6812 C   0  0  0  0  0  0  0  0  0  0  0  0
   26.9980  -18.4587  -16.3044 C   0  0  0  0  0  0  0  0  0  0  0  0
   26.0720  -17.5923  -16.2340 O   0  0  0  0  0  0  0  0  0  0  0  0
   28.1654  -18.1365  -16.9611 O   0  0  0  0  0  0  0  0  0  0  0  0
  1  2  1  0
  3  4  2  0
  3  2  1  0
  5  3  1  0
  6  5  1  0
  6  7  1  1
  8  7  1  0
  9  8  2  0
 10  9  1  0
 11 10  1  0
 11 12  2  0
 12  8  1  0
 13  6  1  0
 13 15  1  0
 14 13  2  0
 16 15  1  0
 17 16  1  0
 18 17  2  0
 19 17  1  0
M  END
$$$$
