GHG.pdb
     RDKit          3D

 19 19  0  0  1  0  0  0  0  0999 V2000
   23.9273  -14.9797  -19.0020 N   0  0  0  0  0  0  0  0  0  0  0  0
   23.2013  -15.2037  -17.8158 C   0  0  0  0  0  0  0  0  0  0  0  0
   23.4601  -16.5747  -17.3047 C   0  0  0  0  0  0  0  0  0  0  0  0
   23.6911  -17.5112  -18.1042 O   0  0  0  0  0  0  0  0  0  0  0  0
   23.4467  -16.8295  -15.9068 N   0  0  0  0  0  0  0  0  0  0  0  0
   23.5971  -18.1421  -15.3410 C   0  0  1  0  0  0  0  0  0  0  0  0
   24.7994  -18.1468  -14.4471 C   0  0  0  0  0  0  0  0  0  0  0  0
   26.0648  -17.9104  -15.1746 C   0  0  0  0  0  0  0  0  0  0  0  0
   26.7489  -16.7155  -15.2719 C   0  0  0  0  0  0  0  0  0  0  0  0
   27.8679  -16.9131  -16.0280 N   0  0  0  0  0  0  0  0  0  0  0  0
   27.8792  -18.2111  -16.3952 C   0  0  0  0  0  0  0  0  0  0  0  0
   26.7841  -18.8139  -15.8761 N   0  0  0  0  0  0  0  0  0  0  0  0
   22.4096  -18.4753  -14.5145 C   0  0  0  0  0  0  0  0  0  0  0  0
   22.0120  -17.6906  -13.6333 O   0  0  0  0  0  0  0  0  0  0  0  0
   21.7166  -19.7099  -14.7336 N   0  0  0  0  0  0  0  0  0  0  0  0
   20.5400  -20.0350  -13.9853 C   0  0  0  0  0  0  0  0  0  0  0  0
   20.7724  -21.2878  -13.2224 C   0  0  0  0  0  0  0  0  0  0  0  0
   19.8719  -21.7223  -12.4392 O   0  0  0  0  0  0  0  0  0  0  0  0
   21.9488  -21.9942  -13.3448 O   0  0  0  0  0  0  0  0  0  0  0  0
  1  2  1  0
  3  4  2  0
  3  2  1  0
  5  3  1  0
  6  5  1  0
  6  7  1  1
  8  7  1  0
  9  8  2  0
 10  9  1  0
 11 10  1  0
 11 12  2  0
 12  8  1  0
 13  6  1  0
 13 15  1  0
 14 13  2  0
 16 15  1  0
 17 16  1  0
 18 17  2  0
 19 17  1  0
M  END
$$$$
