GHG.pdb
     RDKit          3D

 19 19  0  0  1  0  0  0  0  0999 V2000
   18.9065  -12.0586  -16.5802 N   0  0  0  0  0  0  0  0  0  0  0  0
   19.0976  -10.6841  -16.8222 C   0  0  0  0  0  0  0  0  0  0  0  0
   19.9855  -10.0972  -15.7853 C   0  0  0  0  0  0  0  0  0  0  0  0
   20.0346  -10.6021  -14.6398 O   0  0  0  0  0  0  0  0  0  0  0  0
   20.7828   -8.9608  -16.0886 N   0  0  0  0  0  0  0  0  0  0  0  0
   21.7340   -8.3949  -15.1718 C   0  0  1  0  0  0  0  0  0  0  0  0
   23.1041   -8.5098  -15.7667 C   0  0  0  0  0  0  0  0  0  0  0  0
   23.5376   -9.9102  -15.9602 C   0  0  0  0  0  0  0  0  0  0  0  0
   24.3357  -10.6509  -15.1119 C   0  0  0  0  0  0  0  0  0  0  0  0
   24.5042  -11.8955  -15.6462 N   0  0  0  0  0  0  0  0  0  0  0  0
   23.8211  -11.9280  -16.8091 C   0  0  0  0  0  0  0  0  0  0  0  0
   23.2356  -10.7223  -16.9972 N   0  0  0  0  0  0  0  0  0  0  0  0
   21.4424   -6.9537  -14.9664 C   0  0  0  0  0  0  0  0  0  0  0  0
   20.7856   -6.3149  -15.8096 O   0  0  0  0  0  0  0  0  0  0  0  0
   21.9211   -6.2939  -13.7883 N   0  0  0  0  0  0  0  0  0  0  0  0
   21.5531   -4.9399  -13.5034 C   0  0  0  0  0  0  0  0  0  0  0  0
   22.3146   -4.0255  -14.3919 C   0  0  0  0  0  0  0  0  0  0  0  0
   23.2598   -4.4853  -15.1048 O   0  0  0  0  0  0  0  0  0  0  0  0
   22.0183   -2.6819  -14.4616 O   0  0  0  0  0  0  0  0  0  0  0  0
  1  2  1  0
  3  4  2  0
  3  2  1  0
  5  3  1  0
  6  5  1  0
  6  7  1  6
  8  7  1  0
  9  8  2  0
 10  9  1  0
 11 10  1  0
 11 12  2  0
 12  8  1  0
 13  6  1  0
 13 15  1  0
 14 13  2  0
 16 15  1  0
 17 16  1  0
 18 17  2  0
 19 17  1  0
M  END
$$$$
