GHG.pdb
     RDKit          3D

 19 19  0  0  1  0  0  0  0  0999 V2000
   22.3042  -33.1447   -4.4413 N   0  0  0  0  0  0  0  0  0  0  0  0
   22.5138  -34.5335   -4.5488 C   0  0  0  0  0  0  0  0  0  0  0  0
   23.9381  -34.8165   -4.8638 C   0  0  0  0  0  0  0  0  0  0  0  0
   24.2613  -35.9052   -5.3928 O   0  0  0  0  0  0  0  0  0  0  0  0
   24.9397  -33.8534   -4.5663 N   0  0  0  0  0  0  0  0  0  0  0  0
   26.3416  -34.0753   -4.7919 C   0  0  1  0  0  0  0  0  0  0  0  0
   26.8864  -32.9360   -5.5980 C   0  0  0  0  0  0  0  0  0  0  0  0
   26.4565  -32.9676   -7.0123 C   0  0  0  0  0  0  0  0  0  0  0  0
   25.8134  -34.0058   -7.6556 C   0  0  0  0  0  0  0  0  0  0  0  0
   25.5898  -33.6445   -8.9527 N   0  0  0  0  0  0  0  0  0  0  0  0
   26.0864  -32.4005   -9.1133 C   0  0  0  0  0  0  0  0  0  0  0  0
   26.6117  -31.9922   -7.9346 N   0  0  0  0  0  0  0  0  0  0  0  0
   27.0637  -34.1063   -3.4950 C   0  0  0  0  0  0  0  0  0  0  0  0
   26.7166  -33.3607   -2.5600 O   0  0  0  0  0  0  0  0  0  0  0  0
   28.1682  -35.0016   -3.3192 N   0  0  0  0  0  0  0  0  0  0  0  0
   28.9425  -34.9858   -2.1148 C   0  0  0  0  0  0  0  0  0  0  0  0
   29.9223  -36.1013   -2.1449 C   0  0  0  0  0  0  0  0  0  0  0  0
   29.9272  -36.9066   -3.1270 O   0  0  0  0  0  0  0  0  0  0  0  0
   30.8317  -36.2846   -1.1265 O   0  0  0  0  0  0  0  0  0  0  0  0
  1  2  1  0
  3  4  2  0
  3  2  1  0
  5  3  1  0
  6  5  1  0
  6  7  1  6
  8  7  1  0
  9  8  2  0
 10  9  1  0
 11 10  1  0
 11 12  2  0
 12  8  1  0
 13  6  1  0
 13 15  1  0
 14 13  2  0
 16 15  1  0
 17 16  1  0
 18 17  2  0
 19 17  1  0
M  END
$$$$
