PRL.pdb
     RDKit          3D

 27 27  0  0  1  0  0  0  0  0999 V2000
    8.3700  -15.1992   18.8461 N   0  0  0  0  0  0  0  0  0  0  0  0
    8.6745  -14.5125   17.6025 C   0  0  0  0  0  0  0  0  0  0  0  0
    7.7913  -13.2871   17.6960 C   0  0  0  0  0  0  0  0  0  0  0  0
    7.7122  -13.0355   19.1859 C   0  0  0  0  0  0  0  0  0  0  0  0
    8.5383  -14.1622   19.8137 C   0  0  1  0  0  0  0  0  0  0  0  0
    7.9912  -14.4874   21.1456 C   0  0  0  0  0  0  0  0  0  0  0  0
    8.0970  -13.5808   22.0313 O   0  0  0  0  0  0  0  0  0  0  0  0
    7.6164  -19.7916   25.7706 N   0  0  0  0  0  0  0  0  0  0  0  0
    7.7579  -20.8019   24.7947 C   0  0  0  0  0  0  0  0  0  0  0  0
    8.5640  -21.7766   25.0070 N   0  0  0  0  0  0  0  0  0  0  0  0
    7.0065  -20.7329   23.5830 N   0  0  0  0  0  0  0  0  0  0  0  0
    6.1303  -19.6092   23.3141 C   0  0  0  0  0  0  0  0  0  0  0  0
    6.9870  -18.3452   23.1485 C   0  0  0  0  0  0  0  0  0  0  0  0
    6.0331  -17.2244   22.8608 C   0  0  0  0  0  0  0  0  0  0  0  0
    6.6893  -15.8923   22.6765 C   0  0  2  0  0  0  0  0  0  0  0  0
    7.3776  -15.7333   21.4445 N   0  0  0  0  0  0  0  0  0  0  0  0
    7.6345  -15.7087   23.8070 C   0  0  0  0  0  0  0  0  0  0  0  0
    8.8185  -16.0458   23.6664 O   0  0  0  0  0  0  0  0  0  0  0  0
    8.7426  -22.4614   24.2660 C   0  0  0  0  0  0  0  0  0  0  0  0
    8.0074  -11.8061   25.5792 C   0  0  1  0  0  0  0  0  0  0  0  0
    6.9443  -12.6170   26.2649 C   0  0  0  0  0  0  0  0  0  0  0  0
    6.1779  -11.7814   27.2841 C   0  0  0  0  0  0  0  0  0  0  0  0
    7.5283  -13.7807   27.0055 C   0  0  2  0  0  0  0  0  0  0  0  0
    8.1701  -14.7966   26.1013 N   0  0  0  0  0  0  0  0  0  0  0  0
    7.2272  -15.1559   25.0538 C   0  0  0  0  0  0  0  0  0  0  0  0
    8.4980  -15.9843   26.9622 O   0  0  0  0  0  0  0  0  0  0  0  0
    9.5516  -15.8923   27.8319 O   0  0  0  0  0  0  0  0  0  0  0  0
  1  2  1  0
  2  3  1  0
  4  3  1  0
  5  1  1  0
  5  4  1  0
  5  6  1  1
  7  6  2  0
  9 10  2  0
  9  8  1  0
 11  9  1  0
 12 11  1  0
 13 12  1  0
 14 13  1  0
 15 14  1  6
 15 16  1  0
 16  6  1  0
 17 15  1  0
 18 17  2  0
 20 19  1  6
 20 21  1  0
 22 20  1  0
 23 22  1  6
 23 24  1  0
 24 17  1  0
 25 26  1  0
 25 23  1  0
 27 25  2  0
M  END
$$$$
