PRL.pdb
     RDKit          3D

 27 27  0  0  1  0  0  0  0  0999 V2000
    8.4537  -14.8687   18.8687 N   0  0  0  0  0  0  0  0  0  0  0  0
    8.5356  -14.0312   17.6843 C   0  0  0  0  0  0  0  0  0  0  0  0
    7.4411  -13.0177   17.9401 C   0  0  0  0  0  0  0  0  0  0  0  0
    7.4157  -12.9155   19.4495 C   0  0  0  0  0  0  0  0  0  0  0  0
    8.4839  -13.9058   19.9231 C   0  0  1  0  0  0  0  0  0  0  0  0
    8.1009  -14.4460   21.2423 C   0  0  0  0  0  0  0  0  0  0  0  0
    8.0440  -13.6068   22.1964 O   0  0  0  0  0  0  0  0  0  0  0  0
    8.7381  -19.5928   26.3036 N   0  0  0  0  0  0  0  0  0  0  0  0
    7.4020  -19.9070   26.6342 C   0  0  0  0  0  0  0  0  0  0  0  0
    7.0594  -19.9909   27.8673 N   0  0  0  0  0  0  0  0  0  0  0  0
    6.4448  -20.1287   25.5987 N   0  0  0  0  0  0  0  0  0  0  0  0
    6.6947  -19.6736   24.2448 C   0  0  0  0  0  0  0  0  0  0  0  0
    6.6437  -18.1387   24.2239 C   0  0  0  0  0  0  0  0  0  0  0  0
    7.2229  -17.7158   22.9068 C   0  0  0  0  0  0  0  0  0  0  0  0
    7.3046  -16.2333   22.7201 C   0  0  2  0  0  0  0  0  0  0  0  0
    7.8081  -15.8192   21.4585 N   0  0  0  0  0  0  0  0  0  0  0  0
    8.1687  -15.7016   23.8045 C   0  0  0  0  0  0  0  0  0  0  0  0
    9.3972  -15.8416   23.7227 O   0  0  0  0  0  0  0  0  0  0  0  0
    6.0957  -20.2373   28.1131 C   0  0  0  0  0  0  0  0  0  0  0  0
    8.2034  -11.5865   25.1667 C   0  0  1  0  0  0  0  0  0  0  0  0
    7.1300  -12.4023   25.8301 C   0  0  0  0  0  0  0  0  0  0  0  0
    6.2104  -11.5290   26.6763 C   0  0  0  0  0  0  0  0  0  0  0  0
    7.7085  -13.4393   26.7431 C   0  0  2  0  0  0  0  0  0  0  0  0
    8.4676  -14.5135   26.0139 N   0  0  0  0  0  0  0  0  0  0  0  0
    7.6337  -15.0327   24.9413 C   0  0  0  0  0  0  0  0  0  0  0  0
    8.7701  -15.5819   27.0270 O   0  0  0  0  0  0  0  0  0  0  0  0
    9.6244  -15.2866   28.0556 O   0  0  0  0  0  0  0  0  0  0  0  0
  1  2  1  0
  2  3  1  0
  4  3  1  0
  5  1  1  0
  5  4  1  0
  5  6  1  1
  7  6  2  0
  9 10  2  0
  9  8  1  0
 11  9  1  0
 12 11  1  0
 13 12  1  0
 14 13  1  0
 15 14  1  6
 15 16  1  0
 16  6  1  0
 17 15  1  0
 18 17  2  0
 20 19  1  6
 20 21  1  0
 22 20  1  0
 23 22  1  6
 23 24  1  0
 24 17  1  0
 25 26  1  0
 25 23  1  0
 27 25  2  0
M  END
$$$$
