PRL.pdb
     RDKit          3D

 27 27  0  0  1  0  0  0  0  0999 V2000
    9.2763  -14.0682   19.2230 N   0  0  0  0  0  0  0  0  0  0  0  0
    9.1803  -13.0746   18.1675 C   0  0  0  0  0  0  0  0  0  0  0  0
    7.6893  -13.0314   17.9114 C   0  0  0  0  0  0  0  0  0  0  0  0
    7.1002  -13.3662   19.2643 C   0  0  0  0  0  0  0  0  0  0  0  0
    8.3142  -13.5993   20.1687 C   0  0  1  0  0  0  0  0  0  0  0  0
    7.9662  -14.5841   21.2118 C   0  0  0  0  0  0  0  0  0  0  0  0
    6.8638  -14.3935   21.8168 O   0  0  0  0  0  0  0  0  0  0  0  0
   12.1076  -18.3391   19.5342 N   0  0  0  0  0  0  0  0  0  0  0  0
   11.3990  -19.3403   18.8354 C   0  0  0  0  0  0  0  0  0  0  0  0
   11.7053  -19.5971   17.6167 N   0  0  0  0  0  0  0  0  0  0  0  0
   10.3504  -20.0576   19.4863 N   0  0  0  0  0  0  0  0  0  0  0  0
    9.9462  -19.7208   20.8376 C   0  0  0  0  0  0  0  0  0  0  0  0
    9.3518  -18.3046   20.8354 C   0  0  0  0  0  0  0  0  0  0  0  0
    8.8804  -18.0434   22.2348 C   0  0  0  0  0  0  0  0  0  0  0  0
    8.3250  -16.6705   22.4490 C   0  0  2  0  0  0  0  0  0  0  0  0
    8.7978  -15.6885   21.5385 N   0  0  0  0  0  0  0  0  0  0  0  0
    8.6648  -16.2717   23.8385 C   0  0  0  0  0  0  0  0  0  0  0  0
    8.5479  -17.1010   24.7517 O   0  0  0  0  0  0  0  0  0  0  0  0
   11.1266  -20.2426   17.0705 C   0  0  0  0  0  0  0  0  0  0  0  0
    5.6749  -12.5032   26.5162 C   0  0  1  0  0  0  0  0  0  0  0  0
    7.1179  -12.9147   26.5918 C   0  0  0  0  0  0  0  0  0  0  0  0
    8.0183  -11.7288   26.9191 C   0  0  0  0  0  0  0  0  0  0  0  0
    7.5997  -13.4825   25.2921 C   0  0  2  0  0  0  0  0  0  0  0  0
    8.8393  -14.3219   25.4356 N   0  0  0  0  0  0  0  0  0  0  0  0
    9.1229  -14.9633   24.1614 C   0  0  0  0  0  0  0  0  0  0  0  0
    8.5404  -15.3423   26.4980 O   0  0  0  0  0  0  0  0  0  0  0  0
    9.2357  -15.2845   27.6763 O   0  0  0  0  0  0  0  0  0  0  0  0
  1  2  1  0
  2  3  1  0
  4  3  1  0
  5  1  1  0
  5  4  1  0
  5  6  1  1
  7  6  2  0
  9 10  2  0
  9  8  1  0
 11  9  1  0
 12 11  1  0
 13 12  1  0
 14 13  1  0
 15 14  1  6
 15 16  1  0
 16  6  1  0
 17 15  1  0
 18 17  2  0
 20 19  1  1
 20 21  1  0
 22 20  1  0
 23 22  1  6
 23 24  1  0
 24 17  1  0
 25 26  1  0
 25 23  1  0
 27 25  2  0
M  END
$$$$
