PRL.pdb
     RDKit          3D

 27 27  0  0  1  0  0  0  0  0999 V2000
    8.6022  -15.0551   18.8077 N   0  0  0  0  0  0  0  0  0  0  0  0
    8.8565  -14.2686   17.6129 C   0  0  0  0  0  0  0  0  0  0  0  0
    7.7611  -13.2267   17.6838 C   0  0  0  0  0  0  0  0  0  0  0  0
    7.5415  -13.0622   19.1718 C   0  0  0  0  0  0  0  0  0  0  0  0
    8.5164  -14.0505   19.8191 C   0  0  1  0  0  0  0  0  0  0  0  0
    7.9526  -14.5293   21.0965 C   0  0  0  0  0  0  0  0  0  0  0  0
    7.8184  -13.6564   22.0119 O   0  0  0  0  0  0  0  0  0  0  0  0
    8.2975  -19.1404   26.5653 N   0  0  0  0  0  0  0  0  0  0  0  0
    7.0624  -19.8087   26.7096 C   0  0  0  0  0  0  0  0  0  0  0  0
    6.6410  -20.1107   27.8827 N   0  0  0  0  0  0  0  0  0  0  0  0
    6.2935  -20.1430   25.5544 N   0  0  0  0  0  0  0  0  0  0  0  0
    6.6990  -19.6957   24.2359 C   0  0  0  0  0  0  0  0  0  0  0  0
    6.7010  -18.1599   24.2160 C   0  0  0  0  0  0  0  0  0  0  0  0
    7.0765  -17.7573   22.8211 C   0  0  0  0  0  0  0  0  0  0  0  0
    7.1196  -16.2779   22.6001 C   0  0  2  0  0  0  0  0  0  0  0  0
    7.5746  -15.8811   21.3146 N   0  0  0  0  0  0  0  0  0  0  0  0
    8.0047  -15.7038   23.6451 C   0  0  0  0  0  0  0  0  0  0  0  0
    9.2320  -15.7232   23.4760 O   0  0  0  0  0  0  0  0  0  0  0  0
    5.7664  -20.6334   27.9916 C   0  0  0  0  0  0  0  0  0  0  0  0
    5.7105  -12.2907   27.2518 C   0  0  1  0  0  0  0  0  0  0  0  0
    7.0838  -12.5848   26.7178 C   0  0  0  0  0  0  0  0  0  0  0  0
    7.1536  -12.3652   25.2108 C   0  0  0  0  0  0  0  0  0  0  0  0
    7.4824  -14.0065   26.9704 C   0  0  2  0  0  0  0  0  0  0  0  0
    8.3470  -14.5815   25.8826 N   0  0  0  0  0  0  0  0  0  0  0  0
    7.4911  -15.1284   24.8414 C   0  0  0  0  0  0  0  0  0  0  0  0
    9.1736  -15.6611   26.5232 O   0  0  0  0  0  0  0  0  0  0  0  0
   10.1306  -15.3004   27.4338 O   0  0  0  0  0  0  0  0  0  0  0  0
  1  2  1  0
  2  3  1  0
  4  3  1  0
  5  1  1  0
  5  4  1  0
  5  6  1  1
  7  6  2  0
  9 10  2  0
  9  8  1  0
 11  9  1  0
 12 11  1  0
 13 12  1  0
 14 13  1  0
 15 14  1  6
 15 16  1  0
 16  6  1  0
 17 15  1  0
 18 17  2  0
 20 19  1  1
 20 21  1  0
 22 20  1  0
 23 22  1  6
 23 24  1  0
 24 17  1  0
 25 26  1  0
 25 23  1  0
 27 25  2  0
M  END
$$$$
