PRL.pdb
     RDKit          3D

 27 27  0  0  1  0  0  0  0  0999 V2000
    8.7785  -15.1218   17.9856 N   0  0  0  0  0  0  0  0  0  0  0  0
    8.9272  -14.3976   16.7349 C   0  0  0  0  0  0  0  0  0  0  0  0
    7.8210  -13.3696   16.8337 C   0  0  0  0  0  0  0  0  0  0  0  0
    7.7112  -13.1277   18.3233 C   0  0  0  0  0  0  0  0  0  0  0  0
    8.7504  -14.0650   18.9459 C   0  0  1  0  0  0  0  0  0  0  0  0
    8.2936  -14.4819   20.2862 C   0  0  0  0  0  0  0  0  0  0  0  0
    8.1243  -13.5502   21.1354 O   0  0  0  0  0  0  0  0  0  0  0  0
   10.1359  -19.7274   20.8159 N   0  0  0  0  0  0  0  0  0  0  0  0
   10.1178  -20.5422   21.9687 C   0  0  0  0  0  0  0  0  0  0  0  0
   11.1701  -21.1991   22.2944 N   0  0  0  0  0  0  0  0  0  0  0  0
    8.9338  -20.6298   22.7612 N   0  0  0  0  0  0  0  0  0  0  0  0
    7.7650  -19.8326   22.4429 C   0  0  0  0  0  0  0  0  0  0  0  0
    8.1948  -18.3655   22.2952 C   0  0  0  0  0  0  0  0  0  0  0  0
    6.9543  -17.5955   21.9533 C   0  0  0  0  0  0  0  0  0  0  0  0
    7.1839  -16.1359   21.7162 C   0  0  2  0  0  0  0  0  0  0  0  0
    8.0506  -15.8383   20.6313 N   0  0  0  0  0  0  0  0  0  0  0  0
    7.7386  -15.5695   22.9718 C   0  0  0  0  0  0  0  0  0  0  0  0
    8.9334  -15.7548   23.2431 O   0  0  0  0  0  0  0  0  0  0  0  0
   11.2091  -21.6857   23.1953 C   0  0  0  0  0  0  0  0  0  0  0  0
    5.8797  -11.7024   27.4786 C   0  0  1  0  0  0  0  0  0  0  0  0
    6.9758  -12.5275   26.8658 C   0  0  0  0  0  0  0  0  0  0  0  0
    8.1982  -11.6762   26.5415 C   0  0  0  0  0  0  0  0  0  0  0  0
    6.5364  -13.1660   25.5840 C   0  0  2  0  0  0  0  0  0  0  0  0
    7.4793  -14.2330   25.1000 N   0  0  0  0  0  0  0  0  0  0  0  0
    6.9428  -14.8166   23.8806 C   0  0  0  0  0  0  0  0  0  0  0  0
    7.5609  -15.2570   26.1973 O   0  0  0  0  0  0  0  0  0  0  0  0
    8.6034  -15.1873   27.0824 O   0  0  0  0  0  0  0  0  0  0  0  0
  1  2  1  0
  2  3  1  0
  4  3  1  0
  5  1  1  0
  5  4  1  0
  5  6  1  1
  7  6  2  0
  9 10  2  0
  9  8  1  0
 11  9  1  0
 12 11  1  0
 13 12  1  0
 14 13  1  0
 15 14  1  1
 15 16  1  0
 16  6  1  0
 17 15  1  0
 18 17  2  0
 20 19  1  1
 20 21  1  0
 22 20  1  0
 23 22  1  6
 23 24  1  0
 24 17  1  0
 25 26  1  0
 25 23  1  0
 27 25  2  0
M  END
$$$$
