PRL.pdb
     RDKit          3D

 27 27  0  0  1  0  0  0  0  0999 V2000
    8.8711  -14.7251   18.8836 N   0  0  0  0  0  0  0  0  0  0  0  0
    8.9880  -13.9164   17.6823 C   0  0  0  0  0  0  0  0  0  0  0  0
    7.7634  -13.0324   17.7784 C   0  0  0  0  0  0  0  0  0  0  0  0
    7.5588  -12.8928   19.2711 C   0  0  0  0  0  0  0  0  0  0  0  0
    8.6737  -13.7370   19.8958 C   0  0  1  0  0  0  0  0  0  0  0  0
    8.2104  -14.2824   21.1869 C   0  0  0  0  0  0  0  0  0  0  0  0
    7.7415  -13.4390   22.0155 O   0  0  0  0  0  0  0  0  0  0  0  0
    7.7633  -22.5006   21.1186 N   0  0  0  0  0  0  0  0  0  0  0  0
    6.7056  -21.8190   20.4785 C   0  0  0  0  0  0  0  0  0  0  0  0
    5.9895  -22.4361   19.6116 N   0  0  0  0  0  0  0  0  0  0  0  0
    6.4406  -20.4534   20.7985 N   0  0  0  0  0  0  0  0  0  0  0  0
    7.2421  -19.7507   21.7817 C   0  0  0  0  0  0  0  0  0  0  0  0
    6.7629  -18.2934   21.8572 C   0  0  0  0  0  0  0  0  0  0  0  0
    7.6409  -17.6130   22.8647 C   0  0  0  0  0  0  0  0  0  0  0  0
    7.6987  -16.1245   22.7222 C   0  0  2  0  0  0  0  0  0  0  0  0
    8.2744  -15.6647   21.5081 N   0  0  0  0  0  0  0  0  0  0  0  0
    8.4760  -15.6033   23.8753 C   0  0  0  0  0  0  0  0  0  0  0  0
    9.7139  -15.6079   23.8220 O   0  0  0  0  0  0  0  0  0  0  0  0
    5.2456  -21.9357   19.1155 C   0  0  0  0  0  0  0  0  0  0  0  0
    7.9088  -11.7174   25.3888 C   0  0  2  0  0  0  0  0  0  0  0  0
    6.9879  -12.6906   26.0688 C   0  0  0  0  0  0  0  0  0  0  0  0
    5.9690  -11.9723   26.9464 C   0  0  0  0  0  0  0  0  0  0  0  0
    7.7391  -13.6350   26.9562 C   0  0  2  0  0  0  0  0  0  0  0  0
    8.5954  -14.6089   26.1946 N   0  0  0  0  0  0  0  0  0  0  0  0
    7.8466  -15.0955   25.0465 C   0  0  0  0  0  0  0  0  0  0  0  0
    8.9127  -15.7290   27.1454 O   0  0  0  0  0  0  0  0  0  0  0  0
    9.7446  -15.4750   28.2030 O   0  0  0  0  0  0  0  0  0  0  0  0
  1  2  1  0
  2  3  1  0
  4  3  1  0
  5  1  1  0
  5  4  1  0
  5  6  1  1
  7  6  2  0
  9 10  2  0
  9  8  1  0
 11  9  1  0
 12 11  1  0
 13 12  1  0
 14 13  1  0
 15 14  1  6
 15 16  1  0
 16  6  1  0
 17 15  1  0
 18 17  2  0
 20 19  1  6
 20 21  1  0
 22 20  1  0
 23 22  1  6
 23 24  1  0
 24 17  1  0
 25 26  1  0
 25 23  1  0
 27 25  2  0
M  END
$$$$
