PRL.pdb
     RDKit          3D

 27 27  0  0  1  0  0  0  0  0999 V2000
    8.2742  -15.0992   18.8449 N   0  0  0  0  0  0  0  0  0  0  0  0
    8.3161  -14.3569   17.5967 C   0  0  0  0  0  0  0  0  0  0  0  0
    7.2362  -13.3187   17.8123 C   0  0  0  0  0  0  0  0  0  0  0  0
    7.2667  -13.0994   19.3090 C   0  0  0  0  0  0  0  0  0  0  0  0
    8.3473  -14.0576   19.8193 C   0  0  1  0  0  0  0  0  0  0  0  0
    8.0106  -14.4909   21.1896 C   0  0  0  0  0  0  0  0  0  0  0  0
    7.8881  -13.5669   22.0551 O   0  0  0  0  0  0  0  0  0  0  0  0
    6.9394  -22.2342   25.5259 N   0  0  0  0  0  0  0  0  0  0  0  0
    6.5379  -21.2247   26.4274 C   0  0  0  0  0  0  0  0  0  0  0  0
    6.2500  -21.5367   27.6377 N   0  0  0  0  0  0  0  0  0  0  0  0
    6.4550  -19.8689   25.9886 N   0  0  0  0  0  0  0  0  0  0  0  0
    6.8249  -19.5011   24.6356 C   0  0  0  0  0  0  0  0  0  0  0  0
    6.7733  -17.9712   24.5096 C   0  0  0  0  0  0  0  0  0  0  0  0
    7.3068  -17.6426   23.1471 C   0  0  0  0  0  0  0  0  0  0  0  0
    7.3602  -16.1777   22.8461 C   0  0  2  0  0  0  0  0  0  0  0  0
    7.8290  -15.8542   21.5452 N   0  0  0  0  0  0  0  0  0  0  0  0
    8.2391  -15.5519   23.8664 C   0  0  0  0  0  0  0  0  0  0  0  0
    9.4604  -15.7557   23.8198 O   0  0  0  0  0  0  0  0  0  0  0  0
    5.9817  -20.8050   28.3030 C   0  0  0  0  0  0  0  0  0  0  0  0
    8.3126  -11.3554   24.6628 C   0  0  1  0  0  0  0  0  0  0  0  0
    7.2508  -12.0205   25.4923 C   0  0  0  0  0  0  0  0  0  0  0  0
    6.4123  -10.9960   26.2483 C   0  0  0  0  0  0  0  0  0  0  0  0
    7.8437  -12.9396   26.5157 C   0  0  2  0  0  0  0  0  0  0  0  0
    8.5747  -14.1065   25.9111 N   0  0  0  0  0  0  0  0  0  0  0  0
    7.7263  -14.7213   24.9022 C   0  0  0  0  0  0  0  0  0  0  0  0
    8.8529  -15.0627   27.0370 O   0  0  0  0  0  0  0  0  0  0  0  0
    9.7394  -14.6879   28.0111 O   0  0  0  0  0  0  0  0  0  0  0  0
  1  2  1  0
  2  3  1  0
  4  3  1  0
  5  1  1  0
  5  4  1  0
  5  6  1  1
  7  6  2  0
  9 10  2  0
  9  8  1  0
 11  9  1  0
 12 11  1  0
 13 12  1  0
 14 13  1  0
 15 14  1  1
 15 16  1  0
 16  6  1  0
 17 15  1  0
 18 17  2  0
 20 19  1  6
 20 21  1  0
 22 20  1  0
 23 22  1  6
 23 24  1  0
 24 17  1  0
 25 26  1  0
 25 23  1  0
 27 25  2  0
M  END
$$$$
