HSC.pdb
     RDKit          3D

 23 23  0  0  1  0  0  0  0  0999 V2000
   12.6538  -15.1008   17.2805 N   0  0  0  0  0  0  0  0  0  0  0  0
   13.1616  -15.3174   18.6175 C   0  0  1  0  0  0  0  0  0  0  0  0
   13.9563  -14.0802   19.0284 C   0  0  0  0  0  0  0  0  0  0  0  0
   15.3128  -14.1380   18.4132 C   0  0  0  0  0  0  0  0  0  0  0  0
   16.2905  -15.0658   18.6195 C   0  0  0  0  0  0  0  0  0  0  0  0
   17.3467  -14.7240   17.8568 N   0  0  0  0  0  0  0  0  0  0  0  0
   17.0691  -13.6101   17.1744 C   0  0  0  0  0  0  0  0  0  0  0  0
   15.8068  -13.2559   17.5267 N   0  0  0  0  0  0  0  0  0  0  0  0
   12.0043  -15.4641   19.5341 C   0  0  0  0  0  0  0  0  0  0  0  0
   11.0482  -14.6775   19.4520 O   0  0  0  0  0  0  0  0  0  0  0  0
   11.1060  -19.0439   21.4545 O   0  0  0  0  0  0  0  0  0  0  0  0
   10.1752  -18.0501   21.1976 C   0  0  0  0  0  0  0  0  0  0  0  0
   10.7626  -16.6722   21.2890 C   0  0  2  0  0  0  0  0  0  0  0  0
   11.9406  -16.4778   20.5145 N   0  0  0  0  0  0  0  0  0  0  0  0
   11.0959  -16.4197   22.7145 C   0  0  0  0  0  0  0  0  0  0  0  0
   12.2706  -16.4077   23.1635 O   0  0  0  0  0  0  0  0  0  0  0  0
   10.0458  -16.1751   23.6427 N   0  0  0  0  0  0  0  0  0  0  0  0
   10.2610  -16.1302   25.0531 C   0  0  1  0  0  0  0  0  0  0  0  0
    9.0296  -15.5921   25.7949 C   0  0  0  0  0  0  0  0  0  0  0  0
    8.6337  -13.9452   25.1709 S   0  0  0  0  0  0  0  0  0  0  0  0
   10.6461  -17.4297   25.6332 C   0  0  0  0  0  0  0  0  0  0  0  0
   10.5876  -18.4570   24.9262 O   0  0  0  0  0  0  0  0  0  0  0  0
   11.0710  -17.5469   26.9384 O   0  0  0  0  0  0  0  0  0  0  0  0
  2  9  1  0
  2  1  1  6
  3  2  1  0
  4  5  2  0
  4  3  1  0
  6  5  1  0
  7  8  2  0
  7  6  1  0
  8  4  1  0
  9 10  2  0
 11 12  1  0
 13 12  1  1
 14 13  1  0
 14  9  1  0
 15 17  1  0
 15 13  1  0
 16 15  2  0
 18 17  1  0
 18 19  1  1
 20 19  1  0
 21 18  1  0
 22 21  2  0
 23 21  1  0
M  END
$$$$
