HSC.pdb
     RDKit          3D

 23 23  0  0  1  0  0  0  0  0999 V2000
    9.0154  -15.9291   20.5969 N   0  0  0  0  0  0  0  0  0  0  0  0
    8.5150  -14.7463   21.2623 C   0  0  1  0  0  0  0  0  0  0  0  0
    7.2324  -14.3128   20.5564 C   0  0  0  0  0  0  0  0  0  0  0  0
    7.5205  -14.0704   19.1140 C   0  0  0  0  0  0  0  0  0  0  0  0
    8.2297  -13.0465   18.5590 C   0  0  0  0  0  0  0  0  0  0  0  0
    8.2351  -13.2285   17.2245 N   0  0  0  0  0  0  0  0  0  0  0  0
    7.5523  -14.3343   16.9170 C   0  0  0  0  0  0  0  0  0  0  0  0
    7.1142  -14.8477   18.0949 N   0  0  0  0  0  0  0  0  0  0  0  0
    8.1869  -15.1070   22.6633 C   0  0  0  0  0  0  0  0  0  0  0  0
    7.6004  -14.2899   23.3900 O   0  0  0  0  0  0  0  0  0  0  0  0
    9.6458  -18.6284   24.6449 O   0  0  0  0  0  0  0  0  0  0  0  0
    8.4243  -18.0706   24.9866 C   0  0  0  0  0  0  0  0  0  0  0  0
    8.3240  -16.6231   24.6034 C   0  0  2  0  0  0  0  0  0  0  0  0
    8.5183  -16.3622   23.2179 N   0  0  0  0  0  0  0  0  0  0  0  0
    9.3620  -15.8834   25.3663 C   0  0  0  0  0  0  0  0  0  0  0  0
   10.5428  -15.7258   24.9630 O   0  0  0  0  0  0  0  0  0  0  0  0
    9.0267  -15.3125   26.6255 N   0  0  0  0  0  0  0  0  0  0  0  0
    9.9925  -14.6797   27.4648 C   0  0  1  0  0  0  0  0  0  0  0  0
    9.7449  -13.1686   27.5703 C   0  0  0  0  0  0  0  0  0  0  0  0
    8.0590  -12.8050   27.0374 S   0  0  0  0  0  0  0  0  0  0  0  0
   10.0634  -15.2546   28.8206 C   0  0  0  0  0  0  0  0  0  0  0  0
   10.8949  -14.8023   29.6345 O   0  0  0  0  0  0  0  0  0  0  0  0
    9.2360  -16.2813   29.2199 O   0  0  0  0  0  0  0  0  0  0  0  0
  2  9  1  0
  2  1  1  6
  3  2  1  0
  4  5  2  0
  4  3  1  0
  6  5  1  0
  7  8  2  0
  7  6  1  0
  8  4  1  0
  9 10  2  0
 11 12  1  0
 13 12  1  6
 14 13  1  0
 14  9  1  0
 15 17  1  0
 15 13  1  0
 16 15  2  0
 18 17  1  0
 18 19  1  1
 20 19  1  0
 21 18  1  0
 22 21  2  0
 23 21  1  0
M  END
$$$$
