HSC.pdb
     RDKit          3D

 23 23  0  0  1  0  0  0  0  0999 V2000
    8.1651  -17.5069   15.1048 N   0  0  0  0  0  0  0  0  0  0  0  0
    9.4117  -17.4998   15.8384 C   0  0  1  0  0  0  0  0  0  0  0  0
   10.0407  -16.1164   15.6899 C   0  0  0  0  0  0  0  0  0  0  0  0
   10.6059  -15.9759   14.3177 C   0  0  0  0  0  0  0  0  0  0  0  0
   11.7519  -16.5227   13.8207 C   0  0  0  0  0  0  0  0  0  0  0  0
   11.8695  -16.1304   12.5376 N   0  0  0  0  0  0  0  0  0  0  0  0
   10.8351  -15.3531   12.2065 C   0  0  0  0  0  0  0  0  0  0  0  0
   10.0589  -15.2642   13.3167 N   0  0  0  0  0  0  0  0  0  0  0  0
    9.1068  -17.7309   17.2717 C   0  0  0  0  0  0  0  0  0  0  0  0
    8.1482  -17.1472   17.8009 O   0  0  0  0  0  0  0  0  0  0  0  0
   10.9673  -20.7613   19.5742 O   0  0  0  0  0  0  0  0  0  0  0  0
    9.7009  -20.2811   19.8671 C   0  0  0  0  0  0  0  0  0  0  0  0
    9.5074  -18.8593   19.4275 C   0  0  2  0  0  0  0  0  0  0  0  0
    9.8728  -18.6019   18.0764 N   0  0  0  0  0  0  0  0  0  0  0  0
   10.3409  -17.9999   20.3069 C   0  0  0  0  0  0  0  0  0  0  0  0
   11.4101  -17.4522   19.9346 O   0  0  0  0  0  0  0  0  0  0  0  0
    9.9282  -17.7681   21.6485 N   0  0  0  0  0  0  0  0  0  0  0  0
   10.7372  -17.0654   22.5915 C   0  0  1  0  0  0  0  0  0  0  0  0
    9.8843  -16.2179   23.5458 C   0  0  0  0  0  0  0  0  0  0  0  0
   10.9702  -15.3279   24.6803 S   0  0  0  0  0  0  0  0  0  0  0  0
   11.6203  -17.9429   23.3813 C   0  0  0  0  0  0  0  0  0  0  0  0
   12.7042  -17.4953   23.8093 O   0  0  0  0  0  0  0  0  0  0  0  0
   11.2851  -19.2490   23.6635 O   0  0  0  0  0  0  0  0  0  0  0  0
  2  9  1  0
  2  1  1  6
  3  2  1  0
  4  5  2  0
  4  3  1  0
  6  5  1  0
  7  8  2  0
  7  6  1  0
  8  4  1  0
  9 10  2  0
 11 12  1  0
 13 12  1  1
 14 13  1  0
 14  9  1  0
 15 17  1  0
 15 13  1  0
 16 15  2  0
 18 17  1  0
 18 19  1  1
 20 19  1  0
 21 18  1  0
 22 21  2  0
 23 21  1  0
M  END
$$$$
