HSC.pdb
     RDKit          3D

 23 23  0  0  1  0  0  0  0  0999 V2000
    6.2647  -15.9511   20.9117 N   0  0  0  0  0  0  0  0  0  0  0  0
    7.6089  -15.6000   21.3143 C   0  0  1  0  0  0  0  0  0  0  0  0
    7.7892  -14.0985   21.1040 C   0  0  0  0  0  0  0  0  0  0  0  0
    7.8729  -13.8111   19.6437 C   0  0  0  0  0  0  0  0  0  0  0  0
    7.0011  -13.0968   18.8763 C   0  0  0  0  0  0  0  0  0  0  0  0
    7.4732  -13.0944   17.6149 N   0  0  0  0  0  0  0  0  0  0  0  0
    8.6155  -13.7842   17.5592 C   0  0  0  0  0  0  0  0  0  0  0  0
    8.8535  -14.2235   18.8214 N   0  0  0  0  0  0  0  0  0  0  0  0
    7.7514  -15.8970   22.7607 C   0  0  0  0  0  0  0  0  0  0  0  0
    6.8155  -15.6497   23.5370 O   0  0  0  0  0  0  0  0  0  0  0  0
   10.7120  -18.4474   24.2669 O   0  0  0  0  0  0  0  0  0  0  0  0
    9.5272  -18.1969   24.9403 C   0  0  0  0  0  0  0  0  0  0  0  0
    8.9966  -16.8174   24.6801 C   0  0  2  0  0  0  0  0  0  0  0  0
    8.9266  -16.4592   23.3045 N   0  0  0  0  0  0  0  0  0  0  0  0
    9.8945  -15.8538   25.3669 C   0  0  0  0  0  0  0  0  0  0  0  0
   10.9309  -15.3718   24.8420 O   0  0  0  0  0  0  0  0  0  0  0  0
    9.5869  -15.4375   26.6920 N   0  0  0  0  0  0  0  0  0  0  0  0
   10.5373  -14.7843   27.5332 C   0  0  1  0  0  0  0  0  0  0  0  0
   10.2027  -13.2972   27.7139 C   0  0  0  0  0  0  0  0  0  0  0  0
    8.4459  -13.0403   27.3878 S   0  0  0  0  0  0  0  0  0  0  0  0
   10.6821  -15.4125   28.8591 C   0  0  0  0  0  0  0  0  0  0  0  0
    9.9283  -16.3561   29.1750 O   0  0  0  0  0  0  0  0  0  0  0  0
   11.6288  -14.9886   29.7658 O   0  0  0  0  0  0  0  0  0  0  0  0
  2  9  1  0
  2  1  1  1
  3  2  1  0
  4  5  2  0
  4  3  1  0
  6  5  1  0
  7  8  2  0
  7  6  1  0
  8  4  1  0
  9 10  2  0
 11 12  1  0
 13 12  1  6
 14 13  1  0
 14  9  1  0
 15 17  1  0
 15 13  1  0
 16 15  2  0
 18 17  1  0
 18 19  1  1
 20 19  1  0
 21 18  1  0
 22 21  2  0
 23 21  1  0
M  END
$$$$
