HSC.pdb
     RDKit          3D

 23 23  0  0  1  0  0  0  0  0999 V2000
   11.6009  -15.7773   18.7417 N   0  0  0  0  0  0  0  0  0  0  0  0
   12.2334  -15.5256   20.0180 C   0  0  1  0  0  0  0  0  0  0  0  0
   12.8219  -14.1171   19.9853 C   0  0  0  0  0  0  0  0  0  0  0  0
   14.1343  -14.1467   19.2791 C   0  0  0  0  0  0  0  0  0  0  0  0
   15.3259  -14.6234   19.7395 C   0  0  0  0  0  0  0  0  0  0  0  0
   16.2405  -14.4477   18.7665 N   0  0  0  0  0  0  0  0  0  0  0  0
   15.6663  -13.8753   17.7052 C   0  0  0  0  0  0  0  0  0  0  0  0
   14.3617  -13.6934   18.0338 N   0  0  0  0  0  0  0  0  0  0  0  0
   11.1895  -15.5794   21.0707 C   0  0  0  0  0  0  0  0  0  0  0  0
   10.0806  -15.0611   20.8675 O   0  0  0  0  0  0  0  0  0  0  0  0
   11.0307  -18.6301   23.7654 O   0  0  0  0  0  0  0  0  0  0  0  0
    9.9453  -17.8252   23.4586 C   0  0  0  0  0  0  0  0  0  0  0  0
   10.3341  -16.3930   23.2358 C   0  0  2  0  0  0  0  0  0  0  0  0
   11.4050  -16.2058   22.3173 N   0  0  0  0  0  0  0  0  0  0  0  0
   10.7426  -15.8290   24.5480 C   0  0  0  0  0  0  0  0  0  0  0  0
   11.9390  -15.7377   24.9248 O   0  0  0  0  0  0  0  0  0  0  0  0
    9.7438  -15.3594   25.4457 N   0  0  0  0  0  0  0  0  0  0  0  0
   10.0442  -14.9268   26.7725 C   0  0  1  0  0  0  0  0  0  0  0  0
    8.9147  -14.0657   27.3546 C   0  0  0  0  0  0  0  0  0  0  0  0
    9.3708  -13.5346   29.0184 S   0  0  0  0  0  0  0  0  0  0  0  0
   10.3376  -16.0331   27.7018 C   0  0  0  0  0  0  0  0  0  0  0  0
    9.6508  -17.0744   27.6502 O   0  0  0  0  0  0  0  0  0  0  0  0
   11.3519  -15.9536   28.6308 O   0  0  0  0  0  0  0  0  0  0  0  0
  2  9  1  0
  2  1  1  6
  3  2  1  0
  4  5  2  0
  4  3  1  0
  6  5  1  0
  7  8  2  0
  7  6  1  0
  8  4  1  0
  9 10  2  0
 11 12  1  0
 13 12  1  1
 14 13  1  0
 14  9  1  0
 15 17  1  0
 15 13  1  0
 16 15  2  0
 18 17  1  0
 18 19  1  1
 20 19  1  0
 21 18  1  0
 22 21  2  0
 23 21  1  0
M  END
$$$$
