HSC.pdb
     RDKit          3D

 23 23  0  0  1  0  0  0  0  0999 V2000
    8.5541  -18.9718   18.6193 N   0  0  0  0  0  0  0  0  0  0  0  0
    7.7237  -18.0865   19.4060 C   0  0  1  0  0  0  0  0  0  0  0  0
    6.6307  -18.9241   20.0655 C   0  0  0  0  0  0  0  0  0  0  0  0
    5.6578  -19.3711   19.0283 C   0  0  0  0  0  0  0  0  0  0  0  0
    5.7017  -19.1495   17.6837 C   0  0  0  0  0  0  0  0  0  0  0  0
    4.6190  -19.7349   17.1368 N   0  0  0  0  0  0  0  0  0  0  0  0
    3.8913  -20.3199   18.0918 C   0  0  0  0  0  0  0  0  0  0  0  0
    4.5441  -20.0882   19.2593 N   0  0  0  0  0  0  0  0  0  0  0  0
    8.5659  -17.4841   20.4683 C   0  0  0  0  0  0  0  0  0  0  0  0
    9.6488  -18.0095   20.7698 O   0  0  0  0  0  0  0  0  0  0  0  0
    7.3331  -14.3258   23.0953 O   0  0  0  0  0  0  0  0  0  0  0  0
    8.6307  -14.3776   22.6119 C   0  0  0  0  0  0  0  0  0  0  0  0
    9.0252  -15.7551   22.1656 C   0  0  2  0  0  0  0  0  0  0  0  0
    8.1836  -16.3175   21.1652 N   0  0  0  0  0  0  0  0  0  0  0  0
    8.9879  -16.6413   23.3572 C   0  0  0  0  0  0  0  0  0  0  0  0
    8.0354  -17.4206   23.6161 O   0  0  0  0  0  0  0  0  0  0  0  0
   10.0781  -16.6259   24.2712 N   0  0  0  0  0  0  0  0  0  0  0  0
   10.1398  -17.4855   25.4092 C   0  0  1  0  0  0  0  0  0  0  0  0
   10.2765  -18.9579   24.9974 C   0  0  0  0  0  0  0  0  0  0  0  0
   10.5307  -19.9656   26.4733 S   0  0  0  0  0  0  0  0  0  0  0  0
   11.2226  -17.1432   26.3494 C   0  0  0  0  0  0  0  0  0  0  0  0
   12.0519  -16.2648   26.0344 O   0  0  0  0  0  0  0  0  0  0  0  0
   11.3488  -17.7657   27.5719 O   0  0  0  0  0  0  0  0  0  0  0  0
  2  9  1  0
  2  1  1  6
  3  2  1  0
  4  5  2  0
  4  3  1  0
  6  5  1  0
  7  8  2  0
  7  6  1  0
  8  4  1  0
  9 10  2  0
 11 12  1  0
 13 12  1  1
 14 13  1  0
 14  9  1  0
 15 17  1  0
 15 13  1  0
 16 15  2  0
 18 17  1  0
 18 19  1  6
 20 19  1  0
 21 18  1  0
 22 21  2  0
 23 21  1  0
M  END
$$$$
