HSC.pdb
     RDKit          3D

 23 23  0  0  1  0  0  0  0  0999 V2000
    7.6612  -13.3974   16.6529 N   0  0  0  0  0  0  0  0  0  0  0  0
    7.8782  -14.7299   17.1720 C   0  0  1  0  0  0  0  0  0  0  0  0
    9.2991  -15.1542   16.8083 C   0  0  0  0  0  0  0  0  0  0  0  0
    9.3527  -15.5117   15.3622 C   0  0  0  0  0  0  0  0  0  0  0  0
    8.3793  -16.0907   14.6029 C   0  0  0  0  0  0  0  0  0  0  0  0
    8.8628  -16.2287   13.3534 N   0  0  0  0  0  0  0  0  0  0  0  0
   10.1106  -15.7559   13.2974 C   0  0  0  0  0  0  0  0  0  0  0  0
   10.4037  -15.3143   14.5471 N   0  0  0  0  0  0  0  0  0  0  0  0
    7.7628  -14.6755   18.6500 C   0  0  0  0  0  0  0  0  0  0  0  0
    8.2391  -13.7129   19.2714 O   0  0  0  0  0  0  0  0  0  0  0  0
    5.6580  -17.5721   20.9854 O   0  0  0  0  0  0  0  0  0  0  0  0
    5.7862  -16.2512   21.3840 C   0  0  0  0  0  0  0  0  0  0  0  0
    7.0065  -15.5919   20.8109 C   0  0  2  0  0  0  0  0  0  0  0  0
    7.1232  -15.6891   19.3959 N   0  0  0  0  0  0  0  0  0  0  0  0
    8.1957  -16.2396   21.4216 C   0  0  0  0  0  0  0  0  0  0  0  0
    9.0561  -16.8781   20.7630 O   0  0  0  0  0  0  0  0  0  0  0  0
    8.3948  -16.1466   22.8272 N   0  0  0  0  0  0  0  0  0  0  0  0
    9.4516  -16.8298   23.5011 C   0  0  1  0  0  0  0  0  0  0  0  0
    9.8168  -16.1400   24.8228 C   0  0  0  0  0  0  0  0  0  0  0  0
   10.1306  -14.3898   24.5118 S   0  0  0  0  0  0  0  0  0  0  0  0
    9.1638  -18.2523   23.7607 C   0  0  0  0  0  0  0  0  0  0  0  0
    8.0064  -18.6851   23.5823 O   0  0  0  0  0  0  0  0  0  0  0  0
   10.1374  -19.1241   24.1965 O   0  0  0  0  0  0  0  0  0  0  0  0
  2  9  1  0
  2  1  1  6
  3  2  1  0
  4  5  2  0
  4  3  1  0
  6  5  1  0
  7  8  2  0
  7  6  1  0
  8  4  1  0
  9 10  2  0
 11 12  1  0
 13 12  1  1
 14 13  1  0
 14  9  1  0
 15 17  1  0
 15 13  1  0
 16 15  2  0
 18 17  1  0
 18 19  1  1
 20 19  1  0
 21 18  1  0
 22 21  2  0
 23 21  1  0
M  END
$$$$
