HSC.pdb
     RDKit          3D

 23 23  0  0  1  0  0  0  0  0999 V2000
    7.3674  -17.3183   19.9309 N   0  0  0  0  0  0  0  0  0  0  0  0
    8.3352  -16.4481   20.5622 C   0  0  1  0  0  0  0  0  0  0  0  0
    7.7553  -15.0360   20.5898 C   0  0  0  0  0  0  0  0  0  0  0  0
    7.7906  -14.4609   19.2150 C   0  0  0  0  0  0  0  0  0  0  0  0
    8.3047  -15.0204   18.0828 C   0  0  0  0  0  0  0  0  0  0  0  0
    8.1189  -14.1475   17.0741 N   0  0  0  0  0  0  0  0  0  0  0  0
    7.5038  -13.0537   17.5312 C   0  0  0  0  0  0  0  0  0  0  0  0
    7.3053  -13.2588   18.8584 N   0  0  0  0  0  0  0  0  0  0  0  0
    8.5299  -16.9085   21.9590 C   0  0  0  0  0  0  0  0  0  0  0  0
    7.5794  -17.4041   22.5839 O   0  0  0  0  0  0  0  0  0  0  0  0
   12.2867  -17.8037   23.6860 O   0  0  0  0  0  0  0  0  0  0  0  0
   11.0607  -18.3242   24.0680 C   0  0  0  0  0  0  0  0  0  0  0  0
    9.9450  -17.3295   23.9343 C   0  0  2  0  0  0  0  0  0  0  0  0
    9.7719  -16.8062   22.6222 N   0  0  0  0  0  0  0  0  0  0  0  0
   10.2391  -16.1985   24.8514 C   0  0  0  0  0  0  0  0  0  0  0  0
   10.4360  -15.0190   24.4618 O   0  0  0  0  0  0  0  0  0  0  0  0
   10.3071  -16.4371   26.2522 N   0  0  0  0  0  0  0  0  0  0  0  0
   10.4563  -15.3848   27.2052 C   0  0  1  0  0  0  0  0  0  0  0  0
    9.2268  -14.4663   27.2288 C   0  0  0  0  0  0  0  0  0  0  0  0
    9.5131  -13.1215   28.3984 S   0  0  0  0  0  0  0  0  0  0  0  0
   10.7306  -15.8618   28.5730 C   0  0  0  0  0  0  0  0  0  0  0  0
   10.3624  -17.0069   28.9073 O   0  0  0  0  0  0  0  0  0  0  0  0
   11.3842  -15.0791   29.4994 O   0  0  0  0  0  0  0  0  0  0  0  0
  2  9  1  0
  2  1  1  1
  3  2  1  0
  4  5  2  0
  4  3  1  0
  6  5  1  0
  7  8  2  0
  7  6  1  0
  8  4  1  0
  9 10  2  0
 11 12  1  0
 13 12  1  6
 14 13  1  0
 14  9  1  0
 15 17  1  0
 15 13  1  0
 16 15  2  0
 18 17  1  0
 18 19  1  1
 20 19  1  0
 21 18  1  0
 22 21  2  0
 23 21  1  0
M  END
$$$$
