HSC.pdb
     RDKit          3D

 23 23  0  0  1  0  0  0  0  0999 V2000
   11.5350  -16.0558   19.0193 N   0  0  0  0  0  0  0  0  0  0  0  0
   12.0671  -15.6695   20.3076 C   0  0  1  0  0  0  0  0  0  0  0  0
   12.5252  -14.2160   20.2142 C   0  0  0  0  0  0  0  0  0  0  0  0
   13.8349  -14.1558   19.5049 C   0  0  0  0  0  0  0  0  0  0  0  0
   15.0561  -14.5575   19.9593 C   0  0  0  0  0  0  0  0  0  0  0  0
   15.9548  -14.3164   18.9855 N   0  0  0  0  0  0  0  0  0  0  0  0
   15.3418  -13.7751   17.9295 C   0  0  0  0  0  0  0  0  0  0  0  0
   14.0292  -13.6802   18.2623 N   0  0  0  0  0  0  0  0  0  0  0  0
   10.9734  -15.7591   21.3059 C   0  0  0  0  0  0  0  0  0  0  0  0
    9.8336  -15.3683   21.0097 O   0  0  0  0  0  0  0  0  0  0  0  0
   10.5104  -18.7292   23.9061 O   0  0  0  0  0  0  0  0  0  0  0  0
    9.5322  -17.7814   23.6516 C   0  0  0  0  0  0  0  0  0  0  0  0
   10.0924  -16.3955   23.5196 C   0  0  2  0  0  0  0  0  0  0  0  0
   11.1748  -16.2789   22.6029 N   0  0  0  0  0  0  0  0  0  0  0  0
   10.5715  -15.9749   24.8613 C   0  0  0  0  0  0  0  0  0  0  0  0
   11.7650  -16.0877   25.2416 O   0  0  0  0  0  0  0  0  0  0  0  0
    9.6486  -15.4105   25.7853 N   0  0  0  0  0  0  0  0  0  0  0  0
    9.9929  -15.1295   27.1418 C   0  0  1  0  0  0  0  0  0  0  0  0
    8.9076  -14.2972   27.8386 C   0  0  0  0  0  0  0  0  0  0  0  0
    8.6431  -12.7714   26.9111 S   0  0  0  0  0  0  0  0  0  0  0  0
   10.2670  -16.3362   27.9433 C   0  0  0  0  0  0  0  0  0  0  0  0
    9.9974  -17.4596   27.4702 O   0  0  0  0  0  0  0  0  0  0  0  0
   10.8144  -16.2627   29.2054 O   0  0  0  0  0  0  0  0  0  0  0  0
  2  9  1  0
  2  1  1  6
  3  2  1  0
  4  5  2  0
  4  3  1  0
  6  5  1  0
  7  8  2  0
  7  6  1  0
  8  4  1  0
  9 10  2  0
 11 12  1  0
 13 12  1  1
 14 13  1  0
 14  9  1  0
 15 17  1  0
 15 13  1  0
 16 15  2  0
 18 17  1  0
 18 19  1  1
 20 19  1  0
 21 18  1  0
 22 21  2  0
 23 21  1  0
M  END
$$$$
