HSC.pdb
     RDKit          3D

 23 23  0  0  1  0  0  0  0  0999 V2000
   11.3881  -17.3539   16.5117 N   0  0  0  0  0  0  0  0  0  0  0  0
   11.1838  -18.1412   17.7078 C   0  0  1  0  0  0  0  0  0  0  0  0
   12.1554  -19.3185   17.6715 C   0  0  0  0  0  0  0  0  0  0  0  0
   11.5904  -20.3984   16.8133 C   0  0  0  0  0  0  0  0  0  0  0  0
   10.8382  -21.4693   17.1961 C   0  0  0  0  0  0  0  0  0  0  0  0
   10.5490  -22.1825   16.0908 N   0  0  0  0  0  0  0  0  0  0  0  0
   11.0938  -21.5976   15.0208 C   0  0  0  0  0  0  0  0  0  0  0  0
   11.7364  -20.4935   15.4801 N   0  0  0  0  0  0  0  0  0  0  0  0
   11.5091  -17.2935   18.8811 C   0  0  0  0  0  0  0  0  0  0  0  0
   12.5055  -16.5547   18.8517 O   0  0  0  0  0  0  0  0  0  0  0  0
    9.0594  -17.0657   22.3661 O   0  0  0  0  0  0  0  0  0  0  0  0
    9.7728  -15.9722   21.9020 C   0  0  0  0  0  0  0  0  0  0  0  0
   10.9812  -16.3682   21.1051 C   0  0  2  0  0  0  0  0  0  0  0  0
   10.7208  -17.2895   20.0522 N   0  0  0  0  0  0  0  0  0  0  0  0
   11.9514  -16.9927   22.0407 C   0  0  0  0  0  0  0  0  0  0  0  0
   12.1442  -18.2331   22.1187 O   0  0  0  0  0  0  0  0  0  0  0  0
   12.7169  -16.1633   22.9068 N   0  0  0  0  0  0  0  0  0  0  0  0
   13.6782  -16.6875   23.8226 C   0  0  1  0  0  0  0  0  0  0  0  0
   14.6889  -15.6161   24.2545 C   0  0  0  0  0  0  0  0  0  0  0  0
   15.4993  -14.9401   22.7899 S   0  0  0  0  0  0  0  0  0  0  0  0
   13.0783  -17.2989   25.0225 C   0  0  0  0  0  0  0  0  0  0  0  0
   11.8510  -17.1831   25.2199 O   0  0  0  0  0  0  0  0  0  0  0  0
   13.8337  -17.9980   25.9383 O   0  0  0  0  0  0  0  0  0  0  0  0
  2  9  1  0
  2  1  1  6
  3  2  1  0
  4  5  2  0
  4  3  1  0
  6  5  1  0
  7  8  2  0
  7  6  1  0
  8  4  1  0
  9 10  2  0
 11 12  1  0
 13 12  1  1
 14 13  1  0
 14  9  1  0
 15 17  1  0
 15 13  1  0
 16 15  2  0
 18 17  1  0
 18 19  1  1
 20 19  1  0
 21 18  1  0
 22 21  2  0
 23 21  1  0
M  END
$$$$
