HSC.pdb
     RDKit          3D

 23 23  0  0  1  0  0  0  0  0999 V2000
   11.5524  -24.1820   22.0385 N   0  0  0  0  0  0  0  0  0  0  0  0
   12.0208  -24.7510   23.2831 C   0  0  1  0  0  0  0  0  0  0  0  0
   13.5475  -24.7491   23.2598 C   0  0  0  0  0  0  0  0  0  0  0  0
   14.0278  -25.7857   22.3024 C   0  0  0  0  0  0  0  0  0  0  0  0
   13.6545  -27.0948   22.2237 C   0  0  0  0  0  0  0  0  0  0  0  0
   14.3426  -27.6566   21.2113 N   0  0  0  0  0  0  0  0  0  0  0  0
   15.1394  -26.7455   20.6467 C   0  0  0  0  0  0  0  0  0  0  0  0
   14.9362  -25.5904   21.3305 N   0  0  0  0  0  0  0  0  0  0  0  0
   11.5621  -23.8792   24.3923 C   0  0  0  0  0  0  0  0  0  0  0  0
   11.7272  -22.6515   24.3213 O   0  0  0  0  0  0  0  0  0  0  0  0
    9.0149  -25.2118   27.5515 O   0  0  0  0  0  0  0  0  0  0  0  0
    9.0270  -23.9276   27.0313 C   0  0  0  0  0  0  0  0  0  0  0  0
   10.3812  -23.5222   26.5276 C   0  0  2  0  0  0  0  0  0  0  0  0
   10.9340  -24.3933   25.5473 N   0  0  0  0  0  0  0  0  0  0  0  0
   11.3022  -23.4885   27.6926 C   0  0  0  0  0  0  0  0  0  0  0  0
   12.1167  -24.4077   27.9634 O   0  0  0  0  0  0  0  0  0  0  0  0
   11.2810  -22.3650   28.5653 N   0  0  0  0  0  0  0  0  0  0  0  0
   12.0643  -22.3019   29.7569 C   0  0  1  0  0  0  0  0  0  0  0  0
   12.2954  -20.8518   30.2041 C   0  0  0  0  0  0  0  0  0  0  0  0
   12.6836  -19.8404   28.7602 S   0  0  0  0  0  0  0  0  0  0  0  0
   11.4944  -23.0696   30.8792 C   0  0  0  0  0  0  0  0  0  0  0  0
   10.3261  -23.5015   30.7947 O   0  0  0  0  0  0  0  0  0  0  0  0
   12.2148  -23.3270   32.0250 O   0  0  0  0  0  0  0  0  0  0  0  0
  2  9  1  0
  2  1  1  6
  3  2  1  0
  4  5  2  0
  4  3  1  0
  6  5  1  0
  7  8  2  0
  7  6  1  0
  8  4  1  0
  9 10  2  0
 11 12  1  0
 13 12  1  1
 14 13  1  0
 14  9  1  0
 15 17  1  0
 15 13  1  0
 16 15  2  0
 18 17  1  0
 18 19  1  1
 20 19  1  0
 21 18  1  0
 22 21  2  0
 23 21  1  0
M  END
$$$$
