HSC.pdb
     RDKit          3D

 23 23  0  0  1  0  0  0  0  0999 V2000
    8.2134  -13.4724   18.4070 N   0  0  0  0  0  0  0  0  0  0  0  0
    8.7766  -14.4781   19.2809 C   0  0  1  0  0  0  0  0  0  0  0  0
   10.2593  -14.1657   19.4686 C   0  0  0  0  0  0  0  0  0  0  0  0
   11.0338  -14.7488   18.3362 C   0  0  0  0  0  0  0  0  0  0  0  0
   10.5549  -15.3930   17.2339 C   0  0  0  0  0  0  0  0  0  0  0  0
   11.6106  -15.7493   16.4771 N   0  0  0  0  0  0  0  0  0  0  0  0
   12.7420  -15.3514   17.0648 C   0  0  0  0  0  0  0  0  0  0  0  0
   12.3728  -14.7329   18.2155 N   0  0  0  0  0  0  0  0  0  0  0  0
    8.1004  -14.3784   20.5976 C   0  0  0  0  0  0  0  0  0  0  0  0
    7.7362  -13.2709   21.0224 O   0  0  0  0  0  0  0  0  0  0  0  0
    7.1363  -17.7396   23.1133 O   0  0  0  0  0  0  0  0  0  0  0  0
    6.3492  -16.6029   23.0213 C   0  0  0  0  0  0  0  0  0  0  0  0
    7.1365  -15.3863   22.6315 C   0  0  2  0  0  0  0  0  0  0  0  0
    7.8476  -15.5087   21.4047 N   0  0  0  0  0  0  0  0  0  0  0  0
    8.1185  -15.1207   23.7140 C   0  0  0  0  0  0  0  0  0  0  0  0
    9.3508  -15.3484   23.6078 O   0  0  0  0  0  0  0  0  0  0  0  0
    7.6647  -14.5790   24.9488 N   0  0  0  0  0  0  0  0  0  0  0  0
    8.5276  -14.3930   26.0705 C   0  0  1  0  0  0  0  0  0  0  0  0
    7.9816  -13.3285   27.0321 C   0  0  0  0  0  0  0  0  0  0  0  0
    7.3373  -11.9396   26.0759 S   0  0  0  0  0  0  0  0  0  0  0  0
    8.7945  -15.6331   26.8219 C   0  0  0  0  0  0  0  0  0  0  0  0
    9.5945  -15.6081   27.7800 O   0  0  0  0  0  0  0  0  0  0  0  0
    8.1853  -16.8256   26.4983 O   0  0  0  0  0  0  0  0  0  0  0  0
  2  9  1  0
  2  1  1  6
  3  2  1  0
  4  5  2  0
  4  3  1  0
  6  5  1  0
  7  8  2  0
  7  6  1  0
  8  4  1  0
  9 10  2  0
 11 12  1  0
 13 12  1  1
 14 13  1  0
 14  9  1  0
 15 17  1  0
 15 13  1  0
 16 15  2  0
 18 17  1  0
 18 19  1  1
 20 19  1  0
 21 18  1  0
 22 21  2  0
 23 21  1  0
M  END
$$$$
