QIA.pdb
     RDKit          3D

 23 22  0  0  1  0  0  0  0  0999 V2000
    5.2970  -19.0446   22.1586 N   0  0  0  0  0  0  0  0  0  0  0  0
    5.5408  -18.9423   20.7676 C   0  0  0  0  0  0  0  0  0  0  0  0
    4.8036  -19.5515   19.9706 O   0  0  0  0  0  0  0  0  0  0  0  0
    6.6599  -18.1243   20.2920 C   0  0  0  0  0  0  0  0  0  0  0  0
    7.3412  -17.4065   21.3988 C   0  0  0  0  0  0  0  0  0  0  0  0
    7.6394  -15.9858   21.1020 C   0  0  2  0  0  0  0  0  0  0  0  0
    8.2930  -15.6680   19.8905 N   0  0  0  0  0  0  0  0  0  0  0  0
    8.2918  -15.3925   22.3028 C   0  0  0  0  0  0  0  0  0  0  0  0
    9.5564  -15.3854   22.3099 O   0  0  0  0  0  0  0  0  0  0  0  0
    7.3708  -11.6913   27.1300 C   0  0  0  0  0  0  0  0  0  0  0  0
    8.2616  -12.7524   26.5163 C   0  0  0  0  0  0  0  0  0  0  0  0
    7.5123  -13.3426   25.3483 C   0  0  2  0  0  0  0  0  0  0  0  0
    6.1812  -13.9364   25.7750 C   0  0  0  0  0  0  0  0  0  0  0  0
    8.3191  -14.3611   24.5917 C   0  0  2  0  0  0  0  0  0  0  0  0
    7.6212  -14.8480   23.4125 N   0  0  0  0  0  0  0  0  0  0  0  0
    8.5911  -15.4990   25.5399 C   0  0  0  0  0  0  0  0  0  0  0  0
    7.6430  -16.2163   25.9482 O   0  0  0  0  0  0  0  0  0  0  0  0
   11.4690  -17.6633   26.2753 C   0  0  0  0  0  0  0  0  0  0  0  0
   10.2180  -16.9730   26.7750 C   0  0  2  0  0  0  0  0  0  0  0  0
    9.8932  -15.8029   26.0013 N   0  0  0  0  0  0  0  0  0  0  0  0
   10.2462  -16.7192   28.2235 C   0  0  0  0  0  0  0  0  0  0  0  0
   10.1055  -15.5516   28.6425 O   0  0  0  0  0  0  0  0  0  0  0  0
   10.4238  -17.7323   29.1414 O   0  0  0  0  0  0  0  0  0  0  0  0
  2  1  1  0
  2  3  2  0
  4  5  1  0
  4  2  1  0
  5  6  1  0
  6  7  1  6
  8  6  1  0
  8  9  2  0
 10 11  1  0
 11 12  1  0
 12 13  1  1
 12 14  1  0
 14 15  1  6
 14 16  1  0
 15  8  1  0
 16 20  1  0
 17 16  2  0
 19 18  1  6
 19 21  1  0
 20 19  1  0
 21 22  2  0
 21 23  1  0
M  END
$$$$
