QIA.pdb
     RDKit          3D

 23 22  0  0  1  0  0  0  0  0999 V2000
    7.9521  -17.6979   18.9613 N   0  0  0  0  0  0  0  0  0  0  0  0
    7.0188  -17.5822   20.0198 C   0  0  0  0  0  0  0  0  0  0  0  0
    6.3604  -18.5802   20.3670 O   0  0  0  0  0  0  0  0  0  0  0  0
    6.8418  -16.2881   20.6842 C   0  0  0  0  0  0  0  0  0  0  0  0
    7.6781  -15.2241   20.0734 C   0  0  0  0  0  0  0  0  0  0  0  0
    7.4788  -13.8833   20.6718 C   0  0  2  0  0  0  0  0  0  0  0  0
    7.7680  -12.7417   19.8914 N   0  0  0  0  0  0  0  0  0  0  0  0
    8.1391  -13.8733   22.0072 C   0  0  0  0  0  0  0  0  0  0  0  0
    9.3785  -13.6225   22.0199 O   0  0  0  0  0  0  0  0  0  0  0  0
    5.9117  -11.5721   26.2502 C   0  0  0  0  0  0  0  0  0  0  0  0
    6.9163  -12.0136   25.2053 C   0  0  0  0  0  0  0  0  0  0  0  0
    7.3693  -13.4021   25.5810 C   0  0  2  0  0  0  0  0  0  0  0  0
    8.1136  -13.4129   26.9047 C   0  0  0  0  0  0  0  0  0  0  0  0
    8.1993  -14.0549   24.5106 C   0  0  2  0  0  0  0  0  0  0  0  0
    7.5012  -14.1174   23.2366 N   0  0  0  0  0  0  0  0  0  0  0  0
    8.5241  -15.4443   24.9925 C   0  0  0  0  0  0  0  0  0  0  0  0
    7.5965  -16.2350   25.3002 O   0  0  0  0  0  0  0  0  0  0  0  0
   11.4949  -17.7247   24.9422 C   0  0  0  0  0  0  0  0  0  0  0  0
   10.2039  -17.2332   25.5609 C   0  0  2  0  0  0  0  0  0  0  0  0
    9.8543  -15.9089   25.1170 N   0  0  0  0  0  0  0  0  0  0  0  0
   10.1814  -17.3775   27.0245 C   0  0  0  0  0  0  0  0  0  0  0  0
   10.0320  -16.3629   27.7366 O   0  0  0  0  0  0  0  0  0  0  0  0
   10.3206  -18.6020   27.6422 O   0  0  0  0  0  0  0  0  0  0  0  0
  2  1  1  0
  2  3  2  0
  4  5  1  0
  4  2  1  0
  5  6  1  0
  6  7  1  6
  8  6  1  0
  8  9  2  0
 10 11  1  0
 11 12  1  0
 12 13  1  1
 12 14  1  0
 14 15  1  6
 14 16  1  0
 15  8  1  0
 16 20  1  0
 17 16  2  0
 19 18  1  1
 19 21  1  0
 20 19  1  0
 21 22  2  0
 21 23  1  0
M  END
$$$$
