QIA.pdb
     RDKit          3D

 23 22  0  0  1  0  0  0  0  0999 V2000
    7.5580  -18.2383   17.5195 N   0  0  0  0  0  0  0  0  0  0  0  0
    7.9938  -18.1959   18.8660 C   0  0  0  0  0  0  0  0  0  0  0  0
    9.1798  -18.4631   19.1341 O   0  0  0  0  0  0  0  0  0  0  0  0
    7.0390  -17.8425   19.9200 C   0  0  0  0  0  0  0  0  0  0  0  0
    7.7048  -17.2388   21.1018 C   0  0  0  0  0  0  0  0  0  0  0  0
    7.9663  -15.7863   20.9695 C   0  0  2  0  0  0  0  0  0  0  0  0
    8.6897  -15.3263   19.8466 N   0  0  0  0  0  0  0  0  0  0  0  0
    8.5092  -15.2969   22.2676 C   0  0  0  0  0  0  0  0  0  0  0  0
    9.7681  -15.3005   22.3878 O   0  0  0  0  0  0  0  0  0  0  0  0
    7.0834  -11.9064   27.2067 C   0  0  0  0  0  0  0  0  0  0  0  0
    8.0631  -12.8917   26.6022 C   0  0  0  0  0  0  0  0  0  0  0  0
    7.4479  -13.4053   25.3248 C   0  0  2  0  0  0  0  0  0  0  0  0
    6.0827  -14.0250   25.5664 C   0  0  0  0  0  0  0  0  0  0  0  0
    8.3383  -14.3731   24.5959 C   0  0  2  0  0  0  0  0  0  0  0  0
    7.7425  -14.8381   23.3536 N   0  0  0  0  0  0  0  0  0  0  0  0
    8.5767  -15.5353   25.5236 C   0  0  0  0  0  0  0  0  0  0  0  0
    7.6234  -16.2905   25.8417 O   0  0  0  0  0  0  0  0  0  0  0  0
   11.4053  -17.7023   26.3229 C   0  0  0  0  0  0  0  0  0  0  0  0
   10.1561  -17.0077   26.8207 C   0  0  2  0  0  0  0  0  0  0  0  0
    9.8522  -15.8209   26.0642 N   0  0  0  0  0  0  0  0  0  0  0  0
   10.1705  -16.7797   28.2737 C   0  0  0  0  0  0  0  0  0  0  0  0
   10.0663  -15.6149   28.7108 O   0  0  0  0  0  0  0  0  0  0  0  0
   10.2957  -17.8140   29.1763 O   0  0  0  0  0  0  0  0  0  0  0  0
  2  1  1  0
  2  3  2  0
  4  5  1  0
  4  2  1  0
  5  6  1  0
  6  7  1  6
  8  6  1  0
  8  9  2  0
 10 11  1  0
 11 12  1  0
 12 13  1  1
 12 14  1  0
 14 15  1  6
 14 16  1  0
 15  8  1  0
 16 20  1  0
 17 16  2  0
 19 18  1  6
 19 21  1  0
 20 19  1  0
 21 22  2  0
 21 23  1  0
M  END
$$$$
