QIA.pdb
     RDKit          3D

 23 22  0  0  1  0  0  0  0  0999 V2000
    5.8724  -19.0389   24.4248 N   0  0  0  0  0  0  0  0  0  0  0  0
    6.9187  -19.3485   23.5225 C   0  0  0  0  0  0  0  0  0  0  0  0
    7.6802  -20.3013   23.7721 O   0  0  0  0  0  0  0  0  0  0  0  0
    7.0886  -18.5384   22.3132 C   0  0  0  0  0  0  0  0  0  0  0  0
    6.2557  -17.3095   22.3387 C   0  0  0  0  0  0  0  0  0  0  0  0
    6.9475  -16.1022   21.8296 C   0  0  2  0  0  0  0  0  0  0  0  0
    7.6275  -16.1797   20.5937 N   0  0  0  0  0  0  0  0  0  0  0  0
    7.7822  -15.5509   22.9337 C   0  0  0  0  0  0  0  0  0  0  0  0
    9.0321  -15.5398   22.7420 O   0  0  0  0  0  0  0  0  0  0  0  0
    6.0459  -11.6958   26.3209 C   0  0  0  0  0  0  0  0  0  0  0  0
    6.9995  -12.4218   25.3937 C   0  0  0  0  0  0  0  0  0  0  0  0
    7.5183  -13.6247   26.1406 C   0  0  2  0  0  0  0  0  0  0  0  0
    8.4650  -13.2277   27.2597 C   0  0  0  0  0  0  0  0  0  0  0  0
    8.1715  -14.6349   25.2387 C   0  0  2  0  0  0  0  0  0  0  0  0
    7.2959  -15.0496   24.1543 N   0  0  0  0  0  0  0  0  0  0  0  0
    8.5332  -15.8197   26.0950 C   0  0  0  0  0  0  0  0  0  0  0  0
    7.6528  -16.3801   26.7957 O   0  0  0  0  0  0  0  0  0  0  0  0
   11.4171  -18.2231   26.2568 C   0  0  0  0  0  0  0  0  0  0  0  0
   10.2075  -17.5401   26.8580 C   0  0  2  0  0  0  0  0  0  0  0  0
    9.8471  -16.3410   26.1470 N   0  0  0  0  0  0  0  0  0  0  0  0
   10.3294  -17.3374   28.3096 C   0  0  0  0  0  0  0  0  0  0  0  0
   10.4198  -16.1762   28.7593 O   0  0  0  0  0  0  0  0  0  0  0  0
   10.3475  -18.3917   29.1976 O   0  0  0  0  0  0  0  0  0  0  0  0
  2  1  1  0
  2  3  2  0
  4  5  1  0
  4  2  1  0
  5  6  1  0
  6  7  1  6
  8  6  1  0
  8  9  2  0
 10 11  1  0
 11 12  1  0
 12 13  1  1
 12 14  1  0
 14 15  1  6
 14 16  1  0
 15  8  1  0
 16 20  1  0
 17 16  2  0
 19 18  1  6
 19 21  1  0
 20 19  1  0
 21 22  2  0
 21 23  1  0
M  END
$$$$
