QIA.pdb
     RDKit          3D

 23 22  0  0  1  0  0  0  0  0999 V2000
    4.8936  -18.1113   20.5542 N   0  0  0  0  0  0  0  0  0  0  0  0
    5.9701  -18.3474   19.6651 C   0  0  0  0  0  0  0  0  0  0  0  0
    5.7750  -19.0121   18.6307 O   0  0  0  0  0  0  0  0  0  0  0  0
    7.2955  -17.8083   19.9816 C   0  0  0  0  0  0  0  0  0  0  0  0
    7.2894  -16.9961   21.2246 C   0  0  0  0  0  0  0  0  0  0  0  0
    7.7860  -15.6121   21.0422 C   0  0  2  0  0  0  0  0  0  0  0  0
    8.6129  -15.3281   19.9326 N   0  0  0  0  0  0  0  0  0  0  0  0
    8.3550  -15.1531   22.3404 C   0  0  0  0  0  0  0  0  0  0  0  0
    9.6050  -15.2808   22.4830 O   0  0  0  0  0  0  0  0  0  0  0  0
    7.0497  -11.7061   27.3015 C   0  0  0  0  0  0  0  0  0  0  0  0
    8.0102  -12.6936   26.6702 C   0  0  0  0  0  0  0  0  0  0  0  0
    7.3770  -13.1744   25.3888 C   0  0  2  0  0  0  0  0  0  0  0  0
    6.0025  -13.7734   25.6297 C   0  0  0  0  0  0  0  0  0  0  0  0
    8.2447  -14.1455   24.6374 C   0  0  2  0  0  0  0  0  0  0  0  0
    7.6214  -14.5975   23.4038 N   0  0  0  0  0  0  0  0  0  0  0  0
    8.4901  -15.3155   25.5533 C   0  0  0  0  0  0  0  0  0  0  0  0
    7.5390  -16.0726   25.8732 O   0  0  0  0  0  0  0  0  0  0  0  0
   11.2737  -17.5374   26.2510 C   0  0  0  0  0  0  0  0  0  0  0  0
   10.0803  -16.8016   26.8213 C   0  0  2  0  0  0  0  0  0  0  0  0
    9.7699  -15.6065   26.0806 N   0  0  0  0  0  0  0  0  0  0  0  0
   10.1902  -16.5722   28.2699 C   0  0  0  0  0  0  0  0  0  0  0  0
   10.1200  -15.4065   28.7114 O   0  0  0  0  0  0  0  0  0  0  0  0
   10.3695  -17.6062   29.1638 O   0  0  0  0  0  0  0  0  0  0  0  0
  2  1  1  0
  2  3  2  0
  4  5  1  0
  4  2  1  0
  5  6  1  0
  6  7  1  6
  8  6  1  0
  8  9  2  0
 10 11  1  0
 11 12  1  0
 12 13  1  1
 12 14  1  0
 14 15  1  6
 14 16  1  0
 15  8  1  0
 16 20  1  0
 17 16  2  0
 19 18  1  6
 19 21  1  0
 20 19  1  0
 21 22  2  0
 21 23  1  0
M  END
$$$$
