QIA.pdb
     RDKit          3D

 23 22  0  0  1  0  0  0  0  0999 V2000
    5.8178  -19.2930   24.8604 N   0  0  0  0  0  0  0  0  0  0  0  0
    6.3191  -19.8048   23.6391 C   0  0  0  0  0  0  0  0  0  0  0  0
    6.6574  -21.0010   23.5697 O   0  0  0  0  0  0  0  0  0  0  0  0
    6.4348  -18.9154   22.4802 C   0  0  0  0  0  0  0  0  0  0  0  0
    5.9864  -17.5333   22.7858 C   0  0  0  0  0  0  0  0  0  0  0  0
    6.7293  -16.4827   22.0512 C   0  0  2  0  0  0  0  0  0  0  0  0
    7.3133  -16.8083   20.8067 N   0  0  0  0  0  0  0  0  0  0  0  0
    7.6781  -15.8399   23.0031 C   0  0  0  0  0  0  0  0  0  0  0  0
    8.9067  -16.0754   22.8176 O   0  0  0  0  0  0  0  0  0  0  0  0
    6.1359  -12.2589   27.2451 C   0  0  0  0  0  0  0  0  0  0  0  0
    6.4975  -13.4919   26.4421 C   0  0  0  0  0  0  0  0  0  0  0  0
    7.7277  -13.1550   25.6376 C   0  0  2  0  0  0  0  0  0  0  0  0
    7.4669  -12.0265   24.6554 C   0  0  0  0  0  0  0  0  0  0  0  0
    8.3019  -14.3465   24.9225 C   0  0  2  0  0  0  0  0  0  0  0  0
    7.3195  -15.0042   24.0758 N   0  0  0  0  0  0  0  0  0  0  0  0
    8.7951  -15.2983   25.9802 C   0  0  0  0  0  0  0  0  0  0  0  0
    7.9846  -16.0583   26.5681 O   0  0  0  0  0  0  0  0  0  0  0  0
   12.0532  -16.8206   26.9358 C   0  0  0  0  0  0  0  0  0  0  0  0
   10.6769  -16.3144   27.3111 C   0  0  2  0  0  0  0  0  0  0  0  0
   10.1584  -15.3767   26.3493 N   0  0  0  0  0  0  0  0  0  0  0  0
   10.6081  -15.8214   28.6950 C   0  0  0  0  0  0  0  0  0  0  0  0
   10.2941  -14.6314   28.9052 O   0  0  0  0  0  0  0  0  0  0  0  0
   10.8799  -16.6324   29.7761 O   0  0  0  0  0  0  0  0  0  0  0  0
  2  1  1  0
  2  3  2  0
  4  5  1  0
  4  2  1  0
  5  6  1  0
  6  7  1  6
  8  6  1  0
  8  9  2  0
 10 11  1  0
 11 12  1  0
 12 13  1  6
 12 14  1  0
 14 15  1  1
 14 16  1  0
 15  8  1  0
 16 20  1  0
 17 16  2  0
 19 18  1  6
 19 21  1  0
 20 19  1  0
 21 22  2  0
 21 23  1  0
M  END
$$$$
