QIA.pdb
     RDKit          3D

 23 22  0  0  1  0  0  0  0  0999 V2000
   11.0346  -19.7632   14.2205 N   0  0  0  0  0  0  0  0  0  0  0  0
   10.1216  -19.6431   15.2960 C   0  0  0  0  0  0  0  0  0  0  0  0
    9.8110  -20.6553   15.9510 O   0  0  0  0  0  0  0  0  0  0  0  0
    9.5555  -18.3298   15.6154 C   0  0  0  0  0  0  0  0  0  0  0  0
   10.2358  -17.6905   16.7700 C   0  0  0  0  0  0  0  0  0  0  0  0
    9.6485  -18.0404   18.0845 C   0  0  2  0  0  0  0  0  0  0  0  0
    8.3228  -18.5267   18.1281 N   0  0  0  0  0  0  0  0  0  0  0  0
    9.8956  -16.9039   19.0156 C   0  0  0  0  0  0  0  0  0  0  0  0
   11.0960  -16.5235   19.1324 O   0  0  0  0  0  0  0  0  0  0  0  0
    6.7377  -12.4667   19.6298 C   0  0  0  0  0  0  0  0  0  0  0  0
    8.0066  -13.2855   19.5051 C   0  0  0  0  0  0  0  0  0  0  0  0
    8.1169  -14.1293   20.7501 C   0  0  2  0  0  0  0  0  0  0  0  0
    8.2674  -13.2761   21.9974 C   0  0  0  0  0  0  0  0  0  0  0  0
    9.2265  -15.1410   20.6733 C   0  0  2  0  0  0  0  0  0  0  0  0
    8.9129  -16.2313   19.7637 N   0  0  0  0  0  0  0  0  0  0  0  0
    9.4344  -15.6720   22.0671 C   0  0  0  0  0  0  0  0  0  0  0  0
    9.7842  -14.8935   22.9899 O   0  0  0  0  0  0  0  0  0  0  0  0
    8.5402  -18.7085   24.0401 C   0  0  0  0  0  0  0  0  0  0  0  0
    9.5041  -17.5940   23.6937 C   0  0  2  0  0  0  0  0  0  0  0  0
    9.2497  -17.0365   22.3908 N   0  0  0  0  0  0  0  0  0  0  0  0
   10.9108  -17.9728   23.8963 C   0  0  0  0  0  0  0  0  0  0  0  0
   11.6982  -17.9406   22.9279 O   0  0  0  0  0  0  0  0  0  0  0  0
   11.3941  -18.3648   25.1264 O   0  0  0  0  0  0  0  0  0  0  0  0
  2  1  1  0
  2  3  2  0
  4  5  1  0
  4  2  1  0
  5  6  1  0
  6  7  1  6
  8  6  1  0
  8  9  2  0
 10 11  1  0
 11 12  1  0
 12 13  1  1
 12 14  1  0
 14 15  1  6
 14 16  1  0
 15  8  1  0
 16 20  1  0
 17 16  2  0
 19 18  1  6
 19 21  1  0
 20 19  1  0
 21 22  2  0
 21 23  1  0
M  END
$$$$
