QIA.pdb
     RDKit          3D

 23 22  0  0  1  0  0  0  0  0999 V2000
    9.7270  -21.4121   21.9599 N   0  0  0  0  0  0  0  0  0  0  0  0
   10.5475  -20.2693   21.7998 C   0  0  0  0  0  0  0  0  0  0  0  0
   11.7504  -20.3305   22.1147 O   0  0  0  0  0  0  0  0  0  0  0  0
    9.9640  -19.0337   21.2704 C   0  0  0  0  0  0  0  0  0  0  0  0
   10.2022  -17.8721   22.1640 C   0  0  0  0  0  0  0  0  0  0  0  0
    9.6108  -16.6046   21.6750 C   0  0  2  0  0  0  0  0  0  0  0  0
   10.0891  -16.0547   20.4647 N   0  0  0  0  0  0  0  0  0  0  0  0
    9.6024  -15.6348   22.8060 C   0  0  0  0  0  0  0  0  0  0  0  0
   10.5391  -14.7854   22.8254 O   0  0  0  0  0  0  0  0  0  0  0  0
    5.8347  -12.6171   26.5057 C   0  0  0  0  0  0  0  0  0  0  0  0
    7.2789  -13.0092   26.2676 C   0  0  0  0  0  0  0  0  0  0  0  0
    7.2793  -14.0952   25.2214 C   0  0  2  0  0  0  0  0  0  0  0  0
    6.3998  -15.2659   25.6244 C   0  0  0  0  0  0  0  0  0  0  0  0
    8.6623  -14.5755   24.8791 C   0  0  2  0  0  0  0  0  0  0  0  0
    8.6485  -15.5911   23.8384 N   0  0  0  0  0  0  0  0  0  0  0  0
    9.2582  -15.1365   26.1433 C   0  0  0  0  0  0  0  0  0  0  0  0
    9.3758  -16.3802   26.2839 O   0  0  0  0  0  0  0  0  0  0  0  0
   10.6879  -13.7166   29.3681 C   0  0  0  0  0  0  0  0  0  0  0  0
   10.5104  -14.7726   28.2983 C   0  0  2  0  0  0  0  0  0  0  0  0
    9.7008  -14.3090   27.2016 N   0  0  0  0  0  0  0  0  0  0  0  0
   10.0645  -16.0649   28.8408 C   0  0  0  0  0  0  0  0  0  0  0  0
   10.9036  -16.8366   29.3499 O   0  0  0  0  0  0  0  0  0  0  0  0
    8.7434  -16.4572   28.8067 O   0  0  0  0  0  0  0  0  0  0  0  0
  2  1  1  0
  2  3  2  0
  4  5  1  0
  4  2  1  0
  5  6  1  0
  6  7  1  6
  8  6  1  0
  8  9  2  0
 10 11  1  0
 11 12  1  0
 12 13  1  1
 12 14  1  0
 14 15  1  6
 14 16  1  0
 15  8  1  0
 16 20  1  0
 17 16  2  0
 19 18  1  1
 19 21  1  0
 20 19  1  0
 21 22  2  0
 21 23  1  0
M  END
$$$$
