QIA.pdb
     RDKit          3D

 23 22  0  0  1  0  0  0  0  0999 V2000
    8.5012  -12.3340   18.3274 N   0  0  0  0  0  0  0  0  0  0  0  0
    8.0770  -13.6383   17.9758 C   0  0  0  0  0  0  0  0  0  0  0  0
    8.2191  -14.0330   16.8036 O   0  0  0  0  0  0  0  0  0  0  0  0
    7.4740  -14.4982   18.9978 C   0  0  0  0  0  0  0  0  0  0  0  0
    8.1189  -14.3308   20.3247 C   0  0  0  0  0  0  0  0  0  0  0  0
    7.7796  -15.3951   21.2980 C   0  0  2  0  0  0  0  0  0  0  0  0
    6.4366  -15.8224   21.3961 N   0  0  0  0  0  0  0  0  0  0  0  0
    8.3839  -15.0283   22.6095 C   0  0  0  0  0  0  0  0  0  0  0  0
    9.6110  -14.7228   22.5974 O   0  0  0  0  0  0  0  0  0  0  0  0
    5.9540  -11.9145   26.1258 C   0  0  0  0  0  0  0  0  0  0  0  0
    6.9648  -12.5821   25.2155 C   0  0  0  0  0  0  0  0  0  0  0  0
    7.5185  -13.7708   25.9601 C   0  0  2  0  0  0  0  0  0  0  0  0
    8.2914  -13.3502   27.1978 C   0  0  0  0  0  0  0  0  0  0  0  0
    8.3662  -14.6596   25.0929 C   0  0  2  0  0  0  0  0  0  0  0  0
    7.7065  -14.9960   23.8414 N   0  0  0  0  0  0  0  0  0  0  0  0
    8.6447  -15.9100   25.8847 C   0  0  0  0  0  0  0  0  0  0  0  0
    7.6914  -16.6239   26.2868 O   0  0  0  0  0  0  0  0  0  0  0  0
   11.4190  -18.2971   26.1828 C   0  0  0  0  0  0  0  0  0  0  0  0
   10.2715  -17.5719   26.8525 C   0  0  2  0  0  0  0  0  0  0  0  0
    9.9588  -16.3256   26.2027 N   0  0  0  0  0  0  0  0  0  0  0  0
   10.4523  -17.4371   28.3059 C   0  0  0  0  0  0  0  0  0  0  0  0
   10.6125  -16.3015   28.7994 O   0  0  0  0  0  0  0  0  0  0  0  0
   10.4510  -18.5281   29.1486 O   0  0  0  0  0  0  0  0  0  0  0  0
  2  1  1  0
  2  3  2  0
  4  5  1  0
  4  2  1  0
  5  6  1  0
  6  7  1  1
  8  6  1  0
  8  9  2  0
 10 11  1  0
 11 12  1  0
 12 13  1  1
 12 14  1  0
 14 15  1  6
 14 16  1  0
 15  8  1  0
 16 20  1  0
 17 16  2  0
 19 18  1  6
 19 21  1  0
 20 19  1  0
 21 22  2  0
 21 23  1  0
M  END
$$$$
