WPV.pdb
     RDKit          3D

 29 31  0  0  1  0  0  0  0  0999 V2000
   25.1486  -22.2715  -12.7643 N   0  0  0  0  0  0  0  0  0  0  0  0
   25.9710  -21.2495  -12.2105 C   0  0  1  0  0  0  0  0  0  0  0  0
   25.1761  -19.9626  -12.1018 C   0  0  0  0  0  0  0  0  0  0  0  0
   24.8352  -19.3877  -13.4075 C   0  0  0  0  0  0  0  0  0  0  0  0
   23.5936  -19.4269  -14.0172 C   0  0  0  0  0  0  0  0  0  0  0  0
   23.6822  -18.7971  -15.1930 N   0  0  0  0  0  0  0  0  0  0  0  0
   24.9285  -18.3436  -15.3861 C   0  0  0  0  0  0  0  0  0  0  0  0
   25.5652  -17.6404  -16.4015 C   0  0  0  0  0  0  0  0  0  0  0  0
   26.8945  -17.3075  -16.3144 C   0  0  0  0  0  0  0  0  0  0  0  0
   27.6242  -17.6754  -15.1962 C   0  0  0  0  0  0  0  0  0  0  0  0
   27.0179  -18.3752  -14.1705 C   0  0  0  0  0  0  0  0  0  0  0  0
   25.6662  -18.7068  -14.2723 C   0  0  0  0  0  0  0  0  0  0  0  0
   26.6337  -21.5573  -10.9465 C   0  0  0  0  0  0  0  0  0  0  0  0
   25.9680  -21.9328   -9.9480 O   0  0  0  0  0  0  0  0  0  0  0  0
   28.0605  -21.4539  -10.7605 N   0  0  0  0  0  0  0  0  0  0  0  0
   28.9647  -21.3552  -11.8627 C   0  0  0  0  0  0  0  0  0  0  0  0
   30.3497  -21.4680  -11.3096 C   0  0  0  0  0  0  0  0  0  0  0  0
   30.1720  -21.0089   -9.8926 C   0  0  0  0  0  0  0  0  0  0  0  0
   28.7720  -21.4393   -9.5268 C   0  0  1  0  0  0  0  0  0  0  0  0
   28.2712  -20.4863   -8.5252 C   0  0  0  0  0  0  0  0  0  0  0  0
   27.7207  -19.4332   -8.8592 O   0  0  0  0  0  0  0  0  0  0  0  0
   28.5201  -21.6181   -4.3427 C   0  0  0  0  0  0  0  0  0  0  0  0
   27.4755  -20.6986   -4.9061 C   0  0  1  0  0  0  0  0  0  0  0  0
   27.0162  -19.7739   -3.8056 C   0  0  0  0  0  0  0  0  0  0  0  0
   28.0557  -19.9331   -6.0776 C   0  0  2  0  0  0  0  0  0  0  0  0
   28.4437  -20.8221   -7.1541 N   0  0  0  0  0  0  0  0  0  0  0  0
   29.1585  -19.0439   -5.6624 C   0  0  0  0  0  0  0  0  0  0  0  0
   28.9564  -17.9854   -5.0331 O   0  0  0  0  0  0  0  0  0  0  0  0
   30.4536  -19.3945   -5.9803 O   0  0  0  0  0  0  0  0  0  0  0  0
  2  1  1  1
  3  2  1  0
  4  3  1  0
  4 12  1  0
  5  6  1  0
  5  4  2  0
  6  7  1  0
  7  8  2  0
  7 12  1  0
  8  9  1  0
  9 10  2  0
 11 10  1  0
 12 11  2  0
 13  2  1  0
 13 15  1  0
 14 13  2  0
 15 19  1  0
 16 15  1  0
 16 17  1  0
 17 18  1  0
 19 18  1  0
 19 20  1  1
 20 21  2  0
 23 22  1  1
 23 25  1  0
 24 23  1  0
 25 26  1  6
 26 20  1  0
 27 25  1  0
 28 27  2  0
 29 27  1  0
M  END
$$$$
