WPV.pdb
     RDKit          3D

 29 31  0  0  1  0  0  0  0  0999 V2000
   23.4475  -19.2217  -17.6109 N   0  0  0  0  0  0  0  0  0  0  0  0
   24.1454  -18.5247  -16.5840 C   0  0  1  0  0  0  0  0  0  0  0  0
   23.1918  -17.5864  -15.8699 C   0  0  0  0  0  0  0  0  0  0  0  0
   22.9666  -16.3340  -16.5994 C   0  0  0  0  0  0  0  0  0  0  0  0
   22.2118  -16.1840  -17.7494 C   0  0  0  0  0  0  0  0  0  0  0  0
   22.2466  -14.8974  -18.1107 N   0  0  0  0  0  0  0  0  0  0  0  0
   22.9916  -14.1913  -17.2490 C   0  0  0  0  0  0  0  0  0  0  0  0
   23.3579  -12.8552  -17.1422 C   0  0  0  0  0  0  0  0  0  0  0  0
   24.1573  -12.4139  -16.1166 C   0  0  0  0  0  0  0  0  0  0  0  0
   24.6128  -13.3106  -15.1644 C   0  0  0  0  0  0  0  0  0  0  0  0
   24.2649  -14.6455  -15.2448 C   0  0  0  0  0  0  0  0  0  0  0  0
   23.4519  -15.0801  -16.2925 C   0  0  0  0  0  0  0  0  0  0  0  0
   24.8834  -19.3416  -15.6250 C   0  0  0  0  0  0  0  0  0  0  0  0
   24.3053  -20.2532  -14.9801 O   0  0  0  0  0  0  0  0  0  0  0  0
   26.2898  -19.1635  -15.3577 N   0  0  0  0  0  0  0  0  0  0  0  0
   27.1357  -18.3994  -16.2195 C   0  0  0  0  0  0  0  0  0  0  0  0
   28.5413  -18.5979  -15.7487 C   0  0  0  0  0  0  0  0  0  0  0  0
   28.3526  -18.9544  -14.3039 C   0  0  0  0  0  0  0  0  0  0  0  0
   27.0343  -19.6888  -14.2630 C   0  0  1  0  0  0  0  0  0  0  0  0
   26.4468  -19.4554  -12.9354 C   0  0  0  0  0  0  0  0  0  0  0  0
   25.9477  -18.3668  -12.6360 O   0  0  0  0  0  0  0  0  0  0  0  0
   23.7015  -20.8536  -11.4848 C   0  0  0  0  0  0  0  0  0  0  0  0
   24.7175  -21.2243  -10.4433 C   0  0  1  0  0  0  0  0  0  0  0  0
   24.9887  -22.7047  -10.5531 C   0  0  0  0  0  0  0  0  0  0  0  0
   25.9753  -20.4058  -10.6513 C   0  0  2  0  0  0  0  0  0  0  0  0
   26.4737  -20.5314  -12.0061 N   0  0  0  0  0  0  0  0  0  0  0  0
   27.0085  -20.7188   -9.6445 C   0  0  0  0  0  0  0  0  0  0  0  0
   28.0640  -21.3154   -9.9400 O   0  0  0  0  0  0  0  0  0  0  0  0
   26.8004  -20.3395   -8.3352 O   0  0  0  0  0  0  0  0  0  0  0  0
  2  1  1  6
  3  2  1  0
  4  3  1  0
  4 12  1  0
  5  6  1  0
  5  4  2  0
  6  7  1  0
  7  8  2  0
  7 12  1  0
  8  9  1  0
  9 10  2  0
 11 10  1  0
 12 11  2  0
 13  2  1  0
 13 15  1  0
 14 13  2  0
 15 19  1  0
 16 15  1  0
 16 17  1  0
 17 18  1  0
 19 18  1  0
 19 20  1  1
 20 21  2  0
 23 22  1  6
 23 25  1  0
 24 23  1  0
 25 26  1  6
 26 20  1  0
 27 25  1  0
 28 27  2  0
 29 27  1  0
M  END
$$$$
