WPV.pdb
     RDKit          3D

 29 31  0  0  1  0  0  0  0  0999 V2000
   16.0161  -21.4950    3.6255 N   0  0  0  0  0  0  0  0  0  0  0  0
   16.8952  -20.3975    3.8495 C   0  0  1  0  0  0  0  0  0  0  0  0
   16.3620  -19.1680    3.1396 C   0  0  0  0  0  0  0  0  0  0  0  0
   17.3297  -18.5799    2.2073 C   0  0  0  0  0  0  0  0  0  0  0  0
   17.9289  -19.2242    1.1393 C   0  0  0  0  0  0  0  0  0  0  0  0
   18.7466  -18.3590    0.5311 N   0  0  0  0  0  0  0  0  0  0  0  0
   18.7132  -17.1713    1.1512 C   0  0  0  0  0  0  0  0  0  0  0  0
   19.3431  -15.9486    0.9534 C   0  0  0  0  0  0  0  0  0  0  0  0
   19.1007  -14.8788    1.7794 C   0  0  0  0  0  0  0  0  0  0  0  0
   18.2123  -15.0108    2.8337 C   0  0  0  0  0  0  0  0  0  0  0  0
   17.5710  -16.2146    3.0550 C   0  0  0  0  0  0  0  0  0  0  0  0
   17.8268  -17.2935    2.2077 C   0  0  0  0  0  0  0  0  0  0  0  0
   17.2192  -20.0930    5.2401 C   0  0  0  0  0  0  0  0  0  0  0  0
   16.3070  -19.9004    6.0839 O   0  0  0  0  0  0  0  0  0  0  0  0
   18.5727  -19.9941    5.7292 N   0  0  0  0  0  0  0  0  0  0  0  0
   19.7026  -20.2571    4.8949 C   0  0  0  0  0  0  0  0  0  0  0  0
   20.9118  -20.2555    5.7750 C   0  0  0  0  0  0  0  0  0  0  0  0
   20.4762  -19.3950    6.9239 C   0  0  0  0  0  0  0  0  0  0  0  0
   18.9925  -19.6458    7.0449 C   0  0  1  0  0  0  0  0  0  0  0  0
   18.3874  -18.4229    7.5931 C   0  0  0  0  0  0  0  0  0  0  0  0
   18.0534  -17.4872    6.8606 O   0  0  0  0  0  0  0  0  0  0  0  0
   15.6406  -18.7260    9.9071 C   0  0  0  0  0  0  0  0  0  0  0  0
   16.4578  -17.6603   10.5783 C   0  0  1  0  0  0  0  0  0  0  0  0
   16.9913  -18.2194   11.8745 C   0  0  0  0  0  0  0  0  0  0  0  0
   17.5749  -17.2231    9.6531 C   0  0  2  0  0  0  0  0  0  0  0  0
   18.1998  -18.3563    9.0012 N   0  0  0  0  0  0  0  0  0  0  0  0
   18.5572  -16.3640   10.3434 C   0  0  0  0  0  0  0  0  0  0  0  0
   18.3335  -15.1599   10.5825 O   0  0  0  0  0  0  0  0  0  0  0  0
   19.7607  -16.9102   10.7365 O   0  0  0  0  0  0  0  0  0  0  0  0
  2  1  1  1
  3  2  1  0
  4  3  1  0
  4 12  1  0
  5  6  1  0
  5  4  2  0
  6  7  1  0
  7  8  2  0
  7 12  1  0
  8  9  1  0
  9 10  2  0
 11 10  1  0
 12 11  2  0
 13  2  1  0
 13 15  1  0
 14 13  2  0
 15 19  1  0
 16 15  1  0
 16 17  1  0
 17 18  1  0
 19 18  1  0
 19 20  1  6
 20 21  2  0
 23 22  1  6
 23 25  1  0
 24 23  1  0
 25 26  1  1
 26 20  1  0
 27 25  1  0
 28 27  2  0
 29 27  1  0
M  END
$$$$
