WPV.pdb
     RDKit          3D

 29 31  0  0  1  0  0  0  0  0999 V2000
   25.0367  -21.9024  -12.6840 N   0  0  0  0  0  0  0  0  0  0  0  0
   26.0470  -21.0212  -12.2044 C   0  0  1  0  0  0  0  0  0  0  0  0
   25.5205  -19.5990  -12.2035 C   0  0  0  0  0  0  0  0  0  0  0  0
   25.3425  -19.0530  -13.5532 C   0  0  0  0  0  0  0  0  0  0  0  0
   24.1362  -18.8638  -14.2043 C   0  0  0  0  0  0  0  0  0  0  0  0
   24.3862  -18.3484  -15.4120 N   0  0  0  0  0  0  0  0  0  0  0  0
   25.7054  -18.1890  -15.5868 C   0  0  0  0  0  0  0  0  0  0  0  0
   26.5027  -17.7099  -16.6191 C   0  0  0  0  0  0  0  0  0  0  0  0
   27.8703  -17.6670  -16.5040 C   0  0  0  0  0  0  0  0  0  0  0  0
   28.4771  -18.1080  -15.3396 C   0  0  0  0  0  0  0  0  0  0  0  0
   27.7099  -18.5897  -14.2961 C   0  0  0  0  0  0  0  0  0  0  0  0
   26.3211  -18.6274  -14.4268 C   0  0  0  0  0  0  0  0  0  0  0  0
   26.6450  -21.3529  -10.9145 C   0  0  0  0  0  0  0  0  0  0  0  0
   25.9213  -21.5859   -9.9129 O   0  0  0  0  0  0  0  0  0  0  0  0
   28.0700  -21.4336  -10.7052 N   0  0  0  0  0  0  0  0  0  0  0  0
   28.9976  -21.4455  -11.7922 C   0  0  0  0  0  0  0  0  0  0  0  0
   30.3475  -21.7371  -11.2181 C   0  0  0  0  0  0  0  0  0  0  0  0
   30.2063  -21.2664   -9.8008 C   0  0  0  0  0  0  0  0  0  0  0  0
   28.7570  -21.5164   -9.4604 C   0  0  1  0  0  0  0  0  0  0  0  0
   28.3653  -20.5125   -8.4599 C   0  0  0  0  0  0  0  0  0  0  0  0
   27.8541  -19.4393   -8.7925 O   0  0  0  0  0  0  0  0  0  0  0  0
   27.7602  -21.7965   -4.4963 C   0  0  0  0  0  0  0  0  0  0  0  0
   27.2112  -20.5319   -5.0909 C   0  0  1  0  0  0  0  0  0  0  0  0
   26.8461  -19.5986   -3.9627 C   0  0  0  0  0  0  0  0  0  0  0  0
   28.2434  -19.9192   -6.0153 C   0  0  2  0  0  0  0  0  0  0  0  0
   28.5967  -20.8229   -7.0915 N   0  0  0  0  0  0  0  0  0  0  0  0
   29.4282  -19.4395   -5.2767 C   0  0  0  0  0  0  0  0  0  0  0  0
   29.4208  -18.3708   -4.6324 O   0  0  0  0  0  0  0  0  0  0  0  0
   30.5801  -20.1970   -5.2997 O   0  0  0  0  0  0  0  0  0  0  0  0
  2  1  1  1
  3  2  1  0
  4  3  1  0
  4 12  1  0
  5  6  1  0
  5  4  2  0
  6  7  1  0
  7  8  2  0
  7 12  1  0
  8  9  1  0
  9 10  2  0
 11 10  1  0
 12 11  2  0
 13  2  1  0
 13 15  1  0
 14 13  2  0
 15 19  1  0
 16 15  1  0
 16 17  1  0
 17 18  1  0
 19 18  1  0
 19 20  1  1
 20 21  2  0
 23 22  1  1
 23 25  1  0
 24 23  1  0
 25 26  1  6
 26 20  1  0
 27 25  1  0
 28 27  2  0
 29 27  1  0
M  END
$$$$
