WPV.pdb
     RDKit          3D

 29 31  0  0  1  0  0  0  0  0999 V2000
   24.8734  -21.7777  -12.6199 N   0  0  0  0  0  0  0  0  0  0  0  0
   25.8795  -20.8834  -12.1558 C   0  0  1  0  0  0  0  0  0  0  0  0
   25.3118  -19.4794  -12.0755 C   0  0  0  0  0  0  0  0  0  0  0  0
   24.9582  -18.9284  -13.3881 C   0  0  0  0  0  0  0  0  0  0  0  0
   23.6783  -18.7807  -13.8930 C   0  0  0  0  0  0  0  0  0  0  0  0
   23.7672  -18.2447  -15.1144 N   0  0  0  0  0  0  0  0  0  0  0  0
   25.0503  -18.0321  -15.4380 C   0  0  0  0  0  0  0  0  0  0  0  0
   25.7039  -17.5126  -16.5487 C   0  0  0  0  0  0  0  0  0  0  0  0
   27.0730  -17.4173  -16.5915 C   0  0  0  0  0  0  0  0  0  0  0  0
   27.8268  -17.8448  -15.5111 C   0  0  0  0  0  0  0  0  0  0  0  0
   27.2045  -18.3658  -14.3927 C   0  0  0  0  0  0  0  0  0  0  0  0
   25.8122  -18.4568  -14.3628 C   0  0  0  0  0  0  0  0  0  0  0  0
   26.5494  -21.2433  -10.9095 C   0  0  0  0  0  0  0  0  0  0  0  0
   25.8849  -21.6101   -9.9069 O   0  0  0  0  0  0  0  0  0  0  0  0
   27.9821  -21.2034  -10.7463 N   0  0  0  0  0  0  0  0  0  0  0  0
   28.8656  -20.9767  -11.8463 C   0  0  0  0  0  0  0  0  0  0  0  0
   30.2580  -21.2004  -11.3482 C   0  0  0  0  0  0  0  0  0  0  0  0
   30.1231  -20.9369   -9.8777 C   0  0  0  0  0  0  0  0  0  0  0  0
   28.7193  -21.3776   -9.5402 C   0  0  1  0  0  0  0  0  0  0  0  0
   28.2672  -20.5595   -8.4050 C   0  0  0  0  0  0  0  0  0  0  0  0
   27.6743  -19.4909   -8.5789 O   0  0  0  0  0  0  0  0  0  0  0  0
   29.7461  -21.5174   -4.4653 C   0  0  0  0  0  0  0  0  0  0  0  0
   28.2939  -21.1906   -4.6616 C   0  0  1  0  0  0  0  0  0  0  0  0
   27.7964  -20.4849   -3.4239 C   0  0  0  0  0  0  0  0  0  0  0  0
   28.1325  -20.3333   -5.9003 C   0  0  2  0  0  0  0  0  0  0  0  0
   28.5376  -21.0447   -7.0959 N   0  0  0  0  0  0  0  0  0  0  0  0
   28.8191  -19.0336   -5.7636 C   0  0  0  0  0  0  0  0  0  0  0  0
   29.8923  -18.7852   -6.3498 O   0  0  0  0  0  0  0  0  0  0  0  0
   28.2560  -18.0630   -4.9623 O   0  0  0  0  0  0  0  0  0  0  0  0
  2  1  1  1
  3  2  1  0
  4  3  1  0
  4 12  1  0
  5  6  1  0
  5  4  2  0
  6  7  1  0
  7  8  2  0
  7 12  1  0
  8  9  1  0
  9 10  2  0
 11 10  1  0
 12 11  2  0
 13  2  1  0
 13 15  1  0
 14 13  2  0
 15 19  1  0
 16 15  1  0
 16 17  1  0
 17 18  1  0
 19 18  1  0
 19 20  1  1
 20 21  2  0
 23 22  1  1
 23 25  1  0
 24 23  1  0
 25 26  1  6
 26 20  1  0
 27 25  1  0
 28 27  2  0
 29 27  1  0
M  END
$$$$
