WPV.pdb
     RDKit          3D

 29 31  0  0  1  0  0  0  0  0999 V2000
   24.4842  -22.3183  -12.9305 N   0  0  0  0  0  0  0  0  0  0  0  0
   25.1616  -21.2551  -12.2686 C   0  0  1  0  0  0  0  0  0  0  0  0
   24.1466  -20.2684  -11.7245 C   0  0  0  0  0  0  0  0  0  0  0  0
   23.1546  -19.8572  -12.7236 C   0  0  0  0  0  0  0  0  0  0  0  0
   21.7982  -20.1290  -12.6865 C   0  0  0  0  0  0  0  0  0  0  0  0
   21.2312  -19.5895  -13.7702 N   0  0  0  0  0  0  0  0  0  0  0  0
   22.1544  -18.9732  -14.5214 C   0  0  0  0  0  0  0  0  0  0  0  0
   22.1269  -18.2674  -15.7180 C   0  0  0  0  0  0  0  0  0  0  0  0
   23.2711  -17.7352  -16.2593 C   0  0  0  0  0  0  0  0  0  0  0  0
   24.4820  -17.8997  -15.6073 C   0  0  0  0  0  0  0  0  0  0  0  0
   24.5401  -18.5969  -14.4157 C   0  0  0  0  0  0  0  0  0  0  0  0
   23.3694  -19.1324  -13.8770 C   0  0  0  0  0  0  0  0  0  0  0  0
   26.1207  -21.6343  -11.2353 C   0  0  0  0  0  0  0  0  0  0  0  0
   25.7862  -22.4087  -10.3027 O   0  0  0  0  0  0  0  0  0  0  0  0
   27.4825  -21.1589  -11.2131 N   0  0  0  0  0  0  0  0  0  0  0  0
   28.1048  -20.5838  -12.3638 C   0  0  0  0  0  0  0  0  0  0  0  0
   29.5519  -20.3959  -12.0361 C   0  0  0  0  0  0  0  0  0  0  0  0
   29.5362  -20.3000  -10.5392 C   0  0  0  0  0  0  0  0  0  0  0  0
   28.3882  -21.1834  -10.1142 C   0  0  1  0  0  0  0  0  0  0  0  0
   27.8613  -20.6369   -8.8549 C   0  0  0  0  0  0  0  0  0  0  0  0
   26.9515  -19.8028   -8.8473 O   0  0  0  0  0  0  0  0  0  0  0  0
   30.2053  -20.9988   -5.2832 C   0  0  0  0  0  0  0  0  0  0  0  0
   28.7455  -21.3443   -5.2227 C   0  0  1  0  0  0  0  0  0  0  0  0
   28.2208  -20.9445   -3.8655 C   0  0  0  0  0  0  0  0  0  0  0  0
   28.0116  -20.6326   -6.3408 C   0  0  2  0  0  0  0  0  0  0  0  0
   28.4385  -21.1051   -7.6424 N   0  0  0  0  0  0  0  0  0  0  0  0
   28.1121  -19.1649   -6.2185 C   0  0  0  0  0  0  0  0  0  0  0  0
   28.9372  -18.4991   -6.8766 O   0  0  0  0  0  0  0  0  0  0  0  0
   27.2667  -18.5087   -5.3489 O   0  0  0  0  0  0  0  0  0  0  0  0
  2  1  1  1
  3  2  1  0
  4  3  1  0
  4 12  1  0
  5  6  1  0
  5  4  2  0
  6  7  1  0
  7  8  2  0
  7 12  1  0
  8  9  1  0
  9 10  2  0
 11 10  1  0
 12 11  2  0
 13  2  1  0
 13 15  1  0
 14 13  2  0
 15 19  1  0
 16 15  1  0
 16 17  1  0
 17 18  1  0
 19 18  1  0
 19 20  1  1
 20 21  2  0
 23 22  1  1
 23 25  1  0
 24 23  1  0
 25 26  1  6
 26 20  1  0
 27 25  1  0
 28 27  2  0
 29 27  1  0
M  END
$$$$
