WPV.pdb
     RDKit          3D

 29 31  0  0  1  0  0  0  0  0999 V2000
   25.3043  -21.8266  -12.6321 N   0  0  0  0  0  0  0  0  0  0  0  0
   26.2634  -20.8983  -12.1362 C   0  0  1  0  0  0  0  0  0  0  0  0
   25.6668  -19.5040  -12.1372 C   0  0  0  0  0  0  0  0  0  0  0  0
   25.4336  -18.9816  -13.4879 C   0  0  0  0  0  0  0  0  0  0  0  0
   24.2018  -18.7011  -14.0526 C   0  0  0  0  0  0  0  0  0  0  0  0
   24.4019  -18.2443  -15.2929 N   0  0  0  0  0  0  0  0  0  0  0  0
   25.7124  -18.2110  -15.5716 C   0  0  0  0  0  0  0  0  0  0  0  0
   26.4663  -17.8356  -16.6768 C   0  0  0  0  0  0  0  0  0  0  0  0
   27.8371  -17.9148  -16.6663 C   0  0  0  0  0  0  0  0  0  0  0  0
   28.4910  -18.3769  -15.5363 C   0  0  0  0  0  0  0  0  0  0  0  0
   27.7677  -18.7574  -14.4220 C   0  0  0  0  0  0  0  0  0  0  0  0
   26.3751  -18.6716  -14.4467 C   0  0  0  0  0  0  0  0  0  0  0  0
   26.8603  -21.2052  -10.8396 C   0  0  0  0  0  0  0  0  0  0  0  0
   26.1378  -21.5122   -9.8573 O   0  0  0  0  0  0  0  0  0  0  0  0
   28.2829  -21.1777  -10.6020 N   0  0  0  0  0  0  0  0  0  0  0  0
   29.2249  -20.9712  -11.6565 C   0  0  0  0  0  0  0  0  0  0  0  0
   30.5871  -21.2034  -11.0841 C   0  0  0  0  0  0  0  0  0  0  0  0
   30.3783  -20.9233   -9.6252 C   0  0  0  0  0  0  0  0  0  0  0  0
   28.9543  -21.3466   -9.3573 C   0  0  1  0  0  0  0  0  0  0  0  0
   28.4519  -20.5123   -8.2556 C   0  0  0  0  0  0  0  0  0  0  0  0
   27.9292  -19.4144   -8.4677 O   0  0  0  0  0  0  0  0  0  0  0  0
   29.4443  -21.7318   -4.2334 C   0  0  0  0  0  0  0  0  0  0  0  0
   28.0982  -21.1392   -4.5353 C   0  0  1  0  0  0  0  0  0  0  0  0
   27.6408  -20.3633   -3.3245 C   0  0  0  0  0  0  0  0  0  0  0  0
   28.1989  -20.2571   -5.7628 C   0  0  2  0  0  0  0  0  0  0  0  0
   28.5898  -21.0168   -6.9331 N   0  0  0  0  0  0  0  0  0  0  0  0
   29.0768  -19.0926   -5.5335 C   0  0  0  0  0  0  0  0  0  0  0  0
   28.6352  -17.9979   -5.1290 O   0  0  0  0  0  0  0  0  0  0  0  0
   30.4287  -19.2191   -5.7742 O   0  0  0  0  0  0  0  0  0  0  0  0
  2  1  1  1
  3  2  1  0
  4  3  1  0
  4 12  1  0
  5  6  1  0
  5  4  2  0
  6  7  1  0
  7  8  2  0
  7 12  1  0
  8  9  1  0
  9 10  2  0
 11 10  1  0
 12 11  2  0
 13  2  1  0
 13 15  1  0
 14 13  2  0
 15 19  1  0
 16 15  1  0
 16 17  1  0
 17 18  1  0
 19 18  1  0
 19 20  1  1
 20 21  2  0
 23 22  1  1
 23 25  1  0
 24 23  1  0
 25 26  1  6
 26 20  1  0
 27 25  1  0
 28 27  2  0
 29 27  1  0
M  END
$$$$
