WPV.pdb
     RDKit          3D

 29 31  0  0  1  0  0  0  0  0999 V2000
   23.5330  -20.8941  -14.7170 N   0  0  0  0  0  0  0  0  0  0  0  0
   24.7039  -20.2847  -14.1830 C   0  0  1  0  0  0  0  0  0  0  0  0
   24.4560  -18.8025  -13.9793 C   0  0  0  0  0  0  0  0  0  0  0  0
   24.6890  -18.0107  -15.1918 C   0  0  0  0  0  0  0  0  0  0  0  0
   23.7151  -17.4778  -16.0179 C   0  0  0  0  0  0  0  0  0  0  0  0
   24.3203  -16.8246  -17.0149 N   0  0  0  0  0  0  0  0  0  0  0  0
   25.6517  -16.9029  -16.8829 C   0  0  0  0  0  0  0  0  0  0  0  0
   26.7347  -16.4232  -17.6094 C   0  0  0  0  0  0  0  0  0  0  0  0
   28.0260  -16.6730  -17.2148 C   0  0  0  0  0  0  0  0  0  0  0  0
   28.2645  -17.4171  -16.0712 C   0  0  0  0  0  0  0  0  0  0  0  0
   27.2073  -17.9072  -15.3285 C   0  0  0  0  0  0  0  0  0  0  0  0
   25.9001  -17.6457  -15.7412 C   0  0  0  0  0  0  0  0  0  0  0  0
   25.2617  -20.8873  -12.9758 C   0  0  0  0  0  0  0  0  0  0  0  0
   24.5077  -21.3082  -12.0617 O   0  0  0  0  0  0  0  0  0  0  0  0
   26.6792  -21.0370  -12.7538 N   0  0  0  0  0  0  0  0  0  0  0  0
   27.6291  -20.9350  -13.8165 C   0  0  0  0  0  0  0  0  0  0  0  0
   28.9580  -21.3389  -13.2617 C   0  0  0  0  0  0  0  0  0  0  0  0
   28.7994  -21.0525  -11.7978 C   0  0  0  0  0  0  0  0  0  0  0  0
   27.3369  -21.3013  -11.5185 C   0  0  1  0  0  0  0  0  0  0  0  0
   26.9514  -20.4248  -10.4025 C   0  0  0  0  0  0  0  0  0  0  0  0
   26.6742  -19.2360  -10.5854 O   0  0  0  0  0  0  0  0  0  0  0  0
   25.7764  -22.2306   -6.7355 C   0  0  0  0  0  0  0  0  0  0  0  0
   25.4174  -20.8369   -7.1633 C   0  0  1  0  0  0  0  0  0  0  0  0
   25.0702  -20.0385   -5.9307 C   0  0  0  0  0  0  0  0  0  0  0  0
   26.5793  -20.2260   -7.9196 C   0  0  2  0  0  0  0  0  0  0  0  0
   26.9089  -20.9970   -9.1013 N   0  0  0  0  0  0  0  0  0  0  0  0
   27.7512  -20.0106   -7.0480 C   0  0  0  0  0  0  0  0  0  0  0  0
   28.7609  -20.7419   -7.1008 O   0  0  0  0  0  0  0  0  0  0  0  0
   27.7290  -18.9674   -6.1465 O   0  0  0  0  0  0  0  0  0  0  0  0
  2  1  1  1
  3  2  1  0
  4  3  1  0
  4 12  1  0
  5  6  1  0
  5  4  2  0
  6  7  1  0
  7  8  2  0
  7 12  1  0
  8  9  1  0
  9 10  2  0
 11 10  1  0
 12 11  2  0
 13  2  1  0
 13 15  1  0
 14 13  2  0
 15 19  1  0
 16 15  1  0
 16 17  1  0
 17 18  1  0
 19 18  1  0
 19 20  1  1
 20 21  2  0
 23 22  1  1
 23 25  1  0
 24 23  1  0
 25 26  1  6
 26 20  1  0
 27 25  1  0
 28 27  2  0
 29 27  1  0
M  END
$$$$
