WPV.pdb
     RDKit          3D

 29 31  0  0  1  0  0  0  0  0999 V2000
   24.3267  -22.0775  -13.1866 N   0  0  0  0  0  0  0  0  0  0  0  0
   25.0975  -21.0390  -12.5909 C   0  0  1  0  0  0  0  0  0  0  0  0
   24.1887  -19.8838  -12.2174 C   0  0  0  0  0  0  0  0  0  0  0  0
   23.7751  -19.0829  -13.3745 C   0  0  0  0  0  0  0  0  0  0  0  0
   22.5111  -19.0542  -13.9371 C   0  0  0  0  0  0  0  0  0  0  0  0
   22.5299  -18.2071  -14.9710 N   0  0  0  0  0  0  0  0  0  0  0  0
   23.7514  -17.6750  -15.1155 C   0  0  0  0  0  0  0  0  0  0  0  0
   24.3218  -16.7647  -15.9969 C   0  0  0  0  0  0  0  0  0  0  0  0
   25.6419  -16.4015  -15.8930 C   0  0  0  0  0  0  0  0  0  0  0  0
   26.4293  -16.9476  -14.8930 C   0  0  0  0  0  0  0  0  0  0  0  0
   25.8895  -17.8554  -14.0018 C   0  0  0  0  0  0  0  0  0  0  0  0
   24.5464  -18.2155  -14.1192 C   0  0  0  0  0  0  0  0  0  0  0  0
   25.9436  -21.4180  -11.4631 C   0  0  0  0  0  0  0  0  0  0  0  0
   25.4791  -22.0977  -10.5126 O   0  0  0  0  0  0  0  0  0  0  0  0
   27.3344  -21.0480  -11.3635 N   0  0  0  0  0  0  0  0  0  0  0  0
   28.0479  -20.4746  -12.4608 C   0  0  0  0  0  0  0  0  0  0  0  0
   29.4889  -20.4100  -12.0656 C   0  0  0  0  0  0  0  0  0  0  0  0
   29.4137  -20.3749  -10.5678 C   0  0  0  0  0  0  0  0  0  0  0  0
   28.1860  -21.1860  -10.2303 C   0  0  1  0  0  0  0  0  0  0  0  0
   27.6452  -20.6536   -8.9708 C   0  0  0  0  0  0  0  0  0  0  0  0
   26.7282  -19.8273   -8.9636 O   0  0  0  0  0  0  0  0  0  0  0  0
   29.9006  -21.2948   -5.3279 C   0  0  0  0  0  0  0  0  0  0  0  0
   28.4077  -21.4542   -5.3364 C   0  0  1  0  0  0  0  0  0  0  0  0
   27.8790  -21.0292   -3.9885 C   0  0  0  0  0  0  0  0  0  0  0  0
   27.8179  -20.6244   -6.4584 C   0  0  2  0  0  0  0  0  0  0  0  0
   28.2174  -21.1262   -7.7577 N   0  0  0  0  0  0  0  0  0  0  0  0
   28.1185  -19.1881   -6.2975 C   0  0  0  0  0  0  0  0  0  0  0  0
   29.0910  -18.6464   -6.8614 O   0  0  0  0  0  0  0  0  0  0  0  0
   27.2980  -18.4204   -5.4982 O   0  0  0  0  0  0  0  0  0  0  0  0
  2  1  1  1
  3  2  1  0
  4  3  1  0
  4 12  1  0
  5  6  1  0
  5  4  2  0
  6  7  1  0
  7  8  2  0
  7 12  1  0
  8  9  1  0
  9 10  2  0
 11 10  1  0
 12 11  2  0
 13  2  1  0
 13 15  1  0
 14 13  2  0
 15 19  1  0
 16 15  1  0
 16 17  1  0
 17 18  1  0
 19 18  1  0
 19 20  1  1
 20 21  2  0
 23 22  1  1
 23 25  1  0
 24 23  1  0
 25 26  1  6
 26 20  1  0
 27 25  1  0
 28 27  2  0
 29 27  1  0
M  END
$$$$
