WPV.pdb
     RDKit          3D

 29 31  0  0  1  0  0  0  0  0999 V2000
   24.1327  -21.1029  -18.1028 N   0  0  0  0  0  0  0  0  0  0  0  0
   23.9448  -20.4032  -16.8770 C   0  0  1  0  0  0  0  0  0  0  0  0
   22.7256  -20.9524  -16.1617 C   0  0  0  0  0  0  0  0  0  0  0  0
   21.4753  -20.3154  -16.5889 C   0  0  0  0  0  0  0  0  0  0  0  0
   20.7004  -20.6856  -17.6740 C   0  0  0  0  0  0  0  0  0  0  0  0
   19.6445  -19.8681  -17.7354 N   0  0  0  0  0  0  0  0  0  0  0  0
   19.6886  -18.9741  -16.7378 C   0  0  0  0  0  0  0  0  0  0  0  0
   18.8757  -17.9226  -16.3326 C   0  0  0  0  0  0  0  0  0  0  0  0
   19.1898  -17.1592  -15.2353 C   0  0  0  0  0  0  0  0  0  0  0  0
   20.3379  -17.4347  -14.5111 C   0  0  0  0  0  0  0  0  0  0  0  0
   21.1655  -18.4742  -14.8904 C   0  0  0  0  0  0  0  0  0  0  0  0
   20.8340  -19.2419  -16.0076 C   0  0  0  0  0  0  0  0  0  0  0  0
   25.0917  -20.3448  -15.9755 C   0  0  0  0  0  0  0  0  0  0  0  0
   25.7113  -21.3917  -15.6571 O   0  0  0  0  0  0  0  0  0  0  0  0
   25.5801  -19.1144  -15.4022 N   0  0  0  0  0  0  0  0  0  0  0  0
   25.2500  -17.8372  -15.9515 C   0  0  0  0  0  0  0  0  0  0  0  0
   26.0812  -16.8202  -15.2362 C   0  0  0  0  0  0  0  0  0  0  0  0
   26.3679  -17.4967  -13.9285 C   0  0  0  0  0  0  0  0  0  0  0  0
   26.4266  -18.9668  -14.2663 C   0  0  1  0  0  0  0  0  0  0  0  0
   26.0027  -19.7063  -13.0680 C   0  0  0  0  0  0  0  0  0  0  0  0
   24.8124  -19.9508  -12.8514 O   0  0  0  0  0  0  0  0  0  0  0  0
   28.9829  -21.8144  -11.3292 C   0  0  0  0  0  0  0  0  0  0  0  0
   27.9943  -21.3698  -10.2902 C   0  0  1  0  0  0  0  0  0  0  0  0
   28.6306  -20.2743   -9.4702 C   0  0  0  0  0  0  0  0  0  0  0  0
   26.7254  -20.8978  -10.9701 C   0  0  2  0  0  0  0  0  0  0  0  0
   27.0158  -20.1312  -12.1650 N   0  0  0  0  0  0  0  0  0  0  0  0
   25.8408  -20.1689  -10.0399 C   0  0  0  0  0  0  0  0  0  0  0  0
   25.8657  -18.9254   -9.9373 O   0  0  0  0  0  0  0  0  0  0  0  0
   24.9586  -20.8854   -9.2591 O   0  0  0  0  0  0  0  0  0  0  0  0
  2  1  1  6
  3  2  1  0
  4  3  1  0
  4 12  1  0
  5  6  1  0
  5  4  2  0
  6  7  1  0
  7  8  2  0
  7 12  1  0
  8  9  1  0
  9 10  2  0
 11 10  1  0
 12 11  2  0
 13  2  1  0
 13 15  1  0
 14 13  2  0
 15 19  1  0
 16 15  1  0
 16 17  1  0
 17 18  1  0
 19 18  1  0
 19 20  1  1
 20 21  2  0
 23 22  1  6
 23 25  1  0
 24 23  1  0
 25 26  1  6
 26 20  1  0
 27 25  1  0
 28 27  2  0
 29 27  1  0
M  END
$$$$
