WPV.pdb
     RDKit          3D

 29 31  0  0  1  0  0  0  0  0999 V2000
   24.3436  -22.3326  -16.1438 N   0  0  0  0  0  0  0  0  0  0  0  0
   24.4193  -21.3952  -15.0747 C   0  0  1  0  0  0  0  0  0  0  0  0
   23.0562  -21.2565  -14.4248 C   0  0  0  0  0  0  0  0  0  0  0  0
   22.0403  -20.7152  -15.3340 C   0  0  0  0  0  0  0  0  0  0  0  0
   21.2320  -21.4492  -16.1841 C   0  0  0  0  0  0  0  0  0  0  0  0
   20.4394  -20.6013  -16.8474 N   0  0  0  0  0  0  0  0  0  0  0  0
   20.6894  -19.3392  -16.4721 C   0  0  0  0  0  0  0  0  0  0  0  0
   20.1778  -18.0964  -16.8247 C   0  0  0  0  0  0  0  0  0  0  0  0
   20.6489  -16.9414  -16.2505 C   0  0  0  0  0  0  0  0  0  0  0  0
   21.6539  -17.0059  -15.2997 C   0  0  0  0  0  0  0  0  0  0  0  0
   22.1820  -18.2278  -14.9290 C   0  0  0  0  0  0  0  0  0  0  0  0
   21.6938  -19.3935  -15.5207 C   0  0  0  0  0  0  0  0  0  0  0  0
   25.4508  -21.6327  -14.0692 C   0  0  0  0  0  0  0  0  0  0  0  0
   25.4586  -22.6953  -13.3968 O   0  0  0  0  0  0  0  0  0  0  0  0
   26.5043  -20.6892  -13.7845 N   0  0  0  0  0  0  0  0  0  0  0  0
   26.8535  -19.6438  -14.6941 C   0  0  0  0  0  0  0  0  0  0  0  0
   28.0978  -19.0000  -14.1707 C   0  0  0  0  0  0  0  0  0  0  0  0
   28.0288  -19.3047  -12.7035 C   0  0  0  0  0  0  0  0  0  0  0  0
   27.3310  -20.6411  -12.6258 C   0  0  1  0  0  0  0  0  0  0  0  0
   26.6148  -20.6843  -11.3422 C   0  0  0  0  0  0  0  0  0  0  0  0
   25.3844  -20.6014  -11.2898 O   0  0  0  0  0  0  0  0  0  0  0  0
   28.6960  -19.7050   -7.7723 C   0  0  0  0  0  0  0  0  0  0  0  0
   27.8616  -20.9531   -7.7578 C   0  0  1  0  0  0  0  0  0  0  0  0
   27.2516  -21.0982   -6.3853 C   0  0  0  0  0  0  0  0  0  0  0  0
   26.8021  -20.8646   -8.8371 C   0  0  2  0  0  0  0  0  0  0  0  0
   27.3924  -20.8258  -10.1599 N   0  0  0  0  0  0  0  0  0  0  0  0
   25.8737  -19.7403   -8.6063 C   0  0  0  0  0  0  0  0  0  0  0  0
   26.1656  -18.5656   -8.9095 O   0  0  0  0  0  0  0  0  0  0  0  0
   24.6442  -19.9969   -8.0372 O   0  0  0  0  0  0  0  0  0  0  0  0
  2  1  1  6
  3  2  1  0
  4  3  1  0
  4 12  1  0
  5  6  1  0
  5  4  2  0
  6  7  1  0
  7  8  2  0
  7 12  1  0
  8  9  1  0
  9 10  2  0
 11 10  1  0
 12 11  2  0
 13  2  1  0
 13 15  1  0
 14 13  2  0
 15 19  1  0
 16 15  1  0
 16 17  1  0
 17 18  1  0
 19 18  1  0
 19 20  1  1
 20 21  2  0
 23 22  1  1
 23 25  1  0
 24 23  1  0
 25 26  1  6
 26 20  1  0
 27 25  1  0
 28 27  2  0
 29 27  1  0
M  END
$$$$
