WPV.pdb
     RDKit          3D

 29 31  0  0  1  0  0  0  0  0999 V2000
   23.7681  -20.3518  -16.7132 N   0  0  0  0  0  0  0  0  0  0  0  0
   24.4024  -19.4806  -15.7825 C   0  0  1  0  0  0  0  0  0  0  0  0
   23.4100  -18.4366  -15.3081 C   0  0  0  0  0  0  0  0  0  0  0  0
   23.0690  -17.4571  -16.3454 C   0  0  0  0  0  0  0  0  0  0  0  0
   22.4568  -17.7305  -17.5559 C   0  0  0  0  0  0  0  0  0  0  0  0
   22.3153  -16.5817  -18.2247 N   0  0  0  0  0  0  0  0  0  0  0  0
   22.8075  -15.5616  -17.5082 C   0  0  0  0  0  0  0  0  0  0  0  0
   22.9198  -14.1913  -17.7100 C   0  0  0  0  0  0  0  0  0  0  0  0
   23.4894  -13.3748  -16.7643 C   0  0  0  0  0  0  0  0  0  0  0  0
   23.9646  -13.9180  -15.5822 C   0  0  0  0  0  0  0  0  0  0  0  0
   23.8666  -15.2773  -15.3537 C   0  0  0  0  0  0  0  0  0  0  0  0
   23.2854  -16.0953  -16.3235 C   0  0  0  0  0  0  0  0  0  0  0  0
   25.0724  -20.1112  -14.6490 C   0  0  0  0  0  0  0  0  0  0  0  0
   24.4292  -20.8310  -13.8431 O   0  0  0  0  0  0  0  0  0  0  0  0
   26.4814  -19.9558  -14.3819 N   0  0  0  0  0  0  0  0  0  0  0  0
   27.3824  -19.4137  -15.3496 C   0  0  0  0  0  0  0  0  0  0  0  0
   28.7668  -19.5885  -14.8113 C   0  0  0  0  0  0  0  0  0  0  0  0
   28.5339  -19.6525  -13.3308 C   0  0  0  0  0  0  0  0  0  0  0  0
   27.1772  -20.2987  -13.1874 C   0  0  1  0  0  0  0  0  0  0  0  0
   26.5802  -19.7868  -11.9449 C   0  0  0  0  0  0  0  0  0  0  0  0
   26.1649  -18.6274  -11.8617 O   0  0  0  0  0  0  0  0  0  0  0  0
   23.7124  -20.4336  -10.3595 C   0  0  0  0  0  0  0  0  0  0  0  0
   24.6434  -20.8062   -9.2421 C   0  0  1  0  0  0  0  0  0  0  0  0
   24.6505  -22.3097   -9.1139 C   0  0  0  0  0  0  0  0  0  0  0  0
   26.0263  -20.2607   -9.5341 C   0  0  2  0  0  0  0  0  0  0  0  0
   26.4976  -20.6776  -10.8394 N   0  0  0  0  0  0  0  0  0  0  0  0
   26.9859  -20.5903   -8.4619 C   0  0  0  0  0  0  0  0  0  0  0  0
   27.9264  -21.3918   -8.6364 O   0  0  0  0  0  0  0  0  0  0  0  0
   26.8381  -19.9932   -7.2279 O   0  0  0  0  0  0  0  0  0  0  0  0
  2  1  1  1
  3  2  1  0
  4  3  1  0
  4 12  1  0
  5  6  1  0
  5  4  2  0
  6  7  1  0
  7  8  2  0
  7 12  1  0
  8  9  1  0
  9 10  2  0
 11 10  1  0
 12 11  2  0
 13  2  1  0
 13 15  1  0
 14 13  2  0
 15 19  1  0
 16 15  1  0
 16 17  1  0
 17 18  1  0
 19 18  1  0
 19 20  1  1
 20 21  2  0
 23 22  1  6
 23 25  1  0
 24 23  1  0
 25 26  1  6
 26 20  1  0
 27 25  1  0
 28 27  2  0
 29 27  1  0
M  END
$$$$
