NQN.pdb
     RDKit          3D

 26 25  0  0  1  0  0  0  0  0999 V2000
   16.9889  -11.8462  -15.7035 N   0  0  0  0  0  0  0  0  0  0  0  0
   18.2227  -11.1767  -15.6303 C   0  0  0  0  0  0  0  0  0  0  0  0
   19.2688  -11.7980  -15.9502 O   0  0  0  0  0  0  0  0  0  0  0  0
   18.3803   -9.7707  -15.1969 C   0  0  0  0  0  0  0  0  0  0  0  0
   18.3427   -9.6318  -13.6941 C   0  0  2  0  0  0  0  0  0  0  0  0
   17.0837   -9.9920  -13.1277 N   0  0  0  0  0  0  0  0  0  0  0  0
   18.6984   -8.2027  -13.3776 C   0  0  0  0  0  0  0  0  0  0  0  0
   17.8246   -7.2995  -13.3831 O   0  0  0  0  0  0  0  0  0  0  0  0
   19.6835   -4.4464  -10.0037 N   0  0  0  0  0  0  0  0  0  0  0  0
   19.4736   -5.7729   -9.5393 C   0  0  0  0  0  0  0  0  0  0  0  0
   18.7404   -5.9582   -8.5650 O   0  0  0  0  0  0  0  0  0  0  0  0
   20.1235   -6.9515  -10.2074 C   0  0  0  0  0  0  0  0  0  0  0  0
   20.9867   -6.4399  -11.3059 C   0  0  0  0  0  0  0  0  0  0  0  0
   20.3989   -6.4587  -12.6762 C   0  0  2  0  0  0  0  0  0  0  0  0
   20.0338   -7.8346  -13.0636 N   0  0  0  0  0  0  0  0  0  0  0  0
   21.2338   -5.8405  -13.7059 C   0  0  0  0  0  0  0  0  0  0  0  0
   22.0167   -6.5131  -14.4034 O   0  0  0  0  0  0  0  0  0  0  0  0
   22.5089   -2.6808  -17.5834 N   0  0  0  0  0  0  0  0  0  0  0  0
   21.6627   -3.8229  -17.5890 C   0  0  0  0  0  0  0  0  0  0  0  0
   21.2722   -4.2865  -18.6766 O   0  0  0  0  0  0  0  0  0  0  0  0
   21.2668   -4.4320  -16.3143 C   0  0  0  0  0  0  0  0  0  0  0  0
   21.8694   -3.8102  -15.0843 C   0  0  2  0  0  0  0  0  0  0  0  0
   21.1695   -4.4413  -13.9362 N   0  0  0  0  0  0  0  0  0  0  0  0
   21.5216   -2.3583  -15.0707 C   0  0  0  0  0  0  0  0  0  0  0  0
   22.4235   -1.3737  -15.4130 O   0  0  0  0  0  0  0  0  0  0  0  0
   20.3319   -2.0482  -14.7221 O   0  0  0  0  0  0  0  0  0  0  0  0
  2  1  1  0
  2  3  2  0
  4  2  1  0
  5  7  1  0
  5  4  1  0
  5  6  1  6
  7  8  2  0
  9 10  1  0
 10 12  1  0
 11 10  2  0
 12 13  1  0
 14 13  1  1
 15  7  1  0
 15 14  1  0
 16 17  2  0
 16 14  1  0
 19 18  1  0
 19 21  1  0
 20 19  2  0
 22 21  1  6
 22 23  1  0
 23 16  1  0
 24 25  1  0
 24 22  1  0
 26 24  2  0
M  END
$$$$
