NQN.pdb
     RDKit          3D

 26 25  0  0  1  0  0  0  0  0999 V2000
   18.1815  -14.4247  -17.0284 N   0  0  0  0  0  0  0  0  0  0  0  0
   18.3241  -13.0282  -16.9555 C   0  0  0  0  0  0  0  0  0  0  0  0
   17.5524  -12.3043  -17.6359 O   0  0  0  0  0  0  0  0  0  0  0  0
   19.3338  -12.3388  -16.1219 C   0  0  0  0  0  0  0  0  0  0  0  0
   19.3504  -10.8490  -16.3657 C   0  0  2  0  0  0  0  0  0  0  0  0
   19.7606  -10.5002  -17.6868 N   0  0  0  0  0  0  0  0  0  0  0  0
   20.2634  -10.2464  -15.3302 C   0  0  0  0  0  0  0  0  0  0  0  0
   20.0412  -10.3962  -14.1024 O   0  0  0  0  0  0  0  0  0  0  0  0
   26.3287   -9.7631  -15.3092 N   0  0  0  0  0  0  0  0  0  0  0  0
   25.4105  -10.8285  -15.5117 C   0  0  0  0  0  0  0  0  0  0  0  0
   25.8350  -11.9216  -15.8937 O   0  0  0  0  0  0  0  0  0  0  0  0
   23.9377  -10.6528  -15.2715 C   0  0  0  0  0  0  0  0  0  0  0  0
   23.6947   -9.2270  -14.9230 C   0  0  0  0  0  0  0  0  0  0  0  0
   22.2726   -8.8249  -14.7235 C   0  0  2  0  0  0  0  0  0  0  0  0
   21.4034   -9.4902  -15.7125 N   0  0  0  0  0  0  0  0  0  0  0  0
   22.0415   -7.3806  -14.7269 C   0  0  0  0  0  0  0  0  0  0  0  0
   22.6272   -6.6232  -13.9299 O   0  0  0  0  0  0  0  0  0  0  0  0
   21.2120   -2.8779  -18.4921 N   0  0  0  0  0  0  0  0  0  0  0  0
   21.1591   -3.3789  -17.1629 C   0  0  0  0  0  0  0  0  0  0  0  0
   20.9143   -2.5961  -16.2261 O   0  0  0  0  0  0  0  0  0  0  0  0
   21.3938   -4.8069  -16.9217 C   0  0  0  0  0  0  0  0  0  0  0  0
   20.8300   -5.3481  -15.6363 C   0  0  2  0  0  0  0  0  0  0  0  0
   21.1324   -6.8023  -15.6509 N   0  0  0  0  0  0  0  0  0  0  0  0
   19.3444   -5.2047  -15.6753 C   0  0  0  0  0  0  0  0  0  0  0  0
   18.6947   -4.0695  -15.2401 O   0  0  0  0  0  0  0  0  0  0  0  0
   18.6762   -6.1921  -16.1351 O   0  0  0  0  0  0  0  0  0  0  0  0
  2  1  1  0
  2  3  2  0
  4  2  1  0
  5  7  1  0
  5  4  1  0
  5  6  1  6
  7  8  2  0
  9 10  1  0
 10 12  1  0
 11 10  2  0
 12 13  1  0
 14 13  1  6
 15  7  1  0
 15 14  1  0
 16 17  2  0
 16 14  1  0
 19 18  1  0
 19 21  1  0
 20 19  2  0
 22 21  1  6
 22 23  1  0
 23 16  1  0
 24 25  1  0
 24 22  1  0
 26 24  2  0
M  END
$$$$
