NQN.pdb
     RDKit          3D

 26 25  0  0  1  0  0  0  0  0999 V2000
   16.9871  -14.6004  -13.9679 N   0  0  0  0  0  0  0  0  0  0  0  0
   16.5372  -13.7037  -14.9525 C   0  0  0  0  0  0  0  0  0  0  0  0
   16.0758  -14.1663  -16.0276 O   0  0  0  0  0  0  0  0  0  0  0  0
   16.5685  -12.2311  -14.8114 C   0  0  0  0  0  0  0  0  0  0  0  0
   15.6454  -11.7451  -13.7201 C   0  0  2  0  0  0  0  0  0  0  0  0
   14.2661  -11.9635  -14.0120 N   0  0  0  0  0  0  0  0  0  0  0  0
   15.9389  -10.2815  -13.5183 C   0  0  0  0  0  0  0  0  0  0  0  0
   15.5386   -9.4195  -14.3404 O   0  0  0  0  0  0  0  0  0  0  0  0
   15.6724   -7.4752   -8.2641 N   0  0  0  0  0  0  0  0  0  0  0  0
   16.3097   -6.4206   -8.9719 C   0  0  0  0  0  0  0  0  0  0  0  0
   16.4511   -5.3271   -8.4195 O   0  0  0  0  0  0  0  0  0  0  0  0
   16.8139   -6.6082  -10.3750 C   0  0  0  0  0  0  0  0  0  0  0  0
   16.4876   -7.9962  -10.7999 C   0  0  0  0  0  0  0  0  0  0  0  0
   16.9597   -8.4047  -12.1541 C   0  0  2  0  0  0  0  0  0  0  0  0
   16.6778   -9.8332  -12.3910 N   0  0  0  0  0  0  0  0  0  0  0  0
   18.3662   -8.1078  -12.4243 C   0  0  0  0  0  0  0  0  0  0  0  0
   19.2847   -8.7859  -11.9258 O   0  0  0  0  0  0  0  0  0  0  0  0
   22.5806   -5.6203  -14.4611 N   0  0  0  0  0  0  0  0  0  0  0  0
   21.3948   -5.1075  -15.0540 C   0  0  0  0  0  0  0  0  0  0  0  0
   21.4840   -4.2405  -15.9431 O   0  0  0  0  0  0  0  0  0  0  0  0
   20.0909   -5.6099  -14.6068 C   0  0  0  0  0  0  0  0  0  0  0  0
   20.1373   -6.7368  -13.6116 C   0  0  2  0  0  0  0  0  0  0  0  0
   18.7205   -7.0259  -13.2720 N   0  0  0  0  0  0  0  0  0  0  0  0
   20.7981   -6.2411  -12.3679 C   0  0  0  0  0  0  0  0  0  0  0  0
   21.9852   -6.7611  -11.8980 O   0  0  0  0  0  0  0  0  0  0  0  0
   20.2143   -5.2965  -11.7355 O   0  0  0  0  0  0  0  0  0  0  0  0
  2  1  1  0
  2  3  2  0
  4  2  1  0
  5  7  1  0
  5  4  1  0
  5  6  1  6
  7  8  2  0
  9 10  1  0
 10 12  1  0
 11 10  2  0
 12 13  1  0
 14 13  1  1
 15  7  1  0
 15 14  1  0
 16 17  2  0
 16 14  1  0
 19 18  1  0
 19 21  1  0
 20 19  2  0
 22 21  1  6
 22 23  1  0
 23 16  1  0
 24 25  1  0
 24 22  1  0
 26 24  2  0
M  END
$$$$
