NQN.pdb
     RDKit          3D

 26 25  0  0  1  0  0  0  0  0999 V2000
   20.6275  -29.1630  -10.0706 N   0  0  0  0  0  0  0  0  0  0  0  0
   19.3205  -28.8036  -10.4425 C   0  0  0  0  0  0  0  0  0  0  0  0
   18.3546  -29.4525   -9.9643 O   0  0  0  0  0  0  0  0  0  0  0  0
   18.9954  -27.6986  -11.3714 C   0  0  0  0  0  0  0  0  0  0  0  0
   20.0535  -27.5190  -12.4332 C   0  0  2  0  0  0  0  0  0  0  0  0
   21.3826  -27.5845  -11.9189 N   0  0  0  0  0  0  0  0  0  0  0  0
   19.7864  -26.1937  -13.0974 C   0  0  0  0  0  0  0  0  0  0  0  0
   18.7552  -26.0117  -13.7924 O   0  0  0  0  0  0  0  0  0  0  0  0
   16.9086  -21.7358  -13.1081 N   0  0  0  0  0  0  0  0  0  0  0  0
   17.4579  -22.3024  -11.9264 C   0  0  0  0  0  0  0  0  0  0  0  0
   16.9323  -22.0495  -10.8397 O   0  0  0  0  0  0  0  0  0  0  0  0
   18.6617  -23.2004  -11.9715 C   0  0  0  0  0  0  0  0  0  0  0  0
   19.0879  -23.3283  -13.3913 C   0  0  0  0  0  0  0  0  0  0  0  0
   20.4783  -23.8132  -13.6264 C   0  0  2  0  0  0  0  0  0  0  0  0
   20.6939  -25.1101  -12.9571 N   0  0  0  0  0  0  0  0  0  0  0  0
   21.5262  -22.8633  -13.2538 C   0  0  0  0  0  0  0  0  0  0  0  0
   22.0967  -22.9201  -12.1478 O   0  0  0  0  0  0  0  0  0  0  0  0
   26.2026  -23.8556  -15.2084 N   0  0  0  0  0  0  0  0  0  0  0  0
   25.3977  -22.6850  -15.2585 C   0  0  0  0  0  0  0  0  0  0  0  0
   25.9168  -21.6024  -15.5884 O   0  0  0  0  0  0  0  0  0  0  0  0
   23.9728  -22.7758  -14.9208 C   0  0  0  0  0  0  0  0  0  0  0  0
   23.3530  -21.5156  -14.3818 C   0  0  2  0  0  0  0  0  0  0  0  0
   21.9216  -21.8416  -14.1564 N   0  0  0  0  0  0  0  0  0  0  0  0
   23.4065  -20.4706  -15.4467 C   0  0  0  0  0  0  0  0  0  0  0  0
   24.4698  -19.6045  -15.5868 O   0  0  0  0  0  0  0  0  0  0  0  0
   22.4105  -20.4009  -16.2443 O   0  0  0  0  0  0  0  0  0  0  0  0
  2  1  1  0
  2  3  2  0
  4  2  1  0
  5  7  1  0
  5  4  1  0
  5  6  1  1
  7  8  2  0
  9 10  1  0
 10 12  1  0
 11 10  2  0
 12 13  1  0
 14 13  1  1
 15  7  1  0
 15 14  1  0
 16 17  2  0
 16 14  1  0
 19 18  1  0
 19 21  1  0
 20 19  2  0
 22 21  1  6
 22 23  1  0
 23 16  1  0
 24 25  1  0
 24 22  1  0
 26 24  2  0
M  END
$$$$
