NQN.pdb
     RDKit          3D

 26 25  0  0  1  0  0  0  0  0999 V2000
   15.1808  -11.9170  -16.0896 N   0  0  0  0  0  0  0  0  0  0  0  0
   15.9135  -11.9198  -14.8901 C   0  0  0  0  0  0  0  0  0  0  0  0
   15.3904  -12.4218  -13.8620 O   0  0  0  0  0  0  0  0  0  0  0  0
   17.2781  -11.3651  -14.7490 C   0  0  0  0  0  0  0  0  0  0  0  0
   17.8208  -10.8509  -16.0605 C   0  0  2  0  0  0  0  0  0  0  0  0
   18.0298  -11.8812  -17.0250 N   0  0  0  0  0  0  0  0  0  0  0  0
   19.1020  -10.1227  -15.7486 C   0  0  0  0  0  0  0  0  0  0  0  0
   19.4553   -9.9094  -14.5615 O   0  0  0  0  0  0  0  0  0  0  0  0
   23.9423   -9.7223  -19.5629 N   0  0  0  0  0  0  0  0  0  0  0  0
   24.3372   -8.7287  -18.6269 C   0  0  0  0  0  0  0  0  0  0  0  0
   25.4388   -8.1889  -18.7541 O   0  0  0  0  0  0  0  0  0  0  0  0
   23.4444   -8.3224  -17.4887 C   0  0  0  0  0  0  0  0  0  0  0  0
   22.1952   -9.1260  -17.5737 C   0  0  0  0  0  0  0  0  0  0  0  0
   21.1732   -8.8792  -16.5161 C   0  0  2  0  0  0  0  0  0  0  0  0
   19.9488   -9.6554  -16.7889 N   0  0  0  0  0  0  0  0  0  0  0  0
   20.8491   -7.4695  -16.2991 C   0  0  0  0  0  0  0  0  0  0  0  0
   20.0546   -6.8600  -17.0402 O   0  0  0  0  0  0  0  0  0  0  0  0
   20.0981   -2.8297  -14.1950 N   0  0  0  0  0  0  0  0  0  0  0  0
   19.2189   -3.9458  -14.1501 C   0  0  0  0  0  0  0  0  0  0  0  0
   18.0536   -3.7873  -13.7411 O   0  0  0  0  0  0  0  0  0  0  0  0
   19.7017   -5.2607  -14.5863 C   0  0  0  0  0  0  0  0  0  0  0  0
   21.1486   -5.3172  -14.9938 C   0  0  2  0  0  0  0  0  0  0  0  0
   21.4407   -6.7551  -15.2247 N   0  0  0  0  0  0  0  0  0  0  0  0
   21.9824   -4.8765  -13.8364 C   0  0  0  0  0  0  0  0  0  0  0  0
   22.2636   -3.5509  -13.5837 O   0  0  0  0  0  0  0  0  0  0  0  0
   22.4402   -5.7892  -13.0680 O   0  0  0  0  0  0  0  0  0  0  0  0
  2  1  1  0
  2  3  2  0
  4  2  1  0
  5  7  1  0
  5  4  1  0
  5  6  1  6
  7  8  2  0
  9 10  1  0
 10 12  1  0
 11 10  2  0
 12 13  1  0
 14 13  1  6
 15  7  1  0
 15 14  1  0
 16 17  2  0
 16 14  1  0
 19 18  1  0
 19 21  1  0
 20 19  2  0
 22 21  1  1
 22 23  1  0
 23 16  1  0
 24 25  1  0
 24 22  1  0
 26 24  2  0
M  END
$$$$
