NQN.pdb
     RDKit          3D

 26 25  0  0  1  0  0  0  0  0999 V2000
   27.6642  -14.3881  -15.0155 N   0  0  0  0  0  0  0  0  0  0  0  0
   26.6878  -13.6538  -15.7107 C   0  0  0  0  0  0  0  0  0  0  0  0
   25.9632  -14.2509  -16.5481 O   0  0  0  0  0  0  0  0  0  0  0  0
   26.4484  -12.2056  -15.5243 C   0  0  0  0  0  0  0  0  0  0  0  0
   25.5053  -11.6473  -16.5626 C   0  0  2  0  0  0  0  0  0  0  0  0
   25.9200  -11.9160  -17.9010 N   0  0  0  0  0  0  0  0  0  0  0  0
   25.4000  -10.1666  -16.3071 C   0  0  0  0  0  0  0  0  0  0  0  0
   25.1157   -9.7230  -15.1662 O   0  0  0  0  0  0  0  0  0  0  0  0
   27.2462   -5.8028  -20.3982 N   0  0  0  0  0  0  0  0  0  0  0  0
   26.7812   -4.9664  -19.3478 C   0  0  0  0  0  0  0  0  0  0  0  0
   26.9371   -3.7464  -19.4390 O   0  0  0  0  0  0  0  0  0  0  0  0
   26.1056   -5.5342  -18.1317 C   0  0  0  0  0  0  0  0  0  0  0  0
   26.1069   -7.0170  -18.2543 C   0  0  0  0  0  0  0  0  0  0  0  0
   25.4569   -7.7756  -17.1472 C   0  0  2  0  0  0  0  0  0  0  0  0
   25.6194   -9.2278  -17.3503 N   0  0  0  0  0  0  0  0  0  0  0  0
   24.0500   -7.4432  -16.9247 C   0  0  0  0  0  0  0  0  0  0  0  0
   23.1381   -7.9955  -17.5692 O   0  0  0  0  0  0  0  0  0  0  0  0
   19.6621   -6.0806  -14.5786 N   0  0  0  0  0  0  0  0  0  0  0  0
   20.3811   -7.2963  -14.4175 C   0  0  0  0  0  0  0  0  0  0  0  0
   19.8459   -8.2454  -13.8148 O   0  0  0  0  0  0  0  0  0  0  0  0
   21.7380   -7.4082  -14.9640 C   0  0  0  0  0  0  0  0  0  0  0  0
   22.2654   -6.1756  -15.6463 C   0  0  2  0  0  0  0  0  0  0  0  0
   23.6877   -6.4707  -15.9563 N   0  0  0  0  0  0  0  0  0  0  0  0
   22.2506   -5.0503  -14.6651 C   0  0  0  0  0  0  0  0  0  0  0  0
   21.0834   -4.5171  -14.1618 O   0  0  0  0  0  0  0  0  0  0  0  0
   23.3821   -4.5839  -14.2975 O   0  0  0  0  0  0  0  0  0  0  0  0
  2  1  1  0
  2  3  2  0
  4  2  1  0
  5  7  1  0
  5  4  1  0
  5  6  1  6
  7  8  2  0
  9 10  1  0
 10 12  1  0
 11 10  2  0
 12 13  1  0
 14 13  1  6
 15  7  1  0
 15 14  1  0
 16 17  2  0
 16 14  1  0
 19 18  1  0
 19 21  1  0
 20 19  2  0
 22 21  1  1
 22 23  1  0
 23 16  1  0
 24 25  1  0
 24 22  1  0
 26 24  2  0
M  END
$$$$
