NQN.pdb
     RDKit          3D

 26 25  0  0  1  0  0  0  0  0999 V2000
   20.8228  -13.4974  -19.5738 N   0  0  0  0  0  0  0  0  0  0  0  0
   20.2958  -12.8399  -18.4488 C   0  0  0  0  0  0  0  0  0  0  0  0
   19.0546  -12.8825  -18.2486 O   0  0  0  0  0  0  0  0  0  0  0  0
   21.1108  -12.0893  -17.4680 C   0  0  0  0  0  0  0  0  0  0  0  0
   22.5750  -12.0785  -17.8357 C   0  0  2  0  0  0  0  0  0  0  0  0
   23.0819  -13.3713  -18.1631 N   0  0  0  0  0  0  0  0  0  0  0  0
   23.3148  -11.4779  -16.6691 C   0  0  0  0  0  0  0  0  0  0  0  0
   22.9042  -11.6313  -15.4913 O   0  0  0  0  0  0  0  0  0  0  0  0
   29.2161   -9.7464  -17.2863 N   0  0  0  0  0  0  0  0  0  0  0  0
   28.8045  -11.0960  -17.1176 C   0  0  0  0  0  0  0  0  0  0  0  0
   29.5619  -12.0027  -17.4718 O   0  0  0  0  0  0  0  0  0  0  0  0
   27.4704  -11.4417  -16.5190 C   0  0  0  0  0  0  0  0  0  0  0  0
   26.7737  -10.1711  -16.1820 C   0  0  0  0  0  0  0  0  0  0  0  0
   25.3531  -10.2884  -15.7440 C   0  0  2  0  0  0  0  0  0  0  0  0
   24.4995  -10.7197  -16.8672 N   0  0  0  0  0  0  0  0  0  0  0  0
   24.8071   -9.0846  -15.1178 C   0  0  0  0  0  0  0  0  0  0  0  0
   25.3599   -8.5494  -14.1380 O   0  0  0  0  0  0  0  0  0  0  0  0
   23.3988   -4.3704  -13.8503 N   0  0  0  0  0  0  0  0  0  0  0  0
   23.1857   -4.7996  -15.1886 C   0  0  0  0  0  0  0  0  0  0  0  0
   22.5780   -4.0532  -15.9784 O   0  0  0  0  0  0  0  0  0  0  0  0
   23.6858   -6.1123  -15.6120 C   0  0  0  0  0  0  0  0  0  0  0  0
   23.0146   -7.2979  -14.9743 C   0  0  2  0  0  0  0  0  0  0  0  0
   23.6191   -8.4914  -15.6194 N   0  0  0  0  0  0  0  0  0  0  0  0
   21.5688   -7.2783  -15.3464 C   0  0  0  0  0  0  0  0  0  0  0  0
   20.6539   -6.4490  -14.7338 O   0  0  0  0  0  0  0  0  0  0  0  0
   21.1956   -8.0750  -16.2732 O   0  0  0  0  0  0  0  0  0  0  0  0
  2  1  1  0
  2  3  2  0
  4  2  1  0
  5  7  1  0
  5  4  1  0
  5  6  1  1
  7  8  2  0
  9 10  1  0
 10 12  1  0
 11 10  2  0
 12 13  1  0
 14 13  1  6
 15  7  1  0
 15 14  1  0
 16 17  2  0
 16 14  1  0
 19 18  1  0
 19 21  1  0
 20 19  2  0
 22 21  1  6
 22 23  1  0
 23 16  1  0
 24 25  1  0
 24 22  1  0
 26 24  2  0
M  END
$$$$
