NQN.pdb
     RDKit          3D

 26 25  0  0  1  0  0  0  0  0999 V2000
   29.0445  -20.5381  -18.7587 N   0  0  0  0  0  0  0  0  0  0  0  0
   27.7410  -20.0441  -18.5782 C   0  0  0  0  0  0  0  0  0  0  0  0
   27.3735  -19.0455  -19.2494 O   0  0  0  0  0  0  0  0  0  0  0  0
   26.7552  -20.6247  -17.6399 C   0  0  0  0  0  0  0  0  0  0  0  0
   26.1679  -19.5843  -16.7171 C   0  0  2  0  0  0  0  0  0  0  0  0
   27.1566  -18.7867  -16.0676 N   0  0  0  0  0  0  0  0  0  0  0  0
   25.3117  -20.3183  -15.7185 C   0  0  0  0  0  0  0  0  0  0  0  0
   24.4464  -21.1496  -16.0919 O   0  0  0  0  0  0  0  0  0  0  0  0
   26.4346  -20.5470   -9.5804 N   0  0  0  0  0  0  0  0  0  0  0  0
   25.1591  -21.1728   -9.6077 C   0  0  0  0  0  0  0  0  0  0  0  0
   24.7082  -21.6607   -8.5686 O   0  0  0  0  0  0  0  0  0  0  0  0
   24.3500  -21.2530  -10.8712 C   0  0  0  0  0  0  0  0  0  0  0  0
   25.1656  -20.6830  -11.9773 C   0  0  0  0  0  0  0  0  0  0  0  0
   24.5408  -20.6826  -13.3314 C   0  0  2  0  0  0  0  0  0  0  0  0
   25.4581  -20.0913  -14.3240 N   0  0  0  0  0  0  0  0  0  0  0  0
   23.2294  -20.0382  -13.3972 C   0  0  0  0  0  0  0  0  0  0  0  0
   23.1103  -18.7982  -13.4082 O   0  0  0  0  0  0  0  0  0  0  0  0
   18.7099  -19.5940  -16.7665 N   0  0  0  0  0  0  0  0  0  0  0  0
   19.1971  -19.4344  -15.4407 C   0  0  0  0  0  0  0  0  0  0  0  0
   18.5358  -18.7653  -14.6250 O   0  0  0  0  0  0  0  0  0  0  0  0
   20.4681  -20.0608  -15.0604 C   0  0  0  0  0  0  0  0  0  0  0  0
   20.7062  -20.1974  -13.5814 C   0  0  2  0  0  0  0  0  0  0  0  0
   22.0473  -20.8222  -13.4507 N   0  0  0  0  0  0  0  0  0  0  0  0
   19.7116  -21.1652  -13.0308 C   0  0  0  0  0  0  0  0  0  0  0  0
   18.6332  -20.7711  -12.2679 O   0  0  0  0  0  0  0  0  0  0  0  0
   19.8957  -22.4021  -13.2940 O   0  0  0  0  0  0  0  0  0  0  0  0
  2  1  1  0
  2  3  2  0
  4  2  1  0
  5  7  1  0
  5  4  1  0
  5  6  1  1
  7  8  2  0
  9 10  1  0
 10 12  1  0
 11 10  2  0
 12 13  1  0
 14 13  1  1
 15  7  1  0
 15 14  1  0
 16 17  2  0
 16 14  1  0
 19 18  1  0
 19 21  1  0
 20 19  2  0
 22 21  1  6
 22 23  1  0
 23 16  1  0
 24 25  1  0
 24 22  1  0
 26 24  2  0
M  END
$$$$
