NQN.pdb
     RDKit          3D

 26 25  0  0  1  0  0  0  0  0999 V2000
   17.2322  -24.4518  -11.5160 N   0  0  0  0  0  0  0  0  0  0  0  0
   17.8406  -23.5523  -10.6235 C   0  0  0  0  0  0  0  0  0  0  0  0
   17.5466  -23.6188   -9.4021 O   0  0  0  0  0  0  0  0  0  0  0  0
   18.8179  -22.5165  -11.0256 C   0  0  0  0  0  0  0  0  0  0  0  0
   19.0757  -22.5253  -12.5130 C   0  0  2  0  0  0  0  0  0  0  0  0
   19.7310  -23.7101  -12.9628 N   0  0  0  0  0  0  0  0  0  0  0  0
   19.8893  -21.2963  -12.8235 C   0  0  0  0  0  0  0  0  0  0  0  0
   19.5306  -20.1612  -12.4207 O   0  0  0  0  0  0  0  0  0  0  0  0
   26.0153  -21.0766  -14.0914 N   0  0  0  0  0  0  0  0  0  0  0  0
   25.1615  -21.9466  -14.8217 C   0  0  0  0  0  0  0  0  0  0  0  0
   25.6544  -22.9001  -15.4290 O   0  0  0  0  0  0  0  0  0  0  0  0
   23.6753  -21.7307  -14.8702 C   0  0  0  0  0  0  0  0  0  0  0  0
   23.3490  -20.5743  -13.9929 C   0  0  0  0  0  0  0  0  0  0  0  0
   21.9087  -20.2006  -13.8945 C   0  0  2  0  0  0  0  0  0  0  0  0
   21.0872  -21.3853  -13.5817 N   0  0  0  0  0  0  0  0  0  0  0  0
   21.3786  -19.5038  -15.0662 C   0  0  0  0  0  0  0  0  0  0  0  0
   20.9035  -20.1244  -16.0363 O   0  0  0  0  0  0  0  0  0  0  0  0
   20.3474  -13.5838  -16.6262 N   0  0  0  0  0  0  0  0  0  0  0  0
   20.2461  -14.9806  -16.8698 C   0  0  0  0  0  0  0  0  0  0  0  0
   19.7736  -15.3777  -17.9512 O   0  0  0  0  0  0  0  0  0  0  0  0
   20.7000  -15.9253  -15.8432 C   0  0  0  0  0  0  0  0  0  0  0  0
   20.8560  -17.3507  -16.2979 C   0  0  2  0  0  0  0  0  0  0  0  0
   21.3939  -18.0856  -15.1246 N   0  0  0  0  0  0  0  0  0  0  0  0
   21.9002  -17.3943  -17.3642 C   0  0  0  0  0  0  0  0  0  0  0  0
   21.5924  -17.3915  -18.7078 O   0  0  0  0  0  0  0  0  0  0  0  0
   23.1193  -17.4365  -16.9834 O   0  0  0  0  0  0  0  0  0  0  0  0
  2  1  1  0
  2  3  2  0
  4  2  1  0
  5  7  1  0
  5  4  1  0
  5  6  1  1
  7  8  2  0
  9 10  1  0
 10 12  1  0
 11 10  2  0
 12 13  1  0
 14 13  1  6
 15  7  1  0
 15 14  1  0
 16 17  2  0
 16 14  1  0
 19 18  1  0
 19 21  1  0
 20 19  2  0
 22 21  1  1
 22 23  1  0
 23 16  1  0
 24 25  1  0
 24 22  1  0
 26 24  2  0
M  END
$$$$
