NQN.pdb
     RDKit          3D

 26 25  0  0  1  0  0  0  0  0999 V2000
   17.0786  -14.3519  -14.5732 N   0  0  0  0  0  0  0  0  0  0  0  0
   15.9678  -13.6707  -15.1001 C   0  0  0  0  0  0  0  0  0  0  0  0
   15.4007  -14.1363  -16.1220 O   0  0  0  0  0  0  0  0  0  0  0  0
   15.4097  -12.4250  -14.5287 C   0  0  0  0  0  0  0  0  0  0  0  0
   16.1418  -11.9946  -13.2806 C   0  0  2  0  0  0  0  0  0  0  0  0
   15.9382  -12.8760  -12.1774 N   0  0  0  0  0  0  0  0  0  0  0  0
   15.6772  -10.5979  -12.9605 C   0  0  0  0  0  0  0  0  0  0  0  0
   15.7825   -9.6698  -13.8012 O   0  0  0  0  0  0  0  0  0  0  0  0
   10.5466   -8.9051  -10.3927 N   0  0  0  0  0  0  0  0  0  0  0  0
   11.4079   -9.4780   -9.4184 C   0  0  0  0  0  0  0  0  0  0  0  0
   10.9259   -9.8935   -8.3619 O   0  0  0  0  0  0  0  0  0  0  0  0
   12.8890   -9.5885   -9.6465 C   0  0  0  0  0  0  0  0  0  0  0  0
   13.2010   -8.9598  -10.9584 C   0  0  0  0  0  0  0  0  0  0  0  0
   14.6377   -8.9325  -11.3569 C   0  0  2  0  0  0  0  0  0  0  0  0
   15.1060  -10.2895  -11.6971 N   0  0  0  0  0  0  0  0  0  0  0  0
   15.5300   -8.3125  -10.3778 C   0  0  0  0  0  0  0  0  0  0  0  0
   16.1031   -8.9837   -9.4987 O   0  0  0  0  0  0  0  0  0  0  0  0
   19.3504   -4.5570   -8.8992 N   0  0  0  0  0  0  0  0  0  0  0  0
   18.0242   -4.1702   -9.2345 C   0  0  0  0  0  0  0  0  0  0  0  0
   17.5770   -3.0910   -8.8037 O   0  0  0  0  0  0  0  0  0  0  0  0
   17.2098   -5.0496  -10.0806 C   0  0  0  0  0  0  0  0  0  0  0  0
   16.6166   -6.2466   -9.3892 C   0  0  2  0  0  0  0  0  0  0  0  0
   15.7659   -6.9131  -10.4081 N   0  0  0  0  0  0  0  0  0  0  0  0
   15.7116   -5.7642   -8.3041 C   0  0  0  0  0  0  0  0  0  0  0  0
   16.1506   -5.5282   -7.0189 O   0  0  0  0  0  0  0  0  0  0  0  0
   14.4859   -5.5729   -8.6106 O   0  0  0  0  0  0  0  0  0  0  0  0
  2  1  1  0
  2  3  2  0
  4  2  1  0
  5  7  1  0
  5  4  1  0
  5  6  1  1
  7  8  2  0
  9 10  1  0
 10 12  1  0
 11 10  2  0
 12 13  1  0
 14 13  1  1
 15  7  1  0
 15 14  1  0
 16 17  2  0
 16 14  1  0
 19 18  1  0
 19 21  1  0
 20 19  2  0
 22 21  1  6
 22 23  1  0
 23 16  1  0
 24 25  1  0
 24 22  1  0
 26 24  2  0
M  END
$$$$
