NQN.pdb
     RDKit          3D

 26 25  0  0  1  0  0  0  0  0999 V2000
   16.0297  -15.1934  -15.9163 N   0  0  0  0  0  0  0  0  0  0  0  0
   16.3173  -14.1077  -15.0712 C   0  0  0  0  0  0  0  0  0  0  0  0
   15.5020  -13.8186  -14.1577 O   0  0  0  0  0  0  0  0  0  0  0  0
   17.5304  -13.2676  -15.1817 C   0  0  0  0  0  0  0  0  0  0  0  0
   17.1983  -11.8279  -15.4917 C   0  0  2  0  0  0  0  0  0  0  0  0
   16.4562  -11.6699  -16.6999 N   0  0  0  0  0  0  0  0  0  0  0  0
   18.5045  -11.0797  -15.5477 C   0  0  0  0  0  0  0  0  0  0  0  0
   19.3098  -11.1060  -14.5833 O   0  0  0  0  0  0  0  0  0  0  0  0
   21.6479  -10.3365  -20.6807 N   0  0  0  0  0  0  0  0  0  0  0  0
   22.4445   -9.4970  -19.8562 C   0  0  0  0  0  0  0  0  0  0  0  0
   23.4982   -9.0402  -20.3057 O   0  0  0  0  0  0  0  0  0  0  0  0
   22.0324   -9.1546  -18.4523 C   0  0  0  0  0  0  0  0  0  0  0  0
   20.7449   -9.8443  -18.1692 C   0  0  0  0  0  0  0  0  0  0  0  0
   20.1679   -9.6419  -16.8091 C   0  0  2  0  0  0  0  0  0  0  0  0
   18.8638  -10.3219  -16.6940 N   0  0  0  0  0  0  0  0  0  0  0  0
   20.0551   -8.2431  -16.3970 C   0  0  0  0  0  0  0  0  0  0  0  0
   19.0765   -7.5433  -16.7204 O   0  0  0  0  0  0  0  0  0  0  0  0
   21.5298   -3.6256  -14.2139 N   0  0  0  0  0  0  0  0  0  0  0  0
   21.9923   -4.7300  -13.4477 C   0  0  0  0  0  0  0  0  0  0  0  0
   22.5126   -4.5245  -12.3353 O   0  0  0  0  0  0  0  0  0  0  0  0
   21.8474   -6.0885  -13.9824 C   0  0  0  0  0  0  0  0  0  0  0  0
   21.0176   -6.2082  -15.2313 C   0  0  2  0  0  0  0  0  0  0  0  0
   21.0720   -7.6437  -15.6087 N   0  0  0  0  0  0  0  0  0  0  0  0
   21.6897   -5.4386  -16.3200 C   0  0  0  0  0  0  0  0  0  0  0  0
   21.1862   -4.2545  -16.8145 O   0  0  0  0  0  0  0  0  0  0  0  0
   22.7733   -5.9241  -16.7923 O   0  0  0  0  0  0  0  0  0  0  0  0
  2  1  1  0
  2  3  2  0
  4  2  1  0
  5  7  1  0
  5  4  1  0
  5  6  1  6
  7  8  2  0
  9 10  1  0
 10 12  1  0
 11 10  2  0
 12 13  1  0
 14 13  1  6
 15  7  1  0
 15 14  1  0
 16 17  2  0
 16 14  1  0
 19 18  1  0
 19 21  1  0
 20 19  2  0
 22 21  1  1
 22 23  1  0
 23 16  1  0
 24 25  1  0
 24 22  1  0
 26 24  2  0
M  END
$$$$
