FKE.pdb
     RDKit          3D

 30 30  0  0  1  0  0  0  0  0999 V2000
   28.3405  -21.0655   -9.3550 N   0  0  0  0  0  0  0  0  0  0  0  0
   27.0107  -20.5255   -9.1551 C   0  0  1  0  0  0  0  0  0  0  0  0
   27.1273  -19.3094   -8.2609 C   0  0  0  0  0  0  0  0  0  0  0  0
   27.6714  -19.7879   -6.9475 C   0  0  0  0  0  0  0  0  0  0  0  0
   28.9371  -19.5042   -6.5197 C   0  0  0  0  0  0  0  0  0  0  0  0
   29.4401  -19.9466   -5.3036 C   0  0  0  0  0  0  0  0  0  0  0  0
   28.6380  -20.6983   -4.4967 C   0  0  0  0  0  0  0  0  0  0  0  0
   27.3419  -21.0071   -4.9000 C   0  0  0  0  0  0  0  0  0  0  0  0
   26.8528  -20.5519   -6.1300 C   0  0  0  0  0  0  0  0  0  0  0  0
   26.3907  -20.2339  -10.4531 C   0  0  0  0  0  0  0  0  0  0  0  0
   27.0038  -19.5358  -11.2903 O   0  0  0  0  0  0  0  0  0  0  0  0
   25.0962  -20.7208  -10.8072 N   0  0  0  0  0  0  0  0  0  0  0  0
   24.3729  -20.3003  -11.9662 C   0  0  1  0  0  0  0  0  0  0  0  0
   24.9433  -20.8751  -13.2458 C   0  0  0  0  0  0  0  0  0  0  0  0
   24.9613  -22.3807  -13.2223 C   0  0  0  0  0  0  0  0  0  0  0  0
   25.4021  -22.9761  -14.5223 C   0  0  0  0  0  0  0  0  0  0  0  0
   25.3751  -24.4814  -14.5212 C   0  0  0  0  0  0  0  0  0  0  0  0
   25.7051  -25.0560  -15.7896 N   0  0  0  0  0  0  0  0  0  0  0  0
   22.9349  -20.7330  -11.9083 C   0  0  0  0  0  0  0  0  0  0  0  0
   22.6193  -21.6865  -11.1456 O   0  0  0  0  0  0  0  0  0  0  0  0
   21.9563  -20.0775  -12.6991 N   0  0  0  0  0  0  0  0  0  0  0  0
   20.5558  -20.4438  -12.5539 C   0  0  1  0  0  0  0  0  0  0  0  0
   19.6692  -19.4035  -13.1631 C   0  0  0  0  0  0  0  0  0  0  0  0
   18.2071  -19.6390  -13.0239 C   0  0  0  0  0  0  0  0  0  0  0  0
   17.4379  -18.3959  -13.0324 C   0  0  0  0  0  0  0  0  0  0  0  0
   16.9021  -17.9449  -11.9731 O   0  0  0  0  0  0  0  0  0  0  0  0
   20.3051  -21.8225  -13.0226 C   0  0  0  0  0  0  0  0  0  0  0  0
   19.4049  -22.6880  -12.4439 O   0  0  0  0  0  0  0  0  0  0  0  0
   17.2591  -17.6542  -14.1952 O   0  0  0  0  0  0  0  0  0  0  0  0
   20.9497  -22.2585  -14.0201 O   0  0  0  0  0  0  0  0  0  0  0  0
  2  1  1  6
  2 10  1  0
  3  2  1  0
  3  4  1  0
  4  5  2  0
  4  9  1  0
  5  6  1  0
  6  7  2  0
  8  7  1  0
  9  8  2  0
 10 11  2  0
 12 10  1  0
 12 13  1  0
 13 14  1  6
 15 14  1  0
 16 15  1  0
 17 16  1  0
 18 17  1  0
 19 13  1  0
 19 20  2  0
 21 19  1  0
 22 21  1  0
 22 27  1  0
 22 23  1  6
 24 23  1  0
 25 24  1  0
 25 26  2  0
 27 30  2  0
 27 28  1  0
 29 25  1  0
M  END
$$$$
