FKE.pdb
     RDKit          3D

 30 30  0  0  1  0  0  0  0  0999 V2000
   13.4923  -11.7368   -9.6909 N   0  0  0  0  0  0  0  0  0  0  0  0
   13.5436  -10.4184  -10.2900 C   0  0  1  0  0  0  0  0  0  0  0  0
   13.3315   -9.3959   -9.1938 C   0  0  0  0  0  0  0  0  0  0  0  0
   11.8803   -9.4569   -8.8192 C   0  0  0  0  0  0  0  0  0  0  0  0
   11.4099  -10.2216   -7.7899 C   0  0  0  0  0  0  0  0  0  0  0  0
   10.0666  -10.2771   -7.4430 C   0  0  0  0  0  0  0  0  0  0  0  0
    9.1733   -9.5364   -8.1592 C   0  0  0  0  0  0  0  0  0  0  0  0
    9.6167   -8.7450   -9.2151 C   0  0  0  0  0  0  0  0  0  0  0  0
   10.9752   -8.7024   -9.5497 C   0  0  0  0  0  0  0  0  0  0  0  0
   14.8125  -10.2455  -11.0069 C   0  0  0  0  0  0  0  0  0  0  0  0
   15.8805  -10.6237  -10.4773 O   0  0  0  0  0  0  0  0  0  0  0  0
   14.8815   -9.6543  -12.3047 N   0  0  0  0  0  0  0  0  0  0  0  0
   16.1024   -9.3935  -13.0009 C   0  0  1  0  0  0  0  0  0  0  0  0
   16.2072  -10.1684  -14.2978 C   0  0  0  0  0  0  0  0  0  0  0  0
   17.5321   -9.9432  -14.9772 C   0  0  0  0  0  0  0  0  0  0  0  0
   17.6765  -10.7293  -16.2421 C   0  0  0  0  0  0  0  0  0  0  0  0
   19.0058  -10.5211  -16.9177 C   0  0  0  0  0  0  0  0  0  0  0  0
   19.0622  -11.0659  -18.2398 N   0  0  0  0  0  0  0  0  0  0  0  0
   16.2348   -7.9405  -13.3605 C   0  0  0  0  0  0  0  0  0  0  0  0
   15.1899   -7.2810  -13.6127 O   0  0  0  0  0  0  0  0  0  0  0  0
   17.5137   -7.3286  -13.4137 N   0  0  0  0  0  0  0  0  0  0  0  0
   17.6765   -5.9669  -12.9277 C   0  0  1  0  0  0  0  0  0  0  0  0
   17.2494   -5.8592  -11.4975 C   0  0  0  0  0  0  0  0  0  0  0  0
   17.5828   -4.5784  -10.8186 C   0  0  0  0  0  0  0  0  0  0  0  0
   17.0663   -4.5196   -9.4523 C   0  0  0  0  0  0  0  0  0  0  0  0
   16.0080   -3.8750   -9.1746 O   0  0  0  0  0  0  0  0  0  0  0  0
   19.0316   -5.4495  -13.2097 C   0  0  0  0  0  0  0  0  0  0  0  0
   19.3352   -4.1175  -13.3767 O   0  0  0  0  0  0  0  0  0  0  0  0
   17.7073   -5.1642   -8.3997 O   0  0  0  0  0  0  0  0  0  0  0  0
   19.9922   -6.2668  -13.3095 O   0  0  0  0  0  0  0  0  0  0  0  0
  2  1  1  1
  2 10  1  0
  3  2  1  0
  3  4  1  0
  4  5  2  0
  4  9  1  0
  5  6  1  0
  6  7  2  0
  8  7  1  0
  9  8  2  0
 10 11  2  0
 12 10  1  0
 12 13  1  0
 13 14  1  6
 15 14  1  0
 16 15  1  0
 17 16  1  0
 18 17  1  0
 19 13  1  0
 19 20  2  0
 21 19  1  0
 22 21  1  0
 22 27  1  0
 22 23  1  1
 24 23  1  0
 25 24  1  0
 25 26  2  0
 27 30  2  0
 27 28  1  0
 29 25  1  0
M  END
$$$$
