FKE.pdb
     RDKit          3D

 30 30  0  0  1  0  0  0  0  0999 V2000
   39.1041  -10.6246   -5.7507 N   0  0  0  0  0  0  0  0  0  0  0  0
   39.6599  -10.4876   -7.0819 C   0  0  1  0  0  0  0  0  0  0  0  0
   39.9424   -9.0200   -7.3240 C   0  0  0  0  0  0  0  0  0  0  0  0
   38.6162   -8.3535   -7.5411 C   0  0  0  0  0  0  0  0  0  0  0  0
   37.8878   -8.5034   -8.6867 C   0  0  0  0  0  0  0  0  0  0  0  0
   36.6600   -7.8869   -8.8870 C   0  0  0  0  0  0  0  0  0  0  0  0
   36.1546   -7.0955   -7.8981 C   0  0  0  0  0  0  0  0  0  0  0  0
   36.8693   -6.9197   -6.7165 C   0  0  0  0  0  0  0  0  0  0  0  0
   38.1058   -7.5497   -6.5334 C   0  0  0  0  0  0  0  0  0  0  0  0
   40.8493  -11.3370   -7.2155 C   0  0  0  0  0  0  0  0  0  0  0  0
   41.6782  -11.3949   -6.2808 O   0  0  0  0  0  0  0  0  0  0  0  0
   41.1053  -12.1131   -8.3862 N   0  0  0  0  0  0  0  0  0  0  0  0
   42.2100  -13.0095   -8.5259 C   0  0  1  0  0  0  0  0  0  0  0  0
   41.8625  -14.2348   -9.3450 C   0  0  0  0  0  0  0  0  0  0  0  0
   43.0503  -15.1433   -9.5221 C   0  0  0  0  0  0  0  0  0  0  0  0
   42.7430  -16.3433  -10.3615 C   0  0  0  0  0  0  0  0  0  0  0  0
   43.9313  -17.2469  -10.5567 C   0  0  0  0  0  0  0  0  0  0  0  0
   43.6618  -18.3626  -11.4113 N   0  0  0  0  0  0  0  0  0  0  0  0
   43.3726  -12.3518   -9.2145 C   0  0  0  0  0  0  0  0  0  0  0  0
   43.1430  -11.5650  -10.1729 O   0  0  0  0  0  0  0  0  0  0  0  0
   44.7003  -12.6156   -8.7898 N   0  0  0  0  0  0  0  0  0  0  0  0
   45.8084  -11.9297   -9.4368 C   0  0  1  0  0  0  0  0  0  0  0  0
   47.0409  -11.9973   -8.5909 C   0  0  0  0  0  0  0  0  0  0  0  0
   48.2035  -11.2082   -9.0794 C   0  0  0  0  0  0  0  0  0  0  0  0
   49.3699  -11.3343   -8.2073 C   0  0  0  0  0  0  0  0  0  0  0  0
   49.3852  -12.1589   -7.2417 O   0  0  0  0  0  0  0  0  0  0  0  0
   45.9883  -12.3863  -10.8306 C   0  0  0  0  0  0  0  0  0  0  0  0
   46.0543  -13.7068  -11.2130 O   0  0  0  0  0  0  0  0  0  0  0  0
   50.5105  -10.5609   -8.3948 O   0  0  0  0  0  0  0  0  0  0  0  0
   46.0918  -11.5239  -11.7506 O   0  0  0  0  0  0  0  0  0  0  0  0
  2  1  1  1
  2 10  1  0
  3  2  1  0
  3  4  1  0
  4  5  2  0
  4  9  1  0
  5  6  1  0
  6  7  2  0
  8  7  1  0
  9  8  2  0
 10 11  2  0
 12 10  1  0
 12 13  1  0
 13 14  1  6
 15 14  1  0
 16 15  1  0
 17 16  1  0
 18 17  1  0
 19 13  1  0
 19 20  2  0
 21 19  1  0
 22 21  1  0
 22 27  1  0
 22 23  1  1
 24 23  1  0
 25 24  1  0
 25 26  2  0
 27 30  2  0
 27 28  1  0
 29 25  1  0
M  END
$$$$
