FKE.pdb
     RDKit          3D

 30 30  0  0  1  0  0  0  0  0999 V2000
   26.7223  -19.3885  -18.4613 N   0  0  0  0  0  0  0  0  0  0  0  0
   26.5391  -18.6477  -17.2295 C   0  0  1  0  0  0  0  0  0  0  0  0
   25.8026  -17.3662  -17.5574 C   0  0  0  0  0  0  0  0  0  0  0  0
   26.7312  -16.5339  -18.3910 C   0  0  0  0  0  0  0  0  0  0  0  0
   28.0601  -16.3936  -18.1081 C   0  0  0  0  0  0  0  0  0  0  0  0
   28.9194  -15.6237  -18.8804 C   0  0  0  0  0  0  0  0  0  0  0  0
   28.4187  -14.9769  -19.9715 C   0  0  0  0  0  0  0  0  0  0  0  0
   27.0690  -15.0969  -20.2906 C   0  0  0  0  0  0  0  0  0  0  0  0
   26.2184  -15.8778  -19.4995 C   0  0  0  0  0  0  0  0  0  0  0  0
   25.8408  -19.4823  -16.2448 C   0  0  0  0  0  0  0  0  0  0  0  0
   25.1033  -20.4146  -16.6337 O   0  0  0  0  0  0  0  0  0  0  0  0
   25.9692  -19.2727  -14.8384 N   0  0  0  0  0  0  0  0  0  0  0  0
   25.2089  -19.9747  -13.8522 C   0  0  1  0  0  0  0  0  0  0  0  0
   25.7004  -19.7103  -12.4445 C   0  0  0  0  0  0  0  0  0  0  0  0
   24.9151  -20.4899  -11.4232 C   0  0  0  0  0  0  0  0  0  0  0  0
   25.3982  -20.2656  -10.0250 C   0  0  0  0  0  0  0  0  0  0  0  0
   24.7431  -21.1766   -9.0211 C   0  0  0  0  0  0  0  0  0  0  0  0
   25.3101  -21.0786   -7.7108 N   0  0  0  0  0  0  0  0  0  0  0  0
   23.7610  -19.5736  -13.8808 C   0  0  0  0  0  0  0  0  0  0  0  0
   23.4676  -18.3537  -13.7527 O   0  0  0  0  0  0  0  0  0  0  0  0
   22.7486  -20.5532  -14.0486 N   0  0  0  0  0  0  0  0  0  0  0  0
   21.3514  -20.1474  -14.0397 C   0  0  1  0  0  0  0  0  0  0  0  0
   20.6660  -20.5770  -15.2987 C   0  0  0  0  0  0  0  0  0  0  0  0
   19.2086  -20.2884  -15.3713 C   0  0  0  0  0  0  0  0  0  0  0  0
   18.6107  -20.7451  -16.6247 C   0  0  0  0  0  0  0  0  0  0  0  0
   17.5188  -21.3935  -16.6365 O   0  0  0  0  0  0  0  0  0  0  0  0
   20.6747  -20.5631  -12.7936 C   0  0  0  0  0  0  0  0  0  0  0  0
   21.0240  -21.6684  -12.0516 O   0  0  0  0  0  0  0  0  0  0  0  0
   19.2074  -20.4914  -17.8550 O   0  0  0  0  0  0  0  0  0  0  0  0
   19.7065  -19.8729  -12.3612 O   0  0  0  0  0  0  0  0  0  0  0  0
  2  1  1  6
  2 10  1  0
  3  2  1  0
  3  4  1  0
  4  5  2  0
  4  9  1  0
  5  6  1  0
  6  7  2  0
  8  7  1  0
  9  8  2  0
 10 11  2  0
 12 10  1  0
 12 13  1  0
 13 14  1  1
 15 14  1  0
 16 15  1  0
 17 16  1  0
 18 17  1  0
 19 13  1  0
 19 20  2  0
 21 19  1  0
 22 21  1  0
 22 27  1  0
 22 23  1  6
 24 23  1  0
 25 24  1  0
 25 26  2  0
 27 30  2  0
 27 28  1  0
 29 25  1  0
M  END
$$$$
