FKE.pdb
     RDKit          3D

 30 30  0  0  1  0  0  0  0  0999 V2000
   25.3494  -19.1406   -7.9084 N   0  0  0  0  0  0  0  0  0  0  0  0
   26.3823  -19.8725   -8.6135 C   0  0  1  0  0  0  0  0  0  0  0  0
   26.6968  -21.1229   -7.8200 C   0  0  0  0  0  0  0  0  0  0  0  0
   27.4600  -20.6848   -6.6053 C   0  0  0  0  0  0  0  0  0  0  0  0
   26.8588  -20.4013   -5.4120 C   0  0  0  0  0  0  0  0  0  0  0  0
   27.5657  -19.9966   -4.2877 C   0  0  0  0  0  0  0  0  0  0  0  0
   28.9212  -19.8754   -4.3739 C   0  0  0  0  0  0  0  0  0  0  0  0
   29.5682  -20.1561   -5.5741 C   0  0  0  0  0  0  0  0  0  0  0  0
   28.8380  -20.5628   -6.6969 C   0  0  0  0  0  0  0  0  0  0  0  0
   25.9466  -20.1513   -9.9870 C   0  0  0  0  0  0  0  0  0  0  0  0
   24.7379  -20.3702  -10.2218 O   0  0  0  0  0  0  0  0  0  0  0  0
   26.8583  -20.1838  -11.0853 N   0  0  0  0  0  0  0  0  0  0  0  0
   26.5125  -19.8179  -12.4231 C   0  0  1  0  0  0  0  0  0  0  0  0
   27.7255  -19.4757  -13.2626 C   0  0  0  0  0  0  0  0  0  0  0  0
   27.3389  -19.0447  -14.6527 C   0  0  0  0  0  0  0  0  0  0  0  0
   28.5222  -18.7329  -15.5137 C   0  0  0  0  0  0  0  0  0  0  0  0
   28.1415  -18.2723  -16.8956 C   0  0  0  0  0  0  0  0  0  0  0  0
   29.2551  -17.8117  -17.6674 N   0  0  0  0  0  0  0  0  0  0  0  0
   25.8016  -20.9337  -13.1358 C   0  0  0  0  0  0  0  0  0  0  0  0
   26.0289  -22.1220  -12.7797 O   0  0  0  0  0  0  0  0  0  0  0  0
   24.8939  -20.6489  -14.1882 N   0  0  0  0  0  0  0  0  0  0  0  0
   23.6451  -21.3903  -14.2766 C   0  0  1  0  0  0  0  0  0  0  0  0
   22.9424  -21.4059  -12.9555 C   0  0  0  0  0  0  0  0  0  0  0  0
   21.6498  -22.1411  -12.9201 C   0  0  0  0  0  0  0  0  0  0  0  0
   20.5954  -21.3846  -12.2471 C   0  0  0  0  0  0  0  0  0  0  0  0
   19.5079  -21.9386  -11.8962 O   0  0  0  0  0  0  0  0  0  0  0  0
   22.8195  -20.9273  -15.4114 C   0  0  0  0  0  0  0  0  0  0  0  0
   22.9881  -19.7215  -16.0534 O   0  0  0  0  0  0  0  0  0  0  0  0
   20.7348  -20.0306  -11.9615 O   0  0  0  0  0  0  0  0  0  0  0  0
   21.8895  -21.6714  -15.8379 O   0  0  0  0  0  0  0  0  0  0  0  0
  2  1  1  1
  2 10  1  0
  3  2  1  0
  3  4  1  0
  4  5  2  0
  4  9  1  0
  5  6  1  0
  6  7  2  0
  8  7  1  0
  9  8  2  0
 10 11  2  0
 12 10  1  0
 12 13  1  0
 13 14  1  6
 15 14  1  0
 16 15  1  0
 17 16  1  0
 18 17  1  0
 19 13  1  0
 19 20  2  0
 21 19  1  0
 22 21  1  0
 22 27  1  0
 22 23  1  1
 24 23  1  0
 25 24  1  0
 25 26  2  0
 27 30  2  0
 27 28  1  0
 29 25  1  0
M  END
$$$$
