FKE.pdb
     RDKit          3D

 30 30  0  0  1  0  0  0  0  0999 V2000
   28.6431  -20.8143   -8.8771 N   0  0  0  0  0  0  0  0  0  0  0  0
   27.2135  -20.5981   -8.7803 C   0  0  1  0  0  0  0  0  0  0  0  0
   26.9822  -19.3483   -7.9578 C   0  0  0  0  0  0  0  0  0  0  0  0
   27.5983  -19.5948   -6.6125 C   0  0  0  0  0  0  0  0  0  0  0  0
   27.2031  -20.6102   -5.7888 C   0  0  0  0  0  0  0  0  0  0  0  0
   27.7741  -20.8384   -4.5441 C   0  0  0  0  0  0  0  0  0  0  0  0
   28.7749  -20.0146   -4.1207 C   0  0  0  0  0  0  0  0  0  0  0  0
   29.2038  -18.9691   -4.9337 C   0  0  0  0  0  0  0  0  0  0  0  0
   28.6155  -18.7551   -6.1856 C   0  0  0  0  0  0  0  0  0  0  0  0
   26.6283  -20.5246  -10.1243 C   0  0  0  0  0  0  0  0  0  0  0  0
   27.1128  -19.7404  -10.9696 O   0  0  0  0  0  0  0  0  0  0  0  0
   25.5110  -21.3230  -10.5150 N   0  0  0  0  0  0  0  0  0  0  0  0
   24.9236  -21.2938  -11.8179 C   0  0  1  0  0  0  0  0  0  0  0  0
   25.0002  -22.6341  -12.5186 C   0  0  0  0  0  0  0  0  0  0  0  0
   24.4855  -22.5556  -13.9316 C   0  0  0  0  0  0  0  0  0  0  0  0
   24.6199  -23.8496  -14.6708 C   0  0  0  0  0  0  0  0  0  0  0  0
   24.1678  -23.7601  -16.1041 C   0  0  0  0  0  0  0  0  0  0  0  0
   24.3951  -24.9618  -16.8471 N   0  0  0  0  0  0  0  0  0  0  0  0
   23.4680  -20.9252  -11.7605 C   0  0  0  0  0  0  0  0  0  0  0  0
   22.7831  -21.3131  -10.7751 O   0  0  0  0  0  0  0  0  0  0  0  0
   22.8815  -20.1558  -12.7982 N   0  0  0  0  0  0  0  0  0  0  0  0
   21.4515  -19.8890  -12.7709 C   0  0  1  0  0  0  0  0  0  0  0  0
   21.0789  -18.8849  -13.8160 C   0  0  0  0  0  0  0  0  0  0  0  0
   21.0097  -19.3991  -15.2100 C   0  0  0  0  0  0  0  0  0  0  0  0
   20.4813  -18.4077  -16.1453 C   0  0  0  0  0  0  0  0  0  0  0  0
   20.1511  -17.2447  -15.7565 O   0  0  0  0  0  0  0  0  0  0  0  0
   20.6663  -21.1403  -12.8067 C   0  0  0  0  0  0  0  0  0  0  0  0
   19.4286  -21.2973  -12.2256 O   0  0  0  0  0  0  0  0  0  0  0  0
   20.3172  -18.6915  -17.4969 O   0  0  0  0  0  0  0  0  0  0  0  0
   21.1437  -22.1477  -13.4047 O   0  0  0  0  0  0  0  0  0  0  0  0
  2  1  1  6
  2 10  1  0
  3  2  1  0
  3  4  1  0
  4  5  2  0
  4  9  1  0
  5  6  1  0
  6  7  2  0
  8  7  1  0
  9  8  2  0
 10 11  2  0
 12 10  1  0
 12 13  1  0
 13 14  1  1
 15 14  1  0
 16 15  1  0
 17 16  1  0
 18 17  1  0
 19 13  1  0
 19 20  2  0
 21 19  1  0
 22 21  1  0
 22 27  1  0
 22 23  1  6
 24 23  1  0
 25 24  1  0
 25 26  2  0
 27 30  2  0
 27 28  1  0
 29 25  1  0
M  END
$$$$
