FKE.pdb
     RDKit          3D

 30 30  0  0  1  0  0  0  0  0999 V2000
   23.4493  -34.0943   -8.2553 N   0  0  0  0  0  0  0  0  0  0  0  0
   24.4875  -33.2340   -7.7244 C   0  0  1  0  0  0  0  0  0  0  0  0
   23.8201  -32.0568   -7.0454 C   0  0  0  0  0  0  0  0  0  0  0  0
   23.1773  -31.2401   -8.1270 C   0  0  0  0  0  0  0  0  0  0  0  0
   21.8342  -31.2602   -8.3746 C   0  0  0  0  0  0  0  0  0  0  0  0
   21.2395  -30.5035   -9.3753 C   0  0  0  0  0  0  0  0  0  0  0  0
   22.0276  -29.7027  -10.1480 C   0  0  0  0  0  0  0  0  0  0  0  0
   23.4008  -29.6567   -9.9243 C   0  0  0  0  0  0  0  0  0  0  0  0
   23.9820  -30.4272   -8.9105 C   0  0  0  0  0  0  0  0  0  0  0  0
   25.3613  -34.0011   -6.8289 C   0  0  0  0  0  0  0  0  0  0  0  0
   24.8738  -34.8953   -6.1029 O   0  0  0  0  0  0  0  0  0  0  0  0
   26.7674  -33.7670   -6.7494 N   0  0  0  0  0  0  0  0  0  0  0  0
   27.6669  -34.5566   -5.9679 C   0  0  1  0  0  0  0  0  0  0  0  0
   29.1159  -34.3272   -6.3433 C   0  0  0  0  0  0  0  0  0  0  0  0
   30.0451  -35.2009   -5.5428 C   0  0  0  0  0  0  0  0  0  0  0  0
   31.4834  -35.0037   -5.9055 C   0  0  0  0  0  0  0  0  0  0  0  0
   32.4223  -35.8262   -5.0637 C   0  0  0  0  0  0  0  0  0  0  0  0
   33.8032  -35.5593   -5.3278 N   0  0  0  0  0  0  0  0  0  0  0  0
   27.5507  -34.2410   -4.5032 C   0  0  0  0  0  0  0  0  0  0  0  0
   27.6329  -33.0378   -4.1343 O   0  0  0  0  0  0  0  0  0  0  0  0
   27.3529  -35.2812   -3.5590 N   0  0  0  0  0  0  0  0  0  0  0  0
   27.1652  -34.9476   -2.1553 C   0  0  1  0  0  0  0  0  0  0  0  0
   26.3639  -36.0038   -1.4613 C   0  0  0  0  0  0  0  0  0  0  0  0
   26.1484  -35.7979   -0.0040 C   0  0  0  0  0  0  0  0  0  0  0  0
   25.3550  -36.8669    0.5998 C   0  0  0  0  0  0  0  0  0  0  0  0
   25.8082  -37.5619    1.5612 O   0  0  0  0  0  0  0  0  0  0  0  0
   28.4478  -34.6141   -1.5017 C   0  0  0  0  0  0  0  0  0  0  0  0
   29.6167  -35.3184   -1.6802 O   0  0  0  0  0  0  0  0  0  0  0  0
   24.0739  -37.1698    0.1511 O   0  0  0  0  0  0  0  0  0  0  0  0
   28.4987  -33.6198   -0.7210 O   0  0  0  0  0  0  0  0  0  0  0  0
  2  1  1  1
  2 10  1  0
  3  2  1  0
  3  4  1  0
  4  5  2  0
  4  9  1  0
  5  6  1  0
  6  7  2  0
  8  7  1  0
  9  8  2  0
 10 11  2  0
 12 10  1  0
 12 13  1  0
 13 14  1  6
 15 14  1  0
 16 15  1  0
 17 16  1  0
 18 17  1  0
 19 13  1  0
 19 20  2  0
 21 19  1  0
 22 21  1  0
 22 27  1  0
 22 23  1  1
 24 23  1  0
 25 24  1  0
 25 26  2  0
 27 30  2  0
 27 28  1  0
 29 25  1  0
M  END
$$$$
