YSK.pdb
     RDKit          3D

 28 28  0  0  1  0  0  0  0  0999 V2000
   30.1037  -21.2128   -7.2243 O   0  0  0  0  0  0  0  0  0  0  0  0
   29.2137  -20.9103   -8.2442 C   0  0  0  0  0  0  0  0  0  0  0  0
   28.0365  -20.2676   -7.8901 C   0  0  0  0  0  0  0  0  0  0  0  0
   27.1441  -19.9622   -8.8983 C   0  0  0  0  0  0  0  0  0  0  0  0
   27.4158  -20.2839  -10.1976 C   0  0  0  0  0  0  0  0  0  0  0  0
   26.4538  -19.9542  -11.2818 C   0  0  0  0  0  0  0  0  0  0  0  0
   25.4948  -21.1195  -11.3880 C   0  0  2  0  0  0  0  0  0  0  0  0
   26.1476  -22.3021  -11.8836 N   0  0  0  0  0  0  0  0  0  0  0  0
   24.2976  -20.7658  -12.1977 C   0  0  0  0  0  0  0  0  0  0  0  0
   23.5492  -19.7944  -11.8554 O   0  0  0  0  0  0  0  0  0  0  0  0
   28.6030  -20.9274  -10.5231 C   0  0  0  0  0  0  0  0  0  0  0  0
   29.4928  -21.2344   -9.5347 C   0  0  0  0  0  0  0  0  0  0  0  0
   22.7786  -20.1523  -16.1641 O   0  0  0  0  0  0  0  0  0  0  0  0
   22.9482  -21.4027  -15.5917 C   0  0  0  0  0  0  0  0  0  0  0  0
   22.6982  -21.2828  -14.1036 C   0  0  2  0  0  0  0  0  0  0  0  0
   23.9426  -21.4796  -13.3636 N   0  0  0  0  0  0  0  0  0  0  0  0
   21.7368  -22.2750  -13.6229 C   0  0  0  0  0  0  0  0  0  0  0  0
   22.1067  -23.4334  -13.2326 O   0  0  0  0  0  0  0  0  0  0  0  0
   20.3514  -21.9780  -13.5735 N   0  0  0  0  0  0  0  0  0  0  0  0
   19.3939  -22.8717  -12.8982 C   0  0  1  0  0  0  0  0  0  0  0  0
   19.6054  -22.7726  -11.4061 C   0  0  0  0  0  0  0  0  0  0  0  0
   18.7929  -23.7241  -10.6084 C   0  0  0  0  0  0  0  0  0  0  0  0
   18.9977  -23.6296   -9.1279 C   0  0  0  0  0  0  0  0  0  0  0  0
   18.1579  -24.5772   -8.3393 C   0  0  0  0  0  0  0  0  0  0  0  0
   18.3805  -24.4859   -6.9129 N   0  0  0  0  0  0  0  0  0  0  0  0
   18.0532  -22.4938  -13.3428 C   0  0  0  0  0  0  0  0  0  0  0  0
   17.7031  -21.2987  -13.3754 O   0  0  0  0  0  0  0  0  0  0  0  0
   17.1428  -23.4627  -13.7382 O   0  0  0  0  0  0  0  0  0  0  0  0
  2 12  2  0
  2  1  1  0
  3  2  1  0
  4  5  1  0
  4  3  2  0
  5 11  2  0
  6  5  1  0
  7  9  1  0
  7  6  1  0
  7  8  1  6
  9 16  1  0
  9 10  2  0
 11 12  1  0
 13 14  1  0
 15 14  1  6
 15 17  1  0
 16 15  1  0
 17 18  2  0
 19 17  1  0
 19 20  1  0
 20 26  1  0
 20 21  1  1
 22 21  1  0
 23 22  1  0
 24 23  1  0
 25 24  1  0
 26 28  1  0
 27 26  2  0
M  END
$$$$
