YSK.pdb
     RDKit          3D

 28 28  0  0  1  0  0  0  0  0999 V2000
   16.9368  -25.2715  -14.8988 O   0  0  0  0  0  0  0  0  0  0  0  0
   17.9553  -24.3484  -14.7138 C   0  0  0  0  0  0  0  0  0  0  0  0
   17.6438  -23.0109  -14.9094 C   0  0  0  0  0  0  0  0  0  0  0  0
   18.6511  -22.0843  -14.7277 C   0  0  0  0  0  0  0  0  0  0  0  0
   19.9089  -22.4764  -14.3677 C   0  0  0  0  0  0  0  0  0  0  0  0
   20.9922  -21.4774  -14.1724 C   0  0  0  0  0  0  0  0  0  0  0  0
   21.3672  -21.5160  -12.7073 C   0  0  2  0  0  0  0  0  0  0  0  0
   20.3092  -21.0095  -11.8740 N   0  0  0  0  0  0  0  0  0  0  0  0
   22.6550  -20.8138  -12.4574 C   0  0  0  0  0  0  0  0  0  0  0  0
   22.6660  -19.5997  -12.0742 O   0  0  0  0  0  0  0  0  0  0  0  0
   20.1924  -23.8230  -14.1785 C   0  0  0  0  0  0  0  0  0  0  0  0
   19.2045  -24.7480  -14.3554 C   0  0  0  0  0  0  0  0  0  0  0  0
   26.0061  -22.8663  -11.7147 O   0  0  0  0  0  0  0  0  0  0  0  0
   26.0252  -21.5113  -11.4255 C   0  0  0  0  0  0  0  0  0  0  0  0
   25.1961  -20.7906  -12.4670 C   0  0  2  0  0  0  0  0  0  0  0  0
   23.9033  -21.4514  -12.6309 N   0  0  0  0  0  0  0  0  0  0  0  0
   25.8498  -20.7682  -13.7754 C   0  0  0  0  0  0  0  0  0  0  0  0
   25.5262  -21.5863  -14.7011 O   0  0  0  0  0  0  0  0  0  0  0  0
   26.8719  -19.8276  -14.0595 N   0  0  0  0  0  0  0  0  0  0  0  0
   27.5332  -19.7803  -15.3756 C   0  0  1  0  0  0  0  0  0  0  0  0
   28.1554  -18.4163  -15.5582 C   0  0  0  0  0  0  0  0  0  0  0  0
   27.2063  -17.3651  -16.0012 C   0  0  0  0  0  0  0  0  0  0  0  0
   27.8028  -15.9966  -16.1195 C   0  0  0  0  0  0  0  0  0  0  0  0
   26.8509  -14.9630  -16.6203 C   0  0  0  0  0  0  0  0  0  0  0  0
   27.4128  -13.6301  -16.6373 N   0  0  0  0  0  0  0  0  0  0  0  0
   28.4858  -20.8884  -15.4274 C   0  0  0  0  0  0  0  0  0  0  0  0
   28.8858  -21.4375  -14.3834 O   0  0  0  0  0  0  0  0  0  0  0  0
   28.9632  -21.3506  -16.6450 O   0  0  0  0  0  0  0  0  0  0  0  0
  2 12  2  0
  2  1  1  0
  3  2  1  0
  4  5  1  0
  4  3  2  0
  5 11  2  0
  6  5  1  0
  7  9  1  0
  7  6  1  0
  7  8  1  1
  9 16  1  0
  9 10  2  0
 11 12  1  0
 13 14  1  0
 15 14  1  1
 15 17  1  0
 16 15  1  0
 17 18  2  0
 19 17  1  0
 19 20  1  0
 20 26  1  0
 20 21  1  1
 22 21  1  0
 23 22  1  0
 24 23  1  0
 25 24  1  0
 26 28  1  0
 27 26  2  0
M  END
$$$$
