YSK.pdb
     RDKit          3D

 28 28  0  0  1  0  0  0  0  0999 V2000
   22.0613  -30.6491  -18.0009 O   0  0  0  0  0  0  0  0  0  0  0  0
   22.5806  -31.3186  -16.9028 C   0  0  0  0  0  0  0  0  0  0  0  0
   23.5750  -30.6768  -16.1794 C   0  0  0  0  0  0  0  0  0  0  0  0
   24.0984  -31.3352  -15.0845 C   0  0  0  0  0  0  0  0  0  0  0  0
   23.6489  -32.5753  -14.7303 C   0  0  0  0  0  0  0  0  0  0  0  0
   24.2135  -33.2827  -13.5511 C   0  0  0  0  0  0  0  0  0  0  0  0
   25.6811  -33.5128  -13.8375 C   0  0  2  0  0  0  0  0  0  0  0  0
   25.8726  -34.4432  -14.9182 N   0  0  0  0  0  0  0  0  0  0  0  0
   26.4155  -33.9272  -12.6116 C   0  0  0  0  0  0  0  0  0  0  0  0
   26.5954  -35.1603  -12.3512 O   0  0  0  0  0  0  0  0  0  0  0  0
   22.6517  -33.1943  -15.4732 C   0  0  0  0  0  0  0  0  0  0  0  0
   22.1268  -32.5529  -16.5578 C   0  0  0  0  0  0  0  0  0  0  0  0
   27.3248  -31.1003   -9.8554 O   0  0  0  0  0  0  0  0  0  0  0  0
   28.2849  -32.0994   -9.8640 C   0  0  0  0  0  0  0  0  0  0  0  0
   27.6768  -33.3385  -10.4855 C   0  0  2  0  0  0  0  0  0  0  0  0
   26.9378  -32.9871  -11.6959 N   0  0  0  0  0  0  0  0  0  0  0  0
   26.7462  -34.0115   -9.5795 C   0  0  0  0  0  0  0  0  0  0  0  0
   25.4812  -33.8893   -9.7049 O   0  0  0  0  0  0  0  0  0  0  0  0
   27.2244  -34.8295   -8.5249 N   0  0  0  0  0  0  0  0  0  0  0  0
   26.3040  -35.4946   -7.5857 C   0  0  1  0  0  0  0  0  0  0  0  0
   26.7738  -36.9132   -7.3670 C   0  0  0  0  0  0  0  0  0  0  0  0
   25.8815  -37.7274   -6.5052 C   0  0  0  0  0  0  0  0  0  0  0  0
   26.3419  -39.1355   -6.2857 C   0  0  0  0  0  0  0  0  0  0  0  0
   25.3649  -39.9823   -5.5417 C   0  0  0  0  0  0  0  0  0  0  0  0
   25.7945  -41.3560   -5.3970 N   0  0  0  0  0  0  0  0  0  0  0  0
   26.2553  -34.6825   -6.3707 C   0  0  0  0  0  0  0  0  0  0  0  0
   27.2294  -33.9863   -6.0271 O   0  0  0  0  0  0  0  0  0  0  0  0
   25.1189  -34.6721   -5.5754 O   0  0  0  0  0  0  0  0  0  0  0  0
  2 12  2  0
  2  1  1  0
  3  2  1  0
  4  5  1  0
  4  3  2  0
  5 11  2  0
  6  5  1  0
  7  9  1  0
  7  6  1  0
  7  8  1  6
  9 16  1  0
  9 10  2  0
 11 12  1  0
 13 14  1  0
 15 14  1  1
 15 17  1  0
 16 15  1  0
 17 18  2  0
 19 17  1  0
 19 20  1  0
 20 26  1  0
 20 21  1  1
 22 21  1  0
 23 22  1  0
 24 23  1  0
 25 24  1  0
 26 28  1  0
 27 26  2  0
M  END
$$$$
