YSK.pdb
     RDKit          3D

 28 28  0  0  1  0  0  0  0  0999 V2000
   20.2079  -23.3414   -7.1832 O   0  0  0  0  0  0  0  0  0  0  0  0
   21.0006  -22.5379   -7.9893 C   0  0  0  0  0  0  0  0  0  0  0  0
   21.8893  -21.6821   -7.3554 C   0  0  0  0  0  0  0  0  0  0  0  0
   22.6828  -20.8782   -8.1494 C   0  0  0  0  0  0  0  0  0  0  0  0
   22.5918  -20.9279   -9.5112 C   0  0  0  0  0  0  0  0  0  0  0  0
   23.4469  -20.0616  -10.3645 C   0  0  0  0  0  0  0  0  0  0  0  0
   24.6557  -20.8837  -10.7539 C   0  0  2  0  0  0  0  0  0  0  0  0
   25.5515  -21.0712   -9.6437 N   0  0  0  0  0  0  0  0  0  0  0  0
   25.3497  -20.3034  -11.9352 C   0  0  0  0  0  0  0  0  0  0  0  0
   25.7922  -19.1100  -11.9038 O   0  0  0  0  0  0  0  0  0  0  0  0
   21.6927  -21.7948  -10.1191 C   0  0  0  0  0  0  0  0  0  0  0  0
   20.9031  -22.5943   -9.3442 C   0  0  0  0  0  0  0  0  0  0  0  0
   26.6120  -22.7279  -14.9746 O   0  0  0  0  0  0  0  0  0  0  0  0
   27.2198  -21.4895  -14.8443 C   0  0  0  0  0  0  0  0  0  0  0  0
   26.1922  -20.5073  -14.3241 C   0  0  2  0  0  0  0  0  0  0  0  0
   25.5462  -21.0377  -13.1257 N   0  0  0  0  0  0  0  0  0  0  0  0
   25.1436  -20.2322  -15.3062 C   0  0  0  0  0  0  0  0  0  0  0  0
   23.9684  -20.7174  -15.1865 O   0  0  0  0  0  0  0  0  0  0  0  0
   25.4017  -19.4092  -16.4315 N   0  0  0  0  0  0  0  0  0  0  0  0
   24.3735  -19.1596  -17.4573 C   0  0  1  0  0  0  0  0  0  0  0  0
   24.1852  -17.6684  -17.6042 C   0  0  0  0  0  0  0  0  0  0  0  0
   23.1986  -17.2753  -18.6404 C   0  0  0  0  0  0  0  0  0  0  0  0
   23.0212  -15.7972  -18.8034 C   0  0  0  0  0  0  0  0  0  0  0  0
   21.9522  -15.4193  -19.7727 C   0  0  0  0  0  0  0  0  0  0  0  0
   21.6300  -14.0094  -19.7460 N   0  0  0  0  0  0  0  0  0  0  0  0
   24.8021  -19.8358  -18.6808 C   0  0  0  0  0  0  0  0  0  0  0  0
   23.9736  -20.3820  -19.4338 O   0  0  0  0  0  0  0  0  0  0  0  0
   26.1445  -19.8814  -19.0272 O   0  0  0  0  0  0  0  0  0  0  0  0
  2 12  2  0
  2  1  1  0
  3  2  1  0
  4  5  1  0
  4  3  2  0
  5 11  2  0
  6  5  1  0
  7  9  1  0
  7  6  1  0
  7  8  1  1
  9 16  1  0
  9 10  2  0
 11 12  1  0
 13 14  1  0
 15 14  1  6
 15 17  1  0
 16 15  1  0
 17 18  2  0
 19 17  1  0
 19 20  1  0
 20 26  1  0
 20 21  1  6
 22 21  1  0
 23 22  1  0
 24 23  1  0
 25 24  1  0
 26 28  1  0
 27 26  2  0
M  END
$$$$
