YSK.pdb
     RDKit          3D

 28 28  0  0  1  0  0  0  0  0999 V2000
   16.9288  -26.7919  -10.5281 O   0  0  0  0  0  0  0  0  0  0  0  0
   17.4295  -25.6855  -11.1982 C   0  0  0  0  0  0  0  0  0  0  0  0
   18.6072  -25.8541  -11.9114 C   0  0  0  0  0  0  0  0  0  0  0  0
   19.1136  -24.7586  -12.5819 C   0  0  0  0  0  0  0  0  0  0  0  0
   18.4731  -23.5530  -12.5411 C   0  0  0  0  0  0  0  0  0  0  0  0
   19.0198  -22.3745  -13.2636 C   0  0  0  0  0  0  0  0  0  0  0  0
   20.3667  -22.0666  -12.6471 C   0  0  2  0  0  0  0  0  0  0  0  0
   20.2463  -21.7051  -11.2597 N   0  0  0  0  0  0  0  0  0  0  0  0
   21.0984  -21.0332  -13.4285 C   0  0  0  0  0  0  0  0  0  0  0  0
   20.8769  -19.7953  -13.2304 O   0  0  0  0  0  0  0  0  0  0  0  0
   17.2949  -23.4131  -11.8187 C   0  0  0  0  0  0  0  0  0  0  0  0
   16.7849  -24.4893  -11.1519 C   0  0  0  0  0  0  0  0  0  0  0  0
   24.9333  -21.0999  -14.3576 O   0  0  0  0  0  0  0  0  0  0  0  0
   24.1927  -20.9785  -15.5224 C   0  0  0  0  0  0  0  0  0  0  0  0
   22.8395  -20.4002  -15.1679 C   0  0  2  0  0  0  0  0  0  0  0  0
   22.0563  -21.3728  -14.4094 N   0  0  0  0  0  0  0  0  0  0  0  0
   22.0648  -20.0384  -16.3549 C   0  0  0  0  0  0  0  0  0  0  0  0
   21.2028  -20.8331  -16.8612 O   0  0  0  0  0  0  0  0  0  0  0  0
   22.2478  -18.7817  -16.9851 N   0  0  0  0  0  0  0  0  0  0  0  0
   21.4130  -18.3606  -18.1242 C   0  0  1  0  0  0  0  0  0  0  0  0
   21.2601  -16.8586  -18.0858 C   0  0  0  0  0  0  0  0  0  0  0  0
   19.8536  -16.3875  -18.0450 C   0  0  0  0  0  0  0  0  0  0  0  0
   19.6967  -14.9068  -17.8848 C   0  0  0  0  0  0  0  0  0  0  0  0
   18.2774  -14.4489  -17.8515 C   0  0  0  0  0  0  0  0  0  0  0  0
   18.1435  -13.0121  -17.7508 N   0  0  0  0  0  0  0  0  0  0  0  0
   22.0426  -18.8709  -19.3412 C   0  0  0  0  0  0  0  0  0  0  0  0
   23.2607  -19.1298  -19.3711 O   0  0  0  0  0  0  0  0  0  0  0  0
   21.2921  -19.0772  -20.4893 O   0  0  0  0  0  0  0  0  0  0  0  0
  2 12  2  0
  2  1  1  0
  3  2  1  0
  4  5  1  0
  4  3  2  0
  5 11  2  0
  6  5  1  0
  7  9  1  0
  7  6  1  0
  7  8  1  1
  9 16  1  0
  9 10  2  0
 11 12  1  0
 13 14  1  0
 15 14  1  6
 15 17  1  0
 16 15  1  0
 17 18  2  0
 19 17  1  0
 19 20  1  0
 20 26  1  0
 20 21  1  6
 22 21  1  0
 23 22  1  0
 24 23  1  0
 25 24  1  0
 26 28  1  0
 27 26  2  0
M  END
$$$$
