YSK.pdb
     RDKit          3D

 28 28  0  0  1  0  0  0  0  0999 V2000
   16.8826  -10.6467    2.7642 O   0  0  0  0  0  0  0  0  0  0  0  0
   17.0711  -11.6962    3.6512 C   0  0  0  0  0  0  0  0  0  0  0  0
   15.9535  -12.4384    4.0039 C   0  0  0  0  0  0  0  0  0  0  0  0
   16.1310  -13.4852    4.8864 C   0  0  0  0  0  0  0  0  0  0  0  0
   17.3662  -13.7757    5.3917 C   0  0  0  0  0  0  0  0  0  0  0  0
   17.5553  -14.9032    6.3418 C   0  0  0  0  0  0  0  0  0  0  0  0
   18.6297  -15.7944    5.7584 C   0  0  2  0  0  0  0  0  0  0  0  0
   18.0964  -16.6919    4.7682 N   0  0  0  0  0  0  0  0  0  0  0  0
   19.3709  -16.5210    6.8244 C   0  0  0  0  0  0  0  0  0  0  0  0
   19.1932  -17.7694    6.9998 O   0  0  0  0  0  0  0  0  0  0  0  0
   18.4679  -13.0153    5.0208 C   0  0  0  0  0  0  0  0  0  0  0  0
   18.3045  -11.9779    4.1490 C   0  0  0  0  0  0  0  0  0  0  0  0
   21.6945  -14.3999    9.5230 O   0  0  0  0  0  0  0  0  0  0  0  0
   22.1618  -15.6713    9.2310 C   0  0  0  0  0  0  0  0  0  0  0  0
   20.9896  -16.5181    8.7834 C   0  0  2  0  0  0  0  0  0  0  0  0
   20.2902  -15.8699    7.6764 N   0  0  0  0  0  0  0  0  0  0  0  0
   20.0182  -16.7288    9.8567 C   0  0  0  0  0  0  0  0  0  0  0  0
   18.9993  -15.9719    9.9975 O   0  0  0  0  0  0  0  0  0  0  0  0
   20.1787  -17.7910   10.7819 N   0  0  0  0  0  0  0  0  0  0  0  0
   19.2385  -17.9903   11.8991 C   0  0  1  0  0  0  0  0  0  0  0  0
   18.4937  -19.2861   11.6825 C   0  0  0  0  0  0  0  0  0  0  0  0
   17.4905  -19.5978   12.7305 C   0  0  0  0  0  0  0  0  0  0  0  0
   16.7396  -20.8754   12.5142 C   0  0  0  0  0  0  0  0  0  0  0  0
   15.6551  -21.1157   13.5098 C   0  0  0  0  0  0  0  0  0  0  0  0
   14.9184  -22.3368   13.2677 N   0  0  0  0  0  0  0  0  0  0  0  0
   20.0135  -17.9410   13.1380 C   0  0  0  0  0  0  0  0  0  0  0  0
   19.5274  -17.4573   14.1779 O   0  0  0  0  0  0  0  0  0  0  0  0
   21.3093  -18.4342   13.1785 O   0  0  0  0  0  0  0  0  0  0  0  0
  2 12  2  0
  2  1  1  0
  3  2  1  0
  4  5  1  0
  4  3  2  0
  5 11  2  0
  6  5  1  0
  7  9  1  0
  7  6  1  0
  7  8  1  6
  9 16  1  0
  9 10  2  0
 11 12  1  0
 13 14  1  0
 15 14  1  1
 15 17  1  0
 16 15  1  0
 17 18  2  0
 19 17  1  0
 19 20  1  0
 20 26  1  0
 20 21  1  6
 22 21  1  0
 23 22  1  0
 24 23  1  0
 25 24  1  0
 26 28  1  0
 27 26  2  0
M  END
$$$$
