YSK.pdb
     RDKit          3D

 28 28  0  0  1  0  0  0  0  0999 V2000
   19.9402  -18.1834  -15.2905 O   0  0  0  0  0  0  0  0  0  0  0  0
   19.5258  -16.9469  -15.7630 C   0  0  0  0  0  0  0  0  0  0  0  0
   20.0077  -15.8228  -15.1086 C   0  0  0  0  0  0  0  0  0  0  0  0
   19.6009  -14.5873  -15.5716 C   0  0  0  0  0  0  0  0  0  0  0  0
   18.7533  -14.4813  -16.6373 C   0  0  0  0  0  0  0  0  0  0  0  0
   18.3163  -13.1503  -17.1344 C   0  0  0  0  0  0  0  0  0  0  0  0
   17.1798  -12.6995  -16.2434 C   0  0  2  0  0  0  0  0  0  0  0  0
   16.0664  -13.6091  -16.3004 N   0  0  0  0  0  0  0  0  0  0  0  0
   16.7710  -11.3019  -16.5493 C   0  0  0  0  0  0  0  0  0  0  0  0
   16.1234  -11.0355  -17.6125 O   0  0  0  0  0  0  0  0  0  0  0  0
   18.2864  -15.6244  -17.2736 C   0  0  0  0  0  0  0  0  0  0  0  0
   18.6818  -16.8512  -16.8246 C   0  0  0  0  0  0  0  0  0  0  0  0
   16.9275   -8.5937  -13.5634 O   0  0  0  0  0  0  0  0  0  0  0  0
   16.0304   -8.3173  -14.5827 C   0  0  0  0  0  0  0  0  0  0  0  0
   16.5997   -8.8572  -15.8772 C   0  0  2  0  0  0  0  0  0  0  0  0
   17.0777  -10.2249  -15.6885 N   0  0  0  0  0  0  0  0  0  0  0  0
   17.7255   -8.0586  -16.3616 C   0  0  0  0  0  0  0  0  0  0  0  0
   18.9261   -8.3045  -16.0024 O   0  0  0  0  0  0  0  0  0  0  0  0
   17.5167   -6.9774  -17.2546 N   0  0  0  0  0  0  0  0  0  0  0  0
   18.6342   -6.1436  -17.7318 C   0  0  1  0  0  0  0  0  0  0  0  0
   18.1360   -5.2545  -18.8464 C   0  0  0  0  0  0  0  0  0  0  0  0
   19.1348   -4.2746  -19.3403 C   0  0  0  0  0  0  0  0  0  0  0  0
   18.6077   -3.3028  -20.3506 C   0  0  0  0  0  0  0  0  0  0  0  0
   19.6081   -2.2894  -20.7946 C   0  0  0  0  0  0  0  0  0  0  0  0
   19.1296   -1.4479  -21.8695 N   0  0  0  0  0  0  0  0  0  0  0  0
   19.1658   -5.4209  -16.5772 C   0  0  0  0  0  0  0  0  0  0  0  0
   18.4049   -4.9576  -15.7066 O   0  0  0  0  0  0  0  0  0  0  0  0
   20.5328   -5.2376  -16.4292 O   0  0  0  0  0  0  0  0  0  0  0  0
  2 12  2  0
  2  1  1  0
  3  2  1  0
  4  5  1  0
  4  3  2  0
  5 11  2  0
  6  5  1  0
  7  9  1  0
  7  6  1  0
  7  8  1  6
  9 16  1  0
  9 10  2  0
 11 12  1  0
 13 14  1  0
 15 14  1  1
 15 17  1  0
 16 15  1  0
 17 18  2  0
 19 17  1  0
 19 20  1  0
 20 26  1  0
 20 21  1  6
 22 21  1  0
 23 22  1  0
 24 23  1  0
 25 24  1  0
 26 28  1  0
 27 26  2  0
M  END
$$$$
