YSK.pdb
     RDKit          3D

 28 28  0  0  1  0  0  0  0  0999 V2000
   17.3961  -14.3113  -15.9897 O   0  0  0  0  0  0  0  0  0  0  0  0
   17.4837  -12.9423  -15.7847 C   0  0  0  0  0  0  0  0  0  0  0  0
   18.7116  -12.3419  -16.0213 C   0  0  0  0  0  0  0  0  0  0  0  0
   18.8089  -10.9795  -15.8200 C   0  0  0  0  0  0  0  0  0  0  0  0
   17.7305  -10.2528  -15.4024 C   0  0  0  0  0  0  0  0  0  0  0  0
   17.8371   -8.7860  -15.1862 C   0  0  0  0  0  0  0  0  0  0  0  0
   18.4094   -8.5863  -13.8000 C   0  0  2  0  0  0  0  0  0  0  0  0
   17.5147   -9.0671  -12.7809 N   0  0  0  0  0  0  0  0  0  0  0  0
   18.7994   -7.1685  -13.5723 C   0  0  0  0  0  0  0  0  0  0  0  0
   17.9799   -6.3489  -13.0456 O   0  0  0  0  0  0  0  0  0  0  0  0
   16.5128  -10.8807  -15.1732 C   0  0  0  0  0  0  0  0  0  0  0  0
   16.4048  -12.2272  -15.3688 C   0  0  0  0  0  0  0  0  0  0  0  0
   22.5209   -5.9097  -14.7783 O   0  0  0  0  0  0  0  0  0  0  0  0
   22.0120   -5.2069  -13.6979 C   0  0  0  0  0  0  0  0  0  0  0  0
   20.5013   -5.2894  -13.7453 C   0  0  2  0  0  0  0  0  0  0  0  0
   20.0753   -6.6755  -13.9243 N   0  0  0  0  0  0  0  0  0  0  0  0
   19.9394   -4.5088  -14.8475 C   0  0  0  0  0  0  0  0  0  0  0  0
   19.9203   -4.9548  -16.0440 O   0  0  0  0  0  0  0  0  0  0  0  0
   19.3922   -3.2210  -14.6190 N   0  0  0  0  0  0  0  0  0  0  0  0
   18.7949   -2.4313  -15.7105 C   0  0  1  0  0  0  0  0  0  0  0  0
   17.3711   -2.0896  -15.3405 C   0  0  0  0  0  0  0  0  0  0  0  0
   16.3781   -3.1315  -15.7015 C   0  0  0  0  0  0  0  0  0  0  0  0
   14.9733   -2.8257  -15.2822 C   0  0  0  0  0  0  0  0  0  0  0  0
   13.9813   -3.8630  -15.6884 C   0  0  0  0  0  0  0  0  0  0  0  0
   12.6208   -3.5207  -15.3356 N   0  0  0  0  0  0  0  0  0  0  0  0
   19.6548   -1.2697  -15.9322 C   0  0  0  0  0  0  0  0  0  0  0  0
   20.2379   -0.7146  -14.9817 O   0  0  0  0  0  0  0  0  0  0  0  0
   19.8380   -0.7625  -17.2102 O   0  0  0  0  0  0  0  0  0  0  0  0
  2 12  2  0
  2  1  1  0
  3  2  1  0
  4  5  1  0
  4  3  2  0
  5 11  2  0
  6  5  1  0
  7  9  1  0
  7  6  1  0
  7  8  1  1
  9 16  1  0
  9 10  2  0
 11 12  1  0
 13 14  1  0
 15 14  1  6
 15 17  1  0
 16 15  1  0
 17 18  2  0
 19 17  1  0
 19 20  1  0
 20 26  1  0
 20 21  1  1
 22 21  1  0
 23 22  1  0
 24 23  1  0
 25 24  1  0
 26 28  1  0
 27 26  2  0
M  END
$$$$
