YSK.pdb
     RDKit          3D

 28 28  0  0  1  0  0  0  0  0999 V2000
   24.0928  -21.3912   -7.3306 O   0  0  0  0  0  0  0  0  0  0  0  0
   24.3506  -21.0228   -8.6428 C   0  0  0  0  0  0  0  0  0  0  0  0
   25.6625  -21.1182   -9.0833 C   0  0  0  0  0  0  0  0  0  0  0  0
   25.9292  -20.7537  -10.3880 C   0  0  0  0  0  0  0  0  0  0  0  0
   24.9322  -20.3152  -11.2121 C   0  0  0  0  0  0  0  0  0  0  0  0
   25.2212  -19.9232  -12.6165 C   0  0  0  0  0  0  0  0  0  0  0  0
   24.4490  -20.8727  -13.5059 C   0  0  2  0  0  0  0  0  0  0  0  0
   24.9888  -22.2055  -13.4564 N   0  0  0  0  0  0  0  0  0  0  0  0
   24.3612  -20.3609  -14.9003 C   0  0  0  0  0  0  0  0  0  0  0  0
   25.0929  -20.8545  -15.8178 O   0  0  0  0  0  0  0  0  0  0  0  0
   23.6272  -20.2298  -10.7439 C   0  0  0  0  0  0  0  0  0  0  0  0
   23.3517  -20.5874   -9.4558 C   0  0  0  0  0  0  0  0  0  0  0  0
   21.8623  -17.5987  -18.0332 O   0  0  0  0  0  0  0  0  0  0  0  0
   22.0226  -18.0074  -16.7190 C   0  0  0  0  0  0  0  0  0  0  0  0
   23.2771  -18.8499  -16.6322 C   0  0  2  0  0  0  0  0  0  0  0  0
   23.4768  -19.3213  -15.2638 N   0  0  0  0  0  0  0  0  0  0  0  0
   24.4730  -18.1024  -17.0208 C   0  0  0  0  0  0  0  0  0  0  0  0
   25.0416  -17.2841  -16.2221 O   0  0  0  0  0  0  0  0  0  0  0  0
   25.0440  -18.2659  -18.3082 N   0  0  0  0  0  0  0  0  0  0  0  0
   26.2684  -17.5489  -18.7062 C   0  0  1  0  0  0  0  0  0  0  0  0
   27.1993  -18.5203  -19.3924 C   0  0  0  0  0  0  0  0  0  0  0  0
   28.5090  -17.9416  -19.7819 C   0  0  0  0  0  0  0  0  0  0  0  0
   29.4589  -18.9151  -20.4086 C   0  0  0  0  0  0  0  0  0  0  0  0
   30.8025  -18.3411  -20.7094 C   0  0  0  0  0  0  0  0  0  0  0  0
   31.6999  -19.2868  -21.3360 N   0  0  0  0  0  0  0  0  0  0  0  0
   25.8625  -16.4156  -19.5361 C   0  0  0  0  0  0  0  0  0  0  0  0
   24.8906  -16.5051  -20.3101 O   0  0  0  0  0  0  0  0  0  0  0  0
   26.5547  -15.2150  -19.4764 O   0  0  0  0  0  0  0  0  0  0  0  0
  2 12  2  0
  2  1  1  0
  3  2  1  0
  4  5  1  0
  4  3  2  0
  5 11  2  0
  6  5  1  0
  7  9  1  0
  7  6  1  0
  7  8  1  6
  9 16  1  0
  9 10  2  0
 11 12  1  0
 13 14  1  0
 15 14  1  1
 15 17  1  0
 16 15  1  0
 17 18  2  0
 19 17  1  0
 19 20  1  0
 20 26  1  0
 20 21  1  6
 22 21  1  0
 23 22  1  0
 24 23  1  0
 25 24  1  0
 26 28  1  0
 27 26  2  0
M  END
$$$$
