AMF.pdb
     RDKit          3D

 25 25  0  0  1  0  0  0  0  0999 V2000
    7.1890  -19.1877   19.3260 C   0  0  0  0  0  0  0  0  0  0  0  0
    7.5392  -19.0693   20.8105 C   0  0  2  0  0  0  0  0  0  0  0  0
    6.3526  -18.9791   21.6150 N   0  0  0  0  0  0  0  0  0  0  0  0
    8.4371  -17.8993   20.9937 C   0  0  0  0  0  0  0  0  0  0  0  0
    9.5478  -17.9124   20.4498 O   0  0  0  0  0  0  0  0  0  0  0  0
    8.5363  -11.6392   19.6986 C   0  0  0  0  0  0  0  0  0  0  0  0
    7.2614  -12.8776   19.3497 S   0  0  0  0  0  0  0  0  0  0  0  0
    7.9099  -14.4817   19.9541 C   0  0  0  0  0  0  0  0  0  0  0  0
    8.3156  -14.3713   21.3975 C   0  0  0  0  0  0  0  0  0  0  0  0
    8.9349  -15.6065   21.9490 C   0  0  2  0  0  0  0  0  0  0  0  0
    8.0676  -16.7680   21.7687 N   0  0  0  0  0  0  0  0  0  0  0  0
    9.3719  -15.4965   23.3609 C   0  0  0  0  0  0  0  0  0  0  0  0
   10.2679  -14.7267   23.7855 O   0  0  0  0  0  0  0  0  0  0  0  0
    8.7267  -16.3275   24.3151 N   0  0  0  0  0  0  0  0  0  0  0  0
    8.9794  -16.2396   25.7439 C   0  0  1  0  0  0  0  0  0  0  0  0
    7.6214  -15.8942   26.3622 C   0  0  0  0  0  0  0  0  0  0  0  0
    7.4550  -14.4317   26.3639 C   0  0  0  0  0  0  0  0  0  0  0  0
    8.4809  -13.5357   26.5709 C   0  0  0  0  0  0  0  0  0  0  0  0
    8.2286  -12.1817   26.5496 C   0  0  0  0  0  0  0  0  0  0  0  0
    6.9473  -11.6924   26.3216 C   0  0  0  0  0  0  0  0  0  0  0  0
    5.9283  -12.5789   26.1162 C   0  0  0  0  0  0  0  0  0  0  0  0
    6.1670  -13.9469   26.1346 C   0  0  0  0  0  0  0  0  0  0  0  0
    9.4883  -17.5390   26.1968 C   0  0  0  0  0  0  0  0  0  0  0  0
    9.9351  -17.6825   27.4875 O   0  0  0  0  0  0  0  0  0  0  0  0
    9.5200  -18.5121   25.4206 O   0  0  0  0  0  0  0  0  0  0  0  0
  2  1  1  6
  2  4  1  0
  3  2  1  0
  4 11  1  0
  4  5  2  0
  6  7  1  0
  8  7  1  0
  9  8  1  0
 10  9  1  1
 11 10  1  0
 12 10  1  0
 12 13  2  0
 14 15  1  0
 14 12  1  0
 16 17  1  0
 15 16  1  1
 17 18  2  0
 19 18  1  0
 20 19  2  0
 21 20  1  0
 22 21  2  0
 22 17  1  0
 23 15  1  0
 24 23  1  0
 25 23  2  0
M  END
$$$$
