AMF.pdb
     RDKit          3D

 25 25  0  0  1  0  0  0  0  0999 V2000
   11.6410  -20.3782   20.1845 C   0  0  0  0  0  0  0  0  0  0  0  0
   10.8316  -19.2369   19.5658 C   0  0  2  0  0  0  0  0  0  0  0  0
   11.5031  -18.6905   18.4195 N   0  0  0  0  0  0  0  0  0  0  0  0
   10.5776  -18.2140   20.6135 C   0  0  0  0  0  0  0  0  0  0  0  0
   11.5306  -17.5499   21.0383 O   0  0  0  0  0  0  0  0  0  0  0  0
    6.4965  -11.9845   21.9948 C   0  0  0  0  0  0  0  0  0  0  0  0
    6.6426  -13.5378   21.0746 S   0  0  0  0  0  0  0  0  0  0  0  0
    7.7673  -14.6151   22.0408 C   0  0  0  0  0  0  0  0  0  0  0  0
    7.9643  -15.9294   21.3378 C   0  0  0  0  0  0  0  0  0  0  0  0
    8.9685  -16.8172   21.9835 C   0  0  2  0  0  0  0  0  0  0  0  0
    9.2830  -17.9708   21.1444 N   0  0  0  0  0  0  0  0  0  0  0  0
    8.6117  -17.2521   23.3548 C   0  0  0  0  0  0  0  0  0  0  0  0
    8.0765  -18.3477   23.6526 O   0  0  0  0  0  0  0  0  0  0  0  0
    8.8973  -16.3596   24.4222 N   0  0  0  0  0  0  0  0  0  0  0  0
    8.7723  -16.7310   25.8221 C   0  0  1  0  0  0  0  0  0  0  0  0
    9.2538  -15.5019   26.5987 C   0  0  0  0  0  0  0  0  0  0  0  0
    8.3205  -14.3892   26.3592 C   0  0  0  0  0  0  0  0  0  0  0  0
    7.0342  -14.3379   26.8500 C   0  0  0  0  0  0  0  0  0  0  0  0
    6.2346  -13.2502   26.5762 C   0  0  0  0  0  0  0  0  0  0  0  0
    6.7009  -12.1902   25.8068 C   0  0  0  0  0  0  0  0  0  0  0  0
    7.9761  -12.2388   25.3188 C   0  0  0  0  0  0  0  0  0  0  0  0
    8.7943  -13.3286   25.5864 C   0  0  0  0  0  0  0  0  0  0  0  0
    7.3636  -17.0452   26.0855 C   0  0  0  0  0  0  0  0  0  0  0  0
    7.0185  -17.7106   27.2363 O   0  0  0  0  0  0  0  0  0  0  0  0
    6.4787  -16.7152   25.2740 O   0  0  0  0  0  0  0  0  0  0  0  0
  2  1  1  1
  2  4  1  0
  3  2  1  0
  4 11  1  0
  4  5  2  0
  6  7  1  0
  8  7  1  0
  9  8  1  0
 10  9  1  6
 11 10  1  0
 12 10  1  0
 12 13  2  0
 14 15  1  0
 14 12  1  0
 16 17  1  0
 15 16  1  1
 17 18  2  0
 19 18  1  0
 20 19  2  0
 21 20  1  0
 22 21  2  0
 22 17  1  0
 23 15  1  0
 24 23  1  0
 25 23  2  0
M  END
$$$$
