AMF.pdb
     RDKit          3D

 25 25  0  0  1  0  0  0  0  0999 V2000
    7.1077  -17.9724   19.6023 C   0  0  0  0  0  0  0  0  0  0  0  0
    7.9507  -18.2195   20.8548 C   0  0  2  0  0  0  0  0  0  0  0  0
    7.2289  -19.0064   21.8156 N   0  0  0  0  0  0  0  0  0  0  0  0
    8.3779  -16.9068   21.4051 C   0  0  0  0  0  0  0  0  0  0  0  0
    9.1419  -16.2022   20.7346 O   0  0  0  0  0  0  0  0  0  0  0  0
    7.0188  -11.4286   26.9647 C   0  0  0  0  0  0  0  0  0  0  0  0
    6.4427  -12.9524   26.1731 S   0  0  0  0  0  0  0  0  0  0  0  0
    7.6385  -13.3332   24.8374 C   0  0  0  0  0  0  0  0  0  0  0  0
    7.2639  -14.6170   24.1506 C   0  0  0  0  0  0  0  0  0  0  0  0
    8.2859  -15.1098   23.1882 C   0  0  2  0  0  0  0  0  0  0  0  0
    7.9419  -16.4317   22.6704 N   0  0  0  0  0  0  0  0  0  0  0  0
    9.6740  -15.0984   23.7074 C   0  0  0  0  0  0  0  0  0  0  0  0
   10.4770  -14.1382   23.6116 O   0  0  0  0  0  0  0  0  0  0  0  0
   10.1379  -16.2668   24.3685 N   0  0  0  0  0  0  0  0  0  0  0  0
   11.4186  -16.3360   25.0526 C   0  0  1  0  0  0  0  0  0  0  0  0
   11.1127  -17.0153   26.3907 C   0  0  0  0  0  0  0  0  0  0  0  0
   10.6059  -16.0059   27.3345 C   0  0  0  0  0  0  0  0  0  0  0  0
   10.4299  -14.6750   27.0245 C   0  0  0  0  0  0  0  0  0  0  0  0
    9.9443  -13.8041   27.9748 C   0  0  0  0  0  0  0  0  0  0  0  0
    9.6240  -14.2420   29.2550 C   0  0  0  0  0  0  0  0  0  0  0  0
    9.7977  -15.5612   29.5648 C   0  0  0  0  0  0  0  0  0  0  0  0
   10.2863  -16.4515   28.6174 C   0  0  0  0  0  0  0  0  0  0  0  0
   12.3368  -17.1219   24.2209 C   0  0  0  0  0  0  0  0  0  0  0  0
   13.6583  -17.2279   24.5796 O   0  0  0  0  0  0  0  0  0  0  0  0
   11.9286  -17.6922   23.1921 O   0  0  0  0  0  0  0  0  0  0  0  0
  2  1  1  6
  2  4  1  0
  3  2  1  0
  4 11  1  0
  4  5  2  0
  6  7  1  0
  8  7  1  0
  9  8  1  0
 10  9  1  1
 11 10  1  0
 12 10  1  0
 12 13  2  0
 14 15  1  0
 14 12  1  0
 16 17  1  0
 15 16  1  1
 17 18  2  0
 19 18  1  0
 20 19  2  0
 21 20  1  0
 22 21  2  0
 22 17  1  0
 23 15  1  0
 24 23  1  0
 25 23  2  0
M  END
$$$$
