AMF.pdb
     RDKit          3D

 25 25  0  0  1  0  0  0  0  0999 V2000
    9.1048  -20.1472   21.6071 C   0  0  0  0  0  0  0  0  0  0  0  0
    8.2669  -19.0074   21.0245 C   0  0  2  0  0  0  0  0  0  0  0  0
    8.0773  -19.1770   19.6107 N   0  0  0  0  0  0  0  0  0  0  0  0
    8.9260  -17.7174   21.3561 C   0  0  0  0  0  0  0  0  0  0  0  0
   10.1321  -17.5876   21.1147 O   0  0  0  0  0  0  0  0  0  0  0  0
    7.9834  -11.8341   19.4388 C   0  0  0  0  0  0  0  0  0  0  0  0
    6.7605  -13.1702   19.4509 S   0  0  0  0  0  0  0  0  0  0  0  0
    7.5736  -14.6175   20.2276 C   0  0  0  0  0  0  0  0  0  0  0  0
    8.2007  -14.2250   21.5363 C   0  0  0  0  0  0  0  0  0  0  0  0
    8.8543  -15.3508   22.2567 C   0  0  2  0  0  0  0  0  0  0  0  0
    8.2235  -16.6294   21.9388 N   0  0  0  0  0  0  0  0  0  0  0  0
    8.9499  -15.1674   23.7244 C   0  0  0  0  0  0  0  0  0  0  0  0
    9.0443  -14.0629   24.3132 O   0  0  0  0  0  0  0  0  0  0  0  0
    8.9334  -16.3339   24.5347 N   0  0  0  0  0  0  0  0  0  0  0  0
    8.8983  -16.2905   25.9873 C   0  0  1  0  0  0  0  0  0  0  0  0
    7.4403  -15.9761   26.3354 C   0  0  0  0  0  0  0  0  0  0  0  0
    7.2835  -14.5183   26.4653 C   0  0  0  0  0  0  0  0  0  0  0  0
    8.2076  -13.6902   27.0641 C   0  0  0  0  0  0  0  0  0  0  0  0
    7.9750  -12.3344   27.1345 C   0  0  0  0  0  0  0  0  0  0  0  0
    6.8155  -11.7754   26.6093 C   0  0  0  0  0  0  0  0  0  0  0  0
    5.8975  -12.5944   26.0151 C   0  0  0  0  0  0  0  0  0  0  0  0
    6.1178  -13.9634   25.9364 C   0  0  0  0  0  0  0  0  0  0  0  0
    9.3261  -17.6000   26.4920 C   0  0  0  0  0  0  0  0  0  0  0  0
    9.6049  -17.7565   27.8277 O   0  0  0  0  0  0  0  0  0  0  0  0
    9.4402  -18.5700   25.7197 O   0  0  0  0  0  0  0  0  0  0  0  0
  2  1  1  6
  2  4  1  0
  3  2  1  0
  4 11  1  0
  4  5  2  0
  6  7  1  0
  8  7  1  0
  9  8  1  0
 10  9  1  1
 11 10  1  0
 12 10  1  0
 12 13  2  0
 14 15  1  0
 14 12  1  0
 16 17  1  0
 15 16  1  6
 17 18  2  0
 19 18  1  0
 20 19  2  0
 21 20  1  0
 22 21  2  0
 22 17  1  0
 23 15  1  0
 24 23  1  0
 25 23  2  0
M  END
$$$$
