AMF.pdb
     RDKit          3D

 25 25  0  0  1  0  0  0  0  0999 V2000
    7.4725  -14.7666   19.0237 C   0  0  0  0  0  0  0  0  0  0  0  0
    7.8512  -15.9302   19.9419 C   0  0  2  0  0  0  0  0  0  0  0  0
    6.7098  -16.7541   20.2281 N   0  0  0  0  0  0  0  0  0  0  0  0
    8.4738  -15.3787   21.1734 C   0  0  0  0  0  0  0  0  0  0  0  0
    9.5672  -14.8080   21.0815 O   0  0  0  0  0  0  0  0  0  0  0  0
    5.5604  -12.5634   26.5764 C   0  0  0  0  0  0  0  0  0  0  0  0
    6.3682  -11.8059   25.1432 S   0  0  0  0  0  0  0  0  0  0  0  0
    6.5953  -13.1380   23.9051 C   0  0  0  0  0  0  0  0  0  0  0  0
    7.3311  -14.2986   24.5148 C   0  0  0  0  0  0  0  0  0  0  0  0
    8.4072  -14.8549   23.6510 C   0  0  2  0  0  0  0  0  0  0  0  0
    7.8609  -15.4822   22.4503 N   0  0  0  0  0  0  0  0  0  0  0  0
    9.3358  -15.7783   24.3451 C   0  0  0  0  0  0  0  0  0  0  0  0
    9.0950  -16.9794   24.6191 O   0  0  0  0  0  0  0  0  0  0  0  0
   10.6028  -15.2671   24.7333 N   0  0  0  0  0  0  0  0  0  0  0  0
   11.6344  -16.0861   25.3482 C   0  0  1  0  0  0  0  0  0  0  0  0
   10.9693  -16.6887   26.5893 C   0  0  0  0  0  0  0  0  0  0  0  0
   10.8721  -15.6527   27.6303 C   0  0  0  0  0  0  0  0  0  0  0  0
   10.4446  -14.3630   27.4020 C   0  0  0  0  0  0  0  0  0  0  0  0
   10.3824  -13.4628   28.4427 C   0  0  0  0  0  0  0  0  0  0  0  0
   10.7455  -13.8297   29.7337 C   0  0  0  0  0  0  0  0  0  0  0  0
   11.1699  -15.1080   29.9626 C   0  0  0  0  0  0  0  0  0  0  0  0
   11.2379  -16.0270   28.9236 C   0  0  0  0  0  0  0  0  0  0  0  0
   12.0426  -17.1080   24.3779 C   0  0  0  0  0  0  0  0  0  0  0  0
   11.1727  -17.4913   23.3867 O   0  0  0  0  0  0  0  0  0  0  0  0
   13.1702  -17.6318   24.4464 O   0  0  0  0  0  0  0  0  0  0  0  0
  2  1  1  6
  2  4  1  0
  3  2  1  0
  4 11  1  0
  4  5  2  0
  6  7  1  0
  8  7  1  0
  9  8  1  0
 10  9  1  1
 11 10  1  0
 12 10  1  0
 12 13  2  0
 14 15  1  0
 14 12  1  0
 16 17  1  0
 15 16  1  1
 17 18  2  0
 19 18  1  0
 20 19  2  0
 21 20  1  0
 22 21  2  0
 22 17  1  0
 23 15  1  0
 24 23  1  0
 25 23  2  0
M  END
$$$$
