AMF.pdb
     RDKit          3D

 25 25  0  0  1  0  0  0  0  0999 V2000
    6.1969  -19.6544   24.5572 C   0  0  0  0  0  0  0  0  0  0  0  0
    5.9559  -19.3112   23.0860 C   0  0  2  0  0  0  0  0  0  0  0  0
    5.8916  -20.5003   22.2827 N   0  0  0  0  0  0  0  0  0  0  0  0
    7.0238  -18.3811   22.6354 C   0  0  0  0  0  0  0  0  0  0  0  0
    8.0987  -18.8545   22.2478 O   0  0  0  0  0  0  0  0  0  0  0  0
    8.7152  -11.3076   19.6338 C   0  0  0  0  0  0  0  0  0  0  0  0
    7.4250  -12.4777   20.1306 S   0  0  0  0  0  0  0  0  0  0  0  0
    8.2770  -13.8855   20.9375 C   0  0  0  0  0  0  0  0  0  0  0  0
    7.2724  -14.8656   21.4761 C   0  0  0  0  0  0  0  0  0  0  0  0
    7.8783  -16.0467   22.1479 C   0  0  2  0  0  0  0  0  0  0  0  0
    6.8563  -16.9709   22.6330 N   0  0  0  0  0  0  0  0  0  0  0  0
    8.8354  -15.7138   23.2295 C   0  0  0  0  0  0  0  0  0  0  0  0
    9.8914  -15.0506   23.0855 O   0  0  0  0  0  0  0  0  0  0  0  0
    8.5374  -16.1807   24.5374 N   0  0  0  0  0  0  0  0  0  0  0  0
    9.3269  -15.8267   25.7055 C   0  0  1  0  0  0  0  0  0  0  0  0
    8.3052  -15.6611   26.8344 C   0  0  0  0  0  0  0  0  0  0  0  0
    7.6170  -14.3703   26.6708 C   0  0  0  0  0  0  0  0  0  0  0  0
    8.2338  -13.1437   26.7857 C   0  0  0  0  0  0  0  0  0  0  0  0
    7.5065  -11.9871   26.6106 C   0  0  0  0  0  0  0  0  0  0  0  0
    6.1481  -12.0292   26.3172 C   0  0  0  0  0  0  0  0  0  0  0  0
    5.5341  -13.2443   26.2029 C   0  0  0  0  0  0  0  0  0  0  0  0
    6.2541  -14.4191   26.3765 C   0  0  0  0  0  0  0  0  0  0  0  0
   10.2747  -16.9169   25.9615 C   0  0  0  0  0  0  0  0  0  0  0  0
   10.2434  -18.0440   25.1773 O   0  0  0  0  0  0  0  0  0  0  0  0
   11.1058  -16.8298   26.8845 O   0  0  0  0  0  0  0  0  0  0  0  0
  2  1  1  1
  2  4  1  0
  3  2  1  0
  4 11  1  0
  4  5  2  0
  6  7  1  0
  8  7  1  0
  9  8  1  0
 10  9  1  1
 11 10  1  0
 12 10  1  0
 12 13  2  0
 14 15  1  0
 14 12  1  0
 16 17  1  0
 15 16  1  1
 17 18  2  0
 19 18  1  0
 20 19  2  0
 21 20  1  0
 22 21  2  0
 22 17  1  0
 23 15  1  0
 24 23  1  0
 25 23  2  0
M  END
$$$$
