GDI.pdb
     RDKit          3D

 21 20  0  0  1  0  0  0  0  0999 V2000
   15.1567  -21.7839   -0.4322 N   0  0  0  0  0  0  0  0  0  0  0  0
   14.2809  -21.7835    0.7187 C   0  0  0  0  0  0  0  0  0  0  0  0
   14.3920  -20.5315    1.5044 C   0  0  0  0  0  0  0  0  0  0  0  0
   14.5238  -19.4434    0.8949 O   0  0  0  0  0  0  0  0  0  0  0  0
   14.3577  -20.4883    2.9330 N   0  0  0  0  0  0  0  0  0  0  0  0
   14.2933  -19.2815    3.6866 C   0  0  1  0  0  0  0  0  0  0  0  0
   13.7302  -19.5253    5.0547 C   0  0  0  0  0  0  0  0  0  0  0  0
   12.2797  -19.7352    5.1022 C   0  0  0  0  0  0  0  0  0  0  0  0
   11.5475  -19.2947    4.1863 O   0  0  0  0  0  0  0  0  0  0  0  0
   15.6610  -18.6716    3.8282 C   0  0  0  0  0  0  0  0  0  0  0  0
   16.6734  -19.3976    3.9193 O   0  0  0  0  0  0  0  0  0  0  0  0
   11.6958  -20.4132    6.1420 O   0  0  0  0  0  0  0  0  0  0  0  0
   19.3699  -15.4113    2.2069 C   0  0  0  0  0  0  0  0  0  0  0  0
   18.4285  -14.6663    3.1200 C   0  0  0  0  0  0  0  0  0  0  0  0
   17.0814  -15.3624    3.0941 C   0  0  2  0  0  0  0  0  0  0  0  0
   16.0560  -14.4049    3.6562 C   0  0  0  0  0  0  0  0  0  0  0  0
   17.0836  -16.5896    3.9828 C   0  0  2  0  0  0  0  0  0  0  0  0
   15.8117  -17.2703    3.8593 N   0  0  0  0  0  0  0  0  0  0  0  0
   17.3916  -16.1924    5.3553 C   0  0  0  0  0  0  0  0  0  0  0  0
   18.6928  -15.9445    5.7321 O   0  0  0  0  0  0  0  0  0  0  0  0
   16.4812  -16.0732    6.2016 O   0  0  0  0  0  0  0  0  0  0  0  0
  1  2  1  0
  3  5  1  0
  3  2  1  0
  4  3  2  0
  6  5  1  0
  6  7  1  1
  8  7  1  0
  8 12  1  0
  9  8  2  0
 10  6  1  0
 11 10  2  0
 13 14  1  0
 14 15  1  0
 15 16  1  1
 17 15  1  0
 17 18  1  1
 18 10  1  0
 19 17  1  0
 20 19  1  0
 21 19  2  0
M  END
$$$$
