GDI.pdb
     RDKit          3D

 21 20  0  0  1  0  0  0  0  0999 V2000
   28.2793  -21.4313  -10.7045 N   0  0  0  0  0  0  0  0  0  0  0  0
   27.0595  -20.6789  -10.5106 C   0  0  0  0  0  0  0  0  0  0  0  0
   26.1561  -20.7683  -11.6823 C   0  0  0  0  0  0  0  0  0  0  0  0
   26.6477  -21.0183  -12.8087 O   0  0  0  0  0  0  0  0  0  0  0  0
   24.7403  -20.5847  -11.6056 N   0  0  0  0  0  0  0  0  0  0  0  0
   23.8668  -20.6928  -12.7253 C   0  0  1  0  0  0  0  0  0  0  0  0
   22.4465  -20.8921  -12.2884 C   0  0  0  0  0  0  0  0  0  0  0  0
   21.4881  -21.1224  -13.3741 C   0  0  0  0  0  0  0  0  0  0  0  0
   21.5139  -22.1938  -14.0227 O   0  0  0  0  0  0  0  0  0  0  0  0
   23.9416  -19.4553  -13.5772 C   0  0  0  0  0  0  0  0  0  0  0  0
   23.7166  -18.3302  -13.0834 O   0  0  0  0  0  0  0  0  0  0  0  0
   20.5487  -20.1779  -13.7020 O   0  0  0  0  0  0  0  0  0  0  0  0
   28.1022  -17.9881  -16.0746 C   0  0  0  0  0  0  0  0  0  0  0  0
   26.7460  -18.0109  -15.4147 C   0  0  0  0  0  0  0  0  0  0  0  0
   25.7054  -18.3475  -16.4652 C   0  0  2  0  0  0  0  0  0  0  0  0
   25.6835  -17.2200  -17.4714 C   0  0  0  0  0  0  0  0  0  0  0  0
   24.3209  -18.4312  -15.8553 C   0  0  2  0  0  0  0  0  0  0  0  0
   24.2676  -19.5558  -14.9450 N   0  0  0  0  0  0  0  0  0  0  0  0
   23.3258  -18.5090  -16.9231 C   0  0  0  0  0  0  0  0  0  0  0  0
   22.6201  -17.3877  -17.2990 O   0  0  0  0  0  0  0  0  0  0  0  0
   23.1033  -19.5903  -17.5067 O   0  0  0  0  0  0  0  0  0  0  0  0
  1  2  1  0
  3  5  1  0
  3  2  1  0
  4  3  2  0
  6  5  1  0
  6  7  1  1
  8  7  1  0
  8 12  1  0
  9  8  2  0
 10  6  1  0
 11 10  2  0
 13 14  1  0
 14 15  1  0
 15 16  1  6
 17 15  1  0
 17 18  1  1
 18 10  1  0
 19 17  1  0
 20 19  1  0
 21 19  2  0
M  END
$$$$
