GDI.pdb
     RDKit          3D

 21 20  0  0  1  0  0  0  0  0999 V2000
   17.5084  -13.6562  -16.9638 N   0  0  0  0  0  0  0  0  0  0  0  0
   17.3644  -12.3077  -17.4660 C   0  0  0  0  0  0  0  0  0  0  0  0
   17.7783  -11.2930  -16.4680 C   0  0  0  0  0  0  0  0  0  0  0  0
   17.2418  -11.3040  -15.3344 O   0  0  0  0  0  0  0  0  0  0  0  0
   18.7645  -10.2895  -16.7221 N   0  0  0  0  0  0  0  0  0  0  0  0
   19.0626   -9.2273  -15.8215 C   0  0  1  0  0  0  0  0  0  0  0  0
   20.5422   -9.0739  -15.6337 C   0  0  0  0  0  0  0  0  0  0  0  0
   20.9418   -8.1270  -14.5878 C   0  0  0  0  0  0  0  0  0  0  0  0
   20.0752   -7.5739  -13.8720 O   0  0  0  0  0  0  0  0  0  0  0  0
   18.5026   -7.9275  -16.3313 C   0  0  0  0  0  0  0  0  0  0  0  0
   18.7261   -7.5561  -17.5028 O   0  0  0  0  0  0  0  0  0  0  0  0
   22.2627   -7.8272  -14.3707 O   0  0  0  0  0  0  0  0  0  0  0  0
   13.6554   -6.6290  -16.1687 C   0  0  0  0  0  0  0  0  0  0  0  0
   14.8857   -5.8955  -16.6414 C   0  0  0  0  0  0  0  0  0  0  0  0
   15.7916   -5.6570  -15.4489 C   0  0  2  0  0  0  0  0  0  0  0  0
   15.5797   -4.2342  -14.9852 C   0  0  0  0  0  0  0  0  0  0  0  0
   17.2505   -5.7899  -15.8361 C   0  0  2  0  0  0  0  0  0  0  0  0
   17.7178   -7.1152  -15.4877 N   0  0  0  0  0  0  0  0  0  0  0  0
   18.0195   -4.7234  -15.1976 C   0  0  0  0  0  0  0  0  0  0  0  0
   18.7332   -4.9740  -14.0467 O   0  0  0  0  0  0  0  0  0  0  0  0
   18.0391   -3.5744  -15.6861 O   0  0  0  0  0  0  0  0  0  0  0  0
  1  2  1  0
  3  5  1  0
  3  2  1  0
  4  3  2  0
  6  5  1  0
  6  7  1  6
  8  7  1  0
  8 12  1  0
  9  8  2  0
 10  6  1  0
 11 10  2  0
 13 14  1  0
 14 15  1  0
 15 16  1  6
 17 15  1  0
 17 18  1  1
 18 10  1  0
 19 17  1  0
 20 19  1  0
 21 19  2  0
M  END
$$$$
