GDI.pdb
     RDKit          3D

 21 20  0  0  1  0  0  0  0  0999 V2000
   17.4188  -10.1730  -18.2652 N   0  0  0  0  0  0  0  0  0  0  0  0
   17.6176   -8.8137  -17.8133 C   0  0  0  0  0  0  0  0  0  0  0  0
   18.7696   -8.6957  -16.8881 C   0  0  0  0  0  0  0  0  0  0  0  0
   18.5675   -8.2948  -15.7170 O   0  0  0  0  0  0  0  0  0  0  0  0
   20.1142   -9.0151  -17.2540 N   0  0  0  0  0  0  0  0  0  0  0  0
   21.2191   -8.9296  -16.3594 C   0  0  1  0  0  0  0  0  0  0  0  0
   22.3928   -9.7105  -16.8700 C   0  0  0  0  0  0  0  0  0  0  0  0
   22.2468  -11.1681  -16.8033 C   0  0  0  0  0  0  0  0  0  0  0  0
   21.2672  -11.6783  -16.2123 O   0  0  0  0  0  0  0  0  0  0  0  0
   21.6372   -7.4971  -16.1692 C   0  0  0  0  0  0  0  0  0  0  0  0
   22.0181   -6.8126  -17.1422 O   0  0  0  0  0  0  0  0  0  0  0  0
   23.1717  -11.9998  -17.3817 O   0  0  0  0  0  0  0  0  0  0  0  0
   21.0042   -2.5021  -16.0022 C   0  0  0  0  0  0  0  0  0  0  0  0
   20.8901   -3.2211  -14.6811 C   0  0  0  0  0  0  0  0  0  0  0  0
   20.6508   -4.6935  -14.9537 C   0  0  2  0  0  0  0  0  0  0  0  0
   19.5374   -5.1568  -14.0427 C   0  0  0  0  0  0  0  0  0  0  0  0
   21.8771   -5.5176  -14.6180 C   0  0  2  0  0  0  0  0  0  0  0  0
   21.6022   -6.9135  -14.8865 N   0  0  0  0  0  0  0  0  0  0  0  0
   22.2650   -5.2650  -13.2315 C   0  0  0  0  0  0  0  0  0  0  0  0
   22.0715   -6.2302  -12.2684 O   0  0  0  0  0  0  0  0  0  0  0  0
   22.7754   -4.1736  -12.9035 O   0  0  0  0  0  0  0  0  0  0  0  0
  1  2  1  0
  3  5  1  0
  3  2  1  0
  4  3  2  0
  6  5  1  0
  6  7  1  6
  8  7  1  0
  8 12  1  0
  9  8  2  0
 10  6  1  0
 11 10  2  0
 13 14  1  0
 14 15  1  0
 15 16  1  1
 17 15  1  0
 17 18  1  1
 18 10  1  0
 19 17  1  0
 20 19  1  0
 21 19  2  0
M  END
$$$$
