GDI.pdb
     RDKit          3D

 21 20  0  0  1  0  0  0  0  0999 V2000
   19.1633  -15.1569  -16.7969 N   0  0  0  0  0  0  0  0  0  0  0  0
   18.5027  -13.9106  -17.1160 C   0  0  0  0  0  0  0  0  0  0  0  0
   19.4617  -12.7883  -17.2488 C   0  0  0  0  0  0  0  0  0  0  0  0
   20.6843  -13.0132  -17.0825 O   0  0  0  0  0  0  0  0  0  0  0  0
   19.0730  -11.4478  -17.5587 N   0  0  0  0  0  0  0  0  0  0  0  0
   19.9962  -10.3795  -17.7453 C   0  0  1  0  0  0  0  0  0  0  0  0
   19.3897   -9.2732  -18.5553 C   0  0  0  0  0  0  0  0  0  0  0  0
   19.0837   -9.6170  -19.9475 C   0  0  0  0  0  0  0  0  0  0  0  0
   19.7702  -10.4727  -20.5522 O   0  0  0  0  0  0  0  0  0  0  0  0
   20.4369   -9.8225  -16.4193 C   0  0  0  0  0  0  0  0  0  0  0  0
   19.6037   -9.6002  -15.5157 O   0  0  0  0  0  0  0  0  0  0  0  0
   18.0474   -9.0147  -20.6147 O   0  0  0  0  0  0  0  0  0  0  0  0
   25.9527  -10.0978  -15.3625 C   0  0  0  0  0  0  0  0  0  0  0  0
   24.6624   -9.4073  -15.7277 C   0  0  0  0  0  0  0  0  0  0  0  0
   23.6471   -9.6749  -14.6336 C   0  0  2  0  0  0  0  0  0  0  0  0
   23.4010  -11.1654  -14.5865 C   0  0  0  0  0  0  0  0  0  0  0  0
   22.3211   -9.0111  -14.9448 C   0  0  2  0  0  0  0  0  0  0  0  0
   21.7992   -9.5458  -16.1850 N   0  0  0  0  0  0  0  0  0  0  0  0
   22.5014   -7.5609  -14.9754 C   0  0  0  0  0  0  0  0  0  0  0  0
   22.7841   -6.8708  -13.8176 O   0  0  0  0  0  0  0  0  0  0  0  0
   22.4016   -6.9308  -16.0488 O   0  0  0  0  0  0  0  0  0  0  0  0
  1  2  1  0
  3  5  1  0
  3  2  1  0
  4  3  2  0
  6  5  1  0
  6  7  1  6
  8  7  1  0
  8 12  1  0
  9  8  2  0
 10  6  1  0
 11 10  2  0
 13 14  1  0
 14 15  1  0
 15 16  1  6
 17 15  1  0
 17 18  1  6
 18 10  1  0
 19 17  1  0
 20 19  1  0
 21 19  2  0
M  END
$$$$
