GDI.pdb
     RDKit          3D

 21 20  0  0  1  0  0  0  0  0999 V2000
   28.7872  -19.0833  -14.6107 N   0  0  0  0  0  0  0  0  0  0  0  0
   27.6679  -19.9837  -14.4437 C   0  0  0  0  0  0  0  0  0  0  0  0
   26.9703  -19.7741  -13.1529 C   0  0  0  0  0  0  0  0  0  0  0  0
   27.1269  -18.6859  -12.5493 O   0  0  0  0  0  0  0  0  0  0  0  0
   26.1189  -20.7492  -12.5460 N   0  0  0  0  0  0  0  0  0  0  0  0
   25.2777  -20.4795  -11.4289 C   0  0  1  0  0  0  0  0  0  0  0  0
   23.8874  -20.9909  -11.6603 C   0  0  0  0  0  0  0  0  0  0  0  0
   23.1243  -20.2755  -12.6880 C   0  0  0  0  0  0  0  0  0  0  0  0
   22.5821  -20.9056  -13.6251 O   0  0  0  0  0  0  0  0  0  0  0  0
   25.8279  -21.1206  -10.1843 C   0  0  0  0  0  0  0  0  0  0  0  0
   26.0146  -22.3547  -10.1354 O   0  0  0  0  0  0  0  0  0  0  0  0
   22.9876  -18.9112  -12.6474 O   0  0  0  0  0  0  0  0  0  0  0  0
   28.8915  -19.2945   -5.1767 C   0  0  0  0  0  0  0  0  0  0  0  0
   27.9977  -20.3470   -5.7838 C   0  0  0  0  0  0  0  0  0  0  0  0
   27.4860  -19.8337   -7.1158 C   0  0  2  0  0  0  0  0  0  0  0  0
   26.6320  -18.6166   -6.8446 C   0  0  0  0  0  0  0  0  0  0  0  0
   26.6012  -20.8603   -7.7933 C   0  0  2  0  0  0  0  0  0  0  0  0
   26.1384  -20.3306   -9.0588 N   0  0  0  0  0  0  0  0  0  0  0  0
   25.5113  -21.2297   -6.8922 C   0  0  0  0  0  0  0  0  0  0  0  0
   24.2221  -20.8246   -7.1575 O   0  0  0  0  0  0  0  0  0  0  0  0
   25.7346  -21.9155   -5.8728 O   0  0  0  0  0  0  0  0  0  0  0  0
  1  2  1  0
  3  5  1  0
  3  2  1  0
  4  3  2  0
  6  5  1  0
  6  7  1  6
  8  7  1  0
  8 12  1  0
  9  8  2  0
 10  6  1  0
 11 10  2  0
 13 14  1  0
 14 15  1  0
 15 16  1  1
 17 15  1  0
 17 18  1  6
 18 10  1  0
 19 17  1  0
 20 19  1  0
 21 19  2  0
M  END
$$$$
