GDI.pdb
     RDKit          3D

 21 20  0  0  1  0  0  0  0  0999 V2000
   19.4883  -21.6756  -13.4248 N   0  0  0  0  0  0  0  0  0  0  0  0
   20.6120  -20.7925  -13.6455 C   0  0  0  0  0  0  0  0  0  0  0  0
   21.8538  -21.3007  -13.0156 C   0  0  0  0  0  0  0  0  0  0  0  0
   21.8649  -21.5075  -11.7786 O   0  0  0  0  0  0  0  0  0  0  0  0
   23.0550  -21.5731  -13.7415 N   0  0  0  0  0  0  0  0  0  0  0  0
   24.2248  -22.1337  -13.1536 C   0  0  1  0  0  0  0  0  0  0  0  0
   24.9957  -22.9479  -14.1489 C   0  0  0  0  0  0  0  0  0  0  0  0
   24.3090  -24.1485  -14.6359 C   0  0  0  0  0  0  0  0  0  0  0  0
   24.1270  -25.1252  -13.8729 O   0  0  0  0  0  0  0  0  0  0  0  0
   25.1201  -21.0499  -12.6181 C   0  0  0  0  0  0  0  0  0  0  0  0
   25.2885  -19.9913  -13.2594 O   0  0  0  0  0  0  0  0  0  0  0  0
   23.8539  -24.2294  -15.9274 O   0  0  0  0  0  0  0  0  0  0  0  0
   28.2620  -20.6961   -7.7674 C   0  0  0  0  0  0  0  0  0  0  0  0
   27.1126  -21.2658   -8.5607 C   0  0  0  0  0  0  0  0  0  0  0  0
   26.4545  -20.1382   -9.3320 C   0  0  2  0  0  0  0  0  0  0  0  0
   24.9612  -20.2479   -9.1263 C   0  0  0  0  0  0  0  0  0  0  0  0
   26.7131  -20.2699  -10.8191 C   0  0  2  0  0  0  0  0  0  0  0  0
   25.7787  -21.2210  -11.3836 N   0  0  0  0  0  0  0  0  0  0  0  0
   28.1105  -20.6395  -11.0363 C   0  0  0  0  0  0  0  0  0  0  0  0
   29.0993  -19.6825  -10.9827 O   0  0  0  0  0  0  0  0  0  0  0  0
   28.4248  -21.8247  -11.2726 O   0  0  0  0  0  0  0  0  0  0  0  0
  1  2  1  0
  3  5  1  0
  3  2  1  0
  4  3  2  0
  6  5  1  0
  6  7  1  6
  8  7  1  0
  8 12  1  0
  9  8  2  0
 10  6  1  0
 11 10  2  0
 13 14  1  0
 14 15  1  0
 15 16  1  6
 17 15  1  0
 17 18  1  1
 18 10  1  0
 19 17  1  0
 20 19  1  0
 21 19  2  0
M  END
$$$$
