GDI.pdb
     RDKit          3D

 21 20  0  0  1  0  0  0  0  0999 V2000
   15.5977  -13.3656  -16.1617 N   0  0  0  0  0  0  0  0  0  0  0  0
   16.5863  -12.8722  -15.2286 C   0  0  0  0  0  0  0  0  0  0  0  0
   17.4623  -11.8424  -15.8359 C   0  0  0  0  0  0  0  0  0  0  0  0
   18.7040  -12.0187  -15.8226 O   0  0  0  0  0  0  0  0  0  0  0  0
   16.9719  -10.6448  -16.4437 N   0  0  0  0  0  0  0  0  0  0  0  0
   17.8102   -9.6580  -17.0368 C   0  0  1  0  0  0  0  0  0  0  0  0
   17.0291   -8.7577  -17.9464 C   0  0  0  0  0  0  0  0  0  0  0  0
   17.8361   -7.8388  -18.7555 C   0  0  0  0  0  0  0  0  0  0  0  0
   17.2809   -7.0187  -19.5225 O   0  0  0  0  0  0  0  0  0  0  0  0
   18.4722   -8.8194  -15.9780 C   0  0  0  0  0  0  0  0  0  0  0  0
   17.8211   -8.4092  -14.9940 O   0  0  0  0  0  0  0  0  0  0  0  0
   19.2063   -7.8558  -18.6920 O   0  0  0  0  0  0  0  0  0  0  0  0
   23.0959  -10.3646  -14.1471 C   0  0  0  0  0  0  0  0  0  0  0  0
   21.7325   -9.7361  -14.2929 C   0  0  0  0  0  0  0  0  0  0  0  0
   21.9052   -8.3350  -14.8466 C   0  0  2  0  0  0  0  0  0  0  0  0
   22.5934   -7.5023  -13.7896 C   0  0  0  0  0  0  0  0  0  0  0  0
   20.5634   -7.6881  -15.1240 C   0  0  2  0  0  0  0  0  0  0  0  0
   19.8380   -8.4883  -16.0882 N   0  0  0  0  0  0  0  0  0  0  0  0
   20.7725   -6.3096  -15.5628 C   0  0  0  0  0  0  0  0  0  0  0  0
   20.7831   -5.2820  -14.6459 O   0  0  0  0  0  0  0  0  0  0  0  0
   20.9437   -6.0467  -16.7714 O   0  0  0  0  0  0  0  0  0  0  0  0
  1  2  1  0
  3  5  1  0
  3  2  1  0
  4  3  2  0
  6  5  1  0
  6  7  1  6
  8  7  1  0
  8 12  1  0
  9  8  2  0
 10  6  1  0
 11 10  2  0
 13 14  1  0
 14 15  1  0
 15 16  1  1
 17 15  1  0
 17 18  1  6
 18 10  1  0
 19 17  1  0
 20 19  1  0
 21 19  2  0
M  END
$$$$
