YFF.pdb
     RDKit          3D

 35 37  0  0  1  0  0  0  0  0999 V2000
   28.0511  -18.4910  -22.0157 O   0  0  0  0  0  0  0  0  0  0  0  0
   27.5202  -19.2227  -20.9460 C   0  0  0  0  0  0  0  0  0  0  0  0
   26.8347  -18.5151  -19.9868 C   0  0  0  0  0  0  0  0  0  0  0  0
   26.3030  -19.2207  -18.9226 C   0  0  0  0  0  0  0  0  0  0  0  0
   26.4376  -20.5780  -18.7996 C   0  0  0  0  0  0  0  0  0  0  0  0
   25.8315  -21.2639  -17.6165 C   0  0  0  0  0  0  0  0  0  0  0  0
   26.7708  -21.0222  -16.4360 C   0  0  2  0  0  0  0  0  0  0  0  0
   27.9726  -21.7970  -16.6566 N   0  0  0  0  0  0  0  0  0  0  0  0
   26.1248  -21.3520  -15.1522 C   0  0  0  0  0  0  0  0  0  0  0  0
   25.8073  -22.5342  -14.8570 O   0  0  0  0  0  0  0  0  0  0  0  0
   27.1242  -21.2677  -19.7653 C   0  0  0  0  0  0  0  0  0  0  0  0
   27.6748  -20.5966  -20.8523 C   0  0  0  0  0  0  0  0  0  0  0  0
   25.8479  -20.3380  -14.2216 N   0  0  0  0  0  0  0  0  0  0  0  0
   25.2405  -20.5607  -12.9209 C   0  0  1  0  0  0  0  0  0  0  0  0
   26.0665  -19.8366  -11.8795 C   0  0  0  0  0  0  0  0  0  0  0  0
   27.4223  -20.3692  -11.7565 C   0  0  0  0  0  0  0  0  0  0  0  0
   27.7762  -21.2633  -10.7738 C   0  0  0  0  0  0  0  0  0  0  0  0
   29.0435  -21.7721  -10.6425 C   0  0  0  0  0  0  0  0  0  0  0  0
   30.0327  -21.3910  -11.5192 C   0  0  0  0  0  0  0  0  0  0  0  0
   29.7085  -20.4950  -12.5163 C   0  0  0  0  0  0  0  0  0  0  0  0
   28.4125  -19.9875  -12.6344 C   0  0  0  0  0  0  0  0  0  0  0  0
   23.8369  -20.1235  -12.9844 C   0  0  0  0  0  0  0  0  0  0  0  0
   23.5590  -18.9652  -13.3644 O   0  0  0  0  0  0  0  0  0  0  0  0
   22.7665  -20.9879  -12.6251 N   0  0  0  0  0  0  0  0  0  0  0  0
   21.3760  -20.5631  -12.8070 C   0  0  1  0  0  0  0  0  0  0  0  0
   21.1669  -20.1826  -14.2630 C   0  0  0  0  0  0  0  0  0  0  0  0
   21.2370  -21.3549  -15.1593 C   0  0  0  0  0  0  0  0  0  0  0  0
   20.1730  -22.2030  -15.3616 C   0  0  0  0  0  0  0  0  0  0  0  0
   20.2872  -23.2858  -16.2092 C   0  0  0  0  0  0  0  0  0  0  0  0
   21.4523  -23.5649  -16.8821 C   0  0  0  0  0  0  0  0  0  0  0  0
   22.5243  -22.7196  -16.6850 C   0  0  0  0  0  0  0  0  0  0  0  0
   22.4067  -21.6307  -15.8316 C   0  0  0  0  0  0  0  0  0  0  0  0
   20.4247  -21.5943  -12.3673 C   0  0  0  0  0  0  0  0  0  0  0  0
   20.9043  -22.8112  -11.9243 O   0  0  0  0  0  0  0  0  0  0  0  0
   19.1849  -21.4135  -12.3786 O   0  0  0  0  0  0  0  0  0  0  0  0
  2  3  2  0
  2  1  1  0
  4  3  1  0
  5  4  2  0
  6  5  1  0
  7  6  1  0
  7  8  1  6
  9  7  1  0
  9 10  2  0
 11  5  1  0
 11 12  2  0
 12  2  1  0
 13  9  1  0
 14 13  1  0
 14 15  1  1
 16 17  2  0
 16 15  1  0
 18 17  1  0
 19 18  2  0
 20 21  2  0
 20 19  1  0
 21 16  1  0
 22 14  1  0
 23 22  2  0
 24 22  1  0
 25 26  1  6
 25 24  1  0
 26 27  1  0
 27 28  2  0
 27 32  1  0
 28 29  1  0
 29 30  2  0
 31 30  1  0
 32 31  2  0
 33 25  1  0
 34 33  1  0
 35 33  2  0
M  END
$$$$
