YFF.pdb
     RDKit          3D

 35 37  0  0  1  0  0  0  0  0999 V2000
   18.0641  -17.1162  -14.3000 O   0  0  0  0  0  0  0  0  0  0  0  0
   19.0580  -18.0435  -13.9624 C   0  0  0  0  0  0  0  0  0  0  0  0
   19.8706  -17.7263  -12.8995 C   0  0  0  0  0  0  0  0  0  0  0  0
   20.8581  -18.6300  -12.5512 C   0  0  0  0  0  0  0  0  0  0  0  0
   21.0457  -19.8090  -13.2222 C   0  0  0  0  0  0  0  0  0  0  0  0
   22.1378  -20.7306  -12.7802 C   0  0  0  0  0  0  0  0  0  0  0  0
   23.3303  -20.4771  -13.7010 C   0  0  2  0  0  0  0  0  0  0  0  0
   22.8450  -20.4576  -15.0639 N   0  0  0  0  0  0  0  0  0  0  0  0
   24.3917  -21.4814  -13.5034 C   0  0  0  0  0  0  0  0  0  0  0  0
   24.2998  -22.6425  -13.9817 O   0  0  0  0  0  0  0  0  0  0  0  0
   20.2263  -20.1093  -14.2797 C   0  0  0  0  0  0  0  0  0  0  0  0
   19.2206  -19.2280  -14.6631 C   0  0  0  0  0  0  0  0  0  0  0  0
   25.5416  -21.1558  -12.7667 N   0  0  0  0  0  0  0  0  0  0  0  0
   26.6364  -22.0741  -12.5048 C   0  0  1  0  0  0  0  0  0  0  0  0
   27.8758  -21.5466  -13.1954 C   0  0  0  0  0  0  0  0  0  0  0  0
   28.5397  -20.4847  -12.4414 C   0  0  0  0  0  0  0  0  0  0  0  0
   29.6142  -20.7270  -11.6183 C   0  0  0  0  0  0  0  0  0  0  0  0
   30.2483  -19.7434  -10.9024 C   0  0  0  0  0  0  0  0  0  0  0  0
   29.8147  -18.4406  -10.9885 C   0  0  0  0  0  0  0  0  0  0  0  0
   28.7387  -18.1658  -11.8063 C   0  0  0  0  0  0  0  0  0  0  0  0
   28.1055  -19.1805  -12.5278 C   0  0  0  0  0  0  0  0  0  0  0  0
   26.7779  -22.2222  -11.0477 C   0  0  0  0  0  0  0  0  0  0  0  0
   27.7411  -22.8641  -10.5747 O   0  0  0  0  0  0  0  0  0  0  0  0
   25.8431  -21.6487  -10.1425 N   0  0  0  0  0  0  0  0  0  0  0  0
   26.1358  -21.5950   -8.7078 C   0  0  1  0  0  0  0  0  0  0  0  0
   27.4799  -20.9156   -8.5075 C   0  0  0  0  0  0  0  0  0  0  0  0
   27.7442  -20.6149   -7.0855 C   0  0  0  0  0  0  0  0  0  0  0  0
   27.3651  -21.4539   -6.0634 C   0  0  0  0  0  0  0  0  0  0  0  0
   27.6345  -21.1293   -4.7496 C   0  0  0  0  0  0  0  0  0  0  0  0
   28.2848  -19.9692   -4.4042 C   0  0  0  0  0  0  0  0  0  0  0  0
   28.6686  -19.1220   -5.4229 C   0  0  0  0  0  0  0  0  0  0  0  0
   28.3963  -19.4511   -6.7440 C   0  0  0  0  0  0  0  0  0  0  0  0
   25.0654  -20.9265   -7.9535 C   0  0  0  0  0  0  0  0  0  0  0  0
   24.2722  -19.9923   -8.5900 O   0  0  0  0  0  0  0  0  0  0  0  0
   24.8411  -21.1710   -6.7453 O   0  0  0  0  0  0  0  0  0  0  0  0
  2  3  2  0
  2  1  1  0
  4  3  1  0
  5  4  2  0
  6  5  1  0
  7  6  1  0
  7  8  1  6
  9  7  1  0
  9 10  2  0
 11  5  1  0
 11 12  2  0
 12  2  1  0
 13  9  1  0
 14 13  1  0
 14 15  1  1
 16 17  2  0
 16 15  1  0
 18 17  1  0
 19 18  2  0
 20 21  2  0
 20 19  1  0
 21 16  1  0
 22 14  1  0
 23 22  2  0
 24 22  1  0
 25 26  1  6
 25 24  1  0
 26 27  1  0
 27 28  2  0
 27 32  1  0
 28 29  1  0
 29 30  2  0
 31 30  1  0
 32 31  2  0
 33 25  1  0
 34 33  1  0
 35 33  2  0
M  END
$$$$
