YFF.pdb
     RDKit          3D

 35 37  0  0  1  0  0  0  0  0999 V2000
   27.3300  -17.4609  -22.2778 O   0  0  0  0  0  0  0  0  0  0  0  0
   26.9289  -18.1197  -21.1088 C   0  0  0  0  0  0  0  0  0  0  0  0
   27.2125  -17.4987  -19.9152 C   0  0  0  0  0  0  0  0  0  0  0  0
   26.8240  -18.1343  -18.7499 C   0  0  0  0  0  0  0  0  0  0  0  0
   26.1772  -19.3414  -18.7512 C   0  0  0  0  0  0  0  0  0  0  0  0
   25.7917  -19.9605  -17.4452 C   0  0  0  0  0  0  0  0  0  0  0  0
   27.0626  -20.5646  -16.8499 C   0  0  2  0  0  0  0  0  0  0  0  0
   27.4730  -21.6634  -17.6968 N   0  0  0  0  0  0  0  0  0  0  0  0
   26.8595  -20.9864  -15.4517 C   0  0  0  0  0  0  0  0  0  0  0  0
   26.2408  -22.0447  -15.1642 O   0  0  0  0  0  0  0  0  0  0  0  0
   25.9023  -19.9465  -19.9504 C   0  0  0  0  0  0  0  0  0  0  0  0
   26.2757  -19.3414  -21.1460 C   0  0  0  0  0  0  0  0  0  0  0  0
   27.3601  -20.2033  -14.3995 N   0  0  0  0  0  0  0  0  0  0  0  0
   27.1416  -20.4839  -12.9910 C   0  0  1  0  0  0  0  0  0  0  0  0
   28.3044  -19.9152  -12.2063 C   0  0  0  0  0  0  0  0  0  0  0  0
   28.1039  -19.9846  -10.7600 C   0  0  0  0  0  0  0  0  0  0  0  0
   27.3184  -19.0830  -10.0812 C   0  0  0  0  0  0  0  0  0  0  0  0
   27.1203  -19.1319   -8.7245 C   0  0  0  0  0  0  0  0  0  0  0  0
   27.7214  -20.1173   -7.9760 C   0  0  0  0  0  0  0  0  0  0  0  0
   28.5156  -21.0368   -8.6285 C   0  0  0  0  0  0  0  0  0  0  0  0
   28.7057  -20.9712  -10.0108 C   0  0  0  0  0  0  0  0  0  0  0  0
   25.8318  -19.9341  -12.6070 C   0  0  0  0  0  0  0  0  0  0  0  0
   25.4849  -18.8033  -13.0121 O   0  0  0  0  0  0  0  0  0  0  0  0
   24.9299  -20.6574  -11.7791 N   0  0  0  0  0  0  0  0  0  0  0  0
   23.6790  -20.0415  -11.3285 C   0  0  1  0  0  0  0  0  0  0  0  0
   22.7996  -19.7776  -12.5390 C   0  0  0  0  0  0  0  0  0  0  0  0
   22.3832  -21.0279  -13.2067 C   0  0  0  0  0  0  0  0  0  0  0  0
   21.2732  -21.7439  -12.8226 C   0  0  0  0  0  0  0  0  0  0  0  0
   20.9246  -22.9072  -13.4777 C   0  0  0  0  0  0  0  0  0  0  0  0
   21.6588  -23.3992  -14.5299 C   0  0  0  0  0  0  0  0  0  0  0  0
   22.7735  -22.6874  -14.9217 C   0  0  0  0  0  0  0  0  0  0  0  0
   23.1221  -21.5171  -14.2608 C   0  0  0  0  0  0  0  0  0  0  0  0
   22.9934  -20.8643  -10.3212 C   0  0  0  0  0  0  0  0  0  0  0  0
   21.7964  -20.4249   -9.7909 O   0  0  0  0  0  0  0  0  0  0  0  0
   23.4547  -21.9577   -9.9194 O   0  0  0  0  0  0  0  0  0  0  0  0
  2  3  2  0
  2  1  1  0
  4  3  1  0
  5  4  2  0
  6  5  1  0
  7  6  1  0
  7  8  1  6
  9  7  1  0
  9 10  2  0
 11  5  1  0
 11 12  2  0
 12  2  1  0
 13  9  1  0
 14 13  1  0
 14 15  1  1
 16 17  2  0
 16 15  1  0
 18 17  1  0
 19 18  2  0
 20 21  2  0
 20 19  1  0
 21 16  1  0
 22 14  1  0
 23 22  2  0
 24 22  1  0
 25 26  1  6
 25 24  1  0
 26 27  1  0
 27 28  2  0
 27 32  1  0
 28 29  1  0
 29 30  2  0
 31 30  1  0
 32 31  2  0
 33 25  1  0
 34 33  1  0
 35 33  2  0
M  END
$$$$
