YFF.pdb
     RDKit          3D

 35 37  0  0  1  0  0  0  0  0999 V2000
   26.3257  -18.9426  -22.5578 O   0  0  0  0  0  0  0  0  0  0  0  0
   26.0205  -19.3845  -21.2643 C   0  0  0  0  0  0  0  0  0  0  0  0
   25.8244  -20.7352  -21.0976 C   0  0  0  0  0  0  0  0  0  0  0  0
   25.5221  -21.1904  -19.8270 C   0  0  0  0  0  0  0  0  0  0  0  0
   25.4146  -20.3499  -18.7510 C   0  0  0  0  0  0  0  0  0  0  0  0
   25.0841  -20.9249  -17.4103 C   0  0  0  0  0  0  0  0  0  0  0  0
   26.4088  -21.1238  -16.6754 C   0  0  2  0  0  0  0  0  0  0  0  0
   27.1393  -22.1748  -17.3499 N   0  0  0  0  0  0  0  0  0  0  0  0
   26.1975  -21.4223  -15.2470 C   0  0  0  0  0  0  0  0  0  0  0  0
   25.5331  -22.4243  -14.8728 O   0  0  0  0  0  0  0  0  0  0  0  0
   25.6134  -19.0060  -18.9354 C   0  0  0  0  0  0  0  0  0  0  0  0
   25.9193  -18.5063  -20.1970 C   0  0  0  0  0  0  0  0  0  0  0  0
   26.7419  -20.5815  -14.2633 N   0  0  0  0  0  0  0  0  0  0  0  0
   26.4899  -20.7138  -12.8388 C   0  0  1  0  0  0  0  0  0  0  0  0
   27.5255  -19.8986  -12.0944 C   0  0  0  0  0  0  0  0  0  0  0  0
   27.2759  -19.8378  -10.6553 C   0  0  0  0  0  0  0  0  0  0  0  0
   27.7687  -20.7785   -9.7819 C   0  0  0  0  0  0  0  0  0  0  0  0
   27.5434  -20.7381   -8.4292 C   0  0  0  0  0  0  0  0  0  0  0  0
   26.7922  -19.7214   -7.8863 C   0  0  0  0  0  0  0  0  0  0  0  0
   26.2840  -18.7623   -8.7371 C   0  0  0  0  0  0  0  0  0  0  0  0
   26.5239  -18.8199  -10.1119 C   0  0  0  0  0  0  0  0  0  0  0  0
   25.1010  -20.3060  -12.5744 C   0  0  0  0  0  0  0  0  0  0  0  0
   24.6606  -19.2382  -13.0531 O   0  0  0  0  0  0  0  0  0  0  0  0
   24.2259  -21.0986  -11.7819 N   0  0  0  0  0  0  0  0  0  0  0  0
   22.8939  -20.6033  -11.4250 C   0  0  1  0  0  0  0  0  0  0  0  0
   21.8655  -21.2776  -12.3173 C   0  0  0  0  0  0  0  0  0  0  0  0
   21.4902  -20.4326  -13.4695 C   0  0  0  0  0  0  0  0  0  0  0  0
   20.6757  -19.3304  -13.3514 C   0  0  0  0  0  0  0  0  0  0  0  0
   20.3530  -18.5717  -14.4578 C   0  0  0  0  0  0  0  0  0  0  0  0
   20.8230  -18.8763  -15.7126 C   0  0  0  0  0  0  0  0  0  0  0  0
   21.6404  -19.9800  -15.8402 C   0  0  0  0  0  0  0  0  0  0  0  0
   21.9636  -20.7417  -14.7252 C   0  0  0  0  0  0  0  0  0  0  0  0
   22.5977  -20.8027   -9.9988 C   0  0  0  0  0  0  0  0  0  0  0  0
   22.1849  -22.0460   -9.5619 O   0  0  0  0  0  0  0  0  0  0  0  0
   22.7045  -19.8825   -9.1552 O   0  0  0  0  0  0  0  0  0  0  0  0
  2  3  2  0
  2  1  1  0
  4  3  1  0
  5  4  2  0
  6  5  1  0
  7  6  1  0
  7  8  1  6
  9  7  1  0
  9 10  2  0
 11  5  1  0
 11 12  2  0
 12  2  1  0
 13  9  1  0
 14 13  1  0
 14 15  1  1
 16 17  2  0
 16 15  1  0
 18 17  1  0
 19 18  2  0
 20 21  2  0
 20 19  1  0
 21 16  1  0
 22 14  1  0
 23 22  2  0
 24 22  1  0
 25 26  1  6
 25 24  1  0
 26 27  1  0
 27 28  2  0
 27 32  1  0
 28 29  1  0
 29 30  2  0
 31 30  1  0
 32 31  2  0
 33 25  1  0
 34 33  1  0
 35 33  2  0
M  END
$$$$
