YFF.pdb
     RDKit          3D

 35 37  0  0  1  0  0  0  0  0999 V2000
   19.2092  -15.6659  -17.4295 O   0  0  0  0  0  0  0  0  0  0  0  0
   19.3098  -14.3044  -17.1167 C   0  0  0  0  0  0  0  0  0  0  0  0
   19.0810  -13.9473  -15.8088 C   0  0  0  0  0  0  0  0  0  0  0  0
   19.1760  -12.6070  -15.4808 C   0  0  0  0  0  0  0  0  0  0  0  0
   19.4855  -11.6441  -16.4042 C   0  0  0  0  0  0  0  0  0  0  0  0
   19.5679  -10.2165  -15.9654 C   0  0  0  0  0  0  0  0  0  0  0  0
   18.1504   -9.7860  -15.5917 C   0  0  2  0  0  0  0  0  0  0  0  0
   17.3302   -9.8724  -16.7804 N   0  0  0  0  0  0  0  0  0  0  0  0
   18.1315   -8.4355  -15.0003 C   0  0  0  0  0  0  0  0  0  0  0  0
   18.1742   -7.4003  -15.7160 O   0  0  0  0  0  0  0  0  0  0  0  0
   19.7105  -12.0180  -17.7040 C   0  0  0  0  0  0  0  0  0  0  0  0
   19.6251  -13.3556  -18.0763 C   0  0  0  0  0  0  0  0  0  0  0  0
   18.0646   -8.2770  -13.6070 N   0  0  0  0  0  0  0  0  0  0  0  0
   18.0741   -6.9945  -12.9249 C   0  0  1  0  0  0  0  0  0  0  0  0
   17.3090   -7.1398  -11.6269 C   0  0  0  0  0  0  0  0  0  0  0  0
   17.2597   -5.9007  -10.8529 C   0  0  0  0  0  0  0  0  0  0  0  0
   16.3927   -4.8773  -11.1553 C   0  0  0  0  0  0  0  0  0  0  0  0
   16.3337   -3.7074  -10.4411 C   0  0  0  0  0  0  0  0  0  0  0  0
   17.1680   -3.5153   -9.3642 C   0  0  0  0  0  0  0  0  0  0  0  0
   18.0492   -4.5241   -9.0358 C   0  0  0  0  0  0  0  0  0  0  0  0
   18.0950   -5.7086   -9.7748 C   0  0  0  0  0  0  0  0  0  0  0  0
   19.4730   -6.5716  -12.7533 C   0  0  0  0  0  0  0  0  0  0  0  0
   20.2934   -7.3341  -12.1975 O   0  0  0  0  0  0  0  0  0  0  0  0
   19.9335   -5.3053  -13.2078 N   0  0  0  0  0  0  0  0  0  0  0  0
   21.3489   -4.9446  -13.0918 C   0  0  1  0  0  0  0  0  0  0  0  0
   22.1782   -5.9661  -13.8515 C   0  0  0  0  0  0  0  0  0  0  0  0
   21.9936   -5.8555  -15.3131 C   0  0  0  0  0  0  0  0  0  0  0  0
   22.4704   -4.7938  -16.0463 C   0  0  0  0  0  0  0  0  0  0  0  0
   22.2727   -4.7351  -17.4107 C   0  0  0  0  0  0  0  0  0  0  0  0
   21.5998   -5.7203  -18.0926 C   0  0  0  0  0  0  0  0  0  0  0  0
   21.1183   -6.7887  -17.3651 C   0  0  0  0  0  0  0  0  0  0  0  0
   21.3186   -6.8452  -15.9923 C   0  0  0  0  0  0  0  0  0  0  0  0
   21.6063   -3.5738  -13.5568 C   0  0  0  0  0  0  0  0  0  0  0  0
   22.8595   -3.0229  -13.3753 O   0  0  0  0  0  0  0  0  0  0  0  0
   20.7272   -2.8776  -14.1158 O   0  0  0  0  0  0  0  0  0  0  0  0
  2  3  2  0
  2  1  1  0
  4  3  1  0
  5  4  2  0
  6  5  1  0
  7  6  1  0
  7  8  1  6
  9  7  1  0
  9 10  2  0
 11  5  1  0
 11 12  2  0
 12  2  1  0
 13  9  1  0
 14 13  1  0
 14 15  1  1
 16 17  2  0
 16 15  1  0
 18 17  1  0
 19 18  2  0
 20 21  2  0
 20 19  1  0
 21 16  1  0
 22 14  1  0
 23 22  2  0
 24 22  1  0
 25 26  1  6
 25 24  1  0
 26 27  1  0
 27 28  2  0
 27 32  1  0
 28 29  1  0
 29 30  2  0
 31 30  1  0
 32 31  2  0
 33 25  1  0
 34 33  1  0
 35 33  2  0
M  END
$$$$
