YFF.pdb
     RDKit          3D

 35 37  0  0  1  0  0  0  0  0999 V2000
   30.1722  -30.1049  -20.9003 O   0  0  0  0  0  0  0  0  0  0  0  0
   29.5669  -29.2002  -20.0190 C   0  0  0  0  0  0  0  0  0  0  0  0
   28.6970  -28.2860  -20.5650 C   0  0  0  0  0  0  0  0  0  0  0  0
   28.0895  -27.3843  -19.7101 C   0  0  0  0  0  0  0  0  0  0  0  0
   28.3254  -27.3766  -18.3610 C   0  0  0  0  0  0  0  0  0  0  0  0
   27.6264  -26.3668  -17.5071 C   0  0  0  0  0  0  0  0  0  0  0  0
   28.5035  -25.1157  -17.4938 C   0  0  2  0  0  0  0  0  0  0  0  0
   29.4749  -25.2636  -16.4319 N   0  0  0  0  0  0  0  0  0  0  0  0
   27.6980  -23.8899  -17.3434 C   0  0  0  0  0  0  0  0  0  0  0  0
   27.5298  -23.3435  -16.2216 O   0  0  0  0  0  0  0  0  0  0  0  0
   29.1956  -28.2953  -17.8335 C   0  0  0  0  0  0  0  0  0  0  0  0
   29.8281  -29.2200  -18.6581 C   0  0  0  0  0  0  0  0  0  0  0  0
   27.0948  -23.3009  -18.4660 N   0  0  0  0  0  0  0  0  0  0  0  0
   26.3156  -22.0753  -18.4312 C   0  0  1  0  0  0  0  0  0  0  0  0
   27.0078  -21.0463  -19.2991 C   0  0  0  0  0  0  0  0  0  0  0  0
   27.9763  -20.2374  -18.5611 C   0  0  0  0  0  0  0  0  0  0  0  0
   29.2997  -20.5932  -18.4488 C   0  0  0  0  0  0  0  0  0  0  0  0
   30.2218  -19.8473  -17.7592 C   0  0  0  0  0  0  0  0  0  0  0  0
   29.8385  -18.6812  -17.1381 C   0  0  0  0  0  0  0  0  0  0  0  0
   28.5173  -18.2975  -17.2329 C   0  0  0  0  0  0  0  0  0  0  0  0
   27.5924  -19.0699  -17.9394 C   0  0  0  0  0  0  0  0  0  0  0  0
   24.9408  -22.3886  -18.8519 C   0  0  0  0  0  0  0  0  0  0  0  0
   24.7374  -22.9842  -19.9322 O   0  0  0  0  0  0  0  0  0  0  0  0
   23.8157  -22.0339  -18.0578 N   0  0  0  0  0  0  0  0  0  0  0  0
   22.4620  -22.3995  -18.4829 C   0  0  1  0  0  0  0  0  0  0  0  0
   22.1275  -23.7723  -17.9243 C   0  0  0  0  0  0  0  0  0  0  0  0
   22.0454  -23.7672  -16.4493 C   0  0  0  0  0  0  0  0  0  0  0  0
   23.1583  -23.7720  -15.6409 C   0  0  0  0  0  0  0  0  0  0  0  0
   23.0305  -23.7670  -14.2670 C   0  0  0  0  0  0  0  0  0  0  0  0
   21.8030  -23.7571  -13.6493 C   0  0  0  0  0  0  0  0  0  0  0  0
   20.6816  -23.7522  -14.4525 C   0  0  0  0  0  0  0  0  0  0  0  0
   20.8131  -23.7573  -15.8347 C   0  0  0  0  0  0  0  0  0  0  0  0
   21.4701  -21.3893  -18.0862 C   0  0  0  0  0  0  0  0  0  0  0  0
   20.1538  -21.5467  -18.4727 O   0  0  0  0  0  0  0  0  0  0  0  0
   21.7725  -20.3814  -17.4061 O   0  0  0  0  0  0  0  0  0  0  0  0
  2  3  2  0
  2  1  1  0
  4  3  1  0
  5  4  2  0
  6  5  1  0
  7  6  1  0
  7  8  1  1
  9  7  1  0
  9 10  2  0
 11  5  1  0
 11 12  2  0
 12  2  1  0
 13  9  1  0
 14 13  1  0
 14 15  1  6
 16 17  2  0
 16 15  1  0
 18 17  1  0
 19 18  2  0
 20 21  2  0
 20 19  1  0
 21 16  1  0
 22 14  1  0
 23 22  2  0
 24 22  1  0
 25 26  1  1
 25 24  1  0
 26 27  1  0
 27 28  2  0
 27 32  1  0
 28 29  1  0
 29 30  2  0
 31 30  1  0
 32 31  2  0
 33 25  1  0
 34 33  1  0
 35 33  2  0
M  END
$$$$
