YFF.pdb
     RDKit          3D

 35 37  0  0  1  0  0  0  0  0999 V2000
   21.0108  -17.7842  -16.6835 O   0  0  0  0  0  0  0  0  0  0  0  0
   21.6696  -18.2310  -15.5311 C   0  0  0  0  0  0  0  0  0  0  0  0
   20.8914  -18.7958  -14.5483 C   0  0  0  0  0  0  0  0  0  0  0  0
   21.5243  -19.2429  -13.4026 C   0  0  0  0  0  0  0  0  0  0  0  0
   22.8782  -19.1408  -13.2230 C   0  0  0  0  0  0  0  0  0  0  0  0
   23.4829  -19.6497  -11.9531 C   0  0  0  0  0  0  0  0  0  0  0  0
   24.4191  -20.7946  -12.3366 C   0  0  2  0  0  0  0  0  0  0  0  0
   23.6053  -21.9115  -12.7649 N   0  0  0  0  0  0  0  0  0  0  0  0
   25.3181  -21.1560  -11.2251 C   0  0  0  0  0  0  0  0  0  0  0  0
   24.9031  -21.7894  -10.2191 O   0  0  0  0  0  0  0  0  0  0  0  0
   23.6389  -18.5749  -14.2134 C   0  0  0  0  0  0  0  0  0  0  0  0
   23.0422  -18.1123  -15.3817 C   0  0  0  0  0  0  0  0  0  0  0  0
   26.6740  -20.7946  -11.2694 N   0  0  0  0  0  0  0  0  0  0  0  0
   27.6295  -21.0597  -10.2078 C   0  0  1  0  0  0  0  0  0  0  0  0
   29.0249  -20.9332  -10.7807 C   0  0  0  0  0  0  0  0  0  0  0  0
   30.0716  -21.1924   -9.7937 C   0  0  0  0  0  0  0  0  0  0  0  0
   30.4801  -20.2431   -8.8867 C   0  0  0  0  0  0  0  0  0  0  0  0
   31.4615  -20.4682   -7.9549 C   0  0  0  0  0  0  0  0  0  0  0  0
   32.0884  -21.6914   -7.8968 C   0  0  0  0  0  0  0  0  0  0  0  0
   31.7004  -22.6645   -8.7937 C   0  0  0  0  0  0  0  0  0  0  0  0
   30.6991  -22.4171   -9.7357 C   0  0  0  0  0  0  0  0  0  0  0  0
   27.3518  -20.1388   -9.0942 C   0  0  0  0  0  0  0  0  0  0  0  0
   26.8070  -19.0354   -9.3159 O   0  0  0  0  0  0  0  0  0  0  0  0
   27.6846  -20.4664   -7.7510 N   0  0  0  0  0  0  0  0  0  0  0  0
   27.6564  -19.4384   -6.7073 C   0  0  1  0  0  0  0  0  0  0  0  0
   26.3383  -19.5374   -5.9582 C   0  0  0  0  0  0  0  0  0  0  0  0
   26.2139  -20.8100   -5.2182 C   0  0  0  0  0  0  0  0  0  0  0  0
   26.8545  -21.0429   -4.0233 C   0  0  0  0  0  0  0  0  0  0  0  0
   26.7073  -22.2488   -3.3691 C   0  0  0  0  0  0  0  0  0  0  0  0
   25.9251  -23.2603   -3.8724 C   0  0  0  0  0  0  0  0  0  0  0  0
   25.2791  -23.0352   -5.0702 C   0  0  0  0  0  0  0  0  0  0  0  0
   25.4289  -21.8208   -5.7264 C   0  0  0  0  0  0  0  0  0  0  0  0
   28.8107  -19.5424   -5.8027 C   0  0  0  0  0  0  0  0  0  0  0  0
   29.0593  -18.5231   -4.9047 O   0  0  0  0  0  0  0  0  0  0  0  0
   29.5862  -20.5264   -5.8131 O   0  0  0  0  0  0  0  0  0  0  0  0
  2  3  2  0
  2  1  1  0
  4  3  1  0
  5  4  2  0
  6  5  1  0
  7  6  1  0
  7  8  1  1
  9  7  1  0
  9 10  2  0
 11  5  1  0
 11 12  2  0
 12  2  1  0
 13  9  1  0
 14 13  1  0
 14 15  1  6
 16 17  2  0
 16 15  1  0
 18 17  1  0
 19 18  2  0
 20 21  2  0
 20 19  1  0
 21 16  1  0
 22 14  1  0
 23 22  2  0
 24 22  1  0
 25 26  1  1
 25 24  1  0
 26 27  1  0
 27 28  2  0
 27 32  1  0
 28 29  1  0
 29 30  2  0
 31 30  1  0
 32 31  2  0
 33 25  1  0
 34 33  1  0
 35 33  2  0
M  END
$$$$
