YFF.pdb
     RDKit          3D

 35 37  0  0  1  0  0  0  0  0999 V2000
   11.6860  -23.0357    3.7185 O   0  0  0  0  0  0  0  0  0  0  0  0
   12.8798  -22.3538    3.9860 C   0  0  0  0  0  0  0  0  0  0  0  0
   12.7797  -21.1728    4.6830 C   0  0  0  0  0  0  0  0  0  0  0  0
   13.9482  -20.4852    4.9566 C   0  0  0  0  0  0  0  0  0  0  0  0
   15.1782  -20.9386    4.5605 C   0  0  0  0  0  0  0  0  0  0  0  0
   16.3926  -20.1330    4.8976 C   0  0  0  0  0  0  0  0  0  0  0  0
   16.3706  -18.9007    3.9946 C   0  0  2  0  0  0  0  0  0  0  0  0
   16.4564  -19.3518    2.6226 N   0  0  0  0  0  0  0  0  0  0  0  0
   17.4503  -17.9571    4.3379 C   0  0  0  0  0  0  0  0  0  0  0  0
   18.6124  -18.0843    3.8700 O   0  0  0  0  0  0  0  0  0  0  0  0
   15.2595  -22.1181    3.8663 C   0  0  0  0  0  0  0  0  0  0  0  0
   14.1086  -22.8412    3.5702 C   0  0  0  0  0  0  0  0  0  0  0  0
   17.1980  -16.8831    5.2061 N   0  0  0  0  0  0  0  0  0  0  0  0
   18.1822  -15.8832    5.5831 C   0  0  1  0  0  0  0  0  0  0  0  0
   17.4853  -14.5431    5.6825 C   0  0  0  0  0  0  0  0  0  0  0  0
   18.3910  -13.4559    6.0495 C   0  0  0  0  0  0  0  0  0  0  0  0
   19.1024  -12.7424    5.1140 C   0  0  0  0  0  0  0  0  0  0  0  0
   19.9576  -11.7204    5.4402 C   0  0  0  0  0  0  0  0  0  0  0  0
   20.1359  -11.3658    6.7574 C   0  0  0  0  0  0  0  0  0  0  0  0
   19.4358  -12.0632    7.7194 C   0  0  0  0  0  0  0  0  0  0  0  0
   18.5693  -13.1010    7.3683 C   0  0  0  0  0  0  0  0  0  0  0  0
   18.8290  -16.3177    6.8313 C   0  0  0  0  0  0  0  0  0  0  0  0
   18.1598  -16.8985    7.7134 O   0  0  0  0  0  0  0  0  0  0  0  0
   20.2133  -16.0990    7.0726 N   0  0  0  0  0  0  0  0  0  0  0  0
   20.8242  -16.5293    8.3330 C   0  0  1  0  0  0  0  0  0  0  0  0
   21.9745  -17.4721    8.0226 C   0  0  0  0  0  0  0  0  0  0  0  0
   21.5023  -18.8232    7.6564 C   0  0  0  0  0  0  0  0  0  0  0  0
   21.6370  -19.3417    6.3894 C   0  0  0  0  0  0  0  0  0  0  0  0
   21.1796  -20.6099    6.0955 C   0  0  0  0  0  0  0  0  0  0  0  0
   20.5765  -21.4043    7.0407 C   0  0  0  0  0  0  0  0  0  0  0  0
   20.4373  -20.8922    8.3139 C   0  0  0  0  0  0  0  0  0  0  0  0
   20.8984  -19.6158    8.6069 C   0  0  0  0  0  0  0  0  0  0  0  0
   21.2566  -15.3872    9.1517 C   0  0  0  0  0  0  0  0  0  0  0  0
   21.2810  -15.5125   10.5268 O   0  0  0  0  0  0  0  0  0  0  0  0
   21.6065  -14.2942    8.6491 O   0  0  0  0  0  0  0  0  0  0  0  0
  2  3  2  0
  2  1  1  0
  4  3  1  0
  5  4  2  0
  6  5  1  0
  7  6  1  0
  7  8  1  6
  9  7  1  0
  9 10  2  0
 11  5  1  0
 11 12  2  0
 12  2  1  0
 13  9  1  0
 14 13  1  0
 14 15  1  1
 16 17  2  0
 16 15  1  0
 18 17  1  0
 19 18  2  0
 20 21  2  0
 20 19  1  0
 21 16  1  0
 22 14  1  0
 23 22  2  0
 24 22  1  0
 25 26  1  6
 25 24  1  0
 26 27  1  0
 27 28  2  0
 27 32  1  0
 28 29  1  0
 29 30  2  0
 31 30  1  0
 32 31  2  0
 33 25  1  0
 34 33  1  0
 35 33  2  0
M  END
$$$$
