VVN.pdb
     RDKit          3D

 23 22  0  0  1  0  0  0  0  0999 V2000
    8.0833  -16.4358   21.0678 C   0  0  0  0  0  0  0  0  0  0  0  0
    6.8941  -15.5370   21.0573 C   0  0  2  0  0  0  0  0  0  0  0  0
    6.1621  -15.6988   19.7418 C   0  0  0  0  0  0  0  0  0  0  0  0
    7.1971  -14.0993   21.3413 C   0  0  2  0  0  0  0  0  0  0  0  0
    7.9593  -13.5809   20.2240 N   0  0  0  0  0  0  0  0  0  0  0  0
    7.9103  -13.8464   22.5799 C   0  0  0  0  0  0  0  0  0  0  0  0
    9.1595  -13.7551   22.6996 O   0  0  0  0  0  0  0  0  0  0  0  0
    6.4943  -11.5160   25.5151 C   0  0  0  0  0  0  0  0  0  0  0  0
    6.8803  -12.8605   26.0068 C   0  0  2  0  0  0  0  0  0  0  0  0
    7.5384  -12.7497   27.3818 C   0  0  0  0  0  0  0  0  0  0  0  0
    7.8412  -13.5399   25.0863 C   0  0  2  0  0  0  0  0  0  0  0  0
    7.1679  -13.6826   23.7805 N   0  0  0  0  0  0  0  0  0  0  0  0
    8.2120  -14.8913   25.5132 C   0  0  0  0  0  0  0  0  0  0  0  0
    7.3325  -15.8202   25.5949 O   0  0  0  0  0  0  0  0  0  0  0  0
   10.7777  -17.6815   23.5152 N   0  0  0  0  0  0  0  0  0  0  0  0
   11.4595  -16.7908   24.3775 C   0  0  0  0  0  0  0  0  0  0  0  0
   12.2157  -15.9293   23.8684 O   0  0  0  0  0  0  0  0  0  0  0  0
   11.2769  -16.8834   25.8392 C   0  0  0  0  0  0  0  0  0  0  0  0
    9.8258  -16.6264   26.2446 C   0  0  2  0  0  0  0  0  0  0  0  0
    9.5264  -15.2403   25.8461 N   0  0  0  0  0  0  0  0  0  0  0  0
    9.6800  -16.7167   27.7070 C   0  0  0  0  0  0  0  0  0  0  0  0
    9.4630  -17.9487   28.3243 O   0  0  0  0  0  0  0  0  0  0  0  0
    9.7392  -15.7204   28.4676 O   0  0  0  0  0  0  0  0  0  0  0  0
  2  1  1  6
  2  3  1  0
  2  4  1  0
  4  6  1  0
  4  5  1  6
  6 12  1  0
  6  7  2  0
  9  8  1  6
  9 11  1  0
 10  9  1  0
 11 13  1  0
 11 12  1  6
 13 14  2  0
 15 16  1  0
 16 17  2  0
 18 16  1  0
 19 18  1  1
 19 21  1  0
 20 13  1  0
 20 19  1  0
 21 22  1  0
 23 21  2  0
M  END
$$$$
