VVN.pdb
     RDKit          3D

 23 22  0  0  1  0  0  0  0  0999 V2000
    7.6912  -12.0497   20.6292 C   0  0  0  0  0  0  0  0  0  0  0  0
    8.0881  -13.3694   20.0608 C   0  0  2  0  0  0  0  0  0  0  0  0
    7.3747  -13.5756   18.7413 C   0  0  0  0  0  0  0  0  0  0  0  0
    7.8827  -14.5315   20.9810 C   0  0  2  0  0  0  0  0  0  0  0  0
    6.4592  -14.7900   21.0525 N   0  0  0  0  0  0  0  0  0  0  0  0
    8.4184  -14.3675   22.3199 C   0  0  0  0  0  0  0  0  0  0  0  0
    9.6282  -14.1726   22.6054 O   0  0  0  0  0  0  0  0  0  0  0  0
    6.4718  -12.2735   24.9692 C   0  0  0  0  0  0  0  0  0  0  0  0
    6.8856  -13.5672   25.5639 C   0  0  2  0  0  0  0  0  0  0  0  0
    7.3443  -13.3608   27.0071 C   0  0  0  0  0  0  0  0  0  0  0  0
    8.0077  -14.1994   24.8067 C   0  0  2  0  0  0  0  0  0  0  0  0
    7.5309  -14.4260   23.4282 N   0  0  0  0  0  0  0  0  0  0  0  0
    8.4084  -15.5081   25.3290 C   0  0  0  0  0  0  0  0  0  0  0  0
    7.5645  -16.4691   25.4141 O   0  0  0  0  0  0  0  0  0  0  0  0
   12.3826  -19.6805   24.8597 N   0  0  0  0  0  0  0  0  0  0  0  0
   11.9611  -18.7582   25.8463 C   0  0  0  0  0  0  0  0  0  0  0  0
   12.0587  -19.0886   27.0524 O   0  0  0  0  0  0  0  0  0  0  0  0
   11.4212  -17.4420   25.4530 C   0  0  0  0  0  0  0  0  0  0  0  0
   10.0794  -17.1574   26.1272 C   0  0  2  0  0  0  0  0  0  0  0  0
    9.7147  -15.7802   25.7531 N   0  0  0  0  0  0  0  0  0  0  0  0
   10.2233  -17.2038   27.5919 C   0  0  0  0  0  0  0  0  0  0  0  0
    9.9810  -18.3857   28.2922 O   0  0  0  0  0  0  0  0  0  0  0  0
   10.5620  -16.2122   28.2821 O   0  0  0  0  0  0  0  0  0  0  0  0
  2  1  1  1
  2  3  1  0
  2  4  1  0
  4  6  1  0
  4  5  1  1
  6 12  1  0
  6  7  2  0
  9  8  1  6
  9 11  1  0
 10  9  1  0
 11 13  1  0
 11 12  1  6
 13 14  2  0
 15 16  1  0
 16 17  2  0
 18 16  1  0
 19 18  1  6
 19 21  1  0
 20 13  1  0
 20 19  1  0
 21 22  1  0
 23 21  2  0
M  END
$$$$
