VVN.pdb
     RDKit          3D

 23 22  0  0  1  0  0  0  0  0999 V2000
    7.6516  -16.9014   21.2140 C   0  0  0  0  0  0  0  0  0  0  0  0
    6.5211  -15.9303   21.2452 C   0  0  2  0  0  0  0  0  0  0  0  0
    5.6724  -16.1175   20.0054 C   0  0  0  0  0  0  0  0  0  0  0  0
    6.9315  -14.5013   21.4164 C   0  0  2  0  0  0  0  0  0  0  0  0
    7.6625  -14.1081   20.2292 N   0  0  0  0  0  0  0  0  0  0  0  0
    7.7271  -14.2194   22.5971 C   0  0  0  0  0  0  0  0  0  0  0  0
    8.9842  -14.2234   22.6507 O   0  0  0  0  0  0  0  0  0  0  0  0
    6.4681  -11.6887   25.5383 C   0  0  0  0  0  0  0  0  0  0  0  0
    6.8984  -13.0202   26.0285 C   0  0  2  0  0  0  0  0  0  0  0  0
    7.6278  -12.8793   27.3642 C   0  0  0  0  0  0  0  0  0  0  0  0
    7.8177  -13.7015   25.0678 C   0  0  2  0  0  0  0  0  0  0  0  0
    7.0647  -13.9082   23.8152 N   0  0  0  0  0  0  0  0  0  0  0  0
    8.2588  -15.0260   25.5116 C   0  0  0  0  0  0  0  0  0  0  0  0
    7.4241  -15.9913   25.6325 O   0  0  0  0  0  0  0  0  0  0  0  0
   13.1199  -18.4943   25.9357 N   0  0  0  0  0  0  0  0  0  0  0  0
   11.7632  -18.3368   25.5663 C   0  0  0  0  0  0  0  0  0  0  0  0
   11.0439  -19.3613   25.4867 O   0  0  0  0  0  0  0  0  0  0  0  0
   11.2194  -16.9941   25.2840 C   0  0  0  0  0  0  0  0  0  0  0  0
    9.9848  -16.6945   26.1337 C   0  0  2  0  0  0  0  0  0  0  0  0
    9.5950  -15.3093   25.8193 N   0  0  0  0  0  0  0  0  0  0  0  0
   10.3230  -16.7539   27.5655 C   0  0  0  0  0  0  0  0  0  0  0  0
   10.7730  -15.6168   28.2367 O   0  0  0  0  0  0  0  0  0  0  0  0
   10.2314  -17.8004   28.2517 O   0  0  0  0  0  0  0  0  0  0  0  0
  2  1  1  6
  2  3  1  0
  2  4  1  0
  4  6  1  0
  4  5  1  6
  6 12  1  0
  6  7  2  0
  9  8  1  6
  9 11  1  0
 10  9  1  0
 11 13  1  0
 11 12  1  6
 13 14  2  0
 15 16  1  0
 16 17  2  0
 18 16  1  0
 19 18  1  6
 19 21  1  0
 20 13  1  0
 20 19  1  0
 21 22  1  0
 23 21  2  0
M  END
$$$$
