VVN.pdb
     RDKit          3D

 23 22  0  0  1  0  0  0  0  0999 V2000
    7.4831  -16.9622   21.7227 C   0  0  0  0  0  0  0  0  0  0  0  0
    6.4874  -15.8573   21.6234 C   0  0  2  0  0  0  0  0  0  0  0  0
    5.7036  -16.0104   20.3370 C   0  0  0  0  0  0  0  0  0  0  0  0
    7.0664  -14.4833   21.7507 C   0  0  2  0  0  0  0  0  0  0  0  0
    7.7957  -14.1983   20.5319 N   0  0  0  0  0  0  0  0  0  0  0  0
    7.9306  -14.2759   22.8982 C   0  0  0  0  0  0  0  0  0  0  0  0
    9.1844  -14.3813   22.8988 O   0  0  0  0  0  0  0  0  0  0  0  0
    6.0265  -13.3953   26.5215 C   0  0  0  0  0  0  0  0  0  0  0  0
    7.3816  -12.8446   26.2781 C   0  0  2  0  0  0  0  0  0  0  0  0
    7.2804  -11.4464   25.6693 C   0  0  0  0  0  0  0  0  0  0  0  0
    8.1756  -13.7001   25.3455 C   0  0  2  0  0  0  0  0  0  0  0  0
    7.3466  -13.9224   24.1446 N   0  0  0  0  0  0  0  0  0  0  0  0
    8.4912  -15.0252   25.8845 C   0  0  0  0  0  0  0  0  0  0  0  0
    7.6502  -15.9886   25.7971 O   0  0  0  0  0  0  0  0  0  0  0  0
   11.9774  -19.1768   25.1966 N   0  0  0  0  0  0  0  0  0  0  0  0
   12.0539  -18.1998   26.2171 C   0  0  0  0  0  0  0  0  0  0  0  0
   12.6212  -18.5046   27.2934 O   0  0  0  0  0  0  0  0  0  0  0  0
   11.4761  -16.8578   26.0079 C   0  0  0  0  0  0  0  0  0  0  0  0
   10.1166  -16.7153   26.6916 C   0  0  2  0  0  0  0  0  0  0  0  0
    9.7103  -15.3110   26.5110 N   0  0  0  0  0  0  0  0  0  0  0  0
   10.2427  -16.9658   28.1371 C   0  0  0  0  0  0  0  0  0  0  0  0
   10.2456  -18.2692   28.6343 O   0  0  0  0  0  0  0  0  0  0  0  0
   10.3512  -16.0498   28.9877 O   0  0  0  0  0  0  0  0  0  0  0  0
  2  1  1  6
  2  3  1  0
  2  4  1  0
  4  6  1  0
  4  5  1  6
  6 12  1  0
  6  7  2  0
  9  8  1  6
  9 11  1  0
 10  9  1  0
 11 13  1  0
 11 12  1  6
 13 14  2  0
 15 16  1  0
 16 17  2  0
 18 16  1  0
 19 18  1  6
 19 21  1  0
 20 13  1  0
 20 19  1  0
 21 22  1  0
 23 21  2  0
M  END
$$$$
