VVN.pdb
     RDKit          3D

 23 22  0  0  1  0  0  0  0  0999 V2000
    8.2224  -17.1261   21.7519 C   0  0  0  0  0  0  0  0  0  0  0  0
    7.0565  -16.2229   21.5350 C   0  0  2  0  0  0  0  0  0  0  0  0
    6.4156  -16.5518   20.2032 C   0  0  0  0  0  0  0  0  0  0  0  0
    7.3697  -14.7637   21.6456 C   0  0  2  0  0  0  0  0  0  0  0  0
    8.2056  -14.4061   20.5179 N   0  0  0  0  0  0  0  0  0  0  0  0
    8.0140  -14.3573   22.8811 C   0  0  0  0  0  0  0  0  0  0  0  0
    9.2560  -14.3032   23.0753 O   0  0  0  0  0  0  0  0  0  0  0  0
    6.3168  -11.5874   25.3443 C   0  0  0  0  0  0  0  0  0  0  0  0
    6.7466  -12.8291   26.0313 C   0  0  2  0  0  0  0  0  0  0  0  0
    7.3026  -12.4995   27.4162 C   0  0  0  0  0  0  0  0  0  0  0  0
    7.8055  -13.5552   25.2672 C   0  0  2  0  0  0  0  0  0  0  0  0
    7.2056  -13.9814   23.9877 N   0  0  0  0  0  0  0  0  0  0  0  0
    8.2815  -14.7720   25.9296 C   0  0  0  0  0  0  0  0  0  0  0  0
    7.5198  -15.7956   26.0520 O   0  0  0  0  0  0  0  0  0  0  0  0
   13.1788  -17.8983   27.1416 N   0  0  0  0  0  0  0  0  0  0  0  0
   11.8223  -17.8521   26.7421 C   0  0  0  0  0  0  0  0  0  0  0  0
   11.1353  -18.8969   26.8412 O   0  0  0  0  0  0  0  0  0  0  0  0
   11.2412  -16.5986   26.2229 C   0  0  0  0  0  0  0  0  0  0  0  0
   10.0115  -16.1716   27.0239 C   0  0  2  0  0  0  0  0  0  0  0  0
    9.5749  -14.8857   26.4535 N   0  0  0  0  0  0  0  0  0  0  0  0
   10.3739  -15.9405   28.4322 C   0  0  0  0  0  0  0  0  0  0  0  0
   10.4122  -14.6467   28.9525 O   0  0  0  0  0  0  0  0  0  0  0  0
   10.6634  -16.8653   29.2293 O   0  0  0  0  0  0  0  0  0  0  0  0
  2  1  1  6
  2  3  1  0
  2  4  1  0
  4  6  1  0
  4  5  1  6
  6 12  1  0
  6  7  2  0
  9  8  1  6
  9 11  1  0
 10  9  1  0
 11 13  1  0
 11 12  1  6
 13 14  2  0
 15 16  1  0
 16 17  2  0
 18 16  1  0
 19 18  1  6
 19 21  1  0
 20 13  1  0
 20 19  1  0
 21 22  1  0
 23 21  2  0
M  END
$$$$
