VVN.pdb
     RDKit          3D

 23 22  0  0  1  0  0  0  0  0999 V2000
    6.6306  -16.1528   19.6580 C   0  0  0  0  0  0  0  0  0  0  0  0
    7.3661  -15.8315   20.9141 C   0  0  2  0  0  0  0  0  0  0  0  0
    6.9168  -16.7776   22.0075 C   0  0  0  0  0  0  0  0  0  0  0  0
    7.2616  -14.4035   21.3496 C   0  0  2  0  0  0  0  0  0  0  0  0
    7.7101  -13.5740   20.2500 N   0  0  0  0  0  0  0  0  0  0  0  0
    8.0002  -14.0639   22.5520 C   0  0  0  0  0  0  0  0  0  0  0  0
    9.2528  -13.9893   22.6450 O   0  0  0  0  0  0  0  0  0  0  0  0
    7.6029  -12.4450   27.2148 C   0  0  0  0  0  0  0  0  0  0  0  0
    7.0282  -12.7378   25.8797 C   0  0  2  0  0  0  0  0  0  0  0  0
    5.7539  -13.5689   26.0255 C   0  0  0  0  0  0  0  0  0  0  0  0
    7.9801  -13.4966   25.0134 C   0  0  2  0  0  0  0  0  0  0  0  0
    7.2813  -13.7854   23.7457 N   0  0  0  0  0  0  0  0  0  0  0  0
    8.3824  -14.7902   25.5710 C   0  0  0  0  0  0  0  0  0  0  0  0
    7.5578  -15.7702   25.6212 O   0  0  0  0  0  0  0  0  0  0  0  0
   13.0042  -18.0275   27.3079 N   0  0  0  0  0  0  0  0  0  0  0  0
   11.9221  -17.9841   26.3975 C   0  0  0  0  0  0  0  0  0  0  0  0
   11.4269  -19.0685   26.0074 O   0  0  0  0  0  0  0  0  0  0  0  0
   11.3975  -16.6877   25.9257 C   0  0  0  0  0  0  0  0  0  0  0  0
   10.0276  -16.3791   26.5292 C   0  0  2  0  0  0  0  0  0  0  0  0
    9.6698  -15.0268   26.0680 N   0  0  0  0  0  0  0  0  0  0  0  0
   10.1121  -16.3468   27.9989 C   0  0  0  0  0  0  0  0  0  0  0  0
   10.0537  -17.5274   28.7397 O   0  0  0  0  0  0  0  0  0  0  0  0
   10.2374  -15.2865   28.6581 O   0  0  0  0  0  0  0  0  0  0  0  0
  2  1  1  6
  2  3  1  0
  2  4  1  0
  4  6  1  0
  4  5  1  6
  6 12  1  0
  6  7  2  0
  9  8  1  1
  9 11  1  0
 10  9  1  0
 11 13  1  0
 11 12  1  6
 13 14  2  0
 15 16  1  0
 16 17  2  0
 18 16  1  0
 19 18  1  6
 19 21  1  0
 20 13  1  0
 20 19  1  0
 21 22  1  0
 23 21  2  0
M  END
$$$$
