VVN.pdb
     RDKit          3D

 23 22  0  0  1  0  0  0  0  0999 V2000
    5.8789  -20.3541   23.3661 C   0  0  0  0  0  0  0  0  0  0  0  0
    6.7359  -19.2974   23.9751 C   0  0  2  0  0  0  0  0  0  0  0  0
    6.6725  -19.4159   25.4833 C   0  0  0  0  0  0  0  0  0  0  0  0
    6.4253  -17.9053   23.5224 C   0  0  2  0  0  0  0  0  0  0  0  0
    6.5043  -17.8848   22.0761 N   0  0  0  0  0  0  0  0  0  0  0  0
    7.2762  -16.8669   24.0740 C   0  0  0  0  0  0  0  0  0  0  0  0
    8.4931  -16.6970   23.8026 O   0  0  0  0  0  0  0  0  0  0  0  0
    6.0997  -13.1260   24.8665 C   0  0  0  0  0  0  0  0  0  0  0  0
    6.6742  -13.7993   26.0561 C   0  0  2  0  0  0  0  0  0  0  0  0
    7.4958  -12.8066   26.8778 C   0  0  0  0  0  0  0  0  0  0  0  0
    7.5643  -14.9390   25.6804 C   0  0  2  0  0  0  0  0  0  0  0  0
    6.7229  -15.9450   25.0031 N   0  0  0  0  0  0  0  0  0  0  0  0
    8.1763  -15.6128   26.8282 C   0  0  0  0  0  0  0  0  0  0  0  0
    7.7337  -16.7428   27.2407 O   0  0  0  0  0  0  0  0  0  0  0  0
   12.0838  -17.7425   29.1795 N   0  0  0  0  0  0  0  0  0  0  0  0
   12.1050  -17.4797   27.7894 C   0  0  0  0  0  0  0  0  0  0  0  0
   12.9655  -18.0606   27.0856 O   0  0  0  0  0  0  0  0  0  0  0  0
   11.1327  -16.5425   27.1939 C   0  0  0  0  0  0  0  0  0  0  0  0
   10.1794  -15.9741   28.2447 C   0  0  2  0  0  0  0  0  0  0  0  0
    9.2639  -15.0723   27.5249 N   0  0  0  0  0  0  0  0  0  0  0  0
   10.9237  -15.1699   29.2283 C   0  0  0  0  0  0  0  0  0  0  0  0
   11.2487  -15.6986   30.4777 O   0  0  0  0  0  0  0  0  0  0  0  0
   11.3007  -13.9929   29.0114 O   0  0  0  0  0  0  0  0  0  0  0  0
  2  1  1  6
  2  3  1  0
  2  4  1  0
  4  6  1  0
  4  5  1  6
  6 12  1  0
  6  7  2  0
  9  8  1  6
  9 11  1  0
 10  9  1  0
 11 13  1  0
 11 12  1  1
 13 14  2  0
 15 16  1  0
 16 17  2  0
 18 16  1  0
 19 18  1  6
 19 21  1  0
 20 13  1  0
 20 19  1  0
 21 22  1  0
 23 21  2  0
M  END
$$$$
