VVN.pdb
     RDKit          3D

 23 22  0  0  1  0  0  0  0  0999 V2000
    8.3847  -17.0318   21.8492 C   0  0  0  0  0  0  0  0  0  0  0  0
    7.1192  -16.2503   21.7497 C   0  0  2  0  0  0  0  0  0  0  0  0
    6.3765  -16.6666   20.4977 C   0  0  0  0  0  0  0  0  0  0  0  0
    7.2970  -14.7657   21.8119 C   0  0  2  0  0  0  0  0  0  0  0  0
    7.9923  -14.3549   20.6093 N   0  0  0  0  0  0  0  0  0  0  0  0
    8.0043  -14.2719   22.9792 C   0  0  0  0  0  0  0  0  0  0  0  0
    9.2420  -14.0562   23.0481 O   0  0  0  0  0  0  0  0  0  0  0  0
    6.4219  -11.7124   25.6418 C   0  0  0  0  0  0  0  0  0  0  0  0
    6.9474  -12.9411   26.2844 C   0  0  2  0  0  0  0  0  0  0  0  0
    7.6211  -12.5944   27.6117 C   0  0  0  0  0  0  0  0  0  0  0  0
    7.9498  -13.6393   25.4241 C   0  0  2  0  0  0  0  0  0  0  0  0
    7.2694  -13.9973   24.1640 N   0  0  0  0  0  0  0  0  0  0  0  0
    8.4494  -14.8912   25.9976 C   0  0  0  0  0  0  0  0  0  0  0  0
    7.6590  -15.8763   26.2165 O   0  0  0  0  0  0  0  0  0  0  0  0
   12.2940  -15.8853   24.1883 N   0  0  0  0  0  0  0  0  0  0  0  0
   11.5774  -16.8039   24.9910 C   0  0  0  0  0  0  0  0  0  0  0  0
   10.9399  -17.7223   24.4222 O   0  0  0  0  0  0  0  0  0  0  0  0
   11.5878  -16.6741   26.4612 C   0  0  0  0  0  0  0  0  0  0  0  0
   10.2037  -16.3240   27.0071 C   0  0  2  0  0  0  0  0  0  0  0  0
    9.7963  -15.0813   26.3293 N   0  0  0  0  0  0  0  0  0  0  0  0
   10.2791  -16.0462   28.4511 C   0  0  0  0  0  0  0  0  0  0  0  0
   10.1853  -14.7388   28.9286 O   0  0  0  0  0  0  0  0  0  0  0  0
   10.4291  -16.9414   29.3175 O   0  0  0  0  0  0  0  0  0  0  0  0
  2  1  1  6
  2  3  1  0
  2  4  1  0
  4  6  1  0
  4  5  1  6
  6 12  1  0
  6  7  2  0
  9  8  1  6
  9 11  1  0
 10  9  1  0
 11 13  1  0
 11 12  1  6
 13 14  2  0
 15 16  1  0
 16 17  2  0
 18 16  1  0
 19 18  1  6
 19 21  1  0
 20 13  1  0
 20 19  1  0
 21 22  1  0
 23 21  2  0
M  END
$$$$
