VVN.pdb
     RDKit          3D

 23 22  0  0  1  0  0  0  0  0999 V2000
    6.6440  -20.6149   23.1323 C   0  0  0  0  0  0  0  0  0  0  0  0
    5.4838  -19.6807   23.0739 C   0  0  2  0  0  0  0  0  0  0  0  0
    4.2000  -20.4834   23.0872 C   0  0  0  0  0  0  0  0  0  0  0  0
    5.5154  -18.7186   21.9281 C   0  0  2  0  0  0  0  0  0  0  0  0
    5.1915  -19.4567   20.7245 N   0  0  0  0  0  0  0  0  0  0  0  0
    6.7684  -18.0094   21.7453 C   0  0  0  0  0  0  0  0  0  0  0  0
    7.7788  -18.4526   21.1404 O   0  0  0  0  0  0  0  0  0  0  0  0
    7.2092  -14.0209   23.3722 C   0  0  0  0  0  0  0  0  0  0  0  0
    7.8024  -14.4929   22.0979 C   0  0  2  0  0  0  0  0  0  0  0  0
    6.8141  -14.2903   20.9499 C   0  0  0  0  0  0  0  0  0  0  0  0
    8.1624  -15.9420   22.1496 C   0  0  2  0  0  0  0  0  0  0  0  0
    6.9029  -16.7002   22.2814 N   0  0  0  0  0  0  0  0  0  0  0  0
    8.9888  -16.3038   23.3038 C   0  0  0  0  0  0  0  0  0  0  0  0
    8.4679  -16.8453   24.3422 O   0  0  0  0  0  0  0  0  0  0  0  0
   12.0389  -19.8231   24.8189 N   0  0  0  0  0  0  0  0  0  0  0  0
   12.0600  -19.4137   23.4648 C   0  0  0  0  0  0  0  0  0  0  0  0
   12.8409  -19.9989   22.6767 O   0  0  0  0  0  0  0  0  0  0  0  0
   11.1794  -18.3229   23.0030 C   0  0  0  0  0  0  0  0  0  0  0  0
   11.2488  -17.1099   23.9303 C   0  0  2  0  0  0  0  0  0  0  0  0
   10.3716  -16.0867   23.3358 N   0  0  0  0  0  0  0  0  0  0  0  0
   12.6174  -16.5678   23.9612 C   0  0  0  0  0  0  0  0  0  0  0  0
   13.4510  -16.8058   25.0542 O   0  0  0  0  0  0  0  0  0  0  0  0
   13.1055  -15.8772   23.0342 O   0  0  0  0  0  0  0  0  0  0  0  0
  2  1  1  6
  2  3  1  0
  2  4  1  0
  4  6  1  0
  4  5  1  6
  6 12  1  0
  6  7  2  0
  9  8  1  1
  9 11  1  0
 10  9  1  0
 11 13  1  0
 11 12  1  1
 13 14  2  0
 15 16  1  0
 16 17  2  0
 18 16  1  0
 19 18  1  6
 19 21  1  0
 20 13  1  0
 20 19  1  0
 21 22  1  0
 23 21  2  0
M  END
$$$$
