EAI.pdb
     RDKit          3D

 23 22  0  0  1  0  0  0  0  0999 V2000
   10.4714  -17.2469   19.1354 N   0  0  0  0  0  0  0  0  0  0  0  0
    9.6811  -16.0565   19.2607 C   0  0  1  0  0  0  0  0  0  0  0  0
    8.7504  -15.9189   18.1079 C   0  0  0  0  0  0  0  0  0  0  0  0
    8.1166  -17.1534   17.5973 C   0  0  0  0  0  0  0  0  0  0  0  0
    7.2679  -17.0293   16.4135 C   0  0  0  0  0  0  0  0  0  0  0  0
    7.2611  -15.8856   15.8398 O   0  0  0  0  0  0  0  0  0  0  0  0
    8.9421  -16.0782   20.5495 C   0  0  0  0  0  0  0  0  0  0  0  0
    8.2630  -15.0249   20.8340 O   0  0  0  0  0  0  0  0  0  0  0  0
    6.4798  -17.9885   15.8393 O   0  0  0  0  0  0  0  0  0  0  0  0
    7.8736  -18.3986   23.2385 C   0  0  0  0  0  0  0  0  0  0  0  0
    8.0814  -17.0198   22.6662 C   0  0  2  0  0  0  0  0  0  0  0  0
    8.9142  -17.1257   21.4794 N   0  0  0  0  0  0  0  0  0  0  0  0
    8.6701  -16.0803   23.6583 C   0  0  0  0  0  0  0  0  0  0  0  0
    9.9021  -15.9067   23.6423 O   0  0  0  0  0  0  0  0  0  0  0  0
    7.0301  -11.2112   27.0955 C   0  0  0  0  0  0  0  0  0  0  0  0
    7.9999  -12.2880   26.7616 C   0  0  0  0  0  0  0  0  0  0  0  0
    7.5186  -13.4000   25.9144 C   0  0  2  0  0  0  0  0  0  0  0  0
    6.0845  -13.8094   26.1772 C   0  0  0  0  0  0  0  0  0  0  0  0
    8.4578  -14.5272   25.6627 C   0  0  2  0  0  0  0  0  0  0  0  0
    7.9026  -15.3802   24.6121 N   0  0  0  0  0  0  0  0  0  0  0  0
    8.9153  -15.3001   26.8071 C   0  0  0  0  0  0  0  0  0  0  0  0
    8.3489  -16.4070   27.1349 O   0  0  0  0  0  0  0  0  0  0  0  0
    9.9657  -14.9548   27.6360 O   0  0  0  0  0  0  0  0  0  0  0  0
  2  3  1  0
  2  1  1  6
  4  5  1  0
  4  3  1  0
  5  6  2  0
  7  2  1  0
  8  7  2  0
  9  5  1  0
 11 10  1  1
 11 12  1  0
 12  7  1  0
 13 11  1  0
 13 20  1  0
 14 13  2  0
 16 15  1  0
 17 18  1  1
 17 16  1  0
 19 20  1  6
 19 17  1  0
 21 23  1  0
 21 19  1  0
 22 21  2  0
M  END
$$$$
