EAI.pdb
     RDKit          3D

 23 22  0  0  1  0  0  0  0  0999 V2000
    6.8833  -20.1892   22.5986 N   0  0  0  0  0  0  0  0  0  0  0  0
    6.3601  -18.9986   23.2038 C   0  0  1  0  0  0  0  0  0  0  0  0
    6.4222  -19.0916   24.6875 C   0  0  0  0  0  0  0  0  0  0  0  0
    7.7032  -19.5235   25.2867 C   0  0  0  0  0  0  0  0  0  0  0  0
    7.7726  -19.5837   26.7457 C   0  0  0  0  0  0  0  0  0  0  0  0
    8.8388  -19.1209   27.2808 O   0  0  0  0  0  0  0  0  0  0  0  0
    7.1063  -17.8138   22.7070 C   0  0  0  0  0  0  0  0  0  0  0  0
    8.3602  -17.9838   22.4826 O   0  0  0  0  0  0  0  0  0  0  0  0
    6.8345  -20.0724   27.6129 O   0  0  0  0  0  0  0  0  0  0  0  0
    6.6080  -14.4550   21.2549 C   0  0  0  0  0  0  0  0  0  0  0  0
    7.4490  -15.4787   21.9733 C   0  0  2  0  0  0  0  0  0  0  0  0
    6.5818  -16.5379   22.4625 N   0  0  0  0  0  0  0  0  0  0  0  0
    8.2464  -14.8792   23.0770 C   0  0  0  0  0  0  0  0  0  0  0  0
    9.0797  -14.0013   22.7887 O   0  0  0  0  0  0  0  0  0  0  0  0
    5.3966  -12.8385   26.4943 C   0  0  0  0  0  0  0  0  0  0  0  0
    6.5310  -13.3311   25.6687 C   0  0  0  0  0  0  0  0  0  0  0  0
    7.6854  -13.9211   26.3795 C   0  0  2  0  0  0  0  0  0  0  0  0
    8.2011  -13.0866   27.5332 C   0  0  0  0  0  0  0  0  0  0  0  0
    8.7397  -14.5721   25.5544 C   0  0  2  0  0  0  0  0  0  0  0  0
    8.1043  -15.2564   24.4285 N   0  0  0  0  0  0  0  0  0  0  0  0
    9.7069  -15.4213   26.2326 C   0  0  0  0  0  0  0  0  0  0  0  0
    9.4733  -16.6694   26.4354 O   0  0  0  0  0  0  0  0  0  0  0  0
   10.9348  -15.0079   26.7130 O   0  0  0  0  0  0  0  0  0  0  0  0
  2  3  1  0
  2  1  1  6
  4  5  1  0
  4  3  1  0
  5  6  2  0
  7  2  1  0
  8  7  2  0
  9  5  1  0
 11 10  1  1
 11 12  1  0
 12  7  1  0
 13 11  1  0
 13 20  1  0
 14 13  2  0
 16 15  1  0
 17 18  1  6
 17 16  1  0
 19 20  1  6
 19 17  1  0
 21 23  1  0
 21 19  1  0
 22 21  2  0
M  END
$$$$
