EAI.pdb
     RDKit          3D

 23 22  0  0  1  0  0  0  0  0999 V2000
    8.9876  -13.3221   18.7453 N   0  0  0  0  0  0  0  0  0  0  0  0
    9.2647  -14.6549   19.1974 C   0  0  1  0  0  0  0  0  0  0  0  0
   10.7276  -14.8542   19.3826 C   0  0  0  0  0  0  0  0  0  0  0  0
   11.6273  -13.8115   18.8444 C   0  0  0  0  0  0  0  0  0  0  0  0
   13.0648  -14.0152   19.0151 C   0  0  0  0  0  0  0  0  0  0  0  0
   13.8230  -13.0716   18.6003 O   0  0  0  0  0  0  0  0  0  0  0  0
    8.5213  -14.9227   20.4556 C   0  0  0  0  0  0  0  0  0  0  0  0
    8.0711  -13.8940   21.0806 O   0  0  0  0  0  0  0  0  0  0  0  0
   13.7019  -15.0918   19.5681 O   0  0  0  0  0  0  0  0  0  0  0  0
    6.9723  -17.7092   22.3575 C   0  0  0  0  0  0  0  0  0  0  0  0
    7.4259  -16.2799   22.2067 C   0  0  2  0  0  0  0  0  0  0  0  0
    8.2662  -16.1771   21.0249 N   0  0  0  0  0  0  0  0  0  0  0  0
    8.1321  -15.7816   23.4176 C   0  0  0  0  0  0  0  0  0  0  0  0
    9.3763  -15.8007   23.4205 O   0  0  0  0  0  0  0  0  0  0  0  0
    5.9159  -11.6626   26.0087 C   0  0  0  0  0  0  0  0  0  0  0  0
    6.7894  -12.7214   25.4368 C   0  0  0  0  0  0  0  0  0  0  0  0
    7.3493  -13.7212   26.3710 C   0  0  2  0  0  0  0  0  0  0  0  0
    7.9353  -13.1329   27.6374 C   0  0  0  0  0  0  0  0  0  0  0  0
    8.1240  -14.8495   25.7854 C   0  0  2  0  0  0  0  0  0  0  0  0
    7.4624  -15.2910   24.5577 N   0  0  0  0  0  0  0  0  0  0  0  0
    8.4617  -15.9664   26.6542 C   0  0  0  0  0  0  0  0  0  0  0  0
    7.6763  -16.9768   26.7788 O   0  0  0  0  0  0  0  0  0  0  0  0
    9.6139  -16.0707   27.4100 O   0  0  0  0  0  0  0  0  0  0  0  0
  2  3  1  0
  2  1  1  1
  4  5  1  0
  4  3  1  0
  5  6  2  0
  7  2  1  0
  8  7  2  0
  9  5  1  0
 11 10  1  1
 11 12  1  0
 12  7  1  0
 13 11  1  0
 13 20  1  0
 14 13  2  0
 16 15  1  0
 17 18  1  1
 17 16  1  0
 19 20  1  6
 19 17  1  0
 21 23  1  0
 21 19  1  0
 22 21  2  0
M  END
$$$$
