EAI.pdb
     RDKit          3D

 23 22  0  0  1  0  0  0  0  0999 V2000
    7.6662  -17.7437   19.0427 N   0  0  0  0  0  0  0  0  0  0  0  0
    8.6234  -17.7388   20.1110 C   0  0  1  0  0  0  0  0  0  0  0  0
    9.7621  -16.8354   19.7930 C   0  0  0  0  0  0  0  0  0  0  0  0
   10.8562  -16.7492   20.7839 C   0  0  0  0  0  0  0  0  0  0  0  0
   11.9223  -17.7451   20.6915 C   0  0  0  0  0  0  0  0  0  0  0  0
   12.7352  -17.6143   19.7121 O   0  0  0  0  0  0  0  0  0  0  0  0
    7.9584  -17.3411   21.3787 C   0  0  0  0  0  0  0  0  0  0  0  0
    7.4271  -16.1711   21.4000 O   0  0  0  0  0  0  0  0  0  0  0  0
   12.1613  -18.8013   21.5271 O   0  0  0  0  0  0  0  0  0  0  0  0
    6.7357  -18.6988   24.5940 C   0  0  0  0  0  0  0  0  0  0  0  0
    7.1970  -17.5611   23.7196 C   0  0  2  0  0  0  0  0  0  0  0  0
    7.8557  -18.1097   22.5455 N   0  0  0  0  0  0  0  0  0  0  0  0
    8.0864  -16.6159   24.4469 C   0  0  0  0  0  0  0  0  0  0  0  0
    9.3164  -16.7464   24.3120 O   0  0  0  0  0  0  0  0  0  0  0  0
    5.7230  -11.9203   26.0873 C   0  0  0  0  0  0  0  0  0  0  0  0
    6.6693  -12.9439   25.5697 C   0  0  0  0  0  0  0  0  0  0  0  0
    7.6264  -13.5344   26.5295 C   0  0  2  0  0  0  0  0  0  0  0  0
    8.3660  -12.5207   27.3772 C   0  0  0  0  0  0  0  0  0  0  0  0
    8.4509  -14.6811   26.0590 C   0  0  2  0  0  0  0  0  0  0  0  0
    7.6048  -15.5836   25.2784 N   0  0  0  0  0  0  0  0  0  0  0  0
    9.2468  -15.3965   27.0444 C   0  0  0  0  0  0  0  0  0  0  0  0
    8.7429  -16.3496   27.7454 O   0  0  0  0  0  0  0  0  0  0  0  0
   10.5768  -15.1510   27.3280 O   0  0  0  0  0  0  0  0  0  0  0  0
  2  3  1  0
  2  1  1  6
  4  5  1  0
  4  3  1  0
  5  6  2  0
  7  2  1  0
  8  7  2  0
  9  5  1  0
 11 10  1  1
 11 12  1  0
 12  7  1  0
 13 11  1  0
 13 20  1  0
 14 13  2  0
 16 15  1  0
 17 18  1  6
 17 16  1  0
 19 20  1  1
 19 17  1  0
 21 23  1  0
 21 19  1  0
 22 21  2  0
M  END
$$$$
