EAI.pdb
     RDKit          3D

 23 22  0  0  1  0  0  0  0  0999 V2000
   10.8993  -18.4786   19.8170 N   0  0  0  0  0  0  0  0  0  0  0  0
    9.8740  -18.4204   20.8184 C   0  0  1  0  0  0  0  0  0  0  0  0
   10.3307  -19.0685   22.0775 C   0  0  0  0  0  0  0  0  0  0  0  0
   11.3040  -20.1750   21.9560 C   0  0  0  0  0  0  0  0  0  0  0  0
   12.4166  -20.1944   22.9040 C   0  0  0  0  0  0  0  0  0  0  0  0
   12.3461  -21.0628   23.8411 O   0  0  0  0  0  0  0  0  0  0  0  0
    9.4809  -17.0068   21.0524 C   0  0  0  0  0  0  0  0  0  0  0  0
   10.4315  -16.1421   21.0391 O   0  0  0  0  0  0  0  0  0  0  0  0
   13.5289  -19.3986   22.9117 O   0  0  0  0  0  0  0  0  0  0  0  0
    6.4965  -14.8130   21.3663 C   0  0  0  0  0  0  0  0  0  0  0  0
    7.9674  -15.1077   21.5117 C   0  0  2  0  0  0  0  0  0  0  0  0
    8.1855  -16.5272   21.2863 N   0  0  0  0  0  0  0  0  0  0  0  0
    8.4997  -14.6818   22.8341 C   0  0  0  0  0  0  0  0  0  0  0  0
    9.5858  -14.0752   22.8614 O   0  0  0  0  0  0  0  0  0  0  0  0
    6.7740  -11.1980   27.0728 C   0  0  0  0  0  0  0  0  0  0  0  0
    7.6875  -12.3301   26.7645 C   0  0  0  0  0  0  0  0  0  0  0  0
    7.2898  -13.2502   25.6777 C   0  0  2  0  0  0  0  0  0  0  0  0
    5.8232  -13.6275   25.6846 C   0  0  0  0  0  0  0  0  0  0  0  0
    8.2228  -14.3610   25.3431 C   0  0  2  0  0  0  0  0  0  0  0  0
    7.8359  -14.9317   24.0530 N   0  0  0  0  0  0  0  0  0  0  0  0
    8.4457  -15.3885   26.3486 C   0  0  0  0  0  0  0  0  0  0  0  0
    7.8201  -16.5111   26.3063 O   0  0  0  0  0  0  0  0  0  0  0  0
    9.3179  -15.2864   27.4156 O   0  0  0  0  0  0  0  0  0  0  0  0
  2  3  1  0
  2  1  1  6
  4  5  1  0
  4  3  1  0
  5  6  2  0
  7  2  1  0
  8  7  2  0
  9  5  1  0
 11 10  1  1
 11 12  1  0
 12  7  1  0
 13 11  1  0
 13 20  1  0
 14 13  2  0
 16 15  1  0
 17 18  1  1
 17 16  1  0
 19 20  1  6
 19 17  1  0
 21 23  1  0
 21 19  1  0
 22 21  2  0
M  END
$$$$
