EAI.pdb
     RDKit          3D

 23 22  0  0  1  0  0  0  0  0999 V2000
   11.8297  -17.1597   20.6051 N   0  0  0  0  0  0  0  0  0  0  0  0
   10.4658  -16.8881   20.2540 C   0  0  1  0  0  0  0  0  0  0  0  0
   10.0017  -17.8171   19.1884 C   0  0  0  0  0  0  0  0  0  0  0  0
    9.8098  -19.2350   19.5614 C   0  0  0  0  0  0  0  0  0  0  0  0
    9.4522  -20.1655   18.4922 C   0  0  0  0  0  0  0  0  0  0  0  0
    9.4045  -19.6775   17.3103 O   0  0  0  0  0  0  0  0  0  0  0  0
    9.6078  -16.9844   21.4632 C   0  0  0  0  0  0  0  0  0  0  0  0
   10.0980  -17.6324   22.4588 O   0  0  0  0  0  0  0  0  0  0  0  0
    9.1644  -21.4984   18.5985 O   0  0  0  0  0  0  0  0  0  0  0  0
    7.3333  -18.1426   23.0115 C   0  0  0  0  0  0  0  0  0  0  0  0
    7.5937  -16.6658   22.8596 C   0  0  2  0  0  0  0  0  0  0  0  0
    8.3253  -16.4437   21.6232 N   0  0  0  0  0  0  0  0  0  0  0  0
    8.3198  -16.0983   24.0275 C   0  0  0  0  0  0  0  0  0  0  0  0
    9.5578  -16.2189   24.0635 O   0  0  0  0  0  0  0  0  0  0  0  0
    5.6338  -12.0119   26.2822 C   0  0  0  0  0  0  0  0  0  0  0  0
    6.6231  -12.9818   25.7419 C   0  0  0  0  0  0  0  0  0  0  0  0
    7.5028  -13.6693   26.7111 C   0  0  2  0  0  0  0  0  0  0  0  0
    8.1691  -12.7485   27.7119 C   0  0  0  0  0  0  0  0  0  0  0  0
    8.3660  -14.7672   26.1957 C   0  0  2  0  0  0  0  0  0  0  0  0
    7.6757  -15.4333   25.0914 N   0  0  0  0  0  0  0  0  0  0  0  0
    8.9023  -15.7191   27.1563 C   0  0  0  0  0  0  0  0  0  0  0  0
    8.2945  -16.8227   27.4133 O   0  0  0  0  0  0  0  0  0  0  0  0
   10.0749  -15.5596   27.8697 O   0  0  0  0  0  0  0  0  0  0  0  0
  2  3  1  0
  2  1  1  1
  4  5  1  0
  4  3  1  0
  5  6  2  0
  7  2  1  0
  8  7  2  0
  9  5  1  0
 11 10  1  1
 11 12  1  0
 12  7  1  0
 13 11  1  0
 13 20  1  0
 14 13  2  0
 16 15  1  0
 17 18  1  6
 17 16  1  0
 19 20  1  6
 19 17  1  0
 21 23  1  0
 21 19  1  0
 22 21  2  0
M  END
$$$$
