EAI.pdb
     RDKit          3D

 23 22  0  0  1  0  0  0  0  0999 V2000
    9.7296  -19.4588   20.8016 N   0  0  0  0  0  0  0  0  0  0  0  0
   10.6458  -18.6316   21.5322 C   0  0  1  0  0  0  0  0  0  0  0  0
   11.9841  -18.6274   20.8820 C   0  0  0  0  0  0  0  0  0  0  0  0
   12.0694  -19.1532   19.5026 C   0  0  0  0  0  0  0  0  0  0  0  0
   13.1107  -18.5995   18.6388 C   0  0  0  0  0  0  0  0  0  0  0  0
   13.0790  -18.9608   17.4118 O   0  0  0  0  0  0  0  0  0  0  0  0
   10.0981  -17.2551   21.6455 C   0  0  0  0  0  0  0  0  0  0  0  0
   10.9512  -16.2961   21.5819 O   0  0  0  0  0  0  0  0  0  0  0  0
   14.1163  -17.7376   18.9803 O   0  0  0  0  0  0  0  0  0  0  0  0
    6.8959  -15.3696   21.8048 C   0  0  0  0  0  0  0  0  0  0  0  0
    8.3857  -15.5062   21.9878 C   0  0  2  0  0  0  0  0  0  0  0  0
    8.7529  -16.9021   21.8154 N   0  0  0  0  0  0  0  0  0  0  0  0
    8.8421  -14.9852   23.3044 C   0  0  0  0  0  0  0  0  0  0  0  0
   10.0083  -14.5607   23.3948 O   0  0  0  0  0  0  0  0  0  0  0  0
    5.5923  -11.6784   25.4905 C   0  0  0  0  0  0  0  0  0  0  0  0
    6.7627  -12.5131   25.1103 C   0  0  0  0  0  0  0  0  0  0  0  0
    7.3359  -13.3963   26.1483 C   0  0  2  0  0  0  0  0  0  0  0  0
    7.5732  -12.7198   27.4821 C   0  0  0  0  0  0  0  0  0  0  0  0
    8.4009  -14.3479   25.7281 C   0  0  2  0  0  0  0  0  0  0  0  0
    8.0207  -14.9497   24.4502 N   0  0  0  0  0  0  0  0  0  0  0  0
    8.8403  -15.3458   26.6910 C   0  0  0  0  0  0  0  0  0  0  0  0
    8.2403  -16.4779   26.8004 O   0  0  0  0  0  0  0  0  0  0  0  0
    9.9064  -15.2040   27.5586 O   0  0  0  0  0  0  0  0  0  0  0  0
  2  3  1  0
  2  1  1  6
  4  5  1  0
  4  3  1  0
  5  6  2  0
  7  2  1  0
  8  7  2  0
  9  5  1  0
 11 10  1  1
 11 12  1  0
 12  7  1  0
 13 11  1  0
 13 20  1  0
 14 13  2  0
 16 15  1  0
 17 18  1  1
 17 16  1  0
 19 20  1  6
 19 17  1  0
 21 23  1  0
 21 19  1  0
 22 21  2  0
M  END
$$$$
