IAH.pdb
     RDKit          3D

 24 24  0  0  1  0  0  0  0  0999 V2000
    6.9351  -10.6836   26.9091 C   0  0  0  0  0  0  0  0  0  0  0  0
    7.6843  -11.9847   26.9367 C   0  0  0  0  0  0  0  0  0  0  0  0
    6.9997  -13.1009   26.1854 C   0  0  2  0  0  0  0  0  0  0  0  0
    5.6083  -13.3842   26.7025 C   0  0  0  0  0  0  0  0  0  0  0  0
    7.8243  -14.3514   26.1044 C   0  0  2  0  0  0  0  0  0  0  0  0
    9.2292  -14.1055   25.9584 N   0  0  0  0  0  0  0  0  0  0  0  0
    7.3497  -15.2060   24.9993 C   0  0  0  0  0  0  0  0  0  0  0  0
    6.2918  -15.8529   25.1324 O   0  0  0  0  0  0  0  0  0  0  0  0
    7.7765  -15.3333   21.3648 C   0  0  0  0  0  0  0  0  0  0  0  0
    7.7311  -16.0718   22.6687 C   0  0  2  0  0  0  0  0  0  0  0  0
    8.0973  -15.2841   23.8003 N   0  0  0  0  0  0  0  0  0  0  0  0
    8.6206  -17.2612   22.5978 C   0  0  0  0  0  0  0  0  0  0  0  0
    9.0210  -17.6499   21.4736 O   0  0  0  0  0  0  0  0  0  0  0  0
    9.0355  -17.9752   23.7495 N   0  0  0  0  0  0  0  0  0  0  0  0
   10.4048  -18.4762   23.8065 C   0  0  1  0  0  0  0  0  0  0  0  0
   11.3851  -17.4169   23.4148 C   0  0  0  0  0  0  0  0  0  0  0  0
   11.6102  -17.4350   21.9675 C   0  0  0  0  0  0  0  0  0  0  0  0
   11.1137  -18.3406   21.0619 C   0  0  0  0  0  0  0  0  0  0  0  0
   11.5970  -18.0035   19.8262 N   0  0  0  0  0  0  0  0  0  0  0  0
   12.3701  -16.9208   19.9639 C   0  0  0  0  0  0  0  0  0  0  0  0
   12.3747  -16.5816   21.2591 N   0  0  0  0  0  0  0  0  0  0  0  0
   10.6717  -19.0376   25.1325 C   0  0  0  0  0  0  0  0  0  0  0  0
   11.7935  -19.5598   25.3842 O   0  0  0  0  0  0  0  0  0  0  0  0
    9.7470  -19.0239   26.1409 O   0  0  0  0  0  0  0  0  0  0  0  0
  1  2  1  0
  2  3  1  0
  3  5  1  0
  3  4  1  1
  5  7  1  0
  5  6  1  6
  7  8  2  0
  7 11  1  0
 10  9  1  6
 11 10  1  0
 12 14  1  0
 12 10  1  0
 13 12  2  0
 15 14  1  0
 15 22  1  0
 15 16  1  1
 16 17  1  0
 17 18  2  0
 18 19  1  0
 20 19  1  0
 21 17  1  0
 21 20  2  0
 22 24  1  0
 23 22  2  0
M  END
$$$$
