IAH.pdb
     RDKit          3D

 24 24  0  0  1  0  0  0  0  0999 V2000
    7.9134  -22.1577   18.8574 C   0  0  0  0  0  0  0  0  0  0  0  0
    6.9484  -22.1424   20.0077 C   0  0  0  0  0  0  0  0  0  0  0  0
    7.3249  -21.1815   21.1094 C   0  0  2  0  0  0  0  0  0  0  0  0
    8.7279  -21.4054   21.6242 C   0  0  0  0  0  0  0  0  0  0  0  0
    6.3256  -21.1435   22.2276 C   0  0  2  0  0  0  0  0  0  0  0  0
    4.9763  -20.9425   21.7865 N   0  0  0  0  0  0  0  0  0  0  0  0
    6.6917  -20.1008   23.2051 C   0  0  0  0  0  0  0  0  0  0  0  0
    6.8090  -18.9179   22.8282 O   0  0  0  0  0  0  0  0  0  0  0  0
    6.6479  -19.8829   26.9358 C   0  0  0  0  0  0  0  0  0  0  0  0
    7.2157  -19.5216   25.5961 C   0  0  2  0  0  0  0  0  0  0  0  0
    6.9060  -20.4513   24.5594 N   0  0  0  0  0  0  0  0  0  0  0  0
    8.6927  -19.3877   25.7017 C   0  0  0  0  0  0  0  0  0  0  0  0
    9.4031  -20.4143   25.5731 O   0  0  0  0  0  0  0  0  0  0  0  0
    9.3325  -18.1462   25.9419 N   0  0  0  0  0  0  0  0  0  0  0  0
   10.7891  -18.1138   26.0231 C   0  0  1  0  0  0  0  0  0  0  0  0
   11.3355  -16.8503   25.4389 C   0  0  0  0  0  0  0  0  0  0  0  0
   10.9940  -16.7515   24.0179 C   0  0  0  0  0  0  0  0  0  0  0  0
   10.6670  -17.7812   23.1697 C   0  0  0  0  0  0  0  0  0  0  0  0
   10.4525  -17.2472   21.9275 N   0  0  0  0  0  0  0  0  0  0  0  0
   10.6415  -15.9254   22.0055 C   0  0  0  0  0  0  0  0  0  0  0  0
   10.9684  -15.6313   23.2701 N   0  0  0  0  0  0  0  0  0  0  0  0
   11.2126  -18.3314   27.4080 C   0  0  0  0  0  0  0  0  0  0  0  0
   10.3687  -18.2664   28.3452 O   0  0  0  0  0  0  0  0  0  0  0  0
   12.5076  -18.6113   27.7498 O   0  0  0  0  0  0  0  0  0  0  0  0
  1  2  1  0
  2  3  1  0
  3  5  1  0
  3  4  1  1
  5  7  1  0
  5  6  1  6
  7  8  2  0
  7 11  1  0
 10  9  1  1
 11 10  1  0
 12 14  1  0
 12 10  1  0
 13 12  2  0
 15 14  1  0
 15 22  1  0
 15 16  1  1
 16 17  1  0
 17 18  2  0
 18 19  1  0
 20 19  1  0
 21 17  1  0
 21 20  2  0
 22 24  1  0
 23 22  2  0
M  END
$$$$
