IAH.pdb
     RDKit          3D

 24 24  0  0  1  0  0  0  0  0999 V2000
    6.1946  -12.0898   26.9433 C   0  0  0  0  0  0  0  0  0  0  0  0
    5.8336  -13.3096   26.1456 C   0  0  0  0  0  0  0  0  0  0  0  0
    7.0238  -14.1280   25.7069 C   0  0  2  0  0  0  0  0  0  0  0  0
    8.1134  -13.2856   25.0849 C   0  0  0  0  0  0  0  0  0  0  0  0
    6.6530  -15.2872   24.8298 C   0  0  2  0  0  0  0  0  0  0  0  0
    5.6155  -16.1126   25.3755 N   0  0  0  0  0  0  0  0  0  0  0  0
    7.8433  -16.1088   24.5382 C   0  0  0  0  0  0  0  0  0  0  0  0
    7.9833  -17.2115   25.1036 O   0  0  0  0  0  0  0  0  0  0  0  0
   10.5573  -15.7795   21.8958 C   0  0  0  0  0  0  0  0  0  0  0  0
    9.7973  -16.4607   22.9940 C   0  0  2  0  0  0  0  0  0  0  0  0
    8.8137  -15.6396   23.6212 N   0  0  0  0  0  0  0  0  0  0  0  0
   10.7482  -16.9521   24.0261 C   0  0  0  0  0  0  0  0  0  0  0  0
   11.7761  -17.5693   23.6553 O   0  0  0  0  0  0  0  0  0  0  0  0
   10.5409  -16.7519   25.4136 N   0  0  0  0  0  0  0  0  0  0  0  0
   11.4354  -17.4141   26.3573 C   0  0  1  0  0  0  0  0  0  0  0  0
   11.1694  -16.9672   27.7594 C   0  0  0  0  0  0  0  0  0  0  0  0
   11.0447  -15.5089   27.8191 C   0  0  0  0  0  0  0  0  0  0  0  0
   11.5764  -14.5943   26.9431 C   0  0  0  0  0  0  0  0  0  0  0  0
   11.2433  -13.3442   27.3910 N   0  0  0  0  0  0  0  0  0  0  0  0
   10.5265  -13.4821   28.5117 C   0  0  0  0  0  0  0  0  0  0  0  0
   10.4095  -14.7914   28.7658 N   0  0  0  0  0  0  0  0  0  0  0  0
   11.3402  -18.8663   26.1941 C   0  0  0  0  0  0  0  0  0  0  0  0
   12.0457  -19.6308   26.9098 O   0  0  0  0  0  0  0  0  0  0  0  0
   10.5036  -19.4548   25.2853 O   0  0  0  0  0  0  0  0  0  0  0  0
  1  2  1  0
  2  3  1  0
  3  5  1  0
  3  4  1  6
  5  7  1  0
  5  6  1  1
  7  8  2  0
  7 11  1  0
 10  9  1  6
 11 10  1  0
 12 14  1  0
 12 10  1  0
 13 12  2  0
 15 14  1  0
 15 22  1  0
 15 16  1  1
 16 17  1  0
 17 18  2  0
 18 19  1  0
 20 19  1  0
 21 17  1  0
 21 20  2  0
 22 24  1  0
 23 22  2  0
M  END
$$$$
