IAH.pdb
     RDKit          3D

 24 24  0  0  1  0  0  0  0  0999 V2000
    8.7935  -11.6522   19.2193 C   0  0  0  0  0  0  0  0  0  0  0  0
    7.9246  -12.7132   19.8309 C   0  0  0  0  0  0  0  0  0  0  0  0
    8.6916  -13.8958   20.3711 C   0  0  2  0  0  0  0  0  0  0  0  0
    9.6401  -14.4892   19.3552 C   0  0  0  0  0  0  0  0  0  0  0  0
    7.8087  -14.9442   20.9810 C   0  0  2  0  0  0  0  0  0  0  0  0
    6.8169  -14.4146   21.8705 N   0  0  0  0  0  0  0  0  0  0  0  0
    8.6238  -15.9523   21.6855 C   0  0  0  0  0  0  0  0  0  0  0  0
    9.0577  -15.7037   22.8279 O   0  0  0  0  0  0  0  0  0  0  0  0
    9.3951  -19.5971   21.1217 C   0  0  0  0  0  0  0  0  0  0  0  0
    9.7051  -18.2227   21.6342 C   0  0  2  0  0  0  0  0  0  0  0  0
    8.9055  -17.1901   21.0602 N   0  0  0  0  0  0  0  0  0  0  0  0
   11.1398  -17.9145   21.3945 C   0  0  0  0  0  0  0  0  0  0  0  0
   11.4927  -17.5307   20.2529 O   0  0  0  0  0  0  0  0  0  0  0  0
   12.1269  -18.0366   22.4040 N   0  0  0  0  0  0  0  0  0  0  0  0
   13.3495  -17.2489   22.2861 C   0  0  1  0  0  0  0  0  0  0  0  0
   13.0436  -15.7899   22.1674 C   0  0  0  0  0  0  0  0  0  0  0  0
   13.2194  -15.3387   20.7850 C   0  0  0  0  0  0  0  0  0  0  0  0
   13.5691  -16.1054   19.7003 C   0  0  0  0  0  0  0  0  0  0  0  0
   13.6514  -15.2778   18.6128 N   0  0  0  0  0  0  0  0  0  0  0  0
   13.3609  -14.0353   19.0137 C   0  0  0  0  0  0  0  0  0  0  0  0
   13.1008  -14.0777   20.3264 N   0  0  0  0  0  0  0  0  0  0  0  0
   14.2451  -17.5546   23.4037 C   0  0  0  0  0  0  0  0  0  0  0  0
   13.7772  -18.0210   24.4798 O   0  0  0  0  0  0  0  0  0  0  0  0
   15.5979  -17.3591   23.3418 O   0  0  0  0  0  0  0  0  0  0  0  0
  1  2  1  0
  2  3  1  0
  3  5  1  0
  3  4  1  6
  5  7  1  0
  5  6  1  1
  7  8  2  0
  7 11  1  0
 10  9  1  6
 11 10  1  0
 12 14  1  0
 12 10  1  0
 13 12  2  0
 15 14  1  0
 15 22  1  0
 15 16  1  1
 16 17  1  0
 17 18  2  0
 18 19  1  0
 20 19  1  0
 21 17  1  0
 21 20  2  0
 22 24  1  0
 23 22  2  0
M  END
$$$$
