IAH.pdb
     RDKit          3D

 24 24  0  0  1  0  0  0  0  0999 V2000
    7.9056  -11.7103   27.3461 C   0  0  0  0  0  0  0  0  0  0  0  0
    6.8639  -12.4967   26.6037 C   0  0  0  0  0  0  0  0  0  0  0  0
    7.2914  -13.9018   26.2547 C   0  0  2  0  0  0  0  0  0  0  0  0
    8.5930  -13.9418   25.4879 C   0  0  0  0  0  0  0  0  0  0  0  0
    6.2190  -14.6916   25.5644 C   0  0  2  0  0  0  0  0  0  0  0  0
    4.9256  -14.5555   26.1680 N   0  0  0  0  0  0  0  0  0  0  0  0
    6.5936  -16.1174   25.5028 C   0  0  0  0  0  0  0  0  0  0  0  0
    6.5336  -16.8144   26.5351 O   0  0  0  0  0  0  0  0  0  0  0  0
    7.1634  -18.5614   22.7014 C   0  0  0  0  0  0  0  0  0  0  0  0
    7.3750  -18.0494   24.0945 C   0  0  2  0  0  0  0  0  0  0  0  0
    7.0166  -16.6805   24.2754 N   0  0  0  0  0  0  0  0  0  0  0  0
    8.7991  -18.2326   24.4807 C   0  0  0  0  0  0  0  0  0  0  0  0
    9.2570  -19.3981   24.5646 O   0  0  0  0  0  0  0  0  0  0  0  0
    9.6620  -17.1434   24.7587 N   0  0  0  0  0  0  0  0  0  0  0  0
   11.0392  -17.4242   25.1506 C   0  0  1  0  0  0  0  0  0  0  0  0
   11.9814  -16.4145   24.5769 C   0  0  0  0  0  0  0  0  0  0  0  0
   11.9676  -16.4720   23.1133 C   0  0  0  0  0  0  0  0  0  0  0  0
   11.3406  -17.4064   22.3257 C   0  0  0  0  0  0  0  0  0  0  0  0
   11.6117  -17.1011   21.0190 N   0  0  0  0  0  0  0  0  0  0  0  0
   12.3842  -16.0094   20.9994 C   0  0  0  0  0  0  0  0  0  0  0  0
   12.5962  -15.6336   22.2668 N   0  0  0  0  0  0  0  0  0  0  0  0
   11.1285  -17.5232   26.6090 C   0  0  0  0  0  0  0  0  0  0  0  0
   10.1054  -17.3196   27.3206 O   0  0  0  0  0  0  0  0  0  0  0  0
   12.2913  -17.8356   27.2590 O   0  0  0  0  0  0  0  0  0  0  0  0
  1  2  1  0
  2  3  1  0
  3  5  1  0
  3  4  1  6
  5  7  1  0
  5  6  1  1
  7  8  2  0
  7 11  1  0
 10  9  1  6
 11 10  1  0
 12 14  1  0
 12 10  1  0
 13 12  2  0
 15 14  1  0
 15 22  1  0
 15 16  1  1
 16 17  1  0
 17 18  2  0
 18 19  1  0
 20 19  1  0
 21 17  1  0
 21 20  2  0
 22 24  1  0
 23 22  2  0
M  END
$$$$
