IAH.pdb
     RDKit          3D

 24 24  0  0  1  0  0  0  0  0999 V2000
    7.2510  -12.5445   20.3854 C   0  0  0  0  0  0  0  0  0  0  0  0
    7.8574  -13.3694   19.2871 C   0  0  0  0  0  0  0  0  0  0  0  0
    9.3035  -13.7334   19.5224 C   0  0  2  0  0  0  0  0  0  0  0  0
   10.1624  -12.5322   19.8435 C   0  0  0  0  0  0  0  0  0  0  0  0
    9.8941  -14.5546   18.4146 C   0  0  2  0  0  0  0  0  0  0  0  0
    8.9858  -15.5190   17.8664 N   0  0  0  0  0  0  0  0  0  0  0  0
   11.1207  -15.2311   18.8777 C   0  0  0  0  0  0  0  0  0  0  0  0
   11.0524  -16.3962   19.3170 O   0  0  0  0  0  0  0  0  0  0  0  0
   14.4799  -14.5979   17.5752 C   0  0  0  0  0  0  0  0  0  0  0  0
   13.6257  -15.1937   18.6537 C   0  0  2  0  0  0  0  0  0  0  0  0
   12.3617  -14.5535   18.8195 N   0  0  0  0  0  0  0  0  0  0  0  0
   14.3601  -15.1584   19.9461 C   0  0  0  0  0  0  0  0  0  0  0  0
   15.5423  -15.5783   19.9808 O   0  0  0  0  0  0  0  0  0  0  0  0
   13.7788  -14.6693   21.1425 N   0  0  0  0  0  0  0  0  0  0  0  0
   14.2004  -15.2494   22.4133 C   0  0  1  0  0  0  0  0  0  0  0  0
   13.7080  -16.6541   22.5565 C   0  0  0  0  0  0  0  0  0  0  0  0
   12.2571  -16.6722   22.7567 C   0  0  0  0  0  0  0  0  0  0  0  0
   11.4139  -15.5894   22.8132 C   0  0  0  0  0  0  0  0  0  0  0  0
   10.1482  -16.0570   23.0450 N   0  0  0  0  0  0  0  0  0  0  0  0
   10.2073  -17.3905   23.1294 C   0  0  0  0  0  0  0  0  0  0  0  0
   11.4832  -17.7569   22.9546 N   0  0  0  0  0  0  0  0  0  0  0  0
   15.6542  -15.1381   22.5502 C   0  0  0  0  0  0  0  0  0  0  0  0
   16.3447  -14.6690   21.6027 O   0  0  0  0  0  0  0  0  0  0  0  0
   16.3220  -15.5230   23.6807 O   0  0  0  0  0  0  0  0  0  0  0  0
  1  2  1  0
  2  3  1  0
  3  5  1  0
  3  4  1  6
  5  7  1  0
  5  6  1  1
  7  8  2  0
  7 11  1  0
 10  9  1  6
 11 10  1  0
 12 14  1  0
 12 10  1  0
 13 12  2  0
 15 14  1  0
 15 22  1  0
 15 16  1  6
 16 17  1  0
 17 18  2  0
 18 19  1  0
 20 19  1  0
 21 17  1  0
 21 20  2  0
 22 24  1  0
 23 22  2  0
M  END
$$$$
