IAH.pdb
     RDKit          3D

 24 24  0  0  1  0  0  0  0  0999 V2000
    7.1262  -12.3686   19.9933 C   0  0  0  0  0  0  0  0  0  0  0  0
    8.0798  -13.3491   19.3737 C   0  0  0  0  0  0  0  0  0  0  0  0
    8.5462  -14.4297   20.3190 C   0  0  2  0  0  0  0  0  0  0  0  0
    9.1590  -13.8736   21.5836 C   0  0  0  0  0  0  0  0  0  0  0  0
    9.4451  -15.4381   19.6666 C   0  0  2  0  0  0  0  0  0  0  0  0
    8.9440  -15.9324   18.4176 N   0  0  0  0  0  0  0  0  0  0  0  0
    9.6992  -16.5655   20.5838 C   0  0  0  0  0  0  0  0  0  0  0  0
    8.8166  -17.4295   20.7561 O   0  0  0  0  0  0  0  0  0  0  0  0
   12.8469  -17.8925   22.1927 C   0  0  0  0  0  0  0  0  0  0  0  0
   11.3609  -17.7812   22.0288 C   0  0  2  0  0  0  0  0  0  0  0  0
   10.9398  -16.6566   21.2587 N   0  0  0  0  0  0  0  0  0  0  0  0
   10.7161  -17.7208   23.3672 C   0  0  0  0  0  0  0  0  0  0  0  0
   10.7087  -16.6287   23.9855 O   0  0  0  0  0  0  0  0  0  0  0  0
   10.1084  -18.8479   23.9746 N   0  0  0  0  0  0  0  0  0  0  0  0
    9.6027  -18.7207   25.3374 C   0  0  1  0  0  0  0  0  0  0  0  0
    8.3849  -19.5639   25.5434 C   0  0  0  0  0  0  0  0  0  0  0  0
    7.3140  -19.1509   24.6334 C   0  0  0  0  0  0  0  0  0  0  0  0
    7.1444  -17.9150   24.0584 C   0  0  0  0  0  0  0  0  0  0  0  0
    6.0014  -17.9575   23.3061 N   0  0  0  0  0  0  0  0  0  0  0  0
    5.4793  -19.1842   23.4130 C   0  0  0  0  0  0  0  0  0  0  0  0
    6.2759  -19.9010   24.2157 N   0  0  0  0  0  0  0  0  0  0  0  0
   10.6719  -19.0206   26.2921 C   0  0  0  0  0  0  0  0  0  0  0  0
   11.7836  -19.4559   25.8807 O   0  0  0  0  0  0  0  0  0  0  0  0
   10.5280  -18.8470   27.6417 O   0  0  0  0  0  0  0  0  0  0  0  0
  1  2  1  0
  2  3  1  0
  3  5  1  0
  3  4  1  1
  5  7  1  0
  5  6  1  6
  7  8  2  0
  7 11  1  0
 10  9  1  1
 11 10  1  0
 12 14  1  0
 12 10  1  0
 13 12  2  0
 15 14  1  0
 15 22  1  0
 15 16  1  6
 16 17  1  0
 17 18  2  0
 18 19  1  0
 20 19  1  0
 21 17  1  0
 21 20  2  0
 22 24  1  0
 23 22  2  0
M  END
$$$$
