LQH.pdb
     RDKit          3D

 28 28  0  0  1  0  0  0  0  0999 V2000
   27.4581  -18.2888   -6.5958 C   0  0  0  0  0  0  0  0  0  0  0  0
   27.3420  -19.5927   -7.3203 C   0  0  1  0  0  0  0  0  0  0  0  0
   26.3763  -20.5448   -6.6299 C   0  0  0  0  0  0  0  0  0  0  0  0
   26.8527  -19.3799   -8.7106 C   0  0  0  0  0  0  0  0  0  0  0  0
   26.9200  -20.6415   -9.5301 C   0  0  2  0  0  0  0  0  0  0  0  0
   28.2384  -21.1777   -9.6240 N   0  0  0  0  0  0  0  0  0  0  0  0
   26.3201  -20.3408  -10.8548 C   0  0  0  0  0  0  0  0  0  0  0  0
   26.7430  -19.3405  -11.4847 O   0  0  0  0  0  0  0  0  0  0  0  0
   25.5420  -23.9872  -15.4980 N   0  0  0  0  0  0  0  0  0  0  0  0
   26.5645  -23.0357  -15.5326 C   0  0  0  0  0  0  0  0  0  0  0  0
   27.4430  -23.0366  -16.4087 O   0  0  0  0  0  0  0  0  0  0  0  0
   26.5824  -21.9761  -14.4549 C   0  0  0  0  0  0  0  0  0  0  0  0
   25.3924  -22.2084  -13.5796 C   0  0  0  0  0  0  0  0  0  0  0  0
   24.9982  -20.9411  -12.8552 C   0  0  2  0  0  0  0  0  0  0  0  0
   25.3062  -21.1279  -11.4229 N   0  0  0  0  0  0  0  0  0  0  0  0
   23.5508  -20.7367  -12.9250 C   0  0  0  0  0  0  0  0  0  0  0  0
   22.8380  -20.5260  -11.8847 O   0  0  0  0  0  0  0  0  0  0  0  0
   22.8656  -20.7554  -14.1688 N   0  0  0  0  0  0  0  0  0  0  0  0
   21.4560  -20.3381  -14.2164 C   0  0  1  0  0  0  0  0  0  0  0  0
   21.4579  -18.9183  -13.6720 C   0  0  0  0  0  0  0  0  0  0  0  0
   20.0894  -18.4600  -13.3183 C   0  0  0  0  0  0  0  0  0  0  0  0
   18.8985  -19.1598  -13.3958 C   0  0  0  0  0  0  0  0  0  0  0  0
   17.8815  -18.3904  -12.9826 N   0  0  0  0  0  0  0  0  0  0  0  0
   18.3992  -17.2022  -12.6388 C   0  0  0  0  0  0  0  0  0  0  0  0
   19.7433  -17.2459  -12.8436 N   0  0  0  0  0  0  0  0  0  0  0  0
   20.9342  -20.4228  -15.5704 C   0  0  0  0  0  0  0  0  0  0  0  0
   21.5761  -19.8756  -16.5038 O   0  0  0  0  0  0  0  0  0  0  0  0
   19.7635  -21.0749  -15.9023 O   0  0  0  0  0  0  0  0  0  0  0  0
  2  1  1  1
  2  4  1  0
  3  2  1  0
  5  6  1  6
  5  4  1  0
  7  5  1  0
  8  7  2  0
  9 10  1  0
 10 12  1  0
 11 10  2  0
 12 13  1  0
 14 13  1  6
 14 15  1  0
 15  7  1  0
 16 14  1  0
 16 17  2  0
 18 16  1  0
 19 20  1  6
 19 18  1  0
 20 21  1  0
 21 22  2  0
 21 25  1  0
 22 23  1  0
 23 24  1  0
 25 24  2  0
 26 19  1  0
 27 26  2  0
 28 26  1  0
M  END
$$$$
