LQH.pdb
     RDKit          3D

 28 28  0  0  1  0  0  0  0  0999 V2000
   18.9896  -14.6960    1.2668 C   0  0  0  0  0  0  0  0  0  0  0  0
   17.9998  -15.7003    1.7669 C   0  0  1  0  0  0  0  0  0  0  0  0
   18.5036  -17.1271    1.6054 C   0  0  0  0  0  0  0  0  0  0  0  0
   17.7131  -15.4815    3.2117 C   0  0  0  0  0  0  0  0  0  0  0  0
   16.7445  -16.4993    3.7536 C   0  0  2  0  0  0  0  0  0  0  0  0
   15.4369  -16.3789    3.1969 N   0  0  0  0  0  0  0  0  0  0  0  0
   16.7585  -16.3788    5.2336 C   0  0  0  0  0  0  0  0  0  0  0  0
   16.0283  -15.5069    5.7652 O   0  0  0  0  0  0  0  0  0  0  0  0
   17.1641  -20.9886    7.7571 N   0  0  0  0  0  0  0  0  0  0  0  0
   15.9261  -20.3670    7.9390 C   0  0  0  0  0  0  0  0  0  0  0  0
   14.8608  -21.0026    7.9604 O   0  0  0  0  0  0  0  0  0  0  0  0
   15.9065  -18.8659    8.1142 C   0  0  0  0  0  0  0  0  0  0  0  0
   17.3271  -18.3993    8.1337 C   0  0  0  0  0  0  0  0  0  0  0  0
   17.4536  -17.0252    7.5159 C   0  0  2  0  0  0  0  0  0  0  0  0
   17.5519  -17.1978    6.0524 N   0  0  0  0  0  0  0  0  0  0  0  0
   18.7073  -16.3902    7.9241 C   0  0  0  0  0  0  0  0  0  0  0  0
   19.8001  -16.5562    7.2814 O   0  0  0  0  0  0  0  0  0  0  0  0
   18.7649  -15.5435    9.0627 N   0  0  0  0  0  0  0  0  0  0  0  0
   20.0415  -14.9042    9.4163 C   0  0  1  0  0  0  0  0  0  0  0  0
   19.6766  -13.4586    9.7151 C   0  0  0  0  0  0  0  0  0  0  0  0
   19.7940  -12.5982    8.5093 C   0  0  0  0  0  0  0  0  0  0  0  0
   20.1855  -12.9537    7.2308 C   0  0  0  0  0  0  0  0  0  0  0  0
   20.1599  -11.8833    6.4242 N   0  0  0  0  0  0  0  0  0  0  0  0
   19.7569  -10.8402    7.1644 C   0  0  0  0  0  0  0  0  0  0  0  0
   19.5345  -11.2769    8.4334 N   0  0  0  0  0  0  0  0  0  0  0  0
   20.6634  -15.5746   10.5461 C   0  0  0  0  0  0  0  0  0  0  0  0
   20.0055  -16.4445   11.1731 O   0  0  0  0  0  0  0  0  0  0  0  0
   21.9476  -15.3146   10.9808 O   0  0  0  0  0  0  0  0  0  0  0  0
  2  1  1  1
  2  4  1  0
  3  2  1  0
  5  6  1  6
  5  4  1  0
  7  5  1  0
  8  7  2  0
  9 10  1  0
 10 12  1  0
 11 10  2  0
 12 13  1  0
 14 13  1  1
 14 15  1  0
 15  7  1  0
 16 14  1  0
 16 17  2  0
 18 16  1  0
 19 20  1  1
 19 18  1  0
 20 21  1  0
 21 22  2  0
 21 25  1  0
 22 23  1  0
 23 24  1  0
 25 24  2  0
 26 19  1  0
 27 26  2  0
 28 26  1  0
M  END
$$$$
