LQH.pdb
     RDKit          3D

 28 28  0  0  1  0  0  0  0  0999 V2000
   17.2608  -16.0147  -21.4200 C   0  0  0  0  0  0  0  0  0  0  0  0
   17.9947  -15.8552  -20.1260 C   0  0  1  0  0  0  0  0  0  0  0  0
   18.9353  -17.0206  -19.8563 C   0  0  0  0  0  0  0  0  0  0  0  0
   18.8085  -14.6081  -20.1334 C   0  0  0  0  0  0  0  0  0  0  0  0
   19.4963  -14.3772  -18.8138 C   0  0  2  0  0  0  0  0  0  0  0  0
   18.7645  -14.8934  -17.7037 N   0  0  0  0  0  0  0  0  0  0  0  0
   19.7658  -12.9209  -18.7045 C   0  0  0  0  0  0  0  0  0  0  0  0
   20.4034  -12.3639  -19.6315 O   0  0  0  0  0  0  0  0  0  0  0  0
   17.1689   -8.3851  -20.0787 N   0  0  0  0  0  0  0  0  0  0  0  0
   17.3256   -8.5293  -18.6979 C   0  0  0  0  0  0  0  0  0  0  0  0
   17.4528   -7.5563  -17.9387 O   0  0  0  0  0  0  0  0  0  0  0  0
   17.3377   -9.9297  -18.1292 C   0  0  0  0  0  0  0  0  0  0  0  0
   18.4146   -9.9822  -17.0930 C   0  0  0  0  0  0  0  0  0  0  0  0
   19.6347  -10.7051  -17.6170 C   0  0  2  0  0  0  0  0  0  0  0  0
   19.3370  -12.1516  -17.6114 N   0  0  0  0  0  0  0  0  0  0  0  0
   20.7673  -10.5311  -16.7067 C   0  0  0  0  0  0  0  0  0  0  0  0
   21.2398  -11.4932  -16.0097 O   0  0  0  0  0  0  0  0  0  0  0  0
   21.4057   -9.2709  -16.5612 N   0  0  0  0  0  0  0  0  0  0  0  0
   22.6922   -9.1971  -15.8523 C   0  0  1  0  0  0  0  0  0  0  0  0
   23.6275  -10.0811  -16.6624 C   0  0  0  0  0  0  0  0  0  0  0  0
   25.0138  -10.0547  -16.1283 C   0  0  0  0  0  0  0  0  0  0  0  0
   25.4312  -10.0962  -14.8098 C   0  0  0  0  0  0  0  0  0  0  0  0
   26.7695  -10.0514  -14.7461 N   0  0  0  0  0  0  0  0  0  0  0  0
   27.2230   -9.9814  -16.0061 C   0  0  0  0  0  0  0  0  0  0  0  0
   26.1532   -9.9836  -16.8464 N   0  0  0  0  0  0  0  0  0  0  0  0
   23.1556   -7.8228  -15.7574 C   0  0  0  0  0  0  0  0  0  0  0  0
   22.8934   -7.0274  -16.6963 O   0  0  0  0  0  0  0  0  0  0  0  0
   23.8743   -7.3272  -14.6879 O   0  0  0  0  0  0  0  0  0  0  0  0
  2  1  1  6
  2  4  1  0
  3  2  1  0
  5  6  1  1
  5  4  1  0
  7  5  1  0
  8  7  2  0
  9 10  1  0
 10 12  1  0
 11 10  2  0
 12 13  1  0
 14 13  1  1
 14 15  1  0
 15  7  1  0
 16 14  1  0
 16 17  2  0
 18 16  1  0
 19 20  1  6
 19 18  1  0
 20 21  1  0
 21 22  2  0
 21 25  1  0
 22 23  1  0
 23 24  1  0
 25 24  2  0
 26 19  1  0
 27 26  2  0
 28 26  1  0
M  END
$$$$
