LQH.pdb
     RDKit          3D

 28 28  0  0  1  0  0  0  0  0999 V2000
   37.7969  -10.2151  -12.3361 C   0  0  0  0  0  0  0  0  0  0  0  0
   37.5154  -10.9332  -13.6181 C   0  0  1  0  0  0  0  0  0  0  0  0
   36.9258  -12.3158  -13.3799 C   0  0  0  0  0  0  0  0  0  0  0  0
   36.5481  -10.1649  -14.4497 C   0  0  0  0  0  0  0  0  0  0  0  0
   36.2481  -10.8607  -15.7512 C   0  0  2  0  0  0  0  0  0  0  0  0
   37.4188  -11.1554  -16.5107 N   0  0  0  0  0  0  0  0  0  0  0  0
   35.2746  -10.0167  -16.4896 C   0  0  0  0  0  0  0  0  0  0  0  0
   35.7197   -9.0981  -17.2205 O   0  0  0  0  0  0  0  0  0  0  0  0
   29.4609  -11.3840  -17.8522 N   0  0  0  0  0  0  0  0  0  0  0  0
   29.4819  -10.0954  -18.3918 C   0  0  0  0  0  0  0  0  0  0  0  0
   28.5301   -9.6302  -19.0374 O   0  0  0  0  0  0  0  0  0  0  0  0
   30.7183   -9.2549  -18.1694 C   0  0  0  0  0  0  0  0  0  0  0  0
   31.7052  -10.0986  -17.4275 C   0  0  0  0  0  0  0  0  0  0  0  0
   33.0113   -9.3614  -17.2364 C   0  0  2  0  0  0  0  0  0  0  0  0
   33.8867  -10.2075  -16.4004 N   0  0  0  0  0  0  0  0  0  0  0  0
   32.8018   -8.1318  -16.4710 C   0  0  0  0  0  0  0  0  0  0  0  0
   32.9120   -8.0905  -15.1978 O   0  0  0  0  0  0  0  0  0  0  0  0
   32.4703   -6.9117  -17.1176 N   0  0  0  0  0  0  0  0  0  0  0  0
   32.2978   -5.6958  -16.3082 C   0  0  1  0  0  0  0  0  0  0  0  0
   33.6403   -5.4985  -15.6218 C   0  0  0  0  0  0  0  0  0  0  0  0
   33.6679   -4.2554  -14.8083 C   0  0  0  0  0  0  0  0  0  0  0  0
   32.7038   -3.7691  -13.9432 C   0  0  0  0  0  0  0  0  0  0  0  0
   33.1100   -2.6128  -13.4000 N   0  0  0  0  0  0  0  0  0  0  0  0
   34.3241   -2.3450  -13.9024 C   0  0  0  0  0  0  0  0  0  0  0  0
   34.6624   -3.3457  -14.7595 N   0  0  0  0  0  0  0  0  0  0  0  0
   31.9181   -4.5665  -17.1407 C   0  0  0  0  0  0  0  0  0  0  0  0
   32.2499   -4.5681  -18.3543 O   0  0  0  0  0  0  0  0  0  0  0  0
   31.2063   -3.4775  -16.6788 O   0  0  0  0  0  0  0  0  0  0  0  0
  2  1  1  1
  2  4  1  0
  3  2  1  0
  5  6  1  6
  5  4  1  0
  7  5  1  0
  8  7  2  0
  9 10  1  0
 10 12  1  0
 11 10  2  0
 12 13  1  0
 14 13  1  1
 14 15  1  0
 15  7  1  0
 16 14  1  0
 16 17  2  0
 18 16  1  0
 19 20  1  6
 19 18  1  0
 20 21  1  0
 21 22  2  0
 21 25  1  0
 22 23  1  0
 23 24  1  0
 25 24  2  0
 26 19  1  0
 27 26  2  0
 28 26  1  0
M  END
$$$$
