LQH.pdb
     RDKit          3D

 28 28  0  0  1  0  0  0  0  0999 V2000
   18.0995  -15.2994  -22.3184 C   0  0  0  0  0  0  0  0  0  0  0  0
   18.9688  -14.1498  -21.9165 C   0  0  1  0  0  0  0  0  0  0  0  0
   19.3560  -13.2842  -23.1066 C   0  0  0  0  0  0  0  0  0  0  0  0
   18.2680  -13.2798  -20.9320 C   0  0  0  0  0  0  0  0  0  0  0  0
   19.1216  -12.1162  -20.5015 C   0  0  2  0  0  0  0  0  0  0  0  0
   20.4143  -12.5096  -20.0448 N   0  0  0  0  0  0  0  0  0  0  0  0
   18.3527  -11.3566  -19.4832 C   0  0  0  0  0  0  0  0  0  0  0  0
   17.2112  -10.9360  -19.7930 O   0  0  0  0  0  0  0  0  0  0  0  0
   16.5428  -12.9369  -14.4261 N   0  0  0  0  0  0  0  0  0  0  0  0
   15.5776  -12.0834  -14.9662 C   0  0  0  0  0  0  0  0  0  0  0  0
   14.3784  -12.1567  -14.6567 O   0  0  0  0  0  0  0  0  0  0  0  0
   16.0319  -11.0404  -15.9614 C   0  0  0  0  0  0  0  0  0  0  0  0
   17.4882  -11.2677  -16.2140 C   0  0  0  0  0  0  0  0  0  0  0  0
   18.0094  -10.3165  -17.2673 C   0  0  2  0  0  0  0  0  0  0  0  0
   18.8523  -11.0943  -18.1978 N   0  0  0  0  0  0  0  0  0  0  0  0
   18.8979   -9.3203  -16.6676 C   0  0  0  0  0  0  0  0  0  0  0  0
   20.1632   -9.4885  -16.5918 O   0  0  0  0  0  0  0  0  0  0  0  0
   18.3886   -8.1027  -16.1434 N   0  0  0  0  0  0  0  0  0  0  0  0
   19.3287   -7.0959  -15.6277 C   0  0  1  0  0  0  0  0  0  0  0  0
   20.6914   -7.7657  -15.7109 C   0  0  0  0  0  0  0  0  0  0  0  0
   21.0801   -8.3903  -14.4199 C   0  0  0  0  0  0  0  0  0  0  0  0
   20.3658   -8.4399  -13.2360 C   0  0  0  0  0  0  0  0  0  0  0  0
   21.0656   -9.0968  -12.3002 N   0  0  0  0  0  0  0  0  0  0  0  0
   22.2231   -9.4726  -12.8633 C   0  0  0  0  0  0  0  0  0  0  0  0
   22.2306   -9.0418  -14.1537 N   0  0  0  0  0  0  0  0  0  0  0  0
   19.2542   -5.8693  -16.4038 C   0  0  0  0  0  0  0  0  0  0  0  0
   20.0229   -4.9176  -16.1106 O   0  0  0  0  0  0  0  0  0  0  0  0
   18.3823   -5.6795  -17.4573 O   0  0  0  0  0  0  0  0  0  0  0  0
  2  1  1  6
  2  4  1  0
  3  2  1  0
  5  6  1  1
  5  4  1  0
  7  5  1  0
  8  7  2  0
  9 10  1  0
 10 12  1  0
 11 10  2  0
 12 13  1  0
 14 13  1  1
 14 15  1  0
 15  7  1  0
 16 14  1  0
 16 17  2  0
 18 16  1  0
 19 20  1  6
 19 18  1  0
 20 21  1  0
 21 22  2  0
 21 25  1  0
 22 23  1  0
 23 24  1  0
 25 24  2  0
 26 19  1  0
 27 26  2  0
 28 26  1  0
M  END
$$$$
