LQH.pdb
     RDKit          3D

 28 28  0  0  1  0  0  0  0  0999 V2000
   36.1567  -32.5967  -16.9812 C   0  0  0  0  0  0  0  0  0  0  0  0
   35.0311  -33.2005  -16.2021 C   0  0  1  0  0  0  0  0  0  0  0  0
   34.7903  -32.4706  -14.8888 C   0  0  0  0  0  0  0  0  0  0  0  0
   33.7654  -33.1541  -16.9852 C   0  0  0  0  0  0  0  0  0  0  0  0
   32.6162  -33.7736  -16.2346 C   0  0  2  0  0  0  0  0  0  0  0  0
   32.7859  -35.1712  -16.0060 N   0  0  0  0  0  0  0  0  0  0  0  0
   31.3749  -33.4548  -16.9848 C   0  0  0  0  0  0  0  0  0  0  0  0
   31.0171  -34.2363  -17.8999 O   0  0  0  0  0  0  0  0  0  0  0  0
   27.4321  -31.8983  -14.0665 N   0  0  0  0  0  0  0  0  0  0  0  0
   27.2091  -33.1102  -14.7249 C   0  0  0  0  0  0  0  0  0  0  0  0
   26.6930  -34.0873  -14.1608 O   0  0  0  0  0  0  0  0  0  0  0  0
   27.6186  -33.2132  -16.1762 C   0  0  0  0  0  0  0  0  0  0  0  0
   28.2216  -31.9012  -16.5649 C   0  0  0  0  0  0  0  0  0  0  0  0
   29.3784  -32.0988  -17.5183 C   0  0  2  0  0  0  0  0  0  0  0  0
   30.5941  -32.3211  -16.7098 N   0  0  0  0  0  0  0  0  0  0  0  0
   29.6302  -30.8768  -18.2831 C   0  0  0  0  0  0  0  0  0  0  0  0
   30.5928  -30.0820  -18.0067 O   0  0  0  0  0  0  0  0  0  0  0  0
   28.8106  -30.5188  -19.3862 N   0  0  0  0  0  0  0  0  0  0  0  0
   29.1164  -29.2919  -20.1376 C   0  0  1  0  0  0  0  0  0  0  0  0
   30.4688  -29.5617  -20.7782 C   0  0  0  0  0  0  0  0  0  0  0  0
   30.9021  -28.4384  -21.6490 C   0  0  0  0  0  0  0  0  0  0  0  0
   30.3036  -27.2036  -21.8256 C   0  0  0  0  0  0  0  0  0  0  0  0
   31.0063  -26.4692  -22.6997 N   0  0  0  0  0  0  0  0  0  0  0  0
   32.0513  -27.2130  -23.0906 C   0  0  0  0  0  0  0  0  0  0  0  0
   31.9866  -28.4114  -22.4503 N   0  0  0  0  0  0  0  0  0  0  0  0
   28.0768  -29.0066  -21.1125 C   0  0  0  0  0  0  0  0  0  0  0  0
   27.1174  -29.8117  -21.2303 O   0  0  0  0  0  0  0  0  0  0  0  0
   28.0746  -27.8928  -21.9283 O   0  0  0  0  0  0  0  0  0  0  0  0
  2  1  1  6
  2  4  1  0
  3  2  1  0
  5  6  1  6
  5  4  1  0
  7  5  1  0
  8  7  2  0
  9 10  1  0
 10 12  1  0
 11 10  2  0
 12 13  1  0
 14 13  1  1
 14 15  1  0
 15  7  1  0
 16 14  1  0
 16 17  2  0
 18 16  1  0
 19 20  1  6
 19 18  1  0
 20 21  1  0
 21 22  2  0
 21 25  1  0
 22 23  1  0
 23 24  1  0
 25 24  2  0
 26 19  1  0
 27 26  2  0
 28 26  1  0
M  END
$$$$
