LQH.pdb
     RDKit          3D

 28 28  0  0  1  0  0  0  0  0999 V2000
   24.1444  -29.2180   -2.2350 C   0  0  0  0  0  0  0  0  0  0  0  0
   24.3144  -30.2630   -3.2922 C   0  0  1  0  0  0  0  0  0  0  0  0
   25.4551  -29.9317   -4.2434 C   0  0  0  0  0  0  0  0  0  0  0  0
   24.6057  -31.5885   -2.6793 C   0  0  0  0  0  0  0  0  0  0  0  0
   24.8314  -32.6526   -3.7207 C   0  0  2  0  0  0  0  0  0  0  0  0
   23.6264  -33.0829   -4.3510 N   0  0  0  0  0  0  0  0  0  0  0  0
   25.5721  -33.7612   -3.0667 C   0  0  0  0  0  0  0  0  0  0  0  0
   24.9467  -34.5059   -2.2727 O   0  0  0  0  0  0  0  0  0  0  0  0
   30.0608  -34.8072   -5.5580 N   0  0  0  0  0  0  0  0  0  0  0  0
   29.1076  -35.8005   -5.7959 C   0  0  0  0  0  0  0  0  0  0  0  0
   28.8791  -36.2431   -6.9322 O   0  0  0  0  0  0  0  0  0  0  0  0
   28.3383  -36.3415   -4.6126 C   0  0  0  0  0  0  0  0  0  0  0  0
   28.7697  -35.5684   -3.4074 C   0  0  0  0  0  0  0  0  0  0  0  0
   27.5756  -35.1284   -2.5911 C   0  0  2  0  0  0  0  0  0  0  0  0
   26.9344  -34.0042   -3.3025 N   0  0  0  0  0  0  0  0  0  0  0  0
   28.0047  -34.5867   -1.3011 C   0  0  0  0  0  0  0  0  0  0  0  0
   28.1277  -33.3313   -1.0924 O   0  0  0  0  0  0  0  0  0  0  0  0
   28.2998  -35.4423   -0.2068 N   0  0  0  0  0  0  0  0  0  0  0  0
   28.5664  -34.8510    1.1133 C   0  0  1  0  0  0  0  0  0  0  0  0
   27.2605  -34.1755    1.5016 C   0  0  0  0  0  0  0  0  0  0  0  0
   27.3072  -33.6361    2.8853 C   0  0  0  0  0  0  0  0  0  0  0  0
   28.3668  -33.6338    3.7749 C   0  0  0  0  0  0  0  0  0  0  0  0
   28.0038  -33.0506    4.9261 N   0  0  0  0  0  0  0  0  0  0  0  0
   26.7232  -32.6757    4.7925 C   0  0  0  0  0  0  0  0  0  0  0  0
   26.3005  -33.0327    3.5498 N   0  0  0  0  0  0  0  0  0  0  0  0
   28.9802  -35.8688    2.0649 C   0  0  0  0  0  0  0  0  0  0  0  0
   28.2914  -36.9161    2.1717 O   0  0  0  0  0  0  0  0  0  0  0  0
   30.0964  -35.7584    2.8698 O   0  0  0  0  0  0  0  0  0  0  0  0
  2  1  1  1
  2  4  1  0
  3  2  1  0
  5  6  1  1
  5  4  1  0
  7  5  1  0
  8  7  2  0
  9 10  1  0
 10 12  1  0
 11 10  2  0
 12 13  1  0
 14 13  1  6
 14 15  1  0
 15  7  1  0
 16 14  1  0
 16 17  2  0
 18 16  1  0
 19 20  1  1
 19 18  1  0
 20 21  1  0
 21 22  2  0
 21 25  1  0
 22 23  1  0
 23 24  1  0
 25 24  2  0
 26 19  1  0
 27 26  2  0
 28 26  1  0
M  END
$$$$
