ELK.pdb
     RDKit          3D

 27 26  0  0  1  0  0  0  0  0999 V2000
    8.9527  -15.1910   20.5773 N   0  0  0  0  0  0  0  0  0  0  0  0
    8.2166  -15.8299   21.6896 C   0  0  1  0  0  0  0  0  0  0  0  0
    8.4628  -17.3088   21.5329 C   0  0  0  0  0  0  0  0  0  0  0  0
    8.3839  -17.7582   20.1169 C   0  0  0  0  0  0  0  0  0  0  0  0
    8.6070  -19.2567   20.1483 C   0  0  0  0  0  0  0  0  0  0  0  0
    8.9459  -19.8741   19.1115 O   0  0  0  0  0  0  0  0  0  0  0  0
    8.7789  -15.3836   22.9837 C   0  0  0  0  0  0  0  0  0  0  0  0
   10.0069  -15.1732   23.0805 O   0  0  0  0  0  0  0  0  0  0  0  0
    8.4385  -19.9575   21.3217 O   0  0  0  0  0  0  0  0  0  0  0  0
    7.7740  -11.6793   25.4282 C   0  0  0  0  0  0  0  0  0  0  0  0
    6.6890  -12.7697   25.4479 C   0  0  2  0  0  0  0  0  0  0  0  0
    5.5325  -12.1486   26.1871 C   0  0  0  0  0  0  0  0  0  0  0  0
    7.2980  -13.9493   26.1198 C   0  0  0  0  0  0  0  0  0  0  0  0
    8.3478  -14.6775   25.3539 C   0  0  2  0  0  0  0  0  0  0  0  0
    7.9002  -15.2026   24.0988 N   0  0  0  0  0  0  0  0  0  0  0  0
    9.0463  -15.6937   26.1814 C   0  0  0  0  0  0  0  0  0  0  0  0
    9.5049  -15.3856   27.3097 O   0  0  0  0  0  0  0  0  0  0  0  0
    9.2253  -17.0363   25.7430 N   0  0  0  0  0  0  0  0  0  0  0  0
    9.9982  -18.0150   26.4796 C   0  0  1  0  0  0  0  0  0  0  0  0
   11.3206  -18.3058   25.7931 C   0  0  0  0  0  0  0  0  0  0  0  0
   12.1844  -19.2276   26.5756 C   0  0  0  0  0  0  0  0  0  0  0  0
   13.1879  -19.8851   25.6750 C   0  0  0  0  0  0  0  0  0  0  0  0
   14.1669  -20.7142   26.4386 C   0  0  0  0  0  0  0  0  0  0  0  0
   15.2606  -21.1790   25.5905 N   0  0  0  0  0  0  0  0  0  0  0  0
   10.3141  -17.4804   27.8266 C   0  0  0  0  0  0  0  0  0  0  0  0
   10.7530  -16.3119   27.9429 O   0  0  0  0  0  0  0  0  0  0  0  0
   10.1442  -18.2228   28.9770 O   0  0  0  0  0  0  0  0  0  0  0  0
  2  1  1  6
  2  3  1  0
  3  4  1  0
  4  5  1  0
  5  6  2  0
  7  2  1  0
  7  8  2  0
  9  5  1  0
 11 10  1  1
 11 13  1  0
 12 11  1  0
 14 13  1  1
 14 15  1  0
 15  7  1  0
 16 18  1  0
 16 14  1  0
 17 16  2  0
 19 18  1  0
 19 25  1  0
 19 20  1  6
 21 20  1  0
 22 21  1  0
 23 22  1  0
 24 23  1  0
 25 26  2  0
 25 27  1  0
M  END
$$$$
