ELK.pdb
     RDKit          3D

 27 26  0  0  1  0  0  0  0  0999 V2000
    9.6358  -15.8337   20.4119 N   0  0  0  0  0  0  0  0  0  0  0  0
    8.5248  -16.0311   21.3680 C   0  0  1  0  0  0  0  0  0  0  0  0
    8.4535  -17.5197   21.5941 C   0  0  0  0  0  0  0  0  0  0  0  0
    8.2239  -18.2821   20.3375 C   0  0  0  0  0  0  0  0  0  0  0  0
    8.1406  -19.7380   20.7494 C   0  0  0  0  0  0  0  0  0  0  0  0
    9.1798  -20.3892   21.0083 O   0  0  0  0  0  0  0  0  0  0  0  0
    8.8436  -15.3649   22.6504 C   0  0  0  0  0  0  0  0  0  0  0  0
   10.0114  -15.4101   23.0929 O   0  0  0  0  0  0  0  0  0  0  0  0
    6.9168  -20.3622   20.8435 O   0  0  0  0  0  0  0  0  0  0  0  0
    5.6416  -12.0776   26.8466 C   0  0  0  0  0  0  0  0  0  0  0  0
    6.9998  -12.7179   26.5122 C   0  0  2  0  0  0  0  0  0  0  0  0
    7.9951  -11.5932   26.6307 C   0  0  0  0  0  0  0  0  0  0  0  0
    6.8640  -13.2899   25.1453 C   0  0  0  0  0  0  0  0  0  0  0  0
    7.9940  -14.1340   24.6667 C   0  0  2  0  0  0  0  0  0  0  0  0
    7.8034  -14.6818   23.3571 N   0  0  0  0  0  0  0  0  0  0  0  0
    8.3916  -15.1612   25.6628 C   0  0  0  0  0  0  0  0  0  0  0  0
    7.5861  -16.0656   25.9963 O   0  0  0  0  0  0  0  0  0  0  0  0
    9.6775  -15.1679   26.2737 N   0  0  0  0  0  0  0  0  0  0  0  0
   10.1132  -16.1977   27.1942 C   0  0  1  0  0  0  0  0  0  0  0  0
   11.3630  -16.8971   26.6905 C   0  0  0  0  0  0  0  0  0  0  0  0
   11.8713  -17.9209   27.6399 C   0  0  0  0  0  0  0  0  0  0  0  0
   13.0393  -18.6470   27.0406 C   0  0  0  0  0  0  0  0  0  0  0  0
   13.5084  -19.7665   27.9099 C   0  0  0  0  0  0  0  0  0  0  0  0
   12.5473  -20.8649   27.9441 N   0  0  0  0  0  0  0  0  0  0  0  0
   10.4547  -15.5797   28.4986 C   0  0  0  0  0  0  0  0  0  0  0  0
   10.8010  -16.3080   29.4584 O   0  0  0  0  0  0  0  0  0  0  0  0
   10.4079  -14.2168   28.7075 O   0  0  0  0  0  0  0  0  0  0  0  0
  2  1  1  6
  2  3  1  0
  3  4  1  0
  4  5  1  0
  5  6  2  0
  7  2  1  0
  7  8  2  0
  9  5  1  0
 11 10  1  6
 11 13  1  0
 12 11  1  0
 14 13  1  1
 14 15  1  0
 15  7  1  0
 16 18  1  0
 16 14  1  0
 17 16  2  0
 19 18  1  0
 19 25  1  0
 19 20  1  6
 21 20  1  0
 22 21  1  0
 23 22  1  0
 24 23  1  0
 25 26  2  0
 25 27  1  0
M  END
$$$$
