ELK.pdb
     RDKit          3D

 27 26  0  0  1  0  0  0  0  0999 V2000
   10.3016  -17.9329   19.7958 N   0  0  0  0  0  0  0  0  0  0  0  0
   11.3214  -17.2862   20.6497 C   0  0  1  0  0  0  0  0  0  0  0  0
   12.3158  -16.6797   19.6928 C   0  0  0  0  0  0  0  0  0  0  0  0
   12.5591  -17.5329   18.4987 C   0  0  0  0  0  0  0  0  0  0  0  0
   13.7101  -16.8835   17.7572 C   0  0  0  0  0  0  0  0  0  0  0  0
   13.5102  -16.2561   16.6907 O   0  0  0  0  0  0  0  0  0  0  0  0
   10.6969  -16.2044   21.4434 C   0  0  0  0  0  0  0  0  0  0  0  0
   11.3825  -15.5852   22.2849 O   0  0  0  0  0  0  0  0  0  0  0  0
   14.9924  -16.9771   18.2503 O   0  0  0  0  0  0  0  0  0  0  0  0
    8.6577  -12.6043   19.9348 C   0  0  0  0  0  0  0  0  0  0  0  0
    7.7356  -13.8326   19.8486 C   0  0  2  0  0  0  0  0  0  0  0  0
    6.5170  -13.3477   19.1072 C   0  0  0  0  0  0  0  0  0  0  0  0
    7.4834  -14.2618   21.2507 C   0  0  0  0  0  0  0  0  0  0  0  0
    8.6337  -14.8753   21.9713 C   0  0  2  0  0  0  0  0  0  0  0  0
    9.3172  -15.8912   21.2281 N   0  0  0  0  0  0  0  0  0  0  0  0
    8.2694  -15.3177   23.3413 C   0  0  0  0  0  0  0  0  0  0  0  0
    7.6638  -14.5385   24.1187 O   0  0  0  0  0  0  0  0  0  0  0  0
    8.5836  -16.6185   23.8272 N   0  0  0  0  0  0  0  0  0  0  0  0
    8.2696  -17.0610   25.1701 C   0  0  1  0  0  0  0  0  0  0  0  0
    7.6356  -18.4404   25.1637 C   0  0  0  0  0  0  0  0  0  0  0  0
    7.2671  -18.9103   26.5244 C   0  0  0  0  0  0  0  0  0  0  0  0
    6.7403  -20.3135   26.4617 C   0  0  0  0  0  0  0  0  0  0  0  0
    6.3067  -20.8090   27.8016 C   0  0  0  0  0  0  0  0  0  0  0  0
    5.6977  -22.1333   27.7182 N   0  0  0  0  0  0  0  0  0  0  0  0
    9.5204  -17.1593   25.9611 C   0  0  0  0  0  0  0  0  0  0  0  0
   10.6188  -17.2902   25.3712 O   0  0  0  0  0  0  0  0  0  0  0  0
    9.5306  -17.1125   27.3399 O   0  0  0  0  0  0  0  0  0  0  0  0
  2  1  1  6
  2  3  1  0
  3  4  1  0
  4  5  1  0
  5  6  2  0
  7  2  1  0
  7  8  2  0
  9  5  1  0
 11 10  1  1
 11 13  1  0
 12 11  1  0
 14 13  1  6
 14 15  1  0
 15  7  1  0
 16 18  1  0
 16 14  1  0
 17 16  2  0
 19 18  1  0
 19 25  1  0
 19 20  1  6
 21 20  1  0
 22 21  1  0
 23 22  1  0
 24 23  1  0
 25 26  2  0
 25 27  1  0
M  END
$$$$
