ELK.pdb
     RDKit          3D

 27 26  0  0  1  0  0  0  0  0999 V2000
    9.4623  -18.3169   19.4880 N   0  0  0  0  0  0  0  0  0  0  0  0
   10.7500  -17.6950   19.8653 C   0  0  1  0  0  0  0  0  0  0  0  0
   11.3644  -17.2328   18.5687 C   0  0  0  0  0  0  0  0  0  0  0  0
   10.4967  -17.5058   17.3915 C   0  0  0  0  0  0  0  0  0  0  0  0
   11.3504  -17.2115   16.1747 C   0  0  0  0  0  0  0  0  0  0  0  0
   12.5253  -16.7947   16.3041 O   0  0  0  0  0  0  0  0  0  0  0  0
   10.5038  -16.5173   20.7271 C   0  0  0  0  0  0  0  0  0  0  0  0
   11.4736  -15.9070   21.2258 O   0  0  0  0  0  0  0  0  0  0  0  0
   10.8409  -17.4000   14.9092 O   0  0  0  0  0  0  0  0  0  0  0  0
    8.6168  -12.9479   19.5810 C   0  0  0  0  0  0  0  0  0  0  0  0
    7.5429  -13.9810   19.9628 C   0  0  2  0  0  0  0  0  0  0  0  0
    6.2399  -13.3580   19.5343 C   0  0  0  0  0  0  0  0  0  0  0  0
    7.6785  -14.1987   21.4284 C   0  0  0  0  0  0  0  0  0  0  0  0
    8.8289  -15.0362   21.8687 C   0  0  2  0  0  0  0  0  0  0  0  0
    9.1558  -16.1029   20.9705 N   0  0  0  0  0  0  0  0  0  0  0  0
    8.6860  -15.4963   23.2735 C   0  0  0  0  0  0  0  0  0  0  0  0
    8.2088  -14.7289   24.1461 O   0  0  0  0  0  0  0  0  0  0  0  0
    9.0757  -16.8015   23.6876 N   0  0  0  0  0  0  0  0  0  0  0  0
    8.9385  -17.2758   25.0493 C   0  0  1  0  0  0  0  0  0  0  0  0
    7.9616  -18.4346   25.1354 C   0  0  0  0  0  0  0  0  0  0  0  0
    7.8092  -18.9568   26.5182 C   0  0  0  0  0  0  0  0  0  0  0  0
    6.8946  -20.1459   26.5240 C   0  0  0  0  0  0  0  0  0  0  0  0
    6.5663  -20.5929   27.9100 C   0  0  0  0  0  0  0  0  0  0  0  0
    5.4901  -21.5794   27.9202 N   0  0  0  0  0  0  0  0  0  0  0  0
   10.2497  -17.7736   25.5317 C   0  0  0  0  0  0  0  0  0  0  0  0
   11.0984  -18.1863   24.7064 O   0  0  0  0  0  0  0  0  0  0  0  0
   10.5839  -17.8038   26.8699 O   0  0  0  0  0  0  0  0  0  0  0  0
  2  1  1  6
  2  3  1  0
  3  4  1  0
  4  5  1  0
  5  6  2  0
  7  2  1  0
  7  8  2  0
  9  5  1  0
 11 10  1  1
 11 13  1  0
 12 11  1  0
 14 13  1  6
 14 15  1  0
 15  7  1  0
 16 18  1  0
 16 14  1  0
 17 16  2  0
 19 18  1  0
 19 25  1  0
 19 20  1  6
 21 20  1  0
 22 21  1  0
 23 22  1  0
 24 23  1  0
 25 26  2  0
 25 27  1  0
M  END
$$$$
