ELK.pdb
     RDKit          3D

 27 26  0  0  1  0  0  0  0  0999 V2000
    7.8528  -14.8076   20.9474 N   0  0  0  0  0  0  0  0  0  0  0  0
    8.0527  -15.9337   21.8851 C   0  0  1  0  0  0  0  0  0  0  0  0
    9.0235  -16.8584   21.1961 C   0  0  0  0  0  0  0  0  0  0  0  0
    8.5034  -17.3790   19.9032 C   0  0  0  0  0  0  0  0  0  0  0  0
    9.5367  -18.3741   19.4153 C   0  0  0  0  0  0  0  0  0  0  0  0
    9.3805  -18.9754   18.3266 O   0  0  0  0  0  0  0  0  0  0  0  0
    8.6663  -15.4394   23.1377 C   0  0  0  0  0  0  0  0  0  0  0  0
    9.9099  -15.4527   23.2600 O   0  0  0  0  0  0  0  0  0  0  0  0
   10.6622  -18.6286   20.1668 O   0  0  0  0  0  0  0  0  0  0  0  0
    7.8312  -11.5528   25.2498 C   0  0  0  0  0  0  0  0  0  0  0  0
    6.7403  -12.6051   25.5130 C   0  0  2  0  0  0  0  0  0  0  0  0
    5.6761  -11.8709   26.2863 C   0  0  0  0  0  0  0  0  0  0  0  0
    7.4012  -13.7113   26.2568 C   0  0  0  0  0  0  0  0  0  0  0  0
    8.3225  -14.5786   25.4707 C   0  0  2  0  0  0  0  0  0  0  0  0
    7.8184  -14.9556   24.1842 N   0  0  0  0  0  0  0  0  0  0  0  0
    8.8095  -15.7411   26.2561 C   0  0  0  0  0  0  0  0  0  0  0  0
    8.0759  -16.7477   26.4191 O   0  0  0  0  0  0  0  0  0  0  0  0
   10.1037  -15.7676   26.8488 N   0  0  0  0  0  0  0  0  0  0  0  0
   10.5959  -16.8838   27.6296 C   0  0  1  0  0  0  0  0  0  0  0  0
   11.9178  -17.3975   27.0879 C   0  0  0  0  0  0  0  0  0  0  0  0
   12.4884  -18.4959   27.9100 C   0  0  0  0  0  0  0  0  0  0  0  0
   13.7940  -18.9519   27.3289 C   0  0  0  0  0  0  0  0  0  0  0  0
   14.3631  -20.1137   28.0742 C   0  0  0  0  0  0  0  0  0  0  0  0
   15.6332  -20.5532   27.5040 N   0  0  0  0  0  0  0  0  0  0  0  0
   10.8387  -16.4400   29.0240 C   0  0  0  0  0  0  0  0  0  0  0  0
   10.7969  -15.2185   29.3024 O   0  0  0  0  0  0  0  0  0  0  0  0
   11.1131  -17.3253   30.0460 O   0  0  0  0  0  0  0  0  0  0  0  0
  2  1  1  6
  2  3  1  0
  3  4  1  0
  4  5  1  0
  5  6  2  0
  7  2  1  0
  7  8  2  0
  9  5  1  0
 11 10  1  1
 11 13  1  0
 12 11  1  0
 14 13  1  1
 14 15  1  0
 15  7  1  0
 16 18  1  0
 16 14  1  0
 17 16  2  0
 19 18  1  0
 19 25  1  0
 19 20  1  6
 21 20  1  0
 22 21  1  0
 23 22  1  0
 24 23  1  0
 25 26  2  0
 25 27  1  0
M  END
$$$$
