ELK.pdb
     RDKit          3D

 27 26  0  0  1  0  0  0  0  0999 V2000
    9.1323  -16.0834   20.6409 N   0  0  0  0  0  0  0  0  0  0  0  0
    8.5834  -16.5421   21.9354 C   0  0  1  0  0  0  0  0  0  0  0  0
    9.0415  -17.9711   22.0785 C   0  0  0  0  0  0  0  0  0  0  0  0
    8.1915  -18.9265   21.3182 C   0  0  0  0  0  0  0  0  0  0  0  0
    8.4583  -20.2882   21.9269 C   0  0  0  0  0  0  0  0  0  0  0  0
    9.2985  -20.4233   22.8472 O   0  0  0  0  0  0  0  0  0  0  0  0
    9.1610  -15.7398   23.0367 C   0  0  0  0  0  0  0  0  0  0  0  0
   10.3294  -15.3083   22.9355 O   0  0  0  0  0  0  0  0  0  0  0  0
    7.7770  -21.3954   21.4727 O   0  0  0  0  0  0  0  0  0  0  0  0
    7.5883  -12.0127   24.8563 C   0  0  0  0  0  0  0  0  0  0  0  0
    6.8224  -13.2465   25.3637 C   0  0  2  0  0  0  0  0  0  0  0  0
    5.6946  -12.6862   26.1906 C   0  0  0  0  0  0  0  0  0  0  0  0
    7.8072  -14.0634   26.1231 C   0  0  0  0  0  0  0  0  0  0  0  0
    8.8635  -14.7405   25.3203 C   0  0  2  0  0  0  0  0  0  0  0  0
    8.3654  -15.4756   24.1966 N   0  0  0  0  0  0  0  0  0  0  0  0
    9.7854  -15.5427   26.1641 C   0  0  0  0  0  0  0  0  0  0  0  0
   10.3136  -15.0351   27.1847 O   0  0  0  0  0  0  0  0  0  0  0  0
   10.1068  -16.8961   25.8614 N   0  0  0  0  0  0  0  0  0  0  0  0
   11.0187  -17.6920   26.6569 C   0  0  1  0  0  0  0  0  0  0  0  0
   10.9041  -19.1676   26.3190 C   0  0  0  0  0  0  0  0  0  0  0  0
   11.8201  -20.0152   27.1255 C   0  0  0  0  0  0  0  0  0  0  0  0
   11.6821  -21.4537   26.7229 C   0  0  0  0  0  0  0  0  0  0  0  0
   12.5982  -22.3422   27.4976 C   0  0  0  0  0  0  0  0  0  0  0  0
   12.4080  -23.7482   27.1537 N   0  0  0  0  0  0  0  0  0  0  0  0
   12.4139  -17.2839   26.3622 C   0  0  0  0  0  0  0  0  0  0  0  0
   13.2370  -17.1658   27.3004 O   0  0  0  0  0  0  0  0  0  0  0  0
   12.8548  -17.0239   25.0811 O   0  0  0  0  0  0  0  0  0  0  0  0
  2  1  1  6
  2  3  1  0
  3  4  1  0
  4  5  1  0
  5  6  2  0
  7  2  1  0
  7  8  2  0
  9  5  1  0
 11 10  1  1
 11 13  1  0
 12 11  1  0
 14 13  1  1
 14 15  1  0
 15  7  1  0
 16 18  1  0
 16 14  1  0
 17 16  2  0
 19 18  1  0
 19 25  1  0
 19 20  1  6
 21 20  1  0
 22 21  1  0
 23 22  1  0
 24 23  1  0
 25 26  2  0
 25 27  1  0
M  END
$$$$
