ELK.pdb
     RDKit          3D

 27 26  0  0  1  0  0  0  0  0999 V2000
    8.5604  -15.0201   20.3640 N   0  0  0  0  0  0  0  0  0  0  0  0
    7.5800  -15.4344   21.3909 C   0  0  1  0  0  0  0  0  0  0  0  0
    7.4027  -16.9187   21.1966 C   0  0  0  0  0  0  0  0  0  0  0  0
    7.0008  -17.2733   19.8089 C   0  0  0  0  0  0  0  0  0  0  0  0
    6.6939  -18.7570   19.8362 C   0  0  0  0  0  0  0  0  0  0  0  0
    6.8428  -19.4209   20.8888 O   0  0  0  0  0  0  0  0  0  0  0  0
    8.1348  -15.1894   22.7407 C   0  0  0  0  0  0  0  0  0  0  0  0
    9.3572  -15.3535   22.9420 O   0  0  0  0  0  0  0  0  0  0  0  0
    6.2464  -19.3927   18.6996 O   0  0  0  0  0  0  0  0  0  0  0  0
    8.0203  -11.6171   25.7120 C   0  0  0  0  0  0  0  0  0  0  0  0
    6.6733  -12.3177   25.4645 C   0  0  2  0  0  0  0  0  0  0  0  0
    5.6648  -11.4896   26.2174 C   0  0  0  0  0  0  0  0  0  0  0  0
    6.8324  -13.7111   25.9613 C   0  0  0  0  0  0  0  0  0  0  0  0
    7.6931  -14.6104   25.1432 C   0  0  2  0  0  0  0  0  0  0  0  0
    7.2556  -14.7685   23.7886 N   0  0  0  0  0  0  0  0  0  0  0  0
    7.9500  -15.9095   25.8154 C   0  0  0  0  0  0  0  0  0  0  0  0
    7.0196  -16.7401   25.9656 O   0  0  0  0  0  0  0  0  0  0  0  0
    9.2362  -16.2660   26.3108 N   0  0  0  0  0  0  0  0  0  0  0  0
    9.5320  -17.5592   26.8922 C   0  0  1  0  0  0  0  0  0  0  0  0
   10.3938  -18.3980   25.9656 C   0  0  0  0  0  0  0  0  0  0  0  0
   10.7631  -19.7110   26.5553 C   0  0  0  0  0  0  0  0  0  0  0  0
   11.5755  -20.5069   25.5771 C   0  0  0  0  0  0  0  0  0  0  0  0
   11.9740  -21.8351   26.1302 C   0  0  0  0  0  0  0  0  0  0  0  0
   12.5982  -22.6791   25.1156 N   0  0  0  0  0  0  0  0  0  0  0  0
   10.2975  -17.3707   28.1485 C   0  0  0  0  0  0  0  0  0  0  0  0
   10.5082  -18.3520   28.8997 O   0  0  0  0  0  0  0  0  0  0  0  0
   10.7967  -16.1440   28.5350 O   0  0  0  0  0  0  0  0  0  0  0  0
  2  1  1  6
  2  3  1  0
  3  4  1  0
  4  5  1  0
  5  6  2  0
  7  2  1  0
  7  8  2  0
  9  5  1  0
 11 10  1  1
 11 13  1  0
 12 11  1  0
 14 13  1  1
 14 15  1  0
 15  7  1  0
 16 18  1  0
 16 14  1  0
 17 16  2  0
 19 18  1  0
 19 25  1  0
 19 20  1  6
 21 20  1  0
 22 21  1  0
 23 22  1  0
 24 23  1  0
 25 26  2  0
 25 27  1  0
M  END
$$$$
