ELK.pdb
     RDKit          3D

 27 26  0  0  1  0  0  0  0  0999 V2000
   11.3993  -17.0504   17.3725 N   0  0  0  0  0  0  0  0  0  0  0  0
   10.7282  -17.7137   18.5114 C   0  0  1  0  0  0  0  0  0  0  0  0
   11.6246  -18.8663   18.8858 C   0  0  0  0  0  0  0  0  0  0  0  0
   11.8181  -19.8307   17.7698 C   0  0  0  0  0  0  0  0  0  0  0  0
   12.6349  -20.9690   18.3472 C   0  0  0  0  0  0  0  0  0  0  0  0
   12.0722  -21.9905   18.8063 O   0  0  0  0  0  0  0  0  0  0  0  0
   10.6434  -16.7793   19.6558 C   0  0  0  0  0  0  0  0  0  0  0  0
   11.6533  -16.5830   20.3652 O   0  0  0  0  0  0  0  0  0  0  0  0
   14.0096  -20.8913   18.3731 O   0  0  0  0  0  0  0  0  0  0  0  0
    8.8493  -12.5990   19.4172 C   0  0  0  0  0  0  0  0  0  0  0  0
    7.7970  -13.7107   19.5703 C   0  0  2  0  0  0  0  0  0  0  0  0
    6.4718  -13.0081   19.4306 C   0  0  0  0  0  0  0  0  0  0  0  0
    8.0379  -14.3300   20.9016 C   0  0  0  0  0  0  0  0  0  0  0  0
    9.2369  -15.2064   21.0159 C   0  0  2  0  0  0  0  0  0  0  0  0
    9.4022  -16.1195   19.9250 N   0  0  0  0  0  0  0  0  0  0  0  0
    9.3216  -15.8759   22.3388 C   0  0  0  0  0  0  0  0  0  0  0  0
    8.3648  -16.5737   22.7581 O   0  0  0  0  0  0  0  0  0  0  0  0
   10.4674  -15.7600   23.1758 N   0  0  0  0  0  0  0  0  0  0  0  0
   10.7257  -16.6437   24.2939 C   0  0  1  0  0  0  0  0  0  0  0  0
   10.9818  -18.0655   23.8273 C   0  0  0  0  0  0  0  0  0  0  0  0
   11.3070  -18.9880   24.9459 C   0  0  0  0  0  0  0  0  0  0  0  0
   11.6442  -20.3489   24.4122 C   0  0  0  0  0  0  0  0  0  0  0  0
   11.9655  -21.3147   25.5044 C   0  0  0  0  0  0  0  0  0  0  0  0
   12.2162  -22.6559   24.9849 N   0  0  0  0  0  0  0  0  0  0  0  0
   11.9455  -16.1920   25.0067 C   0  0  0  0  0  0  0  0  0  0  0  0
   12.2553  -16.7189   26.1012 O   0  0  0  0  0  0  0  0  0  0  0  0
   12.7687  -15.2015   24.5121 O   0  0  0  0  0  0  0  0  0  0  0  0
  2  1  1  6
  2  3  1  0
  3  4  1  0
  4  5  1  0
  5  6  2  0
  7  2  1  0
  7  8  2  0
  9  5  1  0
 11 10  1  1
 11 13  1  0
 12 11  1  0
 14 13  1  6
 14 15  1  0
 15  7  1  0
 16 18  1  0
 16 14  1  0
 17 16  2  0
 19 18  1  0
 19 25  1  0
 19 20  1  6
 21 20  1  0
 22 21  1  0
 23 22  1  0
 24 23  1  0
 25 26  2  0
 25 27  1  0
M  END
$$$$
