ELK.pdb
     RDKit          3D

 27 26  0  0  1  0  0  0  0  0999 V2000
    9.0358  -15.2164   20.5784 N   0  0  0  0  0  0  0  0  0  0  0  0
    8.0454  -15.5802   21.6148 C   0  0  1  0  0  0  0  0  0  0  0  0
    7.8633  -17.0710   21.4860 C   0  0  0  0  0  0  0  0  0  0  0  0
    9.0110  -17.7346   20.8109 C   0  0  0  0  0  0  0  0  0  0  0  0
    8.6336  -19.1981   20.7020 C   0  0  0  0  0  0  0  0  0  0  0  0
    9.5036  -20.0655   20.4537 O   0  0  0  0  0  0  0  0  0  0  0  0
    8.5906  -15.2769   22.9568 C   0  0  0  0  0  0  0  0  0  0  0  0
    9.8199  -15.3767   23.1578 O   0  0  0  0  0  0  0  0  0  0  0  0
    7.3251  -19.5906   20.8755 O   0  0  0  0  0  0  0  0  0  0  0  0
    7.8211  -11.5385   25.6061 C   0  0  0  0  0  0  0  0  0  0  0  0
    6.6474  -12.5315   25.5520 C   0  0  2  0  0  0  0  0  0  0  0  0
    5.5459  -11.8683   26.3372 C   0  0  0  0  0  0  0  0  0  0  0  0
    7.1521  -13.8033   26.1365 C   0  0  0  0  0  0  0  0  0  0  0  0
    8.1430  -14.5586   25.3202 C   0  0  2  0  0  0  0  0  0  0  0  0
    7.6941  -14.8747   23.9974 N   0  0  0  0  0  0  0  0  0  0  0  0
    8.6800  -15.7421   26.0389 C   0  0  0  0  0  0  0  0  0  0  0  0
    7.9550  -16.7500   26.2302 O   0  0  0  0  0  0  0  0  0  0  0  0
   10.0139  -15.7878   26.5344 N   0  0  0  0  0  0  0  0  0  0  0  0
   10.5760  -16.9486   27.1935 C   0  0  1  0  0  0  0  0  0  0  0  0
   12.0012  -17.2068   26.7388 C   0  0  0  0  0  0  0  0  0  0  0  0
   12.6256  -18.3633   27.4321 C   0  0  0  0  0  0  0  0  0  0  0  0
   14.0192  -18.5812   26.9215 C   0  0  0  0  0  0  0  0  0  0  0  0
   14.6668  -19.7697   27.5515 C   0  0  0  0  0  0  0  0  0  0  0  0
   15.9372  -20.0974   26.9110 N   0  0  0  0  0  0  0  0  0  0  0  0
   10.6212  -16.7102   28.6568 C   0  0  0  0  0  0  0  0  0  0  0  0
   10.9843  -17.6323   29.4246 O   0  0  0  0  0  0  0  0  0  0  0  0
   10.2762  -15.4995   29.2211 O   0  0  0  0  0  0  0  0  0  0  0  0
  2  1  1  6
  2  3  1  0
  3  4  1  0
  4  5  1  0
  5  6  2  0
  7  2  1  0
  7  8  2  0
  9  5  1  0
 11 10  1  1
 11 13  1  0
 12 11  1  0
 14 13  1  1
 14 15  1  0
 15  7  1  0
 16 18  1  0
 16 14  1  0
 17 16  2  0
 19 18  1  0
 19 25  1  0
 19 20  1  6
 21 20  1  0
 22 21  1  0
 23 22  1  0
 24 23  1  0
 25 26  2  0
 25 27  1  0
M  END
$$$$
