ELK.pdb
     RDKit          3D

 27 26  0  0  1  0  0  0  0  0999 V2000
    7.4121  -17.1140   22.5910 N   0  0  0  0  0  0  0  0  0  0  0  0
    8.7917  -16.7477   22.2035 C   0  0  1  0  0  0  0  0  0  0  0  0
    8.6631  -16.0750   20.8607 C   0  0  0  0  0  0  0  0  0  0  0  0
    8.0851  -16.9697   19.8221 C   0  0  0  0  0  0  0  0  0  0  0  0
    8.2191  -16.2194   18.5124 C   0  0  0  0  0  0  0  0  0  0  0  0
    9.3292  -16.1314   17.9371 O   0  0  0  0  0  0  0  0  0  0  0  0
    9.3440  -15.7782   23.1757 C   0  0  0  0  0  0  0  0  0  0  0  0
   10.4879  -15.3091   22.9936 O   0  0  0  0  0  0  0  0  0  0  0  0
    7.1173  -15.6243   17.9393 O   0  0  0  0  0  0  0  0  0  0  0  0
    7.4209  -12.1113   24.4141 C   0  0  0  0  0  0  0  0  0  0  0  0
    6.8895  -13.2973   25.2373 C   0  0  2  0  0  0  0  0  0  0  0  0
    5.7311  -12.7347   26.0192 C   0  0  0  0  0  0  0  0  0  0  0  0
    8.0303  -13.7718   26.0662 C   0  0  0  0  0  0  0  0  0  0  0  0
    9.0652  -14.5816   25.3649 C   0  0  2  0  0  0  0  0  0  0  0  0
    8.5527  -15.3988   24.3061 N   0  0  0  0  0  0  0  0  0  0  0  0
    9.9215  -15.3426   26.3100 C   0  0  0  0  0  0  0  0  0  0  0  0
   10.3288  -14.8046   27.3696 O   0  0  0  0  0  0  0  0  0  0  0  0
   10.3126  -16.6891   26.0636 N   0  0  0  0  0  0  0  0  0  0  0  0
   11.1420  -17.4533   26.9724 C   0  0  1  0  0  0  0  0  0  0  0  0
   10.4535  -18.7357   27.4037 C   0  0  0  0  0  0  0  0  0  0  0  0
   11.3078  -19.5813   28.2774 C   0  0  0  0  0  0  0  0  0  0  0  0
   10.4890  -20.1687   29.3887 C   0  0  0  0  0  0  0  0  0  0  0  0
   11.3262  -20.9444   30.3512 C   0  0  0  0  0  0  0  0  0  0  0  0
   10.5301  -21.4815   31.4508 N   0  0  0  0  0  0  0  0  0  0  0  0
   12.3973  -17.8420   26.2845 C   0  0  0  0  0  0  0  0  0  0  0  0
   12.4662  -17.7746   25.0346 O   0  0  0  0  0  0  0  0  0  0  0  0
   13.5115  -18.2819   26.9689 O   0  0  0  0  0  0  0  0  0  0  0  0
  2  1  1  1
  2  3  1  0
  3  4  1  0
  4  5  1  0
  5  6  2  0
  7  2  1  0
  7  8  2  0
  9  5  1  0
 11 10  1  6
 11 13  1  0
 12 11  1  0
 14 13  1  1
 14 15  1  0
 15  7  1  0
 16 18  1  0
 16 14  1  0
 17 16  2  0
 19 18  1  0
 19 25  1  0
 19 20  1  6
 21 20  1  0
 22 21  1  0
 23 22  1  0
 24 23  1  0
 25 26  2  0
 25 27  1  0
M  END
$$$$
