HII.pdb
     RDKit          3D

 27 27  0  0  1  0  0  0  0  0999 V2000
   11.4104  -17.9757   19.5603 N   0  0  0  0  0  0  0  0  0  0  0  0
   10.3665  -18.0385   20.5610 C   0  0  1  0  0  0  0  0  0  0  0  0
   10.5339  -19.1632   21.5422 C   0  0  0  0  0  0  0  0  0  0  0  0
   10.3276  -20.5085   20.9785 C   0  0  0  0  0  0  0  0  0  0  0  0
    9.7916  -20.8717   19.7680 C   0  0  0  0  0  0  0  0  0  0  0  0
    9.7920  -22.2222   19.6881 N   0  0  0  0  0  0  0  0  0  0  0  0
   10.3171  -22.6888   20.8254 C   0  0  0  0  0  0  0  0  0  0  0  0
   10.6500  -21.6716   21.6248 N   0  0  0  0  0  0  0  0  0  0  0  0
   10.2469  -16.7246   21.2180 C   0  0  0  0  0  0  0  0  0  0  0  0
   11.2617  -16.0315   21.4423 O   0  0  0  0  0  0  0  0  0  0  0  0
    6.5606  -13.3292   19.6111 C   0  0  0  0  0  0  0  0  0  0  0  0
    7.8813  -13.9504   20.0971 C   0  0  0  0  0  0  0  0  0  0  0  0
    7.6888  -14.2483   21.5420 C   0  0  2  0  0  0  0  0  0  0  0  0
    7.1866  -12.9995   22.2347 C   0  0  0  0  0  0  0  0  0  0  0  0
    8.8627  -14.8857   22.2380 C   0  0  2  0  0  0  0  0  0  0  0  0
    8.9932  -16.2131   21.6108 N   0  0  0  0  0  0  0  0  0  0  0  0
    8.6744  -15.1036   23.6809 C   0  0  0  0  0  0  0  0  0  0  0  0
    7.9958  -16.0878   24.0714 O   0  0  0  0  0  0  0  0  0  0  0  0
    6.5904  -11.6699   26.3380 C   0  0  0  0  0  0  0  0  0  0  0  0
    7.8462  -12.3828   25.9530 C   0  0  0  0  0  0  0  0  0  0  0  0
    7.8621  -13.7311   26.5957 C   0  0  2  0  0  0  0  0  0  0  0  0
    7.8911  -13.5792   28.0809 C   0  0  0  0  0  0  0  0  0  0  0  0
    9.0460  -14.5729   26.1188 C   0  0  2  0  0  0  0  0  0  0  0  0
    9.2103  -14.2739   24.7094 N   0  0  0  0  0  0  0  0  0  0  0  0
    8.8121  -15.9882   26.3869 C   0  0  0  0  0  0  0  0  0  0  0  0
    9.4600  -16.5909   27.2734 O   0  0  0  0  0  0  0  0  0  0  0  0
    7.8754  -16.7193   25.6820 O   0  0  0  0  0  0  0  0  0  0  0  0
  2  1  1  6
  3  2  1  0
  3  4  1  0
  4  5  2  0
  5  6  1  0
  7  6  1  0
  8  4  1  0
  8  7  2  0
  9 10  2  0
  9  2  1  0
 12 11  1  0
 13 12  1  0
 13 14  1  1
 15 13  1  0
 15 16  1  6
 16  9  1  0
 17 15  1  0
 18 17  2  0
 19 20  1  0
 21 22  1  1
 21 20  1  0
 23 21  1  0
 23 24  1  6
 24 17  1  0
 25 27  1  0
 25 23  1  0
 26 25  2  0
M  END
$$$$
