HII.pdb
     RDKit          3D

 27 27  0  0  1  0  0  0  0  0999 V2000
   11.1962  -17.4986   19.4951 N   0  0  0  0  0  0  0  0  0  0  0  0
   12.0005  -17.4592   20.6979 C   0  0  1  0  0  0  0  0  0  0  0  0
   13.4631  -17.2334   20.4422 C   0  0  0  0  0  0  0  0  0  0  0  0
   14.1399  -18.3291   19.7269 C   0  0  0  0  0  0  0  0  0  0  0  0
   14.6444  -19.5077   20.2177 C   0  0  0  0  0  0  0  0  0  0  0  0
   15.1877  -20.2008   19.1909 N   0  0  0  0  0  0  0  0  0  0  0  0
   15.0247  -19.4683   18.0847 C   0  0  0  0  0  0  0  0  0  0  0  0
   14.3928  -18.3293   18.3813 N   0  0  0  0  0  0  0  0  0  0  0  0
   11.4278  -16.4719   21.6303 C   0  0  0  0  0  0  0  0  0  0  0  0
   12.0793  -15.4592   21.9627 O   0  0  0  0  0  0  0  0  0  0  0  0
    6.3687  -14.8695   21.1963 C   0  0  0  0  0  0  0  0  0  0  0  0
    7.8910  -14.8511   21.4160 C   0  0  0  0  0  0  0  0  0  0  0  0
    8.1271  -15.5298   22.7188 C   0  0  2  0  0  0  0  0  0  0  0  0
    7.2654  -14.8715   23.7748 C   0  0  0  0  0  0  0  0  0  0  0  0
    9.5697  -15.6706   23.1282 C   0  0  2  0  0  0  0  0  0  0  0  0
   10.1368  -16.6384   22.1721 N   0  0  0  0  0  0  0  0  0  0  0  0
    9.7722  -16.2229   24.4769 C   0  0  0  0  0  0  0  0  0  0  0  0
    9.9681  -17.4576   24.6134 O   0  0  0  0  0  0  0  0  0  0  0  0
   10.1691  -12.5512   28.5048 C   0  0  0  0  0  0  0  0  0  0  0  0
   10.5225  -13.6391   27.5430 C   0  0  0  0  0  0  0  0  0  0  0  0
    9.8975  -14.9177   27.9966 C   0  0  2  0  0  0  0  0  0  0  0  0
   10.4674  -15.3139   29.3188 C   0  0  0  0  0  0  0  0  0  0  0  0
   10.0882  -16.0370   26.9726 C   0  0  2  0  0  0  0  0  0  0  0  0
    9.7678  -15.4598   25.6815 N   0  0  0  0  0  0  0  0  0  0  0  0
    9.2619  -17.1911   27.3119 C   0  0  0  0  0  0  0  0  0  0  0  0
    8.0352  -17.2009   27.0588 O   0  0  0  0  0  0  0  0  0  0  0  0
    9.7901  -18.3129   27.9212 O   0  0  0  0  0  0  0  0  0  0  0  0
  2  1  1  6
  3  2  1  0
  3  4  1  0
  4  5  2  0
  5  6  1  0
  7  6  1  0
  8  4  1  0
  8  7  2  0
  9 10  2  0
  9  2  1  0
 12 11  1  0
 13 12  1  0
 13 14  1  1
 15 13  1  0
 15 16  1  6
 16  9  1  0
 17 15  1  0
 18 17  2  0
 19 20  1  0
 21 22  1  1
 21 20  1  0
 23 21  1  0
 23 24  1  6
 24 17  1  0
 25 27  1  0
 25 23  1  0
 26 25  2  0
M  END
$$$$
