HII.pdb
     RDKit          3D

 27 27  0  0  1  0  0  0  0  0999 V2000
   13.0971  -16.5921   19.8650 N   0  0  0  0  0  0  0  0  0  0  0  0
   12.0260  -17.2510   20.5815 C   0  0  1  0  0  0  0  0  0  0  0  0
   12.4167  -18.5751   21.1729 C   0  0  0  0  0  0  0  0  0  0  0  0
   12.7233  -19.6246   20.1856 C   0  0  0  0  0  0  0  0  0  0  0  0
   11.8915  -20.5623   19.6259 C   0  0  0  0  0  0  0  0  0  0  0  0
   12.6174  -21.3256   18.7770 N   0  0  0  0  0  0  0  0  0  0  0  0
   13.8744  -20.8720   18.8084 C   0  0  0  0  0  0  0  0  0  0  0  0
   13.9662  -19.8417   19.6539 N   0  0  0  0  0  0  0  0  0  0  0  0
   11.4716  -16.3229   21.5831 C   0  0  0  0  0  0  0  0  0  0  0  0
   12.2241  -15.5704   22.2374 O   0  0  0  0  0  0  0  0  0  0  0  0
    6.8589  -13.8604   20.4495 C   0  0  0  0  0  0  0  0  0  0  0  0
    8.3057  -14.1089   20.9089 C   0  0  0  0  0  0  0  0  0  0  0  0
    8.2079  -14.8709   22.1830 C   0  0  2  0  0  0  0  0  0  0  0  0
    7.3187  -14.1072   23.1408 C   0  0  0  0  0  0  0  0  0  0  0  0
    9.5191  -15.2921   22.7928 C   0  0  2  0  0  0  0  0  0  0  0  0
   10.0856  -16.2558   21.8322 N   0  0  0  0  0  0  0  0  0  0  0  0
    9.3987  -15.9861   24.0847 C   0  0  0  0  0  0  0  0  0  0  0  0
    9.2905  -17.2389   24.1026 O   0  0  0  0  0  0  0  0  0  0  0  0
   10.1024  -12.8044   28.4609 C   0  0  0  0  0  0  0  0  0  0  0  0
   10.3380  -13.8547   27.4242 C   0  0  0  0  0  0  0  0  0  0  0  0
    9.4748  -15.0376   27.7188 C   0  0  2  0  0  0  0  0  0  0  0  0
    9.8789  -15.6418   29.0232 C   0  0  0  0  0  0  0  0  0  0  0  0
    9.5395  -16.0794   26.6015 C   0  0  2  0  0  0  0  0  0  0  0  0
    9.3949  -15.3460   25.3589 N   0  0  0  0  0  0  0  0  0  0  0  0
    8.5165  -17.1026   26.7921 C   0  0  0  0  0  0  0  0  0  0  0  0
    7.3587  -16.9468   26.3405 O   0  0  0  0  0  0  0  0  0  0  0  0
    8.7767  -18.2766   27.4723 O   0  0  0  0  0  0  0  0  0  0  0  0
  2  1  1  1
  3  2  1  0
  3  4  1  0
  4  5  2  0
  5  6  1  0
  7  6  1  0
  8  4  1  0
  8  7  2  0
  9 10  2  0
  9  2  1  0
 12 11  1  0
 13 12  1  0
 13 14  1  1
 15 13  1  0
 15 16  1  6
 16  9  1  0
 17 15  1  0
 18 17  2  0
 19 20  1  0
 21 22  1  1
 21 20  1  0
 23 21  1  0
 23 24  1  6
 24 17  1  0
 25 27  1  0
 25 23  1  0
 26 25  2  0
M  END
$$$$
