HII.pdb
     RDKit          3D

 27 27  0  0  1  0  0  0  0  0999 V2000
    9.6593  -16.0881   19.5597 N   0  0  0  0  0  0  0  0  0  0  0  0
    9.1956  -16.7357   20.7682 C   0  0  1  0  0  0  0  0  0  0  0  0
    9.7183  -18.1323   20.9467 C   0  0  0  0  0  0  0  0  0  0  0  0
    9.3640  -19.0659   19.8636 C   0  0  0  0  0  0  0  0  0  0  0  0
    8.1519  -19.6406   19.5721 C   0  0  0  0  0  0  0  0  0  0  0  0
    8.3063  -20.4399   18.4917 N   0  0  0  0  0  0  0  0  0  0  0  0
    9.5879  -20.3640   18.1194 C   0  0  0  0  0  0  0  0  0  0  0  0
   10.2510  -19.5384   18.9337 N   0  0  0  0  0  0  0  0  0  0  0  0
    9.4865  -15.8683   21.9237 C   0  0  0  0  0  0  0  0  0  0  0  0
   10.5584  -15.2296   21.9850 O   0  0  0  0  0  0  0  0  0  0  0  0
    6.0829  -12.6492   25.5980 C   0  0  0  0  0  0  0  0  0  0  0  0
    7.5423  -13.1052   25.4296 C   0  0  0  0  0  0  0  0  0  0  0  0
    7.5072  -14.2597   24.4919 C   0  0  2  0  0  0  0  0  0  0  0  0
    6.5201  -15.2818   25.0135 C   0  0  0  0  0  0  0  0  0  0  0  0
    8.8460  -14.8507   24.1356 C   0  0  2  0  0  0  0  0  0  0  0  0
    8.5713  -15.7334   22.9877 N   0  0  0  0  0  0  0  0  0  0  0  0
    9.4478  -15.6830   25.1893 C   0  0  0  0  0  0  0  0  0  0  0  0
    9.7458  -16.8779   24.9348 O   0  0  0  0  0  0  0  0  0  0  0  0
   10.3981  -13.1056   29.8542 C   0  0  0  0  0  0  0  0  0  0  0  0
   10.8067  -13.8632   28.6325 C   0  0  0  0  0  0  0  0  0  0  0  0
   10.4237  -15.2980   28.7934 C   0  0  2  0  0  0  0  0  0  0  0  0
   11.3179  -15.9468   29.7981 C   0  0  0  0  0  0  0  0  0  0  0  0
   10.4742  -16.0512   27.4639 C   0  0  2  0  0  0  0  0  0  0  0  0
    9.7341  -15.2423   26.5149 N   0  0  0  0  0  0  0  0  0  0  0  0
    9.9388  -17.4002   27.6161 C   0  0  0  0  0  0  0  0  0  0  0  0
    8.7030  -17.6027   27.6434 O   0  0  0  0  0  0  0  0  0  0  0  0
   10.7624  -18.5030   27.7356 O   0  0  0  0  0  0  0  0  0  0  0  0
  2  1  1  6
  3  2  1  0
  3  4  1  0
  4  5  2  0
  5  6  1  0
  7  6  1  0
  8  4  1  0
  8  7  2  0
  9 10  2  0
  9  2  1  0
 12 11  1  0
 13 12  1  0
 13 14  1  1
 15 13  1  0
 15 16  1  6
 16  9  1  0
 17 15  1  0
 18 17  2  0
 19 20  1  0
 21 22  1  1
 21 20  1  0
 23 21  1  0
 23 24  1  6
 24 17  1  0
 25 27  1  0
 25 23  1  0
 26 25  2  0
M  END
$$$$
