HII.pdb
     RDKit          3D

 27 27  0  0  1  0  0  0  0  0999 V2000
   12.2114  -17.1716   19.3020 N   0  0  0  0  0  0  0  0  0  0  0  0
   11.2738  -17.7033   20.2680 C   0  0  1  0  0  0  0  0  0  0  0  0
   11.7074  -19.0035   20.8820 C   0  0  0  0  0  0  0  0  0  0  0  0
   11.6923  -20.1544   19.9626 C   0  0  0  0  0  0  0  0  0  0  0  0
   10.6299  -20.7428   19.3226 C   0  0  0  0  0  0  0  0  0  0  0  0
   11.0942  -21.7789   18.5871 N   0  0  0  0  0  0  0  0  0  0  0  0
   12.4178  -21.8338   18.7663 C   0  0  0  0  0  0  0  0  0  0  0  0
   12.8062  -20.8608   19.5953 N   0  0  0  0  0  0  0  0  0  0  0  0
   10.9797  -16.6692   21.2761 C   0  0  0  0  0  0  0  0  0  0  0  0
   11.8871  -15.9284   21.7100 O   0  0  0  0  0  0  0  0  0  0  0  0
    6.4431  -13.9270   20.7676 C   0  0  0  0  0  0  0  0  0  0  0  0
    7.9317  -14.2226   21.0179 C   0  0  0  0  0  0  0  0  0  0  0  0
    7.9977  -14.9205   22.3302 C   0  0  2  0  0  0  0  0  0  0  0  0
    7.3342  -14.0526   23.3780 C   0  0  0  0  0  0  0  0  0  0  0  0
    9.3615  -15.4123   22.7389 C   0  0  2  0  0  0  0  0  0  0  0  0
    9.6752  -16.4852   21.7783 N   0  0  0  0  0  0  0  0  0  0  0  0
    9.4211  -16.0033   24.0851 C   0  0  0  0  0  0  0  0  0  0  0  0
    9.1558  -17.2236   24.2338 O   0  0  0  0  0  0  0  0  0  0  0  0
   10.7430  -12.6298   28.2257 C   0  0  0  0  0  0  0  0  0  0  0  0
   10.9011  -13.7634   27.2648 C   0  0  0  0  0  0  0  0  0  0  0  0
    9.9193  -14.8364   27.6055 C   0  0  2  0  0  0  0  0  0  0  0  0
   10.2286  -15.3890   28.9578 C   0  0  0  0  0  0  0  0  0  0  0  0
    9.9111  -15.9509   26.5589 C   0  0  2  0  0  0  0  0  0  0  0  0
    9.7651  -15.2951   25.2740 N   0  0  0  0  0  0  0  0  0  0  0  0
    8.8515  -16.9139   26.8411 C   0  0  0  0  0  0  0  0  0  0  0  0
    9.0960  -17.9783   27.4544 O   0  0  0  0  0  0  0  0  0  0  0  0
    7.5448  -16.6969   26.4484 O   0  0  0  0  0  0  0  0  0  0  0  0
  2  1  1  6
  3  2  1  0
  3  4  1  0
  4  5  2  0
  5  6  1  0
  7  6  1  0
  8  4  1  0
  8  7  2  0
  9 10  2  0
  9  2  1  0
 12 11  1  0
 13 12  1  0
 13 14  1  1
 15 13  1  0
 15 16  1  6
 16  9  1  0
 17 15  1  0
 18 17  2  0
 19 20  1  0
 21 22  1  1
 21 20  1  0
 23 21  1  0
 23 24  1  6
 24 17  1  0
 25 27  1  0
 25 23  1  0
 26 25  2  0
M  END
$$$$
