EPT.pdb
     RDKit          3D

 24 24  0  0  1  0  0  0  0  0999 V2000
    8.4594  -14.5643   21.2413 N   0  0  0  0  0  0  0  0  0  0  0  0
    7.5023  -14.4094   22.3414 C   0  0  1  0  0  0  0  0  0  0  0  0
    6.5557  -15.5624   22.2321 C   0  0  0  0  0  0  0  0  0  0  0  0
    7.2014  -16.9148   22.3677 C   0  0  0  0  0  0  0  0  0  0  0  0
    6.2620  -18.0201   22.5685 C   0  0  0  0  0  0  0  0  0  0  0  0
    5.0526  -18.0475   22.2891 O   0  0  0  0  0  0  0  0  0  0  0  0
    8.1687  -14.2662   23.6451 C   0  0  0  0  0  0  0  0  0  0  0  0
    9.2461  -14.8714   23.8409 O   0  0  0  0  0  0  0  0  0  0  0  0
    6.7786  -19.1933   23.1444 O   0  0  0  0  0  0  0  0  0  0  0  0
    7.6796  -13.4774   24.7306 N   0  0  0  0  0  0  0  0  0  0  0  0
    6.6305  -12.4950   24.5171 C   0  0  0  0  0  0  0  0  0  0  0  0
    6.4829  -11.7561   25.8321 C   0  0  0  0  0  0  0  0  0  0  0  0
    6.8766  -12.8355   26.8033 C   0  0  0  0  0  0  0  0  0  0  0  0
    8.0612  -13.4530   26.0968 C   0  0  1  0  0  0  0  0  0  0  0  0
    8.3327  -14.7527   26.7289 C   0  0  0  0  0  0  0  0  0  0  0  0
    7.7147  -15.8123   26.5989 O   0  0  0  0  0  0  0  0  0  0  0  0
   10.6783  -16.8935   26.0188 C   0  0  0  0  0  0  0  0  0  0  0  0
   11.0954  -16.6151   27.4426 C   0  0  1  0  0  0  0  0  0  0  0  0
   12.1769  -15.7354   27.4414 O   0  0  0  0  0  0  0  0  0  0  0  0
    9.9075  -16.0411   28.1951 C   0  0  2  0  0  0  0  0  0  0  0  0
    9.4693  -14.7895   27.6148 N   0  0  0  0  0  0  0  0  0  0  0  0
   10.3607  -15.7716   29.5785 C   0  0  0  0  0  0  0  0  0  0  0  0
   10.6817  -16.6933   30.3793 O   0  0  0  0  0  0  0  0  0  0  0  0
   10.4445  -14.4679   30.0358 O   0  0  0  0  0  0  0  0  0  0  0  0
  2  1  1  6
  2  3  1  0
  3  4  1  0
  4  5  1  0
  5  9  1  0
  6  5  2  0
  7  2  1  0
  7 10  1  0
  8  7  2  0
 10 14  1  0
 11 10  1  0
 11 12  1  0
 12 13  1  0
 14 13  1  0
 14 15  1  1
 15 21  1  0
 16 15  2  0
 18 17  1  6
 19 18  1  0
 20 21  1  6
 20 22  1  0
 20 18  1  0
 22 24  1  0
 23 22  2  0
M  END
$$$$
