EPT.pdb
     RDKit          3D

 24 24  0  0  1  0  0  0  0  0999 V2000
   10.4382  -16.1979   20.1822 N   0  0  0  0  0  0  0  0  0  0  0  0
    9.3016  -16.3307   21.0992 C   0  0  1  0  0  0  0  0  0  0  0  0
    8.9279  -17.7790   21.0882 C   0  0  0  0  0  0  0  0  0  0  0  0
    9.9082  -18.6817   21.7870 C   0  0  0  0  0  0  0  0  0  0  0  0
    9.4879  -20.0815   21.8783 C   0  0  0  0  0  0  0  0  0  0  0  0
   10.1185  -21.0321   22.3686 O   0  0  0  0  0  0  0  0  0  0  0  0
    9.5871  -15.7665   22.4275 C   0  0  0  0  0  0  0  0  0  0  0  0
   10.7320  -15.9122   22.9107 O   0  0  0  0  0  0  0  0  0  0  0  0
    8.2240  -20.3987   21.3523 O   0  0  0  0  0  0  0  0  0  0  0  0
    8.6477  -15.0506   23.2304 N   0  0  0  0  0  0  0  0  0  0  0  0
    7.4009  -14.5705   22.6591 C   0  0  0  0  0  0  0  0  0  0  0  0
    6.7441  -13.7381   23.7420 C   0  0  0  0  0  0  0  0  0  0  0  0
    7.2618  -14.4272   24.9749 C   0  0  0  0  0  0  0  0  0  0  0  0
    8.7044  -14.6699   24.5959 C   0  0  1  0  0  0  0  0  0  0  0  0
    9.2540  -15.6599   25.5341 C   0  0  0  0  0  0  0  0  0  0  0  0
    9.2953  -16.8871   25.4165 O   0  0  0  0  0  0  0  0  0  0  0  0
   11.0315  -13.9457   28.9795 C   0  0  0  0  0  0  0  0  0  0  0  0
   11.7073  -15.1163   28.3075 C   0  0  1  0  0  0  0  0  0  0  0  0
   12.3904  -15.8647   29.2650 O   0  0  0  0  0  0  0  0  0  0  0  0
   10.6523  -15.9458   27.5965 C   0  0  2  0  0  0  0  0  0  0  0  0
    9.8169  -15.1229   26.7477 N   0  0  0  0  0  0  0  0  0  0  0  0
    9.7938  -16.5442   28.6436 C   0  0  0  0  0  0  0  0  0  0  0  0
    8.6267  -16.1272   28.8847 O   0  0  0  0  0  0  0  0  0  0  0  0
   10.2650  -17.6022   29.4014 O   0  0  0  0  0  0  0  0  0  0  0  0
  2  1  1  6
  2  3  1  0
  3  4  1  0
  4  5  1  0
  5  9  1  0
  6  5  2  0
  7  2  1  0
  7 10  1  0
  8  7  2  0
 10 14  1  0
 11 10  1  0
 11 12  1  0
 12 13  1  0
 14 13  1  0
 14 15  1  1
 15 21  1  0
 16 15  2  0
 18 17  1  1
 19 18  1  0
 20 21  1  6
 20 22  1  0
 20 18  1  0
 22 24  1  0
 23 22  2  0
M  END
$$$$
