EPT.pdb
     RDKit          3D

 24 24  0  0  1  0  0  0  0  0999 V2000
    8.8864  -14.7185   21.2907 N   0  0  0  0  0  0  0  0  0  0  0  0
    7.8453  -14.5334   22.3066 C   0  0  1  0  0  0  0  0  0  0  0  0
    6.8970  -15.6782   22.1410 C   0  0  0  0  0  0  0  0  0  0  0  0
    7.5231  -17.0362   22.3079 C   0  0  0  0  0  0  0  0  0  0  0  0
    6.5653  -18.1387   22.4152 C   0  0  0  0  0  0  0  0  0  0  0  0
    6.4270  -19.1009   21.6428 O   0  0  0  0  0  0  0  0  0  0  0  0
    8.4056  -14.3732   23.6574 C   0  0  0  0  0  0  0  0  0  0  0  0
    9.4765  -14.9560   23.9386 O   0  0  0  0  0  0  0  0  0  0  0  0
    5.6949  -18.1160   23.5183 O   0  0  0  0  0  0  0  0  0  0  0  0
    7.8182  -13.5916   24.6983 N   0  0  0  0  0  0  0  0  0  0  0  0
    6.7625  -12.6383   24.4016 C   0  0  0  0  0  0  0  0  0  0  0  0
    6.5000  -11.8963   25.6968 C   0  0  0  0  0  0  0  0  0  0  0  0
    6.8493  -12.9596   26.7020 C   0  0  0  0  0  0  0  0  0  0  0  0
    8.0979  -13.5496   26.0886 C   0  0  1  0  0  0  0  0  0  0  0  0
    8.3559  -14.8383   26.7484 C   0  0  0  0  0  0  0  0  0  0  0  0
    7.8678  -15.9418   26.4924 O   0  0  0  0  0  0  0  0  0  0  0  0
   10.1061  -16.9180   26.0700 C   0  0  0  0  0  0  0  0  0  0  0  0
   10.8387  -16.6540   27.3632 C   0  0  1  0  0  0  0  0  0  0  0  0
   11.9272  -15.8196   27.1131 O   0  0  0  0  0  0  0  0  0  0  0  0
    9.8707  -16.0300   28.3532 C   0  0  2  0  0  0  0  0  0  0  0  0
    9.3025  -14.8035   27.8350 N   0  0  0  0  0  0  0  0  0  0  0  0
   10.6484  -15.6977   29.5683 C   0  0  0  0  0  0  0  0  0  0  0  0
   11.1289  -16.5828   30.3297 O   0  0  0  0  0  0  0  0  0  0  0  0
   10.8714  -14.3738   29.9047 O   0  0  0  0  0  0  0  0  0  0  0  0
  2  1  1  6
  2  3  1  0
  3  4  1  0
  4  5  1  0
  5  9  1  0
  6  5  2  0
  7  2  1  0
  7 10  1  0
  8  7  2  0
 10 14  1  0
 11 10  1  0
 11 12  1  0
 12 13  1  0
 14 13  1  0
 14 15  1  1
 15 21  1  0
 16 15  2  0
 18 17  1  6
 19 18  1  0
 20 21  1  6
 20 22  1  0
 20 18  1  0
 22 24  1  0
 23 22  2  0
M  END
$$$$
