EPT.pdb
     RDKit          3D

 24 24  0  0  1  0  0  0  0  0999 V2000
    8.6622  -13.2803   18.2856 N   0  0  0  0  0  0  0  0  0  0  0  0
    8.7710  -14.5910   18.9340 C   0  0  1  0  0  0  0  0  0  0  0  0
   10.1428  -15.0965   18.6181 C   0  0  0  0  0  0  0  0  0  0  0  0
   10.2045  -16.0479   17.4539 C   0  0  0  0  0  0  0  0  0  0  0  0
   11.5185  -16.6556   17.2338 C   0  0  0  0  0  0  0  0  0  0  0  0
   11.9046  -17.7789   17.5954 O   0  0  0  0  0  0  0  0  0  0  0  0
    8.4372  -14.5350   20.3657 C   0  0  0  0  0  0  0  0  0  0  0  0
    9.0925  -13.7700   21.1077 O   0  0  0  0  0  0  0  0  0  0  0  0
   12.4622  -15.8865   16.5318 O   0  0  0  0  0  0  0  0  0  0  0  0
    7.4056  -15.2965   20.9946 N   0  0  0  0  0  0  0  0  0  0  0  0
    6.5022  -16.1139   20.2028 C   0  0  0  0  0  0  0  0  0  0  0  0
    5.4639  -16.6405   21.1731 C   0  0  0  0  0  0  0  0  0  0  0  0
    6.2743  -16.7062   22.4389 C   0  0  0  0  0  0  0  0  0  0  0  0
    7.0490  -15.4110   22.3630 C   0  0  1  0  0  0  0  0  0  0  0  0
    8.1556  -15.4932   23.3281 C   0  0  0  0  0  0  0  0  0  0  0  0
    9.3096  -15.8861   23.1395 O   0  0  0  0  0  0  0  0  0  0  0  0
    8.6817  -12.7259   26.2387 C   0  0  0  0  0  0  0  0  0  0  0  0
    8.5710  -14.1178   26.8124 C   0  0  1  0  0  0  0  0  0  0  0  0
    7.2989  -14.2915   27.3557 O   0  0  0  0  0  0  0  0  0  0  0  0
    8.8509  -15.1235   25.7093 C   0  0  2  0  0  0  0  0  0  0  0  0
    7.8482  -15.0573   24.6673 N   0  0  0  0  0  0  0  0  0  0  0  0
    8.7861  -16.4690   26.3235 C   0  0  0  0  0  0  0  0  0  0  0  0
    7.8714  -17.2957   26.0519 O   0  0  0  0  0  0  0  0  0  0  0  0
    9.7532  -16.8599   27.2332 O   0  0  0  0  0  0  0  0  0  0  0  0
  2  1  1  1
  2  3  1  0
  3  4  1  0
  4  5  1  0
  5  9  1  0
  6  5  2  0
  7  2  1  0
  7 10  1  0
  8  7  2  0
 10 14  1  0
 11 10  1  0
 11 12  1  0
 12 13  1  0
 14 13  1  0
 14 15  1  1
 15 21  1  0
 16 15  2  0
 18 17  1  6
 19 18  1  0
 20 21  1  6
 20 22  1  0
 20 18  1  0
 22 24  1  0
 23 22  2  0
M  END
$$$$
