EPT.pdb
     RDKit          3D

 24 24  0  0  1  0  0  0  0  0999 V2000
    8.8040  -14.7030   21.2921 N   0  0  0  0  0  0  0  0  0  0  0  0
    7.8619  -14.8075   22.4109 C   0  0  1  0  0  0  0  0  0  0  0  0
    7.2540  -16.1707   22.3143 C   0  0  0  0  0  0  0  0  0  0  0  0
    7.3105  -16.7832   20.9410 C   0  0  0  0  0  0  0  0  0  0  0  0
    7.5126  -18.2336   20.9296 C   0  0  0  0  0  0  0  0  0  0  0  0
    7.7260  -18.9771   21.9008 O   0  0  0  0  0  0  0  0  0  0  0  0
    8.4916  -14.4915   23.7024 C   0  0  0  0  0  0  0  0  0  0  0  0
    9.6281  -14.9534   23.9477 O   0  0  0  0  0  0  0  0  0  0  0  0
    7.4612  -18.8701   19.6778 O   0  0  0  0  0  0  0  0  0  0  0  0
    7.9028  -13.6840   24.7227 N   0  0  0  0  0  0  0  0  0  0  0  0
    6.8347  -12.7519   24.4041 C   0  0  0  0  0  0  0  0  0  0  0  0
    6.5731  -11.9727   25.6774 C   0  0  0  0  0  0  0  0  0  0  0  0
    6.9409  -13.0002   26.7127 C   0  0  0  0  0  0  0  0  0  0  0  0
    8.1917  -13.5956   26.1089 C   0  0  1  0  0  0  0  0  0  0  0  0
    8.4683  -14.8602   26.8067 C   0  0  0  0  0  0  0  0  0  0  0  0
    7.7495  -15.8585   26.8981 O   0  0  0  0  0  0  0  0  0  0  0  0
   11.0850  -17.1223   26.0945 C   0  0  0  0  0  0  0  0  0  0  0  0
   11.3903  -16.7568   27.5269 C   0  0  1  0  0  0  0  0  0  0  0  0
   12.4634  -15.8673   27.5561 O   0  0  0  0  0  0  0  0  0  0  0  0
   10.1449  -16.1524   28.1519 C   0  0  2  0  0  0  0  0  0  0  0  0
    9.7464  -14.9399   27.4688 N   0  0  0  0  0  0  0  0  0  0  0  0
   10.4885  -15.8004   29.5482 C   0  0  0  0  0  0  0  0  0  0  0  0
   10.5077  -14.6080   29.9625 O   0  0  0  0  0  0  0  0  0  0  0  0
   10.8045  -16.7982   30.4539 O   0  0  0  0  0  0  0  0  0  0  0  0
  2  1  1  6
  2  3  1  0
  3  4  1  0
  4  5  1  0
  5  9  1  0
  6  5  2  0
  7  2  1  0
  7 10  1  0
  8  7  2  0
 10 14  1  0
 11 10  1  0
 11 12  1  0
 12 13  1  0
 14 13  1  0
 14 15  1  1
 15 21  1  0
 16 15  2  0
 18 17  1  6
 19 18  1  0
 20 21  1  6
 20 22  1  0
 20 18  1  0
 22 24  1  0
 23 22  2  0
M  END
$$$$
