EPT.pdb
     RDKit          3D

 24 24  0  0  1  0  0  0  0  0999 V2000
   10.0777  -15.7697   15.6278 N   0  0  0  0  0  0  0  0  0  0  0  0
    8.9747  -15.4305   16.5325 C   0  0  1  0  0  0  0  0  0  0  0  0
    7.9688  -16.5282   16.3887 C   0  0  0  0  0  0  0  0  0  0  0  0
    8.4335  -17.8696   16.8877 C   0  0  0  0  0  0  0  0  0  0  0  0
    7.4154  -18.9212   16.8433 C   0  0  0  0  0  0  0  0  0  0  0  0
    6.2023  -18.8129   17.0850 O   0  0  0  0  0  0  0  0  0  0  0  0
    9.4368  -15.1790   17.9064 C   0  0  0  0  0  0  0  0  0  0  0  0
   10.4092  -15.8331   18.3443 O   0  0  0  0  0  0  0  0  0  0  0  0
    7.8504  -20.2089   16.4865 O   0  0  0  0  0  0  0  0  0  0  0  0
    8.8570  -14.2303   18.8027 N   0  0  0  0  0  0  0  0  0  0  0  0
    7.9107  -13.2389   18.3199 C   0  0  0  0  0  0  0  0  0  0  0  0
    7.6345  -12.3243   19.4964 C   0  0  0  0  0  0  0  0  0  0  0  0
    7.8242  -13.2804   20.6423 C   0  0  0  0  0  0  0  0  0  0  0  0
    9.0516  -14.0401   20.1951 C   0  0  1  0  0  0  0  0  0  0  0  0
    9.1522  -15.2542   21.0187 C   0  0  0  0  0  0  0  0  0  0  0  0
    8.3272  -16.1617   21.1505 O   0  0  0  0  0  0  0  0  0  0  0  0
   12.1427  -18.5561   22.7845 C   0  0  0  0  0  0  0  0  0  0  0  0
   11.9253  -17.2832   22.0028 C   0  0  1  0  0  0  0  0  0  0  0  0
   11.8565  -17.5843   20.6433 O   0  0  0  0  0  0  0  0  0  0  0  0
   10.6503  -16.6206   22.4948 C   0  0  2  0  0  0  0  0  0  0  0  0
   10.3752  -15.3994   21.7678 N   0  0  0  0  0  0  0  0  0  0  0  0
   10.8658  -16.2694   23.9167 C   0  0  0  0  0  0  0  0  0  0  0  0
   11.3318  -15.1527   24.2769 O   0  0  0  0  0  0  0  0  0  0  0  0
   10.5526  -17.1825   24.9085 O   0  0  0  0  0  0  0  0  0  0  0  0
  2  1  1  6
  2  3  1  0
  3  4  1  0
  4  5  1  0
  5  9  1  0
  6  5  2  0
  7  2  1  0
  7 10  1  0
  8  7  2  0
 10 14  1  0
 11 10  1  0
 11 12  1  0
 12 13  1  0
 14 13  1  0
 14 15  1  1
 15 21  1  0
 16 15  2  0
 18 17  1  1
 19 18  1  0
 20 21  1  6
 20 22  1  0
 20 18  1  0
 22 24  1  0
 23 22  2  0
M  END
$$$$
