EPT.pdb
     RDKit          3D

 24 24  0  0  1  0  0  0  0  0999 V2000
    8.6668  -16.3158   18.0839 N   0  0  0  0  0  0  0  0  0  0  0  0
    8.7010  -17.2613   19.2042 C   0  0  1  0  0  0  0  0  0  0  0  0
   10.1117  -17.7509   19.2899 C   0  0  0  0  0  0  0  0  0  0  0  0
   10.3637  -18.7369   20.3983 C   0  0  0  0  0  0  0  0  0  0  0  0
   11.7441  -19.2187   20.4818 C   0  0  0  0  0  0  0  0  0  0  0  0
   12.2347  -19.9688   21.3410 O   0  0  0  0  0  0  0  0  0  0  0  0
    8.1628  -16.6784   20.4432 C   0  0  0  0  0  0  0  0  0  0  0  0
    8.6066  -15.5753   20.8325 O   0  0  0  0  0  0  0  0  0  0  0  0
   12.6268  -18.7881   19.4767 O   0  0  0  0  0  0  0  0  0  0  0  0
    7.1543  -17.2780   21.2575 N   0  0  0  0  0  0  0  0  0  0  0  0
    6.5084  -18.5127   20.8458 C   0  0  0  0  0  0  0  0  0  0  0  0
    5.4067  -18.7595   21.8568 C   0  0  0  0  0  0  0  0  0  0  0  0
    6.0031  -18.1183   23.0801 C   0  0  0  0  0  0  0  0  0  0  0  0
    6.5997  -16.8594   22.4944 C   0  0  1  0  0  0  0  0  0  0  0  0
    7.5366  -16.3052   23.4832 C   0  0  0  0  0  0  0  0  0  0  0  0
    8.7365  -16.5533   23.6255 O   0  0  0  0  0  0  0  0  0  0  0  0
    7.3187  -12.4013   24.8725 C   0  0  0  0  0  0  0  0  0  0  0  0
    7.1935  -13.4553   25.9459 C   0  0  1  0  0  0  0  0  0  0  0  0
    5.8492  -13.6153   26.2789 O   0  0  0  0  0  0  0  0  0  0  0  0
    7.8011  -14.7490   25.4322 C   0  0  2  0  0  0  0  0  0  0  0  0
    6.9765  -15.3480   24.4042 N   0  0  0  0  0  0  0  0  0  0  0  0
    7.8585  -15.6851   26.5776 C   0  0  0  0  0  0  0  0  0  0  0  0
    7.1056  -16.6945   26.6676 O   0  0  0  0  0  0  0  0  0  0  0  0
    8.7634  -15.4678   27.6021 O   0  0  0  0  0  0  0  0  0  0  0  0
  2  1  1  6
  2  3  1  0
  3  4  1  0
  4  5  1  0
  5  9  1  0
  6  5  2  0
  7  2  1  0
  7 10  1  0
  8  7  2  0
 10 14  1  0
 11 10  1  0
 11 12  1  0
 12 13  1  0
 14 13  1  0
 14 15  1  1
 15 21  1  0
 16 15  2  0
 18 17  1  6
 19 18  1  0
 20 21  1  6
 20 22  1  0
 20 18  1  0
 22 24  1  0
 23 22  2  0
M  END
$$$$
