EPT.pdb
     RDKit          3D

 24 24  0  0  1  0  0  0  0  0999 V2000
    9.7275  -16.4775   15.8715 N   0  0  0  0  0  0  0  0  0  0  0  0
    8.7105  -15.8823   16.7443 C   0  0  1  0  0  0  0  0  0  0  0  0
    7.5612  -16.8396   16.7535 C   0  0  0  0  0  0  0  0  0  0  0  0
    7.9099  -18.2287   17.2151 C   0  0  0  0  0  0  0  0  0  0  0  0
    6.7614  -19.1232   17.3740 C   0  0  0  0  0  0  0  0  0  0  0  0
    5.5674  -18.8724   17.1436 O   0  0  0  0  0  0  0  0  0  0  0  0
    9.2469  -15.5331   18.0689 C   0  0  0  0  0  0  0  0  0  0  0  0
   10.2056  -16.1953   18.5246 O   0  0  0  0  0  0  0  0  0  0  0  0
    7.0295  -20.4209   17.8418 O   0  0  0  0  0  0  0  0  0  0  0  0
    8.7554  -14.4788   18.8975 N   0  0  0  0  0  0  0  0  0  0  0  0
    7.8396  -13.4847   18.3643 C   0  0  0  0  0  0  0  0  0  0  0  0
    7.6616  -12.4558   19.4627 C   0  0  0  0  0  0  0  0  0  0  0  0
    7.8537  -13.3152   20.6824 C   0  0  0  0  0  0  0  0  0  0  0  0
    9.0206  -14.1765   20.2580 C   0  0  1  0  0  0  0  0  0  0  0  0
    9.0965  -15.3165   21.1840 C   0  0  0  0  0  0  0  0  0  0  0  0
    8.2657  -16.2087   21.3712 O   0  0  0  0  0  0  0  0  0  0  0  0
   12.0857  -18.1202   23.8512 C   0  0  0  0  0  0  0  0  0  0  0  0
   11.9495  -16.9573   22.8985 C   0  0  1  0  0  0  0  0  0  0  0  0
   12.3698  -17.3511   21.6289 O   0  0  0  0  0  0  0  0  0  0  0  0
   10.5014  -16.4994   22.8920 C   0  0  2  0  0  0  0  0  0  0  0  0
   10.2997  -15.3985   21.9738 N   0  0  0  0  0  0  0  0  0  0  0  0
   10.1930  -16.0196   24.2582 C   0  0  0  0  0  0  0  0  0  0  0  0
   10.2055  -14.7953   24.5666 O   0  0  0  0  0  0  0  0  0  0  0  0
    9.8758  -16.9274   25.2536 O   0  0  0  0  0  0  0  0  0  0  0  0
  2  1  1  6
  2  3  1  0
  3  4  1  0
  4  5  1  0
  5  9  1  0
  6  5  2  0
  7  2  1  0
  7 10  1  0
  8  7  2  0
 10 14  1  0
 11 10  1  0
 11 12  1  0
 12 13  1  0
 14 13  1  0
 14 15  1  1
 15 21  1  0
 16 15  2  0
 18 17  1  1
 19 18  1  0
 20 21  1  6
 20 22  1  0
 20 18  1  0
 22 24  1  0
 23 22  2  0
M  END
$$$$
