EPT.pdb
     RDKit          3D

 24 24  0  0  1  0  0  0  0  0999 V2000
    8.6399  -14.1973   21.2390 N   0  0  0  0  0  0  0  0  0  0  0  0
    7.6808  -14.3076   22.3427 C   0  0  1  0  0  0  0  0  0  0  0  0
    6.9113  -15.5667   22.0983 C   0  0  0  0  0  0  0  0  0  0  0  0
    7.7535  -16.8127   22.0473 C   0  0  0  0  0  0  0  0  0  0  0  0
    6.9922  -18.0566   21.9152 C   0  0  0  0  0  0  0  0  0  0  0  0
    5.7667  -18.1828   21.7606 O   0  0  0  0  0  0  0  0  0  0  0  0
    8.3315  -14.2154   23.6589 C   0  0  0  0  0  0  0  0  0  0  0  0
    9.4372  -14.7766   23.8252 O   0  0  0  0  0  0  0  0  0  0  0  0
    7.7237  -19.2553   21.9681 O   0  0  0  0  0  0  0  0  0  0  0  0
    7.7963  -13.5243   24.7884 N   0  0  0  0  0  0  0  0  0  0  0  0
    6.6921  -12.5931   24.6307 C   0  0  0  0  0  0  0  0  0  0  0  0
    6.5005  -11.9460   25.9877 C   0  0  0  0  0  0  0  0  0  0  0  0
    6.9554  -13.0583   26.8928 C   0  0  0  0  0  0  0  0  0  0  0  0
    8.1745  -13.5616   26.1552 C   0  0  1  0  0  0  0  0  0  0  0  0
    8.5205  -14.8797   26.7079 C   0  0  0  0  0  0  0  0  0  0  0  0
    7.8852  -15.9342   26.6305 O   0  0  0  0  0  0  0  0  0  0  0  0
   11.9445  -17.9813   27.7910 C   0  0  0  0  0  0  0  0  0  0  0  0
   11.5650  -16.6020   27.3091 C   0  0  1  0  0  0  0  0  0  0  0  0
   11.4763  -16.6091   25.9179 O   0  0  0  0  0  0  0  0  0  0  0  0
   10.2473  -16.2064   27.9523 C   0  0  2  0  0  0  0  0  0  0  0  0
    9.7644  -14.9440   27.4337 N   0  0  0  0  0  0  0  0  0  0  0  0
   10.5054  -16.0387   29.4004 C   0  0  0  0  0  0  0  0  0  0  0  0
   10.5641  -14.9049   29.9525 O   0  0  0  0  0  0  0  0  0  0  0  0
   10.6931  -17.1516   30.2016 O   0  0  0  0  0  0  0  0  0  0  0  0
  2  1  1  6
  2  3  1  0
  3  4  1  0
  4  5  1  0
  5  9  1  0
  6  5  2  0
  7  2  1  0
  7 10  1  0
  8  7  2  0
 10 14  1  0
 11 10  1  0
 11 12  1  0
 12 13  1  0
 14 13  1  0
 14 15  1  1
 15 21  1  0
 16 15  2  0
 18 17  1  1
 19 18  1  0
 20 21  1  6
 20 22  1  0
 20 18  1  0
 22 24  1  0
 23 22  2  0
M  END
$$$$
