EPT.pdb
     RDKit          3D

 24 24  0  0  1  0  0  0  0  0999 V2000
    8.8229  -16.9979   16.4612 N   0  0  0  0  0  0  0  0  0  0  0  0
    7.9938  -16.4514   17.5402 C   0  0  1  0  0  0  0  0  0  0  0  0
    7.0043  -17.5193   17.8834 C   0  0  0  0  0  0  0  0  0  0  0  0
    6.5549  -18.3527   16.7139 C   0  0  0  0  0  0  0  0  0  0  0  0
    6.9622  -19.7579   16.7761 C   0  0  0  0  0  0  0  0  0  0  0  0
    7.7734  -20.2784   17.5588 O   0  0  0  0  0  0  0  0  0  0  0  0
    8.7995  -15.9569   18.6674 C   0  0  0  0  0  0  0  0  0  0  0  0
    9.8606  -16.5531   18.9570 O   0  0  0  0  0  0  0  0  0  0  0  0
    6.3722  -20.6298   15.8452 O   0  0  0  0  0  0  0  0  0  0  0  0
    8.4661  -14.8288   19.4773 N   0  0  0  0  0  0  0  0  0  0  0  0
    7.5194  -13.8329   19.0048 C   0  0  0  0  0  0  0  0  0  0  0  0
    7.5333  -12.7261   20.0400 C   0  0  0  0  0  0  0  0  0  0  0  0
    7.8649  -13.5098   21.2806 C   0  0  0  0  0  0  0  0  0  0  0  0
    8.9301  -14.4484   20.7629 C   0  0  1  0  0  0  0  0  0  0  0  0
    9.0959  -15.5262   21.7496 C   0  0  0  0  0  0  0  0  0  0  0  0
    8.3028  -16.4235   22.0453 O   0  0  0  0  0  0  0  0  0  0  0  0
   12.2711  -18.3056   24.1151 C   0  0  0  0  0  0  0  0  0  0  0  0
   12.0232  -17.1950   23.1232 C   0  0  1  0  0  0  0  0  0  0  0  0
   12.1080  -17.7067   21.8291 O   0  0  0  0  0  0  0  0  0  0  0  0
   10.6568  -16.5917   23.3984 C   0  0  2  0  0  0  0  0  0  0  0  0
   10.3492  -15.5316   22.4618 N   0  0  0  0  0  0  0  0  0  0  0  0
   10.7087  -16.0035   24.7560 C   0  0  0  0  0  0  0  0  0  0  0  0
   10.4118  -16.6608   25.7922 O   0  0  0  0  0  0  0  0  0  0  0  0
   11.0944  -14.6848   24.9228 O   0  0  0  0  0  0  0  0  0  0  0  0
  2  1  1  6
  2  3  1  0
  3  4  1  0
  4  5  1  0
  5  9  1  0
  6  5  2  0
  7  2  1  0
  7 10  1  0
  8  7  2  0
 10 14  1  0
 11 10  1  0
 11 12  1  0
 12 13  1  0
 14 13  1  0
 14 15  1  1
 15 21  1  0
 16 15  2  0
 18 17  1  1
 19 18  1  0
 20 21  1  6
 20 22  1  0
 20 18  1  0
 22 24  1  0
 23 22  2  0
M  END
$$$$
