TLH.pdb
     RDKit          3D

 26 26  0  0  1  0  0  0  0  0999 V2000
   27.4553  -16.2267  -16.0519 C   0  0  0  0  0  0  0  0  0  0  0  0
   26.4061  -17.2261  -15.6880 C   0  0  1  0  0  0  0  0  0  0  0  0
   25.4857  -17.4751  -16.6749 O   0  0  0  0  0  0  0  0  0  0  0  0
   27.0013  -18.5162  -15.1683 C   0  0  2  0  0  0  0  0  0  0  0  0
   27.6355  -19.1997  -16.2785 N   0  0  0  0  0  0  0  0  0  0  0  0
   25.9598  -19.4138  -14.6075 C   0  0  0  0  0  0  0  0  0  0  0  0
   25.5799  -20.4485  -15.2485 O   0  0  0  0  0  0  0  0  0  0  0  0
   25.9351  -20.1252   -9.3166 C   0  0  0  0  0  0  0  0  0  0  0  0
   25.8270  -20.3911  -10.7762 C   0  0  1  0  0  0  0  0  0  0  0  0
   26.0077  -21.9116  -10.9485 C   0  0  0  0  0  0  0  0  0  0  0  0
   24.5026  -20.0637  -11.3364 C   0  0  0  0  0  0  0  0  0  0  0  0
   24.3229  -20.1178  -12.8078 C   0  0  2  0  0  0  0  0  0  0  0  0
   25.3332  -19.1969  -13.3655 N   0  0  0  0  0  0  0  0  0  0  0  0
   23.0439  -19.7123  -13.3587 C   0  0  0  0  0  0  0  0  0  0  0  0
   22.6106  -18.5373  -13.2911 O   0  0  0  0  0  0  0  0  0  0  0  0
   22.2174  -20.6647  -14.0181 N   0  0  0  0  0  0  0  0  0  0  0  0
   20.8870  -20.2519  -14.5675 C   0  0  1  0  0  0  0  0  0  0  0  0
   20.6966  -21.1206  -15.7714 C   0  0  0  0  0  0  0  0  0  0  0  0
   19.9491  -20.5456  -16.8842 C   0  0  0  0  0  0  0  0  0  0  0  0
   19.2890  -19.3606  -17.0712 C   0  0  0  0  0  0  0  0  0  0  0  0
   18.7994  -19.2943  -18.3256 N   0  0  0  0  0  0  0  0  0  0  0  0
   19.1482  -20.4233  -18.9212 C   0  0  0  0  0  0  0  0  0  0  0  0
   19.8306  -21.1868  -18.0953 N   0  0  0  0  0  0  0  0  0  0  0  0
   19.9447  -20.6404  -13.4995 C   0  0  0  0  0  0  0  0  0  0  0  0
   20.1651  -21.7193  -12.6922 O   0  0  0  0  0  0  0  0  0  0  0  0
   18.9033  -19.9790  -13.3043 O   0  0  0  0  0  0  0  0  0  0  0  0
  2  1  1  6
  2  4  1  0
  3  2  1  0
  4  6  1  0
  4  5  1  6
  6  7  2  0
  9  8  1  1
 10  9  1  0
 11  9  1  0
 12 11  1  1
 12 14  1  0
 13 12  1  0
 13  6  1  0
 14 15  2  0
 16 17  1  0
 16 14  1  0
 17 24  1  0
 17 18  1  6
 19 18  1  0
 20 19  2  0
 21 22  1  0
 21 20  1  0
 22 23  2  0
 23 19  1  0
 24 26  2  0
 24 25  1  0
M  END
$$$$
