TLH.pdb
     RDKit          3D

 26 26  0  0  1  0  0  0  0  0999 V2000
   15.7831  -11.6754  -15.0897 C   0  0  0  0  0  0  0  0  0  0  0  0
   16.0912  -12.4581  -13.8550 C   0  0  1  0  0  0  0  0  0  0  0  0
   17.3044  -12.1698  -13.2822 O   0  0  0  0  0  0  0  0  0  0  0  0
   14.9791  -12.3744  -12.8328 C   0  0  2  0  0  0  0  0  0  0  0  0
   13.7535  -12.8264  -13.4618 N   0  0  0  0  0  0  0  0  0  0  0  0
   14.7703  -10.9815  -12.3626 C   0  0  0  0  0  0  0  0  0  0  0  0
   14.2268  -10.1137  -13.1224 O   0  0  0  0  0  0  0  0  0  0  0  0
   11.9820   -9.4918   -8.2858 C   0  0  0  0  0  0  0  0  0  0  0  0
   12.7194   -9.4871   -9.5776 C   0  0  1  0  0  0  0  0  0  0  0  0
   12.1017   -8.3533  -10.4185 C   0  0  0  0  0  0  0  0  0  0  0  0
   14.1518   -9.1660   -9.4352 C   0  0  0  0  0  0  0  0  0  0  0  0
   14.9929   -9.1233  -10.6562 C   0  0  2  0  0  0  0  0  0  0  0  0
   15.1448  -10.5284  -11.0833 N   0  0  0  0  0  0  0  0  0  0  0  0
   16.3317   -8.5760  -10.5489 C   0  0  0  0  0  0  0  0  0  0  0  0
   17.3402   -9.2773  -10.2956 O   0  0  0  0  0  0  0  0  0  0  0  0
   16.5498   -7.1826  -10.7388 N   0  0  0  0  0  0  0  0  0  0  0  0
   17.9450   -6.6437  -10.8108 C   0  0  1  0  0  0  0  0  0  0  0  0
   18.5256   -7.2784  -12.0356 C   0  0  0  0  0  0  0  0  0  0  0  0
   19.8047   -6.7552  -12.5027 C   0  0  0  0  0  0  0  0  0  0  0  0
   21.0928   -7.2169  -12.4529 C   0  0  0  0  0  0  0  0  0  0  0  0
   21.9177   -6.3622  -13.0907 N   0  0  0  0  0  0  0  0  0  0  0  0
   21.1577   -5.3754  -13.5375 C   0  0  0  0  0  0  0  0  0  0  0  0
   19.9006   -5.5774  -13.2066 N   0  0  0  0  0  0  0  0  0  0  0  0
   17.7385   -5.1985  -11.0299 C   0  0  0  0  0  0  0  0  0  0  0  0
   18.6686   -4.2675  -10.6660 O   0  0  0  0  0  0  0  0  0  0  0  0
   16.6881   -4.7841  -11.5639 O   0  0  0  0  0  0  0  0  0  0  0  0
  2  1  1  6
  2  4  1  0
  3  2  1  0
  4  6  1  0
  4  5  1  6
  6  7  2  0
  9  8  1  1
 10  9  1  0
 11  9  1  0
 12 11  1  1
 12 14  1  0
 13 12  1  0
 13  6  1  0
 14 15  2  0
 16 17  1  0
 16 14  1  0
 17 24  1  0
 17 18  1  6
 19 18  1  0
 20 19  2  0
 21 22  1  0
 21 20  1  0
 22 23  2  0
 23 19  1  0
 24 26  2  0
 24 25  1  0
M  END
$$$$
