TLH.pdb
     RDKit          3D

 26 26  0  0  1  0  0  0  0  0999 V2000
   27.2668  -17.4722  -17.1042 C   0  0  0  0  0  0  0  0  0  0  0  0
   26.3310  -18.3701  -16.3625 C   0  0  1  0  0  0  0  0  0  0  0  0
   25.3404  -18.9262  -17.1324 O   0  0  0  0  0  0  0  0  0  0  0  0
   27.0634  -19.4344  -15.5755 C   0  0  2  0  0  0  0  0  0  0  0  0
   27.8255  -20.2410  -16.5086 N   0  0  0  0  0  0  0  0  0  0  0  0
   26.1222  -20.3281  -14.8541 C   0  0  0  0  0  0  0  0  0  0  0  0
   26.0039  -21.5529  -15.1882 O   0  0  0  0  0  0  0  0  0  0  0  0
   26.0423  -20.1209   -9.6461 C   0  0  0  0  0  0  0  0  0  0  0  0
   25.9715  -20.4968  -11.0836 C   0  0  1  0  0  0  0  0  0  0  0  0
   26.4894  -21.9453  -11.1729 C   0  0  0  0  0  0  0  0  0  0  0  0
   24.5976  -20.5129  -11.6196 C   0  0  0  0  0  0  0  0  0  0  0  0
   24.4024  -20.8123  -13.0592 C   0  0  2  0  0  0  0  0  0  0  0  0
   25.3153  -19.9039  -13.7813 N   0  0  0  0  0  0  0  0  0  0  0  0
   23.0837  -20.6134  -13.6292 C   0  0  0  0  0  0  0  0  0  0  0  0
   22.0469  -21.1370  -13.1562 O   0  0  0  0  0  0  0  0  0  0  0  0
   22.9199  -19.7876  -14.7766 N   0  0  0  0  0  0  0  0  0  0  0  0
   21.5685  -19.6304  -15.4021 C   0  0  1  0  0  0  0  0  0  0  0  0
   21.3602  -18.1498  -15.4690 C   0  0  0  0  0  0  0  0  0  0  0  0
   20.2578  -17.6057  -14.6838 C   0  0  0  0  0  0  0  0  0  0  0  0
   19.3470  -18.1546  -13.8211 C   0  0  0  0  0  0  0  0  0  0  0  0
   18.5559  -17.1919  -13.3063 N   0  0  0  0  0  0  0  0  0  0  0  0
   18.9646  -16.0510  -13.8377 C   0  0  0  0  0  0  0  0  0  0  0  0
   19.9715  -16.2607  -14.6580 N   0  0  0  0  0  0  0  0  0  0  0  0
   21.7567  -20.1844  -16.7575 C   0  0  0  0  0  0  0  0  0  0  0  0
   22.9896  -20.5100  -17.2454 O   0  0  0  0  0  0  0  0  0  0  0  0
   20.7739  -20.3727  -17.5051 O   0  0  0  0  0  0  0  0  0  0  0  0
  2  1  1  6
  2  4  1  0
  3  2  1  0
  4  6  1  0
  4  5  1  6
  6  7  2  0
  9  8  1  1
 10  9  1  0
 11  9  1  0
 12 11  1  1
 12 14  1  0
 13 12  1  0
 13  6  1  0
 14 15  2  0
 16 17  1  0
 16 14  1  0
 17 24  1  0
 17 18  1  6
 19 18  1  0
 20 19  2  0
 21 22  1  0
 21 20  1  0
 22 23  2  0
 23 19  1  0
 24 26  2  0
 24 25  1  0
M  END
$$$$
