TLH.pdb
     RDKit          3D

 26 26  0  0  1  0  0  0  0  0999 V2000
   18.9985  -11.2022  -21.0055 C   0  0  0  0  0  0  0  0  0  0  0  0
   19.0494  -10.5993  -19.6395 C   0  0  1  0  0  0  0  0  0  0  0  0
   18.7733  -11.4726  -18.6176 O   0  0  0  0  0  0  0  0  0  0  0  0
   20.3485   -9.8666  -19.3862 C   0  0  2  0  0  0  0  0  0  0  0  0
   21.4310  -10.8280  -19.4638 N   0  0  0  0  0  0  0  0  0  0  0  0
   20.3753   -9.2489  -18.0362 C   0  0  0  0  0  0  0  0  0  0  0  0
   19.4920   -8.3953  -17.6944 O   0  0  0  0  0  0  0  0  0  0  0  0
   21.0298   -9.4531  -12.6203 C   0  0  0  0  0  0  0  0  0  0  0  0
   22.2755   -9.5270  -13.4299 C   0  0  1  0  0  0  0  0  0  0  0  0
   23.1189  -10.6602  -12.8144 C   0  0  0  0  0  0  0  0  0  0  0  0
   22.0402   -9.9011  -14.8369 C   0  0  0  0  0  0  0  0  0  0  0  0
   21.3571   -8.9278  -15.7238 C   0  0  2  0  0  0  0  0  0  0  0  0
   21.3471   -9.5496  -17.0629 N   0  0  0  0  0  0  0  0  0  0  0  0
   21.9465   -7.6122  -15.8824 C   0  0  0  0  0  0  0  0  0  0  0  0
   23.0217   -7.4128  -16.4965 O   0  0  0  0  0  0  0  0  0  0  0  0
   21.2998   -6.4700  -15.3327 N   0  0  0  0  0  0  0  0  0  0  0  0
   21.9656   -5.1301  -15.3890 C   0  0  1  0  0  0  0  0  0  0  0  0
   21.0227   -4.2797  -16.1815 C   0  0  0  0  0  0  0  0  0  0  0  0
   21.1583   -4.3265  -17.6331 C   0  0  0  0  0  0  0  0  0  0  0  0
   22.0027   -4.9864  -18.4855 C   0  0  0  0  0  0  0  0  0  0  0  0
   21.6681   -4.7255  -19.7652 N   0  0  0  0  0  0  0  0  0  0  0  0
   20.6253   -3.9123  -19.7187 C   0  0  0  0  0  0  0  0  0  0  0  0
   20.2975   -3.6562  -18.4706 N   0  0  0  0  0  0  0  0  0  0  0  0
   21.9813   -4.7005  -13.9767 C   0  0  0  0  0  0  0  0  0  0  0  0
   21.3780   -5.4254  -12.9893 O   0  0  0  0  0  0  0  0  0  0  0  0
   22.5581   -3.6437  -13.6441 O   0  0  0  0  0  0  0  0  0  0  0  0
  2  1  1  6
  2  4  1  0
  3  2  1  0
  4  6  1  0
  4  5  1  1
  6  7  2  0
  9  8  1  1
 10  9  1  0
 11  9  1  0
 12 11  1  1
 12 14  1  0
 13 12  1  0
 13  6  1  0
 14 15  2  0
 16 17  1  0
 16 14  1  0
 17 24  1  0
 17 18  1  6
 19 18  1  0
 20 19  2  0
 21 22  1  0
 21 20  1  0
 22 23  2  0
 23 19  1  0
 24 26  2  0
 24 25  1  0
M  END
$$$$
