LDI.pdb
     RDKit          3D

 25 24  0  0  1  0  0  0  0  0999 V2000
   28.1534  -20.4942  -18.2799 C   0  0  0  0  0  0  0  0  0  0  0  0
   26.7597  -20.4642  -17.6985 C   0  0  2  0  0  0  0  0  0  0  0  0
   25.7343  -20.4859  -18.8079 C   0  0  0  0  0  0  0  0  0  0  0  0
   26.5648  -19.3196  -16.7417 C   0  0  0  0  0  0  0  0  0  0  0  0
   27.2587  -19.6696  -15.4295 C   0  0  2  0  0  0  0  0  0  0  0  0
   27.3448  -21.1448  -15.4055 N   0  0  0  0  0  0  0  0  0  0  0  0
   26.4220  -19.2794  -14.2712 C   0  0  0  0  0  0  0  0  0  0  0  0
   25.5841  -18.3635  -14.3958 O   0  0  0  0  0  0  0  0  0  0  0  0
   26.5323  -19.9155  -12.9993 N   0  0  0  0  0  0  0  0  0  0  0  0
   25.4627  -19.9668  -12.0482 C   0  0  1  0  0  0  0  0  0  0  0  0
   24.2399  -20.5808  -12.7243 C   0  0  0  0  0  0  0  0  0  0  0  0
   23.0613  -20.6830  -11.8462 C   0  0  0  0  0  0  0  0  0  0  0  0
   22.8145  -21.7863  -11.2909 O   0  0  0  0  0  0  0  0  0  0  0  0
   25.7978  -20.7577  -10.8187 C   0  0  0  0  0  0  0  0  0  0  0  0
   26.1718  -21.9633  -10.9504 O   0  0  0  0  0  0  0  0  0  0  0  0
   22.1926  -19.6326  -11.5821 O   0  0  0  0  0  0  0  0  0  0  0  0
   28.1516  -18.2484   -6.5966 C   0  0  0  0  0  0  0  0  0  0  0  0
   27.7156  -19.3019   -7.5914 C   0  0  0  0  0  0  0  0  0  0  0  0
   26.3862  -19.9187   -7.1886 C   0  0  2  0  0  0  0  0  0  0  0  0
   26.7169  -20.7348   -5.9253 C   0  0  0  0  0  0  0  0  0  0  0  0
   25.9419  -20.8777   -8.2683 C   0  0  2  0  0  0  0  0  0  0  0  0
   25.7246  -20.2367   -9.5411 N   0  0  0  0  0  0  0  0  0  0  0  0
   24.6678  -21.4931   -7.9001 C   0  0  0  0  0  0  0  0  0  0  0  0
   24.6415  -22.7106   -7.2392 O   0  0  0  0  0  0  0  0  0  0  0  0
   23.5433  -20.9630   -8.1580 O   0  0  0  0  0  0  0  0  0  0  0  0
  2  1  1  6
  2  3  1  0
  4  5  1  0
  4  2  1  0
  5  7  1  0
  5  6  1  6
  7  8  2  0
  9  7  1  0
  9 10  1  0
 10 14  1  0
 10 11  1  6
 12 11  1  0
 13 12  2  0
 14 15  2  0
 16 12  1  0
 18 19  1  0
 18 17  1  0
 19 21  1  0
 19 20  1  1
 21 23  1  0
 21 22  1  6
 22 14  1  0
 23 25  2  0
 23 24  1  0
M  END
$$$$
