LDI.pdb
     RDKit          3D

 25 24  0  0  1  0  0  0  0  0999 V2000
   17.0554  -12.7264  -14.2391 C   0  0  0  0  0  0  0  0  0  0  0  0
   16.9992  -11.9023  -15.5036 C   0  0  2  0  0  0  0  0  0  0  0  0
   17.8974  -12.5073  -16.5572 C   0  0  0  0  0  0  0  0  0  0  0  0
   17.2889  -10.4478  -15.2505 C   0  0  0  0  0  0  0  0  0  0  0  0
   16.2697   -9.9253  -14.2434 C   0  0  2  0  0  0  0  0  0  0  0  0
   14.9864   -9.8587  -14.9735 N   0  0  0  0  0  0  0  0  0  0  0  0
   16.5940   -8.5382  -13.8378 C   0  0  0  0  0  0  0  0  0  0  0  0
   16.5933   -7.6292  -14.6923 O   0  0  0  0  0  0  0  0  0  0  0  0
   16.9108   -8.1893  -12.4915 N   0  0  0  0  0  0  0  0  0  0  0  0
   17.2542   -6.8607  -12.0815 C   0  0  1  0  0  0  0  0  0  0  0  0
   16.6860   -6.6205  -10.6856 C   0  0  0  0  0  0  0  0  0  0  0  0
   16.8684   -5.2428  -10.1963 C   0  0  0  0  0  0  0  0  0  0  0  0
   17.3336   -4.3775  -10.9846 O   0  0  0  0  0  0  0  0  0  0  0  0
   18.7324   -6.6072  -12.0645 C   0  0  0  0  0  0  0  0  0  0  0  0
   19.4447   -7.2016  -11.1986 O   0  0  0  0  0  0  0  0  0  0  0  0
   16.5564   -4.8249   -8.9096 O   0  0  0  0  0  0  0  0  0  0  0  0
   22.0942   -8.4824  -15.0672 C   0  0  0  0  0  0  0  0  0  0  0  0
   21.5430   -7.6799  -13.9087 C   0  0  0  0  0  0  0  0  0  0  0  0
   21.3883   -6.2146  -14.2819 C   0  0  2  0  0  0  0  0  0  0  0  0
   22.8346   -5.7151  -14.4545 C   0  0  0  0  0  0  0  0  0  0  0  0
   20.7677   -5.4744  -13.1201 C   0  0  2  0  0  0  0  0  0  0  0  0
   19.3642   -5.7578  -12.9525 N   0  0  0  0  0  0  0  0  0  0  0  0
   20.8687   -4.0314  -13.3326 C   0  0  0  0  0  0  0  0  0  0  0  0
   21.9608   -3.3262  -12.8533 O   0  0  0  0  0  0  0  0  0  0  0  0
   19.9862   -3.3596  -13.9505 O   0  0  0  0  0  0  0  0  0  0  0  0
  2  1  1  1
  2  3  1  0
  4  5  1  0
  4  2  1  0
  5  7  1  0
  5  6  1  6
  7  8  2  0
  9  7  1  0
  9 10  1  0
 10 14  1  0
 10 11  1  1
 12 11  1  0
 13 12  2  0
 14 15  2  0
 16 12  1  0
 18 19  1  0
 18 17  1  0
 19 21  1  0
 19 20  1  1
 21 23  1  0
 21 22  1  6
 22 14  1  0
 23 25  2  0
 23 24  1  0
M  END
$$$$
