LDI.pdb
     RDKit          3D

 25 24  0  0  1  0  0  0  0  0999 V2000
   21.5284  -19.9161   -9.5342 C   0  0  0  0  0  0  0  0  0  0  0  0
   21.0464  -19.9680  -10.9647 C   0  0  2  0  0  0  0  0  0  0  0  0
   20.3273  -18.6866  -11.3164 C   0  0  0  0  0  0  0  0  0  0  0  0
   20.2264  -21.1974  -11.2467 C   0  0  0  0  0  0  0  0  0  0  0  0
   19.8727  -21.2066  -12.7301 C   0  0  2  0  0  0  0  0  0  0  0  0
   18.9775  -22.3673  -12.9190 N   0  0  0  0  0  0  0  0  0  0  0  0
   21.0745  -21.4650  -13.5563 C   0  0  0  0  0  0  0  0  0  0  0  0
   21.6936  -22.5403  -13.4258 O   0  0  0  0  0  0  0  0  0  0  0  0
   21.5629  -20.5247  -14.5112 N   0  0  0  0  0  0  0  0  0  0  0  0
   22.7164  -20.7571  -15.3276 C   0  0  1  0  0  0  0  0  0  0  0  0
   22.4372  -20.2187  -16.7281 C   0  0  0  0  0  0  0  0  0  0  0  0
   23.5665  -20.3717  -17.6620 C   0  0  0  0  0  0  0  0  0  0  0  0
   24.3244  -21.3698  -17.5364 O   0  0  0  0  0  0  0  0  0  0  0  0
   23.9629  -20.1183  -14.7912 C   0  0  0  0  0  0  0  0  0  0  0  0
   23.9357  -18.8870  -14.4849 O   0  0  0  0  0  0  0  0  0  0  0  0
   23.8563  -19.4814  -18.6871 O   0  0  0  0  0  0  0  0  0  0  0  0
   26.2468  -21.1416  -10.4284 C   0  0  0  0  0  0  0  0  0  0  0  0
   25.9189  -20.4779  -11.7482 C   0  0  0  0  0  0  0  0  0  0  0  0
   26.8634  -20.9427  -12.8445 C   0  0  2  0  0  0  0  0  0  0  0  0
   28.2227  -20.3335  -12.4540 C   0  0  0  0  0  0  0  0  0  0  0  0
   26.4311  -20.3322  -14.1572 C   0  0  2  0  0  0  0  0  0  0  0  0
   25.1465  -20.8070  -14.6072 N   0  0  0  0  0  0  0  0  0  0  0  0
   27.3844  -20.6786  -15.2102 C   0  0  0  0  0  0  0  0  0  0  0  0
   28.2553  -19.7241  -15.7103 O   0  0  0  0  0  0  0  0  0  0  0  0
   27.4667  -21.8413  -15.7139 O   0  0  0  0  0  0  0  0  0  0  0  0
  2  1  1  1
  2  3  1  0
  4  5  1  0
  4  2  1  0
  5  7  1  0
  5  6  1  1
  7  8  2  0
  9  7  1  0
  9 10  1  0
 10 14  1  0
 10 11  1  6
 12 11  1  0
 13 12  2  0
 14 15  2  0
 16 12  1  0
 18 19  1  0
 18 17  1  0
 19 21  1  0
 19 20  1  1
 21 23  1  0
 21 22  1  6
 22 14  1  0
 23 25  2  0
 23 24  1  0
M  END
$$$$
