LDI.pdb
     RDKit          3D

 25 24  0  0  1  0  0  0  0  0999 V2000
   17.8738  -12.3292    4.0892 C   0  0  0  0  0  0  0  0  0  0  0  0
   18.8726  -12.0933    5.1974 C   0  0  2  0  0  0  0  0  0  0  0  0
   20.2221  -11.7454    4.6138 C   0  0  0  0  0  0  0  0  0  0  0  0
   18.9312  -13.2419    6.1673 C   0  0  0  0  0  0  0  0  0  0  0  0
   17.5256  -13.4846    6.7068 C   0  0  2  0  0  0  0  0  0  0  0  0
   17.2881  -12.4125    7.6960 N   0  0  0  0  0  0  0  0  0  0  0  0
   17.4609  -14.7636    7.4508 C   0  0  0  0  0  0  0  0  0  0  0  0
   18.0279  -14.8631    8.5577 O   0  0  0  0  0  0  0  0  0  0  0  0
   16.7665  -15.9049    6.9510 N   0  0  0  0  0  0  0  0  0  0  0  0
   16.8111  -17.1918    7.5779 C   0  0  1  0  0  0  0  0  0  0  0  0
   15.5098  -17.9276    7.2707 C   0  0  0  0  0  0  0  0  0  0  0  0
   15.3205  -19.1586    8.0578 C   0  0  0  0  0  0  0  0  0  0  0  0
   16.2436  -20.0154    8.0721 O   0  0  0  0  0  0  0  0  0  0  0  0
   17.9713  -18.0308    7.1314 C   0  0  0  0  0  0  0  0  0  0  0  0
   18.2259  -18.1115    5.8907 O   0  0  0  0  0  0  0  0  0  0  0  0
   14.1806  -19.4432    8.7976 O   0  0  0  0  0  0  0  0  0  0  0  0
   22.7589  -17.0420    8.6558 C   0  0  0  0  0  0  0  0  0  0  0  0
   21.6417  -17.6770    7.8568 C   0  0  0  0  0  0  0  0  0  0  0  0
   21.1891  -18.9825    8.4901 C   0  0  2  0  0  0  0  0  0  0  0  0
   22.3569  -19.9520    8.2304 C   0  0  0  0  0  0  0  0  0  0  0  0
   19.9760  -19.4938    7.7486 C   0  0  2  0  0  0  0  0  0  0  0  0
   18.7865  -18.7216    8.0075 N   0  0  0  0  0  0  0  0  0  0  0  0
   19.6719  -20.8616    8.1663 C   0  0  0  0  0  0  0  0  0  0  0  0
   19.8871  -21.9234    7.3027 O   0  0  0  0  0  0  0  0  0  0  0  0
   19.2053  -21.1475    9.3120 O   0  0  0  0  0  0  0  0  0  0  0  0
  2  1  1  6
  2  3  1  0
  4  5  1  0
  4  2  1  0
  5  7  1  0
  5  6  1  1
  7  8  2  0
  9  7  1  0
  9 10  1  0
 10 14  1  0
 10 11  1  6
 12 11  1  0
 13 12  2  0
 14 15  2  0
 16 12  1  0
 18 19  1  0
 18 17  1  0
 19 21  1  0
 19 20  1  6
 21 23  1  0
 21 22  1  1
 22 14  1  0
 23 25  2  0
 23 24  1  0
M  END
$$$$
