LDI.pdb
     RDKit          3D

 25 24  0  0  1  0  0  0  0  0999 V2000
   17.6933  -14.5236  -15.2068 C   0  0  0  0  0  0  0  0  0  0  0  0
   17.8540  -14.1847  -16.6699 C   0  0  2  0  0  0  0  0  0  0  0  0
   18.8925  -15.0836  -17.2994 C   0  0  0  0  0  0  0  0  0  0  0  0
   18.1323  -12.7227  -16.8901 C   0  0  0  0  0  0  0  0  0  0  0  0
   16.9977  -11.9199  -16.2623 C   0  0  2  0  0  0  0  0  0  0  0  0
   15.8215  -12.1491  -17.1274 N   0  0  0  0  0  0  0  0  0  0  0  0
   17.2850  -10.4681  -16.3210 C   0  0  0  0  0  0  0  0  0  0  0  0
   17.2334   -9.8724  -17.4160 O   0  0  0  0  0  0  0  0  0  0  0  0
   17.6221   -9.7077  -15.1622 N   0  0  0  0  0  0  0  0  0  0  0  0
   17.9123   -8.3057  -15.1963 C   0  0  1  0  0  0  0  0  0  0  0  0
   16.6160   -7.5351  -14.9614 C   0  0  0  0  0  0  0  0  0  0  0  0
   16.7877   -6.0720  -14.9384 C   0  0  0  0  0  0  0  0  0  0  0  0
   17.8215   -5.5759  -15.4596 O   0  0  0  0  0  0  0  0  0  0  0  0
   18.9299   -7.8842  -14.1783 C   0  0  0  0  0  0  0  0  0  0  0  0
   18.7973   -8.2818  -12.9804 O   0  0  0  0  0  0  0  0  0  0  0  0
   15.8754   -5.1888  -14.3768 O   0  0  0  0  0  0  0  0  0  0  0  0
   24.4555   -9.2744  -14.4515 C   0  0  0  0  0  0  0  0  0  0  0  0
   23.6080   -8.1182  -13.9671 C   0  0  0  0  0  0  0  0  0  0  0  0
   22.2470   -8.1155  -14.6439 C   0  0  2  0  0  0  0  0  0  0  0  0
   22.5355   -7.6064  -16.0682 C   0  0  0  0  0  0  0  0  0  0  0  0
   21.3566   -7.1092  -13.9532 C   0  0  2  0  0  0  0  0  0  0  0  0
   20.0150   -7.0838  -14.4802 N   0  0  0  0  0  0  0  0  0  0  0  0
   21.8899   -5.7598  -14.1333 C   0  0  0  0  0  0  0  0  0  0  0  0
   21.3344   -4.9051  -15.0717 O   0  0  0  0  0  0  0  0  0  0  0  0
   22.8659   -5.3060  -13.4598 O   0  0  0  0  0  0  0  0  0  0  0  0
  2  1  1  1
  2  3  1  0
  4  5  1  0
  4  2  1  0
  5  7  1  0
  5  6  1  6
  7  8  2  0
  9  7  1  0
  9 10  1  0
 10 14  1  0
 10 11  1  1
 12 11  1  0
 13 12  2  0
 14 15  2  0
 16 12  1  0
 18 19  1  0
 18 17  1  0
 19 21  1  0
 19 20  1  6
 21 23  1  0
 21 22  1  6
 22 14  1  0
 23 25  2  0
 23 24  1  0
M  END
$$$$
