LDI.pdb
     RDKit          3D

 25 24  0  0  1  0  0  0  0  0999 V2000
   14.1124  -11.5433   -8.9721 C   0  0  0  0  0  0  0  0  0  0  0  0
   14.0305  -11.2642  -10.4543 C   0  0  2  0  0  0  0  0  0  0  0  0
   14.3524  -12.5163  -11.2362 C   0  0  0  0  0  0  0  0  0  0  0  0
   14.8727  -10.0858  -10.8608 C   0  0  0  0  0  0  0  0  0  0  0  0
   14.3678   -8.8563  -10.1130 C   0  0  2  0  0  0  0  0  0  0  0  0
   13.0017   -8.6136  -10.6220 N   0  0  0  0  0  0  0  0  0  0  0  0
   15.1660   -7.6600  -10.4672 C   0  0  0  0  0  0  0  0  0  0  0  0
   15.1132   -7.2042  -11.6274 O   0  0  0  0  0  0  0  0  0  0  0  0
   16.0052   -6.9941   -9.5254 N   0  0  0  0  0  0  0  0  0  0  0  0
   16.7249   -5.7921   -9.8227 C   0  0  1  0  0  0  0  0  0  0  0  0
   16.3905   -4.7496   -8.7594 C   0  0  0  0  0  0  0  0  0  0  0  0
   14.9885   -4.2975   -8.7875 C   0  0  0  0  0  0  0  0  0  0  0  0
   14.4040   -4.0710   -7.6950 O   0  0  0  0  0  0  0  0  0  0  0  0
   18.2111   -5.9866   -9.8749 C   0  0  0  0  0  0  0  0  0  0  0  0
   18.8185   -6.3437   -8.8194 O   0  0  0  0  0  0  0  0  0  0  0  0
   14.2569   -4.0981   -9.9505 O   0  0  0  0  0  0  0  0  0  0  0  0
   22.0679   -9.3119  -12.6416 C   0  0  0  0  0  0  0  0  0  0  0  0
   21.8626   -7.8603  -12.2667 C   0  0  0  0  0  0  0  0  0  0  0  0
   20.4248   -7.6010  -11.8477 C   0  0  2  0  0  0  0  0  0  0  0  0
   19.6285   -7.6825  -13.1632 C   0  0  0  0  0  0  0  0  0  0  0  0
   20.3147   -6.1915  -11.3147 C   0  0  2  0  0  0  0  0  0  0  0  0
   18.9583   -5.8006  -11.0223 N   0  0  0  0  0  0  0  0  0  0  0  0
   20.8071   -5.2390  -12.3086 C   0  0  0  0  0  0  0  0  0  0  0  0
   19.9192   -4.4775  -13.0513 O   0  0  0  0  0  0  0  0  0  0  0  0
   22.0421   -5.0599  -12.5429 O   0  0  0  0  0  0  0  0  0  0  0  0
  2  1  1  1
  2  3  1  0
  4  5  1  0
  4  2  1  0
  5  7  1  0
  5  6  1  6
  7  8  2  0
  9  7  1  0
  9 10  1  0
 10 14  1  0
 10 11  1  1
 12 11  1  0
 13 12  2  0
 14 15  2  0
 16 12  1  0
 18 19  1  0
 18 17  1  0
 19 21  1  0
 19 20  1  6
 21 23  1  0
 21 22  1  6
 22 14  1  0
 23 25  2  0
 23 24  1  0
M  END
$$$$
