LDI.pdb
     RDKit          3D

 25 24  0  0  1  0  0  0  0  0999 V2000
   26.5983  -21.7701  -16.7768 C   0  0  0  0  0  0  0  0  0  0  0  0
   26.1086  -20.4097  -16.3397 C   0  0  2  0  0  0  0  0  0  0  0  0
   25.8800  -19.5288  -17.5457 C   0  0  0  0  0  0  0  0  0  0  0  0
   27.0126  -19.7795  -15.3155 C   0  0  0  0  0  0  0  0  0  0  0  0
   27.1003  -20.7151  -14.1144 C   0  0  2  0  0  0  0  0  0  0  0  0
   26.1891  -21.8386  -14.4173 N   0  0  0  0  0  0  0  0  0  0  0  0
   26.5683  -20.0602  -12.8971 C   0  0  0  0  0  0  0  0  0  0  0  0
   25.9975  -18.9548  -12.9903 O   0  0  0  0  0  0  0  0  0  0  0  0
   26.6800  -20.6472  -11.6018 N   0  0  0  0  0  0  0  0  0  0  0  0
   25.6952  -20.4840  -10.5749 C   0  0  1  0  0  0  0  0  0  0  0  0
   24.4078  -21.1707  -11.0224 C   0  0  0  0  0  0  0  0  0  0  0  0
   23.4030  -20.2489  -11.5805 C   0  0  0  0  0  0  0  0  0  0  0  0
   23.4752  -19.0260  -11.2874 O   0  0  0  0  0  0  0  0  0  0  0  0
   26.1197  -21.0438   -9.2498 C   0  0  0  0  0  0  0  0  0  0  0  0
   26.3099  -22.2943   -9.1469 O   0  0  0  0  0  0  0  0  0  0  0  0
   22.3691  -20.6388  -12.4210 O   0  0  0  0  0  0  0  0  0  0  0  0
   29.2068  -17.9650   -5.8451 C   0  0  0  0  0  0  0  0  0  0  0  0
   28.5993  -19.1462   -6.5698 C   0  0  0  0  0  0  0  0  0  0  0  0
   27.2547  -19.5241   -5.9703 C   0  0  2  0  0  0  0  0  0  0  0  0
   27.6048  -20.0691   -4.5733 C   0  0  0  0  0  0  0  0  0  0  0  0
   26.6542  -20.6494   -6.7802 C   0  0  2  0  0  0  0  0  0  0  0  0
   26.3210  -20.2622   -8.1282 N   0  0  0  0  0  0  0  0  0  0  0  0
   25.4061  -21.0996   -6.1660 C   0  0  0  0  0  0  0  0  0  0  0  0
   24.2083  -20.4729   -6.4700 O   0  0  0  0  0  0  0  0  0  0  0  0
   25.3491  -22.0631   -5.3411 O   0  0  0  0  0  0  0  0  0  0  0  0
  2  1  1  6
  2  3  1  0
  4  5  1  0
  4  2  1  0
  5  7  1  0
  5  6  1  6
  7  8  2  0
  9  7  1  0
  9 10  1  0
 10 14  1  0
 10 11  1  6
 12 11  1  0
 13 12  2  0
 14 15  2  0
 16 12  1  0
 18 19  1  0
 18 17  1  0
 19 21  1  0
 19 20  1  1
 21 23  1  0
 21 22  1  6
 22 14  1  0
 23 25  2  0
 23 24  1  0
M  END
$$$$
