LDI.pdb
     RDKit          3D

 25 24  0  0  1  0  0  0  0  0999 V2000
   27.9727  -17.4306  -17.2724 C   0  0  0  0  0  0  0  0  0  0  0  0
   27.4901  -16.3067  -16.3861 C   0  0  2  0  0  0  0  0  0  0  0  0
   28.6424  -15.3973  -16.0281 C   0  0  0  0  0  0  0  0  0  0  0  0
   26.7438  -16.8104  -15.1808 C   0  0  0  0  0  0  0  0  0  0  0  0
   25.7920  -17.9126  -15.6337 C   0  0  2  0  0  0  0  0  0  0  0  0
   24.6919  -17.2235  -16.3401 N   0  0  0  0  0  0  0  0  0  0  0  0
   25.1812  -18.5924  -14.4681 C   0  0  0  0  0  0  0  0  0  0  0  0
   24.6427  -17.9139  -13.5703 O   0  0  0  0  0  0  0  0  0  0  0  0
   25.1798  -20.0116  -14.3246 N   0  0  0  0  0  0  0  0  0  0  0  0
   24.5967  -20.6902  -13.2063 C   0  0  1  0  0  0  0  0  0  0  0  0
   24.0073  -22.0113  -13.6927 C   0  0  0  0  0  0  0  0  0  0  0  0
   23.0989  -22.6513  -12.7253 C   0  0  0  0  0  0  0  0  0  0  0  0
   22.8388  -22.0491  -11.6499 O   0  0  0  0  0  0  0  0  0  0  0  0
   25.5730  -20.9612  -12.1004 C   0  0  0  0  0  0  0  0  0  0  0  0
   26.5922  -21.6763  -12.3462 O   0  0  0  0  0  0  0  0  0  0  0  0
   22.4986  -23.8879  -12.9199 O   0  0  0  0  0  0  0  0  0  0  0  0
   28.3532  -19.2499   -7.0044 C   0  0  0  0  0  0  0  0  0  0  0  0
   27.4940  -20.3033   -7.6689 C   0  0  0  0  0  0  0  0  0  0  0  0
   26.8764  -19.7759   -8.9536 C   0  0  2  0  0  0  0  0  0  0  0  0
   25.9175  -18.6667   -8.4831 C   0  0  0  0  0  0  0  0  0  0  0  0
   26.0550  -20.8725   -9.5905 C   0  0  2  0  0  0  0  0  0  0  0  0
   25.4218  -20.4650  -10.8198 N   0  0  0  0  0  0  0  0  0  0  0  0
   24.9753  -21.2776   -8.6917 C   0  0  0  0  0  0  0  0  0  0  0  0
   25.1913  -22.2504   -7.7290 O   0  0  0  0  0  0  0  0  0  0  0  0
   23.8098  -20.7762   -8.7403 O   0  0  0  0  0  0  0  0  0  0  0  0
  2  1  1  1
  2  3  1  0
  4  5  1  0
  4  2  1  0
  5  7  1  0
  5  6  1  6
  7  8  2  0
  9  7  1  0
  9 10  1  0
 10 14  1  0
 10 11  1  6
 12 11  1  0
 13 12  2  0
 14 15  2  0
 16 12  1  0
 18 19  1  0
 18 17  1  0
 19 21  1  0
 19 20  1  1
 21 23  1  0
 21 22  1  6
 22 14  1  0
 23 25  2  0
 23 24  1  0
M  END
$$$$
