LDI.pdb
     RDKit          3D

 25 24  0  0  1  0  0  0  0  0999 V2000
   29.4982  -17.3240  -18.0701 C   0  0  0  0  0  0  0  0  0  0  0  0
   28.2212  -17.1284  -18.8525 C   0  0  2  0  0  0  0  0  0  0  0  0
   28.3796  -15.9837  -19.8259 C   0  0  0  0  0  0  0  0  0  0  0  0
   27.0211  -16.9762  -17.9580 C   0  0  0  0  0  0  0  0  0  0  0  0
   27.0306  -18.1176  -16.9466 C   0  0  2  0  0  0  0  0  0  0  0  0
   26.9868  -19.3594  -17.7468 N   0  0  0  0  0  0  0  0  0  0  0  0
   25.7978  -18.1039  -16.1258 C   0  0  0  0  0  0  0  0  0  0  0  0
   25.5396  -17.1105  -15.4165 O   0  0  0  0  0  0  0  0  0  0  0  0
   24.8766  -19.1928  -16.1110 N   0  0  0  0  0  0  0  0  0  0  0  0
   23.6797  -19.2022  -15.3246 C   0  0  1  0  0  0  0  0  0  0  0  0
   22.4938  -19.4690  -16.2474 C   0  0  0  0  0  0  0  0  0  0  0  0
   22.2564  -18.4036  -17.2369 C   0  0  0  0  0  0  0  0  0  0  0  0
   21.9517  -17.2528  -16.8254 O   0  0  0  0  0  0  0  0  0  0  0  0
   23.6955  -20.2274  -14.2300 C   0  0  0  0  0  0  0  0  0  0  0  0
   23.9993  -21.4253  -14.5186 O   0  0  0  0  0  0  0  0  0  0  0  0
   22.3491  -18.5810  -18.6108 O   0  0  0  0  0  0  0  0  0  0  0  0
   26.3634  -20.5678   -9.6587 C   0  0  0  0  0  0  0  0  0  0  0  0
   25.5394  -20.1497  -10.8570 C   0  0  0  0  0  0  0  0  0  0  0  0
   24.0521  -20.2364  -10.5563 C   0  0  2  0  0  0  0  0  0  0  0  0
   23.9577  -21.2671   -9.4161 C   0  0  0  0  0  0  0  0  0  0  0  0
   23.3386  -20.7995  -11.7632 C   0  0  2  0  0  0  0  0  0  0  0  0
   23.3993  -19.9322  -12.9131 N   0  0  0  0  0  0  0  0  0  0  0  0
   21.9187  -20.9830  -11.4667 C   0  0  0  0  0  0  0  0  0  0  0  0
   21.4195  -22.2424  -11.1758 O   0  0  0  0  0  0  0  0  0  0  0  0
   21.0841  -20.0262  -11.4595 O   0  0  0  0  0  0  0  0  0  0  0  0
  2  1  1  1
  2  3  1  0
  4  5  1  0
  4  2  1  0
  5  7  1  0
  5  6  1  6
  7  8  2  0
  9  7  1  0
  9 10  1  0
 10 14  1  0
 10 11  1  6
 12 11  1  0
 13 12  2  0
 14 15  2  0
 16 12  1  0
 18 19  1  0
 18 17  1  0
 19 21  1  0
 19 20  1  1
 21 23  1  0
 21 22  1  6
 22 14  1  0
 23 25  2  0
 23 24  1  0
M  END
$$$$
