LDI.pdb
     RDKit          3D

 25 24  0  0  1  0  0  0  0  0999 V2000
   18.0637  -13.1138  -14.6418 C   0  0  0  0  0  0  0  0  0  0  0  0
   17.8697  -12.2539  -15.8683 C   0  0  2  0  0  0  0  0  0  0  0  0
   18.8508  -12.6564  -16.9444 C   0  0  0  0  0  0  0  0  0  0  0  0
   17.9191  -10.7845  -15.5490 C   0  0  0  0  0  0  0  0  0  0  0  0
   16.8523  -10.4866  -14.5006 C   0  0  2  0  0  0  0  0  0  0  0  0
   15.5619  -10.5392  -15.2193 N   0  0  0  0  0  0  0  0  0  0  0  0
   16.9904   -9.1042  -13.9872 C   0  0  0  0  0  0  0  0  0  0  0  0
   16.7216   -8.1397  -14.7314 O   0  0  0  0  0  0  0  0  0  0  0  0
   17.4226   -8.8218  -12.6575 N   0  0  0  0  0  0  0  0  0  0  0  0
   17.7025   -7.4996  -12.1837 C   0  0  1  0  0  0  0  0  0  0  0  0
   17.3569   -7.4319  -10.6987 C   0  0  0  0  0  0  0  0  0  0  0  0
   17.5848   -6.1084  -10.0930 C   0  0  0  0  0  0  0  0  0  0  0  0
   17.8833   -5.1425  -10.8444 O   0  0  0  0  0  0  0  0  0  0  0  0
   19.1317   -7.0885  -12.3784 C   0  0  0  0  0  0  0  0  0  0  0  0
   20.0371   -7.6995  -11.7323 O   0  0  0  0  0  0  0  0  0  0  0  0
   17.4896   -5.8468   -8.7328 O   0  0  0  0  0  0  0  0  0  0  0  0
   23.2664   -6.5794  -15.9675 C   0  0  0  0  0  0  0  0  0  0  0  0
   22.3803   -5.4087  -15.6017 C   0  0  0  0  0  0  0  0  0  0  0  0
   20.9915   -5.8776  -15.1996 C   0  0  2  0  0  0  0  0  0  0  0  0
   20.0423   -4.8869  -15.8986 C   0  0  0  0  0  0  0  0  0  0  0  0
   20.8305   -5.7134  -13.7063 C   0  0  2  0  0  0  0  0  0  0  0  0
   19.5170   -6.0749  -13.2348 N   0  0  0  0  0  0  0  0  0  0  0  0
   21.0264   -4.3139  -13.3310 C   0  0  0  0  0  0  0  0  0  0  0  0
   19.9380   -3.4729  -13.1648 O   0  0  0  0  0  0  0  0  0  0  0  0
   22.1730   -3.8024  -13.1417 O   0  0  0  0  0  0  0  0  0  0  0  0
  2  1  1  1
  2  3  1  0
  4  5  1  0
  4  2  1  0
  5  7  1  0
  5  6  1  6
  7  8  2  0
  9  7  1  0
  9 10  1  0
 10 14  1  0
 10 11  1  1
 12 11  1  0
 13 12  2  0
 14 15  2  0
 16 12  1  0
 18 19  1  0
 18 17  1  0
 19 21  1  0
 19 20  1  6
 21 23  1  0
 21 22  1  6
 22 14  1  0
 23 25  2  0
 23 24  1  0
M  END
$$$$
