KHH.pdb
     RDKit          3D

 30 31  0  0  1  0  0  0  0  0999 V2000
   22.6427  -27.4843  -16.4208 N   0  0  0  0  0  0  0  0  0  0  0  0
   22.4058  -26.6447  -15.2515 C   0  0  1  0  0  0  0  0  0  0  0  0
   23.2645  -25.4380  -15.3967 C   0  0  0  0  0  0  0  0  0  0  0  0
   23.5819  -25.0733  -16.8096 C   0  0  0  0  0  0  0  0  0  0  0  0
   25.0822  -25.0774  -17.0223 C   0  0  0  0  0  0  0  0  0  0  0  0
   25.6511  -23.6751  -16.9965 C   0  0  0  0  0  0  0  0  0  0  0  0
   27.0656  -23.6594  -17.2093 N   0  0  0  0  0  0  0  0  0  0  0  0
   20.9745  -26.4037  -15.0917 C   0  0  0  0  0  0  0  0  0  0  0  0
   20.0979  -27.2149  -15.5457 O   0  0  0  0  0  0  0  0  0  0  0  0
   20.5369  -25.2284  -14.4088 N   0  0  0  0  0  0  0  0  0  0  0  0
   19.1267  -24.9911  -14.1976 C   0  0  1  0  0  0  0  0  0  0  0  0
   18.8521  -24.5602  -12.7627 C   0  0  0  0  0  0  0  0  0  0  0  0
   18.8911  -25.6779  -11.8166 C   0  0  0  0  0  0  0  0  0  0  0  0
   18.2516  -26.8865  -11.9804 C   0  0  0  0  0  0  0  0  0  0  0  0
   18.5351  -27.6268  -10.9053 N   0  0  0  0  0  0  0  0  0  0  0  0
   19.3202  -26.9110  -10.1007 C   0  0  0  0  0  0  0  0  0  0  0  0
   19.5402  -25.7254  -10.6493 N   0  0  0  0  0  0  0  0  0  0  0  0
   18.6791  -23.8771  -15.0665 C   0  0  0  0  0  0  0  0  0  0  0  0
   19.4879  -22.9348  -15.2674 O   0  0  0  0  0  0  0  0  0  0  0  0
   17.3974  -23.9102  -15.6232 N   0  0  0  0  0  0  0  0  0  0  0  0
   16.9821  -22.8089  -16.5292 C   0  0  1  0  0  0  0  0  0  0  0  0
   15.7343  -23.2848  -17.1665 C   0  0  0  0  0  0  0  0  0  0  0  0
   15.0354  -22.3565  -18.0687 C   0  0  0  0  0  0  0  0  0  0  0  0
   15.4201  -21.1211  -18.5040 C   0  0  0  0  0  0  0  0  0  0  0  0
   14.5031  -20.6214  -19.3970 N   0  0  0  0  0  0  0  0  0  0  0  0
   13.5717  -21.5725  -19.4884 C   0  0  0  0  0  0  0  0  0  0  0  0
   13.8508  -22.6146  -18.7182 N   0  0  0  0  0  0  0  0  0  0  0  0
   16.7898  -21.6030  -15.6630 C   0  0  0  0  0  0  0  0  0  0  0  0
   16.4861  -21.7379  -14.2906 O   0  0  0  0  0  0  0  0  0  0  0  0
   16.8801  -20.4457  -16.0738 O   0  0  0  0  0  0  0  0  0  0  0  0
  2  1  1  6
  2  3  1  0
  3  4  1  0
  4  5  1  0
  5  6  1  0
  7  6  1  0
  8  2  1  0
  8  9  2  0
 10  8  1  0
 11 10  1  0
 11 12  1  1
 13 12  1  0
 14 13  2  0
 15 16  1  0
 15 14  1  0
 16 17  2  0
 17 13  1  0
 18 11  1  0
 19 18  2  0
 20 18  1  0
 21 20  1  0
 21 28  1  0
 21 22  1  1
 23 24  2  0
 23 22  1  0
 25 24  1  0
 26 27  2  0
 26 25  1  0
 27 23  1  0
 28 29  1  0
 30 28  2  0
M  END
$$$$
