KHH.pdb
     RDKit          3D

 30 31  0  0  1  0  0  0  0  0999 V2000
   22.5103  -13.9049  -17.9494 N   0  0  0  0  0  0  0  0  0  0  0  0
   22.0757  -12.6201  -18.4868 C   0  0  1  0  0  0  0  0  0  0  0  0
   20.7436  -12.8350  -19.1144 C   0  0  0  0  0  0  0  0  0  0  0  0
   20.1861  -14.2071  -18.9235 C   0  0  0  0  0  0  0  0  0  0  0  0
   18.8967  -14.3570  -19.7054 C   0  0  0  0  0  0  0  0  0  0  0  0
   18.3089  -15.7426  -19.5477 C   0  0  0  0  0  0  0  0  0  0  0  0
   17.0386  -15.8698  -20.1932 N   0  0  0  0  0  0  0  0  0  0  0  0
   22.1428  -11.5961  -17.4479 C   0  0  0  0  0  0  0  0  0  0  0  0
   21.4221  -11.6542  -16.3944 O   0  0  0  0  0  0  0  0  0  0  0  0
   23.0385  -10.4958  -17.6097 N   0  0  0  0  0  0  0  0  0  0  0  0
   23.1358   -9.4792  -16.5866 C   0  0  1  0  0  0  0  0  0  0  0  0
   24.5134   -8.8294  -16.5887 C   0  0  0  0  0  0  0  0  0  0  0  0
   25.5695   -9.7355  -16.1311 C   0  0  0  0  0  0  0  0  0  0  0  0
   25.3869  -11.0432  -15.7401 C   0  0  0  0  0  0  0  0  0  0  0  0
   26.5870  -11.5194  -15.3978 N   0  0  0  0  0  0  0  0  0  0  0  0
   27.4850  -10.5493  -15.5674 C   0  0  0  0  0  0  0  0  0  0  0  0
   26.8725   -9.4625  -16.0130 N   0  0  0  0  0  0  0  0  0  0  0  0
   22.1593   -8.4009  -16.8693 C   0  0  0  0  0  0  0  0  0  0  0  0
   22.0328   -8.0292  -18.0645 O   0  0  0  0  0  0  0  0  0  0  0  0
   21.4255   -7.8434  -15.8184 N   0  0  0  0  0  0  0  0  0  0  0  0
   20.4562   -6.7588  -16.1188 C   0  0  1  0  0  0  0  0  0  0  0  0
   19.1857   -7.1955  -15.4986 C   0  0  0  0  0  0  0  0  0  0  0  0
   18.3573   -8.1523  -16.2485 C   0  0  0  0  0  0  0  0  0  0  0  0
   18.4952   -8.5928  -17.5333 C   0  0  0  0  0  0  0  0  0  0  0  0
   17.5442   -9.5429  -17.8181 N   0  0  0  0  0  0  0  0  0  0  0  0
   16.8420   -9.6629  -16.6898 C   0  0  0  0  0  0  0  0  0  0  0  0
   17.2922   -8.8574  -15.7382 N   0  0  0  0  0  0  0  0  0  0  0  0
   21.0209   -5.5118  -15.5125 C   0  0  0  0  0  0  0  0  0  0  0  0
   20.5844   -4.2378  -15.9373 O   0  0  0  0  0  0  0  0  0  0  0  0
   21.8785   -5.5099  -14.6288 O   0  0  0  0  0  0  0  0  0  0  0  0
  2  1  1  1
  2  3  1  0
  3  4  1  0
  4  5  1  0
  5  6  1  0
  7  6  1  0
  8  2  1  0
  8  9  2  0
 10  8  1  0
 11 10  1  0
 11 12  1  6
 13 12  1  0
 14 13  2  0
 15 16  1  0
 15 14  1  0
 16 17  2  0
 17 13  1  0
 18 11  1  0
 19 18  2  0
 20 18  1  0
 21 20  1  0
 21 28  1  0
 21 22  1  1
 23 24  2  0
 23 22  1  0
 25 24  1  0
 26 27  2  0
 26 25  1  0
 27 23  1  0
 28 29  1  0
 30 28  2  0
M  END
$$$$
