KHH.pdb
     RDKit          3D

 30 31  0  0  1  0  0  0  0  0999 V2000
   24.7484  -14.6394  -19.1780 N   0  0  0  0  0  0  0  0  0  0  0  0
   23.5962  -14.8419  -18.3064 C   0  0  1  0  0  0  0  0  0  0  0  0
   22.4364  -14.1653  -18.9480 C   0  0  0  0  0  0  0  0  0  0  0  0
   21.8768  -13.0245  -18.1636 C   0  0  0  0  0  0  0  0  0  0  0  0
   22.1851  -11.7146  -18.8602 C   0  0  0  0  0  0  0  0  0  0  0  0
   21.6471  -10.5321  -18.0839 C   0  0  0  0  0  0  0  0  0  0  0  0
   21.8131   -9.2988  -18.7896 N   0  0  0  0  0  0  0  0  0  0  0  0
   23.4345  -16.2636  -18.0151 C   0  0  0  0  0  0  0  0  0  0  0  0
   23.1643  -17.1143  -18.9295 O   0  0  0  0  0  0  0  0  0  0  0  0
   23.5817  -16.7214  -16.6705 N   0  0  0  0  0  0  0  0  0  0  0  0
   23.4439  -18.1265  -16.3601 C   0  0  1  0  0  0  0  0  0  0  0  0
   24.6831  -18.6551  -15.6494 C   0  0  0  0  0  0  0  0  0  0  0  0
   25.8813  -18.6145  -16.4910 C   0  0  0  0  0  0  0  0  0  0  0  0
   26.9297  -17.7333  -16.3471 C   0  0  0  0  0  0  0  0  0  0  0  0
   27.8168  -18.0228  -17.3028 N   0  0  0  0  0  0  0  0  0  0  0  0
   27.3434  -19.0439  -18.0165 C   0  0  0  0  0  0  0  0  0  0  0  0
   26.1671  -19.4080  -17.5278 N   0  0  0  0  0  0  0  0  0  0  0  0
   22.3083  -18.3158  -15.4270 C   0  0  0  0  0  0  0  0  0  0  0  0
   22.4016  -17.7978  -14.2844 O   0  0  0  0  0  0  0  0  0  0  0  0
   21.1927  -19.0497  -15.8398 N   0  0  0  0  0  0  0  0  0  0  0  0
   20.0492  -19.2008  -14.9039 C   0  0  1  0  0  0  0  0  0  0  0  0
   18.9774  -18.3488  -15.4652 C   0  0  0  0  0  0  0  0  0  0  0  0
   18.9559  -16.9331  -15.0660 C   0  0  0  0  0  0  0  0  0  0  0  0
   19.2367  -16.3732  -13.8529 C   0  0  0  0  0  0  0  0  0  0  0  0
   19.1646  -15.0032  -13.9299 N   0  0  0  0  0  0  0  0  0  0  0  0
   18.8400  -14.7556  -15.2002 C   0  0  0  0  0  0  0  0  0  0  0  0
   18.7080  -15.8710  -15.9042 N   0  0  0  0  0  0  0  0  0  0  0  0
   19.7091  -20.6588  -14.8892 C   0  0  0  0  0  0  0  0  0  0  0  0
   19.0233  -21.2317  -13.7959 O   0  0  0  0  0  0  0  0  0  0  0  0
   19.9946  -21.4358  -15.8008 O   0  0  0  0  0  0  0  0  0  0  0  0
  2  1  1  6
  2  3  1  0
  3  4  1  0
  4  5  1  0
  5  6  1  0
  7  6  1  0
  8  2  1  0
  8  9  2  0
 10  8  1  0
 11 10  1  0
 11 12  1  1
 13 12  1  0
 14 13  2  0
 15 16  1  0
 15 14  1  0
 16 17  2  0
 17 13  1  0
 18 11  1  0
 19 18  2  0
 20 18  1  0
 21 20  1  0
 21 28  1  0
 21 22  1  6
 23 24  2  0
 23 22  1  0
 25 24  1  0
 26 27  2  0
 26 25  1  0
 27 23  1  0
 28 29  1  0
 30 28  2  0
M  END
$$$$
