KHH.pdb
     RDKit          3D

 30 31  0  0  1  0  0  0  0  0999 V2000
   27.5258  -22.8812  -17.1355 N   0  0  0  0  0  0  0  0  0  0  0  0
   27.0107  -21.5991  -16.6673 C   0  0  1  0  0  0  0  0  0  0  0  0
   26.3471  -20.9432  -17.8266 C   0  0  0  0  0  0  0  0  0  0  0  0
   27.2761  -20.5505  -18.9278 C   0  0  0  0  0  0  0  0  0  0  0  0
   27.8736  -19.1876  -18.6418 C   0  0  0  0  0  0  0  0  0  0  0  0
   28.8010  -18.7431  -19.7521 C   0  0  0  0  0  0  0  0  0  0  0  0
   29.3436  -17.4405  -19.5170 N   0  0  0  0  0  0  0  0  0  0  0  0
   26.1867  -21.7964  -15.4780 C   0  0  0  0  0  0  0  0  0  0  0  0
   25.2575  -22.6727  -15.4376 O   0  0  0  0  0  0  0  0  0  0  0  0
   26.4224  -20.9889  -14.3241 N   0  0  0  0  0  0  0  0  0  0  0  0
   25.5911  -21.1350  -13.1506 C   0  0  1  0  0  0  0  0  0  0  0  0
   26.1332  -20.3123  -11.9889 C   0  0  0  0  0  0  0  0  0  0  0  0
   25.3736  -20.5070  -10.7516 C   0  0  0  0  0  0  0  0  0  0  0  0
   24.2826  -21.3345  -10.6053 C   0  0  0  0  0  0  0  0  0  0  0  0
   23.8814  -21.2303   -9.3355 N   0  0  0  0  0  0  0  0  0  0  0  0
   24.6883  -20.3724   -8.7117 C   0  0  0  0  0  0  0  0  0  0  0  0
   25.5974  -19.9294   -9.5674 N   0  0  0  0  0  0  0  0  0  0  0  0
   24.2341  -20.6146  -13.4402 C   0  0  0  0  0  0  0  0  0  0  0  0
   24.1496  -19.5173  -14.0495 O   0  0  0  0  0  0  0  0  0  0  0  0
   23.1147  -21.3466  -13.0344 N   0  0  0  0  0  0  0  0  0  0  0  0
   21.7622  -20.8114  -13.3352 C   0  0  1  0  0  0  0  0  0  0  0  0
   20.9669  -21.9877  -13.7520 C   0  0  0  0  0  0  0  0  0  0  0  0
   21.0249  -22.3796  -15.1687 C   0  0  0  0  0  0  0  0  0  0  0  0
   21.7179  -21.8064  -16.1959 C   0  0  0  0  0  0  0  0  0  0  0  0
   21.5497  -22.5323  -17.3504 N   0  0  0  0  0  0  0  0  0  0  0  0
   20.7517  -23.5420  -16.9982 C   0  0  0  0  0  0  0  0  0  0  0  0
   20.4198  -23.4870  -15.7160 N   0  0  0  0  0  0  0  0  0  0  0  0
   21.2724  -20.1747  -12.0718 C   0  0  0  0  0  0  0  0  0  0  0  0
   20.3009  -19.1506  -12.1061 O   0  0  0  0  0  0  0  0  0  0  0  0
   21.6701  -20.4897  -10.9498 O   0  0  0  0  0  0  0  0  0  0  0  0
  2  1  1  6
  2  3  1  0
  3  4  1  0
  4  5  1  0
  5  6  1  0
  7  6  1  0
  8  2  1  0
  8  9  2  0
 10  8  1  0
 11 10  1  0
 11 12  1  1
 13 12  1  0
 14 13  2  0
 15 16  1  0
 15 14  1  0
 16 17  2  0
 17 13  1  0
 18 11  1  0
 19 18  2  0
 20 18  1  0
 21 20  1  0
 21 28  1  0
 21 22  1  1
 23 24  2  0
 23 22  1  0
 25 24  1  0
 26 27  2  0
 26 25  1  0
 27 23  1  0
 28 29  1  0
 30 28  2  0
M  END
$$$$
