KHH.pdb
     RDKit          3D

 30 31  0  0  1  0  0  0  0  0999 V2000
   28.3025  -21.9616  -16.7110 N   0  0  0  0  0  0  0  0  0  0  0  0
   27.1931  -21.3324  -17.4193 C   0  0  1  0  0  0  0  0  0  0  0  0
   26.4294  -22.4184  -18.0914 C   0  0  0  0  0  0  0  0  0  0  0  0
   25.8936  -23.4601  -17.1652 C   0  0  0  0  0  0  0  0  0  0  0  0
   25.1396  -24.5144  -17.9501 C   0  0  0  0  0  0  0  0  0  0  0  0
   24.4675  -25.5144  -17.0342 C   0  0  0  0  0  0  0  0  0  0  0  0
   23.7742  -26.5340  -17.7596 N   0  0  0  0  0  0  0  0  0  0  0  0
   26.4366  -20.4806  -16.5058 C   0  0  0  0  0  0  0  0  0  0  0  0
   26.4180  -20.6904  -15.2455 O   0  0  0  0  0  0  0  0  0  0  0  0
   25.6945  -19.3797  -17.0316 N   0  0  0  0  0  0  0  0  0  0  0  0
   24.9437  -18.5181  -16.1465 C   0  0  1  0  0  0  0  0  0  0  0  0
   24.7985  -17.1206  -16.7348 C   0  0  0  0  0  0  0  0  0  0  0  0
   26.0405  -16.3464  -16.6732 C   0  0  0  0  0  0  0  0  0  0  0  0
   27.0143  -16.4730  -15.7078 C   0  0  0  0  0  0  0  0  0  0  0  0
   27.9764  -15.5960  -16.0066 N   0  0  0  0  0  0  0  0  0  0  0  0
   27.6197  -14.9463  -17.1143 C   0  0  0  0  0  0  0  0  0  0  0  0
   26.4438  -15.3981  -17.5242 N   0  0  0  0  0  0  0  0  0  0  0  0
   23.5714  -19.0535  -15.9847 C   0  0  0  0  0  0  0  0  0  0  0  0
   23.1062  -19.7542  -16.9202 O   0  0  0  0  0  0  0  0  0  0  0  0
   22.8534  -18.7673  -14.8202 N   0  0  0  0  0  0  0  0  0  0  0  0
   21.4508  -19.2436  -14.7090 C   0  0  1  0  0  0  0  0  0  0  0  0
   21.1730  -19.2864  -13.2562 C   0  0  0  0  0  0  0  0  0  0  0  0
   19.7796  -19.5030  -12.8372 C   0  0  0  0  0  0  0  0  0  0  0  0
   18.6677  -19.7011  -13.6042 C   0  0  0  0  0  0  0  0  0  0  0  0
   17.5724  -19.9343  -12.8079 N   0  0  0  0  0  0  0  0  0  0  0  0
   18.0452  -19.8740  -11.5616 C   0  0  0  0  0  0  0  0  0  0  0  0
   19.3462  -19.6212  -11.5371 N   0  0  0  0  0  0  0  0  0  0  0  0
   20.6107  -18.2505  -15.4502 C   0  0  0  0  0  0  0  0  0  0  0  0
   20.9110  -16.8714  -15.4062 O   0  0  0  0  0  0  0  0  0  0  0  0
   19.6298  -18.5572  -16.1286 O   0  0  0  0  0  0  0  0  0  0  0  0
  2  1  1  1
  2  3  1  0
  3  4  1  0
  4  5  1  0
  5  6  1  0
  7  6  1  0
  8  2  1  0
  8  9  2  0
 10  8  1  0
 11 10  1  0
 11 12  1  6
 13 12  1  0
 14 13  2  0
 15 16  1  0
 15 14  1  0
 16 17  2  0
 17 13  1  0
 18 11  1  0
 19 18  2  0
 20 18  1  0
 21 20  1  0
 21 28  1  0
 21 22  1  1
 23 24  2  0
 23 22  1  0
 25 24  1  0
 26 27  2  0
 26 25  1  0
 27 23  1  0
 28 29  1  0
 30 28  2  0
M  END
$$$$
