KHH.pdb
     RDKit          3D

 30 31  0  0  1  0  0  0  0  0999 V2000
   21.0631  -16.0058  -19.5691 N   0  0  0  0  0  0  0  0  0  0  0  0
   20.3389  -15.2982  -18.5188 C   0  0  1  0  0  0  0  0  0  0  0  0
   20.8356  -15.8188  -17.2162 C   0  0  0  0  0  0  0  0  0  0  0  0
   20.5830  -17.2741  -16.9969 C   0  0  0  0  0  0  0  0  0  0  0  0
   20.8795  -17.6413  -15.5569 C   0  0  0  0  0  0  0  0  0  0  0  0
   20.7040  -19.1248  -15.3142 C   0  0  0  0  0  0  0  0  0  0  0  0
   21.0719  -19.5043  -13.9848 N   0  0  0  0  0  0  0  0  0  0  0  0
   20.4476  -13.8563  -18.7220 C   0  0  0  0  0  0  0  0  0  0  0  0
   21.5548  -13.2992  -19.0325 O   0  0  0  0  0  0  0  0  0  0  0  0
   19.2851  -13.0408  -18.5704 N   0  0  0  0  0  0  0  0  0  0  0  0
   19.3022  -11.6608  -19.0005 C   0  0  1  0  0  0  0  0  0  0  0  0
   17.9166  -11.2068  -19.4411 C   0  0  0  0  0  0  0  0  0  0  0  0
   17.4931  -11.8181  -20.7032 C   0  0  0  0  0  0  0  0  0  0  0  0
   18.2844  -12.5938  -21.5207 C   0  0  0  0  0  0  0  0  0  0  0  0
   17.5318  -12.9554  -22.5634 N   0  0  0  0  0  0  0  0  0  0  0  0
   16.3183  -12.4276  -22.4053 C   0  0  0  0  0  0  0  0  0  0  0  0
   16.2886  -11.7352  -21.2763 N   0  0  0  0  0  0  0  0  0  0  0  0
   19.6887  -10.7947  -17.8618 C   0  0  0  0  0  0  0  0  0  0  0  0
   19.5720  -11.2705  -16.7032 O   0  0  0  0  0  0  0  0  0  0  0  0
   20.1610   -9.5026  -18.1088 N   0  0  0  0  0  0  0  0  0  0  0  0
   20.4571   -8.6161  -16.9543 C   0  0  1  0  0  0  0  0  0  0  0  0
   21.4402   -7.6351  -17.4648 C   0  0  0  0  0  0  0  0  0  0  0  0
   21.8639   -6.5608  -16.5534 C   0  0  0  0  0  0  0  0  0  0  0  0
   21.6944   -6.4569  -15.2028 C   0  0  0  0  0  0  0  0  0  0  0  0
   22.3072   -5.3217  -14.7295 N   0  0  0  0  0  0  0  0  0  0  0  0
   22.8430   -4.7542  -15.8117 C   0  0  0  0  0  0  0  0  0  0  0  0
   22.6031   -5.4569  -16.9097 N   0  0  0  0  0  0  0  0  0  0  0  0
   19.1524   -8.0021  -16.5515 C   0  0  0  0  0  0  0  0  0  0  0  0
   18.9136   -7.6217  -15.2127 O   0  0  0  0  0  0  0  0  0  0  0  0
   18.2256   -7.7925  -17.3346 O   0  0  0  0  0  0  0  0  0  0  0  0
  2  1  1  6
  2  3  1  0
  3  4  1  0
  4  5  1  0
  5  6  1  0
  7  6  1  0
  8  2  1  0
  8  9  2  0
 10  8  1  0
 11 10  1  0
 11 12  1  1
 13 12  1  0
 14 13  2  0
 15 16  1  0
 15 14  1  0
 16 17  2  0
 17 13  1  0
 18 11  1  0
 19 18  2  0
 20 18  1  0
 21 20  1  0
 21 28  1  0
 21 22  1  6
 23 24  2  0
 23 22  1  0
 25 24  1  0
 26 27  2  0
 26 25  1  0
 27 23  1  0
 28 29  1  0
 30 28  2  0
M  END
$$$$
