KHH.pdb
     RDKit          3D

 30 31  0  0  1  0  0  0  0  0999 V2000
   28.7750  -21.1311  -19.3789 N   0  0  0  0  0  0  0  0  0  0  0  0
   28.1073  -21.5919  -18.1664 C   0  0  1  0  0  0  0  0  0  0  0  0
   29.1699  -21.9125  -17.1752 C   0  0  0  0  0  0  0  0  0  0  0  0
   30.1943  -22.8840  -17.6617 C   0  0  0  0  0  0  0  0  0  0  0  0
   30.1106  -24.1698  -16.8642 C   0  0  0  0  0  0  0  0  0  0  0  0
   31.4667  -24.5861  -16.3370 C   0  0  0  0  0  0  0  0  0  0  0  0
   31.3985  -25.7731  -15.5414 N   0  0  0  0  0  0  0  0  0  0  0  0
   27.1054  -20.6159  -17.7467 C   0  0  0  0  0  0  0  0  0  0  0  0
   27.2193  -19.3721  -18.0162 O   0  0  0  0  0  0  0  0  0  0  0  0
   25.9634  -21.0598  -17.0133 N   0  0  0  0  0  0  0  0  0  0  0  0
   24.8489  -20.1668  -16.7898 C   0  0  1  0  0  0  0  0  0  0  0  0
   23.8460  -20.2447  -17.9336 C   0  0  0  0  0  0  0  0  0  0  0  0
   24.2119  -19.3943  -19.0689 C   0  0  0  0  0  0  0  0  0  0  0  0
   25.2999  -18.5516  -19.1183 C   0  0  0  0  0  0  0  0  0  0  0  0
   25.2806  -17.9594  -20.3155 N   0  0  0  0  0  0  0  0  0  0  0  0
   24.2235  -18.4127  -20.9886 C   0  0  0  0  0  0  0  0  0  0  0  0
   23.5699  -19.2854  -20.2360 N   0  0  0  0  0  0  0  0  0  0  0  0
   24.1252  -20.5793  -15.5641 C   0  0  0  0  0  0  0  0  0  0  0  0
   24.6535  -21.4683  -14.8480 O   0  0  0  0  0  0  0  0  0  0  0  0
   22.9029  -19.9780  -15.2509 N   0  0  0  0  0  0  0  0  0  0  0  0
   22.2479  -20.3176  -13.9617 C   0  0  1  0  0  0  0  0  0  0  0  0
   23.2216  -19.9231  -12.9197 C   0  0  0  0  0  0  0  0  0  0  0  0
   24.0905  -20.9747  -12.3688 C   0  0  0  0  0  0  0  0  0  0  0  0
   24.2333  -22.2731  -12.7656 C   0  0  0  0  0  0  0  0  0  0  0  0
   25.2072  -22.8961  -12.0230 N   0  0  0  0  0  0  0  0  0  0  0  0
   25.6417  -21.9548  -11.1831 C   0  0  0  0  0  0  0  0  0  0  0  0
   25.0062  -20.8045  -11.3566 N   0  0  0  0  0  0  0  0  0  0  0  0
   20.9739  -19.5323  -13.9188 C   0  0  0  0  0  0  0  0  0  0  0  0
   19.8652  -19.9907  -13.1741 O   0  0  0  0  0  0  0  0  0  0  0  0
   20.8091  -18.4655  -14.5111 O   0  0  0  0  0  0  0  0  0  0  0  0
  2  1  1  6
  2  3  1  0
  3  4  1  0
  4  5  1  0
  5  6  1  0
  7  6  1  0
  8  2  1  0
  8  9  2  0
 10  8  1  0
 11 10  1  0
 11 12  1  6
 13 12  1  0
 14 13  2  0
 15 16  1  0
 15 14  1  0
 16 17  2  0
 17 13  1  0
 18 11  1  0
 19 18  2  0
 20 18  1  0
 21 20  1  0
 21 28  1  0
 21 22  1  1
 23 24  2  0
 23 22  1  0
 25 24  1  0
 26 27  2  0
 26 25  1  0
 27 23  1  0
 28 29  1  0
 30 28  2  0
M  END
$$$$
