PRK.pdb
     RDKit          3D

 28 28  0  0  1  0  0  0  0  0999 V2000
    9.2721  -14.8465   17.7953 N   0  0  0  0  0  0  0  0  0  0  0  0
    9.0077  -14.2361   16.4989 C   0  0  0  0  0  0  0  0  0  0  0  0
    7.8807  -13.2771   16.6711 C   0  0  0  0  0  0  0  0  0  0  0  0
    7.4345  -13.5213   18.1055 C   0  0  0  0  0  0  0  0  0  0  0  0
    8.7330  -13.9154   18.7715 C   0  0  1  0  0  0  0  0  0  0  0  0
    8.5366  -14.5615   20.0889 C   0  0  0  0  0  0  0  0  0  0  0  0
    7.9574  -13.9592   21.0466 O   0  0  0  0  0  0  0  0  0  0  0  0
   12.4530  -21.8858   24.3928 N   0  0  0  0  0  0  0  0  0  0  0  0
   11.8594  -20.6403   24.6420 C   0  0  0  0  0  0  0  0  0  0  0  0
   11.4871  -20.2603   25.8100 N   0  0  0  0  0  0  0  0  0  0  0  0
   11.6454  -19.7211   23.5504 N   0  0  0  0  0  0  0  0  0  0  0  0
   10.5298  -19.9007   22.6479 C   0  0  0  0  0  0  0  0  0  0  0  0
    9.5571  -18.7159   22.7551 C   0  0  0  0  0  0  0  0  0  0  0  0
    9.8125  -17.8487   21.5518 C   0  0  0  0  0  0  0  0  0  0  0  0
    8.9090  -16.6207   21.5354 C   0  0  2  0  0  0  0  0  0  0  0  0
    8.9915  -15.8780   20.3134 N   0  0  0  0  0  0  0  0  0  0  0  0
    9.2781  -15.8366   22.7249 C   0  0  0  0  0  0  0  0  0  0  0  0
   10.3877  -15.2372   22.6970 O   0  0  0  0  0  0  0  0  0  0  0  0
   11.0266  -19.3671   26.0405 N   0  0  0  0  0  0  0  0  0  0  0  0
    8.4764  -15.7196   23.8578 C   0  0  2  0  0  0  0  0  0  0  0  0
    8.7137  -14.6636   24.9189 C   0  0  0  0  0  0  0  0  0  0  0  0
    7.4042  -13.9673   25.0681 C   0  0  0  0  0  0  0  0  0  0  0  0
    7.2201  -12.9824   26.1136 C   0  0  0  0  0  0  0  0  0  0  0  0
    5.9760  -12.2718   26.4160 C   0  0  0  0  0  0  0  0  0  0  0  0
    6.3031  -11.3113   27.6209 N   0  0  0  0  0  0  0  0  0  0  0  0
    5.1309  -10.5858   27.9868 C   0  0  0  0  0  0  0  0  0  0  0  0
    9.0480  -15.4223   26.1377 O   0  0  0  0  0  0  0  0  0  0  0  0
    9.4914  -14.7933   27.1788 O   0  0  0  0  0  0  0  0  0  0  0  0
  1  5  1  0
  2  1  1  0
  2  3  1  0
  3  4  1  0
  5  6  1  1
  5  4  1  0
  6  7  2  0
  9 11  1  0
  9  8  1  0
 10  9  2  0
 12 13  1  0
 12 11  1  0
 13 14  1  0
 15 14  1  6
 16 15  1  0
 16  6  1  0
 17 18  2  0
 17 15  1  0
 19 17  1  0
 20 19  1  0
 20 26  1  0
 20 21  1  1
 22 21  1  0
 23 22  1  0
 24 23  1  0
 24 25  1  0
 26 28  1  0
 27 26  2  0
M  END
$$$$
