PRK.pdb
     RDKit          3D

 28 28  0  0  1  0  0  0  0  0999 V2000
    7.4439  -15.2667   19.0640 N   0  0  0  0  0  0  0  0  0  0  0  0
    6.8238  -14.7969   17.8319 C   0  0  0  0  0  0  0  0  0  0  0  0
    7.1638  -13.3550   17.6747 C   0  0  0  0  0  0  0  0  0  0  0  0
    7.8699  -13.0216   18.9810 C   0  0  0  0  0  0  0  0  0  0  0  0
    8.5309  -14.3377   19.3211 C   0  0  1  0  0  0  0  0  0  0  0  0
    8.9879  -14.4111   20.7273 C   0  0  0  0  0  0  0  0  0  0  0  0
   10.1586  -14.0513   21.0670 O   0  0  0  0  0  0  0  0  0  0  0  0
    8.6789  -12.2943   27.3699 N   0  0  0  0  0  0  0  0  0  0  0  0
    7.9188  -13.1346   28.1957 C   0  0  0  0  0  0  0  0  0  0  0  0
    8.1960  -13.3437   29.4313 N   0  0  0  0  0  0  0  0  0  0  0  0
    6.7629  -13.8092   27.6562 N   0  0  0  0  0  0  0  0  0  0  0  0
    6.5065  -13.8014   26.2330 C   0  0  0  0  0  0  0  0  0  0  0  0
    7.6733  -14.4527   25.4742 C   0  0  0  0  0  0  0  0  0  0  0  0
    7.3066  -14.4079   24.0152 C   0  0  0  0  0  0  0  0  0  0  0  0
    8.4072  -14.9902   23.1355 C   0  0  2  0  0  0  0  0  0  0  0  0
    8.1225  -14.8858   21.7355 N   0  0  0  0  0  0  0  0  0  0  0  0
    8.5953  -16.3757   23.5945 C   0  0  0  0  0  0  0  0  0  0  0  0
    7.5945  -17.1415   23.5366 O   0  0  0  0  0  0  0  0  0  0  0  0
    7.6973  -13.9851   30.0660 N   0  0  0  0  0  0  0  0  0  0  0  0
    9.8021  -16.8777   24.0756 C   0  0  2  0  0  0  0  0  0  0  0  0
    9.9643  -18.3150   24.5288 C   0  0  0  0  0  0  0  0  0  0  0  0
   11.3320  -18.7065   24.0837 C   0  0  0  0  0  0  0  0  0  0  0  0
   11.6476  -18.7646   22.6716 C   0  0  0  0  0  0  0  0  0  0  0  0
   12.9543  -19.0878   22.0952 C   0  0  0  0  0  0  0  0  0  0  0  0
   12.7609  -19.0620   20.5321 N   0  0  0  0  0  0  0  0  0  0  0  0
   14.0266  -19.2071   19.8906 C   0  0  0  0  0  0  0  0  0  0  0  0
    9.8860  -18.2577   25.9997 O   0  0  0  0  0  0  0  0  0  0  0  0
    9.9678  -19.3526   26.6857 O   0  0  0  0  0  0  0  0  0  0  0  0
  1  5  1  0
  2  1  1  0
  2  3  1  0
  3  4  1  0
  5  6  1  1
  5  4  1  0
  6  7  2  0
  9 11  1  0
  9  8  1  0
 10  9  2  0
 12 13  1  0
 12 11  1  0
 13 14  1  0
 15 14  1  1
 16 15  1  0
 16  6  1  0
 17 18  2  0
 17 15  1  0
 19 17  1  0
 20 19  1  0
 20 26  1  0
 20 21  1  6
 22 21  1  0
 23 22  1  0
 24 23  1  0
 24 25  1  0
 26 28  1  0
 27 26  2  0
M  END
$$$$
