PRK.pdb
     RDKit          3D

 28 28  0  0  1  0  0  0  0  0999 V2000
    9.5090  -14.1567   18.9390 N   0  0  0  0  0  0  0  0  0  0  0  0
    9.1492  -13.4580   17.7119 C   0  0  0  0  0  0  0  0  0  0  0  0
    7.7242  -13.0397   17.8299 C   0  0  0  0  0  0  0  0  0  0  0  0
    7.2770  -13.6967   19.1277 C   0  0  0  0  0  0  0  0  0  0  0  0
    8.5559  -13.6946   19.9334 C   0  0  1  0  0  0  0  0  0  0  0  0
    8.5067  -14.6016   21.1024 C   0  0  0  0  0  0  0  0  0  0  0  0
    7.5407  -14.5728   21.9279 O   0  0  0  0  0  0  0  0  0  0  0  0
    9.4086  -21.0579   21.0171 N   0  0  0  0  0  0  0  0  0  0  0  0
   10.3438  -21.1666   19.9782 C   0  0  0  0  0  0  0  0  0  0  0  0
   10.1835  -21.9397   18.9664 N   0  0  0  0  0  0  0  0  0  0  0  0
   11.5539  -20.3817   20.0230 N   0  0  0  0  0  0  0  0  0  0  0  0
   11.7363  -19.3719   21.0420 C   0  0  0  0  0  0  0  0  0  0  0  0
   10.4853  -18.4861   21.1493 C   0  0  0  0  0  0  0  0  0  0  0  0
   10.7747  -17.4739   22.2248 C   0  0  0  0  0  0  0  0  0  0  0  0
    9.6279  -16.4838   22.3955 C   0  0  2  0  0  0  0  0  0  0  0  0
    9.5430  -15.5320   21.3283 N   0  0  0  0  0  0  0  0  0  0  0  0
    9.8249  -15.8675   23.7173 C   0  0  0  0  0  0  0  0  0  0  0  0
   10.8448  -15.1402   23.8665 O   0  0  0  0  0  0  0  0  0  0  0  0
   10.8175  -22.0213   18.1575 N   0  0  0  0  0  0  0  0  0  0  0  0
    8.9550  -16.0382   24.7915 C   0  0  1  0  0  0  0  0  0  0  0  0
    9.1540  -15.3377   26.1209 C   0  0  0  0  0  0  0  0  0  0  0  0
    7.7896  -14.9027   26.5343 C   0  0  0  0  0  0  0  0  0  0  0  0
    7.3878  -13.5207   26.3737 C   0  0  0  0  0  0  0  0  0  0  0  0
    6.0756  -12.9624   26.7067 C   0  0  0  0  0  0  0  0  0  0  0  0
    6.1905  -11.4085   26.4757 N   0  0  0  0  0  0  0  0  0  0  0  0
    4.9511  -10.7829   26.8028 C   0  0  0  0  0  0  0  0  0  0  0  0
    9.6694  -16.3824   27.0242 O   0  0  0  0  0  0  0  0  0  0  0  0
    9.4988  -17.6292   26.7201 O   0  0  0  0  0  0  0  0  0  0  0  0
  1  5  1  0
  2  1  1  0
  2  3  1  0
  3  4  1  0
  5  6  1  1
  5  4  1  0
  6  7  2  0
  9 11  1  0
  9  8  1  0
 10  9  2  0
 12 13  1  0
 12 11  1  0
 13 14  1  0
 15 14  1  6
 16 15  1  0
 16  6  1  0
 17 18  2  0
 17 15  1  0
 19 17  1  0
 20 19  1  0
 20 26  1  0
 20 21  1  6
 22 21  1  0
 23 22  1  0
 24 23  1  0
 24 25  1  0
 26 28  1  0
 27 26  2  0
M  END
$$$$
