PRK.pdb
     RDKit          3D

 28 28  0  0  1  0  0  0  0  0999 V2000
    9.1508  -22.1657   19.2114 N   0  0  0  0  0  0  0  0  0  0  0  0
    8.6565  -23.5072   19.4924 C   0  0  0  0  0  0  0  0  0  0  0  0
    8.1402  -23.5163   20.8899 C   0  0  0  0  0  0  0  0  0  0  0  0
    8.5335  -22.1424   21.4131 C   0  0  0  0  0  0  0  0  0  0  0  0
    8.4670  -21.3019   20.1584 C   0  0  1  0  0  0  0  0  0  0  0  0
    9.1520  -19.9969   20.2974 C   0  0  0  0  0  0  0  0  0  0  0  0
   10.3431  -19.8228   19.8893 O   0  0  0  0  0  0  0  0  0  0  0  0
    8.4135  -12.8941   18.2125 N   0  0  0  0  0  0  0  0  0  0  0  0
    8.5080  -12.1746   19.4121 C   0  0  0  0  0  0  0  0  0  0  0  0
    9.0069  -10.9945   19.4865 N   0  0  0  0  0  0  0  0  0  0  0  0
    8.0279  -12.7657   20.6379 N   0  0  0  0  0  0  0  0  0  0  0  0
    7.5067  -14.1146   20.6472 C   0  0  0  0  0  0  0  0  0  0  0  0
    8.6225  -15.1185   20.9764 C   0  0  0  0  0  0  0  0  0  0  0  0
    7.9935  -16.4845   20.9177 C   0  0  0  0  0  0  0  0  0  0  0  0
    9.0223  -17.5919   21.1165 C   0  0  2  0  0  0  0  0  0  0  0  0
    8.4890  -18.9022   20.8911 N   0  0  0  0  0  0  0  0  0  0  0  0
    9.5577  -17.4017   22.4741 C   0  0  0  0  0  0  0  0  0  0  0  0
    8.7223  -17.3267   23.4164 O   0  0  0  0  0  0  0  0  0  0  0  0
    9.0239  -10.3934   20.3240 N   0  0  0  0  0  0  0  0  0  0  0  0
   10.9159  -17.3076   22.7674 C   0  0  2  0  0  0  0  0  0  0  0  0
   11.4417  -17.2610   24.1883 C   0  0  0  0  0  0  0  0  0  0  0  0
   12.0619  -18.5976   24.4130 C   0  0  0  0  0  0  0  0  0  0  0  0
   12.7338  -18.8859   25.6630 C   0  0  0  0  0  0  0  0  0  0  0  0
   13.3656  -20.1559   26.0265 C   0  0  0  0  0  0  0  0  0  0  0  0
   13.9253  -19.9634   27.4863 N   0  0  0  0  0  0  0  0  0  0  0  0
   14.4304  -21.2053   27.9731 C   0  0  0  0  0  0  0  0  0  0  0  0
   12.4659  -16.2009   24.1767 O   0  0  0  0  0  0  0  0  0  0  0  0
   12.9811  -15.7998   25.2947 O   0  0  0  0  0  0  0  0  0  0  0  0
  1  5  1  0
  2  1  1  0
  2  3  1  0
  3  4  1  0
  5  6  1  1
  5  4  1  0
  6  7  2  0
  9 11  1  0
  9  8  1  0
 10  9  2  0
 12 13  1  0
 12 11  1  0
 13 14  1  0
 15 14  1  1
 16 15  1  0
 16  6  1  0
 17 18  2  0
 17 15  1  0
 19 17  1  0
 20 19  1  0
 20 26  1  0
 20 21  1  6
 22 21  1  0
 23 22  1  0
 24 23  1  0
 24 25  1  0
 26 28  1  0
 27 26  2  0
M  END
$$$$
