PRK.pdb
     RDKit          3D

 28 28  0  0  1  0  0  0  0  0999 V2000
    9.3507  -19.2462   18.2035 N   0  0  0  0  0  0  0  0  0  0  0  0
    9.2120  -19.5784   16.7916 C   0  0  0  0  0  0  0  0  0  0  0  0
   10.2219  -18.7838   16.0378 C   0  0  0  0  0  0  0  0  0  0  0  0
   10.8110  -17.8720   17.1044 C   0  0  0  0  0  0  0  0  0  0  0  0
   10.7024  -18.7323   18.3425 C   0  0  1  0  0  0  0  0  0  0  0  0
   10.8664  -17.9653   19.5982 C   0  0  0  0  0  0  0  0  0  0  0  0
   12.0106  -17.5914   20.0059 O   0  0  0  0  0  0  0  0  0  0  0  0
    9.0395  -12.9368   18.6234 N   0  0  0  0  0  0  0  0  0  0  0  0
    8.5797  -12.0633   19.6191 C   0  0  0  0  0  0  0  0  0  0  0  0
    8.9967  -10.8558   19.7419 N   0  0  0  0  0  0  0  0  0  0  0  0
    7.5890  -12.5179   20.5646 N   0  0  0  0  0  0  0  0  0  0  0  0
    7.4338  -13.9283   20.8438 C   0  0  0  0  0  0  0  0  0  0  0  0
    8.7437  -14.5133   21.3946 C   0  0  0  0  0  0  0  0  0  0  0  0
    8.4691  -15.9638   21.6872 C   0  0  0  0  0  0  0  0  0  0  0  0
    9.7270  -16.8161   21.5610 C   0  0  2  0  0  0  0  0  0  0  0  0
    9.7417  -17.6256   20.3793 N   0  0  0  0  0  0  0  0  0  0  0  0
    9.8093  -17.5948   22.8070 C   0  0  0  0  0  0  0  0  0  0  0  0
    8.8368  -18.3515   23.0776 O   0  0  0  0  0  0  0  0  0  0  0  0
    8.7315  -10.1939   20.4866 N   0  0  0  0  0  0  0  0  0  0  0  0
   10.8896  -17.5447   23.6846 C   0  0  2  0  0  0  0  0  0  0  0  0
   10.9708  -18.4081   24.9277 C   0  0  0  0  0  0  0  0  0  0  0  0
   12.3756  -18.9054   24.9594 C   0  0  0  0  0  0  0  0  0  0  0  0
   12.8293  -19.7313   26.0590 C   0  0  0  0  0  0  0  0  0  0  0  0
   14.1865  -20.2497   26.2420 C   0  0  0  0  0  0  0  0  0  0  0  0
   14.1415  -21.1445   27.5377 N   0  0  0  0  0  0  0  0  0  0  0  0
   15.4012  -21.7885   27.7188 C   0  0  0  0  0  0  0  0  0  0  0  0
   10.7148  -17.4832   26.0466 O   0  0  0  0  0  0  0  0  0  0  0  0
   10.5124  -17.9589   27.2336 O   0  0  0  0  0  0  0  0  0  0  0  0
  1  5  1  0
  2  1  1  0
  2  3  1  0
  3  4  1  0
  5  6  1  1
  5  4  1  0
  6  7  2  0
  9 11  1  0
  9  8  1  0
 10  9  2  0
 12 13  1  0
 12 11  1  0
 13 14  1  0
 15 14  1  1
 16 15  1  0
 16  6  1  0
 17 18  2  0
 17 15  1  0
 19 17  1  0
 20 19  1  0
 20 26  1  0
 20 21  1  6
 22 21  1  0
 23 22  1  0
 24 23  1  0
 24 25  1  0
 26 28  1  0
 27 26  2  0
M  END
$$$$
