PRK.pdb
     RDKit          3D

 28 28  0  0  1  0  0  0  0  0999 V2000
    8.4165  -14.8839   18.3388 N   0  0  0  0  0  0  0  0  0  0  0  0
    7.4202  -14.0670   17.6581 C   0  0  0  0  0  0  0  0  0  0  0  0
    7.3434  -12.7600   18.3691 C   0  0  0  0  0  0  0  0  0  0  0  0
    8.2391  -12.9723   19.5811 C   0  0  0  0  0  0  0  0  0  0  0  0
    9.2679  -13.9392   19.0411 C   0  0  1  0  0  0  0  0  0  0  0  0
   10.0550  -14.6028   20.1049 C   0  0  0  0  0  0  0  0  0  0  0  0
   10.8533  -13.9506   20.8483 O   0  0  0  0  0  0  0  0  0  0  0  0
    6.7794  -22.3027   19.8564 N   0  0  0  0  0  0  0  0  0  0  0  0
    7.5932  -21.2440   19.4291 C   0  0  0  0  0  0  0  0  0  0  0  0
    7.8404  -21.0022   18.1931 N   0  0  0  0  0  0  0  0  0  0  0  0
    8.1944  -20.3676   20.4052 N   0  0  0  0  0  0  0  0  0  0  0  0
    9.6224  -20.3919   20.6324 C   0  0  0  0  0  0  0  0  0  0  0  0
   10.2366  -19.0156   20.3328 C   0  0  0  0  0  0  0  0  0  0  0  0
    9.9307  -18.1475   21.5236 C   0  0  0  0  0  0  0  0  0  0  0  0
   10.5303  -16.7533   21.3783 C   0  0  2  0  0  0  0  0  0  0  0  0
    9.9333  -15.9915   20.3222 N   0  0  0  0  0  0  0  0  0  0  0  0
   11.9781  -16.9560   21.2097 C   0  0  0  0  0  0  0  0  0  0  0  0
   12.4048  -17.1046   20.0319 O   0  0  0  0  0  0  0  0  0  0  0  0
    8.5345  -20.3307   17.8322 N   0  0  0  0  0  0  0  0  0  0  0  0
   12.8865  -16.9857   22.2651 C   0  0  1  0  0  0  0  0  0  0  0  0
   14.3723  -17.2010   22.0560 C   0  0  0  0  0  0  0  0  0  0  0  0
   15.0276  -16.0508   22.7411 C   0  0  0  0  0  0  0  0  0  0  0  0
   16.4671  -16.0219   22.8963 C   0  0  0  0  0  0  0  0  0  0  0  0
   17.2333  -15.0075   23.6231 C   0  0  0  0  0  0  0  0  0  0  0  0
   18.7494  -15.3997   23.4525 N   0  0  0  0  0  0  0  0  0  0  0  0
   19.5707  -14.4295   24.0995 C   0  0  0  0  0  0  0  0  0  0  0  0
   14.6712  -18.4666   22.7502 O   0  0  0  0  0  0  0  0  0  0  0  0
   15.6798  -19.1817   22.3660 O   0  0  0  0  0  0  0  0  0  0  0  0
  1  5  1  0
  2  1  1  0
  2  3  1  0
  3  4  1  0
  5  6  1  1
  5  4  1  0
  6  7  2  0
  9 11  1  0
  9  8  1  0
 10  9  2  0
 12 13  1  0
 12 11  1  0
 13 14  1  0
 15 14  1  6
 16 15  1  0
 16  6  1  0
 17 18  2  0
 17 15  1  0
 19 17  1  0
 20 19  1  0
 20 26  1  0
 20 21  1  1
 22 21  1  0
 23 22  1  0
 24 23  1  0
 24 25  1  0
 26 28  1  0
 27 26  2  0
M  END
$$$$
