PRK.pdb
     RDKit          3D

 28 28  0  0  1  0  0  0  0  0999 V2000
    8.8240  -14.8163   19.1306 N   0  0  0  0  0  0  0  0  0  0  0  0
    8.6136  -14.2094   17.8227 C   0  0  0  0  0  0  0  0  0  0  0  0
    7.7324  -13.0229   18.0102 C   0  0  0  0  0  0  0  0  0  0  0  0
    7.3379  -13.1132   19.4773 C   0  0  0  0  0  0  0  0  0  0  0  0
    8.5617  -13.7561   20.0887 C   0  0  1  0  0  0  0  0  0  0  0  0
    8.3168  -14.2968   21.4449 C   0  0  0  0  0  0  0  0  0  0  0  0
    8.0381  -13.5369   22.4248 O   0  0  0  0  0  0  0  0  0  0  0  0
   12.2026  -19.2897   23.7805 N   0  0  0  0  0  0  0  0  0  0  0  0
   12.3236  -19.8537   22.5026 C   0  0  0  0  0  0  0  0  0  0  0  0
   13.4522  -20.1586   21.9730 N   0  0  0  0  0  0  0  0  0  0  0  0
   11.1376  -20.1155   21.7234 N   0  0  0  0  0  0  0  0  0  0  0  0
    9.8367  -19.7111   22.2086 C   0  0  0  0  0  0  0  0  0  0  0  0
    9.7879  -18.1881   22.4070 C   0  0  0  0  0  0  0  0  0  0  0  0
    8.3851  -17.8633   22.8448 C   0  0  0  0  0  0  0  0  0  0  0  0
    8.1498  -16.3590   22.9250 C   0  0  2  0  0  0  0  0  0  0  0  0
    8.3856  -15.6858   21.6829 N   0  0  0  0  0  0  0  0  0  0  0  0
    9.0026  -15.8788   24.0241 C   0  0  0  0  0  0  0  0  0  0  0  0
   10.2111  -15.6399   23.7521 O   0  0  0  0  0  0  0  0  0  0  0  0
   13.5955  -20.5457   21.0282 N   0  0  0  0  0  0  0  0  0  0  0  0
    8.5504  -15.6724   25.3251 C   0  0  1  0  0  0  0  0  0  0  0  0
    9.4544  -15.1671   26.4319 C   0  0  0  0  0  0  0  0  0  0  0  0
    8.5941  -14.2655   27.2496 C   0  0  0  0  0  0  0  0  0  0  0  0
    7.9900  -13.0951   26.6479 C   0  0  0  0  0  0  0  0  0  0  0  0
    6.6197  -12.6267   26.8654 C   0  0  0  0  0  0  0  0  0  0  0  0
    6.4910  -11.2702   26.0750 N   0  0  0  0  0  0  0  0  0  0  0  0
    5.2010  -10.7051   26.3008 C   0  0  0  0  0  0  0  0  0  0  0  0
    9.8273  -16.3725   27.1941 O   0  0  0  0  0  0  0  0  0  0  0  0
    9.2281  -17.4934   26.9477 O   0  0  0  0  0  0  0  0  0  0  0  0
  1  5  1  0
  2  1  1  0
  2  3  1  0
  3  4  1  0
  5  6  1  1
  5  4  1  0
  6  7  2  0
  9 11  1  0
  9  8  1  0
 10  9  2  0
 12 13  1  0
 12 11  1  0
 13 14  1  0
 15 14  1  6
 16 15  1  0
 16  6  1  0
 17 18  2  0
 17 15  1  0
 19 17  1  0
 20 19  1  0
 20 26  1  0
 20 21  1  1
 22 21  1  0
 23 22  1  0
 24 23  1  0
 24 25  1  0
 26 28  1  0
 27 26  2  0
M  END
$$$$
