PRK.pdb
     RDKit          3D

 28 28  0  0  1  0  0  0  0  0999 V2000
    9.2343  -14.2663   19.2041 N   0  0  0  0  0  0  0  0  0  0  0  0
    8.7297  -13.2462   18.2942 C   0  0  0  0  0  0  0  0  0  0  0  0
    7.4338  -12.7535   18.8397 C   0  0  0  0  0  0  0  0  0  0  0  0
    7.1779  -13.6836   20.0168 C   0  0  0  0  0  0  0  0  0  0  0  0
    8.5836  -13.9982   20.4750 C   0  0  1  0  0  0  0  0  0  0  0  0
    8.6509  -15.1692   21.3783 C   0  0  0  0  0  0  0  0  0  0  0  0
    7.9877  -15.2140   22.4616 O   0  0  0  0  0  0  0  0  0  0  0  0
   12.1404  -18.7360   16.3462 N   0  0  0  0  0  0  0  0  0  0  0  0
   11.0325  -19.2614   17.0261 C   0  0  0  0  0  0  0  0  0  0  0  0
    9.9112  -19.5123   16.4544 N   0  0  0  0  0  0  0  0  0  0  0  0
   11.1304  -19.5439   18.4379 N   0  0  0  0  0  0  0  0  0  0  0  0
   10.0205  -20.1433   19.1450 C   0  0  0  0  0  0  0  0  0  0  0  0
    9.2726  -19.0822   19.9673 C   0  0  0  0  0  0  0  0  0  0  0  0
   10.2289  -18.6227   21.0347 C   0  0  0  0  0  0  0  0  0  0  0  0
    9.6643  -17.4568   21.8386 C   0  0  2  0  0  0  0  0  0  0  0  0
    9.4611  -16.2771   21.0518 N   0  0  0  0  0  0  0  0  0  0  0  0
   10.5927  -17.2595   22.9633 C   0  0  0  0  0  0  0  0  0  0  0  0
   11.4333  -16.3248   22.8579 O   0  0  0  0  0  0  0  0  0  0  0  0
    9.6823  -19.3412   15.4638 N   0  0  0  0  0  0  0  0  0  0  0  0
   10.5872  -18.0345   24.1204 C   0  0  2  0  0  0  0  0  0  0  0  0
   11.6106  -17.8583   25.2246 C   0  0  0  0  0  0  0  0  0  0  0  0
   11.0600  -18.6166   26.3837 C   0  0  0  0  0  0  0  0  0  0  0  0
   11.8811  -18.8537   27.5527 C   0  0  0  0  0  0  0  0  0  0  0  0
   11.5207  -19.6864   28.7021 C   0  0  0  0  0  0  0  0  0  0  0  0
   12.6943  -19.5289   29.7410 N   0  0  0  0  0  0  0  0  0  0  0  0
   12.3694  -20.2293   30.9402 C   0  0  0  0  0  0  0  0  0  0  0  0
   12.8344  -18.4990   24.7101 O   0  0  0  0  0  0  0  0  0  0  0  0
   12.7400  -19.5830   24.0085 O   0  0  0  0  0  0  0  0  0  0  0  0
  1  5  1  0
  2  1  1  0
  2  3  1  0
  3  4  1  0
  5  6  1  1
  5  4  1  0
  6  7  2  0
  9 11  1  0
  9  8  1  0
 10  9  2  0
 12 13  1  0
 12 11  1  0
 13 14  1  0
 15 14  1  6
 16 15  1  0
 16  6  1  0
 17 18  2  0
 17 15  1  0
 19 17  1  0
 20 19  1  0
 20 26  1  0
 20 21  1  1
 22 21  1  0
 23 22  1  0
 24 23  1  0
 24 25  1  0
 26 28  1  0
 27 26  2  0
M  END
$$$$
