WAA.pdb
     RDKit          3D

 25 26  0  0  1  0  0  0  0  0999 V2000
    8.3386  -17.4983   24.1616 N   0  0  0  0  0  0  0  0  0  0  0  0
    8.4660  -16.6957   22.9350 C   0  0  1  0  0  0  0  0  0  0  0  0
    7.2716  -15.7796   22.9256 C   0  0  0  0  0  0  0  0  0  0  0  0
    6.9136  -15.2413   24.2492 C   0  0  0  0  0  0  0  0  0  0  0  0
    6.3021  -15.9675   25.2671 C   0  0  0  0  0  0  0  0  0  0  0  0
    6.1256  -15.1650   26.3256 N   0  0  0  0  0  0  0  0  0  0  0  0
    6.5922  -13.9194   26.0707 C   0  0  0  0  0  0  0  0  0  0  0  0
    6.6394  -12.7668   26.8199 C   0  0  0  0  0  0  0  0  0  0  0  0
    7.1876  -11.6268   26.2764 C   0  0  0  0  0  0  0  0  0  0  0  0
    7.6771  -11.6707   24.9882 C   0  0  0  0  0  0  0  0  0  0  0  0
    7.6270  -12.8365   24.2366 C   0  0  0  0  0  0  0  0  0  0  0  0
    7.0835  -13.9763   24.7692 C   0  0  0  0  0  0  0  0  0  0  0  0
    9.7457  -15.9479   23.0294 C   0  0  0  0  0  0  0  0  0  0  0  0
   10.2946  -15.4775   21.9976 O   0  0  0  0  0  0  0  0  0  0  0  0
   12.4618  -16.7144   23.5340 C   0  0  0  0  0  0  0  0  0  0  0  0
   11.4905  -16.6251   24.6755 C   0  0  2  0  0  0  0  0  0  0  0  0
   10.4100  -15.7264   24.2731 N   0  0  0  0  0  0  0  0  0  0  0  0
   12.1378  -16.0984   25.9123 C   0  0  0  0  0  0  0  0  0  0  0  0
   12.9945  -16.7766   26.5322 O   0  0  0  0  0  0  0  0  0  0  0  0
    9.9656  -13.8266   27.5833 C   0  0  0  0  0  0  0  0  0  0  0  0
   11.2164  -14.6892   27.7453 C   0  0  2  0  0  0  0  0  0  0  0  0
   11.8151  -14.8153   26.4377 N   0  0  0  0  0  0  0  0  0  0  0  0
   10.8245  -15.9897   28.3180 C   0  0  0  0  0  0  0  0  0  0  0  0
   11.2217  -16.3146   29.4531 O   0  0  0  0  0  0  0  0  0  0  0  0
   10.0194  -16.8416   27.5942 O   0  0  0  0  0  0  0  0  0  0  0  0
  2  1  1  1
  2  3  1  0
  2 13  1  0
  4  3  1  0
  4  5  2  0
  6  5  1  0
  7  6  1  0
  8  7  2  0
  9  8  1  0
 10  9  2  0
 10 11  1  0
 11 12  2  0
 12  7  1  0
 12  4  1  0
 13 14  2  0
 16 15  1  6
 17 13  1  0
 17 16  1  0
 18 16  1  0
 18 19  2  0
 21 20  1  6
 21 23  1  0
 21 22  1  0
 22 18  1  0
 23 25  1  0
 24 23  2  0
M  END
$$$$
