WAA.pdb
     RDKit          3D

 25 26  0  0  1  0  0  0  0  0999 V2000
    6.9186  -17.6261   24.5371 N   0  0  0  0  0  0  0  0  0  0  0  0
    7.8827  -16.5223   24.4059 C   0  0  1  0  0  0  0  0  0  0  0  0
    7.8067  -15.7631   25.7034 C   0  0  0  0  0  0  0  0  0  0  0  0
    6.7287  -14.7606   25.7538 C   0  0  0  0  0  0  0  0  0  0  0  0
    5.4054  -15.0283   26.0928 C   0  0  0  0  0  0  0  0  0  0  0  0
    4.7045  -13.8877   26.0352 N   0  0  0  0  0  0  0  0  0  0  0  0
    5.4968  -12.8517   25.6701 C   0  0  0  0  0  0  0  0  0  0  0  0
    5.2538  -11.5119   25.4752 C   0  0  0  0  0  0  0  0  0  0  0  0
    6.2863  -10.6838   25.0959 C   0  0  0  0  0  0  0  0  0  0  0  0
    7.5432  -11.2223   24.9201 C   0  0  0  0  0  0  0  0  0  0  0  0
    7.7828  -12.5750   25.1182 C   0  0  0  0  0  0  0  0  0  0  0  0
    6.7616  -13.4071   25.4961 C   0  0  0  0  0  0  0  0  0  0  0  0
    9.2204  -17.1301   24.1891 C   0  0  0  0  0  0  0  0  0  0  0  0
    9.4830  -18.2822   24.6262 O   0  0  0  0  0  0  0  0  0  0  0  0
   12.4649  -16.1997   22.5842 C   0  0  0  0  0  0  0  0  0  0  0  0
   11.6296  -16.9596   23.5737 C   0  0  2  0  0  0  0  0  0  0  0  0
   10.2613  -16.4526   23.4858 N   0  0  0  0  0  0  0  0  0  0  0  0
   12.1322  -16.7886   24.9682 C   0  0  0  0  0  0  0  0  0  0  0  0
   13.2767  -17.1896   25.2961 O   0  0  0  0  0  0  0  0  0  0  0  0
   11.0932  -14.8997   27.9870 C   0  0  0  0  0  0  0  0  0  0  0  0
   11.8359  -16.0622   27.3302 C   0  0  2  0  0  0  0  0  0  0  0  0
   11.3428  -16.1685   25.9775 N   0  0  0  0  0  0  0  0  0  0  0  0
   11.5967  -17.2841   28.1193 C   0  0  0  0  0  0  0  0  0  0  0  0
   12.0093  -17.3578   29.2923 O   0  0  0  0  0  0  0  0  0  0  0  0
   10.9166  -18.3409   27.5551 O   0  0  0  0  0  0  0  0  0  0  0  0
  2  1  1  1
  2  3  1  0
  2 13  1  0
  4  3  1  0
  4  5  2  0
  6  5  1  0
  7  6  1  0
  8  7  2  0
  9  8  1  0
 10  9  2  0
 10 11  1  0
 11 12  2  0
 12  7  1  0
 12  4  1  0
 13 14  2  0
 16 15  1  6
 17 13  1  0
 17 16  1  0
 18 16  1  0
 18 19  2  0
 21 20  1  1
 21 23  1  0
 21 22  1  0
 22 18  1  0
 23 25  1  0
 24 23  2  0
M  END
$$$$
