WAA.pdb
     RDKit          3D

 25 26  0  0  1  0  0  0  0  0999 V2000
    6.5015  -18.1838   24.0513 N   0  0  0  0  0  0  0  0  0  0  0  0
    7.2229  -16.9457   23.7169 C   0  0  1  0  0  0  0  0  0  0  0  0
    7.7622  -16.4269   25.0230 C   0  0  0  0  0  0  0  0  0  0  0  0
    6.9521  -15.3553   25.6274 C   0  0  0  0  0  0  0  0  0  0  0  0
    5.8490  -15.5574   26.4518 C   0  0  0  0  0  0  0  0  0  0  0  0
    5.3579  -14.3656   26.8178 N   0  0  0  0  0  0  0  0  0  0  0  0
    6.0820  -13.3575   26.2757 C   0  0  0  0  0  0  0  0  0  0  0  0
    5.9804  -11.9878   26.3502 C   0  0  0  0  0  0  0  0  0  0  0  0
    6.8861  -11.2029   25.6725 C   0  0  0  0  0  0  0  0  0  0  0  0
    7.8762  -11.8139   24.9328 C   0  0  0  0  0  0  0  0  0  0  0  0
    7.9741  -13.1965   24.8610 C   0  0  0  0  0  0  0  0  0  0  0  0
    7.0775  -13.9861   25.5324 C   0  0  0  0  0  0  0  0  0  0  0  0
    8.3058  -17.3101   22.7681 C   0  0  0  0  0  0  0  0  0  0  0  0
    8.7388  -18.4917   22.7077 O   0  0  0  0  0  0  0  0  0  0  0  0
   10.3089  -15.6715   20.0766 C   0  0  0  0  0  0  0  0  0  0  0  0
   10.0629  -16.7504   21.0914 C   0  0  2  0  0  0  0  0  0  0  0  0
    8.9029  -16.3571   21.8893 N   0  0  0  0  0  0  0  0  0  0  0  0
   11.2389  -16.9433   21.9893 C   0  0  0  0  0  0  0  0  0  0  0  0
   12.3415  -17.3374   21.5342 O   0  0  0  0  0  0  0  0  0  0  0  0
   12.1621  -16.0200   25.4522 C   0  0  0  0  0  0  0  0  0  0  0  0
   12.2996  -16.9411   24.2409 C   0  0  2  0  0  0  0  0  0  0  0  0
   11.1620  -16.6905   23.3881 N   0  0  0  0  0  0  0  0  0  0  0  0
   12.3601  -18.3369   24.7110 C   0  0  0  0  0  0  0  0  0  0  0  0
   13.3264  -18.7209   25.3969 O   0  0  0  0  0  0  0  0  0  0  0  0
   11.3459  -19.2120   24.3893 O   0  0  0  0  0  0  0  0  0  0  0  0
  2  1  1  1
  2  3  1  0
  2 13  1  0
  4  3  1  0
  4  5  2  0
  6  5  1  0
  7  6  1  0
  8  7  2  0
  9  8  1  0
 10  9  2  0
 10 11  1  0
 11 12  2  0
 12  7  1  0
 12  4  1  0
 13 14  2  0
 16 15  1  6
 17 13  1  0
 17 16  1  0
 18 16  1  0
 18 19  2  0
 21 20  1  1
 21 23  1  0
 21 22  1  0
 22 18  1  0
 23 25  1  0
 24 23  2  0
M  END
$$$$
