WAA.pdb
     RDKit          3D

 25 26  0  0  1  0  0  0  0  0999 V2000
    8.3255  -19.2484   20.1108 N   0  0  0  0  0  0  0  0  0  0  0  0
    9.1901  -18.0674   20.2613 C   0  0  1  0  0  0  0  0  0  0  0  0
    8.6019  -17.2783   21.4002 C   0  0  0  0  0  0  0  0  0  0  0  0
    7.6648  -16.2217   20.9818 C   0  0  0  0  0  0  0  0  0  0  0  0
    6.2781  -16.3033   21.0724 C   0  0  0  0  0  0  0  0  0  0  0  0
    5.7460  -15.1665   20.6033 N   0  0  0  0  0  0  0  0  0  0  0  0
    6.7144  -14.3119   20.1956 C   0  0  0  0  0  0  0  0  0  0  0  0
    6.6790  -13.0489   19.6519 C   0  0  0  0  0  0  0  0  0  0  0  0
    7.8586  -12.4155   19.3312 C   0  0  0  0  0  0  0  0  0  0  0  0
    9.0508  -13.0676   19.5645 C   0  0  0  0  0  0  0  0  0  0  0  0
    9.0807  -14.3421   20.1134 C   0  0  0  0  0  0  0  0  0  0  0  0
    7.9118  -14.9804   20.4362 C   0  0  0  0  0  0  0  0  0  0  0  0
   10.5577  -18.5595   20.5671 C   0  0  0  0  0  0  0  0  0  0  0  0
   10.7302  -19.6685   21.1396 O   0  0  0  0  0  0  0  0  0  0  0  0
   14.0706  -17.6262   19.7727 C   0  0  0  0  0  0  0  0  0  0  0  0
   13.0412  -18.3507   20.5911 C   0  0  2  0  0  0  0  0  0  0  0  0
   11.7288  -17.8147   20.2343 N   0  0  0  0  0  0  0  0  0  0  0  0
   13.2694  -18.1678   22.0543 C   0  0  0  0  0  0  0  0  0  0  0  0
   14.3440  -18.5352   22.5914 O   0  0  0  0  0  0  0  0  0  0  0  0
   11.5063  -16.4779   24.8711 C   0  0  0  0  0  0  0  0  0  0  0  0
   12.4879  -17.5135   24.3249 C   0  0  2  0  0  0  0  0  0  0  0  0
   12.2875  -17.5738   22.8965 N   0  0  0  0  0  0  0  0  0  0  0  0
   12.2330  -18.8047   24.9889 C   0  0  0  0  0  0  0  0  0  0  0  0
   11.7557  -19.7546   24.3395 O   0  0  0  0  0  0  0  0  0  0  0  0
   12.5243  -18.9556   26.3269 O   0  0  0  0  0  0  0  0  0  0  0  0
  2  1  1  1
  2  3  1  0
  2 13  1  0
  4  3  1  0
  4  5  2  0
  6  5  1  0
  7  6  1  0
  8  7  2  0
  9  8  1  0
 10  9  2  0
 10 11  1  0
 11 12  2  0
 12  7  1  0
 12  4  1  0
 13 14  2  0
 16 15  1  6
 17 13  1  0
 17 16  1  0
 18 16  1  0
 18 19  2  0
 21 20  1  1
 21 23  1  0
 21 22  1  0
 22 18  1  0
 23 25  1  0
 24 23  2  0
M  END
$$$$
