WAA.pdb
     RDKit          3D

 25 26  0  0  1  0  0  0  0  0999 V2000
    6.9180  -17.3632   23.2127 N   0  0  0  0  0  0  0  0  0  0  0  0
    7.8070  -16.2831   23.6690 C   0  0  1  0  0  0  0  0  0  0  0  0
    7.4240  -16.0224   25.1012 C   0  0  0  0  0  0  0  0  0  0  0  0
    6.4713  -14.9131   25.2788 C   0  0  0  0  0  0  0  0  0  0  0  0
    5.1167  -15.0624   25.5623 C   0  0  0  0  0  0  0  0  0  0  0  0
    4.5578  -13.8483   25.6565 N   0  0  0  0  0  0  0  0  0  0  0  0
    5.4770  -12.8757   25.4483 C   0  0  0  0  0  0  0  0  0  0  0  0
    5.4000  -11.5024   25.4394 C   0  0  0  0  0  0  0  0  0  0  0  0
    6.5335  -10.7613   25.1910 C   0  0  0  0  0  0  0  0  0  0  0  0
    7.7222  -11.4190   24.9559 C   0  0  0  0  0  0  0  0  0  0  0  0
    7.7943  -12.8050   24.9660 C   0  0  0  0  0  0  0  0  0  0  0  0
    6.6715  -13.5511   25.2127 C   0  0  0  0  0  0  0  0  0  0  0  0
    9.2015  -16.7781   23.5424 C   0  0  0  0  0  0  0  0  0  0  0  0
    9.5512  -17.4723   22.5508 O   0  0  0  0  0  0  0  0  0  0  0  0
   12.0231  -16.4453   22.9668 C   0  0  0  0  0  0  0  0  0  0  0  0
   11.5687  -16.9681   24.2990 C   0  0  2  0  0  0  0  0  0  0  0  0
   10.2023  -16.4981   24.5207 N   0  0  0  0  0  0  0  0  0  0  0  0
   12.4433  -16.4885   25.4086 C   0  0  0  0  0  0  0  0  0  0  0  0
   13.6600  -16.7982   25.4523 O   0  0  0  0  0  0  0  0  0  0  0  0
   11.4019  -15.0286   28.6953 C   0  0  0  0  0  0  0  0  0  0  0  0
   12.2451  -15.9680   27.8345 C   0  0  2  0  0  0  0  0  0  0  0  0
   11.9403  -15.6660   26.4560 N   0  0  0  0  0  0  0  0  0  0  0  0
   11.9217  -17.3602   28.1955 C   0  0  0  0  0  0  0  0  0  0  0  0
   11.0854  -17.9977   27.5278 O   0  0  0  0  0  0  0  0  0  0  0  0
   12.5469  -17.9511   29.2715 O   0  0  0  0  0  0  0  0  0  0  0  0
  2  1  1  1
  2  3  1  0
  2 13  1  0
  4  3  1  0
  4  5  2  0
  6  5  1  0
  7  6  1  0
  8  7  2  0
  9  8  1  0
 10  9  2  0
 10 11  1  0
 11 12  2  0
 12  7  1  0
 12  4  1  0
 13 14  2  0
 16 15  1  6
 17 13  1  0
 17 16  1  0
 18 16  1  0
 18 19  2  0
 21 20  1  1
 21 23  1  0
 21 22  1  0
 22 18  1  0
 23 25  1  0
 24 23  2  0
M  END
$$$$
