WAA.pdb
     RDKit          3D

 25 26  0  0  1  0  0  0  0  0999 V2000
    8.1738  -17.6460   25.3999 N   0  0  0  0  0  0  0  0  0  0  0  0
    6.8625  -17.4254   24.7700 C   0  0  1  0  0  0  0  0  0  0  0  0
    6.1704  -16.3989   25.6262 C   0  0  0  0  0  0  0  0  0  0  0  0
    7.0807  -15.4325   26.2643 C   0  0  0  0  0  0  0  0  0  0  0  0
    8.2971  -15.7550   26.8591 C   0  0  0  0  0  0  0  0  0  0  0  0
    8.8567  -14.6345   27.3354 N   0  0  0  0  0  0  0  0  0  0  0  0
    8.0702  -13.5595   27.0897 C   0  0  0  0  0  0  0  0  0  0  0  0
    8.2015  -12.2201   27.3738 C   0  0  0  0  0  0  0  0  0  0  0  0
    7.2113  -11.3449   26.9878 C   0  0  0  0  0  0  0  0  0  0  0  0
    6.1079  -11.8369   26.3234 C   0  0  0  0  0  0  0  0  0  0  0  0
    5.9805  -13.1895   26.0392 C   0  0  0  0  0  0  0  0  0  0  0  0
    6.9612  -14.0682   26.4191 C   0  0  0  0  0  0  0  0  0  0  0  0
    7.1139  -16.9297   23.3927 C   0  0  0  0  0  0  0  0  0  0  0  0
    6.9141  -17.6720   22.3944 O   0  0  0  0  0  0  0  0  0  0  0  0
    7.6403  -13.8065   21.5563 C   0  0  0  0  0  0  0  0  0  0  0  0
    7.9906  -15.2503   21.7732 C   0  0  2  0  0  0  0  0  0  0  0  0
    7.5868  -15.6087   23.1317 N   0  0  0  0  0  0  0  0  0  0  0  0
    9.4536  -15.4947   21.6109 C   0  0  0  0  0  0  0  0  0  0  0  0
   10.0381  -15.2240   20.5323 O   0  0  0  0  0  0  0  0  0  0  0  0
   12.4296  -15.6416   23.5396 C   0  0  0  0  0  0  0  0  0  0  0  0
   11.6349  -16.3541   22.4463 C   0  0  2  0  0  0  0  0  0  0  0  0
   10.2426  -16.0399   22.6628 N   0  0  0  0  0  0  0  0  0  0  0  0
   11.9096  -17.8002   22.5263 C   0  0  0  0  0  0  0  0  0  0  0  0
   13.0679  -18.2239   22.3520 O   0  0  0  0  0  0  0  0  0  0  0  0
   10.8823  -18.6781   22.7940 O   0  0  0  0  0  0  0  0  0  0  0  0
  2  1  1  1
  2  3  1  0
  2 13  1  0
  4  3  1  0
  4  5  2  0
  6  5  1  0
  7  6  1  0
  8  7  2  0
  9  8  1  0
 10  9  2  0
 10 11  1  0
 11 12  2  0
 12  7  1  0
 12  4  1  0
 13 14  2  0
 16 15  1  1
 17 13  1  0
 17 16  1  0
 18 16  1  0
 18 19  2  0
 21 20  1  1
 21 23  1  0
 21 22  1  0
 22 18  1  0
 23 25  1  0
 24 23  2  0
M  END
$$$$
