HSQ.pdb
     RDKit          3D

 26 26  0  0  1  0  0  0  0  0999 V2000
    8.6952  -15.8018   19.4498 N   0  0  0  0  0  0  0  0  0  0  0  0
    7.9864  -14.7521   20.1320 C   0  0  1  0  0  0  0  0  0  0  0  0
    6.8118  -14.3323   19.2893 C   0  0  0  0  0  0  0  0  0  0  0  0
    7.2361  -14.0441   17.8997 C   0  0  0  0  0  0  0  0  0  0  0  0
    8.1229  -13.0833   17.4785 C   0  0  0  0  0  0  0  0  0  0  0  0
    8.2560  -13.1215   16.1415 N   0  0  0  0  0  0  0  0  0  0  0  0
    7.4482  -14.1136   15.7108 C   0  0  0  0  0  0  0  0  0  0  0  0
    6.8318  -14.6705   16.7787 N   0  0  0  0  0  0  0  0  0  0  0  0
    7.6114  -15.1045   21.5050 C   0  0  0  0  0  0  0  0  0  0  0  0
    6.8940  -14.3402   22.1871 O   0  0  0  0  0  0  0  0  0  0  0  0
    7.7825  -19.0078   23.0498 O   0  0  0  0  0  0  0  0  0  0  0  0
    6.9664  -18.0161   23.5463 C   0  0  0  0  0  0  0  0  0  0  0  0
    7.6225  -16.6321   23.4852 C   0  0  2  0  0  0  0  0  0  0  0  0
    8.0332  -16.3229   22.1443 N   0  0  0  0  0  0  0  0  0  0  0  0
    8.8136  -16.7307   24.4034 C   0  0  0  0  0  0  0  0  0  0  0  0
    9.8930  -17.1811   23.9465 O   0  0  0  0  0  0  0  0  0  0  0  0
    9.3076  -13.9238   30.1289 N   0  0  0  0  0  0  0  0  0  0  0  0
   10.4102  -14.8535   30.1636 C   0  0  0  0  0  0  0  0  0  0  0  0
   11.0667  -14.8463   31.2175 O   0  0  0  0  0  0  0  0  0  0  0  0
   10.6381  -15.6863   28.9862 C   0  0  0  0  0  0  0  0  0  0  0  0
    9.6871  -15.6066   27.8658 C   0  0  0  0  0  0  0  0  0  0  0  0
    9.8965  -16.4662   26.6779 C   0  0  2  0  0  0  0  0  0  0  0  0
    8.7628  -16.3392   25.7471 N   0  0  0  0  0  0  0  0  0  0  0  0
   10.1824  -17.8801   26.8711 C   0  0  0  0  0  0  0  0  0  0  0  0
    9.1471  -18.8330   26.9693 O   0  0  0  0  0  0  0  0  0  0  0  0
   11.3484  -18.3332   26.9667 O   0  0  0  0  0  0  0  0  0  0  0  0
  2  1  1  6
  3  2  1  0
  4  5  2  0
  4  3  1  0
  6  5  1  0
  7  8  2  0
  7  6  1  0
  8  4  1  0
  9 10  2  0
  9  2  1  0
 11 12  1  0
 13 14  1  0
 13 12  1  6
 14  9  1  0
 15 13  1  0
 16 15  2  0
 18 20  1  0
 18 17  1  0
 19 18  2  0
 22 21  1  1
 21 20  1  0
 22 23  1  0
 23 15  1  0
 24 25  1  0
 24 22  1  0
 26 24  2  0
M  END
$$$$
