HSQ.pdb
     RDKit          3D

 26 26  0  0  1  0  0  0  0  0999 V2000
    7.2120  -13.1895   20.4018 N   0  0  0  0  0  0  0  0  0  0  0  0
    7.6874  -14.5412   20.2733 C   0  0  1  0  0  0  0  0  0  0  0  0
    8.9787  -14.5303   19.4999 C   0  0  0  0  0  0  0  0  0  0  0  0
    8.7271  -14.3100   18.0569 C   0  0  0  0  0  0  0  0  0  0  0  0
    7.9173  -13.3591   17.4850 C   0  0  0  0  0  0  0  0  0  0  0  0
    7.9399  -13.4677   16.1454 N   0  0  0  0  0  0  0  0  0  0  0  0
    8.7699  -14.4946   15.8648 C   0  0  0  0  0  0  0  0  0  0  0  0
    9.2451  -15.0027   17.0253 N   0  0  0  0  0  0  0  0  0  0  0  0
    7.7928  -15.2420   21.5571 C   0  0  0  0  0  0  0  0  0  0  0  0
    8.0047  -14.6090   22.6146 O   0  0  0  0  0  0  0  0  0  0  0  0
    8.4620  -19.3987   21.9738 O   0  0  0  0  0  0  0  0  0  0  0  0
    7.5562  -18.8218   22.8357 C   0  0  0  0  0  0  0  0  0  0  0  0
    7.7548  -17.3075   22.9668 C   0  0  2  0  0  0  0  0  0  0  0  0
    7.6630  -16.6697   21.6834 N   0  0  0  0  0  0  0  0  0  0  0  0
    9.1364  -17.1501   23.5480 C   0  0  0  0  0  0  0  0  0  0  0  0
    9.9778  -16.4552   22.9267 O   0  0  0  0  0  0  0  0  0  0  0  0
    8.4145  -13.1664   26.5028 N   0  0  0  0  0  0  0  0  0  0  0  0
    9.4683  -13.5746   27.3995 C   0  0  0  0  0  0  0  0  0  0  0  0
    9.7398  -12.7566   28.2934 O   0  0  0  0  0  0  0  0  0  0  0  0
   10.0942  -14.8736   27.1707 C   0  0  0  0  0  0  0  0  0  0  0  0
    9.6220  -15.7011   26.0489 C   0  0  0  0  0  0  0  0  0  0  0  0
   10.2245  -17.0369   25.8326 C   0  0  2  0  0  0  0  0  0  0  0  0
    9.5182  -17.7493   24.7550 N   0  0  0  0  0  0  0  0  0  0  0  0
   10.3705  -17.9374   26.9666 C   0  0  0  0  0  0  0  0  0  0  0  0
   11.6085  -18.0990   27.6227 O   0  0  0  0  0  0  0  0  0  0  0  0
    9.4215  -18.6204   27.4216 O   0  0  0  0  0  0  0  0  0  0  0  0
  2  1  1  1
  3  2  1  0
  4  5  2  0
  4  3  1  0
  6  5  1  0
  7  8  2  0
  7  6  1  0
  8  4  1  0
  9 10  2  0
  9  2  1  0
 11 12  1  0
 13 14  1  0
 13 12  1  6
 14  9  1  0
 15 13  1  0
 16 15  2  0
 18 20  1  0
 18 17  1  0
 19 18  2  0
 22 21  1  1
 21 20  1  0
 22 23  1  0
 23 15  1  0
 24 25  1  0
 24 22  1  0
 26 24  2  0
M  END
$$$$
