HSQ.pdb
     RDKit          3D

 26 26  0  0  1  0  0  0  0  0999 V2000
    9.7837  -15.6064   18.5072 N   0  0  0  0  0  0  0  0  0  0  0  0
   10.5148  -14.6135   19.2485 C   0  0  1  0  0  0  0  0  0  0  0  0
   10.4198  -13.2982   18.5227 C   0  0  0  0  0  0  0  0  0  0  0  0
    9.3830  -13.3527   17.4662 C   0  0  0  0  0  0  0  0  0  0  0  0
    8.0799  -12.9263   17.5507 C   0  0  0  0  0  0  0  0  0  0  0  0
    7.4400  -13.1399   16.3881 N   0  0  0  0  0  0  0  0  0  0  0  0
    8.3431  -13.7057   15.5596 C   0  0  0  0  0  0  0  0  0  0  0  0
    9.5193  -13.8333   16.2160 N   0  0  0  0  0  0  0  0  0  0  0  0
   10.1071  -14.5245   20.6542 C   0  0  0  0  0  0  0  0  0  0  0  0
   10.7678  -13.8431   21.4686 O   0  0  0  0  0  0  0  0  0  0  0  0
    7.2127  -17.2140   22.1445 O   0  0  0  0  0  0  0  0  0  0  0  0
    7.4589  -16.0885   22.8986 C   0  0  0  0  0  0  0  0  0  0  0  0
    8.8211  -15.4595   22.5847 C   0  0  2  0  0  0  0  0  0  0  0  0
    8.9486  -15.1984   21.1784 N   0  0  0  0  0  0  0  0  0  0  0  0
    9.8304  -16.4840   23.0353 C   0  0  0  0  0  0  0  0  0  0  0  0
   10.4012  -17.1915   22.1690 O   0  0  0  0  0  0  0  0  0  0  0  0
   14.6024  -17.1889   22.5232 N   0  0  0  0  0  0  0  0  0  0  0  0
   14.8631  -17.6043   23.8800 C   0  0  0  0  0  0  0  0  0  0  0  0
   15.9251  -18.2273   24.0407 O   0  0  0  0  0  0  0  0  0  0  0  0
   13.8769  -17.2609   24.9004 C   0  0  0  0  0  0  0  0  0  0  0  0
   12.5792  -16.7111   24.4765 C   0  0  0  0  0  0  0  0  0  0  0  0
   11.3365  -17.4313   24.8382 C   0  0  2  0  0  0  0  0  0  0  0  0
   10.1564  -16.6775   24.3835 N   0  0  0  0  0  0  0  0  0  0  0  0
   11.1284  -17.8288   26.2227 C   0  0  0  0  0  0  0  0  0  0  0  0
   11.8308  -18.9123   26.7902 O   0  0  0  0  0  0  0  0  0  0  0  0
   10.3202  -17.2463   26.9853 O   0  0  0  0  0  0  0  0  0  0  0  0
  2  1  1  6
  3  2  1  0
  4  5  2  0
  4  3  1  0
  6  5  1  0
  7  8  2  0
  7  6  1  0
  8  4  1  0
  9 10  2  0
  9  2  1  0
 11 12  1  0
 13 14  1  0
 13 12  1  6
 14  9  1  0
 15 13  1  0
 16 15  2  0
 18 20  1  0
 18 17  1  0
 19 18  2  0
 22 21  1  1
 21 20  1  0
 22 23  1  0
 23 15  1  0
 24 25  1  0
 24 22  1  0
 26 24  2  0
M  END
$$$$
