HSQ.pdb
     RDKit          3D

 26 26  0  0  1  0  0  0  0  0999 V2000
    9.4735  -17.0978   17.1400 N   0  0  0  0  0  0  0  0  0  0  0  0
    8.5637  -17.2713   18.2408 C   0  0  1  0  0  0  0  0  0  0  0  0
    8.2641  -18.7383   18.3964 C   0  0  0  0  0  0  0  0  0  0  0  0
    7.2154  -19.1664   17.4419 C   0  0  0  0  0  0  0  0  0  0  0  0
    5.8975  -19.4405   17.7153 C   0  0  0  0  0  0  0  0  0  0  0  0
    5.2506  -19.8009   16.5935 N   0  0  0  0  0  0  0  0  0  0  0  0
    6.1642  -19.7552   15.6008 C   0  0  0  0  0  0  0  0  0  0  0  0
    7.3536  -19.3703   16.1184 N   0  0  0  0  0  0  0  0  0  0  0  0
    9.0310  -16.6459   19.4820 C   0  0  0  0  0  0  0  0  0  0  0  0
   10.1465  -16.9403   19.9646 O   0  0  0  0  0  0  0  0  0  0  0  0
    6.5142  -14.7140   22.2262 O   0  0  0  0  0  0  0  0  0  0  0  0
    7.7378  -14.1172   22.0193 C   0  0  0  0  0  0  0  0  0  0  0  0
    8.7650  -15.0811   21.4147 C   0  0  2  0  0  0  0  0  0  0  0  0
    8.2569  -15.6756   20.2103 N   0  0  0  0  0  0  0  0  0  0  0  0
    8.9847  -16.1254   22.4789 C   0  0  0  0  0  0  0  0  0  0  0  0
    8.5919  -17.2986   22.2643 O   0  0  0  0  0  0  0  0  0  0  0  0
   12.8186  -19.4690   22.3593 N   0  0  0  0  0  0  0  0  0  0  0  0
   12.6956  -19.6983   23.7782 C   0  0  0  0  0  0  0  0  0  0  0  0
   13.3628  -20.6510   24.2133 O   0  0  0  0  0  0  0  0  0  0  0  0
   11.8206  -18.8117   24.5397 C   0  0  0  0  0  0  0  0  0  0  0  0
   11.0512  -17.7843   23.8197 C   0  0  0  0  0  0  0  0  0  0  0  0
   10.1791  -16.8648   24.5866 C   0  0  2  0  0  0  0  0  0  0  0  0
    9.6104  -15.8376   23.6984 N   0  0  0  0  0  0  0  0  0  0  0  0
   10.7128  -16.2100   25.7718 C   0  0  0  0  0  0  0  0  0  0  0  0
   11.2231  -14.8961   25.7191 O   0  0  0  0  0  0  0  0  0  0  0  0
   10.7574  -16.7652   26.8959 O   0  0  0  0  0  0  0  0  0  0  0  0
  2  1  1  6
  3  2  1  0
  4  5  2  0
  4  3  1  0
  6  5  1  0
  7  8  2  0
  7  6  1  0
  8  4  1  0
  9 10  2  0
  9  2  1  0
 11 12  1  0
 13 14  1  0
 13 12  1  1
 14  9  1  0
 15 13  1  0
 16 15  2  0
 18 20  1  0
 18 17  1  0
 19 18  2  0
 22 21  1  6
 21 20  1  0
 22 23  1  0
 23 15  1  0
 24 25  1  0
 24 22  1  0
 26 24  2  0
M  END
$$$$
