HSQ.pdb
     RDKit          3D

 26 26  0  0  1  0  0  0  0  0999 V2000
    7.3356  -16.9479   20.4472 N   0  0  0  0  0  0  0  0  0  0  0  0
    8.4644  -16.3867   21.1405 C   0  0  1  0  0  0  0  0  0  0  0  0
    8.1223  -14.9853   21.5705 C   0  0  0  0  0  0  0  0  0  0  0  0
    8.1486  -14.0583   20.4155 C   0  0  0  0  0  0  0  0  0  0  0  0
    8.4850  -14.3507   19.1161 C   0  0  0  0  0  0  0  0  0  0  0  0
    8.3924  -13.2512   18.3486 N   0  0  0  0  0  0  0  0  0  0  0  0
    7.9943  -12.2536   19.1663 C   0  0  0  0  0  0  0  0  0  0  0  0
    7.8475  -12.7461   20.4179 N   0  0  0  0  0  0  0  0  0  0  0  0
    8.9410  -17.2259   22.2445 C   0  0  0  0  0  0  0  0  0  0  0  0
    8.1808  -17.5294   23.1900 O   0  0  0  0  0  0  0  0  0  0  0  0
   12.8700  -18.7483   22.3571 O   0  0  0  0  0  0  0  0  0  0  0  0
   11.8806  -19.4599   22.9980 C   0  0  0  0  0  0  0  0  0  0  0  0
   10.6953  -18.5779   23.4062 C   0  0  2  0  0  0  0  0  0  0  0  0
   10.2821  -17.7436   22.3128 N   0  0  0  0  0  0  0  0  0  0  0  0
   11.2119  -17.7462   24.5520 C   0  0  0  0  0  0  0  0  0  0  0  0
   11.9302  -16.7480   24.2983 O   0  0  0  0  0  0  0  0  0  0  0  0
    7.9842  -14.6359   28.0240 N   0  0  0  0  0  0  0  0  0  0  0  0
    9.3069  -14.0649   28.0996 C   0  0  0  0  0  0  0  0  0  0  0  0
    9.3401  -12.8628   28.4091 O   0  0  0  0  0  0  0  0  0  0  0  0
   10.4434  -14.9346   27.8103 C   0  0  0  0  0  0  0  0  0  0  0  0
   10.1887  -16.3386   27.4497 C   0  0  0  0  0  0  0  0  0  0  0  0
   11.3215  -17.1913   27.0210 C   0  0  2  0  0  0  0  0  0  0  0  0
   10.9215  -18.0440   25.8893 N   0  0  0  0  0  0  0  0  0  0  0  0
   11.9960  -18.0189   28.0102 C   0  0  0  0  0  0  0  0  0  0  0  0
   12.8849  -17.4612   28.9527 O   0  0  0  0  0  0  0  0  0  0  0  0
   11.8367  -19.2612   28.0827 O   0  0  0  0  0  0  0  0  0  0  0  0
  2  1  1  1
  3  2  1  0
  4  5  2  0
  4  3  1  0
  6  5  1  0
  7  8  2  0
  7  6  1  0
  8  4  1  0
  9 10  2  0
  9  2  1  0
 11 12  1  0
 13 14  1  0
 13 12  1  6
 14  9  1  0
 15 13  1  0
 16 15  2  0
 18 20  1  0
 18 17  1  0
 19 18  2  0
 22 21  1  1
 21 20  1  0
 22 23  1  0
 23 15  1  0
 24 25  1  0
 24 22  1  0
 26 24  2  0
M  END
$$$$
