HSQ.pdb
     RDKit          3D

 26 26  0  0  1  0  0  0  0  0999 V2000
    8.9873  -15.1467   16.5324 N   0  0  0  0  0  0  0  0  0  0  0  0
   10.2491  -15.1000   17.2219 C   0  0  1  0  0  0  0  0  0  0  0  0
   11.3403  -14.8330   16.2200 C   0  0  0  0  0  0  0  0  0  0  0  0
   10.9361  -15.2829   14.8679 C   0  0  0  0  0  0  0  0  0  0  0  0
    9.6793  -15.6451   14.4482 C   0  0  0  0  0  0  0  0  0  0  0  0
    9.7010  -15.9971   13.1511 N   0  0  0  0  0  0  0  0  0  0  0  0
   10.9806  -15.8573   12.7444 C   0  0  0  0  0  0  0  0  0  0  0  0
   11.7262  -15.4244   13.7871 N   0  0  0  0  0  0  0  0  0  0  0  0
   10.2594  -14.1593   18.3467 C   0  0  0  0  0  0  0  0  0  0  0  0
   11.3319  -13.6588   18.7507 O   0  0  0  0  0  0  0  0  0  0  0  0
    6.7153  -14.5525   20.6239 O   0  0  0  0  0  0  0  0  0  0  0  0
    7.5757  -13.5339   20.9675 C   0  0  0  0  0  0  0  0  0  0  0  0
    9.0066  -13.7858   20.4788 C   0  0  2  0  0  0  0  0  0  0  0  0
    9.0660  -13.7587   19.0442 N   0  0  0  0  0  0  0  0  0  0  0  0
    9.3575  -15.1533   21.0061 C   0  0  0  0  0  0  0  0  0  0  0  0
    9.4094  -16.1161   20.2015 O   0  0  0  0  0  0  0  0  0  0  0  0
   14.3470  -14.0651   21.2536 N   0  0  0  0  0  0  0  0  0  0  0  0
   14.5604  -15.2190   22.0929 C   0  0  0  0  0  0  0  0  0  0  0  0
   15.7511  -15.5263   22.2655 O   0  0  0  0  0  0  0  0  0  0  0  0
   13.3858  -15.8926   22.6389 C   0  0  0  0  0  0  0  0  0  0  0  0
   12.0494  -15.4311   22.2305 C   0  0  0  0  0  0  0  0  0  0  0  0
   10.8521  -16.0518   22.8431 C   0  0  2  0  0  0  0  0  0  0  0  0
    9.6282  -15.3918   22.3593 N   0  0  0  0  0  0  0  0  0  0  0  0
   10.7778  -16.1627   24.2924 C   0  0  0  0  0  0  0  0  0  0  0  0
   11.5567  -17.1029   24.9989 O   0  0  0  0  0  0  0  0  0  0  0  0
   10.0247  -15.4450   24.9936 O   0  0  0  0  0  0  0  0  0  0  0  0
  2  1  1  6
  3  2  1  0
  4  5  2  0
  4  3  1  0
  6  5  1  0
  7  8  2  0
  7  6  1  0
  8  4  1  0
  9 10  2  0
  9  2  1  0
 11 12  1  0
 13 14  1  0
 13 12  1  6
 14  9  1  0
 15 13  1  0
 16 15  2  0
 18 20  1  0
 18 17  1  0
 19 18  2  0
 22 21  1  1
 21 20  1  0
 22 23  1  0
 23 15  1  0
 24 25  1  0
 24 22  1  0
 26 24  2  0
M  END
$$$$
