HSQ.pdb
     RDKit          3D

 26 26  0  0  1  0  0  0  0  0999 V2000
    9.0614  -16.1548   18.3072 N   0  0  0  0  0  0  0  0  0  0  0  0
    8.4416  -15.2668   19.2542 C   0  0  1  0  0  0  0  0  0  0  0  0
    7.1116  -14.8237   18.7057 C   0  0  0  0  0  0  0  0  0  0  0  0
    7.2305  -14.4409   17.2798 C   0  0  0  0  0  0  0  0  0  0  0  0
    8.3563  -14.4831   16.4938 C   0  0  0  0  0  0  0  0  0  0  0  0
    8.0766  -14.0567   15.2502 N   0  0  0  0  0  0  0  0  0  0  0  0
    6.7641  -13.7416   15.2465 C   0  0  0  0  0  0  0  0  0  0  0  0
    6.2545  -13.9756   16.4778 N   0  0  0  0  0  0  0  0  0  0  0  0
    8.3463  -15.8341   20.6030 C   0  0  0  0  0  0  0  0  0  0  0  0
    7.8610  -15.1675   21.5433 O   0  0  0  0  0  0  0  0  0  0  0  0
   10.0644  -19.5546   21.6844 O   0  0  0  0  0  0  0  0  0  0  0  0
    8.8607  -19.2112   22.2582 C   0  0  0  0  0  0  0  0  0  0  0  0
    8.6178  -17.6977   22.2487 C   0  0  2  0  0  0  0  0  0  0  0  0
    8.7939  -17.1628   20.9276 N   0  0  0  0  0  0  0  0  0  0  0  0
    9.6463  -17.1376   23.1973 C   0  0  0  0  0  0  0  0  0  0  0  0
   10.7334  -16.7169   22.7302 O   0  0  0  0  0  0  0  0  0  0  0  0
    8.8135  -13.2976   27.8434 N   0  0  0  0  0  0  0  0  0  0  0  0
   10.1547  -13.7296   28.1524 C   0  0  0  0  0  0  0  0  0  0  0  0
   10.6983  -13.1184   29.0868 O   0  0  0  0  0  0  0  0  0  0  0  0
   10.7239  -14.8123   27.3553 C   0  0  0  0  0  0  0  0  0  0  0  0
    9.9081  -15.4112   26.2866 C   0  0  0  0  0  0  0  0  0  0  0  0
   10.4409  -16.5708   25.5347 C   0  0  2  0  0  0  0  0  0  0  0  0
    9.4362  -17.0681   24.5802 N   0  0  0  0  0  0  0  0  0  0  0  0
   10.9806  -17.7032   26.2727 C   0  0  0  0  0  0  0  0  0  0  0  0
   12.2667  -17.6590   26.8502 O   0  0  0  0  0  0  0  0  0  0  0  0
   10.3490  -18.7750   26.4348 O   0  0  0  0  0  0  0  0  0  0  0  0
  2  1  1  6
  3  2  1  0
  4  5  2  0
  4  3  1  0
  6  5  1  0
  7  8  2  0
  7  6  1  0
  8  4  1  0
  9 10  2  0
  9  2  1  0
 11 12  1  0
 13 14  1  0
 13 12  1  6
 14  9  1  0
 15 13  1  0
 16 15  2  0
 18 20  1  0
 18 17  1  0
 19 18  2  0
 22 21  1  1
 21 20  1  0
 22 23  1  0
 23 15  1  0
 24 25  1  0
 24 22  1  0
 26 24  2  0
M  END
$$$$
