HSQ.pdb
     RDKit          3D

 26 26  0  0  1  0  0  0  0  0999 V2000
   13.1263  -14.9351   14.8969 N   0  0  0  0  0  0  0  0  0  0  0  0
   12.1980  -15.6098   15.7645 C   0  0  1  0  0  0  0  0  0  0  0  0
   12.4758  -17.0885   15.7167 C   0  0  0  0  0  0  0  0  0  0  0  0
   12.0039  -17.6726   14.4400 C   0  0  0  0  0  0  0  0  0  0  0  0
   12.5866  -17.5566   13.2015 C   0  0  0  0  0  0  0  0  0  0  0  0
   11.8694  -18.2238   12.2811 N   0  0  0  0  0  0  0  0  0  0  0  0
   10.8241  -18.7675   12.9398 C   0  0  0  0  0  0  0  0  0  0  0  0
   10.9086  -18.4315   14.2477 N   0  0  0  0  0  0  0  0  0  0  0  0
   12.1849  -15.0717   17.1285 C   0  0  0  0  0  0  0  0  0  0  0  0
   13.2513  -14.7571   17.7010 O   0  0  0  0  0  0  0  0  0  0  0  0
    8.7985  -15.1685   19.6543 O   0  0  0  0  0  0  0  0  0  0  0  0
    9.5902  -14.0435   19.7155 C   0  0  0  0  0  0  0  0  0  0  0  0
   11.0098  -14.2972   19.1958 C   0  0  2  0  0  0  0  0  0  0  0  0
   10.9744  -14.8746   17.8815 N   0  0  0  0  0  0  0  0  0  0  0  0
   11.6167  -15.2555   20.1882 C   0  0  0  0  0  0  0  0  0  0  0  0
   11.6997  -16.4704   19.8819 O   0  0  0  0  0  0  0  0  0  0  0  0
   16.8328  -14.5920   22.9182 N   0  0  0  0  0  0  0  0  0  0  0  0
   16.3226  -15.5897   23.8268 C   0  0  0  0  0  0  0  0  0  0  0  0
   17.1784  -16.1223   24.5520 O   0  0  0  0  0  0  0  0  0  0  0  0
   14.8894  -15.8668   23.8016 C   0  0  0  0  0  0  0  0  0  0  0  0
   14.0400  -15.1260   22.8552 C   0  0  0  0  0  0  0  0  0  0  0  0
   12.7739  -15.7375   22.3892 C   0  0  2  0  0  0  0  0  0  0  0  0
   12.0917  -14.8429   21.4394 N   0  0  0  0  0  0  0  0  0  0  0  0
   11.8052  -16.1933   23.3753 C   0  0  0  0  0  0  0  0  0  0  0  0
   11.9793  -17.4084   24.0700 O   0  0  0  0  0  0  0  0  0  0  0  0
   10.7681  -15.5480   23.6613 O   0  0  0  0  0  0  0  0  0  0  0  0
  2  1  1  6
  3  2  1  0
  4  5  2  0
  4  3  1  0
  6  5  1  0
  7  8  2  0
  7  6  1  0
  8  4  1  0
  9 10  2  0
  9  2  1  0
 11 12  1  0
 13 14  1  0
 13 12  1  1
 14  9  1  0
 15 13  1  0
 16 15  2  0
 18 20  1  0
 18 17  1  0
 19 18  2  0
 22 21  1  1
 21 20  1  0
 22 23  1  0
 23 15  1  0
 24 25  1  0
 24 22  1  0
 26 24  2  0
M  END
$$$$
