SVI.pdb
     RDKit          3D

 22 21  0  0  1  0  0  0  0  0999 V2000
   11.1376  -19.9596   20.6064 O   0  0  0  0  0  0  0  0  0  0  0  0
   11.1073  -18.7644   21.3021 C   0  0  0  0  0  0  0  0  0  0  0  0
   11.1348  -17.6259   20.3058 C   0  0  2  0  0  0  0  0  0  0  0  0
   12.4762  -17.3708   19.8344 N   0  0  0  0  0  0  0  0  0  0  0  0
   10.6166  -16.3899   20.9451 C   0  0  0  0  0  0  0  0  0  0  0  0
   11.3806  -15.6010   21.5785 O   0  0  0  0  0  0  0  0  0  0  0  0
    7.0566  -13.0446   21.6064 C   0  0  0  0  0  0  0  0  0  0  0  0
    7.5098  -14.2853   20.8663 C   0  0  1  0  0  0  0  0  0  0  0  0
    8.0157  -13.8293   19.5017 C   0  0  0  0  0  0  0  0  0  0  0  0
    8.7392  -14.8607   21.5832 C   0  0  2  0  0  0  0  0  0  0  0  0
    9.2429  -16.0170   20.8874 N   0  0  0  0  0  0  0  0  0  0  0  0
    8.4090  -15.1844   23.0113 C   0  0  0  0  0  0  0  0  0  0  0  0
    8.5056  -16.3581   23.4165 O   0  0  0  0  0  0  0  0  0  0  0  0
    7.5176  -10.8950   26.6806 C   0  0  0  0  0  0  0  0  0  0  0  0
    8.1061  -12.2948   26.4337 C   0  0  0  0  0  0  0  0  0  0  0  0
    7.0292  -13.2336   25.9554 C   0  0  2  0  0  0  0  0  0  0  0  0
    6.1167  -13.5094   27.1278 C   0  0  0  0  0  0  0  0  0  0  0  0
    7.6079  -14.4143   25.2988 C   0  0  2  0  0  0  0  0  0  0  0  0
    7.9911  -14.2054   23.9177 N   0  0  0  0  0  0  0  0  0  0  0  0
    6.6905  -15.5701   25.2969 C   0  0  0  0  0  0  0  0  0  0  0  0
    6.6929  -16.4901   26.1448 O   0  0  0  0  0  0  0  0  0  0  0  0
    5.7039  -15.7307   24.3005 O   0  0  0  0  0  0  0  0  0  0  0  0
  2  1  1  0
  3  4  1  1
  3  2  1  0
  5  3  1  0
  6  5  2  0
  8  7  1  1
  8 10  1  0
  9  8  1  0
 10 11  1  6
 10 12  1  0
 11  5  1  0
 12 19  1  0
 13 12  2  0
 15 14  1  0
 16 15  1  0
 16 17  1  1
 18 16  1  0
 18 19  1  6
 20 18  1  0
 20 22  1  0
 21 20  2  0
M  END
$$$$
