SVI.pdb
     RDKit          3D

 22 21  0  0  1  0  0  0  0  0999 V2000
   11.1543  -19.9382   20.1173 O   0  0  0  0  0  0  0  0  0  0  0  0
   11.0701  -18.8546   20.9731 C   0  0  0  0  0  0  0  0  0  0  0  0
   10.8930  -17.6000   20.1461 C   0  0  2  0  0  0  0  0  0  0  0  0
   12.1161  -17.2396   19.4673 N   0  0  0  0  0  0  0  0  0  0  0  0
   10.4930  -16.4734   21.0269 C   0  0  0  0  0  0  0  0  0  0  0  0
   11.3495  -15.8116   21.6867 O   0  0  0  0  0  0  0  0  0  0  0  0
    7.9824  -13.6671   20.0392 C   0  0  0  0  0  0  0  0  0  0  0  0
    7.5765  -14.1923   21.4000 C   0  0  1  0  0  0  0  0  0  0  0  0
    6.5042  -15.2514   21.1665 C   0  0  0  0  0  0  0  0  0  0  0  0
    8.7669  -14.9475   22.0078 C   0  0  2  0  0  0  0  0  0  0  0  0
    9.1358  -16.0699   21.1839 N   0  0  0  0  0  0  0  0  0  0  0  0
    8.4516  -15.3804   23.4102 C   0  0  0  0  0  0  0  0  0  0  0  0
    8.5083  -16.5876   23.7109 O   0  0  0  0  0  0  0  0  0  0  0  0
    5.9857  -11.6696   27.0368 C   0  0  0  0  0  0  0  0  0  0  0  0
    6.3097  -12.8596   26.1172 C   0  0  0  0  0  0  0  0  0  0  0  0
    7.5212  -13.5953   26.6278 C   0  0  2  0  0  0  0  0  0  0  0  0
    8.6368  -12.5858   26.7687 C   0  0  0  0  0  0  0  0  0  0  0  0
    7.8180  -14.7703   25.7963 C   0  0  2  0  0  0  0  0  0  0  0  0
    8.0915  -14.4681   24.4064 N   0  0  0  0  0  0  0  0  0  0  0  0
    6.7186  -15.7546   25.7906 C   0  0  0  0  0  0  0  0  0  0  0  0
    6.3894  -16.4689   26.7637 O   0  0  0  0  0  0  0  0  0  0  0  0
    5.9258  -15.9726   24.6435 O   0  0  0  0  0  0  0  0  0  0  0  0
  2  1  1  0
  3  4  1  1
  3  2  1  0
  5  3  1  0
  6  5  2  0
  8  7  1  6
  8 10  1  0
  9  8  1  0
 10 11  1  6
 10 12  1  0
 11  5  1  0
 12 19  1  0
 13 12  2  0
 15 14  1  0
 16 15  1  0
 16 17  1  6
 18 16  1  0
 18 19  1  6
 20 18  1  0
 20 22  1  0
 21 20  2  0
M  END
$$$$
