SVI.pdb
     RDKit          3D

 22 21  0  0  1  0  0  0  0  0999 V2000
    4.5882  -18.3964   21.8659 O   0  0  0  0  0  0  0  0  0  0  0  0
    3.9970  -17.5752   20.9227 C   0  0  0  0  0  0  0  0  0  0  0  0
    5.0056  -17.2908   19.8313 C   0  0  2  0  0  0  0  0  0  0  0  0
    5.2947  -18.4769   19.0592 N   0  0  0  0  0  0  0  0  0  0  0  0
    6.2708  -16.8014   20.4354 C   0  0  0  0  0  0  0  0  0  0  0  0
    7.1832  -17.6016   20.8019 O   0  0  0  0  0  0  0  0  0  0  0  0
    7.5950  -13.2000   19.5433 C   0  0  0  0  0  0  0  0  0  0  0  0
    7.9906  -13.4746   20.9788 C   0  0  1  0  0  0  0  0  0  0  0  0
    7.0083  -12.7146   21.8641 C   0  0  0  0  0  0  0  0  0  0  0  0
    7.7423  -14.9594   21.2791 C   0  0  2  0  0  0  0  0  0  0  0  0
    6.5357  -15.4165   20.6388 N   0  0  0  0  0  0  0  0  0  0  0  0
    7.6957  -15.1933   22.7612 C   0  0  0  0  0  0  0  0  0  0  0  0
    6.7092  -14.8075   23.4162 O   0  0  0  0  0  0  0  0  0  0  0  0
    6.6554  -19.3102   24.9455 C   0  0  0  0  0  0  0  0  0  0  0  0
    6.9898  -17.8284   24.7027 C   0  0  0  0  0  0  0  0  0  0  0  0
    8.3815  -17.5234   25.1926 C   0  0  2  0  0  0  0  0  0  0  0  0
    8.4353  -17.8900   26.6576 C   0  0  0  0  0  0  0  0  0  0  0  0
    8.7714  -16.1461   24.8594 C   0  0  2  0  0  0  0  0  0  0  0  0
    8.7315  -15.8367   23.4450 N   0  0  0  0  0  0  0  0  0  0  0  0
   10.1375  -15.8174   25.3101 C   0  0  0  0  0  0  0  0  0  0  0  0
   11.1184  -15.6355   24.5550 O   0  0  0  0  0  0  0  0  0  0  0  0
   10.4522  -15.6780   26.6789 O   0  0  0  0  0  0  0  0  0  0  0  0
  2  1  1  0
  3  4  1  1
  3  2  1  0
  5  3  1  0
  6  5  2  0
  8  7  1  6
  8 10  1  0
  9  8  1  0
 10 11  1  6
 10 12  1  0
 11  5  1  0
 12 19  1  0
 13 12  2  0
 15 14  1  0
 16 15  1  0
 16 17  1  1
 18 16  1  0
 18 19  1  6
 20 18  1  0
 20 22  1  0
 21 20  2  0
M  END
$$$$
