SVI.pdb
     RDKit          3D

 22 21  0  0  1  0  0  0  0  0999 V2000
   10.6764  -19.6503   21.5956 O   0  0  0  0  0  0  0  0  0  0  0  0
   11.7298  -18.7670   21.4415 C   0  0  0  0  0  0  0  0  0  0  0  0
   11.3229  -17.7000   20.4490 C   0  0  2  0  0  0  0  0  0  0  0  0
   12.4559  -17.2319   19.6848 N   0  0  0  0  0  0  0  0  0  0  0  0
   10.7318  -16.5450   21.1713 C   0  0  0  0  0  0  0  0  0  0  0  0
   11.4567  -15.7079   21.7884 O   0  0  0  0  0  0  0  0  0  0  0  0
    6.3812  -15.5789   21.3998 C   0  0  0  0  0  0  0  0  0  0  0  0
    7.5433  -14.6291   21.2009 C   0  0  1  0  0  0  0  0  0  0  0  0
    7.1932  -13.3381   21.9337 C   0  0  0  0  0  0  0  0  0  0  0  0
    8.7675  -15.1932   21.9356 C   0  0  2  0  0  0  0  0  0  0  0  0
    9.3278  -16.3080   21.2157 N   0  0  0  0  0  0  0  0  0  0  0  0
    8.4039  -15.5782   23.3402 C   0  0  0  0  0  0  0  0  0  0  0  0
    8.4000  -16.7793   23.6697 O   0  0  0  0  0  0  0  0  0  0  0  0
    6.0697  -11.7045   26.9231 C   0  0  0  0  0  0  0  0  0  0  0  0
    6.4055  -12.8580   25.9621 C   0  0  0  0  0  0  0  0  0  0  0  0
    7.5497  -13.6720   26.5081 C   0  0  2  0  0  0  0  0  0  0  0  0
    8.7349  -12.7457   26.6521 C   0  0  0  0  0  0  0  0  0  0  0  0
    7.7723  -14.8812   25.7030 C   0  0  2  0  0  0  0  0  0  0  0  0
    8.0644  -14.6273   24.3072 N   0  0  0  0  0  0  0  0  0  0  0  0
    6.6134  -15.7945   25.7172 C   0  0  0  0  0  0  0  0  0  0  0  0
    5.7352  -15.8541   24.8279 O   0  0  0  0  0  0  0  0  0  0  0  0
    6.4003  -16.7041   26.7751 O   0  0  0  0  0  0  0  0  0  0  0  0
  2  1  1  0
  3  4  1  1
  3  2  1  0
  5  3  1  0
  6  5  2  0
  8  7  1  1
  8 10  1  0
  9  8  1  0
 10 11  1  6
 10 12  1  0
 11  5  1  0
 12 19  1  0
 13 12  2  0
 15 14  1  0
 16 15  1  0
 16 17  1  6
 18 16  1  0
 18 19  1  6
 20 18  1  0
 20 22  1  0
 21 20  2  0
M  END
$$$$
