SVI.pdb
     RDKit          3D

 22 21  0  0  1  0  0  0  0  0999 V2000
    6.5927  -18.5808   23.2904 O   0  0  0  0  0  0  0  0  0  0  0  0
    5.4032  -18.0511   22.8235 C   0  0  0  0  0  0  0  0  0  0  0  0
    5.5946  -17.6335   21.3818 C   0  0  2  0  0  0  0  0  0  0  0  0
    5.6126  -18.7775   20.5000 N   0  0  0  0  0  0  0  0  0  0  0  0
    6.8820  -16.9074   21.2386 C   0  0  0  0  0  0  0  0  0  0  0  0
    7.9737  -17.5244   21.0523 O   0  0  0  0  0  0  0  0  0  0  0  0
    7.2570  -13.7751   19.2000 C   0  0  0  0  0  0  0  0  0  0  0  0
    8.1050  -13.5005   20.4239 C   0  0  1  0  0  0  0  0  0  0  0  0
    7.3087  -12.5512   21.3131 C   0  0  0  0  0  0  0  0  0  0  0  0
    8.2341  -14.7999   21.2311 C   0  0  2  0  0  0  0  0  0  0  0  0
    6.9701  -15.4869   21.3010 N   0  0  0  0  0  0  0  0  0  0  0  0
    8.7759  -14.5135   22.6014 C   0  0  0  0  0  0  0  0  0  0  0  0
    9.9082  -14.0097   22.7247 O   0  0  0  0  0  0  0  0  0  0  0  0
    7.1075  -11.7678   27.5509 C   0  0  0  0  0  0  0  0  0  0  0  0
    7.9273  -12.9762   27.0666 C   0  0  0  0  0  0  0  0  0  0  0  0
    7.4696  -13.3975   25.6944 C   0  0  2  0  0  0  0  0  0  0  0  0
    6.0232  -13.8196   25.8103 C   0  0  0  0  0  0  0  0  0  0  0  0
    8.3844  -14.3889   25.1111 C   0  0  2  0  0  0  0  0  0  0  0  0
    8.0485  -14.7945   23.7618 N   0  0  0  0  0  0  0  0  0  0  0  0
    8.4564  -15.6313   25.9041 C   0  0  0  0  0  0  0  0  0  0  0  0
    8.0310  -16.7471   25.5306 O   0  0  0  0  0  0  0  0  0  0  0  0
    9.0324  -15.6552   27.1923 O   0  0  0  0  0  0  0  0  0  0  0  0
  2  1  1  0
  3  4  1  6
  3  2  1  0
  5  3  1  0
  6  5  2  0
  8  7  1  6
  8 10  1  0
  9  8  1  0
 10 11  1  1
 10 12  1  0
 11  5  1  0
 12 19  1  0
 13 12  2  0
 15 14  1  0
 16 15  1  0
 16 17  1  1
 18 16  1  0
 18 19  1  6
 20 18  1  0
 20 22  1  0
 21 20  2  0
M  END
$$$$
