SVI.pdb
     RDKit          3D

 22 21  0  0  1  0  0  0  0  0999 V2000
   11.2675  -17.9784   19.1280 O   0  0  0  0  0  0  0  0  0  0  0  0
   10.3075  -16.9904   19.2539 C   0  0  0  0  0  0  0  0  0  0  0  0
    8.9468  -17.6477   19.3322 C   0  0  2  0  0  0  0  0  0  0  0  0
    8.1824  -17.4211   18.1277 N   0  0  0  0  0  0  0  0  0  0  0  0
    8.1895  -17.0929   20.4827 C   0  0  0  0  0  0  0  0  0  0  0  0
    7.4580  -16.0647   20.3608 O   0  0  0  0  0  0  0  0  0  0  0  0
    5.7410  -19.0044   22.3950 C   0  0  0  0  0  0  0  0  0  0  0  0
    6.6078  -18.3831   23.4697 C   0  0  1  0  0  0  0  0  0  0  0  0
    7.6614  -19.4197   23.8461 C   0  0  0  0  0  0  0  0  0  0  0  0
    7.3902  -17.2153   22.8526 C   0  0  2  0  0  0  0  0  0  0  0  0
    8.2370  -17.6753   21.7820 N   0  0  0  0  0  0  0  0  0  0  0  0
    8.1841  -16.5012   23.9076 C   0  0  0  0  0  0  0  0  0  0  0  0
    9.4146  -16.6792   23.9805 O   0  0  0  0  0  0  0  0  0  0  0  0
    5.9436  -11.8865   25.9523 C   0  0  0  0  0  0  0  0  0  0  0  0
    6.9821  -12.8645   25.3764 C   0  0  0  0  0  0  0  0  0  0  0  0
    7.4678  -13.7994   26.4535 C   0  0  2  0  0  0  0  0  0  0  0  0
    8.1648  -12.9604   27.4994 C   0  0  0  0  0  0  0  0  0  0  0  0
    8.2550  -14.9019   25.8837 C   0  0  2  0  0  0  0  0  0  0  0  0
    7.5875  -15.6313   24.8252 N   0  0  0  0  0  0  0  0  0  0  0  0
    8.6376  -15.9079   26.8932 C   0  0  0  0  0  0  0  0  0  0  0  0
    7.9409  -16.8925   27.2255 O   0  0  0  0  0  0  0  0  0  0  0  0
    9.8649  -15.8320   27.5860 O   0  0  0  0  0  0  0  0  0  0  0  0
  2  1  1  0
  3  4  1  6
  3  2  1  0
  5  3  1  0
  6  5  2  0
  8  7  1  6
  8 10  1  0
  9  8  1  0
 10 11  1  6
 10 12  1  0
 11  5  1  0
 12 19  1  0
 13 12  2  0
 15 14  1  0
 16 15  1  0
 16 17  1  1
 18 16  1  0
 18 19  1  6
 20 18  1  0
 20 22  1  0
 21 20  2  0
M  END
$$$$
