SVI.pdb
     RDKit          3D

 22 21  0  0  1  0  0  0  0  0999 V2000
    9.6815  -19.3070   21.9107 O   0  0  0  0  0  0  0  0  0  0  0  0
    8.7029  -18.8960   21.0236 C   0  0  0  0  0  0  0  0  0  0  0  0
    9.2623  -17.7762   20.1736 C   0  0  2  0  0  0  0  0  0  0  0  0
   10.5615  -18.1172   19.6420 N   0  0  0  0  0  0  0  0  0  0  0  0
    9.3967  -16.5457   20.9938 C   0  0  0  0  0  0  0  0  0  0  0  0
   10.4993  -16.2236   21.5300 O   0  0  0  0  0  0  0  0  0  0  0  0
    8.1731  -13.0417   20.2097 C   0  0  0  0  0  0  0  0  0  0  0  0
    7.6729  -13.3235   21.6106 C   0  0  1  0  0  0  0  0  0  0  0  0
    6.2120  -13.7432   21.4855 C   0  0  0  0  0  0  0  0  0  0  0  0
    8.4050  -14.5594   22.1521 C   0  0  2  0  0  0  0  0  0  0  0  0
    8.3062  -15.6591   21.2270 N   0  0  0  0  0  0  0  0  0  0  0  0
    7.8708  -14.9342   23.5040 C   0  0  0  0  0  0  0  0  0  0  0  0
    7.0406  -15.8570   23.6055 O   0  0  0  0  0  0  0  0  0  0  0  0
   10.8154  -13.9509   28.1395 C   0  0  0  0  0  0  0  0  0  0  0  0
    9.8460  -14.6873   27.1989 C   0  0  0  0  0  0  0  0  0  0  0  0
    8.5538  -13.9213   27.0823 C   0  0  2  0  0  0  0  0  0  0  0  0
    7.9189  -13.8949   28.4533 C   0  0  0  0  0  0  0  0  0  0  0  0
    7.7181  -14.4528   25.9964 C   0  0  2  0  0  0  0  0  0  0  0  0
    8.2746  -14.2782   24.6706 N   0  0  0  0  0  0  0  0  0  0  0  0
    6.3767  -13.8392   25.9594 C   0  0  0  0  0  0  0  0  0  0  0  0
    6.0986  -12.7542   25.4016 O   0  0  0  0  0  0  0  0  0  0  0  0
    5.2643  -14.4533   26.5736 O   0  0  0  0  0  0  0  0  0  0  0  0
  2  1  1  0
  3  4  1  1
  3  2  1  0
  5  3  1  0
  6  5  2  0
  8  7  1  6
  8 10  1  0
  9  8  1  0
 10 11  1  6
 10 12  1  0
 11  5  1  0
 12 19  1  0
 13 12  2  0
 15 14  1  0
 16 15  1  0
 16 17  1  1
 18 16  1  0
 18 19  1  6
 20 18  1  0
 20 22  1  0
 21 20  2  0
M  END
$$$$
