YTT.pdb
     RDKit          3D

 27 27  0  0  1  0  0  0  0  0999 V2000
   19.7350  -31.8042  -11.2637 O   0  0  0  0  0  0  0  0  0  0  0  0
   20.6665  -32.4001  -10.4059 C   0  0  0  0  0  0  0  0  0  0  0  0
   21.6181  -33.2635  -10.9137 C   0  0  0  0  0  0  0  0  0  0  0  0
   22.5390  -33.8528  -10.0660 C   0  0  0  0  0  0  0  0  0  0  0  0
   22.5526  -33.6130   -8.7032 C   0  0  0  0  0  0  0  0  0  0  0  0
   23.5153  -34.2226   -7.7821 C   0  0  0  0  0  0  0  0  0  0  0  0
   24.6865  -33.2936   -7.5989 C   0  0  2  0  0  0  0  0  0  0  0  0
   25.4103  -33.2110   -8.8336 N   0  0  0  0  0  0  0  0  0  0  0  0
   25.6180  -33.7545   -6.5423 C   0  0  0  0  0  0  0  0  0  0  0  0
   26.8280  -33.8985   -6.8927 O   0  0  0  0  0  0  0  0  0  0  0  0
   21.5806  -32.7363   -8.2132 C   0  0  0  0  0  0  0  0  0  0  0  0
   20.6541  -32.1394   -9.0438 C   0  0  0  0  0  0  0  0  0  0  0  0
   26.2193  -31.8783   -3.4963 C   0  0  0  0  0  0  0  0  0  0  0  0
   27.1207  -32.9978   -4.0335 C   0  0  1  0  0  0  0  0  0  0  0  0
   28.0810  -33.2236   -3.0561 O   0  0  0  0  0  0  0  0  0  0  0  0
   26.3210  -34.2664   -4.2441 C   0  0  2  0  0  0  0  0  0  0  0  0
   25.2525  -34.0309   -5.2238 N   0  0  0  0  0  0  0  0  0  0  0  0
   25.6886  -34.6566   -2.9524 C   0  0  0  0  0  0  0  0  0  0  0  0
   24.7319  -33.9667   -2.4741 O   0  0  0  0  0  0  0  0  0  0  0  0
   24.2707  -38.2687   -1.9005 C   0  0  0  0  0  0  0  0  0  0  0  0
   25.2092  -37.6866   -0.8962 C   0  0  1  0  0  0  0  0  0  0  0  0
   26.4834  -38.2329   -1.0315 O   0  0  0  0  0  0  0  0  0  0  0  0
   25.3438  -36.1836   -0.9963 C   0  0  2  0  0  0  0  0  0  0  0  0
   26.0683  -35.7740   -2.1717 N   0  0  0  0  0  0  0  0  0  0  0  0
   26.0547  -35.6930    0.1975 C   0  0  0  0  0  0  0  0  0  0  0  0
   27.1597  -35.1115    0.1087 O   0  0  0  0  0  0  0  0  0  0  0  0
   25.4997  -35.8728    1.4462 O   0  0  0  0  0  0  0  0  0  0  0  0
  2  1  1  0
  3  2  2  0
  4  3  1  0
  5  4  2  0
  5 11  1  0
  6  5  1  0
  7  6  1  0
  7  9  1  0
  7  8  1  6
  9 17  1  0
 10  9  2  0
 11 12  2  0
 12  2  1  0
 14 13  1  1
 14 15  1  0
 16 14  1  0
 16 17  1  6
 18 24  1  0
 18 16  1  0
 19 18  2  0
 21 20  1  6
 21 23  1  0
 22 21  1  0
 23 24  1  6
 23 25  1  0
 25 27  1  0
 26 25  2  0
M  END
$$$$
