YTT.pdb
     RDKit          3D

 27 27  0  0  1  0  0  0  0  0999 V2000
   17.5698  -18.9160  -20.4833 O   0  0  0  0  0  0  0  0  0  0  0  0
   17.9732  -17.9045  -19.6043 C   0  0  0  0  0  0  0  0  0  0  0  0
   18.3027  -16.6555  -20.0945 C   0  0  0  0  0  0  0  0  0  0  0  0
   18.7015  -15.6554  -19.2257 C   0  0  0  0  0  0  0  0  0  0  0  0
   18.7879  -15.8511  -17.8585 C   0  0  0  0  0  0  0  0  0  0  0  0
   19.2069  -14.8110  -16.9154 C   0  0  0  0  0  0  0  0  0  0  0  0
   20.7073  -14.6851  -16.9467 C   0  0  2  0  0  0  0  0  0  0  0  0
   21.2839  -15.8690  -16.3800 N   0  0  0  0  0  0  0  0  0  0  0  0
   21.1960  -13.5152  -16.1793 C   0  0  0  0  0  0  0  0  0  0  0  0
   21.1372  -13.6151  -14.9167 O   0  0  0  0  0  0  0  0  0  0  0  0
   18.4495  -17.1224  -17.3866 C   0  0  0  0  0  0  0  0  0  0  0  0
   18.0496  -18.1320  -18.2383 C   0  0  0  0  0  0  0  0  0  0  0  0
   24.3549  -12.3341  -15.3582 C   0  0  0  0  0  0  0  0  0  0  0  0
   23.6429  -11.1026  -15.9333 C   0  0  1  0  0  0  0  0  0  0  0  0
   24.0152  -11.0294  -17.2691 O   0  0  0  0  0  0  0  0  0  0  0  0
   22.1404  -11.2712  -15.8468 C   0  0  2  0  0  0  0  0  0  0  0  0
   21.7019  -12.3450  -16.7477 N   0  0  0  0  0  0  0  0  0  0  0  0
   21.4881  -10.0042  -16.2829 C   0  0  0  0  0  0  0  0  0  0  0  0
   20.8591   -9.9557  -17.3883 O   0  0  0  0  0  0  0  0  0  0  0  0
   18.7271   -8.4870  -14.6803 C   0  0  0  0  0  0  0  0  0  0  0  0
   19.2457   -7.9202  -15.9601 C   0  0  1  0  0  0  0  0  0  0  0  0
   18.5982   -6.7276  -16.2740 O   0  0  0  0  0  0  0  0  0  0  0  0
   20.7319   -7.6407  -15.9378 C   0  0  2  0  0  0  0  0  0  0  0  0
   21.5020   -8.7941  -15.5495 N   0  0  0  0  0  0  0  0  0  0  0  0
   20.9926   -6.5494  -14.9827 C   0  0  0  0  0  0  0  0  0  0  0  0
   21.6428   -6.7417  -13.9303 O   0  0  0  0  0  0  0  0  0  0  0  0
   20.5144   -5.2834  -15.2434 O   0  0  0  0  0  0  0  0  0  0  0  0
  2  1  1  0
  3  2  2  0
  4  3  1  0
  5  4  2  0
  5 11  1  0
  6  5  1  0
  7  6  1  0
  7  9  1  0
  7  8  1  1
  9 17  1  0
 10  9  2  0
 11 12  2  0
 12  2  1  0
 14 13  1  6
 14 15  1  0
 16 14  1  0
 16 17  1  6
 18 24  1  0
 18 16  1  0
 19 18  2  0
 21 20  1  1
 21 23  1  0
 22 21  1  0
 23 24  1  1
 23 25  1  0
 25 27  1  0
 26 25  2  0
M  END
$$$$
