YTT.pdb
     RDKit          3D

 27 27  0  0  1  0  0  0  0  0999 V2000
   29.1466  -18.2206   -3.2112 O   0  0  0  0  0  0  0  0  0  0  0  0
   28.7238  -18.8075   -4.4093 C   0  0  0  0  0  0  0  0  0  0  0  0
   28.0332  -18.0553   -5.3398 C   0  0  0  0  0  0  0  0  0  0  0  0
   27.6151  -18.6352   -6.5242 C   0  0  0  0  0  0  0  0  0  0  0  0
   27.8614  -19.9626   -6.8278 C   0  0  0  0  0  0  0  0  0  0  0  0
   27.4309  -20.6029   -8.0735 C   0  0  0  0  0  0  0  0  0  0  0  0
   25.9477  -20.4080   -8.2472 C   0  0  2  0  0  0  0  0  0  0  0  0
   25.2585  -21.1996   -7.2706 N   0  0  0  0  0  0  0  0  0  0  0  0
   25.4748  -20.8114   -9.5925 C   0  0  0  0  0  0  0  0  0  0  0  0
   25.5568  -22.0476   -9.8626 O   0  0  0  0  0  0  0  0  0  0  0  0
   28.5615  -20.7030   -5.8712 C   0  0  0  0  0  0  0  0  0  0  0  0
   28.9863  -20.1413   -4.6844 C   0  0  0  0  0  0  0  0  0  0  0  0
   22.6486  -20.6495  -13.4845 C   0  0  0  0  0  0  0  0  0  0  0  0
   23.0873  -20.1265  -12.1104 C   0  0  1  0  0  0  0  0  0  0  0  0
   22.2741  -20.7580  -11.1786 O   0  0  0  0  0  0  0  0  0  0  0  0
   24.5306  -20.4965  -11.8391 C   0  0  2  0  0  0  0  0  0  0  0  0
   24.9599  -19.9370  -10.5509 N   0  0  0  0  0  0  0  0  0  0  0  0
   25.3869  -19.9099  -12.9084 C   0  0  0  0  0  0  0  0  0  0  0  0
   25.6986  -18.6764  -12.8739 O   0  0  0  0  0  0  0  0  0  0  0  0
   28.2653  -22.0116  -14.9832 C   0  0  0  0  0  0  0  0  0  0  0  0
   28.1637  -20.5224  -14.9773 C   0  0  1  0  0  0  0  0  0  0  0  0
   28.8344  -19.9740  -16.0680 O   0  0  0  0  0  0  0  0  0  0  0  0
   26.7396  -20.0147  -15.0146 C   0  0  2  0  0  0  0  0  0  0  0  0
   25.9110  -20.6282  -14.0091 N   0  0  0  0  0  0  0  0  0  0  0  0
   26.1704  -20.3030  -16.3429 C   0  0  0  0  0  0  0  0  0  0  0  0
   25.1792  -21.0551  -16.4813 O   0  0  0  0  0  0  0  0  0  0  0  0
   26.7342  -19.7374  -17.4661 O   0  0  0  0  0  0  0  0  0  0  0  0
  2  1  1  0
  3  2  2  0
  4  3  1  0
  5  4  2  0
  5 11  1  0
  6  5  1  0
  7  6  1  0
  7  9  1  0
  7  8  1  1
  9 17  1  0
 10  9  2  0
 11 12  2  0
 12  2  1  0
 14 13  1  6
 14 15  1  0
 16 14  1  0
 16 17  1  1
 18 24  1  0
 18 16  1  0
 19 18  2  0
 21 20  1  6
 21 23  1  0
 22 21  1  0
 23 24  1  1
 23 25  1  0
 25 27  1  0
 26 25  2  0
M  END
$$$$
