YTT.pdb
     RDKit          3D

 27 27  0  0  1  0  0  0  0  0999 V2000
   28.7640  -18.7697   -4.3722 O   0  0  0  0  0  0  0  0  0  0  0  0
   28.2994  -19.2922   -5.5845 C   0  0  0  0  0  0  0  0  0  0  0  0
   27.7498  -18.4510   -6.5328 C   0  0  0  0  0  0  0  0  0  0  0  0
   27.2905  -18.9673   -7.7313 C   0  0  0  0  0  0  0  0  0  0  0  0
   27.3568  -20.3164   -8.0320 C   0  0  0  0  0  0  0  0  0  0  0  0
   26.8785  -20.8907   -9.2923 C   0  0  0  0  0  0  0  0  0  0  0  0
   25.3996  -20.6390   -9.4250 C   0  0  2  0  0  0  0  0  0  0  0  0
   24.6991  -21.5047   -8.5221 N   0  0  0  0  0  0  0  0  0  0  0  0
   24.9002  -20.8936  -10.7969 C   0  0  0  0  0  0  0  0  0  0  0  0
   24.3584  -22.0236  -10.9901 O   0  0  0  0  0  0  0  0  0  0  0  0
   27.9166  -21.1472   -7.0574 C   0  0  0  0  0  0  0  0  0  0  0  0
   28.3799  -20.6499   -5.8563 C   0  0  0  0  0  0  0  0  0  0  0  0
   22.6479  -19.8824  -14.8475 C   0  0  0  0  0  0  0  0  0  0  0  0
   23.1577  -19.5989  -13.4284 C   0  0  1  0  0  0  0  0  0  0  0  0
   22.1585  -20.0293  -12.5653 O   0  0  0  0  0  0  0  0  0  0  0  0
   24.4222  -20.3854  -13.1530 C   0  0  2  0  0  0  0  0  0  0  0  0
   24.9886  -19.9899  -11.8570 N   0  0  0  0  0  0  0  0  0  0  0  0
   25.4233  -20.0731  -14.2118 C   0  0  0  0  0  0  0  0  0  0  0  0
   25.9183  -18.9038  -14.2996 O   0  0  0  0  0  0  0  0  0  0  0  0
   28.7123  -22.0620  -14.8790 C   0  0  0  0  0  0  0  0  0  0  0  0
   27.9909  -21.8125  -16.1618 C   0  0  1  0  0  0  0  0  0  0  0  0
   27.3187  -22.9568  -16.5848 O   0  0  0  0  0  0  0  0  0  0  0  0
   26.9777  -20.6929  -16.0763 C   0  0  2  0  0  0  0  0  0  0  0  0
   25.8981  -20.9968  -15.1728 N   0  0  0  0  0  0  0  0  0  0  0  0
   26.4223  -20.4556  -17.4204 C   0  0  0  0  0  0  0  0  0  0  0  0
   25.2130  -20.6565  -17.6741 O   0  0  0  0  0  0  0  0  0  0  0  0
   27.2438  -20.0017  -18.4296 O   0  0  0  0  0  0  0  0  0  0  0  0
  2  1  1  0
  3  2  2  0
  4  3  1  0
  5  4  2  0
  5 11  1  0
  6  5  1  0
  7  6  1  0
  7  9  1  0
  7  8  1  1
  9 17  1  0
 10  9  2  0
 11 12  2  0
 12  2  1  0
 14 13  1  6
 14 15  1  0
 16 14  1  0
 16 17  1  1
 18 24  1  0
 18 16  1  0
 19 18  2  0
 21 20  1  1
 21 23  1  0
 22 21  1  0
 23 24  1  1
 23 25  1  0
 25 27  1  0
 26 25  2  0
M  END
$$$$
