YTT.pdb
     RDKit          3D

 27 27  0  0  1  0  0  0  0  0999 V2000
   28.3848  -18.3117   -3.8023 O   0  0  0  0  0  0  0  0  0  0  0  0
   27.9842  -18.8724   -5.0204 C   0  0  0  0  0  0  0  0  0  0  0  0
   28.0450  -20.2406   -5.2031 C   0  0  0  0  0  0  0  0  0  0  0  0
   27.6491  -20.7952   -6.4070 C   0  0  0  0  0  0  0  0  0  0  0  0
   27.1846  -20.0274   -7.4605 C   0  0  0  0  0  0  0  0  0  0  0  0
   26.7588  -20.5872   -8.7459 C   0  0  0  0  0  0  0  0  0  0  0  0
   25.2757  -20.3845   -8.9109 C   0  0  2  0  0  0  0  0  0  0  0  0
   24.5868  -21.2039   -7.9572 N   0  0  0  0  0  0  0  0  0  0  0  0
   24.7996  -20.7466  -10.2669 C   0  0  0  0  0  0  0  0  0  0  0  0
   24.5246  -21.9707  -10.4506 O   0  0  0  0  0  0  0  0  0  0  0  0
   27.1322  -18.6465   -7.2519 C   0  0  0  0  0  0  0  0  0  0  0  0
   27.5230  -18.0757   -6.0577 C   0  0  0  0  0  0  0  0  0  0  0  0
   21.7489  -20.3124  -12.0115 C   0  0  0  0  0  0  0  0  0  0  0  0
   22.8289  -19.7770  -12.9607 C   0  0  1  0  0  0  0  0  0  0  0  0
   22.8714  -18.4032  -12.7627 O   0  0  0  0  0  0  0  0  0  0  0  0
   24.1791  -20.3690  -12.6142 C   0  0  2  0  0  0  0  0  0  0  0  0
   24.6409  -19.8464  -11.3217 N   0  0  0  0  0  0  0  0  0  0  0  0
   25.1638  -19.9644  -13.6571 C   0  0  0  0  0  0  0  0  0  0  0  0
   25.6374  -18.7830  -13.6661 O   0  0  0  0  0  0  0  0  0  0  0  0
   28.6228  -21.2871  -14.3090 C   0  0  0  0  0  0  0  0  0  0  0  0
   27.8662  -21.3203  -15.5953 C   0  0  1  0  0  0  0  0  0  0  0  0
   27.4120  -22.6077  -15.8717 O   0  0  0  0  0  0  0  0  0  0  0  0
   26.6668  -20.3992  -15.6138 C   0  0  2  0  0  0  0  0  0  0  0  0
   25.6450  -20.8090  -14.6853 N   0  0  0  0  0  0  0  0  0  0  0  0
   26.0998  -20.3901  -16.9738 C   0  0  0  0  0  0  0  0  0  0  0  0
   24.9273  -20.7677  -17.1969 O   0  0  0  0  0  0  0  0  0  0  0  0
   26.8688  -19.9579  -18.0327 O   0  0  0  0  0  0  0  0  0  0  0  0
  2  1  1  0
  3  2  2  0
  4  3  1  0
  5  4  2  0
  5 11  1  0
  6  5  1  0
  7  6  1  0
  7  9  1  0
  7  8  1  1
  9 17  1  0
 10  9  2  0
 11 12  2  0
 12  2  1  0
 14 13  1  1
 14 15  1  0
 16 14  1  0
 16 17  1  1
 18 24  1  0
 18 16  1  0
 19 18  2  0
 21 20  1  1
 21 23  1  0
 22 21  1  0
 23 24  1  1
 23 25  1  0
 25 27  1  0
 26 25  2  0
M  END
$$$$
