YTT.pdb
     RDKit          3D

 27 27  0  0  1  0  0  0  0  0999 V2000
   24.2565  -12.2515  -20.0888 O   0  0  0  0  0  0  0  0  0  0  0  0
   23.4021  -13.2163  -19.5431 C   0  0  0  0  0  0  0  0  0  0  0  0
   22.6975  -12.9392  -18.3875 C   0  0  0  0  0  0  0  0  0  0  0  0
   21.8528  -13.8928  -17.8479 C   0  0  0  0  0  0  0  0  0  0  0  0
   21.6764  -15.1387  -18.4236 C   0  0  0  0  0  0  0  0  0  0  0  0
   20.7891  -16.1674  -17.8745 C   0  0  0  0  0  0  0  0  0  0  0  0
   21.4816  -16.8655  -16.7338 C   0  0  2  0  0  0  0  0  0  0  0  0
   22.5411  -17.6752  -17.2604 N   0  0  0  0  0  0  0  0  0  0  0  0
   20.5664  -17.7393  -15.9622 C   0  0  0  0  0  0  0  0  0  0  0  0
   20.4890  -18.9437  -16.3510 O   0  0  0  0  0  0  0  0  0  0  0  0
   22.3997  -15.3955  -19.5916 C   0  0  0  0  0  0  0  0  0  0  0  0
   23.2467  -14.4565  -20.1441 C   0  0  0  0  0  0  0  0  0  0  0  0
   18.7510  -19.5320  -11.9537 C   0  0  0  0  0  0  0  0  0  0  0  0
   19.5763  -18.5006  -12.7342 C   0  0  1  0  0  0  0  0  0  0  0  0
   20.8668  -19.0090  -12.8017 O   0  0  0  0  0  0  0  0  0  0  0  0
   19.0331  -18.3410  -14.1388 C   0  0  2  0  0  0  0  0  0  0  0  0
   19.8077  -17.3268  -14.8656 N   0  0  0  0  0  0  0  0  0  0  0  0
   17.6196  -17.8759  -14.0581 C   0  0  0  0  0  0  0  0  0  0  0  0
   17.3431  -16.7612  -13.5096 O   0  0  0  0  0  0  0  0  0  0  0  0
   14.7998  -17.9942  -17.0403 C   0  0  0  0  0  0  0  0  0  0  0  0
   14.3464  -18.5361  -15.7254 C   0  0  1  0  0  0  0  0  0  0  0  0
   14.3917  -19.9283  -15.7193 O   0  0  0  0  0  0  0  0  0  0  0  0
   15.1700  -18.0473  -14.5549 C   0  0  2  0  0  0  0  0  0  0  0  0
   16.5044  -18.5892  -14.5577 N   0  0  0  0  0  0  0  0  0  0  0  0
   14.4966  -18.4439  -13.3057 C   0  0  0  0  0  0  0  0  0  0  0  0
   14.9661  -19.3360  -12.5635 O   0  0  0  0  0  0  0  0  0  0  0  0
   13.3220  -17.8253  -12.9356 O   0  0  0  0  0  0  0  0  0  0  0  0
  2  1  1  0
  3  2  2  0
  4  3  1  0
  5  4  2  0
  5 11  1  0
  6  5  1  0
  7  6  1  0
  7  9  1  0
  7  8  1  6
  9 17  1  0
 10  9  2  0
 11 12  2  0
 12  2  1  0
 14 13  1  1
 14 15  1  0
 16 14  1  0
 16 17  1  6
 18 24  1  0
 18 16  1  0
 19 18  2  0
 21 20  1  6
 21 23  1  0
 22 21  1  0
 23 24  1  1
 23 25  1  0
 25 27  1  0
 26 25  2  0
M  END
$$$$
