YTT.pdb
     RDKit          3D

 27 27  0  0  1  0  0  0  0  0999 V2000
   17.2053  -13.9792  -20.3044 O   0  0  0  0  0  0  0  0  0  0  0  0
   17.3527  -12.9287  -19.3916 C   0  0  0  0  0  0  0  0  0  0  0  0
   16.7723  -13.0151  -18.1408 C   0  0  0  0  0  0  0  0  0  0  0  0
   16.9178  -11.9768  -17.2383 C   0  0  0  0  0  0  0  0  0  0  0  0
   17.6332  -10.8301  -17.5356 C   0  0  0  0  0  0  0  0  0  0  0  0
   17.8037   -9.7154  -16.6000 C   0  0  0  0  0  0  0  0  0  0  0  0
   19.2105   -9.7267  -16.0626 C   0  0  2  0  0  0  0  0  0  0  0  0
   19.3626  -10.8504  -15.1853 N   0  0  0  0  0  0  0  0  0  0  0  0
   19.5399   -8.4961  -15.3054 C   0  0  0  0  0  0  0  0  0  0  0  0
   19.1445   -8.4622  -14.1011 O   0  0  0  0  0  0  0  0  0  0  0  0
   18.2108  -10.7658  -18.8066 C   0  0  0  0  0  0  0  0  0  0  0  0
   18.0762  -11.7918  -19.7197 C   0  0  0  0  0  0  0  0  0  0  0  0
   22.4536   -5.0063  -13.8881 C   0  0  0  0  0  0  0  0  0  0  0  0
   22.0610   -6.2831  -14.6430 C   0  0  1  0  0  0  0  0  0  0  0  0
   22.3811   -7.3423  -13.8040 O   0  0  0  0  0  0  0  0  0  0  0  0
   20.5714   -6.3002  -14.9156 C   0  0  2  0  0  0  0  0  0  0  0  0
   20.2389   -7.4050  -15.8243 N   0  0  0  0  0  0  0  0  0  0  0  0
   20.1891   -5.0220  -15.5796 C   0  0  0  0  0  0  0  0  0  0  0  0
   20.5468   -4.7920  -16.7792 O   0  0  0  0  0  0  0  0  0  0  0  0
   16.8007   -3.5371  -16.5157 C   0  0  0  0  0  0  0  0  0  0  0  0
   17.5535   -2.5692  -15.6645 C   0  0  1  0  0  0  0  0  0  0  0  0
   17.1273   -2.6358  -14.3400 O   0  0  0  0  0  0  0  0  0  0  0  0
   19.0492   -2.7930  -15.6747 C   0  0  2  0  0  0  0  0  0  0  0  0
   19.4299   -3.9925  -14.9745 N   0  0  0  0  0  0  0  0  0  0  0  0
   19.7034   -1.6386  -15.0340 C   0  0  0  0  0  0  0  0  0  0  0  0
   20.2593   -1.7379  -13.9167 O   0  0  0  0  0  0  0  0  0  0  0  0
   19.7098   -0.4160  -15.6701 O   0  0  0  0  0  0  0  0  0  0  0  0
  2  1  1  0
  3  2  2  0
  4  3  1  0
  5  4  2  0
  5 11  1  0
  6  5  1  0
  7  6  1  0
  7  9  1  0
  7  8  1  1
  9 17  1  0
 10  9  2  0
 11 12  2  0
 12  2  1  0
 14 13  1  1
 14 15  1  0
 16 14  1  0
 16 17  1  6
 18 24  1  0
 18 16  1  0
 19 18  2  0
 21 20  1  6
 21 23  1  0
 22 21  1  0
 23 24  1  1
 23 25  1  0
 25 27  1  0
 26 25  2  0
M  END
$$$$
