YTT.pdb
     RDKit          3D

 27 27  0  0  1  0  0  0  0  0999 V2000
   22.1499  -21.0815   -7.6846 O   0  0  0  0  0  0  0  0  0  0  0  0
   23.1600  -20.8180   -8.6167 C   0  0  0  0  0  0  0  0  0  0  0  0
   24.4836  -20.8267   -8.2206 C   0  0  0  0  0  0  0  0  0  0  0  0
   25.4823  -20.5663   -9.1418 C   0  0  0  0  0  0  0  0  0  0  0  0
   25.2124  -20.2914  -10.4709 C   0  0  0  0  0  0  0  0  0  0  0  0
   26.2491  -20.0122  -11.4679 C   0  0  0  0  0  0  0  0  0  0  0  0
   26.0273  -20.8847  -12.6753 C   0  0  2  0  0  0  0  0  0  0  0  0
   26.3419  -22.2405  -12.3317 N   0  0  0  0  0  0  0  0  0  0  0  0
   26.8715  -20.4875  -13.8268 C   0  0  0  0  0  0  0  0  0  0  0  0
   28.0923  -20.8241  -13.7629 O   0  0  0  0  0  0  0  0  0  0  0  0
   23.8665  -20.2883  -10.8476 C   0  0  0  0  0  0  0  0  0  0  0  0
   22.8570  -20.5458   -9.9425 C   0  0  0  0  0  0  0  0  0  0  0  0
   28.5592  -20.8323  -17.9050 C   0  0  0  0  0  0  0  0  0  0  0  0
   27.6400  -20.9858  -16.6860 C   0  0  1  0  0  0  0  0  0  0  0  0
   28.3480  -21.7412  -15.7605 O   0  0  0  0  0  0  0  0  0  0  0  0
   27.3277  -19.6315  -16.0844 C   0  0  2  0  0  0  0  0  0  0  0  0
   26.4155  -19.7859  -14.9439 N   0  0  0  0  0  0  0  0  0  0  0  0
   26.6481  -18.7935  -17.1124 C   0  0  0  0  0  0  0  0  0  0  0  0
   25.4807  -19.0988  -17.5172 O   0  0  0  0  0  0  0  0  0  0  0  0
   26.5598  -14.6879  -17.2705 C   0  0  0  0  0  0  0  0  0  0  0  0
   26.8994  -15.3556  -18.5616 C   0  0  1  0  0  0  0  0  0  0  0  0
   28.2719  -15.3155  -18.7961 O   0  0  0  0  0  0  0  0  0  0  0  0
   26.4676  -16.8037  -18.6240 C   0  0  2  0  0  0  0  0  0  0  0  0
   27.2036  -17.6363  -17.7079 N   0  0  0  0  0  0  0  0  0  0  0  0
   26.6788  -17.3004  -19.9951 C   0  0  0  0  0  0  0  0  0  0  0  0
   27.5478  -18.1642  -20.2520 O   0  0  0  0  0  0  0  0  0  0  0  0
   25.9076  -16.8100  -21.0267 O   0  0  0  0  0  0  0  0  0  0  0  0
  2  1  1  0
  3  2  2  0
  4  3  1  0
  5  4  2  0
  5 11  1  0
  6  5  1  0
  7  6  1  0
  7  9  1  0
  7  8  1  1
  9 17  1  0
 10  9  2  0
 11 12  2  0
 12  2  1  0
 14 13  1  6
 14 15  1  0
 16 14  1  0
 16 17  1  1
 18 24  1  0
 18 16  1  0
 19 18  2  0
 21 20  1  1
 21 23  1  0
 22 21  1  0
 23 24  1  1
 23 25  1  0
 25 27  1  0
 26 25  2  0
M  END
$$$$
