YTT.pdb
     RDKit          3D

 27 27  0  0  1  0  0  0  0  0999 V2000
   22.9505  -21.4711   -6.5296 O   0  0  0  0  0  0  0  0  0  0  0  0
   23.7304  -21.1908   -7.6574 C   0  0  0  0  0  0  0  0  0  0  0  0
   23.1213  -20.8554   -8.8512 C   0  0  0  0  0  0  0  0  0  0  0  0
   23.8920  -20.5783   -9.9662 C   0  0  0  0  0  0  0  0  0  0  0  0
   25.2749  -20.6222   -9.9418 C   0  0  0  0  0  0  0  0  0  0  0  0
   26.1160  -20.3338  -11.1064 C   0  0  0  0  0  0  0  0  0  0  0  0
   25.4090  -20.7876  -12.3563 C   0  0  2  0  0  0  0  0  0  0  0  0
   25.4995  -22.2155  -12.4477 N   0  0  0  0  0  0  0  0  0  0  0  0
   25.9958  -20.2036  -13.5855 C   0  0  0  0  0  0  0  0  0  0  0  0
   26.8580  -20.9165  -14.1824 O   0  0  0  0  0  0  0  0  0  0  0  0
   25.8679  -20.9638   -8.7232 C   0  0  0  0  0  0  0  0  0  0  0  0
   25.1151  -21.2433   -7.6008 C   0  0  0  0  0  0  0  0  0  0  0  0
   26.1123  -21.0084  -16.1138 C   0  0  0  0  0  0  0  0  0  0  0  0
   25.6774  -19.5810  -16.4710 C   0  0  1  0  0  0  0  0  0  0  0  0
   24.2889  -19.5837  -16.4523 O   0  0  0  0  0  0  0  0  0  0  0  0
   26.1845  -18.5983  -15.4363 C   0  0  2  0  0  0  0  0  0  0  0  0
   25.6652  -18.9526  -14.1090 N   0  0  0  0  0  0  0  0  0  0  0  0
   25.6866  -17.2367  -15.7812 C   0  0  0  0  0  0  0  0  0  0  0  0
   24.5552  -16.8415  -15.3529 O   0  0  0  0  0  0  0  0  0  0  0  0
   27.4500  -13.7611  -15.2166 C   0  0  0  0  0  0  0  0  0  0  0  0
   26.9949  -13.9211  -16.6292 C   0  0  1  0  0  0  0  0  0  0  0  0
   28.0559  -14.2855  -17.4550 O   0  0  0  0  0  0  0  0  0  0  0  0
   25.9072  -14.9580  -16.7990 C   0  0  2  0  0  0  0  0  0  0  0  0
   26.3859  -16.2979  -16.5761 N   0  0  0  0  0  0  0  0  0  0  0  0
   25.3747  -14.8634  -18.1697 C   0  0  0  0  0  0  0  0  0  0  0  0
   25.4561  -15.8215  -18.9713 O   0  0  0  0  0  0  0  0  0  0  0  0
   24.7710  -13.6980  -18.5900 O   0  0  0  0  0  0  0  0  0  0  0  0
  2  1  1  0
  3  2  2  0
  4  3  1  0
  5  4  2  0
  5 11  1  0
  6  5  1  0
  7  6  1  0
  7  9  1  0
  7  8  1  6
  9 17  1  0
 10  9  2  0
 11 12  2  0
 12  2  1  0
 14 13  1  1
 14 15  1  0
 16 14  1  0
 16 17  1  1
 18 24  1  0
 18 16  1  0
 19 18  2  0
 21 20  1  1
 21 23  1  0
 22 21  1  0
 23 24  1  6
 23 25  1  0
 25 27  1  0
 26 25  2  0
M  END
$$$$
