YTT.pdb
     RDKit          3D

 27 27  0  0  1  0  0  0  0  0999 V2000
   21.9333  -20.8397   -6.8553 O   0  0  0  0  0  0  0  0  0  0  0  0
   22.3692  -20.6230   -8.1674 C   0  0  0  0  0  0  0  0  0  0  0  0
   23.5651  -21.1663   -8.5956 C   0  0  0  0  0  0  0  0  0  0  0  0
   23.9963  -20.9522   -9.8926 C   0  0  0  0  0  0  0  0  0  0  0  0
   23.2702  -20.2029  -10.8016 C   0  0  0  0  0  0  0  0  0  0  0  0
   23.7020  -19.9598  -12.1805 C   0  0  0  0  0  0  0  0  0  0  0  0
   22.8196  -20.7352  -13.1230 C   0  0  2  0  0  0  0  0  0  0  0  0
   22.9894  -22.1361  -12.8703 N   0  0  0  0  0  0  0  0  0  0  0  0
   23.1412  -20.4758  -14.5463 C   0  0  0  0  0  0  0  0  0  0  0  0
   23.8842  -21.3328  -15.1131 O   0  0  0  0  0  0  0  0  0  0  0  0
   22.0641  -19.6638  -10.3453 C   0  0  0  0  0  0  0  0  0  0  0  0
   21.6184  -19.8669   -9.0551 C   0  0  0  0  0  0  0  0  0  0  0  0
   21.5036  -21.4524  -17.0770 C   0  0  0  0  0  0  0  0  0  0  0  0
   21.6536  -19.9628  -17.4130 C   0  0  1  0  0  0  0  0  0  0  0  0
   20.5202  -19.3371  -16.9107 O   0  0  0  0  0  0  0  0  0  0  0  0
   22.8787  -19.3875  -16.7336 C   0  0  2  0  0  0  0  0  0  0  0  0
   22.6881  -19.3766  -15.2775 N   0  0  0  0  0  0  0  0  0  0  0  0
   23.0646  -17.9804  -17.1880 C   0  0  0  0  0  0  0  0  0  0  0  0
   22.3676  -17.0457  -16.6776 O   0  0  0  0  0  0  0  0  0  0  0  0
   25.6944  -15.4965  -16.6814 C   0  0  0  0  0  0  0  0  0  0  0  0
   25.5190  -15.6495  -18.1558 C   0  0  1  0  0  0  0  0  0  0  0  0
   26.4795  -16.5089  -18.6842 O   0  0  0  0  0  0  0  0  0  0  0  0
   24.1607  -16.1855  -18.5495 C   0  0  2  0  0  0  0  0  0  0  0  0
   23.9862  -17.5661  -18.1785 N   0  0  0  0  0  0  0  0  0  0  0  0
   24.0095  -16.0612  -20.0100 C   0  0  0  0  0  0  0  0  0  0  0  0
   23.9582  -17.0689  -20.7511 O   0  0  0  0  0  0  0  0  0  0  0  0
   23.9216  -14.8117  -20.5847 O   0  0  0  0  0  0  0  0  0  0  0  0
  2  1  1  0
  3  2  2  0
  4  3  1  0
  5  4  2  0
  5 11  1  0
  6  5  1  0
  7  6  1  0
  7  9  1  0
  7  8  1  1
  9 17  1  0
 10  9  2  0
 11 12  2  0
 12  2  1  0
 14 13  1  1
 14 15  1  0
 16 14  1  0
 16 17  1  1
 18 24  1  0
 18 16  1  0
 19 18  2  0
 21 20  1  1
 21 23  1  0
 22 21  1  0
 23 24  1  6
 23 25  1  0
 25 27  1  0
 26 25  2  0
M  END
$$$$
