YTT.pdb
     RDKit          3D

 27 27  0  0  1  0  0  0  0  0999 V2000
   17.3961  -27.5798  -13.1962 O   0  0  0  0  0  0  0  0  0  0  0  0
   17.9791  -26.3644  -13.5720 C   0  0  0  0  0  0  0  0  0  0  0  0
   19.1327  -26.3586  -14.3323 C   0  0  0  0  0  0  0  0  0  0  0  0
   19.7092  -25.1572  -14.7041 C   0  0  0  0  0  0  0  0  0  0  0  0
   19.1733  -23.9337  -14.3423 C   0  0  0  0  0  0  0  0  0  0  0  0
   19.7620  -22.6466  -14.7214 C   0  0  0  0  0  0  0  0  0  0  0  0
   20.9244  -22.3435  -13.8131 C   0  0  2  0  0  0  0  0  0  0  0  0
   20.4210  -21.9894  -12.5183 N   0  0  0  0  0  0  0  0  0  0  0  0
   21.7586  -21.2243  -14.3111 C   0  0  0  0  0  0  0  0  0  0  0  0
   21.4894  -20.0783  -13.8399 O   0  0  0  0  0  0  0  0  0  0  0  0
   18.0066  -23.9652  -13.5735 C   0  0  0  0  0  0  0  0  0  0  0  0
   17.4175  -25.1540  -13.1935 C   0  0  0  0  0  0  0  0  0  0  0  0
   25.8875  -19.1625  -15.5148 C   0  0  0  0  0  0  0  0  0  0  0  0
   25.0367  -20.3898  -15.1623 C   0  0  1  0  0  0  0  0  0  0  0  0
   25.1142  -20.5309  -13.7830 O   0  0  0  0  0  0  0  0  0  0  0  0
   23.5920  -20.1633  -15.5563 C   0  0  2  0  0  0  0  0  0  0  0  0
   22.7919  -21.3536  -15.2405 N   0  0  0  0  0  0  0  0  0  0  0  0
   23.5245  -19.9355  -17.0275 C   0  0  0  0  0  0  0  0  0  0  0  0
   23.0972  -20.8538  -17.7983 O   0  0  0  0  0  0  0  0  0  0  0  0
   21.3310  -18.9387  -19.3322 C   0  0  0  0  0  0  0  0  0  0  0  0
   22.4686  -17.9907  -19.5203 C   0  0  1  0  0  0  0  0  0  0  0  0
   22.2663  -16.8207  -18.7921 O   0  0  0  0  0  0  0  0  0  0  0  0
   23.8055  -18.5623  -19.1041 C   0  0  2  0  0  0  0  0  0  0  0  0
   23.9075  -18.7389  -17.6784 N   0  0  0  0  0  0  0  0  0  0  0  0
   24.8698  -17.6453  -19.5486 C   0  0  0  0  0  0  0  0  0  0  0  0
   25.5838  -17.0245  -18.7289 O   0  0  0  0  0  0  0  0  0  0  0  0
   25.0935  -17.4588  -20.8957 O   0  0  0  0  0  0  0  0  0  0  0  0
  2  1  1  0
  3  2  2  0
  4  3  1  0
  5  4  2  0
  5 11  1  0
  6  5  1  0
  7  6  1  0
  7  9  1  0
  7  8  1  1
  9 17  1  0
 10  9  2  0
 11 12  2  0
 12  2  1  0
 14 13  1  1
 14 15  1  0
 16 14  1  0
 16 17  1  6
 18 24  1  0
 18 16  1  0
 19 18  2  0
 21 20  1  1
 21 23  1  0
 22 21  1  0
 23 24  1  1
 23 25  1  0
 25 27  1  0
 26 25  2  0
M  END
$$$$
