KAE.pdb
     RDKit          3D

 24 23  0  0  1  0  0  0  0  0999 V2000
   27.4586  -21.0107  -11.9198 N   0  0  0  0  0  0  0  0  0  0  0  0
   26.0663  -21.2144  -11.7354 C   0  0  1  0  0  0  0  0  0  0  0  0
   25.4241  -20.5491  -10.5800 C   0  0  0  0  0  0  0  0  0  0  0  0
   25.1567  -21.3380   -9.3668 C   0  0  0  0  0  0  0  0  0  0  0  0
   24.4247  -20.7050   -8.2494 C   0  0  0  0  0  0  0  0  0  0  0  0
   24.3584  -21.5551   -6.9922 C   0  0  0  0  0  0  0  0  0  0  0  0
   23.5816  -20.8221   -5.9932 N   0  0  0  0  0  0  0  0  0  0  0  0
   25.2637  -21.0610  -13.0025 C   0  0  0  0  0  0  0  0  0  0  0  0
   25.4075  -20.0496  -13.7363 O   0  0  0  0  0  0  0  0  0  0  0  0
   23.5194  -23.3101  -15.2610 C   0  0  0  0  0  0  0  0  0  0  0  0
   23.6045  -21.9150  -14.6878 C   0  0  2  0  0  0  0  0  0  0  0  0
   24.3188  -22.0292  -13.4295 N   0  0  0  0  0  0  0  0  0  0  0  0
   22.2593  -21.3524  -14.3968 C   0  0  0  0  0  0  0  0  0  0  0  0
   21.6538  -21.6886  -13.3482 O   0  0  0  0  0  0  0  0  0  0  0  0
   21.6398  -20.4364  -15.2848 N   0  0  0  0  0  0  0  0  0  0  0  0
   20.2921  -19.9153  -15.1123 C   0  0  1  0  0  0  0  0  0  0  0  0
   20.0173  -18.9445  -16.2181 C   0  0  0  0  0  0  0  0  0  0  0  0
   18.6539  -18.3629  -16.0765 C   0  0  0  0  0  0  0  0  0  0  0  0
   18.4005  -17.4078  -17.1720 C   0  0  0  0  0  0  0  0  0  0  0  0
   17.5347  -17.6387  -18.0389 O   0  0  0  0  0  0  0  0  0  0  0  0
   19.3433  -21.0848  -15.2263 C   0  0  0  0  0  0  0  0  0  0  0  0
   19.5491  -21.9441  -16.0919 O   0  0  0  0  0  0  0  0  0  0  0  0
   19.1505  -16.2390  -17.2166 O   0  0  0  0  0  0  0  0  0  0  0  0
   18.2766  -21.1808  -14.3803 O   0  0  0  0  0  0  0  0  0  0  0  0
  2  1  1  6
  3  2  1  0
  4  3  1  0
  5  4  1  0
  6  5  1  0
  7  6  1  0
  8  2  1  0
  8  9  2  0
 11 10  1  1
 11 12  1  0
 12  8  1  0
 13 11  1  0
 14 13  2  0
 15 13  1  0
 16 21  1  0
 16 15  1  0
 16 17  1  6
 18 17  1  0
 19 18  1  0
 20 19  2  0
 21 24  1  0
 22 21  2  0
 23 19  1  0
M  END
$$$$
