KAE.pdb
     RDKit          3D

 24 23  0  0  1  0  0  0  0  0999 V2000
   25.7694  -21.8898  -14.9919 N   0  0  0  0  0  0  0  0  0  0  0  0
   24.4884  -21.5683  -15.5113 C   0  0  1  0  0  0  0  0  0  0  0  0
   23.9821  -22.3835  -16.6378 C   0  0  0  0  0  0  0  0  0  0  0  0
   24.1923  -23.8398  -16.6093 C   0  0  0  0  0  0  0  0  0  0  0  0
   23.8371  -24.6369  -17.8024 C   0  0  0  0  0  0  0  0  0  0  0  0
   24.0729  -26.1290  -17.6427 C   0  0  0  0  0  0  0  0  0  0  0  0
   23.7043  -26.7803  -18.8992 N   0  0  0  0  0  0  0  0  0  0  0  0
   23.4441  -21.3547  -14.4450 C   0  0  0  0  0  0  0  0  0  0  0  0
   23.3967  -22.1002  -13.4330 O   0  0  0  0  0  0  0  0  0  0  0  0
   20.7815  -18.8192  -13.8084 C   0  0  0  0  0  0  0  0  0  0  0  0
   21.4533  -20.1383  -13.5072 C   0  0  2  0  0  0  0  0  0  0  0  0
   22.4746  -20.3220  -14.5221 N   0  0  0  0  0  0  0  0  0  0  0  0
   20.5045  -21.2788  -13.6063 C   0  0  0  0  0  0  0  0  0  0  0  0
   20.2999  -21.8280  -14.7179 O   0  0  0  0  0  0  0  0  0  0  0  0
   19.8198  -21.7645  -12.4632 N   0  0  0  0  0  0  0  0  0  0  0  0
   18.8533  -22.8521  -12.4902 C   0  0  1  0  0  0  0  0  0  0  0  0
   18.9107  -23.5660  -11.1757 C   0  0  0  0  0  0  0  0  0  0  0  0
   17.9900  -24.7363  -11.1756 C   0  0  0  0  0  0  0  0  0  0  0  0
   18.1675  -25.5132   -9.9341 C   0  0  0  0  0  0  0  0  0  0  0  0
   18.9902  -25.1598   -9.0666 O   0  0  0  0  0  0  0  0  0  0  0  0
   17.4874  -22.2314  -12.6630 C   0  0  0  0  0  0  0  0  0  0  0  0
   17.2645  -21.1204  -12.1668 O   0  0  0  0  0  0  0  0  0  0  0  0
   17.3936  -26.6525   -9.7511 O   0  0  0  0  0  0  0  0  0  0  0  0
   16.5203  -22.8972  -13.3587 O   0  0  0  0  0  0  0  0  0  0  0  0
  2  1  1  1
  3  2  1  0
  4  3  1  0
  5  4  1  0
  6  5  1  0
  7  6  1  0
  8  2  1  0
  8  9  2  0
 11 10  1  6
 11 12  1  0
 12  8  1  0
 13 11  1  0
 14 13  2  0
 15 13  1  0
 16 21  1  0
 16 15  1  0
 16 17  1  1
 18 17  1  0
 19 18  1  0
 20 19  2  0
 21 24  1  0
 22 21  2  0
 23 19  1  0
M  END
$$$$
