KAE.pdb
     RDKit          3D

 24 23  0  0  1  0  0  0  0  0999 V2000
   25.1787  -22.2201  -11.8352 N   0  0  0  0  0  0  0  0  0  0  0  0
   25.8390  -21.4012  -12.7878 C   0  0  1  0  0  0  0  0  0  0  0  0
   27.2949  -21.1948  -12.6211 C   0  0  0  0  0  0  0  0  0  0  0  0
   27.8789  -21.3201  -11.2761 C   0  0  0  0  0  0  0  0  0  0  0  0
   29.3246  -21.0687  -11.0983 C   0  0  0  0  0  0  0  0  0  0  0  0
   29.7880  -21.1161   -9.6523 C   0  0  0  0  0  0  0  0  0  0  0  0
   31.2442  -20.9816   -9.6413 N   0  0  0  0  0  0  0  0  0  0  0  0
   25.4657  -21.7180  -14.2139 C   0  0  0  0  0  0  0  0  0  0  0  0
   25.6668  -20.8820  -15.1320 O   0  0  0  0  0  0  0  0  0  0  0  0
   24.9499  -24.7785  -16.1068 C   0  0  0  0  0  0  0  0  0  0  0  0
   24.6400  -23.3055  -15.9804 C   0  0  2  0  0  0  0  0  0  0  0  0
   24.8772  -22.9519  -14.5928 N   0  0  0  0  0  0  0  0  0  0  0  0
   23.2153  -23.0105  -16.2869 C   0  0  0  0  0  0  0  0  0  0  0  0
   22.8021  -23.0823  -17.4715 O   0  0  0  0  0  0  0  0  0  0  0  0
   22.3049  -22.6468  -15.2621 N   0  0  0  0  0  0  0  0  0  0  0  0
   20.8787  -22.4453  -15.4696 C   0  0  1  0  0  0  0  0  0  0  0  0
   20.2116  -22.3859  -14.1308 C   0  0  0  0  0  0  0  0  0  0  0  0
   20.4017  -21.0455  -13.5109 C   0  0  0  0  0  0  0  0  0  0  0  0
   19.5614  -20.9280  -12.3040 C   0  0  0  0  0  0  0  0  0  0  0  0
   18.8511  -21.8780  -11.9202 O   0  0  0  0  0  0  0  0  0  0  0  0
   20.7127  -21.1179  -16.1704 C   0  0  0  0  0  0  0  0  0  0  0  0
   19.7466  -20.9530  -16.9252 O   0  0  0  0  0  0  0  0  0  0  0  0
   19.5793  -19.7301  -11.6002 O   0  0  0  0  0  0  0  0  0  0  0  0
   21.6229  -20.1218  -15.9662 O   0  0  0  0  0  0  0  0  0  0  0  0
  2  1  1  1
  3  2  1  0
  4  3  1  0
  5  4  1  0
  6  5  1  0
  7  6  1  0
  8  2  1  0
  8  9  2  0
 11 10  1  1
 11 12  1  0
 12  8  1  0
 13 11  1  0
 14 13  2  0
 15 13  1  0
 16 21  1  0
 16 15  1  0
 16 17  1  1
 18 17  1  0
 19 18  1  0
 20 19  2  0
 21 24  1  0
 22 21  2  0
 23 19  1  0
M  END
$$$$
