KAE.pdb
     RDKit          3D

 24 23  0  0  1  0  0  0  0  0999 V2000
   20.7958  -16.5778  -16.1145 N   0  0  0  0  0  0  0  0  0  0  0  0
   21.4516  -15.4867  -16.7417 C   0  0  1  0  0  0  0  0  0  0  0  0
   21.0478  -15.1485  -18.1247 C   0  0  0  0  0  0  0  0  0  0  0  0
   20.0263  -15.9755  -18.7869 C   0  0  0  0  0  0  0  0  0  0  0  0
   19.7416  -15.7488  -20.2196 C   0  0  0  0  0  0  0  0  0  0  0  0
   18.6393  -16.6316  -20.7790 C   0  0  0  0  0  0  0  0  0  0  0  0
   18.4446  -16.2737  -22.1835 N   0  0  0  0  0  0  0  0  0  0  0  0
   21.5612  -14.2662  -15.8632 C   0  0  0  0  0  0  0  0  0  0  0  0
   20.5320  -13.7224  -15.3867 O   0  0  0  0  0  0  0  0  0  0  0  0
   24.3716  -12.2889  -14.4057 C   0  0  0  0  0  0  0  0  0  0  0  0
   22.9051  -12.4779  -14.7151 C   0  0  2  0  0  0  0  0  0  0  0  0
   22.8068  -13.6735  -15.5320 N   0  0  0  0  0  0  0  0  0  0  0  0
   22.3542  -11.3434  -15.5027 C   0  0  0  0  0  0  0  0  0  0  0  0
   22.5174  -11.3085  -16.7482 O   0  0  0  0  0  0  0  0  0  0  0  0
   21.6423  -10.2908  -14.8730 N   0  0  0  0  0  0  0  0  0  0  0  0
   21.1064   -9.1332  -15.5731 C   0  0  1  0  0  0  0  0  0  0  0  0
   19.6820   -8.9460  -15.1526 C   0  0  0  0  0  0  0  0  0  0  0  0
   19.0844   -7.7678  -15.8396 C   0  0  0  0  0  0  0  0  0  0  0  0
   17.6598   -7.6454  -15.4763 C   0  0  0  0  0  0  0  0  0  0  0  0
   17.1218   -8.4599  -14.7007 O   0  0  0  0  0  0  0  0  0  0  0  0
   21.9172   -7.9349  -15.1403 C   0  0  0  0  0  0  0  0  0  0  0  0
   22.5185   -7.9740  -14.0599 O   0  0  0  0  0  0  0  0  0  0  0  0
   16.9270   -6.5972  -16.0192 O   0  0  0  0  0  0  0  0  0  0  0  0
   21.9776   -6.8296  -15.9385 O   0  0  0  0  0  0  0  0  0  0  0  0
  2  1  1  1
  3  2  1  0
  4  3  1  0
  5  4  1  0
  6  5  1  0
  7  6  1  0
  8  2  1  0
  8  9  2  0
 11 10  1  6
 11 12  1  0
 12  8  1  0
 13 11  1  0
 14 13  2  0
 15 13  1  0
 16 21  1  0
 16 15  1  0
 16 17  1  1
 18 17  1  0
 19 18  1  0
 20 19  2  0
 21 24  1  0
 22 21  2  0
 23 19  1  0
M  END
$$$$
