KAE.pdb
     RDKit          3D

 24 23  0  0  1  0  0  0  0  0999 V2000
   23.8742  -20.7018  -10.5245 N   0  0  0  0  0  0  0  0  0  0  0  0
   25.2407  -20.3227  -10.4683 C   0  0  1  0  0  0  0  0  0  0  0  0
   26.0686  -20.9039   -9.3882 C   0  0  0  0  0  0  0  0  0  0  0  0
   25.4804  -21.0542   -8.0475 C   0  0  0  0  0  0  0  0  0  0  0  0
   24.0164  -21.2167   -7.9233 C   0  0  0  0  0  0  0  0  0  0  0  0
   23.5200  -21.2793   -6.4890 C   0  0  0  0  0  0  0  0  0  0  0  0
   22.0616  -21.3836   -6.5213 N   0  0  0  0  0  0  0  0  0  0  0  0
   25.9325  -20.3688  -11.8072 C   0  0  0  0  0  0  0  0  0  0  0  0
   27.1872  -20.4182  -11.8812 O   0  0  0  0  0  0  0  0  0  0  0  0
   26.5786  -21.7976  -14.3461 C   0  0  0  0  0  0  0  0  0  0  0  0
   25.8890  -20.4539  -14.3198 C   0  0  2  0  0  0  0  0  0  0  0  0
   25.2214  -20.3582  -13.0346 N   0  0  0  0  0  0  0  0  0  0  0  0
   24.8520  -20.3422  -15.3795 C   0  0  0  0  0  0  0  0  0  0  0  0
   25.0090  -19.5304  -16.3258 O   0  0  0  0  0  0  0  0  0  0  0  0
   23.6794  -21.1392  -15.3449 N   0  0  0  0  0  0  0  0  0  0  0  0
   22.6345  -21.1002  -16.3570 C   0  0  1  0  0  0  0  0  0  0  0  0
   21.6868  -22.2299  -16.0995 C   0  0  0  0  0  0  0  0  0  0  0  0
   20.6265  -22.2715  -17.1441 C   0  0  0  0  0  0  0  0  0  0  0  0
   19.6666  -23.3500  -16.8409 C   0  0  0  0  0  0  0  0  0  0  0  0
   19.8178  -24.0839  -15.8445 O   0  0  0  0  0  0  0  0  0  0  0  0
   21.9045  -19.7882  -16.1947 C   0  0  0  0  0  0  0  0  0  0  0  0
   21.7543  -19.3199  -15.0596 O   0  0  0  0  0  0  0  0  0  0  0  0
   18.5844  -23.5305  -17.6935 O   0  0  0  0  0  0  0  0  0  0  0  0
   21.4213  -19.1377  -17.2929 O   0  0  0  0  0  0  0  0  0  0  0  0
  2  1  1  6
  3  2  1  0
  4  3  1  0
  5  4  1  0
  6  5  1  0
  7  6  1  0
  8  2  1  0
  8  9  2  0
 11 10  1  1
 11 12  1  0
 12  8  1  0
 13 11  1  0
 14 13  2  0
 15 13  1  0
 16 21  1  0
 16 15  1  0
 16 17  1  1
 18 17  1  0
 19 18  1  0
 20 19  2  0
 21 24  1  0
 22 21  2  0
 23 19  1  0
M  END
$$$$
