PHV.pdb
     RDKit          3D

 25 26  0  0  1  0  0  0  0  0999 V2000
   23.9216  -12.6539  -14.9555 N   0  0  0  0  0  0  0  0  0  0  0  0
   24.2733  -14.0548  -15.0813 C   0  0  0  0  0  0  0  0  0  0  0  0
   23.3824  -14.4933  -16.2271 C   0  0  0  0  0  0  0  0  0  0  0  0
   23.5589  -13.3447  -17.2006 C   0  0  0  0  0  0  0  0  0  0  0  0
   23.9433  -12.1936  -16.3188 C   0  0  1  0  0  0  0  0  0  0  0  0
   22.9779  -11.0939  -16.5624 C   0  0  0  0  0  0  0  0  0  0  0  0
   22.8797  -10.5914  -17.7060 O   0  0  0  0  0  0  0  0  0  0  0  0
   22.1898  -10.6403  -15.4892 N   0  0  0  0  0  0  0  0  0  0  0  0
   21.2362   -9.5942  -15.6966 C   0  0  1  0  0  0  0  0  0  0  0  0
   19.9336  -10.0731  -15.0903 C   0  0  0  0  0  0  0  0  0  0  0  0
   19.1974  -11.0316  -15.9244 C   0  0  0  0  0  0  0  0  0  0  0  0
   18.6757  -10.8511  -17.1700 C   0  0  0  0  0  0  0  0  0  0  0  0
   18.0687  -11.9965  -17.5465 N   0  0  0  0  0  0  0  0  0  0  0  0
   18.2018  -12.8910  -16.5573 C   0  0  0  0  0  0  0  0  0  0  0  0
   18.8904  -12.3114  -15.5604 N   0  0  0  0  0  0  0  0  0  0  0  0
   21.6134   -8.3255  -15.0693 C   0  0  0  0  0  0  0  0  0  0  0  0
   22.1019   -8.3343  -13.9181 O   0  0  0  0  0  0  0  0  0  0  0  0
   23.2635   -3.7396  -15.5076 C   0  0  0  0  0  0  0  0  0  0  0  0
   22.7380   -4.9954  -16.1244 C   0  0  1  0  0  0  0  0  0  0  0  0
   23.8341   -5.7550  -16.8132 C   0  0  0  0  0  0  0  0  0  0  0  0
   21.9703   -5.8316  -15.1430 C   0  0  2  0  0  0  0  0  0  0  0  0
   21.4582   -7.0450  -15.6972 N   0  0  0  0  0  0  0  0  0  0  0  0
   20.9148   -5.0284  -14.5012 C   0  0  0  0  0  0  0  0  0  0  0  0
   21.1208   -4.2526  -13.3770 O   0  0  0  0  0  0  0  0  0  0  0  0
   19.7631   -5.0484  -15.0020 O   0  0  0  0  0  0  0  0  0  0  0  0
  1  5  1  0
  1  2  1  0
  2  3  1  0
  4  3  1  0
  5  4  1  0
  5  6  1  1
  6  7  2  0
  8  6  1  0
  9  8  1  0
  9 10  1  1
 11 10  1  0
 11 15  1  0
 12 13  1  0
 12 11  2  0
 13 14  1  0
 14 15  2  0
 16  9  1  0
 17 16  2  0
 19 20  1  1
 19 21  1  0
 19 18  1  0
 21 22  1  6
 22 16  1  0
 23 21  1  0
 23 24  1  0
 25 23  2  0
M  END
$$$$
