PHV.pdb
     RDKit          3D

 25 26  0  0  1  0  0  0  0  0999 V2000
   27.3014  -21.2073  -14.8784 N   0  0  0  0  0  0  0  0  0  0  0  0
   28.5928  -21.0561  -15.5200 C   0  0  0  0  0  0  0  0  0  0  0  0
   28.2885  -20.0167  -16.5811 C   0  0  0  0  0  0  0  0  0  0  0  0
   27.4591  -19.0202  -15.7955 C   0  0  0  0  0  0  0  0  0  0  0  0
   26.8767  -19.8457  -14.6866 C   0  0  1  0  0  0  0  0  0  0  0  0
   25.4015  -19.6983  -14.7385 C   0  0  0  0  0  0  0  0  0  0  0  0
   24.8850  -18.5591  -14.6641 O   0  0  0  0  0  0  0  0  0  0  0  0
   24.6138  -20.8561  -14.8714 N   0  0  0  0  0  0  0  0  0  0  0  0
   23.1897  -20.7446  -14.9523 C   0  0  1  0  0  0  0  0  0  0  0  0
   22.7752  -21.4460  -16.2290 C   0  0  0  0  0  0  0  0  0  0  0  0
   23.3632  -20.8757  -17.4478 C   0  0  0  0  0  0  0  0  0  0  0  0
   24.2916  -21.4227  -18.2815 C   0  0  0  0  0  0  0  0  0  0  0  0
   24.5517  -20.5376  -19.2669 N   0  0  0  0  0  0  0  0  0  0  0  0
   23.8016  -19.4456  -19.0639 C   0  0  0  0  0  0  0  0  0  0  0  0
   23.0710  -19.6416  -17.9540 N   0  0  0  0  0  0  0  0  0  0  0  0
   22.4893  -21.3612  -13.8233 C   0  0  0  0  0  0  0  0  0  0  0  0
   22.7891  -22.5259  -13.4804 O   0  0  0  0  0  0  0  0  0  0  0  0
   22.5439  -20.3998  -10.3126 C   0  0  0  0  0  0  0  0  0  0  0  0
   21.0913  -20.5000  -10.6496 C   0  0  1  0  0  0  0  0  0  0  0  0
   20.4500  -19.1431  -10.6707 C   0  0  0  0  0  0  0  0  0  0  0  0
   20.8532  -21.2824  -11.9077 C   0  0  2  0  0  0  0  0  0  0  0  0
   21.4605  -20.7079  -13.0665 N   0  0  0  0  0  0  0  0  0  0  0  0
   19.4115  -21.5186  -12.0989 C   0  0  0  0  0  0  0  0  0  0  0  0
   18.6762  -20.9680  -13.1307 O   0  0  0  0  0  0  0  0  0  0  0  0
   18.8154  -22.2612  -11.2798 O   0  0  0  0  0  0  0  0  0  0  0  0
  1  5  1  0
  1  2  1  0
  2  3  1  0
  4  3  1  0
  5  4  1  0
  5  6  1  6
  6  7  2  0
  8  6  1  0
  9  8  1  0
  9 10  1  6
 11 10  1  0
 11 15  1  0
 12 13  1  0
 12 11  2  0
 13 14  1  0
 14 15  2  0
 16  9  1  0
 17 16  2  0
 19 20  1  6
 19 21  1  0
 19 18  1  0
 21 22  1  6
 22 16  1  0
 23 21  1  0
 23 24  1  0
 25 23  2  0
M  END
$$$$
