PHV.pdb
     RDKit          3D

 25 26  0  0  1  0  0  0  0  0999 V2000
   24.4863  -34.4692  -12.8143 N   0  0  0  0  0  0  0  0  0  0  0  0
   24.4234  -34.2378  -14.2442 C   0  0  0  0  0  0  0  0  0  0  0  0
   25.1264  -32.9003  -14.3699 C   0  0  0  0  0  0  0  0  0  0  0  0
   26.3211  -33.1028  -13.4591 C   0  0  0  0  0  0  0  0  0  0  0  0
   25.8550  -34.1564  -12.4983 C   0  0  1  0  0  0  0  0  0  0  0  0
   26.0120  -33.6186  -11.1247 C   0  0  0  0  0  0  0  0  0  0  0  0
   27.1161  -33.1522  -10.7594 O   0  0  0  0  0  0  0  0  0  0  0  0
   24.9031  -33.6477  -10.2599 N   0  0  0  0  0  0  0  0  0  0  0  0
   24.9955  -33.0544   -8.9613 C   0  0  1  0  0  0  0  0  0  0  0  0
   23.5777  -32.7445   -8.5281 C   0  0  0  0  0  0  0  0  0  0  0  0
   23.0590  -31.4671   -9.0337 C   0  0  0  0  0  0  0  0  0  0  0  0
   23.7202  -30.4893   -9.7141 C   0  0  0  0  0  0  0  0  0  0  0  0
   22.8532  -29.4855   -9.9648 N   0  0  0  0  0  0  0  0  0  0  0  0
   21.6603  -29.8186   -9.4527 C   0  0  0  0  0  0  0  0  0  0  0  0
   21.7749  -31.0286   -8.8809 N   0  0  0  0  0  0  0  0  0  0  0  0
   25.6170  -33.9266   -7.9621 C   0  0  0  0  0  0  0  0  0  0  0  0
   25.3246  -35.1424   -7.9456 O   0  0  0  0  0  0  0  0  0  0  0  0
   29.3460  -34.9984   -4.9480 C   0  0  0  0  0  0  0  0  0  0  0  0
   28.6921  -34.0812   -5.9303 C   0  0  1  0  0  0  0  0  0  0  0  0
   29.4158  -34.0983   -7.2452 C   0  0  0  0  0  0  0  0  0  0  0  0
   27.2218  -34.3490   -6.0651 C   0  0  2  0  0  0  0  0  0  0  0  0
   26.5586  -33.4736   -6.9792 N   0  0  0  0  0  0  0  0  0  0  0  0
   26.5785  -34.3542   -4.7395 C   0  0  0  0  0  0  0  0  0  0  0  0
   26.6251  -35.4272   -3.8708 O   0  0  0  0  0  0  0  0  0  0  0  0
   25.9525  -33.3274   -4.3768 O   0  0  0  0  0  0  0  0  0  0  0  0
  1  5  1  0
  1  2  1  0
  2  3  1  0
  4  3  1  0
  5  4  1  0
  5  6  1  1
  6  7  2  0
  8  6  1  0
  9  8  1  0
  9 10  1  1
 11 10  1  0
 11 15  1  0
 12 13  1  0
 12 11  2  0
 13 14  1  0
 14 15  2  0
 16  9  1  0
 17 16  2  0
 19 20  1  6
 19 21  1  0
 19 18  1  0
 21 22  1  6
 22 16  1  0
 23 21  1  0
 23 24  1  0
 25 23  2  0
M  END
$$$$
