PHV.pdb
     RDKit          3D

 25 26  0  0  1  0  0  0  0  0999 V2000
   28.2282  -22.4275  -18.8321 N   0  0  0  0  0  0  0  0  0  0  0  0
   29.1167  -22.5701  -19.9690 C   0  0  0  0  0  0  0  0  0  0  0  0
   30.0786  -21.4181  -19.7533 C   0  0  0  0  0  0  0  0  0  0  0  0
   30.3574  -21.5346  -18.2677 C   0  0  0  0  0  0  0  0  0  0  0  0
   29.1390  -22.2294  -17.7356 C   0  0  1  0  0  0  0  0  0  0  0  0
   28.5630  -21.3785  -16.6657 C   0  0  0  0  0  0  0  0  0  0  0  0
   29.2033  -21.1904  -15.6052 O   0  0  0  0  0  0  0  0  0  0  0  0
   27.2982  -20.7994  -16.8741 N   0  0  0  0  0  0  0  0  0  0  0  0
   26.7447  -19.9212  -15.8896 C   0  0  1  0  0  0  0  0  0  0  0  0
   25.8768  -18.9299  -16.6366 C   0  0  0  0  0  0  0  0  0  0  0  0
   25.5988  -17.6937  -15.8944 C   0  0  0  0  0  0  0  0  0  0  0  0
   26.0485  -17.3203  -14.6637 C   0  0  0  0  0  0  0  0  0  0  0  0
   25.5264  -16.1107  -14.3697 N   0  0  0  0  0  0  0  0  0  0  0  0
   24.7573  -15.7208  -15.3958 C   0  0  0  0  0  0  0  0  0  0  0  0
   24.7944  -16.6815  -16.3337 N   0  0  0  0  0  0  0  0  0  0  0  0
   25.9262  -20.6073  -14.8872 C   0  0  0  0  0  0  0  0  0  0  0  0
   25.1470  -21.5150  -15.2516 O   0  0  0  0  0  0  0  0  0  0  0  0
   27.1732  -21.5502  -11.1605 C   0  0  0  0  0  0  0  0  0  0  0  0
   25.7757  -21.0205  -11.1455 C   0  0  1  0  0  0  0  0  0  0  0  0
   25.7115  -19.6940  -10.4460 C   0  0  0  0  0  0  0  0  0  0  0  0
   25.1646  -20.9926  -12.5157 C   0  0  2  0  0  0  0  0  0  0  0  0
   25.9567  -20.3041  -13.4854 N   0  0  0  0  0  0  0  0  0  0  0  0
   23.7891  -20.4683  -12.4525 C   0  0  0  0  0  0  0  0  0  0  0  0
   23.4041  -19.2619  -13.0046 O   0  0  0  0  0  0  0  0  0  0  0  0
   22.9163  -21.1541  -11.8647 O   0  0  0  0  0  0  0  0  0  0  0  0
  1  5  1  0
  1  2  1  0
  2  3  1  0
  4  3  1  0
  5  4  1  0
  5  6  1  1
  6  7  2  0
  8  6  1  0
  9  8  1  0
  9 10  1  6
 11 10  1  0
 11 15  1  0
 12 13  1  0
 12 11  2  0
 13 14  1  0
 14 15  2  0
 16  9  1  0
 17 16  2  0
 19 20  1  6
 19 21  1  0
 19 18  1  0
 21 22  1  6
 22 16  1  0
 23 21  1  0
 23 24  1  0
 25 23  2  0
M  END
$$$$
