HVA.pdb
     RDKit          3D

 23 23  0  0  1  0  0  0  0  0999 V2000
   23.3548  -14.4706  -17.7465 N   0  0  0  0  0  0  0  0  0  0  0  0
   23.5758  -13.2949  -16.9657 C   0  0  1  0  0  0  0  0  0  0  0  0
   24.9638  -12.7364  -17.1116 C   0  0  0  0  0  0  0  0  0  0  0  0
   25.9258  -13.7683  -16.6452 C   0  0  0  0  0  0  0  0  0  0  0  0
   26.3610  -14.0473  -15.3859 C   0  0  0  0  0  0  0  0  0  0  0  0
   27.2400  -15.0652  -15.3894 N   0  0  0  0  0  0  0  0  0  0  0  0
   27.3643  -15.4367  -16.6656 C   0  0  0  0  0  0  0  0  0  0  0  0
   26.5713  -14.6591  -17.4510 N   0  0  0  0  0  0  0  0  0  0  0  0
   22.5276  -12.2741  -17.2668 C   0  0  0  0  0  0  0  0  0  0  0  0
   22.1954  -12.0105  -18.4635 O   0  0  0  0  0  0  0  0  0  0  0  0
   18.9676  -12.3977  -16.5760 C   0  0  0  0  0  0  0  0  0  0  0  0
   19.4840  -11.1562  -15.8326 C   0  0  2  0  0  0  0  0  0  0  0  0
   18.3720  -10.1416  -15.9557 C   0  0  0  0  0  0  0  0  0  0  0  0
   20.7222  -10.6674  -16.5543 C   0  0  2  0  0  0  0  0  0  0  0  0
   21.8511  -11.5498  -16.2582 N   0  0  0  0  0  0  0  0  0  0  0  0
   21.1011   -9.3215  -16.0771 C   0  0  0  0  0  0  0  0  0  0  0  0
   21.4790   -9.2123  -14.8587 O   0  0  0  0  0  0  0  0  0  0  0  0
   21.4940   -5.8226  -17.3983 C   0  0  0  0  0  0  0  0  0  0  0  0
   21.4842   -6.8419  -16.2615 C   0  0  2  0  0  0  0  0  0  0  0  0
   21.0941   -8.1349  -16.8224 N   0  0  0  0  0  0  0  0  0  0  0  0
   20.6006   -6.4318  -15.1649 C   0  0  0  0  0  0  0  0  0  0  0  0
   19.3877   -6.7408  -15.1954 O   0  0  0  0  0  0  0  0  0  0  0  0
   21.0630   -5.7061  -14.0825 O   0  0  0  0  0  0  0  0  0  0  0  0
  2  1  1  6
  2  3  1  0
  4  3  1  0
  5  4  2  0
  6  7  1  0
  6  5  1  0
  7  8  2  0
  8  4  1  0
  9 15  1  0
  9  2  1  0
 10  9  2  0
 12 11  1  6
 12 14  1  0
 13 12  1  0
 14 15  1  1
 16 14  1  0
 17 16  2  0
 19 18  1  6
 19 21  1  0
 19 20  1  0
 20 16  1  0
 21 23  1  0
 22 21  2  0
M  END
$$$$
