HVA.pdb
     RDKit          3D

 23 23  0  0  1  0  0  0  0  0999 V2000
   22.3019  -20.4721  -13.7121 N   0  0  0  0  0  0  0  0  0  0  0  0
   21.2245  -20.2367  -12.8039 C   0  0  1  0  0  0  0  0  0  0  0  0
   19.8734  -20.2740  -13.4617 C   0  0  0  0  0  0  0  0  0  0  0  0
   19.7824  -19.1179  -14.3906 C   0  0  0  0  0  0  0  0  0  0  0  0
   19.9368  -17.7882  -14.1436 C   0  0  0  0  0  0  0  0  0  0  0  0
   19.7725  -17.0630  -15.2642 N   0  0  0  0  0  0  0  0  0  0  0  0
   19.5106  -17.9423  -16.2339 C   0  0  0  0  0  0  0  0  0  0  0  0
   19.5114  -19.2036  -15.7243 N   0  0  0  0  0  0  0  0  0  0  0  0
   21.3109  -21.1806  -11.6494 C   0  0  0  0  0  0  0  0  0  0  0  0
   21.4675  -22.4270  -11.8333 O   0  0  0  0  0  0  0  0  0  0  0  0
   23.6613  -20.8439   -8.5336 C   0  0  0  0  0  0  0  0  0  0  0  0
   22.1988  -20.9689   -8.0796 C   0  0  2  0  0  0  0  0  0  0  0  0
   22.2504  -21.8357   -6.8439 C   0  0  0  0  0  0  0  0  0  0  0  0
   21.4317  -21.6703   -9.1807 C   0  0  2  0  0  0  0  0  0  0  0  0
   21.2254  -20.7552  -10.3036 N   0  0  0  0  0  0  0  0  0  0  0  0
   20.0897  -22.0651   -8.7050 C   0  0  0  0  0  0  0  0  0  0  0  0
   19.2088  -21.1428   -8.5924 O   0  0  0  0  0  0  0  0  0  0  0  0
   17.8419  -24.9356   -8.4468 C   0  0  0  0  0  0  0  0  0  0  0  0
   18.3429  -23.6402   -7.8125 C   0  0  2  0  0  0  0  0  0  0  0  0
   19.6687  -23.3565   -8.3606 N   0  0  0  0  0  0  0  0  0  0  0  0
   18.3611  -23.7181   -6.3478 C   0  0  0  0  0  0  0  0  0  0  0  0
   19.4461  -23.8944   -5.7483 O   0  0  0  0  0  0  0  0  0  0  0  0
   17.2086  -23.6024   -5.5927 O   0  0  0  0  0  0  0  0  0  0  0  0
  2  1  1  6
  2  3  1  0
  4  3  1  0
  5  4  2  0
  6  7  1  0
  6  5  1  0
  7  8  2  0
  8  4  1  0
  9 15  1  0
  9  2  1  0
 10  9  2  0
 12 11  1  6
 12 14  1  0
 13 12  1  0
 14 15  1  6
 16 14  1  0
 17 16  2  0
 19 18  1  6
 19 21  1  0
 19 20  1  0
 20 16  1  0
 21 23  1  0
 22 21  2  0
M  END
$$$$
