HVA.pdb
     RDKit          3D

 23 23  0  0  1  0  0  0  0  0999 V2000
   18.2891  -12.0860  -16.0911 N   0  0  0  0  0  0  0  0  0  0  0  0
   18.0115  -10.7629  -16.5526 C   0  0  1  0  0  0  0  0  0  0  0  0
   16.5522  -10.5201  -16.8192 C   0  0  0  0  0  0  0  0  0  0  0  0
   16.1566  -11.3407  -17.9929 C   0  0  0  0  0  0  0  0  0  0  0  0
   16.1739  -11.0302  -19.3182 C   0  0  0  0  0  0  0  0  0  0  0  0
   15.7314  -12.0579  -20.0644 N   0  0  0  0  0  0  0  0  0  0  0  0
   15.4295  -13.0321  -19.2030 C   0  0  0  0  0  0  0  0  0  0  0  0
   15.6809  -12.6173  -17.9321 N   0  0  0  0  0  0  0  0  0  0  0  0
   18.5818   -9.7586  -15.6052 C   0  0  0  0  0  0  0  0  0  0  0  0
   18.2900   -9.7848  -14.3699 O   0  0  0  0  0  0  0  0  0  0  0  0
   21.9714   -9.3546  -14.5717 C   0  0  0  0  0  0  0  0  0  0  0  0
   21.6080   -7.9729  -15.1368 C   0  0  2  0  0  0  0  0  0  0  0  0
   22.2773   -6.9874  -14.2085 C   0  0  0  0  0  0  0  0  0  0  0  0
   20.1029   -7.8246  -15.0622 C   0  0  2  0  0  0  0  0  0  0  0  0
   19.4659   -8.7340  -16.0152 N   0  0  0  0  0  0  0  0  0  0  0  0
   19.6985   -6.4569  -15.4479 C   0  0  0  0  0  0  0  0  0  0  0  0
   20.0407   -6.0467  -16.6115 O   0  0  0  0  0  0  0  0  0  0  0  0
   17.4086   -3.7389  -14.3089 C   0  0  0  0  0  0  0  0  0  0  0  0
   18.5908   -4.2182  -15.1479 C   0  0  2  0  0  0  0  0  0  0  0  0
   18.9697   -5.5474  -14.6701 N   0  0  0  0  0  0  0  0  0  0  0  0
   19.7152   -3.2776  -15.0989 C   0  0  0  0  0  0  0  0  0  0  0  0
   20.5678   -3.3751  -14.1872 O   0  0  0  0  0  0  0  0  0  0  0  0
   19.8719   -2.2722  -16.0352 O   0  0  0  0  0  0  0  0  0  0  0  0
  2  1  1  1
  2  3  1  0
  4  3  1  0
  5  4  2  0
  6  7  1  0
  6  5  1  0
  7  8  2  0
  8  4  1  0
  9 15  1  0
  9  2  1  0
 10  9  2  0
 12 11  1  1
 12 14  1  0
 13 12  1  0
 14 15  1  6
 16 14  1  0
 17 16  2  0
 19 18  1  1
 19 21  1  0
 19 20  1  0
 20 16  1  0
 21 23  1  0
 22 21  2  0
M  END
$$$$
