HVA.pdb
     RDKit          3D

 23 23  0  0  1  0  0  0  0  0999 V2000
   20.2340  -12.7399  -17.9596 N   0  0  0  0  0  0  0  0  0  0  0  0
   20.5736  -11.3979  -18.3122 C   0  0  1  0  0  0  0  0  0  0  0  0
   19.8912  -10.9210  -19.5639 C   0  0  0  0  0  0  0  0  0  0  0  0
   20.4064  -11.7242  -20.7027 C   0  0  0  0  0  0  0  0  0  0  0  0
   21.6761  -11.8466  -21.1780 C   0  0  0  0  0  0  0  0  0  0  0  0
   21.7219  -12.6774  -22.2347 N   0  0  0  0  0  0  0  0  0  0  0  0
   20.4669  -13.0871  -22.4326 C   0  0  0  0  0  0  0  0  0  0  0  0
   19.6457  -12.5183  -21.5093 N   0  0  0  0  0  0  0  0  0  0  0  0
   20.3244  -10.4848  -17.1566 C   0  0  0  0  0  0  0  0  0  0  0  0
   19.2503  -10.5589  -16.4837 O   0  0  0  0  0  0  0  0  0  0  0  0
   22.2071  -10.3018  -14.1031 C   0  0  0  0  0  0  0  0  0  0  0  0
   22.2121   -8.8489  -14.6026 C   0  0  2  0  0  0  0  0  0  0  0  0
   22.0044   -8.0130  -13.3620 C   0  0  0  0  0  0  0  0  0  0  0  0
   21.0423   -8.6819  -15.5494 C   0  0  2  0  0  0  0  0  0  0  0  0
   21.2504   -9.4984  -16.7456 N   0  0  0  0  0  0  0  0  0  0  0  0
   20.9431   -7.2803  -16.0062 C   0  0  0  0  0  0  0  0  0  0  0  0
   22.0115   -6.7244  -16.4406 O   0  0  0  0  0  0  0  0  0  0  0  0
   18.3332   -4.6337  -16.5617 C   0  0  0  0  0  0  0  0  0  0  0  0
   19.7847   -5.1045  -16.5094 C   0  0  2  0  0  0  0  0  0  0  0  0
   19.7915   -6.4820  -16.0183 N   0  0  0  0  0  0  0  0  0  0  0  0
   20.6173   -4.2243  -15.6826 C   0  0  0  0  0  0  0  0  0  0  0  0
   21.2072   -3.2531  -16.2082 O   0  0  0  0  0  0  0  0  0  0  0  0
   20.7779   -4.4294  -14.3246 O   0  0  0  0  0  0  0  0  0  0  0  0
  2  1  1  1
  2  3  1  0
  4  3  1  0
  5  4  2  0
  6  7  1  0
  6  5  1  0
  7  8  2  0
  8  4  1  0
  9 15  1  0
  9  2  1  0
 10  9  2  0
 12 11  1  1
 12 14  1  0
 13 12  1  0
 14 15  1  6
 16 14  1  0
 17 16  2  0
 19 18  1  1
 19 21  1  0
 19 20  1  0
 20 16  1  0
 21 23  1  0
 22 21  2  0
M  END
$$$$
