HVA.pdb
     RDKit          3D

 23 23  0  0  1  0  0  0  0  0999 V2000
   20.6101  -13.6573  -18.1811 N   0  0  0  0  0  0  0  0  0  0  0  0
   20.5074  -12.2436  -18.3589 C   0  0  1  0  0  0  0  0  0  0  0  0
   19.1762  -11.8081  -18.9048 C   0  0  0  0  0  0  0  0  0  0  0  0
   19.0842  -12.2693  -20.3142 C   0  0  0  0  0  0  0  0  0  0  0  0
   19.5223  -11.6720  -21.4563 C   0  0  0  0  0  0  0  0  0  0  0  0
   19.2410  -12.4223  -22.5364 N   0  0  0  0  0  0  0  0  0  0  0  0
   18.6169  -13.5084  -22.0748 C   0  0  0  0  0  0  0  0  0  0  0  0
   18.5097  -13.4374  -20.7207 N   0  0  0  0  0  0  0  0  0  0  0  0
   20.8471  -11.5401  -17.0858 C   0  0  0  0  0  0  0  0  0  0  0  0
   20.3570  -11.9191  -15.9777 O   0  0  0  0  0  0  0  0  0  0  0  0
   24.0466  -11.2360  -15.3801 C   0  0  0  0  0  0  0  0  0  0  0  0
   23.5991   -9.7862  -15.6217 C   0  0  2  0  0  0  0  0  0  0  0  0
   23.9989   -9.0443  -14.3683 C   0  0  0  0  0  0  0  0  0  0  0  0
   22.0924   -9.7868  -15.7727 C   0  0  2  0  0  0  0  0  0  0  0  0
   21.7195  -10.4284  -17.0337 N   0  0  0  0  0  0  0  0  0  0  0  0
   21.5786   -8.4030  -15.8342 C   0  0  0  0  0  0  0  0  0  0  0  0
   21.9423   -7.6823  -16.8280 O   0  0  0  0  0  0  0  0  0  0  0  0
   18.9307   -6.2633  -14.3551 C   0  0  0  0  0  0  0  0  0  0  0  0
   20.2886   -6.3941  -15.0409 C   0  0  2  0  0  0  0  0  0  0  0  0
   20.7232   -7.7845  -14.9126 N   0  0  0  0  0  0  0  0  0  0  0  0
   21.2743   -5.4590  -14.4884 C   0  0  0  0  0  0  0  0  0  0  0  0
   21.4342   -4.3376  -15.0217 O   0  0  0  0  0  0  0  0  0  0  0  0
   22.0453   -5.7733  -13.3844 O   0  0  0  0  0  0  0  0  0  0  0  0
  2  1  1  1
  2  3  1  0
  4  3  1  0
  5  4  2  0
  6  7  1  0
  6  5  1  0
  7  8  2  0
  8  4  1  0
  9 15  1  0
  9  2  1  0
 10  9  2  0
 12 11  1  1
 12 14  1  0
 13 12  1  0
 14 15  1  6
 16 14  1  0
 17 16  2  0
 19 18  1  1
 19 21  1  0
 19 20  1  0
 20 16  1  0
 21 23  1  0
 22 21  2  0
M  END
$$$$
