HVA.pdb
     RDKit          3D

 23 23  0  0  1  0  0  0  0  0999 V2000
   36.1894  -12.4868  -19.0165 N   0  0  0  0  0  0  0  0  0  0  0  0
   36.0246  -11.5113  -17.9860 C   0  0  1  0  0  0  0  0  0  0  0  0
   37.3132  -10.8530  -17.5786 C   0  0  0  0  0  0  0  0  0  0  0  0
   38.1409  -11.8628  -16.8696 C   0  0  0  0  0  0  0  0  0  0  0  0
   38.4681  -11.9500  -15.5511 C   0  0  0  0  0  0  0  0  0  0  0  0
   39.2441  -13.0222  -15.3124 N   0  0  0  0  0  0  0  0  0  0  0  0
   39.4115  -13.6227  -16.4929 C   0  0  0  0  0  0  0  0  0  0  0  0
   38.7471  -12.9328  -17.4588 N   0  0  0  0  0  0  0  0  0  0  0  0
   34.9882  -10.5125  -18.3858 C   0  0  0  0  0  0  0  0  0  0  0  0
   34.9522  -10.0430  -19.5648 O   0  0  0  0  0  0  0  0  0  0  0  0
   31.3571  -10.5691  -16.7851 C   0  0  0  0  0  0  0  0  0  0  0  0
   31.6466   -9.7978  -18.0820 C   0  0  2  0  0  0  0  0  0  0  0  0
   31.7637  -10.8624  -19.1469 C   0  0  0  0  0  0  0  0  0  0  0  0
   32.9696   -9.0821  -17.9082 C   0  0  2  0  0  0  0  0  0  0  0  0
   33.9999  -10.0350  -17.4943 N   0  0  0  0  0  0  0  0  0  0  0  0
   32.8733   -8.0710  -16.8352 C   0  0  0  0  0  0  0  0  0  0  0  0
   33.3363   -8.3866  -15.6840 O   0  0  0  0  0  0  0  0  0  0  0  0
   34.1022   -5.6386  -15.7735 C   0  0  0  0  0  0  0  0  0  0  0  0
   32.5904   -5.7262  -15.9688 C   0  0  2  0  0  0  0  0  0  0  0  0
   32.3248   -6.7859  -16.9409 N   0  0  0  0  0  0  0  0  0  0  0  0
   32.0163   -4.4429  -16.3871 C   0  0  0  0  0  0  0  0  0  0  0  0
   31.8949   -3.5155  -15.5548 O   0  0  0  0  0  0  0  0  0  0  0  0
   31.5977   -4.2148  -17.6851 O   0  0  0  0  0  0  0  0  0  0  0  0
  2  1  1  6
  2  3  1  0
  4  3  1  0
  5  4  2  0
  6  7  1  0
  6  5  1  0
  7  8  2  0
  8  4  1  0
  9 15  1  0
  9  2  1  0
 10  9  2  0
 12 11  1  1
 12 14  1  0
 13 12  1  0
 14 15  1  1
 16 14  1  0
 17 16  2  0
 19 18  1  6
 19 21  1  0
 19 20  1  0
 20 16  1  0
 21 23  1  0
 22 21  2  0
M  END
$$$$
