HVA.pdb
     RDKit          3D

 23 23  0  0  1  0  0  0  0  0999 V2000
   22.1713  -20.3563  -13.6250 N   0  0  0  0  0  0  0  0  0  0  0  0
   21.3153  -20.0554  -12.5216 C   0  0  1  0  0  0  0  0  0  0  0  0
   19.9070  -19.7286  -12.9335 C   0  0  0  0  0  0  0  0  0  0  0  0
   19.9389  -18.4687  -13.7203 C   0  0  0  0  0  0  0  0  0  0  0  0
   20.9826  -17.6382  -13.9926 C   0  0  0  0  0  0  0  0  0  0  0  0
   20.5902  -16.5941  -14.7440 N   0  0  0  0  0  0  0  0  0  0  0  0
   19.2824  -16.7635  -14.9512 C   0  0  0  0  0  0  0  0  0  0  0  0
   18.8622  -17.9015  -14.3357 N   0  0  0  0  0  0  0  0  0  0  0  0
   21.3624  -21.1614  -11.5188 C   0  0  0  0  0  0  0  0  0  0  0  0
   21.4684  -22.3725  -11.8846 O   0  0  0  0  0  0  0  0  0  0  0  0
   21.7861  -20.2058   -7.4940 C   0  0  0  0  0  0  0  0  0  0  0  0
   22.3778  -21.5216   -8.0223 C   0  0  2  0  0  0  0  0  0  0  0  0
   23.7405  -21.1466   -8.5544 C   0  0  0  0  0  0  0  0  0  0  0  0
   21.4904  -22.0077   -9.1489 C   0  0  2  0  0  0  0  0  0  0  0  0
   21.2934  -20.9353  -10.1246 N   0  0  0  0  0  0  0  0  0  0  0  0
   20.1514  -22.3633   -8.6354 C   0  0  0  0  0  0  0  0  0  0  0  0
   19.2514  -21.4529   -8.6543 O   0  0  0  0  0  0  0  0  0  0  0  0
   17.8825  -25.1353   -8.1766 C   0  0  0  0  0  0  0  0  0  0  0  0
   18.4222  -23.8445   -7.5654 C   0  0  2  0  0  0  0  0  0  0  0  0
   19.7521  -23.6056   -8.1248 N   0  0  0  0  0  0  0  0  0  0  0  0
   18.4465  -23.9001   -6.0998 C   0  0  0  0  0  0  0  0  0  0  0  0
   19.5417  -23.9875   -5.4993 O   0  0  0  0  0  0  0  0  0  0  0  0
   17.2889  -23.8590   -5.3448 O   0  0  0  0  0  0  0  0  0  0  0  0
  2  1  1  6
  2  3  1  0
  4  3  1  0
  5  4  2  0
  6  7  1  0
  6  5  1  0
  7  8  2  0
  8  4  1  0
  9 15  1  0
  9  2  1  0
 10  9  2  0
 12 11  1  6
 12 14  1  0
 13 12  1  0
 14 15  1  6
 16 14  1  0
 17 16  2  0
 19 18  1  6
 19 21  1  0
 19 20  1  0
 20 16  1  0
 21 23  1  0
 22 21  2  0
M  END
$$$$
