HVA.pdb
     RDKit          3D

 23 23  0  0  1  0  0  0  0  0999 V2000
   24.7266  -12.7475  -17.5171 N   0  0  0  0  0  0  0  0  0  0  0  0
   24.9836  -11.3991  -17.1217 C   0  0  1  0  0  0  0  0  0  0  0  0
   26.2836  -10.8615  -17.6516 C   0  0  0  0  0  0  0  0  0  0  0  0
   27.3862  -11.6711  -17.0716 C   0  0  0  0  0  0  0  0  0  0  0  0
   28.0210  -11.5465  -15.8738 C   0  0  0  0  0  0  0  0  0  0  0  0
   28.9727  -12.4856  -15.7277 N   0  0  0  0  0  0  0  0  0  0  0  0
   28.9419  -13.2146  -16.8456 C   0  0  0  0  0  0  0  0  0  0  0  0
   27.9810  -12.7361  -17.6811 N   0  0  0  0  0  0  0  0  0  0  0  0
   23.8271  -10.5274  -17.4878 C   0  0  0  0  0  0  0  0  0  0  0  0
   23.2885  -10.6023  -18.6350 O   0  0  0  0  0  0  0  0  0  0  0  0
   21.2112   -9.5471  -14.7094 C   0  0  0  0  0  0  0  0  0  0  0  0
   20.8667   -9.4576  -16.2040 C   0  0  2  0  0  0  0  0  0  0  0  0
   20.6858  -10.8905  -16.6455 C   0  0  0  0  0  0  0  0  0  0  0  0
   22.0503   -8.8354  -16.9144 C   0  0  2  0  0  0  0  0  0  0  0  0
   23.2686   -9.5813  -16.5977 N   0  0  0  0  0  0  0  0  0  0  0  0
   22.2671   -7.4519  -16.4432 C   0  0  0  0  0  0  0  0  0  0  0  0
   22.9095   -7.2961  -15.3467 O   0  0  0  0  0  0  0  0  0  0  0  0
   21.7168   -3.9207  -17.6029 C   0  0  0  0  0  0  0  0  0  0  0  0
   22.1290   -4.9420  -16.5454 C   0  0  2  0  0  0  0  0  0  0  0  0
   21.8426   -6.2750  -17.0743 N   0  0  0  0  0  0  0  0  0  0  0  0
   21.4569   -4.7056  -15.2633 C   0  0  0  0  0  0  0  0  0  0  0  0
   20.3833   -5.2962  -15.0062 O   0  0  0  0  0  0  0  0  0  0  0  0
   21.9714   -3.8423  -14.3136 O   0  0  0  0  0  0  0  0  0  0  0  0
  2  1  1  6
  2  3  1  0
  4  3  1  0
  5  4  2  0
  6  7  1  0
  6  5  1  0
  7  8  2  0
  8  4  1  0
  9 15  1  0
  9  2  1  0
 10  9  2  0
 12 11  1  1
 12 14  1  0
 13 12  1  0
 14 15  1  1
 16 14  1  0
 17 16  2  0
 19 18  1  6
 19 21  1  0
 19 20  1  0
 20 16  1  0
 21 23  1  0
 22 21  2  0
M  END
$$$$
