HVA.pdb
     RDKit          3D

 23 23  0  0  1  0  0  0  0  0999 V2000
   18.3265  -12.2550  -18.1214 N   0  0  0  0  0  0  0  0  0  0  0  0
   19.0481  -11.0443  -18.3542 C   0  0  1  0  0  0  0  0  0  0  0  0
   18.2303   -9.9876  -19.0429 C   0  0  0  0  0  0  0  0  0  0  0  0
   17.8724  -10.4915  -20.3941 C   0  0  0  0  0  0  0  0  0  0  0  0
   18.6349  -10.5878  -21.5177 C   0  0  0  0  0  0  0  0  0  0  0  0
   17.9296  -11.1004  -22.5417 N   0  0  0  0  0  0  0  0  0  0  0  0
   16.7052  -11.3321  -22.0628 C   0  0  0  0  0  0  0  0  0  0  0  0
   16.6463  -10.9682  -20.7534 N   0  0  0  0  0  0  0  0  0  0  0  0
   19.6428  -10.5474  -17.0772 C   0  0  0  0  0  0  0  0  0  0  0  0
   18.9818  -10.5738  -15.9936 O   0  0  0  0  0  0  0  0  0  0  0  0
   22.5796  -11.8092  -15.2647 C   0  0  0  0  0  0  0  0  0  0  0  0
   22.8770  -10.3248  -15.5267 C   0  0  2  0  0  0  0  0  0  0  0  0
   23.5489   -9.8366  -14.2653 C   0  0  0  0  0  0  0  0  0  0  0  0
   21.5534   -9.6162  -15.7239 C   0  0  2  0  0  0  0  0  0  0  0  0
   20.9546  -10.0259  -16.9945 N   0  0  0  0  0  0  0  0  0  0  0  0
   21.7563   -8.1549  -15.8039 C   0  0  0  0  0  0  0  0  0  0  0  0
   22.5935   -7.7222  -16.6704 O   0  0  0  0  0  0  0  0  0  0  0  0
   20.1028   -4.9872  -15.0897 C   0  0  0  0  0  0  0  0  0  0  0  0
   21.4241   -5.7505  -15.1425 C   0  0  2  0  0  0  0  0  0  0  0  0
   21.1226   -7.1767  -15.0259 N   0  0  0  0  0  0  0  0  0  0  0  0
   22.3585   -5.3017  -14.1048 C   0  0  0  0  0  0  0  0  0  0  0  0
   22.3885   -5.8890  -12.9994 O   0  0  0  0  0  0  0  0  0  0  0  0
   23.2205   -4.2390  -14.3036 O   0  0  0  0  0  0  0  0  0  0  0  0
  2  1  1  1
  2  3  1  0
  4  3  1  0
  5  4  2  0
  6  7  1  0
  6  5  1  0
  7  8  2  0
  8  4  1  0
  9 15  1  0
  9  2  1  0
 10  9  2  0
 12 11  1  1
 12 14  1  0
 13 12  1  0
 14 15  1  6
 16 14  1  0
 17 16  2  0
 19 18  1  1
 19 21  1  0
 19 20  1  0
 20 16  1  0
 21 23  1  0
 22 21  2  0
M  END
$$$$
