HVA.pdb
     RDKit          3D

 23 23  0  0  1  0  0  0  0  0999 V2000
   28.3400  -23.5607  -18.0306 N   0  0  0  0  0  0  0  0  0  0  0  0
   27.5413  -23.7991  -16.8704 C   0  0  1  0  0  0  0  0  0  0  0  0
   27.7720  -25.1522  -16.2575 C   0  0  0  0  0  0  0  0  0  0  0  0
   27.0501  -26.1580  -17.0790 C   0  0  0  0  0  0  0  0  0  0  0  0
   25.7513  -26.5613  -17.0188 C   0  0  0  0  0  0  0  0  0  0  0  0
   25.4905  -27.5014  -17.9446 N   0  0  0  0  0  0  0  0  0  0  0  0
   26.6369  -27.6972  -18.6001 C   0  0  0  0  0  0  0  0  0  0  0  0
   27.6035  -26.8880  -18.0891 N   0  0  0  0  0  0  0  0  0  0  0  0
   27.7320  -22.6968  -15.8805 C   0  0  0  0  0  0  0  0  0  0  0  0
   28.8930  -22.3558  -15.4963 O   0  0  0  0  0  0  0  0  0  0  0  0
   27.6375  -19.2570  -16.0586 C   0  0  0  0  0  0  0  0  0  0  0  0
   26.5258  -19.5583  -15.0418 C   0  0  2  0  0  0  0  0  0  0  0  0
   26.6028  -18.4311  -14.0396 C   0  0  0  0  0  0  0  0  0  0  0  0
   26.8552  -20.8770  -14.3744 C   0  0  2  0  0  0  0  0  0  0  0  0
   26.6528  -21.9763  -15.3185 N   0  0  0  0  0  0  0  0  0  0  0  0
   25.9440  -21.1228  -13.2377 C   0  0  0  0  0  0  0  0  0  0  0  0
   24.7259  -21.4085  -13.5092 O   0  0  0  0  0  0  0  0  0  0  0  0
   25.9847  -21.0672   -9.4768 C   0  0  0  0  0  0  0  0  0  0  0  0
   25.2929  -21.3148  -10.8152 C   0  0  2  0  0  0  0  0  0  0  0  0
   26.2716  -21.0789  -11.8759 N   0  0  0  0  0  0  0  0  0  0  0  0
   24.0977  -20.4801  -10.9774 C   0  0  0  0  0  0  0  0  0  0  0  0
   24.2022  -19.3345  -11.4717 O   0  0  0  0  0  0  0  0  0  0  0  0
   22.8413  -20.9167  -10.5997 O   0  0  0  0  0  0  0  0  0  0  0  0
  2  1  1  6
  2  3  1  0
  4  3  1  0
  5  4  2  0
  6  7  1  0
  6  5  1  0
  7  8  2  0
  8  4  1  0
  9 15  1  0
  9  2  1  0
 10  9  2  0
 12 11  1  6
 12 14  1  0
 13 12  1  0
 14 15  1  6
 16 14  1  0
 17 16  2  0
 19 18  1  1
 19 21  1  0
 19 20  1  0
 20 16  1  0
 21 23  1  0
 22 21  2  0
M  END
$$$$
