DHA.pdb
     RDKit          3D

 24 24  0  0  1  0  0  0  0  0999 V2000
   16.2508  -13.5215   15.9813 N   0  0  0  0  0  0  0  0  0  0  0  0
   16.2456  -13.8456   17.3670 C   0  0  1  0  0  0  0  0  0  0  0  0
   16.6151  -12.6905   18.2694 C   0  0  0  0  0  0  0  0  0  0  0  0
   18.0691  -12.4328   18.1504 C   0  0  0  0  0  0  0  0  0  0  0  0
   18.4406  -11.4177   17.5003 O   0  0  0  0  0  0  0  0  0  0  0  0
   14.8824  -14.3645   17.7134 C   0  0  0  0  0  0  0  0  0  0  0  0
   13.8456  -13.7197   17.4268 O   0  0  0  0  0  0  0  0  0  0  0  0
   19.0548  -13.2390   18.7100 O   0  0  0  0  0  0  0  0  0  0  0  0
   14.6891  -15.6106   18.3837 N   0  0  0  0  0  0  0  0  0  0  0  0
   13.3803  -16.0571   18.7901 C   0  0  1  0  0  0  0  0  0  0  0  0
   13.0844  -17.4848   18.4068 C   0  0  0  0  0  0  0  0  0  0  0  0
   12.7848  -17.6070   16.9584 C   0  0  0  0  0  0  0  0  0  0  0  0
   12.7405  -16.5716   16.0271 C   0  0  0  0  0  0  0  0  0  0  0  0
   12.4311  -17.1217   14.8420 N   0  0  0  0  0  0  0  0  0  0  0  0
   12.2790  -18.4314   14.9712 C   0  0  0  0  0  0  0  0  0  0  0  0
   12.4964  -18.7225   16.2781 N   0  0  0  0  0  0  0  0  0  0  0  0
   13.1596  -15.8319   20.2510 C   0  0  0  0  0  0  0  0  0  0  0  0
   14.1128  -15.7954   21.0623 O   0  0  0  0  0  0  0  0  0  0  0  0
   10.1163  -15.1640   22.3389 C   0  0  0  0  0  0  0  0  0  0  0  0
   11.6073  -15.4788   22.1525 C   0  0  2  0  0  0  0  0  0  0  0  0
   11.8478  -15.6550   20.7451 N   0  0  0  0  0  0  0  0  0  0  0  0
   12.0175  -16.6654   22.9100 C   0  0  0  0  0  0  0  0  0  0  0  0
   12.0692  -16.6124   24.1547 O   0  0  0  0  0  0  0  0  0  0  0  0
   12.3411  -17.8335   22.2167 O   0  0  0  0  0  0  0  0  0  0  0  0
  2  1  1  6
  2  3  1  0
  2  6  1  0
  3  4  1  0
  4  5  2  0
  4  8  1  0
  6  7  2  0
  9  6  1  0
  9 10  1  0
 10 17  1  0
 10 11  1  1
 11 12  1  0
 12 13  2  0
 13 14  1  0
 15 14  1  0
 16 12  1  0
 16 15  2  0
 17 18  2  0
 20 19  1  6
 20 22  1  0
 21 20  1  0
 21 17  1  0
 22 23  2  0
 22 24  1  0
M  END
$$$$
