DHA.pdb
     RDKit          3D

 24 24  0  0  1  0  0  0  0  0999 V2000
   13.1325  -16.5277   18.1744 N   0  0  0  0  0  0  0  0  0  0  0  0
   13.5127  -15.2499   18.6724 C   0  0  1  0  0  0  0  0  0  0  0  0
   13.9005  -14.2617   17.5962 C   0  0  0  0  0  0  0  0  0  0  0  0
   15.0863  -14.7779   16.8737 C   0  0  0  0  0  0  0  0  0  0  0  0
   16.0076  -15.3117   17.5501 O   0  0  0  0  0  0  0  0  0  0  0  0
   12.3732  -14.7155   19.4870 C   0  0  0  0  0  0  0  0  0  0  0  0
   12.4489  -13.6065   20.0677 O   0  0  0  0  0  0  0  0  0  0  0  0
   15.2514  -14.7125   15.4941 O   0  0  0  0  0  0  0  0  0  0  0  0
   11.1486  -15.4327   19.6468 N   0  0  0  0  0  0  0  0  0  0  0  0
   10.1486  -15.0211   20.5996 C   0  0  1  0  0  0  0  0  0  0  0  0
    8.7353  -15.2474   20.1260 C   0  0  0  0  0  0  0  0  0  0  0  0
    8.4645  -14.5217   18.8600 C   0  0  0  0  0  0  0  0  0  0  0  0
    8.4529  -13.1404   18.6782 C   0  0  0  0  0  0  0  0  0  0  0  0
    8.1613  -12.9162   17.3870 N   0  0  0  0  0  0  0  0  0  0  0  0
    7.9896  -14.0654   16.7504 C   0  0  0  0  0  0  0  0  0  0  0  0
    8.1759  -15.0497   17.6649 N   0  0  0  0  0  0  0  0  0  0  0  0
   10.3795  -15.6515   21.9349 C   0  0  0  0  0  0  0  0  0  0  0  0
   11.0341  -16.7120   22.0573 O   0  0  0  0  0  0  0  0  0  0  0  0
    9.3779  -14.7376   25.4346 C   0  0  0  0  0  0  0  0  0  0  0  0
   10.0789  -15.6250   24.3964 C   0  0  2  0  0  0  0  0  0  0  0  0
    9.8514  -15.0481   23.0983 N   0  0  0  0  0  0  0  0  0  0  0  0
    9.6040  -17.0113   24.4478 C   0  0  0  0  0  0  0  0  0  0  0  0
    8.6646  -17.3670   23.7090 O   0  0  0  0  0  0  0  0  0  0  0  0
   10.2186  -17.9061   25.3262 O   0  0  0  0  0  0  0  0  0  0  0  0
  2  1  1  6
  2  3  1  0
  2  6  1  0
  3  4  1  0
  4  5  2  0
  4  8  1  0
  6  7  2  0
  9  6  1  0
  9 10  1  0
 10 17  1  0
 10 11  1  6
 11 12  1  0
 12 13  2  0
 13 14  1  0
 15 14  1  0
 16 12  1  0
 16 15  2  0
 17 18  2  0
 20 19  1  1
 20 22  1  0
 21 20  1  0
 21 17  1  0
 22 23  2  0
 22 24  1  0
M  END
$$$$
