DHA.pdb
     RDKit          3D

 24 24  0  0  1  0  0  0  0  0999 V2000
   10.7285  -18.3402   21.4129 N   0  0  0  0  0  0  0  0  0  0  0  0
   11.6386  -17.2568   21.5658 C   0  0  1  0  0  0  0  0  0  0  0  0
   12.0430  -16.6058   20.2628 C   0  0  0  0  0  0  0  0  0  0  0  0
   12.6931  -17.6195   19.3999 C   0  0  0  0  0  0  0  0  0  0  0  0
   13.4682  -18.4528   19.9439 O   0  0  0  0  0  0  0  0  0  0  0  0
   11.0065  -16.2500   22.4793 C   0  0  0  0  0  0  0  0  0  0  0  0
   11.6036  -15.1956   22.8026 O   0  0  0  0  0  0  0  0  0  0  0  0
   12.5046  -17.7132   18.0250 O   0  0  0  0  0  0  0  0  0  0  0  0
    9.7009  -16.4332   23.0283 N   0  0  0  0  0  0  0  0  0  0  0  0
    9.1452  -15.5096   23.9852 C   0  0  1  0  0  0  0  0  0  0  0  0
    7.6384  -15.5226   24.0307 C   0  0  0  0  0  0  0  0  0  0  0  0
    7.1141  -14.4791   24.9466 C   0  0  0  0  0  0  0  0  0  0  0  0
    7.2155  -13.0994   24.7819 C   0  0  0  0  0  0  0  0  0  0  0  0
    6.6125  -12.5318   25.8387 N   0  0  0  0  0  0  0  0  0  0  0  0
    6.1416  -13.4651   26.6526 C   0  0  0  0  0  0  0  0  0  0  0  0
    6.4562  -14.6621   26.0974 N   0  0  0  0  0  0  0  0  0  0  0  0
    9.7297  -15.7196   25.3445 C   0  0  0  0  0  0  0  0  0  0  0  0
   10.1680  -16.8353   25.7070 O   0  0  0  0  0  0  0  0  0  0  0  0
   10.3319  -13.4560   28.2771 C   0  0  0  0  0  0  0  0  0  0  0  0
   10.4384  -14.7951   27.5338 C   0  0  2  0  0  0  0  0  0  0  0  0
    9.7957  -14.6419   26.2559 N   0  0  0  0  0  0  0  0  0  0  0  0
    9.8406  -15.8959   28.2960 C   0  0  0  0  0  0  0  0  0  0  0  0
    8.7112  -16.3197   27.9805 O   0  0  0  0  0  0  0  0  0  0  0  0
   10.5540  -16.4479   29.3619 O   0  0  0  0  0  0  0  0  0  0  0  0
  2  1  1  6
  2  3  1  0
  2  6  1  0
  3  4  1  0
  4  5  2  0
  4  8  1  0
  6  7  2  0
  9  6  1  0
  9 10  1  0
 10 17  1  0
 10 11  1  1
 11 12  1  0
 12 13  2  0
 13 14  1  0
 15 14  1  0
 16 12  1  0
 16 15  2  0
 17 18  2  0
 20 19  1  1
 20 22  1  0
 21 20  1  0
 21 17  1  0
 22 23  2  0
 22 24  1  0
M  END
$$$$
