DHA.pdb
     RDKit          3D

 24 24  0  0  1  0  0  0  0  0999 V2000
   10.8098  -18.3832   21.5185 N   0  0  0  0  0  0  0  0  0  0  0  0
   11.7976  -17.3699   21.6696 C   0  0  1  0  0  0  0  0  0  0  0  0
   12.2978  -16.7998   20.3620 C   0  0  0  0  0  0  0  0  0  0  0  0
   13.1616  -17.8039   19.6984 C   0  0  0  0  0  0  0  0  0  0  0  0
   13.7645  -18.6408   20.4245 O   0  0  0  0  0  0  0  0  0  0  0  0
   11.2166  -16.2844   22.5251 C   0  0  0  0  0  0  0  0  0  0  0  0
   11.8747  -15.2562   22.8123 O   0  0  0  0  0  0  0  0  0  0  0  0
   13.3524  -17.8850   18.3230 O   0  0  0  0  0  0  0  0  0  0  0  0
    9.8933  -16.3595   23.0569 N   0  0  0  0  0  0  0  0  0  0  0  0
    9.3695  -15.3404   23.9312 C   0  0  1  0  0  0  0  0  0  0  0  0
    7.8896  -15.1058   23.7649 C   0  0  0  0  0  0  0  0  0  0  0  0
    7.5653  -14.6349   22.3953 C   0  0  0  0  0  0  0  0  0  0  0  0
    7.7999  -13.3642   21.8744 C   0  0  0  0  0  0  0  0  0  0  0  0
    7.3513  -13.3691   20.6089 N   0  0  0  0  0  0  0  0  0  0  0  0
    6.8518  -14.5580   20.3050 C   0  0  0  0  0  0  0  0  0  0  0  0
    6.9853  -15.3317   21.4112 N   0  0  0  0  0  0  0  0  0  0  0  0
    9.7165  -15.6188   25.3579 C   0  0  0  0  0  0  0  0  0  0  0  0
   10.0169  -16.7698   25.7493 O   0  0  0  0  0  0  0  0  0  0  0  0
   10.0490  -13.4511   28.4035 C   0  0  0  0  0  0  0  0  0  0  0  0
   10.1376  -14.7896   27.6569 C   0  0  2  0  0  0  0  0  0  0  0  0
    9.7090  -14.5673   26.3017 N   0  0  0  0  0  0  0  0  0  0  0  0
    9.3321  -15.8323   28.3002 C   0  0  0  0  0  0  0  0  0  0  0  0
    8.2018  -16.1023   27.8483 O   0  0  0  0  0  0  0  0  0  0  0  0
    9.8525  -16.5032   29.4089 O   0  0  0  0  0  0  0  0  0  0  0  0
  2  1  1  6
  2  3  1  0
  2  6  1  0
  3  4  1  0
  4  5  2  0
  4  8  1  0
  6  7  2  0
  9  6  1  0
  9 10  1  0
 10 17  1  0
 10 11  1  1
 11 12  1  0
 12 13  2  0
 13 14  1  0
 15 14  1  0
 16 12  1  0
 16 15  2  0
 17 18  2  0
 20 19  1  1
 20 22  1  0
 21 20  1  0
 21 17  1  0
 22 23  2  0
 22 24  1  0
M  END
$$$$
