DHA.pdb
     RDKit          3D

 24 24  0  0  1  0  0  0  0  0999 V2000
   11.1771  -18.3199   21.1620 N   0  0  0  0  0  0  0  0  0  0  0  0
   12.1870  -17.4027   21.5671 C   0  0  1  0  0  0  0  0  0  0  0  0
   12.9395  -16.7709   20.4185 C   0  0  0  0  0  0  0  0  0  0  0  0
   13.6332  -17.8341   19.6548 C   0  0  0  0  0  0  0  0  0  0  0  0
   14.1478  -18.7883   20.2995 O   0  0  0  0  0  0  0  0  0  0  0  0
   11.5384  -16.3469   22.4111 C   0  0  0  0  0  0  0  0  0  0  0  0
   12.1801  -15.3483   22.8157 O   0  0  0  0  0  0  0  0  0  0  0  0
   13.7548  -17.8495   18.2692 O   0  0  0  0  0  0  0  0  0  0  0  0
   10.1657  -16.4183   22.7988 N   0  0  0  0  0  0  0  0  0  0  0  0
    9.5506  -15.3902   23.6001 C   0  0  1  0  0  0  0  0  0  0  0  0
    8.0678  -15.2504   23.3669 C   0  0  0  0  0  0  0  0  0  0  0  0
    7.7812  -14.6533   22.0387 C   0  0  0  0  0  0  0  0  0  0  0  0
    8.7130  -14.1483   21.1344 C   0  0  0  0  0  0  0  0  0  0  0  0
    8.0267  -13.7046   20.0691 N   0  0  0  0  0  0  0  0  0  0  0  0
    6.7283  -13.8985   20.2481 C   0  0  0  0  0  0  0  0  0  0  0  0
    6.5849  -14.4814   21.4646 N   0  0  0  0  0  0  0  0  0  0  0  0
    9.8549  -15.5785   25.0511 C   0  0  0  0  0  0  0  0  0  0  0  0
   10.1960  -16.6916   25.5127 O   0  0  0  0  0  0  0  0  0  0  0  0
    9.8082  -13.2852   28.0218 C   0  0  0  0  0  0  0  0  0  0  0  0
    9.9825  -14.6539   27.3487 C   0  0  2  0  0  0  0  0  0  0  0  0
    9.7591  -14.4827   25.9379 N   0  0  0  0  0  0  0  0  0  0  0  0
    9.0753  -15.6611   27.9078 C   0  0  0  0  0  0  0  0  0  0  0  0
    7.9648  -15.8519   27.3739 O   0  0  0  0  0  0  0  0  0  0  0  0
    9.4784  -16.3878   29.0299 O   0  0  0  0  0  0  0  0  0  0  0  0
  2  1  1  6
  2  3  1  0
  2  6  1  0
  3  4  1  0
  4  5  2  0
  4  8  1  0
  6  7  2  0
  9  6  1  0
  9 10  1  0
 10 17  1  0
 10 11  1  1
 11 12  1  0
 12 13  2  0
 13 14  1  0
 15 14  1  0
 16 12  1  0
 16 15  2  0
 17 18  2  0
 20 19  1  1
 20 22  1  0
 21 20  1  0
 21 17  1  0
 22 23  2  0
 22 24  1  0
M  END
$$$$
