DHA.pdb
     RDKit          3D

 24 24  0  0  1  0  0  0  0  0999 V2000
    9.5336  -18.2871   19.2519 N   0  0  0  0  0  0  0  0  0  0  0  0
   10.7395  -17.5790   19.5158 C   0  0  1  0  0  0  0  0  0  0  0  0
   11.3544  -16.9361   18.2937 C   0  0  0  0  0  0  0  0  0  0  0  0
   11.7494  -17.9977   17.3388 C   0  0  0  0  0  0  0  0  0  0  0  0
   11.3700  -19.1776   17.5730 O   0  0  0  0  0  0  0  0  0  0  0  0
   10.4464  -16.5436   20.5597 C   0  0  0  0  0  0  0  0  0  0  0  0
   11.3497  -15.8047   21.0188 O   0  0  0  0  0  0  0  0  0  0  0  0
   12.5135  -17.7783   16.1974 O   0  0  0  0  0  0  0  0  0  0  0  0
    9.1340  -16.3425   21.0859 N   0  0  0  0  0  0  0  0  0  0  0  0
    8.8690  -15.3569   22.1036 C   0  0  1  0  0  0  0  0  0  0  0  0
    7.7394  -14.4207   21.7565 C   0  0  0  0  0  0  0  0  0  0  0  0
    7.9013  -13.8570   20.3932 C   0  0  0  0  0  0  0  0  0  0  0  0
    8.4268  -12.6090   20.0652 C   0  0  0  0  0  0  0  0  0  0  0  0
    8.3849  -12.5040   18.7273 N   0  0  0  0  0  0  0  0  0  0  0  0
    7.8680  -13.6031   18.1980 C   0  0  0  0  0  0  0  0  0  0  0  0
    7.5707  -14.4310   19.2306 N   0  0  0  0  0  0  0  0  0  0  0  0
    8.6506  -15.9979   23.4359 C   0  0  0  0  0  0  0  0  0  0  0  0
    7.5004  -16.2100   23.8834 O   0  0  0  0  0  0  0  0  0  0  0  0
    9.4209  -18.5465   25.2069 C   0  0  0  0  0  0  0  0  0  0  0  0
    9.5752  -17.0446   25.4852 C   0  0  2  0  0  0  0  0  0  0  0  0
    9.7602  -16.3794   24.2232 N   0  0  0  0  0  0  0  0  0  0  0  0
   10.6897  -16.7661   26.3964 C   0  0  0  0  0  0  0  0  0  0  0  0
   11.6688  -16.1111   25.9876 O   0  0  0  0  0  0  0  0  0  0  0  0
   10.6281  -17.2419   27.7078 O   0  0  0  0  0  0  0  0  0  0  0  0
  2  1  1  6
  2  3  1  0
  2  6  1  0
  3  4  1  0
  4  5  2  0
  4  8  1  0
  6  7  2  0
  9  6  1  0
  9 10  1  0
 10 17  1  0
 10 11  1  6
 11 12  1  0
 12 13  2  0
 13 14  1  0
 15 14  1  0
 16 12  1  0
 16 15  2  0
 17 18  2  0
 20 19  1  6
 20 22  1  0
 21 20  1  0
 21 17  1  0
 22 23  2  0
 22 24  1  0
M  END
$$$$
