DHA.pdb
     RDKit          3D

 24 24  0  0  1  0  0  0  0  0999 V2000
   12.6439  -16.5534   18.4560 N   0  0  0  0  0  0  0  0  0  0  0  0
   13.1721  -15.3801   19.0640 C   0  0  1  0  0  0  0  0  0  0  0  0
   13.5992  -14.3166   18.0783 C   0  0  0  0  0  0  0  0  0  0  0  0
   14.7465  -14.8238   17.2902 C   0  0  0  0  0  0  0  0  0  0  0  0
   15.4163  -15.7811   17.7657 O   0  0  0  0  0  0  0  0  0  0  0  0
   12.1333  -14.8388   19.9997 C   0  0  0  0  0  0  0  0  0  0  0  0
   12.3529  -13.8242   20.7034 O   0  0  0  0  0  0  0  0  0  0  0  0
   15.1351  -14.3125   16.0563 O   0  0  0  0  0  0  0  0  0  0  0  0
   10.8471  -15.4429   20.1419 N   0  0  0  0  0  0  0  0  0  0  0  0
    9.8446  -14.8924   21.0191 C   0  0  1  0  0  0  0  0  0  0  0  0
    8.4454  -14.9778   20.4642 C   0  0  0  0  0  0  0  0  0  0  0  0
    8.3585  -14.3667   19.1146 C   0  0  0  0  0  0  0  0  0  0  0  0
    8.3368  -13.0058   18.8167 C   0  0  0  0  0  0  0  0  0  0  0  0
    8.2476  -12.8970   17.4814 N   0  0  0  0  0  0  0  0  0  0  0  0
    8.2119  -14.0991   16.9256 C   0  0  0  0  0  0  0  0  0  0  0  0
    8.2786  -14.9993   17.9382 N   0  0  0  0  0  0  0  0  0  0  0  0
    9.9242  -15.4993   22.3825 C   0  0  0  0  0  0  0  0  0  0  0  0
   10.5381  -16.5708   22.5907 O   0  0  0  0  0  0  0  0  0  0  0  0
    8.6294  -14.4813   25.7532 C   0  0  0  0  0  0  0  0  0  0  0  0
    9.2756  -15.4734   24.7759 C   0  0  2  0  0  0  0  0  0  0  0  0
    9.2954  -14.8605   23.4746 N   0  0  0  0  0  0  0  0  0  0  0  0
    8.5649  -16.7556   24.7440 C   0  0  0  0  0  0  0  0  0  0  0  0
    7.8048  -17.0134   23.7898 O   0  0  0  0  0  0  0  0  0  0  0  0
    8.7576  -17.6633   25.7874 O   0  0  0  0  0  0  0  0  0  0  0  0
  2  1  1  6
  2  3  1  0
  2  6  1  0
  3  4  1  0
  4  5  2  0
  4  8  1  0
  6  7  2  0
  9  6  1  0
  9 10  1  0
 10 17  1  0
 10 11  1  6
 11 12  1  0
 12 13  2  0
 13 14  1  0
 15 14  1  0
 16 12  1  0
 16 15  2  0
 17 18  2  0
 20 19  1  1
 20 22  1  0
 21 20  1  0
 21 17  1  0
 22 23  2  0
 22 24  1  0
M  END
$$$$
