DHA.pdb
     RDKit          3D

 24 24  0  0  1  0  0  0  0  0999 V2000
   10.9223  -18.2646   21.2470 N   0  0  0  0  0  0  0  0  0  0  0  0
   11.9655  -17.4502   21.7702 C   0  0  1  0  0  0  0  0  0  0  0  0
   12.7378  -16.6893   20.7169 C   0  0  0  0  0  0  0  0  0  0  0  0
   13.3638  -17.6571   19.7861 C   0  0  0  0  0  0  0  0  0  0  0  0
   13.5611  -18.8332   20.1972 O   0  0  0  0  0  0  0  0  0  0  0  0
   11.3572  -16.5020   22.7595 C   0  0  0  0  0  0  0  0  0  0  0  0
   12.0344  -15.5914   23.2934 O   0  0  0  0  0  0  0  0  0  0  0  0
   13.7494  -17.3535   18.4847 O   0  0  0  0  0  0  0  0  0  0  0  0
    9.9848  -16.5818   23.1467 N   0  0  0  0  0  0  0  0  0  0  0  0
    9.3919  -15.6162   24.0374 C   0  0  1  0  0  0  0  0  0  0  0  0
    7.8846  -15.6114   24.0044 C   0  0  0  0  0  0  0  0  0  0  0  0
    7.3285  -14.4723   24.7765 C   0  0  0  0  0  0  0  0  0  0  0  0
    7.4217  -13.1210   24.4503 C   0  0  0  0  0  0  0  0  0  0  0  0
    6.7876  -12.4386   25.4173 N   0  0  0  0  0  0  0  0  0  0  0  0
    6.3051  -13.2736   26.3257 C   0  0  0  0  0  0  0  0  0  0  0  0
    6.6441  -14.5245   25.9250 N   0  0  0  0  0  0  0  0  0  0  0  0
    9.9022  -15.7800   25.4325 C   0  0  0  0  0  0  0  0  0  0  0  0
   10.2563  -16.8961   25.8767 O   0  0  0  0  0  0  0  0  0  0  0  0
   10.5504  -13.3799   28.2439 C   0  0  0  0  0  0  0  0  0  0  0  0
   10.5485  -14.7764   27.6063 C   0  0  2  0  0  0  0  0  0  0  0  0
    9.9927  -14.6567   26.2848 N   0  0  0  0  0  0  0  0  0  0  0  0
    9.7963  -15.7461   28.4088 C   0  0  0  0  0  0  0  0  0  0  0  0
    8.6672  -16.1142   28.0286 O   0  0  0  0  0  0  0  0  0  0  0  0
   10.3650  -16.2384   29.5852 O   0  0  0  0  0  0  0  0  0  0  0  0
  2  1  1  6
  2  3  1  0
  2  6  1  0
  3  4  1  0
  4  5  2  0
  4  8  1  0
  6  7  2  0
  9  6  1  0
  9 10  1  0
 10 17  1  0
 10 11  1  1
 11 12  1  0
 12 13  2  0
 13 14  1  0
 15 14  1  0
 16 12  1  0
 16 15  2  0
 17 18  2  0
 20 19  1  1
 20 22  1  0
 21 20  1  0
 21 17  1  0
 22 23  2  0
 22 24  1  0
M  END
$$$$
