DHA.pdb
     RDKit          3D

 24 24  0  0  1  0  0  0  0  0999 V2000
   10.7324  -18.2749   21.1660 N   0  0  0  0  0  0  0  0  0  0  0  0
   11.7850  -17.3649   21.4648 C   0  0  1  0  0  0  0  0  0  0  0  0
   12.4309  -16.7503   20.2441 C   0  0  0  0  0  0  0  0  0  0  0  0
   12.9199  -17.8347   19.3610 C   0  0  0  0  0  0  0  0  0  0  0  0
   13.6126  -18.7537   19.8775 O   0  0  0  0  0  0  0  0  0  0  0  0
   11.2298  -16.2955   22.3569 C   0  0  0  0  0  0  0  0  0  0  0  0
   11.8407  -15.2159   22.5410 O   0  0  0  0  0  0  0  0  0  0  0  0
   12.6646  -17.9065   17.9956 O   0  0  0  0  0  0  0  0  0  0  0  0
    9.9854  -16.4448   23.0417 N   0  0  0  0  0  0  0  0  0  0  0  0
    9.4374  -15.3889   23.8554 C   0  0  1  0  0  0  0  0  0  0  0  0
    7.9640  -15.1592   23.6329 C   0  0  0  0  0  0  0  0  0  0  0  0
    7.6851  -14.7379   22.2374 C   0  0  0  0  0  0  0  0  0  0  0  0
    7.7767  -13.4460   21.7238 C   0  0  0  0  0  0  0  0  0  0  0  0
    7.4347  -13.5133   20.4271 N   0  0  0  0  0  0  0  0  0  0  0  0
    7.1354  -14.7610   20.0970 C   0  0  0  0  0  0  0  0  0  0  0  0
    7.2900  -15.5091   21.2179 N   0  0  0  0  0  0  0  0  0  0  0  0
    9.7386  -15.6074   25.3029 C   0  0  0  0  0  0  0  0  0  0  0  0
   10.0586  -16.7343   25.7454 O   0  0  0  0  0  0  0  0  0  0  0  0
    9.8207  -13.3468   28.2976 C   0  0  0  0  0  0  0  0  0  0  0  0
   10.0570  -14.6847   27.5826 C   0  0  2  0  0  0  0  0  0  0  0  0
    9.6639  -14.5250   26.2080 N   0  0  0  0  0  0  0  0  0  0  0  0
    9.3226  -15.7841   28.2166 C   0  0  0  0  0  0  0  0  0  0  0  0
    8.2302  -16.1494   27.7392 O   0  0  0  0  0  0  0  0  0  0  0  0
    9.8669  -16.4006   29.3452 O   0  0  0  0  0  0  0  0  0  0  0  0
  2  1  1  6
  2  3  1  0
  2  6  1  0
  3  4  1  0
  4  5  2  0
  4  8  1  0
  6  7  2  0
  9  6  1  0
  9 10  1  0
 10 17  1  0
 10 11  1  1
 11 12  1  0
 12 13  2  0
 13 14  1  0
 15 14  1  0
 16 12  1  0
 16 15  2  0
 17 18  2  0
 20 19  1  1
 20 22  1  0
 21 20  1  0
 21 17  1  0
 22 23  2  0
 22 24  1  0
M  END
$$$$
