DHA.pdb
     RDKit          3D

 24 24  0  0  1  0  0  0  0  0999 V2000
    9.7490  -14.0266   19.5291 N   0  0  0  0  0  0  0  0  0  0  0  0
    8.4628  -13.5023   19.8388 C   0  0  1  0  0  0  0  0  0  0  0  0
    7.4278  -13.7384   18.7627 C   0  0  0  0  0  0  0  0  0  0  0  0
    8.1172  -13.9262   17.4649 C   0  0  0  0  0  0  0  0  0  0  0  0
    8.9342  -14.8815   17.3597 O   0  0  0  0  0  0  0  0  0  0  0  0
    8.0176  -14.1104   21.1349 C   0  0  0  0  0  0  0  0  0  0  0  0
    6.8510  -13.9486   21.5659 O   0  0  0  0  0  0  0  0  0  0  0  0
    7.9223  -13.1160   16.3512 O   0  0  0  0  0  0  0  0  0  0  0  0
    8.8890  -14.9006   21.9448 N   0  0  0  0  0  0  0  0  0  0  0  0
    8.4564  -15.4584   23.2015 C   0  0  1  0  0  0  0  0  0  0  0  0
    9.0539  -16.8103   23.4985 C   0  0  0  0  0  0  0  0  0  0  0  0
    8.6219  -17.8247   22.5051 C   0  0  0  0  0  0  0  0  0  0  0  0
    7.3370  -17.9951   21.9941 C   0  0  0  0  0  0  0  0  0  0  0  0
    7.3898  -19.0233   21.1322 N   0  0  0  0  0  0  0  0  0  0  0  0
    8.6219  -19.5065   21.0712 C   0  0  0  0  0  0  0  0  0  0  0  0
    9.3747  -18.7643   21.9212 N   0  0  0  0  0  0  0  0  0  0  0  0
    8.6900  -14.5040   24.3277 C   0  0  0  0  0  0  0  0  0  0  0  0
    9.8406  -14.1140   24.6315 O   0  0  0  0  0  0  0  0  0  0  0  0
    6.4579  -12.3645   26.3985 C   0  0  0  0  0  0  0  0  0  0  0  0
    7.7927  -13.0807   26.1495 C   0  0  2  0  0  0  0  0  0  0  0  0
    7.5951  -14.0211   25.0789 N   0  0  0  0  0  0  0  0  0  0  0  0
    8.2902  -13.7511   27.3549 C   0  0  0  0  0  0  0  0  0  0  0  0
    8.2622  -14.9959   27.4218 O   0  0  0  0  0  0  0  0  0  0  0  0
    8.7875  -12.9764   28.4049 O   0  0  0  0  0  0  0  0  0  0  0  0
  2  1  1  6
  2  3  1  0
  2  6  1  0
  3  4  1  0
  4  5  2  0
  4  8  1  0
  6  7  2  0
  9  6  1  0
  9 10  1  0
 10 17  1  0
 10 11  1  1
 11 12  1  0
 12 13  2  0
 13 14  1  0
 15 14  1  0
 16 12  1  0
 16 15  2  0
 17 18  2  0
 20 19  1  1
 20 22  1  0
 21 20  1  0
 21 17  1  0
 22 23  2  0
 22 24  1  0
M  END
$$$$
