EKH.pdb
     RDKit          3D

 29 29  0  0  1  0  0  0  0  0999 V2000
   25.5041  -21.7575  -13.8180 N   0  0  0  0  0  0  0  0  0  0  0  0
   24.4114  -21.1471  -13.0756 C   0  0  1  0  0  0  0  0  0  0  0  0
   24.8420  -20.9837  -11.6684 C   0  0  0  0  0  0  0  0  0  0  0  0
   26.3400  -21.0002  -11.5793 C   0  0  0  0  0  0  0  0  0  0  0  0
   26.8932  -20.8646  -10.2340 C   0  0  0  0  0  0  0  0  0  0  0  0
   28.1095  -20.8214  -10.0033 O   0  0  0  0  0  0  0  0  0  0  0  0
   24.0351  -19.8547  -13.7242 C   0  0  0  0  0  0  0  0  0  0  0  0
   23.1624  -19.1037  -13.2208 O   0  0  0  0  0  0  0  0  0  0  0  0
   26.0486  -20.7742   -9.1063 O   0  0  0  0  0  0  0  0  0  0  0  0
   24.6650  -19.4759  -14.9109 N   0  0  0  0  0  0  0  0  0  0  0  0
   24.3859  -18.2229  -15.6393 C   0  0  1  0  0  0  0  0  0  0  0  0
   25.2802  -18.1403  -16.8418 C   0  0  0  0  0  0  0  0  0  0  0  0
   25.9919  -16.8285  -16.8194 C   0  0  0  0  0  0  0  0  0  0  0  0
   26.9428  -16.6176  -17.9801 C   0  0  0  0  0  0  0  0  0  0  0  0
   27.5457  -15.2490  -17.8930 C   0  0  0  0  0  0  0  0  0  0  0  0
   28.5556  -15.0784  -18.9461 N   0  0  0  0  0  0  0  0  0  0  0  0
   22.9583  -18.1226  -15.9306 C   0  0  0  0  0  0  0  0  0  0  0  0
   22.3731  -19.1340  -16.4652 O   0  0  0  0  0  0  0  0  0  0  0  0
   22.1065  -17.0222  -15.6840 N   0  0  0  0  0  0  0  0  0  0  0  0
   20.6469  -17.1034  -15.9943 C   0  0  1  0  0  0  0  0  0  0  0  0
   19.9899  -17.2398  -14.6585 C   0  0  0  0  0  0  0  0  0  0  0  0
   18.5313  -17.1659  -14.7280 C   0  0  0  0  0  0  0  0  0  0  0  0
   17.7842  -16.9967  -15.9031 C   0  0  0  0  0  0  0  0  0  0  0  0
   16.4990  -16.9775  -15.5640 N   0  0  0  0  0  0  0  0  0  0  0  0
   16.3650  -17.1255  -14.2257 C   0  0  0  0  0  0  0  0  0  0  0  0
   17.6055  -17.2348  -13.7654 N   0  0  0  0  0  0  0  0  0  0  0  0
   20.2625  -15.8845  -16.7199 C   0  0  0  0  0  0  0  0  0  0  0  0
   20.7831  -14.7937  -16.4469 O   0  0  0  0  0  0  0  0  0  0  0  0
   19.2921  -15.9673  -17.7348 O   0  0  0  0  0  0  0  0  0  0  0  0
  2  1  1  6
  3  2  1  0
  4  3  1  0
  5  4  1  0
  6  5  2  0
  7  2  1  0
  7  8  2  0
  9  5  1  0
 10  7  1  0
 11 10  1  0
 11 12  1  6
 13 12  1  0
 13 14  1  0
 14 15  1  0
 16 15  1  0
 17 11  1  0
 18 17  2  0
 19 17  1  0
 20 27  1  0
 20 19  1  0
 21 22  1  0
 20 21  1  1
 22 23  2  0
 23 24  1  0
 25 24  1  0
 26 22  1  0
 26 25  2  0
 27 29  1  0
 28 27  2  0
M  END
$$$$
