EKH.pdb
     RDKit          3D

 29 29  0  0  1  0  0  0  0  0999 V2000
   28.8259  -19.8372  -16.5672 N   0  0  0  0  0  0  0  0  0  0  0  0
   27.4732  -19.3751  -16.8397 C   0  0  1  0  0  0  0  0  0  0  0  0
   27.2070  -19.5492  -18.2859 C   0  0  0  0  0  0  0  0  0  0  0  0
   28.1312  -18.6836  -19.0912 C   0  0  0  0  0  0  0  0  0  0  0  0
   27.6069  -17.3696  -19.4556 C   0  0  0  0  0  0  0  0  0  0  0  0
   28.0550  -16.3105  -18.9952 O   0  0  0  0  0  0  0  0  0  0  0  0
   26.5120  -20.1242  -15.9753 C   0  0  0  0  0  0  0  0  0  0  0  0
   25.7793  -21.0286  -16.4489 O   0  0  0  0  0  0  0  0  0  0  0  0
   26.5400  -17.2408  -20.3711 O   0  0  0  0  0  0  0  0  0  0  0  0
   26.4271  -19.8128  -14.6172 N   0  0  0  0  0  0  0  0  0  0  0  0
   25.6648  -20.5994  -13.6280 C   0  0  1  0  0  0  0  0  0  0  0  0
   26.1810  -20.2964  -12.2517 C   0  0  0  0  0  0  0  0  0  0  0  0
   27.2749  -21.2592  -11.9284 C   0  0  0  0  0  0  0  0  0  0  0  0
   28.0762  -20.8977  -10.6943 C   0  0  0  0  0  0  0  0  0  0  0  0
   29.1848  -21.8877  -10.5076 C   0  0  0  0  0  0  0  0  0  0  0  0
   29.9864  -21.5265   -9.3309 N   0  0  0  0  0  0  0  0  0  0  0  0
   24.2331  -20.3739  -13.8077 C   0  0  0  0  0  0  0  0  0  0  0  0
   23.7928  -19.1686  -13.7401 O   0  0  0  0  0  0  0  0  0  0  0  0
   23.2364  -21.3427  -14.0638 N   0  0  0  0  0  0  0  0  0  0  0  0
   21.8035  -20.9431  -14.2063 C   0  0  1  0  0  0  0  0  0  0  0  0
   21.1405  -22.1429  -14.8027 C   0  0  0  0  0  0  0  0  0  0  0  0
   19.7016  -21.9662  -14.9928 C   0  0  0  0  0  0  0  0  0  0  0  0
   18.9680  -20.8322  -14.6140 C   0  0  0  0  0  0  0  0  0  0  0  0
   17.6989  -21.0431  -14.9486 N   0  0  0  0  0  0  0  0  0  0  0  0
   17.5627  -22.2585  -15.5278 C   0  0  0  0  0  0  0  0  0  0  0  0
   18.7853  -22.7761  -15.5339 N   0  0  0  0  0  0  0  0  0  0  0  0
   21.2913  -20.5854  -12.8760 C   0  0  0  0  0  0  0  0  0  0  0  0
   21.7272  -21.1420  -11.8584 O   0  0  0  0  0  0  0  0  0  0  0  0
   20.2955  -19.5980  -12.7667 O   0  0  0  0  0  0  0  0  0  0  0  0
  2  1  1  6
  3  2  1  0
  4  3  1  0
  5  4  1  0
  6  5  2  0
  7  2  1  0
  7  8  2  0
  9  5  1  0
 10  7  1  0
 11 10  1  0
 11 12  1  1
 13 12  1  0
 13 14  1  0
 14 15  1  0
 16 15  1  0
 17 11  1  0
 18 17  2  0
 19 17  1  0
 20 27  1  0
 20 19  1  0
 21 22  1  0
 20 21  1  1
 22 23  2  0
 23 24  1  0
 25 24  1  0
 26 22  1  0
 26 25  2  0
 27 29  1  0
 28 27  2  0
M  END
$$$$
