EKH.pdb
     RDKit          3D

 29 29  0  0  1  0  0  0  0  0999 V2000
   24.5701  -12.9997  -17.8658 N   0  0  0  0  0  0  0  0  0  0  0  0
   24.6591  -11.9216  -16.8925 C   0  0  1  0  0  0  0  0  0  0  0  0
   25.9872  -11.2816  -17.0307 C   0  0  0  0  0  0  0  0  0  0  0  0
   27.0665  -12.2261  -16.5888 C   0  0  0  0  0  0  0  0  0  0  0  0
   28.4256  -11.6916  -16.6247 C   0  0  0  0  0  0  0  0  0  0  0  0
   28.7684  -10.6717  -16.0110 O   0  0  0  0  0  0  0  0  0  0  0  0
   23.5277  -10.9693  -17.1056 C   0  0  0  0  0  0  0  0  0  0  0  0
   23.2639  -10.5172  -18.2480 O   0  0  0  0  0  0  0  0  0  0  0  0
   29.4369  -12.3266  -17.3779 O   0  0  0  0  0  0  0  0  0  0  0  0
   22.7504  -10.5754  -16.0151 N   0  0  0  0  0  0  0  0  0  0  0  0
   21.5559   -9.7138  -16.1111 C   0  0  1  0  0  0  0  0  0  0  0  0
   20.4196  -10.3600  -15.3736 C   0  0  0  0  0  0  0  0  0  0  0  0
   19.8442  -11.4378  -16.2312 C   0  0  0  0  0  0  0  0  0  0  0  0
   18.7504  -12.2459  -15.5631 C   0  0  0  0  0  0  0  0  0  0  0  0
   18.2735  -13.3148  -16.4981 C   0  0  0  0  0  0  0  0  0  0  0  0
   17.3604  -14.2253  -15.7944 N   0  0  0  0  0  0  0  0  0  0  0  0
   21.8804   -8.3600  -15.6696 C   0  0  0  0  0  0  0  0  0  0  0  0
   22.3667   -8.2038  -14.4905 O   0  0  0  0  0  0  0  0  0  0  0  0
   21.7317   -7.1594  -16.4002 N   0  0  0  0  0  0  0  0  0  0  0  0
   22.0319   -5.8395  -15.7670 C   0  0  1  0  0  0  0  0  0  0  0  0
   21.7648   -4.8402  -16.8462 C   0  0  0  0  0  0  0  0  0  0  0  0
   21.9948   -3.4609  -16.4186 C   0  0  0  0  0  0  0  0  0  0  0  0
   22.9636   -3.0519  -15.4903 C   0  0  0  0  0  0  0  0  0  0  0  0
   22.8671   -1.7323  -15.3625 N   0  0  0  0  0  0  0  0  0  0  0  0
   21.8839   -1.2547  -16.1601 C   0  0  0  0  0  0  0  0  0  0  0  0
   21.3888   -2.3229  -16.7736 N   0  0  0  0  0  0  0  0  0  0  0  0
   21.1638   -5.6854  -14.5912 C   0  0  0  0  0  0  0  0  0  0  0  0
   21.6009   -5.1948  -13.5407 O   0  0  0  0  0  0  0  0  0  0  0  0
   19.8225   -6.1019  -14.6692 O   0  0  0  0  0  0  0  0  0  0  0  0
  2  1  1  6
  3  2  1  0
  4  3  1  0
  5  4  1  0
  6  5  2  0
  7  2  1  0
  7  8  2  0
  9  5  1  0
 10  7  1  0
 11 10  1  0
 11 12  1  1
 13 12  1  0
 13 14  1  0
 14 15  1  0
 16 15  1  0
 17 11  1  0
 18 17  2  0
 19 17  1  0
 20 27  1  0
 20 19  1  0
 21 22  1  0
 20 21  1  6
 22 23  2  0
 23 24  1  0
 25 24  1  0
 26 22  1  0
 26 25  2  0
 27 29  1  0
 28 27  2  0
M  END
$$$$
